data_Molecule from HDF5

_cell_length_a		197.926080
_cell_length_b		50.029802
_cell_length_c		13.896285
_cell_angle_alpha	90.001691
_cell_angle_beta	90.001135
_cell_angle_gamma	90.015017
_symmetry_space_group_name_H-M	'P 1'
_symmetry_Int_Tables_number		1

loop_
	_symmetry_equiv_pos_as_xyz
	x,y,z

loop_
	_atom_site_label
	_atom_site_type_symbol
	_atom_site_fract_x
	_atom_site_fract_y
	_atom_site_fract_z
	H0	H	0.012492	0.090112	0.369593
	H1	H	0.077029	0.038408	0.327549
	H2	H	0.050092	0.097685	0.131708
	H3	H	0.110513	0.024905	0.172573
	H4	H	0.048082	0.087119	0.328478
	H5	H	0.112583	0.034745	0.369490
	H6	H	0.014463	0.100727	0.173853
	H7	H	0.074933	0.028492	0.131417
	H8	H	0.048006	0.037962	0.078201
	H9	H	0.112476	0.090447	0.120150
	H10	H	0.014526	0.024026	0.423064
	H11	H	0.074955	0.097851	0.380825
	H12	H	0.012378	0.035058	0.120102
	H13	H	0.076974	0.087250	0.077037
	H14	H	0.050017	0.028218	0.381396
	H15	H	0.110440	0.101160	0.423315
	H16	H	0.024259	0.096611	0.355837
	H17	H	0.088559	0.027675	0.340561
	H18	H	0.038321	0.091343	0.145671
	H19	H	0.100732	0.028579	-0.144777
	H20	H	0.036507	0.097469	0.341476
	H21	H	0.100797	0.028651	0.354999
	H22	H	0.026088	0.090102	0.161050
	H23	H	0.088523	0.027746	-0.159258
	H24	H	0.038225	0.034075	0.395273
	H25	H	0.100778	0.096287	0.105606
	H26	H	0.024188	0.028575	0.105182
	H27	H	0.086669	0.091710	0.395570
	H28	H	0.025964	0.035161	0.410099
	H29	H	0.088539	0.097603	0.090381
	H30	H	0.036385	0.027566	0.090582
	H31	H	0.098903	0.090542	0.410685
	Co32	Co	0.124956	0.125131	0.156993
	Co33	Co	0.062454	0.062781	0.094449
	Co34	Co	-0.000003	-0.000003	0.406722
	Co35	Co	0.062504	0.062767	0.344225
	C36	C	0.011887	0.094229	0.445107
	C37	C	0.075358	0.037533	0.400777
	C38	C	0.050655	0.093341	0.056393
	C39	C	0.112143	0.025770	0.099389
	C40	C	0.049684	0.088165	0.401945
	C41	C	0.113202	0.030584	0.444727
	C42	C	0.012856	0.099751	0.100530
	C43	C	0.074308	0.032437	0.056408
	C44	C	0.049595	0.037443	0.151601
	C45	C	0.113143	0.094562	0.195120
	C46	C	0.012836	0.025034	0.349750
	C47	C	0.074311	0.093518	0.305651
	C48	C	0.011785	0.030528	0.194946
	C49	C	0.075318	0.088096	0.150977
	C50	C	0.050614	0.032267	0.306267
	C51	C	0.112112	0.100018	0.350152
	C52	C	0.016687	0.093808	0.518077
	C53	C	0.079138	0.031505	-0.016765
	C54	C	0.045903	0.094014	0.483477
	C55	C	0.108318	0.031551	0.017583
	C56	C	0.045800	0.031452	0.233331
	C57	C	0.108290	0.094058	0.268313
	C58	C	0.016606	0.031219	0.268099
	C59	C	0.079150	0.094241	0.232562
	C60	C	0.024082	0.092876	0.509176
	C61	C	0.086516	0.030471	-0.007948
	C62	C	0.038506	0.094914	0.492329
	C63	C	0.100943	0.032374	0.008846
	C64	C	0.038414	0.030570	0.241892
	C65	C	0.100928	0.093092	0.259536
	C66	C	0.023994	0.032232	0.259059
	C67	C	0.086523	0.095060	0.241709
	C68	C	0.027284	0.095180	0.420166
	C69	C	0.090783	0.029362	0.411279
	C70	C	0.035253	0.092665	0.081688
	C71	C	0.097726	0.029977	-0.080099
	C72	C	0.034268	0.096034	0.412015
	C73	C	0.097776	0.030149	0.419444
	C74	C	0.028276	0.091761	0.090253
	C75	C	0.090733	0.029260	-0.088391
	C76	C	0.035191	0.032769	0.330932
	C77	C	0.097748	0.095114	0.170133
	C78	C	0.027198	0.029908	0.169868
	C79	C	0.089703	0.092805	0.331011
	C80	C	0.028206	0.033522	0.339433
	C81	C	0.090746	0.095987	0.161354
	C82	C	0.034186	0.029199	0.161568
	C83	C	0.096701	0.091966	0.339736
	N84	N	0.005759	0.101599	0.480008
	N85	N	0.068863	0.042457	0.423885
	N86	N	0.056803	0.086212	0.021589
	N87	N	0.118613	0.020577	0.076489
	N88	N	0.056166	0.083017	0.424372
	N89	N	0.119318	0.023391	0.479483
	N90	N	0.006376	0.104877	0.077537
	N91	N	0.068199	0.039776	0.021490
	N92	N	0.056087	0.042601	0.174217
	N93	N	0.119271	0.101801	0.230110
	N94	N	0.006354	0.019980	0.326902
	N95	N	0.068195	0.086127	0.271030
	N96	N	0.005664	0.023146	0.229947
	N97	N	0.068847	0.083035	0.173962
	N98	N	0.056736	0.039683	0.271354
	N99	N	0.118602	0.104915	0.327284
	H100	H	0.012439	0.090045	0.870838
	H101	H	0.076955	0.038401	0.828386
	H102	H	0.050099	0.097146	0.631689
	H103	H	0.110528	0.024480	0.673278
	H104	H	0.048016	0.087102	0.828265
	H105	H	0.112477	0.034401	0.868880
	H106	H	0.014558	0.101212	0.673303
	H107	H	0.075012	0.027396	0.631084
	H108	H	0.048104	0.037959	0.577545
	H109	H	0.112590	0.090516	0.619380
	H110	H	0.014522	0.024228	0.922591
	H111	H	0.074959	0.098054	0.880726
	H112	H	0.012464	0.034741	0.618999
	H113	H	0.077031	0.086879	0.578312
	H114	H	0.050089	0.028198	0.881794
	H115	H	0.110500	0.100892	0.923271
	H116	H	0.024185	0.096194	0.856739
	H117	H	0.086735	0.034161	1.145831
	H118	H	0.038296	0.090925	0.645896
	H119	H	0.098965	0.035207	0.659614
	H120	H	0.036449	0.097412	0.841634
	H121	H	0.098945	0.035351	1.160157
	H122	H	0.026081	0.089753	0.660156
	H123	H	0.086742	0.034022	0.645114
	H124	H	0.036549	0.027319	0.590906
	H125	H	0.100789	0.096515	0.605562
	H126	H	0.026078	0.035278	0.909731
	H127	H	0.086729	0.091377	0.895489
	H128	H	0.024308	0.028616	0.604785
	H129	H	0.088585	0.098246	0.590725
	H130	H	0.038346	0.033970	0.895180
	H131	H	0.098978	0.090191	0.910064
	Co132	Co	0.124993	0.125341	0.656743
	Co133	Co	0.062554	0.062647	0.594207
	Co134	Co	-0.000008	0.000194	0.906723
	Co135	Co	0.062513	0.062994	0.844552
	C136	C	0.011836	0.094272	0.946037
	C137	C	0.075322	0.037454	0.901530
	C138	C	0.050681	0.093136	0.556579
	C139	C	0.112173	0.025510	0.599749
	C140	C	0.049641	0.088093	0.901773
	C141	C	0.113138	0.030656	0.944423
	C142	C	0.012922	0.099883	0.599849
	C143	C	0.074345	0.031877	0.555728
	C144	C	0.049698	0.037265	0.651255
	C145	C	0.113182	0.094662	0.694941
	C146	C	0.012889	0.025131	0.849180
	C147	C	0.074355	0.093655	0.805991
	C148	C	0.011877	0.030465	0.694299
	C149	C	0.075415	0.087913	0.651383
	C150	C	0.050696	0.032272	0.806390
	C151	C	0.112145	0.099933	0.849592
	C152	C	0.016638	0.093598	1.019079
	C153	C	0.079171	0.031400	0.482479
	C154	C	0.045853	0.093987	0.983342
	C155	C	0.108368	0.031372	0.517698
	C156	C	0.045909	0.031267	0.733214
	C157	C	0.108359	0.093827	0.767987
	C158	C	0.016687	0.031204	0.767638
	C159	C	0.079185	0.094187	0.733092
	C160	C	0.024038	0.092758	1.010204
	C161	C	0.086563	0.030480	0.491415
	C162	C	0.038457	0.094791	0.992376
	C163	C	0.100994	0.032385	0.508556
	C164	C	0.038515	0.030248	0.742005
	C165	C	0.100967	0.092922	0.759119
	C166	C	0.024080	0.032119	0.758841
	C167	C	0.086561	0.095020	0.742052
	C168	C	0.027221	0.095000	0.920931
	C169	C	0.089742	0.032750	1.081149
	C170	C	0.035280	0.092595	0.581581
	C171	C	0.096760	0.033664	0.588826
	C172	C	0.034215	0.095921	0.912198
	C173	C	0.096735	0.033705	1.089251
	C174	C	0.028299	0.091594	0.589499
	C175	C	0.089762	0.032852	0.580530
	C176	C	0.034289	0.029012	0.661537
	C177	C	0.097764	0.095205	0.669999
	C178	C	0.028297	0.033439	0.838974
	C179	C	0.089763	0.092521	0.831054
	C180	C	0.027299	0.029750	0.669651
	C181	C	0.090777	0.096287	0.661596
	C182	C	0.035285	0.032551	0.830932
	C183	C	0.096752	0.091698	0.839468
	N184	N	0.005715	0.101812	0.980370
	N185	N	0.068843	0.042689	0.924337
	N186	N	0.056813	0.085884	0.521754
	N187	N	0.118651	0.020472	0.577064
	N188	N	0.056147	0.083163	0.924247
	N189	N	0.119248	0.023325	0.979313
	N190	N	0.006426	0.104885	0.576937
	N191	N	0.068206	0.039286	0.520807
	N192	N	0.056199	0.042476	0.674475
	N193	N	0.119298	0.101982	0.729880
	N194	N	0.006420	0.020099	0.826575
	N195	N	0.068244	0.086148	0.771218
	N196	N	0.005766	0.023141	0.729266
	N197	N	0.068925	0.082809	0.674076
	N198	N	0.056828	0.039583	0.771564
	N199	N	0.118619	0.105023	0.826917
	H200	H	0.012368	0.215044	0.369807
	H201	H	0.076971	0.163118	0.327643
	H202	H	0.049994	0.222042	0.130993
	H203	H	0.110486	0.149539	0.173111
	H204	H	0.047916	0.211547	0.327430
	H205	H	0.112538	0.159327	0.369157
	H206	H	0.014486	0.225856	0.173331
	H207	H	0.074909	0.152561	0.130866
	H208	H	0.047988	0.162972	0.077977
	H209	H	0.112483	0.215252	0.119537
	H210	H	0.014470	0.149008	0.423364
	H211	H	0.074789	0.222885	0.380566
	H212	H	0.012331	0.159588	0.119513
	H213	H	0.076984	0.211494	0.077156
	H214	H	0.050067	0.152651	0.380991
	H215	H	0.110422	0.225677	0.423347
	H216	H	0.024194	0.220698	0.355595
	H217	H	0.088501	0.152448	0.340665
	H218	H	0.036409	0.222534	-0.159349
	H219	H	0.098928	0.160314	0.159885
	H220	H	0.036401	0.222014	0.341090
	H221	H	0.100774	0.153856	0.355352
	H222	H	0.024199	0.221617	-0.144392
	H223	H	0.086711	0.159250	0.145089
	H224	H	0.036406	0.152646	0.090812
	H225	H	0.100708	0.221888	0.105747
	H226	H	0.025993	0.159889	0.410205
	H227	H	0.086650	0.216258	0.395292
	H228	H	0.024183	0.153740	0.105467
	H229	H	0.088493	0.223022	0.090852
	H230	H	0.038224	0.158583	0.395846
	H231	H	0.098860	0.214937	0.410483
	Co232	Co	0.124980	0.249802	0.156522
	Co233	Co	0.062476	0.187310	0.093733
	Co234	Co	0.000004	0.124590	0.406691
	Co235	Co	0.062454	0.187592	0.343658
	C236	C	0.011786	0.219255	0.445000
	C237	C	0.075351	0.162306	0.401200
	C238	C	0.050625	0.217723	0.055970
	C239	C	0.112132	0.150459	0.099891
	C240	C	0.049617	0.212713	0.400734
	C241	C	0.113133	0.155505	0.444667
	C242	C	0.012807	0.224816	0.100064
	C243	C	0.074300	0.156924	0.055761
	C244	C	0.049595	0.162120	0.151400
	C245	C	0.113120	0.219301	0.195158
	C246	C	0.012834	0.150108	0.349512
	C247	C	0.074242	0.218359	0.305489
	C248	C	0.011783	0.155459	0.194890
	C249	C	0.075318	0.212687	0.150819
	C250	C	0.050626	0.156790	0.306017
	C251	C	0.112087	0.224876	0.349889
	C252	C	0.016630	0.218560	0.518172
	C253	C	0.079135	0.156452	-0.017407
	C254	C	0.045821	0.218636	0.482834
	C255	C	0.108356	0.156505	0.017985
	C256	C	0.045825	0.156108	0.233016
	C257	C	0.108293	0.218700	0.268270
	C258	C	0.016581	0.156130	0.267827
	C259	C	0.079097	0.218908	0.232648
	C260	C	0.024007	0.217496	0.509296
	C261	C	0.086523	0.155580	-0.008496
	C262	C	0.038438	0.219341	0.492277
	C263	C	0.100963	0.157378	0.008935
	C264	C	0.038407	0.155245	0.241994
	C265	C	0.100902	0.217836	0.259215
	C266	C	0.023989	0.157148	0.258972
	C267	C	0.086470	0.219868	0.241691
	C268	C	0.027213	0.219660	0.420135
	C269	C	0.090741	0.154287	0.411245
	C270	C	0.034199	0.220935	-0.088704
	C271	C	0.096720	0.158639	0.089104
	C272	C	0.034205	0.220503	0.411904
	C273	C	0.097721	0.155234	0.419570
	C274	C	0.027197	0.220180	-0.079859
	C275	C	0.089732	0.157886	0.080560
	C276	C	0.034184	0.154072	0.161605
	C277	C	0.097684	0.220307	0.170115
	C278	C	0.028216	0.158265	0.339556
	C279	C	0.089673	0.217495	0.330838
	C280	C	0.027218	0.154833	0.169797
	C281	C	0.090697	0.221160	0.161563
	C282	C	0.035190	0.157431	0.331326
	C283	C	0.096669	0.216537	0.339536
	N284	N	0.005675	0.226735	0.479900
	N285	N	0.068862	0.167578	0.423925
	N286	N	0.056733	0.210500	0.021015
	N287	N	0.118614	0.145356	0.077337
	N288	N	0.056107	0.207743	0.423509
	N289	N	0.119267	0.148235	0.479653
	N290	N	0.006341	0.229997	0.076993
	N291	N	0.068155	0.164100	0.020779
	N292	N	0.056107	0.167107	0.173967
	N293	N	0.119237	0.226737	0.229805
	N294	N	0.006322	0.144996	0.326970
	N295	N	0.068138	0.210919	0.270468
	N296	N	0.005656	0.148068	0.229816
	N297	N	0.068832	0.207674	0.173403
	N298	N	0.056770	0.164051	0.271064
	N299	N	0.118578	0.229916	0.327099
	H300	H	0.012401	0.215136	0.869726
	H301	H	0.077010	0.163707	0.827525
	H302	H	0.050005	0.222180	0.631262
	H303	H	0.110513	0.149491	0.673437
	H304	H	0.047911	0.211335	0.827937
	H305	H	0.112563	0.159930	0.869789
	H306	H	0.014487	0.225608	0.673452
	H307	H	0.074899	0.152827	0.631594
	H308	H	0.048010	0.163350	0.577830
	H309	H	0.112597	0.215205	0.619836
	H310	H	0.014572	0.149266	0.923523
	H311	H	0.074999	0.222359	0.881865
	H312	H	0.012527	0.159816	0.620002
	H313	H	0.077020	0.212150	0.577960
	H314	H	0.050132	0.152443	0.881356
	H315	H	0.110485	0.225732	0.923447
	H316	H	0.026011	0.214468	1.160131
	H317	H	0.088545	0.152633	0.840334
	H318	H	0.038271	0.215643	0.645831
	H319	H	0.098926	0.160269	0.659890
	H320	H	0.038246	0.215476	1.145368
	H321	H	0.100802	0.153646	0.855445
	H322	H	0.026026	0.214622	0.660303
	H323	H	0.086696	0.158782	0.645708
	H324	H	0.036464	0.152317	0.591293
	H325	H	0.100770	0.221636	0.605217
	H326	H	0.026132	0.160331	0.910634
	H327	H	0.086723	0.216373	0.895665
	H328	H	0.024257	0.154048	0.606067
	H329	H	0.088574	0.223095	0.590629
	H330	H	0.038306	0.158929	0.895977
	H331	H	0.098933	0.214814	0.910386
	Co332	Co	0.125020	0.250083	0.657269
	Co333	Co	0.062511	0.187862	0.594100
	Co334	Co	0.000052	0.125218	0.907057
	Co335	Co	0.062522	0.187560	0.843845
	C336	C	0.011791	0.219521	0.944970
	C337	C	0.075339	0.162503	0.900915
	C338	C	0.050669	0.218072	0.555740
	C339	C	0.112121	0.150499	0.599605
	C340	C	0.049601	0.212421	0.900962
	C341	C	0.113183	0.155775	0.945085
	C342	C	0.012838	0.224710	0.599764
	C343	C	0.074312	0.156936	0.555996
	C344	C	0.049673	0.162348	0.651114
	C345	C	0.113200	0.219482	0.695090
	C346	C	0.012908	0.150318	0.850231
	C347	C	0.074333	0.218219	0.806578
	C348	C	0.011891	0.155689	0.695239
	C349	C	0.075331	0.213075	0.651199
	C350	C	0.050725	0.156738	0.805793
	C351	C	0.112156	0.224789	0.849949
	C352	C	0.016643	0.218658	1.018278
	C353	C	0.079106	0.156191	0.482779
	C354	C	0.045789	0.218411	0.982788
	C355	C	0.108338	0.156305	0.517828
	C356	C	0.045885	0.156137	0.732842
	C357	C	0.108325	0.218682	0.768092
	C358	C	0.016720	0.156249	0.768449
	C359	C	0.079179	0.219030	0.733131
	C360	C	0.024003	0.217663	1.009123
	C361	C	0.086507	0.155323	0.491738
	C362	C	0.038418	0.219386	0.991720
	C363	C	0.100929	0.157460	0.508808
	C364	C	0.038514	0.155239	0.742206
	C365	C	0.100970	0.217763	0.759122
	C366	C	0.024088	0.157227	0.759648
	C367	C	0.086532	0.220010	0.741846
	C368	C	0.028206	0.216250	1.089371
	C369	C	0.090758	0.154372	0.911240
	C370	C	0.035258	0.217001	0.581416
	C371	C	0.096696	0.158694	0.589113
	C372	C	0.035207	0.217004	1.081027
	C373	C	0.097762	0.155068	0.919744
	C374	C	0.028254	0.216289	0.589569
	C375	C	0.089718	0.157791	0.581041
	C376	C	0.034270	0.154092	0.662160
	C377	C	0.097774	0.220270	0.670036
	C378	C	0.028316	0.158297	0.839865
	C379	C	0.089733	0.217514	0.830986
	C380	C	0.027280	0.155017	0.670539
	C381	C	0.090755	0.221265	0.661585
	C382	C	0.035312	0.157628	0.831377
	C383	C	0.096740	0.216527	0.839433
	N384	N	0.005693	0.226876	0.979926
	N385	N	0.068837	0.167340	0.923869
	N386	N	0.056787	0.210926	0.520639
	N387	N	0.118612	0.145398	0.576809
	N388	N	0.056083	0.207394	0.923841
	N389	N	0.119287	0.148400	0.980120
	N390	N	0.006371	0.229913	0.577102
	N391	N	0.068197	0.164483	0.521242
	N392	N	0.056156	0.167465	0.673711
	N393	N	0.119280	0.226882	0.730038
	N394	N	0.006424	0.145414	0.827274
	N395	N	0.068215	0.210932	0.771605
	N396	N	0.005772	0.148454	0.730128
	N397	N	0.068867	0.207938	0.674470
	N398	N	0.056825	0.164234	0.770803
	N399	N	0.118606	0.230007	0.827319
	H400	H	0.012387	0.340402	0.369229
	H401	H	0.077085	0.288675	0.327594
	H402	H	0.050099	0.347133	0.131004
	H403	H	0.110443	0.273943	0.173202
	H404	H	0.047998	0.336728	0.327263
	H405	H	0.112579	0.285276	0.370285
	H406	H	0.014530	0.350637	0.173389
	H407	H	0.074971	0.277743	0.130172
	H408	H	0.048033	0.288474	0.077094
	H409	H	0.112588	0.339898	0.120256
	H410	H	0.014610	0.274004	0.423456
	H411	H	0.074891	0.347385	0.381896
	H412	H	0.012497	0.285241	0.119964
	H413	H	0.076973	0.336878	0.077966
	H414	H	0.050140	0.277117	0.380460
	H415	H	0.110460	0.351011	0.423710
	H416	H	0.024216	0.346479	0.354529
	H417	H	0.088568	0.277193	0.341115
	H418	H	0.036419	0.347850	-0.159490
	H419	H	0.098934	0.285138	0.159492
	H420	H	0.036459	0.347201	0.340146
	H421	H	0.100790	0.278176	0.356421
	H422	H	0.024198	0.346694	-0.144572
	H423	H	0.086715	0.284419	0.144966
	H424	H	0.038391	0.283630	0.394698
	H425	H	0.100735	0.346715	0.105609
	H426	H	0.024254	0.278192	0.105382
	H427	H	0.086706	0.340758	0.395854
	H428	H	0.026166	0.284877	0.410009
	H429	H	0.088528	0.347862	0.091541
	H430	H	0.036472	0.277135	0.090254
	H431	H	0.098939	0.339721	0.410572
	Co432	Co	0.124998	0.374667	0.157149
	Co433	Co	0.062535	0.312501	0.093506
	Co434	Co	0.000007	0.250123	0.406643
	Co435	Co	0.062484	0.312411	0.344161
	C436	C	0.011823	0.344600	0.444670
	C437	C	0.075389	0.287496	0.400849
	C438	C	0.050681	0.342958	0.055533
	C439	C	0.112125	0.275011	0.099581
	C440	C	0.049640	0.337504	0.400738
	C441	C	0.113194	0.280990	0.445445
	C442	C	0.012844	0.349597	0.099795
	C443	C	0.074343	0.282032	0.055410
	C444	C	0.049690	0.287104	0.150493
	C445	C	0.113159	0.344258	0.195449
	C446	C	0.012922	0.275048	0.350088
	C447	C	0.074319	0.342985	0.306359
	C448	C	0.011865	0.280767	0.195347
	C449	C	0.075350	0.337755	0.151562
	C450	C	0.050715	0.281648	0.305167
	C451	C	0.112108	0.349914	0.350175
	C452	C	0.016653	0.344003	0.517806
	C453	C	0.079175	0.281474	-0.017843
	C454	C	0.045836	0.343357	0.482560
	C455	C	0.108333	0.281130	0.017663
	C456	C	0.045888	0.280882	0.232018
	C457	C	0.108345	0.343769	0.268417
	C458	C	0.016707	0.281311	0.268272
	C459	C	0.079135	0.343765	0.233358
	C460	C	0.024032	0.342972	0.508473
	C461	C	0.086554	0.280506	-0.008742
	C462	C	0.038436	0.344356	0.491157
	C463	C	0.100968	0.282134	0.008486
	C464	C	0.038512	0.279868	0.241128
	C465	C	0.100958	0.342880	0.259383
	C466	C	0.024094	0.281976	0.259042
	C467	C	0.086530	0.344666	0.242405
	C468	C	0.027230	0.345065	0.419028
	C469	C	0.090774	0.279039	0.411924
	C470	C	0.034221	0.345980	-0.088630
	C471	C	0.096733	0.283624	0.088646
	C472	C	0.034215	0.345613	0.410654
	C473	C	0.097764	0.279921	0.420450
	C474	C	0.027234	0.345242	-0.080299
	C475	C	0.089739	0.282954	0.080547
	C476	C	0.035339	0.282168	0.330507
	C477	C	0.097727	0.345335	0.170292
	C478	C	0.027278	0.279624	0.169843
	C479	C	0.089730	0.342166	0.331536
	C480	C	0.028346	0.283099	0.339197
	C481	C	0.090751	0.346078	0.162236
	C482	C	0.034264	0.278682	0.161196
	C483	C	0.096725	0.341474	0.339786
	N484	N	0.005682	0.351726	0.479943
	N485	N	0.068891	0.292451	0.423692
	N486	N	0.056810	0.335685	0.020808
	N487	N	0.118624	0.270065	0.076898
	N488	N	0.056141	0.332716	0.423847
	N489	N	0.119295	0.273452	0.480121
	N490	N	0.006370	0.354729	0.076757
	N491	N	0.068227	0.289300	0.020471
	N492	N	0.056145	0.292381	0.173441
	N493	N	0.119293	0.351607	0.230148
	N494	N	0.006423	0.270061	0.327161
	N495	N	0.068204	0.335733	0.271272
	N496	N	0.005747	0.273375	0.230133
	N497	N	0.068876	0.332627	0.174305
	N498	N	0.056827	0.289133	0.270366
	N499	N	0.118610	0.355015	0.327323
	H500	H	0.012428	0.340196	0.869287
	H501	H	0.077058	0.288460	0.827267
	H502	H	0.049962	0.346803	0.630923
	H503	H	0.110481	0.274122	0.673192
	H504	H	0.048019	0.336875	0.827213
	H505	H	0.112571	0.284802	0.869460
	H506	H	0.014522	0.351012	0.673182
	H507	H	0.074915	0.277511	0.631084
	H508	H	0.047959	0.288198	0.577763
	H509	H	0.112528	0.340039	0.620189
	H510	H	0.014477	0.274333	0.923638
	H511	H	0.074910	0.347350	0.879985
	H512	H	0.012432	0.284961	0.620371
	H513	H	0.076997	0.336887	0.577082
	H514	H	0.050123	0.277193	0.880936
	H515	H	0.110396	0.351143	0.923297
	H516	H	0.025988	0.339236	1.159510
	H517	H	0.088562	0.277156	0.840419
	H518	H	0.038289	0.341087	0.644629
	H519	H	0.098906	0.285345	0.660618
	H520	H	0.038254	0.340619	1.145455
	H521	H	0.100800	0.278202	0.855069
	H522	H	0.026056	0.340027	0.659659
	H523	H	0.086717	0.284339	0.645800
	H524	H	0.036453	0.276983	0.591076
	H525	H	0.100772	0.346817	0.605823
	H526	H	0.026071	0.285392	0.910568
	H527	H	0.086682	0.341115	0.895081
	H528	H	0.024226	0.278315	0.606285
	H529	H	0.088576	0.347979	0.590266
	H530	H	0.038308	0.284024	0.895681
	H531	H	0.098900	0.339660	0.910227
	Co532	Co	0.124955	0.375009	0.656563
	Co533	Co	0.062490	0.312439	0.593756
	Co534	Co	-0.000011	0.250137	0.906843
	Co535	Co	0.062470	0.312300	0.843427
	C536	C	0.011803	0.344255	0.944879
	C537	C	0.075370	0.287537	0.900563
	C538	C	0.050630	0.342787	0.555822
	C539	C	0.112158	0.275358	0.600061
	C540	C	0.049638	0.337732	0.900839
	C541	C	0.113180	0.280596	0.944853
	C542	C	0.012879	0.349948	0.599731
	C543	C	0.074320	0.281944	0.555673
	C544	C	0.049638	0.287052	0.651075
	C545	C	0.113140	0.344362	0.695351
	C546	C	0.012874	0.275294	0.850069
	C547	C	0.074283	0.343184	0.805096
	C548	C	0.011861	0.280580	0.695208
	C549	C	0.075331	0.337766	0.650504
	C550	C	0.050701	0.281585	0.805804
	C551	C	0.112073	0.350185	0.849924
	C552	C	0.016616	0.343560	1.018169
	C553	C	0.079158	0.281390	0.482613
	C554	C	0.045856	0.343759	0.982625
	C555	C	0.108358	0.281583	0.518380
	C556	C	0.045870	0.280950	0.732819
	C557	C	0.108302	0.343851	0.768440
	C558	C	0.016670	0.281294	0.768380
	C559	C	0.079135	0.343952	0.732189
	C560	C	0.024027	0.342697	1.008978
	C561	C	0.086537	0.280509	0.491963
	C562	C	0.038464	0.344641	0.991763
	C563	C	0.100963	0.282425	0.509446
	C564	C	0.038485	0.280177	0.742010
	C565	C	0.100921	0.342865	0.759178
	C566	C	0.024055	0.282108	0.759560
	C567	C	0.086512	0.344940	0.741315
	C568	C	0.028239	0.341136	1.089093
	C569	C	0.090783	0.278915	0.911076
	C570	C	0.035247	0.342261	0.580388
	C571	C	0.096725	0.283784	0.589738
	C572	C	0.035231	0.342020	1.080857
	C573	C	0.097774	0.279726	0.919428
	C574	C	0.028257	0.341632	0.588783
	C575	C	0.089738	0.282950	0.581264
	C576	C	0.034257	0.278825	0.661901
	C577	C	0.097726	0.345398	0.669797
	C578	C	0.028284	0.283432	0.839877
	C579	C	0.089695	0.342453	0.830534
	C580	C	0.027267	0.279582	0.670509
	C581	C	0.090739	0.346273	0.661256
	C582	C	0.035278	0.282591	0.831243
	C583	C	0.096686	0.341442	0.839421
	N584	N	0.005677	0.351615	0.979915
	N585	N	0.068889	0.292453	0.923471
	N586	N	0.056766	0.335680	0.521029
	N587	N	0.118642	0.270231	0.577101
	N588	N	0.056137	0.332522	0.923579
	N589	N	0.119293	0.273297	0.979912
	N590	N	0.006372	0.354898	0.577160
	N591	N	0.068187	0.289162	0.520661
	N592	N	0.056127	0.292121	0.673471
	N593	N	0.119247	0.351886	0.730197
	N594	N	0.006390	0.270157	0.827001
	N595	N	0.068178	0.335705	0.770368
	N596	N	0.005731	0.273342	0.729856
	N597	N	0.068861	0.332610	0.673295
	N598	N	0.056813	0.288961	0.770496
	N599	N	0.118569	0.355147	0.827156
	H600	H	0.012472	0.465245	0.369456
	H601	H	0.076988	0.413605	0.327782
	H602	H	0.050156	0.472654	0.131001
	H603	H	0.110483	0.398722	0.174103
	H604	H	0.048012	0.462521	0.327324
	H605	H	0.112446	0.410023	0.370443
	H606	H	0.014526	0.475741	0.172991
	H607	H	0.074896	0.402329	0.131020
	H608	H	0.047996	0.413203	0.077854
	H609	H	0.112615	0.464667	0.119550
	H610	H	0.014543	0.399012	0.423368
	H611	H	0.074963	0.472656	0.380702
	H612	H	0.012481	0.409788	0.119717
	H613	H	0.077018	0.461945	0.077044
	H614	H	0.050049	0.402806	0.381187
	H615	H	0.110412	0.476340	0.422890
	H616	H	0.024238	0.471262	0.355161
	H617	H	0.086680	0.409335	0.645847
	H618	H	0.038358	0.466308	0.144693
	H619	H	0.098970	0.410367	0.160379
	H620	H	0.036436	0.472749	0.340574
	H621	H	0.098896	0.410589	0.660849
	H622	H	0.026120	0.465124	0.159787
	H623	H	0.086719	0.409026	0.145744
	H624	H	0.038282	0.408662	0.395724
	H625	H	0.098924	0.464398	0.409562
	H626	H	0.024271	0.403480	0.105124
	H627	H	0.088602	0.473076	0.090025
	H628	H	0.026097	0.410060	0.410531
	H629	H	0.086705	0.465661	0.394370
	H630	H	0.036447	0.402411	0.090474
	H631	H	0.100796	0.471778	0.104861
	Co632	Co	0.124981	0.499724	0.156779
	Co633	Co	0.062519	0.437618	0.093981
	Co634	Co	-0.000003	0.374893	0.406847
	Co635	Co	0.062506	0.437790	0.344061
	C636	C	0.011844	0.469310	0.444870
	C637	C	0.075324	0.412450	0.400790
	C638	C	0.050715	0.468355	0.055810
	C639	C	0.112130	0.399974	0.100405
	C640	C	0.049648	0.463225	0.400777
	C641	C	0.113120	0.405577	0.445394
	C642	C	0.012865	0.474672	0.099394
	C643	C	0.074333	0.406739	0.055947
	C644	C	0.049682	0.412294	0.151105
	C645	C	0.113184	0.469172	0.194858
	C646	C	0.012880	0.399931	0.349948
	C647	C	0.074341	0.468299	0.305297
	C648	C	0.011850	0.405423	0.194985
	C649	C	0.075362	0.462658	0.150462
	C650	C	0.050703	0.407000	0.306085
	C651	C	0.112105	0.475156	0.349603
	C652	C	0.016649	0.468586	0.518056
	C653	C	0.079160	0.406101	-0.017070
	C654	C	0.045830	0.468953	0.482664
	C655	C	0.108376	0.406292	0.018760
	C656	C	0.045856	0.406181	0.232795
	C657	C	0.108323	0.468817	0.267734
	C658	C	0.016706	0.406065	0.268127
	C659	C	0.079162	0.468848	0.231965
	C660	C	0.024034	0.467715	0.509125
	C661	C	0.086557	0.405271	-0.007842
	C662	C	0.038436	0.469916	0.491702
	C663	C	0.100979	0.407254	0.009573
	C664	C	0.038484	0.405284	0.241730
	C665	C	0.100974	0.467812	0.258488
	C666	C	0.024055	0.407068	0.259144
	C667	C	0.086552	0.469793	0.240900
	C668	C	0.027244	0.470110	0.419857
	C669	C	0.089684	0.408039	0.581058
	C670	C	0.035294	0.467638	0.080490
	C671	C	0.096732	0.408544	0.089940
	C672	C	0.034219	0.471024	0.411354
	C673	C	0.096691	0.408838	0.589967
	C674	C	0.028312	0.466841	0.088836
	C675	C	0.089742	0.407609	0.081361
	C676	C	0.035288	0.407587	0.330940
	C677	C	0.096742	0.466249	0.338603
	C678	C	0.027257	0.404845	0.170009
	C679	C	0.090794	0.471220	0.160750
	C680	C	0.028282	0.408354	0.339505
	C681	C	0.089746	0.467075	0.330079
	C682	C	0.034260	0.404177	0.161446
	C683	C	0.097790	0.470285	0.169412
	N684	N	0.005708	0.476561	0.479469
	N685	N	0.068848	0.417392	0.423253
	N686	N	0.056827	0.460926	0.020991
	N687	N	0.118635	0.395018	0.077584
	N688	N	0.056139	0.458173	0.423828
	N689	N	0.119238	0.398358	0.480321
	N690	N	0.006361	0.479630	0.076695
	N691	N	0.068221	0.414225	0.020983
	N692	N	0.056127	0.417565	0.174105
	N693	N	0.119273	0.476641	0.229999
	N694	N	0.006391	0.394983	0.327015
	N695	N	0.068217	0.460919	0.270543
	N696	N	0.005731	0.398187	0.229862
	N697	N	0.068879	0.457755	0.173520
	N698	N	0.056794	0.414485	0.271157
	N699	N	0.118593	0.480160	0.326939
	H700	H	0.012468	0.465223	0.869083
	H701	H	0.077013	0.413382	0.827536
	H702	H	0.050012	0.471819	0.631352
	H703	H	0.110425	0.398764	0.673316
	H704	H	0.048069	0.461956	0.827445
	H705	H	0.112627	0.410466	0.870398
	H706	H	0.014480	0.475388	0.672654
	H707	H	0.074882	0.402706	0.630940
	H708	H	0.047925	0.413369	0.577273
	H709	H	0.112505	0.465056	0.620633
	H710	H	0.014482	0.398791	0.922309
	H711	H	0.074900	0.472199	0.881332
	H712	H	0.012332	0.410526	0.619728
	H713	H	0.076993	0.461805	0.577716
	H714	H	0.050041	0.402888	0.880625
	H715	H	0.110422	0.476036	0.923690
	H716	H	0.024304	0.471918	0.854998
	H717	H	0.088603	0.402181	0.841301
	H718	H	0.038275	0.466521	0.645329
	H719	H	0.100759	0.403263	0.356043
	H720	H	0.036503	0.472883	0.840341
	H721	H	0.100831	0.403391	0.856018
	H722	H	0.026086	0.464730	0.660092
	H723	H	0.088557	0.402108	0.340661
	H724	H	0.036391	0.402092	0.590696
	H725	H	0.100739	0.471806	0.605781
	H726	H	0.026023	0.410619	0.909906
	H727	H	0.086707	0.465715	0.895886
	H728	H	0.024164	0.403550	0.605369
	H729	H	0.088540	0.472868	0.590827
	H730	H	0.038217	0.409677	0.895676
	H731	H	0.098922	0.464807	0.910198
	Co732	Co	0.124961	0.499751	0.656613
	Co733	Co	0.062473	0.437607	0.593499
	Co734	Co	-0.000013	0.374996	0.906659
	Co735	Co	0.062499	0.437471	0.843914
	C736	C	0.011865	0.469470	0.944463
	C737	C	0.075392	0.412387	0.901290
	C738	C	0.050625	0.467965	0.556006
	C739	C	0.112112	0.399999	0.600381
	C740	C	0.049680	0.462977	0.901051
	C741	C	0.113192	0.405926	0.945708
	C742	C	0.012850	0.474545	0.599492
	C743	C	0.074274	0.407078	0.555548
	C744	C	0.049605	0.412275	0.650375
	C745	C	0.113126	0.469397	0.695329
	C746	C	0.012856	0.400153	0.848896
	C747	C	0.074327	0.467920	0.806172
	C748	C	0.011802	0.406003	0.694751
	C749	C	0.075343	0.462617	0.651289
	C750	C	0.050633	0.407145	0.805388
	C751	C	0.112089	0.474890	0.850218
	C752	C	0.016666	0.468875	1.017685
	C753	C	0.079143	0.406420	0.482663
	C754	C	0.045912	0.469096	0.982666
	C755	C	0.108277	0.406189	0.518628
	C756	C	0.045834	0.406413	0.732226
	C757	C	0.108307	0.468849	0.768461
	C758	C	0.016603	0.406458	0.767626
	C759	C	0.079126	0.468638	0.733014
	C760	C	0.024073	0.468079	1.008732
	C761	C	0.086488	0.405565	0.491875
	C762	C	0.038519	0.469964	0.991397
	C763	C	0.100914	0.407304	0.509692
	C764	C	0.038419	0.405510	0.741646
	C765	C	0.100910	0.467926	0.759329
	C766	C	0.024011	0.407408	0.758661
	C767	C	0.086504	0.469659	0.742143
	C768	C	0.027301	0.470479	0.919688
	C769	C	0.090795	0.403960	0.911999
	C770	C	0.035246	0.467518	0.580838
	C771	C	0.097725	0.404799	0.420418
	C772	C	0.034282	0.471199	0.911158
	C773	C	0.097776	0.404793	0.920283
	C774	C	0.028268	0.466532	0.589254
	C775	C	0.090722	0.404128	0.411718
	C776	C	0.034190	0.404009	0.661431
	C777	C	0.097722	0.470351	0.670140
	C778	C	0.028245	0.408794	0.839109
	C779	C	0.089712	0.467156	0.831358
	C780	C	0.027219	0.404996	0.669528
	C781	C	0.090739	0.471205	0.661803
	C782	C	0.035214	0.408075	0.830919
	C783	C	0.096693	0.466488	0.839587
	N784	N	0.005717	0.476645	0.979385
	N785	N	0.068908	0.417436	0.923951
	N786	N	0.056764	0.460935	0.520867
	N787	N	0.118578	0.395127	0.577179
	N788	N	0.056158	0.457771	0.923903
	N789	N	0.119322	0.398497	0.980537
	N790	N	0.006359	0.479580	0.576728
	N791	N	0.068162	0.414287	0.520546
	N792	N	0.056112	0.417409	0.673230
	N793	N	0.119244	0.476640	0.730233
	N794	N	0.006346	0.395166	0.826245
	N795	N	0.068172	0.460743	0.771102
	N796	N	0.005671	0.398594	0.729393
	N797	N	0.068835	0.457640	0.673911
	N798	N	0.056767	0.414377	0.770498
	N799	N	0.118576	0.479807	0.827195
	H800	H	0.012346	0.589668	0.369095
	H801	H	0.077029	0.538537	0.327445
	H802	H	0.050094	0.597194	0.131233
	H803	H	0.110462	0.524078	0.173261
	H804	H	0.047922	0.586552	0.327744
	H805	H	0.112583	0.535214	0.369724
	H806	H	0.014458	0.600194	0.173298
	H807	H	0.074988	0.528343	0.131755
	H808	H	0.048056	0.538020	0.077705
	H809	H	0.112593	0.590548	0.119653
	H810	H	0.014585	0.524213	0.423184
	H811	H	0.074964	0.597505	0.381125
	H812	H	0.012514	0.534627	0.119387
	H813	H	0.077056	0.587340	0.077803
	H814	H	0.050033	0.527952	0.381194
	H815	H	0.110526	0.601055	0.423232
	H816	H	0.024151	0.595899	0.354860
	H817	H	0.088567	0.527225	0.340452
	H818	H	0.038273	0.591055	0.145577
	H819	H	0.098947	0.535413	0.160051
	H820	H	0.036372	0.597536	0.340736
	H821	H	0.100764	0.528377	0.355668
	H822	H	0.026033	0.590066	0.160085
	H823	H	0.086740	0.534456	0.144412
	H824	H	0.036498	0.527603	0.089955
	H825	H	0.100778	0.597112	0.105255
	H826	H	0.026086	0.534657	0.409926
	H827	H	0.086698	0.591018	0.394959
	H828	H	0.024252	0.528520	0.105077
	H829	H	0.088541	0.598144	0.090578
	H830	H	0.038316	0.533544	0.395128
	H831	H	0.098912	0.589536	0.409420
	Co832	Co	0.125006	0.625165	0.156314
	Co833	Co	0.062540	0.562617	0.094109
	Co834	Co	0.000058	0.500052	0.406447
	Co835	Co	0.062474	0.562641	0.344035
	C836	C	0.011737	0.594035	0.444297
	C837	C	0.075368	0.537486	0.400762
	C838	C	0.050698	0.593210	0.055543
	C839	C	0.112131	0.525084	0.099840
	C840	C	0.049585	0.587576	0.400759
	C841	C	0.113144	0.530857	0.445345
	C842	C	0.012832	0.599635	0.099830
	C843	C	0.074373	0.532194	0.056101
	C844	C	0.049733	0.537069	0.150889
	C845	C	0.113173	0.594554	0.195042
	C846	C	0.012911	0.525152	0.349758
	C847	C	0.074314	0.593241	0.305801
	C848	C	0.011887	0.530405	0.194749
	C849	C	0.075356	0.587939	0.150709
	C850	C	0.050707	0.531973	0.305906
	C851	C	0.112133	0.600174	0.349582
	C852	C	0.016572	0.593275	0.517411
	C853	C	0.079168	0.531242	-0.017377
	C854	C	0.045759	0.593545	0.482577
	C855	C	0.108377	0.531538	0.018172
	C856	C	0.045884	0.531201	0.232517
	C857	C	0.108324	0.593899	0.268031
	C858	C	0.016723	0.531168	0.267878
	C859	C	0.079148	0.594036	0.232562
	C860	C	0.023933	0.592406	0.508536
	C861	C	0.086569	0.530407	-0.008400
	C862	C	0.038376	0.594466	0.491649
	C863	C	0.100994	0.532397	0.009229
	C864	C	0.038501	0.530214	0.241235
	C865	C	0.100955	0.592904	0.258780
	C866	C	0.024091	0.532110	0.258648
	C867	C	0.086522	0.594865	0.241482
	C868	C	0.027156	0.594693	0.419515
	C869	C	0.090751	0.528970	0.411500
	C870	C	0.035267	0.592404	0.080970
	C871	C	0.096765	0.533665	0.089220
	C872	C	0.034154	0.595671	0.411390
	C873	C	0.097730	0.529816	0.419974
	C874	C	0.028267	0.591685	0.089597
	C875	C	0.089782	0.532812	0.080617
	C876	C	0.034290	0.529051	0.160896
	C877	C	0.097752	0.595549	0.169675
	C878	C	0.028313	0.533236	0.339048
	C879	C	0.089711	0.592449	0.330592
	C880	C	0.027288	0.529869	0.169426
	C881	C	0.090747	0.596353	0.161251
	C882	C	0.035303	0.532291	0.330439
	C883	C	0.096704	0.591406	0.338778
	N884	N	0.005629	0.601606	0.479104
	N885	N	0.068866	0.542422	0.423533
	N886	N	0.056824	0.585760	0.020907
	N887	N	0.118612	0.519926	0.077033
	N888	N	0.056053	0.582526	0.423665
	N889	N	0.119260	0.523468	0.480160
	N890	N	0.006348	0.604709	0.076588
	N891	N	0.068237	0.539376	0.021189
	N892	N	0.056207	0.542178	0.173972
	N893	N	0.119273	0.602011	0.229633
	N894	N	0.006424	0.520140	0.326740
	N895	N	0.068194	0.585925	0.270892
	N896	N	0.005761	0.523143	0.229750
	N897	N	0.068862	0.582913	0.173622
	N898	N	0.056820	0.539234	0.271218
	N899	N	0.118611	0.605199	0.326775
	H900	H	0.012488	0.590833	0.869328
	H901	H	0.076978	0.537697	0.827142
	H902	H	0.050005	0.596887	0.630801
	H903	H	0.110454	0.523886	0.673551
	H904	H	0.048004	0.586249	0.827340
	H905	H	0.112629	0.535615	0.870261
	H906	H	0.014466	0.600555	0.672657
	H907	H	0.074918	0.527739	0.630883
	H908	H	0.047970	0.537863	0.577783
	H909	H	0.112508	0.590237	0.619563
	H910	H	0.014448	0.524407	0.923576
	H911	H	0.074892	0.597507	0.881212
	H912	H	0.012358	0.534850	0.619975
	H913	H	0.076967	0.586721	0.577727
	H914	H	0.050046	0.527491	0.881259
	H915	H	0.110442	0.600804	0.923550
	H916	H	0.024191	0.596388	0.855925
	H917	H	0.088583	0.527406	0.841012
	H918	H	0.038167	0.590769	0.645326
	H919	H	0.098921	0.535510	0.660236
	H920	H	0.036412	0.597207	0.840723
	H921	H	0.100817	0.528669	0.855697
	H922	H	0.025966	0.589558	0.659881
	H923	H	0.086683	0.534242	0.645421
	H924	H	0.038245	0.534134	0.895503
	H925	H	0.100674	0.596487	0.605357
	H926	H	0.024185	0.528559	0.605585
	H927	H	0.086640	0.591387	0.895564
	H928	H	0.026006	0.535377	0.910011
	H929	H	0.088476	0.597716	0.590526
	H930	H	0.036435	0.526862	0.590902
	H931	H	0.098867	0.590288	0.910016
	Co932	Co	0.124942	0.624961	0.656696
	Co933	Co	0.062485	0.562272	0.594066
	Co934	Co	-0.000004	0.499832	0.906726
	Co935	Co	0.062498	0.562274	0.844310
	C936	C	0.011840	0.594651	0.944804
	C937	C	0.075351	0.537030	0.900816
	C938	C	0.050618	0.592709	0.555665
	C939	C	0.112110	0.525110	0.599981
	C940	C	0.049652	0.587508	0.900934
	C941	C	0.113208	0.531032	0.945086
	C942	C	0.012797	0.599602	0.599095
	C943	C	0.074305	0.531789	0.555629
	C944	C	0.049620	0.537121	0.651521
	C945	C	0.113120	0.594424	0.694942
	C946	C	0.012841	0.525331	0.849931
	C947	C	0.074246	0.593169	0.806246
	C948	C	0.011816	0.530502	0.694844
	C949	C	0.075285	0.587695	0.651219
	C950	C	0.050641	0.531734	0.806152
	C951	C	0.112090	0.599879	0.849821
	C952	C	0.016653	0.593906	1.018120
	C953	C	0.079135	0.531323	0.482652
	C954	C	0.045853	0.593657	0.982590
	C955	C	0.108318	0.531309	0.518414
	C956	C	0.045835	0.531088	0.732990
	C957	C	0.108260	0.593859	0.768154
	C958	C	0.016619	0.531371	0.768022
	C959	C	0.079092	0.593919	0.733142
	C960	C	0.024045	0.593086	1.009379
	C961	C	0.086519	0.530325	0.491758
	C962	C	0.038475	0.594740	0.991765
	C963	C	0.100929	0.532269	0.509299
	C964	C	0.038428	0.530274	0.741891
	C965	C	0.100888	0.593014	0.759015
	C966	C	0.024011	0.532306	0.758941
	C967	C	0.086452	0.594858	0.741784
	C968	C	0.027234	0.595265	0.920176
	C969	C	0.090810	0.529097	0.911501
	C970	C	0.035162	0.592035	0.580688
	C971	C	0.096705	0.533565	0.589569
	C972	C	0.034224	0.595958	0.911750
	C973	C	0.097794	0.529991	0.920156
	C974	C	0.028159	0.591296	0.588980
	C975	C	0.089720	0.532685	0.581056
	C976	C	0.035208	0.532835	0.831061
	C977	C	0.097671	0.595373	0.669866
	C978	C	0.027220	0.529879	0.669878
	C979	C	0.089646	0.592643	0.830916
	C980	C	0.028224	0.533581	0.839294
	C981	C	0.090672	0.596164	0.661318
	C982	C	0.034203	0.528827	0.661614
	C983	C	0.096657	0.591830	0.839176
	N984	N	0.005719	0.601818	0.979566
	N985	N	0.068867	0.542220	0.924017
	N986	N	0.056722	0.585423	0.520809
	N987	N	0.118611	0.520194	0.577021
	N988	N	0.056144	0.582535	0.923653
	N989	N	0.119305	0.523359	0.979960
	N990	N	0.006314	0.604917	0.576284
	N991	N	0.068187	0.539182	0.520572
	N992	N	0.056122	0.542125	0.674167
	N993	N	0.119234	0.601722	0.729861
	N994	N	0.006357	0.520059	0.826868
	N995	N	0.068161	0.585644	0.771263
	N996	N	0.005706	0.522993	0.729673
	N997	N	0.068831	0.582472	0.674157
	N998	N	0.056781	0.538982	0.771375
	N999	N	0.118574	0.604787	0.827080
	H1000	H	0.012364	0.715020	0.369382
	H1001	H	0.077001	0.663433	0.327279
	H1002	H	0.050070	0.721839	0.131626
	H1003	H	0.110502	0.649756	0.173414
	H1004	H	0.047938	0.711596	0.328030
	H1005	H	0.112456	0.659965	0.369473
	H1006	H	0.014456	0.725620	0.173869
	H1007	H	0.074947	0.652592	0.130446
	H1008	H	0.048027	0.662714	0.077231
	H1009	H	0.112515	0.715383	0.118932
	H1010	H	0.014545	0.648755	0.422828
	H1011	H	0.074874	0.722771	0.380523
	H1012	H	0.012441	0.659840	0.119455
	H1013	H	0.076996	0.711440	0.077710
	H1014	H	0.050082	0.652604	0.380586
	H1015	H	0.110552	0.725287	0.423121
	H1016	H	0.024162	0.720935	0.355777
	H1017	H	0.088522	0.651870	0.341153
	H1018	H	0.038322	0.715924	0.145668
	H1019	H	0.098968	0.660814	0.160065
	H1020	H	0.036415	0.722552	0.340809
	H1021	H	0.100739	0.653175	0.356013
	H1022	H	0.026104	0.714754	0.160472
	H1023	H	0.086721	0.659548	0.145084
	H1024	H	0.038285	0.658567	0.394983
	H1025	H	0.100751	0.722255	0.105731
	H1026	H	0.024201	0.653313	0.105501
	H1027	H	0.086672	0.715559	0.395134
	H1028	H	0.026060	0.659881	0.409907
	H1029	H	0.088525	0.723294	0.090868
	H1030	H	0.036416	0.652272	0.090339
	H1031	H	0.098908	0.714312	0.409545
	Co1032	Co	0.124990	0.749883	0.156013
	Co1033	Co	0.062525	0.687166	0.093778
	Co1034	Co	-0.000051	0.625040	0.406513
	Co1035	Co	0.062486	0.687647	0.343848
	C1036	C	0.011791	0.719272	0.444602
	C1037	C	0.075340	0.662437	0.400976
	C1038	C	0.050688	0.717831	0.056133
	C1039	C	0.112168	0.650584	0.099832
	C1040	C	0.049606	0.712556	0.401270
	C1041	C	0.113115	0.655764	0.444605
	C1042	C	0.012870	0.724476	0.099788
	C1043	C	0.074335	0.656771	0.055341
	C1044	C	0.049663	0.661911	0.150893
	C1045	C	0.113134	0.719435	0.194493
	C1046	C	0.012864	0.650028	0.349663
	C1047	C	0.074263	0.718281	0.305448
	C1048	C	0.011832	0.655487	0.194857
	C1049	C	0.075335	0.712550	0.150921
	C1050	C	0.050672	0.656784	0.305602
	C1051	C	0.112145	0.724570	0.349165
	C1052	C	0.016596	0.718449	0.517890
	C1053	C	0.079191	0.656380	-0.017676
	C1054	C	0.045824	0.718487	0.482899
	C1055	C	0.108362	0.656582	0.018201
	C1056	C	0.045850	0.655923	0.232454
	C1057	C	0.108330	0.718657	0.267656
	C1058	C	0.016652	0.656234	0.268045
	C1059	C	0.079088	0.718762	0.232568
	C1060	C	0.023987	0.717485	0.509007
	C1061	C	0.086562	0.655603	-0.008356
	C1062	C	0.038420	0.719372	0.491773
	C1063	C	0.100987	0.657524	0.009231
	C1064	C	0.038469	0.655053	0.241386
	C1065	C	0.100931	0.717766	0.258952
	C1066	C	0.024040	0.657162	0.259012
	C1067	C	0.086487	0.719702	0.241709
	C1068	C	0.027207	0.719753	0.420001
	C1069	C	0.090721	0.653885	0.411915
	C1070	C	0.035286	0.717297	0.081228
	C1071	C	0.096749	0.658934	0.089457
	C1072	C	0.034203	0.720692	0.411398
	C1073	C	0.097716	0.654790	0.420338
	C1074	C	0.028302	0.716440	0.089626
	C1075	C	0.089754	0.658122	0.080710
	C1076	C	0.035257	0.657248	0.330567
	C1077	C	0.097722	0.720515	0.170054
	C1078	C	0.027240	0.654832	0.169780
	C1079	C	0.089704	0.717123	0.330791
	C1080	C	0.028269	0.658240	0.339121
	C1081	C	0.090731	0.721322	0.161551
	C1082	C	0.034231	0.653965	0.161149
	C1083	C	0.096690	0.716245	0.338883
	N1084	N	0.005670	0.726681	0.479542
	N1085	N	0.068870	0.667464	0.423588
	N1086	N	0.056799	0.710436	0.021089
	N1087	N	0.118640	0.645398	0.076625
	N1088	N	0.056107	0.707633	0.424097
	N1089	N	0.119238	0.648521	0.479685
	N1090	N	0.006376	0.729423	0.077035
	N1091	N	0.068206	0.664006	0.020362
	N1092	N	0.056148	0.667099	0.173744
	N1093	N	0.119275	0.726697	0.229241
	N1094	N	0.006387	0.644887	0.326547
	N1095	N	0.068133	0.710904	0.270600
	N1096	N	0.005717	0.648112	0.229592
	N1097	N	0.068832	0.707533	0.173543
	N1098	N	0.056795	0.664198	0.270915
	N1099	N	0.118630	0.729689	0.326432
	H1100	H	0.012449	0.715297	0.869291
	H1101	H	0.077024	0.663333	0.827219
	H1102	H	0.050017	0.722044	0.631373
	H1103	H	0.110423	0.649114	0.673197
	H1104	H	0.047999	0.711986	0.827437
	H1105	H	0.112499	0.659622	0.868947
	H1106	H	0.014437	0.725445	0.673013
	H1107	H	0.074885	0.652560	0.630915
	H1108	H	0.048061	0.662835	0.577617
	H1109	H	0.112527	0.715447	0.619114
	H1110	H	0.014495	0.649590	0.923107
	H1111	H	0.074998	0.722020	0.881029
	H1112	H	0.012476	0.659537	0.619771
	H1113	H	0.076971	0.711946	0.577311
	H1114	H	0.050132	0.652282	0.880793
	H1115	H	0.110486	0.725484	0.922603
	H1116	H	0.024246	0.721473	0.855600
	H1117	H	0.088609	0.652225	0.840848
	H1118	H	0.038244	0.715422	0.645101
	H1119	H	0.098906	0.660739	0.660427
	H1120	H	0.036512	0.722671	0.841092
	H1121	H	0.100811	0.653370	0.855729
	H1122	H	0.025973	0.714470	0.659741
	H1123	H	0.086666	0.659439	0.645666
	H1124	H	0.036486	0.652250	0.590289
	H1125	H	0.100788	0.721377	0.604815
	H1126	H	0.026086	0.660057	0.909512
	H1127	H	0.086757	0.715885	0.895096
	H1128	H	0.024254	0.653097	0.605201
	H1129	H	0.088580	0.722710	0.590298
	H1130	H	0.038300	0.658803	0.895209
	H1131	H	0.098982	0.714860	0.909479
	Co1132	Co	0.125017	0.750087	0.656463
	Co1133	Co	0.062480	0.687534	0.594029
	Co1134	Co	0.000033	0.625183	0.906639
	Co1135	Co	0.062504	0.687369	0.843926
	C1136	C	0.011877	0.719378	0.944928
	C1137	C	0.075374	0.662441	0.900501
	C1138	C	0.050643	0.717838	0.556090
	C1139	C	0.112102	0.650353	0.599798
	C1140	C	0.049673	0.712795	0.901096
	C1141	C	0.113156	0.655733	0.944706
	C1142	C	0.012802	0.724486	0.599679
	C1143	C	0.074278	0.656847	0.555637
	C1144	C	0.049680	0.661978	0.651050
	C1145	C	0.113177	0.719438	0.694256
	C1146	C	0.012892	0.650299	0.849451
	C1147	C	0.074354	0.717944	0.805838
	C1148	C	0.011869	0.655495	0.694906
	C1149	C	0.075349	0.712793	0.650942
	C1150	C	0.050705	0.656664	0.805609
	C1151	C	0.112145	0.724631	0.849188
	C1152	C	0.016686	0.718713	1.018113
	C1153	C	0.079138	0.656170	0.482729
	C1154	C	0.045879	0.718681	0.982956
	C1155	C	0.108292	0.656438	0.518030
	C1156	C	0.045900	0.655773	0.732576
	C1157	C	0.108361	0.718600	0.767468
	C1158	C	0.016673	0.656259	0.767839
	C1159	C	0.079183	0.718813	0.732635
	C1160	C	0.024063	0.717783	1.009379
	C1161	C	0.086499	0.655291	0.492066
	C1162	C	0.038479	0.719694	0.991999
	C1163	C	0.100921	0.657409	0.509426
	C1164	C	0.038510	0.654940	0.741492
	C1165	C	0.100972	0.717663	0.758476
	C1166	C	0.024082	0.657011	0.758604
	C1167	C	0.086552	0.719760	0.741479
	C1168	C	0.027278	0.720180	0.920140
	C1169	C	0.090792	0.654084	0.911768
	C1170	C	0.035200	0.716843	0.580884
	C1171	C	0.096699	0.658837	0.589760
	C1172	C	0.034263	0.721011	0.911627
	C1173	C	0.097787	0.654916	0.920100
	C1174	C	0.028210	0.716195	0.589302
	C1175	C	0.089695	0.657902	0.581167
	C1176	C	0.034277	0.653787	0.661114
	C1177	C	0.097762	0.719997	0.669277
	C1178	C	0.028315	0.658375	0.838860
	C1179	C	0.089752	0.717294	0.830416
	C1180	C	0.027297	0.654584	0.669407
	C1181	C	0.090767	0.721026	0.661190
	C1182	C	0.035298	0.657361	0.830612
	C1183	C	0.096742	0.716472	0.838834
	N1184	N	0.005730	0.726544	0.979533
	N1185	N	0.068885	0.667261	0.923333
	N1186	N	0.056776	0.710718	0.521190
	N1187	N	0.118583	0.645328	0.576846
	N1188	N	0.056151	0.707552	0.923970
	N1189	N	0.119272	0.648375	0.979289
	N1190	N	0.006319	0.729763	0.576659
	N1191	N	0.068185	0.664299	0.520610
	N1192	N	0.056163	0.667240	0.673784
	N1193	N	0.119304	0.726800	0.729263
	N1194	N	0.006411	0.645132	0.826619
	N1195	N	0.068239	0.710675	0.771133
	N1196	N	0.005734	0.648228	0.729627
	N1197	N	0.068877	0.707659	0.673978
	N1198	N	0.056831	0.664109	0.770867
	N1199	N	0.118628	0.729893	0.826452
	H1200	H	0.012431	0.840211	0.369651
	H1201	H	0.076999	0.788510	0.327573
	H1202	H	0.050113	0.846992	0.131239
	H1203	H	0.110484	0.774054	0.172500
	H1204	H	0.048041	0.837027	0.327821
	H1205	H	0.112577	0.784795	0.369002
	H1206	H	0.014514	0.850775	0.172377
	H1207	H	0.074977	0.777690	0.130644
	H1208	H	0.048083	0.787682	0.077419
	H1209	H	0.112494	0.840770	0.118701
	H1210	H	0.014472	0.774101	0.422606
	H1211	H	0.074900	0.847633	0.381253
	H1212	H	0.012438	0.784596	0.119157
	H1213	H	0.076996	0.836437	0.077961
	H1214	H	0.050040	0.778335	0.382252
	H1215	H	0.110507	0.850415	0.422581
	H1216	H	0.024186	0.846355	0.355122
	H1217	H	0.086719	0.784113	0.644585
	H1218	H	0.036462	0.847781	-0.159343
	H1219	H	0.100844	0.778246	-0.145198
	H1220	H	0.036429	0.847525	0.340663
	H1221	H	0.098938	0.785279	0.659610
	H1222	H	0.024257	0.846668	-0.144615
	H1223	H	0.088601	0.777193	-0.160071
	H1224	H	0.036477	0.777226	0.090998
	H1225	H	0.098913	0.839437	0.409290
	H1226	H	0.026055	0.784889	0.410085
	H1227	H	0.088496	0.848397	0.090492
	H1228	H	0.024261	0.778468	0.105399
	H1229	H	0.086673	0.840828	0.394400
	H1230	H	0.038294	0.783646	0.395445
	H1231	H	0.100733	0.847490	0.105200
	Co1232	Co	0.124963	0.875168	0.156186
	Co1233	Co	0.062549	0.812172	0.094421
	Co1234	Co	-0.000018	0.750104	0.406702
	Co1235	Co	0.062489	0.812825	0.344459
	C1236	C	0.011792	0.844452	0.444982
	C1237	C	0.075345	0.787467	0.400764
	C1238	C	0.050705	0.842868	0.056150
	C1239	C	0.112161	0.775381	0.099247
	C1240	C	0.049650	0.837803	0.401207
	C1241	C	0.113161	0.780525	0.444079
	C1242	C	0.012856	0.849769	0.099198
	C1243	C	0.074361	0.781693	0.055394
	C1244	C	0.049661	0.786935	0.151030
	C1245	C	0.113109	0.844732	0.194074
	C1246	C	0.012843	0.775091	0.349158
	C1247	C	0.074326	0.843277	0.305699
	C1248	C	0.011837	0.780478	0.194693
	C1249	C	0.075361	0.837666	0.150961
	C1250	C	0.050654	0.782004	0.306170
	C1251	C	0.112138	0.849506	0.349254
	C1252	C	0.016624	0.843743	0.518021
	C1253	C	0.079182	0.781132	-0.017784
	C1254	C	0.045821	0.843631	0.482903
	C1255	C	0.108367	0.781431	0.017599
	C1256	C	0.045868	0.781168	0.232816
	C1257	C	0.108334	0.843864	0.267307
	C1258	C	0.016634	0.781156	0.267657
	C1259	C	0.079113	0.843892	0.232439
	C1260	C	0.024017	0.842802	0.508709
	C1261	C	0.086576	0.780283	-0.009047
	C1262	C	0.038444	0.844523	0.491524
	C1263	C	0.100990	0.782364	0.008400
	C1264	C	0.038479	0.780186	0.241704
	C1265	C	0.100933	0.843056	0.258490
	C1266	C	0.024052	0.782171	0.258820
	C1267	C	0.086516	0.844977	0.241275
	C1268	C	0.027206	0.845065	0.419501
	C1269	C	0.089769	0.782647	0.580307
	C1270	C	0.034271	0.846134	-0.088491
	C1271	C	0.097802	0.779867	-0.080858
	C1272	C	0.034207	0.845722	0.411232
	C1273	C	0.096755	0.783465	0.588708
	C1274	C	0.027281	0.845322	-0.080103
	C1275	C	0.090807	0.779038	-0.089241
	C1276	C	0.034247	0.778894	0.161597
	C1277	C	0.096712	0.841516	0.338716
	C1278	C	0.028286	0.783408	0.339212
	C1279	C	0.090747	0.846467	0.160977
	C1280	C	0.027268	0.779737	0.169855
	C1281	C	0.089732	0.842420	0.330394
	C1282	C	0.035265	0.782525	0.330987
	C1283	C	0.097718	0.845723	0.169547
	N1284	N	0.005693	0.851933	0.479940
	N1285	N	0.068869	0.792561	0.423868
	N1286	N	0.056822	0.835467	0.021136
	N1287	N	0.118627	0.770125	0.076503
	N1288	N	0.056153	0.832969	0.424316
	N1289	N	0.119296	0.773327	0.478888
	N1290	N	0.006383	0.854807	0.076309
	N1291	N	0.068238	0.789121	0.020904
	N1292	N	0.056147	0.792128	0.174067
	N1293	N	0.119251	0.851845	0.228868
	N1294	N	0.006347	0.770081	0.326356
	N1295	N	0.068201	0.835787	0.270828
	N1296	N	0.005708	0.773062	0.229180
	N1297	N	0.068875	0.832509	0.173919
	N1298	N	0.056786	0.789365	0.271319
	N1299	N	0.118635	0.854579	0.326253
	H1300	H	0.012473	0.840026	0.869410
	H1301	H	0.077015	0.788150	0.827026
	H1302	H	0.050017	0.847034	0.631630
	H1303	H	0.110536	0.774558	0.672457
	H1304	H	0.048025	0.836989	0.827330
	H1305	H	0.112608	0.785016	0.869330
	H1306	H	0.014506	0.850560	0.673291
	H1307	H	0.074978	0.777726	0.630582
	H1308	H	0.048024	0.788208	0.578070
	H1309	H	0.112621	0.840289	0.618630
	H1310	H	0.014547	0.773896	0.923531
	H1311	H	0.074975	0.847687	0.880306
	H1312	H	0.012463	0.784421	0.619807
	H1313	H	0.077038	0.836621	0.577505
	H1314	H	0.050098	0.778047	0.881309
	H1315	H	0.110515	0.850783	0.922327
	H1316	H	0.026061	0.839801	1.159955
	H1317	H	0.086742	0.784417	1.144451
	H1318	H	0.038275	0.840885	0.644606
	H1319	H	0.100781	0.778453	0.354877
	H1320	H	0.038266	0.841248	1.145494
	H1321	H	0.098972	0.785875	1.159258
	H1322	H	0.026013	0.839535	0.659287
	H1323	H	0.088543	0.777250	0.340421
	H1324	H	0.038303	0.784370	0.895571
	H1325	H	0.100854	0.846649	0.604849
	H1326	H	0.024303	0.777999	0.605456
	H1327	H	0.086799	0.840726	0.894597
	H1328	H	0.026075	0.785282	0.909921
	H1329	H	0.088614	0.848105	0.590087
	H1330	H	0.036515	0.776897	0.591267
	H1331	H	0.099019	0.839442	0.909224
	Co1332	Co	0.125016	0.875250	0.656250
	Co1333	Co	0.062524	0.812637	0.594374
	Co1334	Co	0.000045	0.749954	0.906902
	Co1335	Co	0.062563	0.812618	0.843902
	C1336	C	0.011827	0.844159	0.944497
	C1337	C	0.075376	0.787183	0.900817
	C1338	C	0.050631	0.842979	0.556142
	C1339	C	0.112160	0.775397	0.598946
	C1340	C	0.049674	0.837690	0.901193
	C1341	C	0.113180	0.780672	0.944591
	C1342	C	0.012826	0.849739	0.599913
	C1343	C	0.074337	0.781992	0.555452
	C1344	C	0.049676	0.787251	0.651453
	C1345	C	0.113239	0.844402	0.694106
	C1346	C	0.012904	0.774964	0.849832
	C1347	C	0.074389	0.843215	0.805325
	C1348	C	0.011872	0.780298	0.694849
	C1349	C	0.075389	0.837818	0.650895
	C1350	C	0.050705	0.782040	0.806265
	C1351	C	0.112194	0.849711	0.849021
	C1352	C	0.016657	0.843673	1.017597
	C1353	C	0.079160	0.781259	0.482201
	C1354	C	0.045874	0.843709	0.983032
	C1355	C	0.108346	0.781384	0.517305
	C1356	C	0.045899	0.781320	0.733290
	C1357	C	0.108416	0.843668	0.767096
	C1358	C	0.016687	0.780939	0.768084
	C1359	C	0.079212	0.843919	0.732194
	C1360	C	0.024054	0.842839	1.008856
	C1361	C	0.086557	0.780244	0.491241
	C1362	C	0.038494	0.844807	0.991829
	C1363	C	0.100983	0.782233	0.508523
	C1364	C	0.038505	0.780314	0.742386
	C1365	C	0.101026	0.842755	0.758065
	C1366	C	0.024077	0.781860	0.759121
	C1367	C	0.086591	0.844828	0.740982
	C1368	C	0.028275	0.841457	1.089237
	C1369	C	0.089774	0.782851	1.080001
	C1370	C	0.035236	0.842144	0.580413
	C1371	C	0.097770	0.779860	0.419474
	C1372	C	0.035269	0.842386	1.080752
	C1373	C	0.096758	0.783776	1.088571
	C1374	C	0.028243	0.841394	0.588757
	C1375	C	0.090781	0.778930	0.410994
	C1376	C	0.035280	0.782860	0.831307
	C1377	C	0.097811	0.845209	0.669096
	C1378	C	0.027301	0.779307	0.670071
	C1379	C	0.089812	0.842260	0.830086
	C1380	C	0.028296	0.783438	0.839326
	C1381	C	0.090815	0.846119	0.660795
	C1382	C	0.034287	0.778687	0.661903
	C1383	C	0.096802	0.841467	0.838527
	N1384	N	0.005718	0.851553	0.979264
	N1385	N	0.068887	0.792357	0.923961
	N1386	N	0.056787	0.835888	0.521591
	N1387	N	0.118646	0.770298	0.576255
	N1388	N	0.056156	0.832547	0.923952
	N1389	N	0.119292	0.773253	0.979422
	N1390	N	0.006353	0.854828	0.577082
	N1391	N	0.068223	0.789419	0.520731
	N1392	N	0.056167	0.792349	0.674193
	N1393	N	0.119336	0.851885	0.729305
	N1394	N	0.006403	0.769996	0.827118
	N1395	N	0.068264	0.835840	0.770815
	N1396	N	0.005738	0.773090	0.729868
	N1397	N	0.068908	0.832812	0.673679
	N1398	N	0.056826	0.789351	0.771282
	N1399	N	0.118675	0.854964	0.826296
	H1400	H	0.012401	0.965344	0.369690
	H1401	H	0.077013	0.913683	0.328053
	H1402	H	0.049952	0.971794	0.131549
	H1403	H	0.110452	0.899626	0.173008
	H1404	H	0.047940	0.962011	0.328420
	H1405	H	0.112520	0.909487	0.369142
	H1406	H	0.014406	0.975427	0.173372
	H1407	H	0.074933	0.902554	0.131105
	H1408	H	0.048095	0.912913	0.077660
	H1409	H	0.112533	0.965813	0.119210
	H1410	H	0.014470	0.899616	0.423108
	H1411	H	0.074932	0.972780	0.381211
	H1412	H	0.012488	0.909621	0.119225
	H1413	H	0.077027	0.962043	0.077108
	H1414	H	0.050077	0.903174	0.381550
	H1415	H	0.110500	0.975639	0.423113
	H1416	H	0.024220	0.971520	0.355739
	H1417	H	0.086733	0.909293	0.645128
	H1418	H	0.038226	0.965969	0.146142
	H1419	H	0.098939	0.911263	0.159494
	H1420	H	0.036445	0.972693	0.341401
	H1421	H	0.098945	0.910138	0.660002
	H1422	H	0.025970	0.965084	0.160502
	H1423	H	0.086739	0.909983	0.144835
	H1424	H	0.036484	0.902330	0.090548
	H1425	H	0.098919	0.965148	0.410055
	H1426	H	0.026067	0.909928	0.410028
	H1427	H	0.088550	0.973024	0.090665
	H1428	H	0.024243	0.903539	0.105661
	H1429	H	0.086673	0.966379	0.395148
	H1430	H	0.038277	0.908762	0.395202
	H1431	H	0.100754	0.971716	0.105245
	Co1432	Co	0.124983	1.000525	0.156671
	Co1433	Co	0.062498	0.937569	0.094661
	Co1434	Co	0.000014	0.875292	0.406316
	Co1435	Co	0.062507	0.937886	0.344290
	C1436	C	0.011802	0.969423	0.444908
	C1437	C	0.075385	0.912752	0.401317
	C1438	C	0.050619	0.967817	0.056655
	C1439	C	0.112124	0.900585	0.099662
	C1440	C	0.049594	0.962865	0.401931
	C1441	C	0.113162	0.905430	0.444398
	C1442	C	0.012782	0.974557	0.100042
	C1443	C	0.074339	0.907039	0.055859
	C1444	C	0.049701	0.912041	0.151378
	C1445	C	0.113147	0.969856	0.194542
	C1446	C	0.012877	0.900469	0.349426
	C1447	C	0.074301	0.968534	0.305597
	C1448	C	0.011866	0.905626	0.194575
	C1449	C	0.075345	0.962949	0.150727
	C1450	C	0.050681	0.907098	0.306261
	C1451	C	0.112159	0.974870	0.349501
	C1452	C	0.016601	0.968657	0.517996
	C1453	C	0.079161	0.906397	-0.017367
	C1454	C	0.045816	0.968832	0.483729
	C1455	C	0.108345	0.906593	0.017558
	C1456	C	0.045886	0.906183	0.232953
	C1457	C	0.108327	0.968969	0.267894
	C1458	C	0.016675	0.906412	0.267784
	C1459	C	0.079134	0.969221	0.232499
	C1460	C	0.023997	0.967733	0.509324
	C1461	C	0.086543	0.905534	-0.008803
	C1462	C	0.038417	0.969729	0.492403
	C1463	C	0.100963	0.907531	0.008401
	C1464	C	0.038500	0.905173	0.241604
	C1465	C	0.100939	0.968017	0.259058
	C1466	C	0.024073	0.907195	0.258978
	C1467	C	0.086517	0.970118	0.241719
	C1468	C	0.027230	0.970131	0.420322
	C1469	C	0.089758	0.907888	0.580780
	C1470	C	0.035200	0.967430	0.081750
	C1471	C	0.096737	0.909203	0.088745
	C1472	C	0.034210	0.971084	0.412008
	C1473	C	0.096738	0.908527	0.589138
	C1474	C	0.028202	0.966829	0.089973
	C1475	C	0.089746	0.908281	0.080302
	C1476	C	0.034281	0.904053	0.161150
	C1477	C	0.096705	0.966804	0.339324
	C1478	C	0.028288	0.908387	0.339243
	C1479	C	0.090747	0.971359	0.161439
	C1480	C	0.027293	0.904921	0.169800
	C1481	C	0.089713	0.967708	0.330895
	C1482	C	0.035277	0.907482	0.330673
	C1483	C	0.097745	0.970345	0.169736
	N1484	N	0.005681	0.976734	0.479617
	N1485	N	0.068882	0.917738	0.423873
	N1486	N	0.056753	0.960597	0.021609
	N1487	N	0.118627	0.895445	0.076716
	N1488	N	0.056083	0.957772	0.424574
	N1489	N	0.119284	0.898100	0.479141
	N1490	N	0.006289	0.979553	0.077013
	N1491	N	0.068222	0.914395	0.021357
	N1492	N	0.056175	0.917230	0.174395
	N1493	N	0.119266	0.977169	0.229310
	N1494	N	0.006391	0.895352	0.326371
	N1495	N	0.068194	0.961016	0.270733
	N1496	N	0.005736	0.898357	0.229195
	N1497	N	0.068857	0.957845	0.173867
	N1498	N	0.056807	0.914443	0.271684
	N1499	N	0.118616	0.980146	0.326367
	H1500	H	0.012424	0.965349	0.869752
	H1501	H	0.076965	0.913536	0.827657
	H1502	H	0.050018	0.972039	0.632712
	H1503	H	0.110515	0.899509	0.672829
	H1504	H	0.047949	0.961883	0.827961
	H1505	H	0.112537	0.910067	0.869208
	H1506	H	0.014420	0.975424	0.673552
	H1507	H	0.074886	0.902700	0.630607
	H1508	H	0.047999	0.912831	0.577296
	H1509	H	0.112584	0.965542	0.618964
	H1510	H	0.014471	0.898857	0.922667
	H1511	H	0.074897	0.972454	0.880266
	H1512	H	0.012433	0.909668	0.619150
	H1513	H	0.076937	0.962203	0.577701
	H1514	H	0.050024	0.903024	0.881568
	H1515	H	0.110456	0.975995	0.922408
	H1516	H	0.024179	0.971195	0.856364
	H1517	H	0.088555	0.901677	0.840480
	H1518	H	0.038239	0.965724	0.645996
	H1519	H	0.100779	0.903406	0.355505
	H1520	H	0.036421	0.972598	0.841847
	H1521	H	0.100787	0.902905	0.855129
	H1522	H	0.025972	0.964812	0.660773
	H1523	H	0.088553	0.902404	0.340970
	H1524	H	0.038241	0.909173	0.895310
	H1525	H	0.100739	0.971906	0.604536
	H1526	H	0.024224	0.903247	0.605449
	H1527	H	0.086725	0.965899	0.894992
	H1528	H	0.026024	0.910417	0.909410
	H1529	H	0.088539	0.973134	0.590259
	H1530	H	0.036443	0.901968	0.591047
	H1531	H	0.098954	0.964620	0.909059
	Co1532	Co	0.125012	1.000303	0.656705
	Co1533	Co	0.062488	0.937383	0.594074
	Co1534	Co	-0.000026	0.874797	0.906633
	Co1535	Co	0.062481	0.937738	0.844192
	C1536	C	0.011799	0.969619	0.944834
	C1537	C	0.075343	0.912600	0.901279
	C1538	C	0.050631	0.968107	0.556927
	C1539	C	0.112163	0.900328	0.599358
	C1540	C	0.049620	0.962754	0.901421
	C1541	C	0.113160	0.905711	0.944469
	C1542	C	0.012805	0.974649	0.599656
	C1543	C	0.074333	0.907075	0.555629
	C1544	C	0.049624	0.912044	0.650833
	C1545	C	0.113137	0.969737	0.694106
	C1546	C	0.012843	0.899997	0.849150
	C1547	C	0.074285	0.968385	0.805681
	C1548	C	0.011833	0.905366	0.694539
	C1549	C	0.075314	0.962998	0.650869
	C1550	C	0.050640	0.906978	0.805755
	C1551	C	0.112097	0.975012	0.848860
	C1552	C	0.016607	0.968838	1.018181
	C1553	C	0.079148	0.906494	0.482746
	C1554	C	0.045808	0.968631	0.983317
	C1555	C	0.108362	0.906231	0.517659
	C1556	C	0.045830	0.906156	0.732628
	C1557	C	0.108325	0.968952	0.767232
	C1558	C	0.016640	0.906135	0.767669
	C1559	C	0.079099	0.969227	0.732496
	C1560	C	0.023980	0.967979	1.009647
	C1561	C	0.086539	0.905542	0.491692
	C1562	C	0.038417	0.969669	0.992613
	C1563	C	0.100964	0.907212	0.508950
	C1564	C	0.038453	0.905256	0.741718
	C1565	C	0.100933	0.968031	0.758128
	C1566	C	0.024028	0.907217	0.758684
	C1567	C	0.086504	0.970044	0.741427
	C1568	C	0.027197	0.970073	0.920801
	C1569	C	0.090764	0.903804	0.911086
	C1570	C	0.035197	0.967204	0.581584
	C1571	C	0.097754	0.904861	0.419935
	C1572	C	0.034194	0.970969	0.912493
	C1573	C	0.097753	0.904683	0.919431
	C1574	C	0.028207	0.966391	0.589924
	C1575	C	0.090774	0.904058	0.411574
	C1576	C	0.035237	0.907802	0.830742
	C1577	C	0.097712	0.970493	0.669043
	C1578	C	0.027244	0.904695	0.669702
	C1579	C	0.089730	0.967409	0.830442
	C1580	C	0.028257	0.908638	0.838883
	C1581	C	0.090735	0.971392	0.661041
	C1582	C	0.034227	0.903866	0.661530
	C1583	C	0.096715	0.966514	0.838491
	N1584	N	0.005656	0.976683	0.979641
	N1585	N	0.068886	0.917643	0.924149
	N1586	N	0.056744	0.960700	0.521677
	N1587	N	0.118644	0.895223	0.576240
	N1588	N	0.056101	0.957681	0.924284
	N1589	N	0.119281	0.898369	0.979500
	N1590	N	0.006310	0.979690	0.576931
	N1591	N	0.068206	0.914405	0.520864
	N1592	N	0.056118	0.917194	0.673795
	N1593	N	0.119256	0.977068	0.729304
	N1594	N	0.006364	0.894928	0.826479
	N1595	N	0.068163	0.960891	0.770905
	N1596	N	0.005712	0.898132	0.729355
	N1597	N	0.068835	0.957672	0.673974
	N1598	N	0.056764	0.914317	0.771017
	N1599	N	0.118586	0.980131	0.826275
	H1600	H	0.137361	0.089839	0.370363
	H1601	H	0.201985	0.038517	0.327681
	H1602	H	0.175115	0.097708	0.130265
	H1603	H	0.235518	0.024013	0.172577
	H1604	H	0.172947	0.086695	0.326331
	H1605	H	0.237519	0.034819	0.368541
	H1606	H	0.139478	0.100729	0.173474
	H1607	H	0.200016	0.027880	0.131039
	H1608	H	0.172983	0.038847	0.077746
	H1609	H	0.237448	0.090741	0.119080
	H1610	H	0.139565	0.023958	0.422874
	H1611	H	0.199920	0.097617	0.380284
	H1612	H	0.137405	0.035316	0.119475
	H1613	H	0.201960	0.087181	0.076891
	H1614	H	0.175083	0.027511	0.380405
	H1615	H	0.235540	0.100628	0.422435
	H1616	H	0.149118	0.096881	0.355859
	H1617	H	0.213519	0.027360	0.340863
	H1618	H	0.163274	0.091444	0.145588
	H1619	H	0.225837	0.028300	-0.144794
	H1620	H	0.161350	0.097916	0.340437
	H1621	H	0.225753	0.028385	0.355250
	H1622	H	0.151006	0.090185	0.160481
	H1623	H	0.213621	0.027433	-0.159641
	H1624	H	0.161485	0.027110	0.090579
	H1625	H	0.225742	0.096524	0.104735
	H1626	H	0.151044	0.035839	0.409146
	H1627	H	0.211689	0.091200	0.394558
	H1628	H	0.149202	0.028433	0.105165
	H1629	H	0.213519	0.098013	0.090616
	H1630	H	0.163265	0.034779	0.394501
	H1631	H	0.223895	0.089997	0.409589
	Co1632	Co	0.249954	0.125409	0.155854
	Co1633	Co	0.187538	0.062718	0.093638
	Co1634	Co	0.125030	0.000100	0.406782
	Co1635	Co	0.187513	0.062861	0.344055
	C1636	C	0.136773	0.094239	0.445876
	C1637	C	0.200347	0.037625	0.400910
	C1638	C	0.175666	0.093406	0.055249
	C1639	C	0.237179	0.025057	0.099236
	C1640	C	0.174587	0.087852	0.400277
	C1641	C	0.238163	0.030700	0.443608
	C1642	C	0.137826	0.099868	0.099930
	C1643	C	0.199373	0.032097	0.055841
	C1644	C	0.174651	0.037565	0.151171
	C1645	C	0.238109	0.094892	0.194028
	C1646	C	0.137905	0.025229	0.349354
	C1647	C	0.199328	0.093390	0.305340
	C1648	C	0.136818	0.031013	0.194679
	C1649	C	0.200353	0.088091	0.150561
	C1650	C	0.175676	0.031869	0.305627
	C1651	C	0.237144	0.099854	0.348950
	C1652	C	0.141606	0.093740	0.518851
	C1653	C	0.204203	0.031377	-0.017397
	C1654	C	0.170788	0.093854	0.482170
	C1655	C	0.233357	0.031071	0.017662
	C1656	C	0.170856	0.031258	0.232656
	C1657	C	0.233321	0.093993	0.267330
	C1658	C	0.141659	0.031488	0.267475
	C1659	C	0.204148	0.094148	0.232218
	C1660	C	0.148987	0.092745	0.509405
	C1661	C	0.211564	0.030389	-0.008570
	C1662	C	0.163410	0.094585	0.491357
	C1663	C	0.225998	0.032025	0.008634
	C1664	C	0.163460	0.030352	0.241364
	C1665	C	0.225943	0.092985	0.258559
	C1666	C	0.149046	0.032406	0.258316
	C1667	C	0.211537	0.094965	0.241259
	C1668	C	0.152160	0.095313	0.420063
	C1669	C	0.215740	0.029184	0.411568
	C1670	C	0.160227	0.092723	0.081196
	C1671	C	0.222811	0.029765	-0.080440
	C1672	C	0.159156	0.096126	0.411243
	C1673	C	0.222739	0.029890	0.419645
	C1674	C	0.153234	0.091808	0.089768
	C1675	C	0.215807	0.029035	-0.088688
	C1676	C	0.159238	0.028919	0.161044
	C1677	C	0.222744	0.095313	0.169311
	C1678	C	0.153253	0.033889	0.338662
	C1679	C	0.214725	0.092567	0.330358
	C1680	C	0.152252	0.029849	0.169278
	C1681	C	0.215760	0.096174	0.160997
	C1682	C	0.160244	0.033075	0.330380
	C1683	C	0.221708	0.091680	0.338787
	N1684	N	0.130663	0.101679	0.480600
	N1685	N	0.193861	0.042669	0.423601
	N1686	N	0.181752	0.085779	0.020518
	N1687	N	0.243647	0.020016	0.076233
	N1688	N	0.181086	0.082839	0.423363
	N1689	N	0.244269	0.023311	0.478645
	N1690	N	0.131330	0.104888	0.076853
	N1691	N	0.193251	0.039450	0.021375
	N1692	N	0.181125	0.042723	0.173959
	N1693	N	0.244258	0.102092	0.228586
	N1694	N	0.131405	0.020181	0.326907
	N1695	N	0.193206	0.086057	0.270564
	N1696	N	0.130694	0.023559	0.230017
	N1697	N	0.193869	0.083039	0.173632
	N1698	N	0.181794	0.039442	0.271057
	N1699	N	0.243622	0.104945	0.325977
	H1700	H	0.137402	0.090036	0.869709
	H1701	H	0.202023	0.038384	0.827506
	H1702	H	0.175005	0.097819	0.630596
	H1703	H	0.235463	0.024153	0.671579
	H1704	H	0.172909	0.086594	0.827504
	H1705	H	0.237571	0.034627	0.869162
	H1706	H	0.139463	0.101208	0.673947
	H1707	H	0.199906	0.028103	0.630779
	H1708	H	0.173002	0.038162	0.577371
	H1709	H	0.237504	0.090459	0.618387
	H1710	H	0.139476	0.024035	0.923796
	H1711	H	0.199910	0.097308	0.881945
	H1712	H	0.137480	0.035106	0.620160
	H1713	H	0.201866	0.087282	0.577732
	H1714	H	0.175021	0.027820	0.880993
	H1715	H	0.235425	0.100778	0.922669
	H1716	H	0.149165	0.096199	0.855616
	H1717	H	0.211760	0.034072	1.145211
	H1718	H	0.163258	0.090667	0.644753
	H1719	H	0.223993	0.035587	0.659335
	H1720	H	0.161381	0.097762	0.840728
	H1721	H	0.223987	0.034939	1.159436
	H1722	H	0.151040	0.089433	0.660039
	H1723	H	0.211758	0.034344	0.645245
	H1724	H	0.163272	0.034071	0.895508
	H1725	H	0.223905	0.089560	0.909127
	H1726	H	0.149148	0.028446	0.606189
	H1727	H	0.213423	0.098299	0.590680
	H1728	H	0.151047	0.035356	0.910488
	H1729	H	0.211639	0.090769	0.894716
	H1730	H	0.161382	0.027260	0.590809
	H1731	H	0.225642	0.097126	0.604643
	Co1732	Co	0.249994	0.124622	0.655966
	Co1733	Co	0.187442	0.062778	0.593908
	Co1734	Co	0.124978	0.000070	0.906665
	Co1735	Co	0.187452	0.062373	0.843959
	C1736	C	0.136803	0.094286	0.944937
	C1737	C	0.200361	0.037453	0.901080
	C1738	C	0.175599	0.093275	0.555466
	C1739	C	0.237155	0.025392	0.598590
	C1740	C	0.174579	0.087731	0.900602
	C1741	C	0.238189	0.030361	0.944517
	C1742	C	0.137818	0.100035	0.600408
	C1743	C	0.199307	0.032275	0.555717
	C1744	C	0.174618	0.037272	0.650685
	C1745	C	0.238091	0.094469	0.694144
	C1746	C	0.137843	0.025187	0.850351
	C1747	C	0.199292	0.093137	0.806171
	C1748	C	0.136822	0.030910	0.695473
	C1749	C	0.200290	0.088000	0.651392
	C1750	C	0.175663	0.031788	0.805458
	C1751	C	0.237058	0.099863	0.848912
	C1752	C	0.141620	0.093670	1.018276
	C1753	C	0.204144	0.031519	0.482709
	C1754	C	0.170819	0.094130	0.982379
	C1755	C	0.233348	0.031440	0.516966
	C1756	C	0.170814	0.031198	0.732594
	C1757	C	0.233286	0.093849	0.767138
	C1758	C	0.141641	0.031372	0.768672
	C1759	C	0.204065	0.093913	0.732953
	C1760	C	0.149010	0.092858	1.009428
	C1761	C	0.211519	0.030502	0.491854
	C1762	C	0.163433	0.094993	0.991918
	C1763	C	0.225960	0.032350	0.508470
	C1764	C	0.163440	0.030281	0.741882
	C1765	C	0.225888	0.092935	0.758242
	C1766	C	0.149017	0.032234	0.759717
	C1767	C	0.211475	0.094855	0.741535
	C1768	C	0.152201	0.095069	0.920079
	C1769	C	0.214764	0.032644	1.080588
	C1770	C	0.160218	0.092098	0.580556
	C1771	C	0.221755	0.033780	0.588842
	C1772	C	0.159188	0.096056	0.911603
	C1773	C	0.221767	0.033370	1.088769
	C1774	C	0.153232	0.091288	0.589250
	C1775	C	0.214759	0.032922	0.580700
	C1776	C	0.160253	0.032683	0.831097
	C1777	C	0.221679	0.091429	0.838610
	C1778	C	0.152197	0.029772	0.670397
	C1779	C	0.215683	0.096420	0.661118
	C1780	C	0.153261	0.033491	0.839929
	C1781	C	0.214702	0.092304	0.830635
	C1782	C	0.159194	0.028989	0.661816
	C1783	C	0.222656	0.095596	0.669292
	N1784	N	0.130686	0.101711	0.979728
	N1785	N	0.193886	0.042542	0.924134
	N1786	N	0.181734	0.085999	0.520698
	N1787	N	0.243631	0.020303	0.575462
	N1788	N	0.181048	0.082440	0.923331
	N1789	N	0.244313	0.023118	0.979212
	N1790	N	0.131353	0.105027	0.577605
	N1791	N	0.193191	0.039660	0.520853
	N1792	N	0.181106	0.042271	0.673467
	N1793	N	0.244229	0.101671	0.729125
	N1794	N	0.131374	0.020197	0.827219
	N1795	N	0.193151	0.085909	0.771465
	N1796	N	0.130703	0.023531	0.730233
	N1797	N	0.193795	0.082954	0.674236
	N1798	N	0.181788	0.039126	0.770539
	N1799	N	0.243572	0.104769	0.826167
	H1800	H	0.137408	0.215379	0.369245
	H1801	H	0.202059	0.163408	0.327493
	H1802	H	0.175051	0.222397	0.130537
	H1803	H	0.235557	0.150026	0.172689
	H1804	H	0.172946	0.211815	0.327233
	H1805	H	0.237610	0.159694	0.368877
	H1806	H	0.139416	0.225023	0.173101
	H1807	H	0.199953	0.152940	0.131901
	H1808	H	0.172981	0.163653	0.078235
	H1809	H	0.237469	0.215977	0.118226
	H1810	H	0.139482	0.149225	0.423405
	H1811	H	0.199949	0.222120	0.380928
	H1812	H	0.137384	0.159758	0.119613
	H1813	H	0.201945	0.212168	0.077261
	H1814	H	0.175086	0.152407	0.380805
	H1815	H	0.235504	0.225242	0.422025
	H1816	H	0.149160	0.221569	0.354981
	H1817	H	0.213580	0.152266	0.340457
	H1818	H	0.163279	0.216468	0.144718
	H1819	H	0.223942	0.160476	0.159817
	H1820	H	0.161417	0.222602	0.340342
	H1821	H	0.225835	0.153514	0.354676
	H1822	H	0.151055	0.215361	0.160225
	H1823	H	0.211723	0.159324	0.145573
	H1824	H	0.161439	0.153066	0.090358
	H1825	H	0.225728	0.221655	0.104703
	H1826	H	0.151015	0.160074	0.409773
	H1827	H	0.211706	0.215906	0.394836
	H1828	H	0.149223	0.154056	0.105054
	H1829	H	0.213509	0.223019	0.090295
	H1830	H	0.163255	0.158924	0.395309
	H1831	H	0.223936	0.214730	0.409056
	Co1832	Co	0.250015	0.250336	0.156033
	Co1833	Co	0.187449	0.187763	0.094138
	Co1834	Co	0.124990	0.124934	0.407061
	Co1835	Co	0.187492	0.187365	0.343922
	C1836	C	0.136792	0.219454	0.444449
	C1837	C	0.200407	0.162489	0.400891
	C1838	C	0.175639	0.218316	0.055317
	C1839	C	0.237177	0.150958	0.099235
	C1840	C	0.174606	0.212746	0.400580
	C1841	C	0.238218	0.155606	0.443962
	C1842	C	0.137826	0.224391	0.099642
	C1843	C	0.199312	0.157099	0.056591
	C1844	C	0.174618	0.162615	0.151300
	C1845	C	0.238106	0.219919	0.193454
	C1846	C	0.137842	0.150272	0.349973
	C1847	C	0.199313	0.218162	0.305807
	C1848	C	0.136798	0.155543	0.195052
	C1849	C	0.200315	0.212974	0.150792
	C1850	C	0.175663	0.156904	0.306061
	C1851	C	0.237115	0.224736	0.348567
	C1852	C	0.141635	0.218769	0.517435
	C1853	C	0.204126	0.156350	-0.016914
	C1854	C	0.170811	0.218878	0.482213
	C1855	C	0.233329	0.156719	0.017482
	C1856	C	0.170828	0.156438	0.233015
	C1857	C	0.233305	0.218982	0.266628
	C1858	C	0.141627	0.156311	0.268108
	C1859	C	0.204116	0.218917	0.232458
	C1860	C	0.149004	0.217784	0.508297
	C1861	C	0.211513	0.155491	-0.008140
	C1862	C	0.163413	0.219757	0.491255
	C1863	C	0.225948	0.157601	0.008764
	C1864	C	0.163446	0.155602	0.241643
	C1865	C	0.225919	0.218015	0.258039
	C1866	C	0.149010	0.157336	0.258853
	C1867	C	0.211504	0.219890	0.241292
	C1868	C	0.152191	0.220224	0.419262
	C1869	C	0.215806	0.154161	0.411077
	C1870	C	0.160218	0.217694	0.080518
	C1871	C	0.221724	0.158762	0.089204
	C1872	C	0.159182	0.221082	0.411043
	C1873	C	0.222800	0.155021	0.418945
	C1874	C	0.153248	0.216843	0.089389
	C1875	C	0.214728	0.157934	0.081051
	C1876	C	0.159229	0.154533	0.161215
	C1877	C	0.222706	0.220493	0.169183
	C1878	C	0.153236	0.158466	0.339120
	C1879	C	0.214720	0.217401	0.330403
	C1880	C	0.152237	0.155262	0.169617
	C1881	C	0.215720	0.221269	0.161035
	C1882	C	0.160234	0.157717	0.330725
	C1883	C	0.221709	0.216574	0.338519
	N1884	N	0.130691	0.226933	0.479856
	N1885	N	0.193921	0.167555	0.423989
	N1886	N	0.181773	0.211037	0.020758
	N1887	N	0.243638	0.145744	0.076101
	N1888	N	0.181081	0.207537	0.423518
	N1889	N	0.244343	0.148271	0.478927
	N1890	N	0.131332	0.229506	0.076781
	N1891	N	0.193182	0.164438	0.021544
	N1892	N	0.181109	0.167484	0.174013
	N1893	N	0.244240	0.227039	0.228414
	N1894	N	0.131366	0.145054	0.327265
	N1895	N	0.193186	0.210827	0.271030
	N1896	N	0.130690	0.148192	0.230111
	N1897	N	0.193830	0.207895	0.173778
	N1898	N	0.181789	0.164164	0.271087
	N1899	N	0.243612	0.229756	0.325529
	H1900	H	0.137453	0.215335	0.869529
	H1901	H	0.201997	0.163491	0.827554
	H1902	H	0.174996	0.222448	0.630748
	H1903	H	0.235534	0.149312	0.672080
	H1904	H	0.173003	0.211784	0.826865
	H1905	H	0.237534	0.159625	0.868464
	H1906	H	0.139530	0.225957	0.672992
	H1907	H	0.200009	0.153161	0.631397
	H1908	H	0.172935	0.163864	0.577277
	H1909	H	0.237483	0.215720	0.618858
	H1910	H	0.139499	0.149181	0.923659
	H1911	H	0.199884	0.222604	0.881271
	H1912	H	0.137394	0.160147	0.619918
	H1913	H	0.201870	0.212301	0.577550
	H1914	H	0.175102	0.152614	0.881060
	H1915	H	0.235507	0.225664	0.922576
	H1916	H	0.149193	0.221067	0.855484
	H1917	H	0.213523	0.152560	0.840886
	H1918	H	0.163243	0.215845	0.644906
	H1919	H	0.224040	0.160756	0.659133
	H1920	H	0.161410	0.222189	0.840376
	H1921	H	0.225735	0.153879	0.855326
	H1922	H	0.151025	0.214447	0.659287
	H1923	H	0.211835	0.159827	0.645123
	H1924	H	0.161430	0.152079	0.590928
	H1925	H	0.225706	0.222476	0.605102
	H1926	H	0.151091	0.160355	0.910140
	H1927	H	0.211685	0.215766	0.894776
	H1928	H	0.149186	0.153346	0.605662
	H1929	H	0.213488	0.223482	0.590449
	H1930	H	0.163302	0.159191	0.895321
	H1931	H	0.223877	0.214657	0.909327
	Co1932	Co	0.249987	0.250070	0.655714
	Co1933	Co	0.187495	0.187624	0.593914
	Co1934	Co	0.124980	0.125122	0.907141
	Co1935	Co	0.187458	0.187626	0.844466
	C1936	C	0.136837	0.219450	0.944735
	C1937	C	0.200313	0.162301	0.901197
	C1938	C	0.175629	0.218118	0.555392
	C1939	C	0.237186	0.150191	0.598661
	C1940	C	0.174621	0.212895	0.900700
	C1941	C	0.238134	0.155675	0.944100
	C1942	C	0.137867	0.224928	0.599472
	C1943	C	0.199390	0.157294	0.556116
	C1944	C	0.174614	0.162470	0.650912
	C1945	C	0.238108	0.219648	0.694395
	C1946	C	0.137863	0.150262	0.850103
	C1947	C	0.199291	0.218435	0.805901
	C1948	C	0.136820	0.155961	0.695244
	C1949	C	0.200297	0.213155	0.651067
	C1950	C	0.175671	0.156884	0.805480
	C1951	C	0.237097	0.224862	0.849025
	C1952	C	0.141616	0.218597	1.018079
	C1953	C	0.204215	0.156506	0.482709
	C1954	C	0.170832	0.218898	0.982237
	C1955	C	0.233404	0.156323	0.517120
	C1956	C	0.170855	0.156250	0.732440
	C1957	C	0.233327	0.218870	0.767379
	C1958	C	0.141645	0.156489	0.768399
	C1959	C	0.204073	0.219167	0.732601
	C1960	C	0.149015	0.217798	1.009253
	C1961	C	0.211605	0.155617	0.491499
	C1962	C	0.163429	0.219808	0.991298
	C1963	C	0.226021	0.157418	0.508148
	C1964	C	0.163461	0.155305	0.741604
	C1965	C	0.225902	0.217956	0.758328
	C1966	C	0.149038	0.157349	0.759091
	C1967	C	0.211477	0.219977	0.741284
	C1968	C	0.152220	0.219925	0.919961
	C1969	C	0.215732	0.154224	0.911530
	C1970	C	0.160215	0.217261	0.580482
	C1971	C	0.221803	0.158956	0.588610
	C1972	C	0.159191	0.220838	0.911214
	C1973	C	0.222727	0.155250	0.919783
	C1974	C	0.153225	0.216323	0.588529
	C1975	C	0.214816	0.158264	0.580389
	C1976	C	0.159209	0.153951	0.661448
	C1977	C	0.222679	0.220796	0.669369
	C1978	C	0.153285	0.158579	0.839265
	C1979	C	0.214690	0.217353	0.830365
	C1980	C	0.152227	0.154781	0.669966
	C1981	C	0.215707	0.221643	0.661128
	C1982	C	0.160269	0.157711	0.830975
	C1983	C	0.221660	0.216405	0.838605
	N1984	N	0.130695	0.226708	0.979605
	N1985	N	0.193827	0.167424	0.924270
	N1986	N	0.181748	0.210690	0.520522
	N1987	N	0.243676	0.145171	0.575972
	N1988	N	0.181112	0.207871	0.923711
	N1989	N	0.244252	0.148453	0.978559
	N1990	N	0.131380	0.230007	0.576878
	N1991	N	0.193273	0.164550	0.521078
	N1992	N	0.181086	0.167587	0.673599
	N1993	N	0.244239	0.226939	0.729006
	N1994	N	0.131358	0.145221	0.827154
	N1995	N	0.193129	0.211049	0.771074
	N1996	N	0.130689	0.148511	0.730089
	N1997	N	0.193788	0.208099	0.674064
	N1998	N	0.181770	0.164358	0.770853
	N1999	N	0.243596	0.229869	0.826166
	H2000	H	0.137336	0.340646	0.369416
	H2001	H	0.201924	0.287721	0.327759
	H2002	H	0.175056	0.347442	0.130491
	H2003	H	0.235567	0.275000	0.172869
	H2004	H	0.172865	0.336452	0.327471
	H2005	H	0.237562	0.284468	0.368254
	H2006	H	0.139487	0.350289	0.173058
	H2007	H	0.199966	0.278253	0.132529
	H2008	H	0.172964	0.288035	0.076887
	H2009	H	0.237543	0.340621	0.117783
	H2010	H	0.139487	0.274180	0.422987
	H2011	H	0.199972	0.346841	0.380526
	H2012	H	0.137386	0.284727	0.119391
	H2013	H	0.201992	0.336985	0.077578
	H2014	H	0.174980	0.277666	0.380838
	H2015	H	0.235549	0.349927	0.421736
	H2016	H	0.149158	0.346865	0.355707
	H2017	H	0.213530	0.276931	0.340427
	H2018	H	0.163257	0.341474	0.144981
	H2019	H	0.223974	0.285318	0.160510
	H2020	H	0.161384	0.347816	0.340689
	H2021	H	0.225777	0.278140	0.354547
	H2022	H	0.151020	0.340343	0.159646
	H2023	H	0.211763	0.283904	0.145932
	H2024	H	0.161407	0.278031	0.089688
	H2025	H	0.225730	0.346357	0.104447
	H2026	H	0.151025	0.284765	0.409779
	H2027	H	0.211746	0.340020	0.394951
	H2028	H	0.149202	0.278936	0.104816
	H2029	H	0.213570	0.347582	0.090320
	H2030	H	0.163262	0.283539	0.394774
	H2031	H	0.223982	0.339219	0.409466
	Co2032	Co	0.249974	0.375508	0.155299
	Co2033	Co	0.187498	0.312563	0.094279
	Co2034	Co	0.124946	0.250090	0.406874
	Co2035	Co	0.187441	0.312358	0.344125
	C2036	C	0.136763	0.344517	0.444901
	C2037	C	0.200330	0.287026	0.401306
	C2038	C	0.175646	0.343186	0.055581
	C2039	C	0.237174	0.275651	0.099363
	C2040	C	0.174584	0.337561	0.400872
	C2041	C	0.238194	0.280570	0.443488
	C2042	C	0.137831	0.349665	0.099511
	C2043	C	0.199356	0.282065	0.056759
	C2044	C	0.174625	0.287213	0.150807
	C2045	C	0.238167	0.344690	0.193363
	C2046	C	0.137818	0.275207	0.349587
	C2047	C	0.199324	0.342757	0.305548
	C2048	C	0.136789	0.280587	0.194498
	C2049	C	0.200332	0.337789	0.150630
	C2050	C	0.175624	0.281945	0.305596
	C2051	C	0.237194	0.349509	0.348208
	C2052	C	0.141591	0.343602	0.517935
	C2053	C	0.204157	0.281224	-0.016542
	C2054	C	0.170776	0.343706	0.482604
	C2055	C	0.233371	0.281571	0.017821
	C2056	C	0.170799	0.281198	0.232345
	C2057	C	0.233356	0.343574	0.266851
	C2058	C	0.141635	0.281387	0.267631
	C2059	C	0.204161	0.343599	0.232540
	C2060	C	0.148959	0.342671	0.508819
	C2061	C	0.211556	0.280350	-0.007667
	C2062	C	0.163382	0.344611	0.491487
	C2063	C	0.225969	0.282522	0.009230
	C2064	C	0.163424	0.280457	0.241086
	C2065	C	0.225988	0.342532	0.258348
	C2066	C	0.149001	0.282422	0.258660
	C2067	C	0.211538	0.344331	0.241595
	C2068	C	0.152177	0.345258	0.419838
	C2069	C	0.215772	0.278804	0.411075
	C2070	C	0.160230	0.342565	0.080484
	C2071	C	0.221758	0.283586	0.089773
	C2072	C	0.159174	0.345958	0.411306
	C2073	C	0.222761	0.279674	0.419127
	C2074	C	0.153239	0.341784	0.088847
	C2075	C	0.214775	0.282610	0.081480
	C2076	C	0.159205	0.279503	0.160611
	C2077	C	0.222762	0.344929	0.169383
	C2078	C	0.153223	0.283419	0.338878
	C2079	C	0.214758	0.341769	0.330585
	C2080	C	0.152203	0.280275	0.169446
	C2081	C	0.215763	0.345793	0.161212
	C2082	C	0.160223	0.282477	0.330327
	C2083	C	0.221772	0.341038	0.338720
	N2084	N	0.130639	0.351879	0.479695
	N2085	N	0.193847	0.292381	0.424277
	N2086	N	0.181758	0.335686	0.020711
	N2087	N	0.243649	0.270386	0.076061
	N2088	N	0.181066	0.332641	0.423771
	N2089	N	0.244319	0.273215	0.478646
	N2090	N	0.131337	0.354797	0.076661
	N2091	N	0.193236	0.289315	0.021711
	N2092	N	0.181088	0.292363	0.173806
	N2093	N	0.244287	0.351987	0.227958
	N2094	N	0.131343	0.270019	0.326637
	N2095	N	0.193200	0.335574	0.270825
	N2096	N	0.130688	0.273060	0.229558
	N2097	N	0.193847	0.332767	0.173739
	N2098	N	0.181737	0.289203	0.270916
	N2099	N	0.243669	0.354624	0.325407
	H2100	H	0.137419	0.340849	0.868999
	H2101	H	0.201971	0.287884	0.828099
	H2102	H	0.174997	0.347636	0.631220
	H2103	H	0.235552	0.274938	0.672307
	H2104	H	0.172963	0.336605	0.827379
	H2105	H	0.237525	0.284524	0.868698
	H2106	H	0.139373	0.350475	0.673238
	H2107	H	0.199982	0.278721	0.631948
	H2108	H	0.172965	0.288638	0.577944
	H2109	H	0.237458	0.340705	0.618064
	H2110	H	0.139547	0.274131	0.923219
	H2111	H	0.199945	0.346848	0.881999
	H2112	H	0.137443	0.284889	0.619635
	H2113	H	0.201929	0.337367	0.577972
	H2114	H	0.175168	0.277059	0.880767
	H2115	H	0.235516	0.350198	0.921950
	H2116	H	0.149172	0.346062	0.854747
	H2117	H	0.213567	0.277654	0.841058
	H2118	H	0.163211	0.340768	0.644824
	H2119	H	0.223975	0.286125	0.658932
	H2120	H	0.161402	0.347301	0.840138
	H2121	H	0.225754	0.278871	0.855561
	H2122	H	0.150984	0.339460	0.659554
	H2123	H	0.211794	0.284699	0.644833
	H2124	H	0.161449	0.276908	0.591071
	H2125	H	0.225709	0.346528	0.604772
	H2126	H	0.151068	0.284915	0.910363
	H2127	H	0.211719	0.340870	0.895251
	H2128	H	0.149242	0.278246	0.605572
	H2129	H	0.213462	0.348043	0.590603
	H2130	H	0.163295	0.284005	0.895562
	H2131	H	0.223937	0.339728	0.909168
	Co2132	Co	0.249968	0.375074	0.655155
	Co2133	Co	0.187463	0.312685	0.594148
	Co2134	Co	0.125028	0.250169	0.907101
	Co2135	Co	0.187472	0.312185	0.844040
	C2136	C	0.136800	0.344713	0.944524
	C2137	C	0.200354	0.287078	0.901802
	C2138	C	0.175637	0.343280	0.555575
	C2139	C	0.237181	0.275670	0.598625
	C2140	C	0.174600	0.337458	0.900797
	C2141	C	0.238150	0.280643	0.944447
	C2142	C	0.137780	0.349530	0.599727
	C2143	C	0.199375	0.282335	0.556275
	C2144	C	0.174632	0.287420	0.651255
	C2145	C	0.238101	0.344635	0.693295
	C2146	C	0.137881	0.275184	0.849704
	C2147	C	0.199309	0.342944	0.806384
	C2148	C	0.136832	0.280692	0.695085
	C2149	C	0.200273	0.338274	0.651242
	C2150	C	0.175695	0.281573	0.805533
	C2151	C	0.237118	0.349518	0.848374
	C2152	C	0.141614	0.343773	1.017720
	C2153	C	0.204141	0.281326	0.482919
	C2154	C	0.170820	0.343815	0.982444
	C2155	C	0.233398	0.281553	0.516778
	C2156	C	0.170851	0.281117	0.732841
	C2157	C	0.233291	0.343816	0.766679
	C2158	C	0.141659	0.281165	0.768108
	C2159	C	0.204094	0.344055	0.732984
	C2160	C	0.149004	0.342833	1.008504
	C2161	C	0.211547	0.280433	0.491441
	C2162	C	0.163430	0.344750	0.991335
	C2163	C	0.225981	0.282485	0.508059
	C2164	C	0.163472	0.280141	0.742077
	C2165	C	0.225897	0.342898	0.758178
	C2166	C	0.149053	0.281989	0.759269
	C2167	C	0.211480	0.344940	0.741729
	C2168	C	0.152215	0.344943	0.919208
	C2169	C	0.215774	0.279170	0.911868
	C2170	C	0.160183	0.342191	0.580552
	C2171	C	0.221772	0.283971	0.588317
	C2172	C	0.159200	0.345776	0.910968
	C2173	C	0.222749	0.279993	0.920204
	C2174	C	0.153192	0.341224	0.588982
	C2175	C	0.214800	0.283105	0.580322
	C2176	C	0.159249	0.278794	0.661822
	C2177	C	0.222675	0.345292	0.669115
	C2178	C	0.153283	0.283198	0.839660
	C2179	C	0.214707	0.342451	0.830573
	C2180	C	0.152261	0.279615	0.670054
	C2181	C	0.215687	0.346311	0.661218
	C2182	C	0.160270	0.282542	0.831187
	C2183	C	0.221691	0.341665	0.838689
	N2184	N	0.130680	0.351911	0.979384
	N2185	N	0.193869	0.292177	0.924472
	N2186	N	0.181737	0.335899	0.520785
	N2187	N	0.243666	0.270395	0.575711
	N2188	N	0.181089	0.332363	0.923755
	N2189	N	0.244282	0.273235	0.978899
	N2190	N	0.131294	0.354744	0.576904
	N2191	N	0.193252	0.289681	0.521587
	N2192	N	0.181120	0.292313	0.673824
	N2193	N	0.244229	0.351804	0.728234
	N2194	N	0.131367	0.270273	0.827192
	N2195	N	0.193178	0.335545	0.771741
	N2196	N	0.130697	0.273433	0.730116
	N2197	N	0.193797	0.332833	0.674482
	N2198	N	0.181800	0.288895	0.770889
	N2199	N	0.243603	0.354559	0.825366
	H2200	H	0.137442	0.465548	0.368885
	H2201	H	0.201960	0.413081	0.327780
	H2202	H	0.175016	0.472925	0.130556
	H2203	H	0.235545	0.399913	0.172338
	H2204	H	0.172988	0.461773	0.327230
	H2205	H	0.237475	0.409589	0.368664
	H2206	H	0.139486	0.475503	0.172879
	H2207	H	0.199929	0.403294	0.132217
	H2208	H	0.172966	0.413922	0.077364
	H2209	H	0.237501	0.465326	0.119054
	H2210	H	0.139526	0.399387	0.422374
	H2211	H	0.199993	0.471814	0.381835
	H2212	H	0.137456	0.409680	0.118596
	H2213	H	0.201951	0.462398	0.078177
	H2214	H	0.175087	0.402486	0.380766
	H2215	H	0.235462	0.475714	0.421894
	H2216	H	0.151022	0.464716	0.658996
	H2217	H	0.211761	0.409676	0.645265
	H2218	H	0.163245	0.466328	0.145211
	H2219	H	0.223949	0.409959	0.159587
	H2220	H	0.163267	0.466057	0.644374
	H2221	H	0.223982	0.411011	0.659305
	H2222	H	0.151024	0.465061	0.159747
	H2223	H	0.211738	0.408949	0.145711
	H2224	H	0.161457	0.402569	0.090157
	H2225	H	0.225735	0.471658	0.105023
	H2226	H	0.151038	0.410303	0.409566
	H2227	H	0.211752	0.465754	0.395135
	H2228	H	0.149212	0.403812	0.104794
	H2229	H	0.213545	0.472823	0.090774
	H2230	H	0.163252	0.409191	0.394804
	H2231	H	0.223981	0.464246	0.409424
	Co2232	Co	0.250007	0.500167	0.155383
	Co2233	Co	0.187478	0.437924	0.094143
	Co2234	Co	0.124966	0.375332	0.406797
	Co2235	Co	0.187484	0.437537	0.344233
	C2236	C	0.136788	0.469796	0.444033
	C2237	C	0.200347	0.412192	0.401373
	C2238	C	0.175640	0.468441	0.055427
	C2239	C	0.237159	0.400515	0.098892
	C2240	C	0.174619	0.462793	0.400525
	C2241	C	0.238165	0.405402	0.443562
	C2242	C	0.137834	0.474447	0.099309
	C2243	C	0.199314	0.407135	0.056929
	C2244	C	0.174635	0.412587	0.150785
	C2245	C	0.238117	0.469657	0.193616
	C2246	C	0.137847	0.400278	0.348911
	C2247	C	0.199348	0.467864	0.306149
	C2248	C	0.136814	0.405434	0.193891
	C2249	C	0.200327	0.463167	0.151248
	C2250	C	0.175671	0.406879	0.305334
	C2251	C	0.237119	0.474779	0.348523
	C2252	C	0.141629	0.468726	0.516977
	C2253	C	0.204118	0.406095	-0.016554
	C2254	C	0.170805	0.468912	0.482023
	C2255	C	0.233308	0.406117	0.017062
	C2256	C	0.170842	0.406366	0.232261
	C2257	C	0.233323	0.468757	0.266997
	C2258	C	0.141644	0.406248	0.267002
	C2259	C	0.204157	0.468861	0.233033
	C2260	C	0.149000	0.467744	0.508023
	C2261	C	0.211481	0.405279	-0.008032
	C2262	C	0.163428	0.469685	0.490727
	C2263	C	0.225929	0.407024	0.008480
	C2264	C	0.163464	0.405427	0.241161
	C2265	C	0.225952	0.467784	0.258455
	C2266	C	0.149047	0.407260	0.258242
	C2267	C	0.211541	0.469761	0.241849
	C2268	C	0.153220	0.466389	0.588123
	C2269	C	0.214771	0.408003	0.580674
	C2270	C	0.160230	0.467434	0.080440
	C2271	C	0.221730	0.408373	0.088810
	C2272	C	0.160214	0.467290	0.579911
	C2273	C	0.221760	0.408838	0.588718
	C2274	C	0.153241	0.466456	0.088827
	C2275	C	0.214726	0.407627	0.080919
	C2276	C	0.159244	0.404179	0.160830
	C2277	C	0.222728	0.470310	0.169534
	C2278	C	0.153261	0.408645	0.338674
	C2279	C	0.214768	0.467231	0.330720
	C2280	C	0.152251	0.405040	0.169123
	C2281	C	0.215745	0.471114	0.161521
	C2282	C	0.160248	0.407887	0.330256
	C2283	C	0.221757	0.466321	0.338938
	N2284	N	0.130687	0.477042	0.479174
	N2285	N	0.193864	0.417535	0.424468
	N2286	N	0.181751	0.460923	0.020738
	N2287	N	0.243631	0.395470	0.075539
	N2288	N	0.181094	0.457777	0.423778
	N2289	N	0.244278	0.398155	0.478302
	N2290	N	0.131341	0.479578	0.076507
	N2291	N	0.193205	0.414496	0.022155
	N2292	N	0.181131	0.417597	0.173601
	N2293	N	0.244235	0.477103	0.228555
	N2294	N	0.131355	0.395226	0.326150
	N2295	N	0.193223	0.460751	0.271369
	N2296	N	0.130691	0.398208	0.229201
	N2297	N	0.193856	0.457933	0.174300
	N2298	N	0.181797	0.414323	0.270662
	N2299	N	0.243601	0.480049	0.325555
	H2300	H	0.137442	0.465123	0.869223
	H2301	H	0.201919	0.412472	0.828147
	H2302	H	0.174954	0.472537	0.630575
	H2303	H	0.235475	0.399334	0.672184
	H2304	H	0.172923	0.461432	0.827458
	H2305	H	0.237448	0.408890	0.867846
	H2306	H	0.139456	0.475241	0.672321
	H2307	H	0.199885	0.403181	0.631726
	H2308	H	0.172927	0.413463	0.577362
	H2309	H	0.237453	0.465714	0.618369
	H2310	H	0.139390	0.399707	0.923355
	H2311	H	0.199939	0.471554	0.881972
	H2312	H	0.137446	0.409178	0.619452
	H2313	H	0.201910	0.462924	0.577547
	H2314	H	0.175033	0.402299	0.880044
	H2315	H	0.235510	0.475387	0.922328
	H2316	H	0.149162	0.471377	0.855018
	H2317	H	0.213494	0.402375	0.840576
	H2318	H	0.161436	0.472501	0.339870
	H2319	H	0.225739	0.402812	0.354965
	H2320	H	0.161437	0.472744	0.840308
	H2321	H	0.225684	0.403326	0.854728
	H2322	H	0.149221	0.471411	0.354255
	H2323	H	0.213481	0.401477	0.341199
	H2324	H	0.161387	0.402219	0.590454
	H2325	H	0.223902	0.465096	0.909592
	H2326	H	0.151034	0.409753	0.910243
	H2327	H	0.213452	0.472953	0.590613
	H2328	H	0.149176	0.403668	0.605553
	H2329	H	0.211706	0.466344	0.895518
	H2330	H	0.163247	0.408795	0.895600
	H2331	H	0.225703	0.471750	0.604934
	Co2332	Co	0.249996	0.500140	0.655638
	Co2333	Co	0.187462	0.437841	0.594282
	Co2334	Co	0.124956	0.375279	0.906745
	Co2335	Co	0.187479	0.437063	0.844565
	C2336	C	0.136815	0.469330	0.944351
	C2337	C	0.200293	0.411886	0.901670
	C2338	C	0.175615	0.468351	0.555508
	C2339	C	0.237163	0.400378	0.598745
	C2340	C	0.174616	0.462636	0.900867
	C2341	C	0.238106	0.405176	0.943496
	C2342	C	0.137807	0.474625	0.599121
	C2343	C	0.199342	0.407271	0.556553
	C2344	C	0.174608	0.412406	0.650659
	C2345	C	0.238111	0.469797	0.693868
	C2346	C	0.137806	0.400435	0.849797
	C2347	C	0.199319	0.467812	0.806854
	C2348	C	0.136836	0.405236	0.694576
	C2349	C	0.200273	0.463343	0.651562
	C2350	C	0.175648	0.406839	0.805359
	C2351	C	0.237142	0.474729	0.848807
	C2352	C	0.141634	0.468542	1.017354
	C2353	C	0.204146	0.406216	0.483145
	C2354	C	0.170810	0.468916	0.982310
	C2355	C	0.233364	0.406271	0.516869
	C2356	C	0.170816	0.406216	0.732344
	C2357	C	0.233293	0.468956	0.767286
	C2358	C	0.141624	0.406237	0.767978
	C2359	C	0.204102	0.469013	0.733357
	C2360	C	0.149024	0.467683	1.008407
	C2361	C	0.211530	0.405243	0.491944
	C2362	C	0.163423	0.469826	0.991263
	C2363	C	0.225970	0.407221	0.508333
	C2364	C	0.163422	0.405289	0.741653
	C2365	C	0.225906	0.468135	0.758530
	C2366	C	0.148992	0.407114	0.759237
	C2367	C	0.211468	0.469993	0.741888
	C2368	C	0.152224	0.469998	0.919290
	C2369	C	0.215690	0.403994	0.911427
	C2370	C	0.159199	0.470887	0.410518
	C2371	C	0.222740	0.404491	0.419527
	C2372	C	0.159206	0.470995	0.910984
	C2373	C	0.222691	0.404668	0.919498
	C2374	C	0.152196	0.470069	0.419097
	C2375	C	0.215741	0.403684	0.411587
	C2376	C	0.159180	0.404032	0.661410
	C2377	C	0.221690	0.466814	0.838756
	C2378	C	0.153233	0.408325	0.839363
	C2379	C	0.215683	0.471282	0.661347
	C2380	C	0.152188	0.404905	0.670063
	C2381	C	0.214701	0.467609	0.830763
	C2382	C	0.160225	0.407661	0.831011
	C2383	C	0.222692	0.470467	0.669513
	N2384	N	0.130685	0.476627	0.979483
	N2385	N	0.193834	0.417183	0.924596
	N2386	N	0.181746	0.460938	0.520744
	N2387	N	0.243634	0.395238	0.575559
	N2388	N	0.181090	0.457553	0.923704
	N2389	N	0.244241	0.398115	0.978274
	N2390	N	0.131335	0.479745	0.576455
	N2391	N	0.193230	0.414680	0.521496
	N2392	N	0.181074	0.417507	0.673417
	N2393	N	0.244230	0.476953	0.728506
	N2394	N	0.131323	0.395286	0.826721
	N2395	N	0.193186	0.460553	0.772123
	N2396	N	0.130693	0.398127	0.729437
	N2397	N	0.193779	0.458035	0.674684
	N2398	N	0.181755	0.414202	0.770517
	N2399	N	0.243602	0.479750	0.825803
	H2400	H	0.137392	0.590419	0.369480
	H2401	H	0.201932	0.537719	0.327826
	H2402	H	0.175034	0.597596	0.131188
	H2403	H	0.235520	0.524634	0.172567
	H2404	H	0.173004	0.586595	0.327749
	H2405	H	0.237546	0.535217	0.368151
	H2406	H	0.139452	0.600516	0.172501
	H2407	H	0.199955	0.528129	0.131072
	H2408	H	0.172974	0.538682	0.077560
	H2409	H	0.237541	0.590090	0.120026
	H2410	H	0.139483	0.524894	0.423131
	H2411	H	0.199892	0.596964	0.381967
	H2412	H	0.137467	0.534223	0.119063
	H2413	H	0.201965	0.587015	0.078116
	H2414	H	0.175059	0.527423	0.380743
	H2415	H	0.235543	0.600869	0.423192
	H2416	H	0.149181	0.596618	0.355596
	H2417	H	0.211759	0.534177	0.644884
	H2418	H	0.161460	0.597991	-0.159116
	H2419	H	0.223944	0.535173	0.159912
	H2420	H	0.161396	0.597758	0.340383
	H2421	H	0.223980	0.535535	0.658987
	H2422	H	0.149213	0.596748	-0.144846
	H2423	H	0.211707	0.533935	0.145334
	H2424	H	0.161464	0.527069	0.090086
	H2425	H	0.225792	0.596607	0.106481
	H2426	H	0.151075	0.535003	0.409591
	H2427	H	0.211751	0.590846	0.396061
	H2428	H	0.149224	0.528405	0.104519
	H2429	H	0.213564	0.597583	0.091786
	H2430	H	0.163306	0.533982	0.394498
	H2431	H	0.223957	0.589919	0.410794
	Co2432	Co	0.249991	0.625168	0.156153
	Co2433	Co	0.187497	0.562924	0.094175
	Co2434	Co	0.124996	0.500418	0.406883
	Co2435	Co	0.187514	0.562314	0.344028
	C2436	C	0.136799	0.594758	0.444951
	C2437	C	0.200321	0.537056	0.400975
	C2438	C	0.175668	0.593184	0.055759
	C2439	C	0.237167	0.525383	0.099049
	C2440	C	0.174637	0.587498	0.400970
	C2441	C	0.238151	0.530797	0.443631
	C2442	C	0.137834	0.599523	0.099007
	C2443	C	0.199350	0.532359	0.055855
	C2444	C	0.174645	0.537545	0.150800
	C2445	C	0.238183	0.594458	0.195212
	C2446	C	0.137845	0.525578	0.349512
	C2447	C	0.199341	0.592890	0.306547
	C2448	C	0.136839	0.530282	0.194213
	C2449	C	0.200363	0.587983	0.151780
	C2450	C	0.175683	0.531725	0.305465
	C2451	C	0.237181	0.599731	0.350108
	C2452	C	0.141607	0.593798	0.517946
	C2453	C	0.204150	0.531423	-0.017158
	C2454	C	0.170818	0.593582	0.482525
	C2455	C	0.233321	0.531355	0.017712
	C2456	C	0.170863	0.531146	0.232481
	C2457	C	0.233370	0.593690	0.268442
	C2458	C	0.141659	0.531250	0.267569
	C2459	C	0.204168	0.593783	0.233517
	C2460	C	0.148997	0.592874	0.508887
	C2461	C	0.211521	0.530470	-0.008247
	C2462	C	0.163436	0.594535	0.491310
	C2463	C	0.225943	0.532365	0.008940
	C2464	C	0.163467	0.530106	0.241179
	C2465	C	0.225986	0.592849	0.259928
	C2466	C	0.149046	0.532077	0.258447
	C2467	C	0.211546	0.594679	0.242657
	C2468	C	0.152217	0.595281	0.419890
	C2469	C	0.214767	0.532848	0.580532
	C2470	C	0.159226	0.596177	-0.088469
	C2471	C	0.221733	0.533566	0.089136
	C2472	C	0.159209	0.595905	0.411280
	C2473	C	0.221760	0.533754	0.588366
	C2474	C	0.152244	0.595232	-0.080379
	C2475	C	0.214743	0.532798	0.080993
	C2476	C	0.159237	0.528799	0.160732
	C2477	C	0.222775	0.595284	0.171017
	C2478	C	0.153272	0.533335	0.338632
	C2479	C	0.214773	0.592384	0.331712
	C2480	C	0.152242	0.529659	0.169094
	C2481	C	0.215773	0.596076	0.162506
	C2482	C	0.160262	0.532580	0.330233
	C2483	C	0.221762	0.591541	0.340197
	N2484	N	0.130685	0.602088	0.479756
	N2485	N	0.193834	0.542152	0.424021
	N2486	N	0.181805	0.585933	0.020639
	N2487	N	0.243636	0.520364	0.075707
	N2488	N	0.181118	0.582460	0.423907
	N2489	N	0.244273	0.523432	0.478565
	N2490	N	0.131351	0.604694	0.076380
	N2491	N	0.193222	0.539653	0.021290
	N2492	N	0.181136	0.542672	0.174056
	N2493	N	0.244307	0.601825	0.229569
	N2494	N	0.131370	0.520453	0.326759
	N2495	N	0.193220	0.585722	0.271750
	N2496	N	0.130713	0.523052	0.229321
	N2497	N	0.193880	0.582876	0.174328
	N2498	N	0.181798	0.539258	0.270757
	N2499	N	0.243653	0.604913	0.326913
	H2500	H	0.137430	0.590159	0.869126
	H2501	H	0.201980	0.538223	0.827332
	H2502	H	0.175021	0.597280	0.630960
	H2503	H	0.235465	0.524608	0.671718
	H2504	H	0.172985	0.586407	0.827317
	H2505	H	0.237480	0.534523	0.869356
	H2506	H	0.139450	0.600616	0.673282
	H2507	H	0.199964	0.528443	0.631525
	H2508	H	0.172957	0.538487	0.577705
	H2509	H	0.237502	0.590400	0.619433
	H2510	H	0.139421	0.524255	0.923178
	H2511	H	0.199984	0.597046	0.881780
	H2512	H	0.137394	0.534737	0.619336
	H2513	H	0.201993	0.587226	0.577753
	H2514	H	0.175051	0.527810	0.881365
	H2515	H	0.235499	0.600888	0.923637
	H2516	H	0.151027	0.589488	1.159866
	H2517	H	0.213535	0.527636	0.840605
	H2518	H	0.163229	0.591133	0.644933
	H2519	H	0.225728	0.528577	0.354473
	H2520	H	0.163248	0.590388	1.145009
	H2521	H	0.225724	0.529024	0.854883
	H2522	H	0.151012	0.589916	0.659687
	H2523	H	0.213519	0.527380	0.340586
	H2524	H	0.161409	0.527350	0.590911
	H2525	H	0.225750	0.596533	0.605468
	H2526	H	0.151025	0.535350	0.910208
	H2527	H	0.211700	0.591464	0.895934
	H2528	H	0.149207	0.528358	0.605358
	H2529	H	0.213496	0.597644	0.590891
	H2530	H	0.163228	0.534104	0.895423
	H2531	H	0.223949	0.590267	0.910162
	Co2532	Co	0.249990	0.624635	0.656252
	Co2533	Co	0.187469	0.562604	0.594531
	Co2534	Co	0.124964	0.499968	0.906746
	Co2535	Co	0.187454	0.562419	0.844015
	C2536	C	0.136830	0.594447	0.944246
	C2537	C	0.200346	0.537421	0.901359
	C2538	C	0.175634	0.592946	0.555834
	C2539	C	0.237134	0.525509	0.598392
	C2540	C	0.174643	0.587624	0.901006
	C2541	C	0.238130	0.530500	0.944159
	C2542	C	0.137822	0.599821	0.599704
	C2543	C	0.199336	0.532228	0.555914
	C2544	C	0.174597	0.537309	0.651405
	C2545	C	0.238125	0.594597	0.694743
	C2546	C	0.137816	0.525139	0.849573
	C2547	C	0.199320	0.593023	0.806376
	C2548	C	0.136794	0.530416	0.694896
	C2549	C	0.200295	0.588117	0.651244
	C2550	C	0.175631	0.531946	0.806072
	C2551	C	0.237126	0.599807	0.849516
	C2552	C	0.141632	0.593615	1.017368
	C2553	C	0.204140	0.531311	0.482787
	C2554	C	0.170843	0.593661	0.982729
	C2555	C	0.233334	0.531552	0.516829
	C2556	C	0.170817	0.531296	0.733125
	C2557	C	0.233301	0.593957	0.767721
	C2558	C	0.141606	0.531181	0.768056
	C2559	C	0.204118	0.593950	0.732932
	C2560	C	0.149014	0.592745	1.008634
	C2561	C	0.211536	0.530379	0.491592
	C2562	C	0.163447	0.594629	0.991577
	C2563	C	0.225956	0.532413	0.508046
	C2564	C	0.163427	0.530358	0.742029
	C2565	C	0.225921	0.593115	0.758851
	C2566	C	0.148991	0.532175	0.759289
	C2567	C	0.211500	0.594936	0.741924
	C2568	C	0.153245	0.591266	1.088977
	C2569	C	0.215755	0.529233	0.911379
	C2570	C	0.160222	0.592337	0.580358
	C2571	C	0.222735	0.529879	0.419143
	C2572	C	0.160236	0.592003	1.080535
	C2573	C	0.222747	0.530072	0.919798
	C2574	C	0.153230	0.591590	0.589111
	C2575	C	0.215751	0.529009	0.411119
	C2576	C	0.159194	0.529059	0.661635
	C2577	C	0.222709	0.595340	0.669813
	C2578	C	0.153220	0.533604	0.839418
	C2579	C	0.214702	0.592754	0.831200
	C2580	C	0.152207	0.529763	0.670083
	C2581	C	0.215721	0.596089	0.661645
	C2582	C	0.160205	0.532776	0.831016
	C2583	C	0.221703	0.591932	0.839464
	N2584	N	0.130705	0.601730	0.978929
	N2585	N	0.193863	0.542582	0.924203
	N2586	N	0.181769	0.585658	0.521096
	N2587	N	0.243621	0.520340	0.575539
	N2588	N	0.181131	0.582665	0.923901
	N2589	N	0.244266	0.523288	0.978528
	N2590	N	0.131342	0.605008	0.576839
	N2591	N	0.193211	0.539390	0.521269
	N2592	N	0.181089	0.542371	0.674051
	N2593	N	0.244255	0.601627	0.729415
	N2594	N	0.131329	0.520173	0.826966
	N2595	N	0.193193	0.585676	0.771452
	N2596	N	0.130663	0.523114	0.729648
	N2597	N	0.193827	0.582864	0.674238
	N2598	N	0.181752	0.539262	0.771197
	N2599	N	0.243614	0.604734	0.826583
	H2600	H	0.137393	0.715193	0.368987
	H2601	H	0.202013	0.663527	0.327669
	H2602	H	0.174998	0.722417	0.131029
	H2603	H	0.235493	0.649162	0.172888
	H2604	H	0.173002	0.712014	0.327926
	H2605	H	0.237581	0.659999	0.369640
	H2606	H	0.139471	0.725564	0.172189
	H2607	H	0.199940	0.652816	0.131509
	H2608	H	0.173028	0.663655	0.078383
	H2609	H	0.237514	0.715026	0.119431
	H2610	H	0.139527	0.649763	0.423244
	H2611	H	0.199925	0.722554	0.380808
	H2612	H	0.137489	0.659760	0.119115
	H2613	H	0.201979	0.711843	0.077980
	H2614	H	0.175111	0.652777	0.381414
	H2615	H	0.235472	0.726151	0.422682
	H2616	H	0.149226	0.721903	0.355482
	H2617	H	0.213536	0.652715	0.341283
	H2618	H	0.163270	0.715461	0.144852
	H2619	H	0.223951	0.659957	0.159322
	H2620	H	0.161470	0.723130	0.340691
	H2621	H	0.225787	0.653738	0.355394
	H2622	H	0.151025	0.714008	0.159260
	H2623	H	0.211708	0.658816	0.144911
	H2624	H	0.161459	0.652055	0.090862
	H2625	H	0.223936	0.714858	0.410109
	H2626	H	0.151014	0.660310	0.409629
	H2627	H	0.213528	0.722953	0.090970
	H2628	H	0.149215	0.653088	0.105498
	H2629	H	0.211701	0.715998	0.395459
	H2630	H	0.163269	0.659174	0.395364
	H2631	H	0.225779	0.721486	0.105747
	Co2632	Co	0.249991	0.749830	0.156015
	Co2633	Co	0.187487	0.687695	0.094444
	Co2634	Co	0.124993	0.625450	0.406784
	Co2635	Co	0.187541	0.687604	0.344196
	C2636	C	0.136818	0.719480	0.444587
	C2637	C	0.200375	0.662510	0.401320
	C2638	C	0.175667	0.718015	0.055621
	C2639	C	0.237107	0.650289	0.099147
	C2640	C	0.174640	0.712828	0.401121
	C2641	C	0.238178	0.655569	0.444575
	C2642	C	0.137843	0.724693	0.099001
	C2643	C	0.199343	0.657087	0.056042
	C2644	C	0.174650	0.662463	0.151426
	C2645	C	0.238134	0.719413	0.194722
	C2646	C	0.137840	0.650584	0.349831
	C2647	C	0.199325	0.718456	0.305775
	C2648	C	0.136827	0.655625	0.194601
	C2649	C	0.200358	0.712842	0.151159
	C2650	C	0.175680	0.656976	0.306218
	C2651	C	0.237136	0.724998	0.349304
	C2652	C	0.141654	0.718775	0.517651
	C2653	C	0.204114	0.656316	-0.017234
	C2654	C	0.170849	0.718891	0.482931
	C2655	C	0.233332	0.656253	0.017438
	C2656	C	0.170855	0.656347	0.233155
	C2657	C	0.233338	0.718831	0.267819
	C2658	C	0.141641	0.656432	0.267933
	C2659	C	0.204146	0.719002	0.232830
	C2660	C	0.149033	0.717821	0.508717
	C2661	C	0.211516	0.655299	-0.008586
	C2662	C	0.163459	0.719824	0.491626
	C2663	C	0.225922	0.657248	0.008490
	C2664	C	0.163478	0.655293	0.241927
	C2665	C	0.225937	0.717846	0.259160
	C2666	C	0.149039	0.657204	0.258923
	C2667	C	0.211537	0.719904	0.241908
	C2668	C	0.152256	0.720535	0.419817
	C2669	C	0.215774	0.654317	0.411825
	C2670	C	0.160251	0.717015	0.080430
	C2671	C	0.221708	0.658297	0.088866
	C2672	C	0.159249	0.721301	0.411371
	C2673	C	0.222768	0.654976	0.419902
	C2674	C	0.153249	0.716168	0.088744
	C2675	C	0.214740	0.657516	0.080601
	C2676	C	0.159239	0.653844	0.161621
	C2677	C	0.221721	0.716600	0.339546
	C2678	C	0.153256	0.658532	0.339136
	C2679	C	0.215759	0.721223	0.161617
	C2680	C	0.152241	0.654657	0.169868
	C2681	C	0.214740	0.717402	0.331054
	C2682	C	0.160255	0.657710	0.330890
	C2683	C	0.222739	0.720153	0.169958
	N2684	N	0.130710	0.726774	0.479548
	N2685	N	0.193888	0.667437	0.424056
	N2686	N	0.181785	0.710798	0.020647
	N2687	N	0.243600	0.645126	0.076190
	N2688	N	0.181121	0.707613	0.424052
	N2689	N	0.244308	0.648180	0.479502
	N2690	N	0.131363	0.729736	0.075974
	N2691	N	0.193202	0.664370	0.021605
	N2692	N	0.181128	0.667585	0.174181
	N2693	N	0.244259	0.726793	0.229464
	N2694	N	0.131352	0.645465	0.326739
	N2695	N	0.193190	0.710996	0.271080
	N2696	N	0.130698	0.648361	0.229768
	N2697	N	0.193856	0.707809	0.174166
	N2698	N	0.181799	0.664374	0.271528
	N2699	N	0.243620	0.729990	0.326433
	H2700	H	0.137480	0.715196	0.868657
	H2701	H	0.201970	0.663261	0.827832
	H2702	H	0.175012	0.721978	0.631479
	H2703	H	0.235522	0.649150	0.672503
	H2704	H	0.172965	0.711779	0.827099
	H2705	H	0.237542	0.659617	0.868566
	H2706	H	0.139475	0.725875	0.673495
	H2707	H	0.199912	0.652867	0.631370
	H2708	H	0.172956	0.663228	0.576985
	H2709	H	0.237505	0.714800	0.620000
	H2710	H	0.139452	0.649319	0.922321
	H2711	H	0.199833	0.722464	0.880862
	H2712	H	0.137379	0.659791	0.619184
	H2713	H	0.201936	0.711605	0.577283
	H2714	H	0.175012	0.652797	0.880843
	H2715	H	0.235422	0.726085	0.922934
	H2716	H	0.149206	0.721955	0.854894
	H2717	H	0.213519	0.652445	0.840317
	H2718	H	0.163268	0.715673	0.645062
	H2719	H	0.223993	0.660287	0.659935
	H2720	H	0.161452	0.723272	0.840288
	H2721	H	0.225777	0.653729	0.855200
	H2722	H	0.151002	0.714202	0.659345
	H2723	H	0.211735	0.659325	0.645342
	H2724	H	0.161382	0.651910	0.590416
	H2725	H	0.225746	0.721761	0.605468
	H2726	H	0.150971	0.660609	0.909114
	H2727	H	0.211643	0.715917	0.895037
	H2728	H	0.149112	0.653089	0.605116
	H2729	H	0.213527	0.722682	0.590465
	H2730	H	0.163200	0.659445	0.894627
	H2731	H	0.223877	0.715058	0.910130
	Co2732	Co	0.250011	0.749622	0.655885
	Co2733	Co	0.187468	0.687388	0.593949
	Co2734	Co	0.124963	0.624981	0.906475
	Co2735	Co	0.187479	0.687473	0.844076
	C2736	C	0.136840	0.719348	0.943920
	C2737	C	0.200337	0.662314	0.901219
	C2738	C	0.175662	0.718048	0.556294
	C2739	C	0.237155	0.650014	0.599216
	C2740	C	0.174642	0.712703	0.900457
	C2741	C	0.238119	0.655433	0.944148
	C2742	C	0.137852	0.724834	0.599396
	C2743	C	0.199328	0.656940	0.556026
	C2744	C	0.174593	0.662242	0.650939
	C2745	C	0.238113	0.719291	0.694950
	C2746	C	0.137814	0.650290	0.849210
	C2747	C	0.199268	0.718102	0.805660
	C2748	C	0.136773	0.655587	0.694203
	C2749	C	0.200294	0.712740	0.650956
	C2750	C	0.175608	0.656887	0.805672
	C2751	C	0.237089	0.724989	0.849663
	C2752	C	0.141663	0.718720	1.017128
	C2753	C	0.204170	0.656431	0.483187
	C2754	C	0.170827	0.718780	0.982278
	C2755	C	0.233371	0.656222	0.517781
	C2756	C	0.170804	0.656236	0.732500
	C2757	C	0.233290	0.718929	0.768047
	C2758	C	0.141577	0.656373	0.767380
	C2759	C	0.204095	0.718842	0.732487
	C2760	C	0.149028	0.717810	1.008332
	C2761	C	0.211558	0.655615	0.492172
	C2762	C	0.163444	0.719700	0.991340
	C2763	C	0.225985	0.657292	0.509045
	C2764	C	0.163409	0.655305	0.741262
	C2765	C	0.225900	0.718061	0.759006
	C2766	C	0.148971	0.657291	0.758393
	C2767	C	0.211479	0.719807	0.741521
	C2768	C	0.152230	0.720538	0.919278
	C2769	C	0.215739	0.654135	0.910809
	C2770	C	0.160239	0.717172	0.580659
	C2771	C	0.221760	0.658678	0.589345
	C2772	C	0.159234	0.721328	0.910946
	C2773	C	0.222714	0.654992	0.919214
	C2774	C	0.153244	0.716260	0.588925
	C2775	C	0.214770	0.657985	0.581096
	C2776	C	0.159162	0.653796	0.661080
	C2777	C	0.222714	0.720280	0.669694
	C2778	C	0.153200	0.658762	0.838539
	C2779	C	0.214672	0.717455	0.830797
	C2780	C	0.152172	0.654628	0.669287
	C2781	C	0.215723	0.721031	0.661347
	C2782	C	0.160184	0.657871	0.830270
	C2783	C	0.221666	0.716671	0.839285
	N2784	N	0.130707	0.726662	0.978760
	N2785	N	0.193838	0.667423	0.924188
	N2786	N	0.181787	0.710677	0.521190
	N2787	N	0.243643	0.644976	0.576562
	N2788	N	0.181109	0.707638	0.923527
	N2789	N	0.244250	0.648155	0.979116
	N2790	N	0.131389	0.729932	0.576665
	N2791	N	0.193224	0.664299	0.521086
	N2792	N	0.181083	0.667270	0.673632
	N2793	N	0.244251	0.726539	0.729686
	N2794	N	0.131326	0.645153	0.826330
	N2795	N	0.193158	0.710698	0.771021
	N2796	N	0.130657	0.648192	0.729429
	N2797	N	0.193832	0.707506	0.673867
	N2798	N	0.181736	0.664238	0.771122
	N2799	N	0.243599	0.729813	0.826802
	H2800	H	0.137419	0.839631	0.369771
	H2801	H	0.202018	0.788387	0.326833
	H2802	H	0.174972	0.846632	0.131319
	H2803	H	0.235512	0.774227	0.172917
	H2804	H	0.173005	0.836600	0.327429
	H2805	H	0.237623	0.784739	0.368786
	H2806	H	0.139437	0.850509	0.173288
	H2807	H	0.199895	0.777598	0.130102
	H2808	H	0.173007	0.787925	0.077794
	H2809	H	0.237572	0.839885	0.119063
	H2810	H	0.139465	0.774257	0.423298
	H2811	H	0.199920	0.847387	0.380865
	H2812	H	0.137500	0.784386	0.120041
	H2813	H	0.201967	0.836874	0.077366
	H2814	H	0.175050	0.777849	0.381227
	H2815	H	0.235474	0.851091	0.422348
	H2816	H	0.149238	0.846918	0.355647
	H2817	H	0.213568	0.777715	0.340052
	H2818	H	0.163204	0.840490	0.145214
	H2819	H	0.223905	0.785134	0.160077
	H2820	H	0.161439	0.848287	0.341325
	H2821	H	0.225787	0.779005	0.354902
	H2822	H	0.150965	0.839485	0.159767
	H2823	H	0.211693	0.784010	0.144701
	H2824	H	0.163309	0.783985	0.395304
	H2825	H	0.223925	0.839845	0.409523
	H2826	H	0.149214	0.777948	0.105409
	H2827	H	0.213518	0.847911	0.090352
	H2828	H	0.151080	0.785139	0.410237
	H2829	H	0.211691	0.840909	0.395087
	H2830	H	0.161468	0.776976	0.090671
	H2831	H	0.225737	0.846594	0.104988
	Co2832	Co	0.249986	0.875068	0.155543
	Co2833	Co	0.187479	0.812558	0.093714
	Co2834	Co	0.124990	0.750028	0.406275
	Co2835	Co	0.187503	0.812479	0.343885
	C2836	C	0.136839	0.844059	0.444756
	C2837	C	0.200396	0.787286	0.400293
	C2838	C	0.175599	0.842720	0.055736
	C2839	C	0.237119	0.775254	0.099140
	C2840	C	0.174635	0.837566	0.401357
	C2841	C	0.238196	0.780634	0.444321
	C2842	C	0.137815	0.849767	0.099614
	C2843	C	0.199295	0.781964	0.055123
	C2844	C	0.174622	0.787002	0.151214
	C2845	C	0.238136	0.844416	0.194063
	C2846	C	0.137858	0.775271	0.349855
	C2847	C	0.199303	0.843194	0.305674
	C2848	C	0.136877	0.780227	0.195087
	C2849	C	0.200320	0.837920	0.150944
	C2850	C	0.175630	0.781931	0.305994
	C2851	C	0.237105	0.849889	0.348739
	C2852	C	0.141647	0.843445	0.517937
	C2853	C	0.204109	0.781248	-0.017891
	C2854	C	0.170849	0.843591	0.482968
	C2855	C	0.233329	0.781339	0.017809
	C2856	C	0.170844	0.781089	0.232726
	C2857	C	0.233311	0.843825	0.267195
	C2858	C	0.141657	0.781168	0.268177
	C2859	C	0.204115	0.843947	0.232625
	C2860	C	0.149036	0.842659	0.509017
	C2861	C	0.211513	0.780287	-0.008614
	C2862	C	0.163453	0.844583	0.491988
	C2863	C	0.225945	0.782201	0.009092
	C2864	C	0.163456	0.780179	0.241656
	C2865	C	0.225923	0.842970	0.258464
	C2866	C	0.149052	0.782080	0.258981
	C2867	C	0.211503	0.844877	0.241463
	C2868	C	0.152247	0.845326	0.420116
	C2869	C	0.215787	0.779360	0.410766
	C2870	C	0.160193	0.841953	0.080669
	C2871	C	0.221705	0.783509	0.089232
	C2872	C	0.159228	0.846244	0.411884
	C2873	C	0.222753	0.780290	0.419261
	C2874	C	0.153206	0.841199	0.089327
	C2875	C	0.214730	0.782577	0.080501
	C2876	C	0.160263	0.782538	0.331112
	C2877	C	0.221703	0.841675	0.338932
	C2878	C	0.152252	0.779562	0.169799
	C2879	C	0.215728	0.846131	0.161093
	C2880	C	0.153290	0.783376	0.339410
	C2881	C	0.214715	0.842467	0.330703
	C2882	C	0.159234	0.778746	0.161348
	C2883	C	0.222711	0.845229	0.169358
	N2884	N	0.130721	0.851605	0.479600
	N2885	N	0.193898	0.792291	0.423208
	N2886	N	0.181742	0.835686	0.020865
	N2887	N	0.243596	0.770181	0.076489
	N2888	N	0.181118	0.832508	0.423828
	N2889	N	0.244326	0.773184	0.479272
	N2890	N	0.131345	0.854986	0.076702
	N2891	N	0.193171	0.789348	0.020425
	N2892	N	0.181119	0.792191	0.174007
	N2893	N	0.244263	0.851800	0.228721
	N2894	N	0.131362	0.770162	0.326780
	N2895	N	0.193186	0.835803	0.270840
	N2896	N	0.130733	0.773038	0.229375
	N2897	N	0.193833	0.832830	0.173652
	N2898	N	0.181769	0.789226	0.270952
	N2899	N	0.243586	0.854977	0.325818
	H2900	H	0.137381	0.840259	0.869424
	H2901	H	0.202009	0.788307	0.827223
	H2902	H	0.175087	0.847116	0.630907
	H2903	H	0.235523	0.774268	0.672081
	H2904	H	0.172966	0.836813	0.827500
	H2905	H	0.237584	0.785054	0.869197
	H2906	H	0.139536	0.850698	0.672983
	H2907	H	0.199932	0.777445	0.630065
	H2908	H	0.173013	0.787959	0.577492
	H2909	H	0.237474	0.840268	0.619165
	H2910	H	0.139493	0.774517	0.923289
	H2911	H	0.199876	0.847529	0.881043
	H2912	H	0.137507	0.784587	0.619062
	H2913	H	0.201970	0.836626	0.577897
	H2914	H	0.175073	0.778087	0.881212
	H2915	H	0.235437	0.850886	0.922504
	H2916	H	0.149144	0.846481	0.855828
	H2917	H	0.213533	0.777638	0.840404
	H2918	H	0.163281	0.840107	0.645008
	H2919	H	0.223957	0.784868	0.659366
	H2920	H	0.161371	0.847339	0.840458
	H2921	H	0.225768	0.778508	0.855419
	H2922	H	0.151006	0.839179	0.659549
	H2923	H	0.211695	0.783626	0.644434
	H2924	H	0.161471	0.777110	0.590615
	H2925	H	0.225771	0.846694	0.604917
	H2926	H	0.151060	0.785243	0.909829
	H2927	H	0.211703	0.841160	0.894737
	H2928	H	0.149191	0.777985	0.605549
	H2929	H	0.213517	0.847501	0.590312
	H2930	H	0.163264	0.784321	0.895416
	H2931	H	0.223921	0.839772	0.909438
	Co2932	Co	0.249981	0.874871	0.655762
	Co2933	Co	0.187487	0.812174	0.593776
	Co2934	Co	0.125010	0.750124	0.906115
	Co2935	Co	0.187484	0.812616	0.843881
	C2936	C	0.136787	0.844480	0.944607
	C2937	C	0.200333	0.787423	0.900476
	C2938	C	0.175674	0.842859	0.555845
	C2939	C	0.237165	0.775264	0.599016
	C2940	C	0.174600	0.837652	0.900847
	C2941	C	0.238135	0.780729	0.944584
	C2942	C	0.137876	0.849665	0.599602
	C2943	C	0.199358	0.781742	0.554722
	C2944	C	0.174664	0.787131	0.650930
	C2945	C	0.238137	0.844605	0.694312
	C2946	C	0.137835	0.775493	0.849617
	C2947	C	0.199271	0.843193	0.805662
	C2948	C	0.136834	0.780486	0.694334
	C2949	C	0.200299	0.837584	0.650975
	C2950	C	0.175677	0.781888	0.805670
	C2951	C	0.237124	0.849958	0.849224
	C2952	C	0.141597	0.843661	1.017941
	C2953	C	0.204158	0.781201	0.481833
	C2954	C	0.170785	0.843367	0.982696
	C2955	C	0.233402	0.781361	0.517355
	C2956	C	0.170850	0.781150	0.732428
	C2957	C	0.233313	0.843872	0.767421
	C2958	C	0.141662	0.781221	0.767604
	C2959	C	0.204127	0.843784	0.732454
	C2960	C	0.148992	0.842655	1.008999
	C2961	C	0.211560	0.780405	0.490923
	C2962	C	0.163402	0.844273	0.991640
	C2963	C	0.225977	0.782347	0.508469
	C2964	C	0.163477	0.780314	0.741523
	C2965	C	0.225934	0.842876	0.758378
	C2966	C	0.149056	0.782017	0.758698
	C2967	C	0.211503	0.844642	0.741199
	C2968	C	0.152197	0.845048	0.919807
	C2969	C	0.215748	0.779098	0.911140
	C2970	C	0.160243	0.841875	0.580989
	C2971	C	0.221733	0.783374	0.588712
	C2972	C	0.159181	0.845745	0.911369
	C2973	C	0.222737	0.779933	0.919757
	C2974	C	0.153257	0.841131	0.589340
	C2975	C	0.214751	0.782535	0.580235
	C2976	C	0.159248	0.778766	0.661295
	C2977	C	0.222729	0.845180	0.669194
	C2978	C	0.153270	0.783488	0.839069
	C2979	C	0.214707	0.842386	0.830274
	C2980	C	0.152242	0.779489	0.669602
	C2981	C	0.215727	0.845880	0.660892
	C2982	C	0.160263	0.782826	0.830663
	C2983	C	0.221712	0.841475	0.838653
	N2984	N	0.130684	0.851914	0.979564
	N2985	N	0.193830	0.792460	0.923321
	N2986	N	0.181791	0.835535	0.521002
	N2987	N	0.243672	0.770038	0.576243
	N2988	N	0.181103	0.832709	0.923616
	N2989	N	0.244259	0.773385	0.979174
	N2990	N	0.131384	0.854880	0.576591
	N2991	N	0.193229	0.789061	0.520094
	N2992	N	0.181148	0.792138	0.673674
	N2993	N	0.244259	0.851873	0.729278
	N2994	N	0.131340	0.770538	0.826528
	N2995	N	0.193160	0.835855	0.770867
	N2996	N	0.130701	0.773435	0.729434
	N2997	N	0.193827	0.832504	0.673881
	N2998	N	0.181804	0.789196	0.770986
	N2999	N	0.243605	0.855011	0.826303
	H3000	H	0.137464	0.965431	0.369713
	H3001	H	0.201983	0.913110	0.327750
	H3002	H	0.175008	0.972150	0.130753
	H3003	H	0.235489	0.899237	0.172162
	H3004	H	0.172957	0.961781	0.327968
	H3005	H	0.237573	0.909881	0.368603
	H3006	H	0.139523	0.976173	0.173220
	H3007	H	0.199879	0.902625	0.131397
	H3008	H	0.173002	0.912982	0.077609
	H3009	H	0.237576	0.965103	0.118660
	H3010	H	0.139502	0.898879	0.422880
	H3011	H	0.199902	0.972289	0.379776
	H3012	H	0.137455	0.909945	0.119565
	H3013	H	0.201916	0.961972	0.076607
	H3014	H	0.175017	0.902582	0.380910
	H3015	H	0.235487	0.975813	0.421775
	H3016	H	0.151042	0.964553	0.660158
	H3017	H	0.211743	0.909136	0.644921
	H3018	H	0.163294	0.966069	0.145188
	H3019	H	0.225775	0.903136	-0.144753
	H3020	H	0.163292	0.965499	0.645105
	H3021	H	0.223973	0.910553	0.659371
	H3022	H	0.151044	0.964473	0.160186
	H3023	H	0.213503	0.902057	-0.158931
	H3024	H	0.163272	0.909541	0.394436
	H3025	H	0.223907	0.965051	0.409138
	H3026	H	0.149173	0.902859	0.105206
	H3027	H	0.213516	0.972623	0.089962
	H3028	H	0.151056	0.910654	0.409367
	H3029	H	0.211676	0.966329	0.394368
	H3030	H	0.161422	0.901653	0.090012
	H3031	H	0.225726	0.970836	0.104538
	Co3032	Co	0.249961	0.999718	0.155755
	Co3033	Co	0.187450	0.937309	0.093915
	Co3034	Co	0.124984	0.874743	0.406309
	Co3035	Co	0.187474	0.937375	0.343703
	C3036	C	0.136853	0.969558	0.444883
	C3037	C	0.200343	0.912221	0.400816
	C3038	C	0.175644	0.968032	0.055804
	C3039	C	0.237146	0.900190	0.098911
	C3040	C	0.174645	0.962667	0.401014
	C3041	C	0.238154	0.905601	0.444187
	C3042	C	0.137841	0.975219	0.100001
	C3043	C	0.199296	0.906895	0.055843
	C3044	C	0.174647	0.911947	0.150481
	C3045	C	0.238123	0.969316	0.193982
	C3046	C	0.137864	0.900102	0.349556
	C3047	C	0.199286	0.968057	0.304758
	C3048	C	0.136813	0.905717	0.194772
	C3049	C	0.200288	0.962761	0.150165
	C3050	C	0.175648	0.906814	0.305700
	C3051	C	0.237095	0.974758	0.348395
	C3052	C	0.141665	0.968767	0.518360
	C3053	C	0.204144	0.906186	-0.017090
	C3054	C	0.170837	0.968612	0.482902
	C3055	C	0.233319	0.906255	0.017329
	C3056	C	0.170831	0.905999	0.232254
	C3057	C	0.233303	0.968670	0.267002
	C3058	C	0.141651	0.906246	0.267773
	C3059	C	0.204093	0.968860	0.231608
	C3060	C	0.149039	0.967849	0.509299
	C3061	C	0.211519	0.905202	-0.008117
	C3062	C	0.163465	0.969586	0.492033
	C3063	C	0.225944	0.907026	0.008694
	C3064	C	0.163441	0.905127	0.240992
	C3065	C	0.225923	0.967751	0.258149
	C3066	C	0.149030	0.907115	0.258540
	C3067	C	0.211492	0.969774	0.240759
	C3068	C	0.153262	0.966353	0.589473
	C3069	C	0.214754	0.907725	0.580449
	C3070	C	0.160239	0.967252	0.080933
	C3071	C	0.222745	0.904685	-0.080443
	C3072	C	0.160262	0.967095	0.581013
	C3073	C	0.221747	0.908585	0.588826
	C3074	C	0.153234	0.966400	0.089409
	C3075	C	0.215739	0.903926	-0.088408
	C3076	C	0.160253	0.907731	0.330169
	C3077	C	0.221692	0.966712	0.338391
	C3078	C	0.152220	0.904491	0.169295
	C3079	C	0.215727	0.970823	0.160592
	C3080	C	0.153262	0.908621	0.338711
	C3081	C	0.214701	0.967413	0.329892
	C3082	C	0.159210	0.903671	0.160660
	C3083	C	0.222708	0.969901	0.169029
	N3084	N	0.130739	0.976903	0.479737
	N3085	N	0.193865	0.917403	0.423613
	N3086	N	0.181737	0.960608	0.020966
	N3087	N	0.243623	0.895304	0.075885
	N3088	N	0.181134	0.957691	0.423665
	N3089	N	0.244273	0.898196	0.478934
	N3090	N	0.131360	0.980272	0.077305
	N3091	N	0.193183	0.914251	0.020825
	N3092	N	0.181123	0.917078	0.173724
	N3093	N	0.244244	0.976590	0.228639
	N3094	N	0.131376	0.895065	0.326873
	N3095	N	0.193163	0.960660	0.270311
	N3096	N	0.130710	0.898314	0.229723
	N3097	N	0.193806	0.957588	0.173236
	N3098	N	0.181769	0.914144	0.270912
	N3099	N	0.243590	0.979820	0.325781
	H3100	H	0.137402	0.965128	0.869904
	H3101	H	0.202001	0.913416	0.827419
	H3102	H	0.175058	0.972317	0.631138
	H3103	H	0.235512	0.899445	0.672541
	H3104	H	0.173012	0.962108	0.827120
	H3105	H	0.237473	0.910008	0.869152
	H3106	H	0.139482	0.975470	0.673630
	H3107	H	0.199954	0.902906	0.630743
	H3108	H	0.172999	0.912925	0.576840
	H3109	H	0.237557	0.965501	0.618654
	H3110	H	0.139568	0.899132	0.922492
	H3111	H	0.199983	0.972132	0.880946
	H3112	H	0.137472	0.909923	0.619401
	H3113	H	0.201979	0.962150	0.577035
	H3114	H	0.175079	0.902797	0.881247
	H3115	H	0.235503	0.975822	0.922133
	H3116	H	0.149219	0.971836	0.855561
	H3117	H	0.211711	0.909072	1.145306
	H3118	H	0.161441	0.973081	0.341039
	H3119	H	0.225813	0.903844	0.355595
	H3120	H	0.161416	0.972993	0.841088
	H3121	H	0.223935	0.910155	1.159837
	H3122	H	0.149230	0.971678	0.355727
	H3123	H	0.213565	0.902360	0.340640
	H3124	H	0.161507	0.901720	0.590575
	H3125	H	0.225782	0.971719	0.604451
	H3126	H	0.151119	0.910465	0.909509
	H3127	H	0.211751	0.965982	0.894298
	H3128	H	0.149298	0.903160	0.605147
	H3129	H	0.213542	0.972936	0.590002
	H3130	H	0.163328	0.909152	0.895088
	H3131	H	0.223973	0.964755	0.909125
	Co3132	Co	0.250035	1.000231	0.655666
	Co3133	Co	0.187522	0.937627	0.594042
	Co3134	Co	0.125017	0.875223	0.906640
	Co3135	Co	0.187517	0.937655	0.843721
	C3136	C	0.136791	0.969463	0.945289
	C3137	C	0.200331	0.912252	0.901132
	C3138	C	0.175689	0.967958	0.555886
	C3139	C	0.237126	0.900273	0.598903
	C3140	C	0.174626	0.962778	0.900956
	C3141	C	0.238130	0.905656	0.944039
	C3142	C	0.137846	0.974806	0.599981
	C3143	C	0.199336	0.906922	0.555693
	C3144	C	0.174691	0.912203	0.650870
	C3145	C	0.238194	0.969683	0.693871
	C3146	C	0.137917	0.900240	0.849109
	C3147	C	0.199366	0.968236	0.805503
	C3148	C	0.136883	0.905581	0.694254
	C3149	C	0.200363	0.962944	0.650495
	C3150	C	0.175719	0.906897	0.805685
	C3151	C	0.237167	0.974878	0.848680
	C3152	C	0.141634	0.968873	1.018398
	C3153	C	0.204149	0.906173	0.482400
	C3154	C	0.170810	0.968902	0.982782
	C3155	C	0.233342	0.906428	0.517156
	C3156	C	0.170902	0.906026	0.732522
	C3157	C	0.233366	0.968845	0.767052
	C3158	C	0.141717	0.906284	0.767349
	C3159	C	0.204169	0.968870	0.732202
	C3160	C	0.148996	0.967815	1.009382
	C3161	C	0.211545	0.905300	0.491360
	C3162	C	0.163432	0.969733	0.991814
	C3163	C	0.225964	0.907376	0.508456
	C3164	C	0.163521	0.905017	0.741572
	C3165	C	0.225982	0.967845	0.758073
	C3166	C	0.149089	0.907087	0.758570
	C3167	C	0.211549	0.969731	0.741031
	C3168	C	0.152200	0.970410	0.920297
	C3169	C	0.214737	0.907552	1.080910
	C3170	C	0.159244	0.971142	0.411844
	C3171	C	0.222757	0.905053	0.419604
	C3172	C	0.159197	0.971084	0.911638
	C3173	C	0.221730	0.908353	1.089141
	C3174	C	0.152244	0.970290	0.420232
	C3175	C	0.215771	0.904127	0.411236
	C3176	C	0.159301	0.903689	0.661427
	C3177	C	0.222767	0.970336	0.668836
	C3178	C	0.153315	0.908456	0.838740
	C3179	C	0.214771	0.967272	0.829937
	C3180	C	0.152311	0.904597	0.669610
	C3181	C	0.215776	0.971208	0.660670
	C3182	C	0.160314	0.907583	0.830542
	C3183	C	0.221767	0.966527	0.838376
	N3184	N	0.130673	0.976923	0.980057
	N3185	N	0.193856	0.917450	0.923827
	N3186	N	0.181797	0.960746	0.520798
	N3187	N	0.243615	0.895132	0.576027
	N3188	N	0.181082	0.957516	0.924012
	N3189	N	0.244250	0.898399	0.978541
	N3190	N	0.131372	0.979912	0.576970
	N3191	N	0.193224	0.914435	0.520955
	N3192	N	0.181160	0.917354	0.673542
	N3193	N	0.244305	0.976971	0.728636
	N3194	N	0.131426	0.895208	0.826399
	N3195	N	0.193231	0.960935	0.770923
	N3196	N	0.130764	0.898297	0.729227
	N3197	N	0.193865	0.957910	0.673576
	N3198	N	0.181806	0.914400	0.770733
	N3199	N	0.243630	0.980048	0.825858
	H3200	H	0.262480	0.090585	0.368290
	H3201	H	0.326960	0.038056	0.327748
	H3202	H	0.299893	0.096781	0.130849
	H3203	H	0.360477	0.024980	0.171059
	H3204	H	0.297951	0.086196	0.327985
	H3205	H	0.362554	0.034762	0.367941
	H3206	H	0.264442	0.100838	0.172306
	H3207	H	0.324853	0.028074	0.130616
	H3208	H	0.297983	0.037895	0.078258
	H3209	H	0.362509	0.090481	0.117749
	H3210	H	0.264427	0.024468	0.422677
	H3211	H	0.324933	0.096393	0.381594
	H3212	H	0.262441	0.034377	0.118901
	H3213	H	0.326797	0.087368	0.077017
	H3214	H	0.300022	0.027265	0.380667
	H3215	H	0.360439	0.100791	0.421177
	H3216	H	0.274258	0.096239	0.355127
	H3217	H	0.338569	0.028421	0.339817
	H3218	H	0.288170	0.090842	0.144432
	H3219	H	0.348889	0.035115	0.158518
	H3220	H	0.286500	0.097575	0.340419
	H3221	H	0.350813	0.029072	0.354253
	H3222	H	0.275918	0.089776	0.159129
	H3223	H	0.336666	0.033753	0.144597
	H3224	H	0.286422	0.027092	0.090416
	H3225	H	0.350652	0.096691	0.103555
	H3226	H	0.276012	0.035020	0.409428
	H3227	H	0.336717	0.091470	0.394054
	H3228	H	0.274185	0.028311	0.105170
	H3229	H	0.338438	0.097854	0.089667
	H3230	H	0.288232	0.033797	0.395231
	H3231	H	0.348928	0.090442	0.408228
	Co3232	Co	0.374996	0.124896	0.154928
	Co3233	Co	0.312422	0.062814	0.094140
	Co3234	Co	0.249968	-0.000002	0.405594
	Co3235	Co	0.312493	0.061996	0.344482
	C3236	C	0.261855	0.094462	0.443766
	C3237	C	0.325346	0.037110	0.401080
	C3238	C	0.300544	0.092854	0.055906
	C3239	C	0.362092	0.025690	0.097322
	C3240	C	0.299641	0.087215	0.400846
	C3241	C	0.363214	0.030527	0.443236
	C3242	C	0.262760	0.099856	0.099078
	C3243	C	0.324271	0.032073	0.055552
	C3244	C	0.299617	0.037035	0.151153
	C3245	C	0.363130	0.094499	0.193010
	C3246	C	0.262813	0.025387	0.349071
	C3247	C	0.324320	0.092698	0.306105
	C3248	C	0.261817	0.030310	0.194267
	C3249	C	0.325250	0.088113	0.151064
	C3250	C	0.300636	0.031650	0.305576
	C3251	C	0.362094	0.099839	0.347704
	C3252	C	0.266672	0.093493	0.517194
	C3253	C	0.329055	0.031110	-0.017782
	C3254	C	0.295872	0.093492	0.482759
	C3255	C	0.358274	0.031654	0.015953
	C3256	C	0.295817	0.030926	0.232540
	C3257	C	0.358318	0.093976	0.266003
	C3258	C	0.266615	0.031194	0.267330
	C3259	C	0.329060	0.093821	0.232570
	C3260	C	0.274053	0.092751	0.508851
	C3261	C	0.336435	0.030209	-0.008957
	C3262	C	0.288493	0.094651	0.491681
	C3263	C	0.350873	0.032548	0.007477
	C3264	C	0.288428	0.030069	0.241475
	C3265	C	0.350902	0.093141	0.257102
	C3266	C	0.274004	0.032114	0.258501
	C3267	C	0.336471	0.094931	0.240614
	C3268	C	0.277270	0.095010	0.419753
	C3269	C	0.340796	0.029612	0.410396
	C3270	C	0.285162	0.092174	0.080127
	C3271	C	0.346661	0.033447	0.088143
	C3272	C	0.284276	0.095809	0.411117
	C3273	C	0.347799	0.030359	0.418628
	C3274	C	0.278161	0.091519	0.088597
	C3275	C	0.339676	0.032484	0.080160
	C3276	C	0.284210	0.028831	0.161192
	C3277	C	0.347660	0.095348	0.168127
	C3278	C	0.278238	0.033451	0.338708
	C3279	C	0.339731	0.092688	0.329558
	C3280	C	0.277221	0.029749	0.169431
	C3281	C	0.340680	0.096120	0.160076
	C3282	C	0.285225	0.032454	0.330488
	C3283	C	0.346698	0.092021	0.337547
	N3284	N	0.255731	0.101658	0.478675
	N3285	N	0.318864	0.042019	0.424349
	N3286	N	0.306672	0.085805	0.021341
	N3287	N	0.368573	0.020503	0.074472
	N3288	N	0.306138	0.082268	0.423780
	N3289	N	0.369334	0.023157	0.478100
	N3290	N	0.256285	0.105125	0.075958
	N3291	N	0.318151	0.039511	0.020776
	N3292	N	0.306098	0.042176	0.173771
	N3293	N	0.369280	0.101635	0.227856
	N3294	N	0.256320	0.020221	0.326055
	N3295	N	0.318166	0.085420	0.271714
	N3296	N	0.255682	0.023028	0.228854
	N3297	N	0.318771	0.082743	0.174385
	N3298	N	0.306753	0.039020	0.270875
	N3299	N	0.368598	0.104796	0.324890
	H3300	H	0.262374	0.090096	0.868713
	H3301	H	0.326875	0.037922	0.826667
	H3302	H	0.300087	0.097297	0.631252
	H3303	H	0.360548	0.024476	0.671611
	H3304	H	0.297974	0.086619	0.827579
	H3305	H	0.362454	0.034941	0.867756
	H3306	H	0.264420	0.100100	0.672701
	H3307	H	0.325069	0.028368	0.631984
	H3308	H	0.298032	0.038015	0.576608
	H3309	H	0.362622	0.090126	0.618051
	H3310	H	0.264508	0.024083	0.922037
	H3311	H	0.325042	0.097015	0.880766
	H3312	H	0.262489	0.034827	0.618769
	H3313	H	0.326993	0.087098	0.577477
	H3314	H	0.300109	0.027358	0.880722
	H3315	H	0.360560	0.100874	0.921636
	H3316	H	0.274108	0.096368	0.854817
	H3317	H	0.338419	0.027413	0.840079
	H3318	H	0.288307	0.091508	0.645261
	H3319	H	0.349010	0.034757	0.659097
	H3320	H	0.286335	0.097370	0.840374
	H3321	H	0.350619	0.029296	0.853873
	H3322	H	0.276066	0.090315	0.660035
	H3323	H	0.336843	0.033847	0.644828
	H3324	H	0.286494	0.027313	0.590161
	H3325	H	0.350769	0.096317	0.604028
	H3326	H	0.276095	0.034837	0.909461
	H3327	H	0.336771	0.091405	0.894551
	H3328	H	0.274245	0.028574	0.604741
	H3329	H	0.338567	0.097304	0.589746
	H3330	H	0.288328	0.033725	0.894701
	H3331	H	0.348960	0.090141	0.908936
	Co3332	Co	0.375018	0.125013	0.654780
	Co3333	Co	0.312533	0.062424	0.594078
	Co3334	Co	0.250037	0.000057	0.905523
	Co3335	Co	0.312457	0.062737	0.844399
	C3336	C	0.261736	0.094597	0.943841
	C3337	C	0.325269	0.037010	0.900573
	C3338	C	0.300706	0.092961	0.555703
	C3339	C	0.362206	0.025323	0.598262
	C3340	C	0.299582	0.087613	0.901043
	C3341	C	0.363054	0.030666	0.942772
	C3342	C	0.262819	0.099304	0.598762
	C3343	C	0.324419	0.032322	0.556182
	C3344	C	0.299680	0.037014	0.650699
	C3345	C	0.363180	0.094440	0.693472
	C3346	C	0.262869	0.025400	0.848694
	C3347	C	0.324386	0.092824	0.805814
	C3348	C	0.261871	0.030684	0.693792
	C3349	C	0.325340	0.088015	0.650691
	C3350	C	0.300690	0.031803	0.805418
	C3351	C	0.362155	0.099889	0.848022
	C3352	C	0.266556	0.093812	1.017312
	C3353	C	0.329213	0.031514	0.482655
	C3354	C	0.295723	0.093451	0.982712
	C3355	C	0.358395	0.031368	0.516454
	C3356	C	0.295897	0.030958	0.732202
	C3357	C	0.358371	0.093799	0.766561
	C3358	C	0.266663	0.031316	0.767027
	C3359	C	0.329158	0.093819	0.732271
	C3360	C	0.273935	0.092769	1.008372
	C3361	C	0.336596	0.030661	0.490977
	C3362	C	0.288357	0.094375	0.991240
	C3363	C	0.351014	0.032281	0.507734
	C3364	C	0.288498	0.030162	0.741035
	C3365	C	0.350991	0.092872	0.757670
	C3366	C	0.274061	0.032193	0.758293
	C3367	C	0.336561	0.094749	0.740793
	C3368	C	0.277140	0.094910	0.919121
	C3369	C	0.340644	0.029189	0.910602
	C3370	C	0.285268	0.092596	0.580810
	C3371	C	0.346815	0.033272	0.588290
	C3372	C	0.284137	0.095560	0.911051
	C3373	C	0.347632	0.030307	0.918581
	C3374	C	0.278269	0.091855	0.589215
	C3375	C	0.339823	0.032502	0.580147
	C3376	C	0.284268	0.029107	0.660796
	C3377	C	0.347752	0.094994	0.668589
	C3378	C	0.278295	0.033263	0.838576
	C3379	C	0.339769	0.092693	0.829874
	C3380	C	0.277284	0.030045	0.669103
	C3381	C	0.340778	0.095737	0.660483
	C3382	C	0.285289	0.032431	0.830209
	C3383	C	0.346759	0.091766	0.838111
	N3384	N	0.255611	0.101932	0.978950
	N3385	N	0.318794	0.042317	0.923688
	N3386	N	0.306804	0.085528	0.520761
	N3387	N	0.368686	0.020212	0.575255
	N3388	N	0.306051	0.082749	0.923942
	N3389	N	0.369188	0.023489	0.977221
	N3390	N	0.256364	0.104454	0.575911
	N3391	N	0.318268	0.039237	0.521669
	N3392	N	0.306153	0.042273	0.673715
	N3393	N	0.369309	0.101762	0.727899
	N3394	N	0.256380	0.020252	0.825680
	N3395	N	0.318245	0.085613	0.771006
	N3396	N	0.255719	0.023424	0.728523
	N3397	N	0.318856	0.082846	0.674081
	N3398	N	0.306809	0.039268	0.770907
	N3399	N	0.368636	0.105005	0.825085
	H3400	H	0.262436	0.215131	0.369100
	H3401	H	0.326908	0.162546	0.328072
	H3402	H	0.300043	0.222765	0.130110
	H3403	H	0.360521	0.149400	0.172073
	H3404	H	0.297919	0.211159	0.327698
	H3405	H	0.362492	0.158948	0.367532
	H3406	H	0.264472	0.225952	0.172173
	H3407	H	0.325011	0.153610	0.131891
	H3408	H	0.297977	0.163536	0.077917
	H3409	H	0.362519	0.215705	0.117855
	H3410	H	0.264494	0.149458	0.422622
	H3411	H	0.325067	0.221461	0.382191
	H3412	H	0.262466	0.159844	0.118764
	H3413	H	0.326914	0.212565	0.077999
	H3414	H	0.300114	0.152056	0.380673
	H3415	H	0.360622	0.225122	0.421727
	H3416	H	0.274203	0.221523	0.355772
	H3417	H	0.338492	0.152665	0.340346
	H3418	H	0.288268	0.216126	0.143864
	H3419	H	0.348975	0.160255	0.159532
	H3420	H	0.286483	0.222519	0.341250
	H3421	H	0.350712	0.154121	0.353808
	H3422	H	0.276053	0.214713	0.158891
	H3423	H	0.336749	0.159212	0.145241
	H3424	H	0.286442	0.152396	0.090615
	H3425	H	0.350748	0.220811	0.104526
	H3426	H	0.276034	0.160048	0.409761
	H3427	H	0.336751	0.216691	0.394552
	H3428	H	0.274207	0.153300	0.105490
	H3429	H	0.338506	0.222135	0.090131
	H3430	H	0.288247	0.158761	0.395517
	H3431	H	0.348988	0.215199	0.409279
	Co3432	Co	0.374968	0.250146	0.154327
	Co3433	Co	0.312479	0.187910	0.094474
	Co3434	Co	0.250020	0.124929	0.405582
	Co3435	Co	0.312512	0.187010	0.344966
	C3436	C	0.261849	0.219466	0.444543
	C3437	C	0.325320	0.161836	0.401471
	C3438	C	0.300634	0.218378	0.055035
	C3439	C	0.362140	0.150361	0.098350
	C3440	C	0.299613	0.212488	0.400949
	C3441	C	0.363159	0.155186	0.442781
	C3442	C	0.262839	0.224829	0.098842
	C3443	C	0.324368	0.157356	0.056390
	C3444	C	0.299652	0.162444	0.151255
	C3445	C	0.363143	0.219547	0.193180
	C3446	C	0.262848	0.150335	0.349362
	C3447	C	0.324406	0.217665	0.306892
	C3448	C	0.261835	0.155641	0.194370
	C3449	C	0.325330	0.213175	0.151367
	C3450	C	0.300692	0.156593	0.305809
	C3451	C	0.362189	0.224343	0.348026
	C3452	C	0.266631	0.218874	0.517957
	C3453	C	0.329142	0.156407	-0.016904
	C3454	C	0.295863	0.218905	0.482676
	C3455	C	0.358343	0.156447	0.016989
	C3456	C	0.295842	0.156084	0.232770
	C3457	C	0.358367	0.218600	0.266602
	C3458	C	0.266663	0.156382	0.267660
	C3459	C	0.329150	0.218884	0.233082
	C3460	C	0.274033	0.217892	0.509097
	C3461	C	0.336533	0.155471	-0.008236
	C3462	C	0.288448	0.219790	0.492063
	C3463	C	0.350931	0.157400	0.008355
	C3464	C	0.288470	0.155170	0.241766
	C3465	C	0.350971	0.217716	0.258175
	C3466	C	0.274044	0.157143	0.258798
	C3467	C	0.336552	0.219897	0.241305
	C3468	C	0.277253	0.220146	0.419952
	C3469	C	0.340738	0.154319	0.410827
	C3470	C	0.285233	0.217351	0.079713
	C3471	C	0.346738	0.158737	0.088839
	C3472	C	0.284228	0.220936	0.411753
	C3473	C	0.347736	0.155166	0.418494
	C3474	C	0.278255	0.216598	0.088250
	C3475	C	0.339762	0.157843	0.080775
	C3476	C	0.284246	0.154026	0.161436
	C3477	C	0.347734	0.219850	0.169126
	C3478	C	0.278262	0.158390	0.339111
	C3479	C	0.339782	0.217752	0.330363
	C3480	C	0.277253	0.154800	0.169760
	C3481	C	0.340751	0.220732	0.160767
	C3482	C	0.285255	0.157438	0.330855
	C3483	C	0.346764	0.216671	0.338566
	N3484	N	0.255704	0.226719	0.479013
	N3485	N	0.318875	0.166990	0.424677
	N3486	N	0.306756	0.210861	0.020665
	N3487	N	0.368616	0.145050	0.074822
	N3488	N	0.306102	0.207274	0.424167
	N3489	N	0.369306	0.148132	0.477433
	N3490	N	0.256359	0.230065	0.076161
	N3491	N	0.318228	0.164667	0.021668
	N3492	N	0.306123	0.167505	0.173934
	N3493	N	0.369270	0.226853	0.227560
	N3494	N	0.256367	0.145275	0.326166
	N3495	N	0.318272	0.210303	0.272180
	N3496	N	0.255719	0.148374	0.229285
	N3497	N	0.318858	0.207775	0.175041
	N3498	N	0.306805	0.163949	0.271163
	N3499	N	0.368652	0.229629	0.324783
	H3500	H	0.262315	0.214959	0.869180
	H3501	H	0.326933	0.162836	0.827951
	H3502	H	0.300100	0.222853	0.630854
	H3503	H	0.360593	0.149765	0.671432
	H3504	H	0.297971	0.211426	0.827020
	H3505	H	0.362448	0.159801	0.868201
	H3506	H	0.264446	0.226001	0.672897
	H3507	H	0.325031	0.153376	0.631806
	H3508	H	0.297953	0.163990	0.577599
	H3509	H	0.362436	0.215604	0.617441
	H3510	H	0.264444	0.149390	0.922332
	H3511	H	0.324987	0.221601	0.881973
	H3512	H	0.262421	0.159557	0.618954
	H3513	H	0.326882	0.212394	0.577399
	H3514	H	0.300089	0.152503	0.880812
	H3515	H	0.360516	0.225176	0.921215
	H3516	H	0.274180	0.221256	0.854851
	H3517	H	0.338505	0.152574	0.840864
	H3518	H	0.288287	0.216155	0.645475
	H3519	H	0.348981	0.159792	0.658731
	H3520	H	0.286426	0.222660	0.839780
	H3521	H	0.350727	0.153567	0.854837
	H3522	H	0.276059	0.215164	0.660015
	H3523	H	0.336804	0.158745	0.645038
	H3524	H	0.286434	0.152660	0.590577
	H3525	H	0.350730	0.221639	0.604201
	H3526	H	0.276047	0.159841	0.909507
	H3527	H	0.336759	0.215901	0.895150
	H3528	H	0.274203	0.153913	0.604803
	H3529	H	0.338498	0.223059	0.590273
	H3530	H	0.288298	0.159005	0.894810
	H3531	H	0.348997	0.214810	0.908423
	Co3532	Co	0.375030	0.249773	0.654624
	Co3533	Co	0.312491	0.187748	0.594319
	Co3534	Co	0.249936	0.125054	0.905715
	Co3535	Co	0.312488	0.187371	0.844408
	C3536	C	0.261785	0.219269	0.944250
	C3537	C	0.325342	0.162192	0.901612
	C3538	C	0.300677	0.218406	0.555697
	C3539	C	0.362199	0.150309	0.597853
	C3540	C	0.299615	0.212662	0.900431
	C3541	C	0.363114	0.155760	0.943591
	C3542	C	0.262842	0.224855	0.599282
	C3543	C	0.324381	0.157136	0.556527
	C3544	C	0.299617	0.162488	0.650926
	C3545	C	0.363123	0.219585	0.692524
	C3546	C	0.262819	0.150227	0.848810
	C3547	C	0.324345	0.217765	0.806597
	C3548	C	0.261833	0.155378	0.694115
	C3549	C	0.325280	0.213126	0.651288
	C3550	C	0.300663	0.156800	0.805355
	C3551	C	0.362134	0.224540	0.847845
	C3552	C	0.266607	0.218633	1.017108
	C3553	C	0.329172	0.156187	0.483036
	C3554	C	0.295838	0.218850	0.981719
	C3555	C	0.358352	0.156180	0.516077
	C3556	C	0.295848	0.156317	0.732439
	C3557	C	0.358327	0.218740	0.765921
	C3558	C	0.266612	0.156230	0.767343
	C3559	C	0.329132	0.218842	0.733007
	C3560	C	0.274015	0.217700	1.008097
	C3561	C	0.336542	0.155460	0.491351
	C3562	C	0.288439	0.219658	0.990493
	C3563	C	0.350979	0.157314	0.507384
	C3564	C	0.288442	0.155388	0.741394
	C3565	C	0.350931	0.217886	0.757453
	C3566	C	0.274010	0.157220	0.758407
	C3567	C	0.336501	0.219815	0.741415
	C3568	C	0.277229	0.220016	0.919048
	C3569	C	0.340743	0.154182	0.911443
	C3570	C	0.285254	0.217554	0.581108
	C3571	C	0.346775	0.158391	0.587962
	C3572	C	0.284214	0.220805	0.910412
	C3573	C	0.347718	0.154993	0.919355
	C3574	C	0.278275	0.216752	0.589282
	C3575	C	0.339777	0.157692	0.580281
	C3576	C	0.284202	0.154280	0.661167
	C3577	C	0.347712	0.220369	0.668633
	C3578	C	0.278258	0.158283	0.838730
	C3579	C	0.339734	0.217224	0.830094
	C3580	C	0.277218	0.155134	0.669228
	C3581	C	0.340711	0.221236	0.661056
	C3582	C	0.285242	0.157575	0.830658
	C3583	C	0.346732	0.216566	0.838067
	N3584	N	0.255682	0.226741	0.979003
	N3585	N	0.318859	0.167344	0.924502
	N3586	N	0.306789	0.210804	0.520784
	N3587	N	0.368679	0.145220	0.574793
	N3588	N	0.306105	0.207558	0.923602
	N3589	N	0.369247	0.148353	0.977940
	N3590	N	0.256348	0.229851	0.576343
	N3591	N	0.318247	0.164362	0.521868
	N3592	N	0.306111	0.167552	0.673831
	N3593	N	0.369246	0.226760	0.727563
	N3594	N	0.256332	0.145100	0.825943
	N3595	N	0.318198	0.210603	0.771907
	N3596	N	0.255705	0.148071	0.728599
	N3597	N	0.318812	0.207917	0.674545
	N3598	N	0.306789	0.164221	0.770608
	N3599	N	0.368611	0.229650	0.824588
	H3600	H	0.262511	0.340172	0.368667
	H3601	H	0.326976	0.287572	0.328564
	H3602	H	0.300099	0.348096	0.130004
	H3603	H	0.360533	0.274501	0.170970
	H3604	H	0.298035	0.336223	0.327527
	H3605	H	0.362526	0.284439	0.368610
	H3606	H	0.264476	0.350703	0.172221
	H3607	H	0.324983	0.278957	0.132086
	H3608	H	0.297943	0.288898	0.077429
	H3609	H	0.362505	0.340546	0.116939
	H3610	H	0.264512	0.274220	0.422794
	H3611	H	0.325028	0.346796	0.381631
	H3612	H	0.262424	0.285101	0.119417
	H3613	H	0.326932	0.337523	0.078195
	H3614	H	0.300071	0.277126	0.380348
	H3615	H	0.360583	0.349903	0.421042
	H3616	H	0.276011	0.339917	0.659509
	H3617	H	0.338542	0.277616	0.341600
	H3618	H	0.288228	0.340749	0.144929
	H3619	H	0.350713	0.278388	-0.145714
	H3620	H	0.288264	0.341161	0.645171
	H3621	H	0.350758	0.278843	0.355498
	H3622	H	0.276005	0.339359	0.159542
	H3623	H	0.338487	0.277631	-0.159621
	H3624	H	0.286444	0.276938	0.090274
	H3625	H	0.350700	0.346082	0.104539
	H3626	H	0.276058	0.285533	0.409476
	H3627	H	0.336748	0.341198	0.395027
	H3628	H	0.274208	0.278011	0.105089
	H3629	H	0.338500	0.347475	0.090367
	H3630	H	0.288300	0.284225	0.394842
	H3631	H	0.349011	0.339872	0.408758
	Co3632	Co	0.374982	0.374854	0.154031
	Co3633	Co	0.312465	0.313052	0.094314
	Co3634	Co	0.249993	0.249823	0.405659
	Co3635	Co	0.312513	0.312164	0.344770
	C3636	C	0.261849	0.344456	0.443737
	C3637	C	0.325335	0.286760	0.401714
	C3638	C	0.300647	0.343568	0.055250
	C3639	C	0.362157	0.275284	0.097367
	C3640	C	0.299662	0.337531	0.401210
	C3641	C	0.363165	0.280434	0.443718
	C3642	C	0.262804	0.349694	0.099200
	C3643	C	0.324347	0.282593	0.056441
	C3644	C	0.299646	0.287508	0.150673
	C3645	C	0.363122	0.344491	0.192254
	C3646	C	0.262838	0.275345	0.349826
	C3647	C	0.324338	0.342820	0.306548
	C3648	C	0.261818	0.280683	0.194736
	C3649	C	0.325297	0.338153	0.151405
	C3650	C	0.300693	0.281571	0.305597
	C3651	C	0.362185	0.349286	0.347616
	C3652	C	0.266673	0.343755	0.517043
	C3653	C	0.329121	0.281245	-0.016835
	C3654	C	0.295851	0.343711	0.482874
	C3655	C	0.358351	0.281144	0.015926
	C3656	C	0.295841	0.281150	0.232402
	C3657	C	0.358328	0.343494	0.265976
	C3658	C	0.266663	0.281310	0.267981
	C3659	C	0.329130	0.343814	0.233076
	C3660	C	0.274052	0.342878	0.508208
	C3661	C	0.336527	0.280249	-0.008526
	C3662	C	0.288484	0.344750	0.491452
	C3663	C	0.350966	0.282052	0.007672
	C3664	C	0.288478	0.280316	0.241394
	C3665	C	0.350944	0.342629	0.257895
	C3666	C	0.274043	0.282169	0.258654
	C3667	C	0.336513	0.344615	0.241562
	C3668	C	0.278245	0.341676	0.588850
	C3669	C	0.340774	0.279209	0.412127
	C3670	C	0.285204	0.342150	0.080428
	C3671	C	0.347711	0.279774	-0.081173
	C3672	C	0.285250	0.342532	0.580438
	C3673	C	0.347763	0.280164	0.420054
	C3674	C	0.278218	0.341266	0.088914
	C3675	C	0.340726	0.279015	-0.089050
	C3676	C	0.284246	0.278878	0.161072
	C3677	C	0.347704	0.344909	0.169179
	C3678	C	0.278283	0.283604	0.338767
	C3679	C	0.339755	0.342361	0.330530
	C3680	C	0.277242	0.279602	0.169494
	C3681	C	0.340709	0.345800	0.161020
	C3682	C	0.285290	0.282785	0.330415
	C3683	C	0.346750	0.341559	0.338432
	N3684	N	0.255720	0.351733	0.478505
	N3685	N	0.318864	0.292086	0.424906
	N3686	N	0.306754	0.336012	0.020533
	N3687	N	0.368643	0.270263	0.074532
	N3688	N	0.306133	0.332550	0.424090
	N3689	N	0.369305	0.273084	0.477946
	N3690	N	0.256347	0.354996	0.075789
	N3691	N	0.318217	0.289712	0.021933
	N3692	N	0.306115	0.292572	0.173772
	N3693	N	0.369270	0.351600	0.226961
	N3694	N	0.256357	0.270271	0.326759
	N3695	N	0.318209	0.335672	0.271996
	N3696	N	0.255693	0.273499	0.229641
	N3697	N	0.318825	0.333049	0.174481
	N3698	N	0.306782	0.289118	0.270974
	N3699	N	0.368666	0.354408	0.324031
	H3700	H	0.262438	0.339850	0.868970
	H3701	H	0.326872	0.287196	0.827729
	H3702	H	0.300077	0.347307	0.631657
	H3703	H	0.360640	0.274691	0.672162
	H3704	H	0.297926	0.335844	0.827742
	H3705	H	0.362523	0.284391	0.867091
	H3706	H	0.264528	0.350722	0.672341
	H3707	H	0.325017	0.278262	0.631821
	H3708	H	0.298025	0.288207	0.577447
	H3709	H	0.362576	0.340444	0.617266
	H3710	H	0.264589	0.273801	0.922397
	H3711	H	0.325007	0.346433	0.882260
	H3712	H	0.262488	0.284849	0.618638
	H3713	H	0.326916	0.337698	0.577813
	H3714	H	0.300042	0.277777	0.880835
	H3715	H	0.360549	0.350941	0.921303
	H3716	H	0.274172	0.346127	0.855270
	H3717	H	0.336781	0.283946	1.144514
	H3718	H	0.286493	0.347343	0.340222
	H3719	H	0.348986	0.285281	0.660088
	H3720	H	0.286397	0.347638	0.840395
	H3721	H	0.349018	0.285009	1.158650
	H3722	H	0.274272	0.346348	0.354557
	H3723	H	0.336779	0.284283	0.645706
	H3724	H	0.286512	0.277641	0.590042
	H3725	H	0.350721	0.347347	0.604335
	H3726	H	0.276098	0.285182	0.909583
	H3727	H	0.336771	0.340709	0.894988
	H3728	H	0.274289	0.278730	0.604564
	H3729	H	0.338493	0.348286	0.590774
	H3730	H	0.288325	0.284114	0.894783
	H3731	H	0.349022	0.339501	0.908716
	Co3732	Co	0.375025	0.374969	0.654095
	Co3733	Co	0.312548	0.312738	0.594547
	Co3734	Co	0.249976	0.249851	0.905700
	Co3735	Co	0.312492	0.312249	0.844221
	C3736	C	0.261801	0.344308	0.944105
	C3737	C	0.325282	0.286711	0.901567
	C3738	C	0.300693	0.343141	0.555935
	C3739	C	0.362240	0.275584	0.598711
	C3740	C	0.299571	0.337341	0.900937
	C3741	C	0.363141	0.280393	0.942626
	C3742	C	0.262845	0.349788	0.598695
	C3743	C	0.324362	0.282165	0.556858
	C3744	C	0.299707	0.287144	0.650470
	C3745	C	0.363168	0.344607	0.692704
	C3746	C	0.262884	0.274876	0.848751
	C3747	C	0.324387	0.342824	0.806662
	C3748	C	0.261862	0.280658	0.693869
	C3749	C	0.325337	0.338427	0.651731
	C3750	C	0.300710	0.281781	0.805428
	C3751	C	0.362155	0.349869	0.847584
	C3752	C	0.266611	0.343473	1.017535
	C3753	C	0.329164	0.281097	0.483654
	C3754	C	0.295798	0.343858	0.982397
	C3755	C	0.358395	0.281440	0.517362
	C3756	C	0.295880	0.281212	0.732277
	C3757	C	0.358365	0.343919	0.766018
	C3758	C	0.266712	0.281075	0.767188
	C3759	C	0.329147	0.344059	0.733369
	C3760	C	0.274000	0.342479	1.008661
	C3761	C	0.336561	0.280406	0.492449
	C3762	C	0.288421	0.344673	0.991343
	C3763	C	0.351010	0.282465	0.508981
	C3764	C	0.288502	0.280346	0.741402
	C3765	C	0.350964	0.343007	0.757671
	C3766	C	0.274076	0.282197	0.758507
	C3767	C	0.336530	0.344966	0.741818
	C3768	C	0.277191	0.344935	0.919526
	C3769	C	0.339788	0.282586	1.080124
	C3770	C	0.284277	0.345828	0.410933
	C3771	C	0.346783	0.283648	0.589305
	C3772	C	0.284189	0.345899	0.911143
	C3773	C	0.346776	0.283407	1.088094
	C3774	C	0.277281	0.345062	0.419217
	C3775	C	0.339789	0.282809	0.581216
	C3776	C	0.284289	0.279140	0.660807
	C3777	C	0.347723	0.345627	0.668990
	C3778	C	0.278287	0.283454	0.838809
	C3779	C	0.339778	0.342306	0.830602
	C3780	C	0.277287	0.279995	0.669247
	C3781	C	0.340741	0.346472	0.661328
	C3782	C	0.285293	0.282655	0.830550
	C3783	C	0.346769	0.341439	0.838194
	N3784	N	0.255697	0.351853	0.978843
	N3785	N	0.318810	0.292097	0.924656
	N3786	N	0.306805	0.335756	0.521209
	N3787	N	0.368702	0.270286	0.575331
	N3788	N	0.306063	0.332385	0.923552
	N3789	N	0.369287	0.273132	0.977281
	N3790	N	0.256360	0.354818	0.575576
	N3791	N	0.318239	0.289357	0.521770
	N3792	N	0.306173	0.292287	0.673619
	N3793	N	0.369288	0.351946	0.727528
	N3794	N	0.256392	0.269942	0.825887
	N3795	N	0.318256	0.335482	0.771924
	N3796	N	0.255748	0.273197	0.728703
	N3797	N	0.318874	0.332925	0.674642
	N3798	N	0.306812	0.289077	0.770538
	N3799	N	0.368634	0.354982	0.824608
	H3800	H	0.262388	0.465327	0.368869
	H3801	H	0.326973	0.412573	0.327446
	H3802	H	0.300046	0.472640	0.130246
	H3803	H	0.360555	0.399316	0.171183
	H3804	H	0.297981	0.461386	0.327443
	H3805	H	0.362552	0.409787	0.368067
	H3806	H	0.264462	0.475981	0.171905
	H3807	H	0.324995	0.403248	0.131175
	H3808	H	0.297989	0.413575	0.077136
	H3809	H	0.362566	0.465395	0.117863
	H3810	H	0.264541	0.399144	0.422748
	H3811	H	0.325005	0.471755	0.381881
	H3812	H	0.262545	0.409816	0.118775
	H3813	H	0.326957	0.462440	0.078495
	H3814	H	0.300143	0.402162	0.380606
	H3815	H	0.360596	0.475676	0.421139
	H3816	H	0.274204	0.471700	0.354717
	H3817	H	0.338554	0.402009	0.340525
	H3818	H	0.286425	0.472754	-0.159784
	H3819	H	0.349027	0.410255	0.158579
	H3820	H	0.286438	0.472848	0.340704
	H3821	H	0.350795	0.403445	0.354576
	H3822	H	0.274187	0.471576	-0.145445
	H3823	H	0.336776	0.409221	0.144587
	H3824	H	0.286478	0.402060	0.090740
	H3825	H	0.350764	0.471320	0.104361
	H3826	H	0.276117	0.410323	0.409873
	H3827	H	0.336824	0.466328	0.395592
	H3828	H	0.274280	0.403222	0.105097
	H3829	H	0.338537	0.472612	0.090940
	H3830	H	0.288353	0.409144	0.395090
	H3831	H	0.349038	0.465153	0.409276
	Co3832	Co	0.375044	0.500209	0.154473
	Co3833	Co	0.312527	0.437798	0.094095
	Co3834	Co	0.249999	0.374904	0.405160
	Co3835	Co	0.312520	0.437289	0.344138
	C3836	C	0.261805	0.469557	0.444106
	C3837	C	0.325331	0.411836	0.401267
	C3838	C	0.300653	0.468266	0.055319
	C3839	C	0.362180	0.400390	0.097779
	C3840	C	0.299622	0.462521	0.400553
	C3841	C	0.363177	0.405626	0.443285
	C3842	C	0.262813	0.474814	0.098468
	C3843	C	0.324379	0.407377	0.055815
	C3844	C	0.299687	0.412248	0.150701
	C3845	C	0.363171	0.469599	0.193041
	C3846	C	0.262893	0.400022	0.349199
	C3847	C	0.324380	0.467906	0.306445
	C3848	C	0.261896	0.405654	0.194185
	C3849	C	0.325369	0.463060	0.151766
	C3850	C	0.300755	0.406481	0.305445
	C3851	C	0.362193	0.474766	0.347791
	C3852	C	0.266639	0.468909	0.517032
	C3853	C	0.329161	0.406387	-0.017485
	C3854	C	0.295833	0.468678	0.482145
	C3855	C	0.358369	0.406204	0.016303
	C3856	C	0.295897	0.405898	0.232463
	C3857	C	0.358389	0.468742	0.266372
	C3858	C	0.266726	0.406175	0.267624
	C3859	C	0.329181	0.468898	0.233425
	C3860	C	0.274017	0.467860	0.508084
	C3861	C	0.336568	0.405432	-0.008790
	C3862	C	0.288435	0.469591	0.491279
	C3863	C	0.350985	0.407156	0.007833
	C3864	C	0.288529	0.405019	0.241791
	C3865	C	0.350999	0.467844	0.258048
	C3866	C	0.274097	0.407089	0.258794
	C3867	C	0.336581	0.469818	0.242154
	C3868	C	0.277228	0.470257	0.419086
	C3869	C	0.340789	0.403992	0.411224
	C3870	C	0.284200	0.471037	-0.089173
	C3871	C	0.346781	0.408546	0.088213
	C3872	C	0.284205	0.470970	0.411096
	C3873	C	0.347777	0.404999	0.419119
	C3874	C	0.277205	0.470089	-0.080918
	C3875	C	0.339796	0.407807	0.080174
	C3876	C	0.284288	0.403761	0.161636
	C3877	C	0.347750	0.470114	0.169092
	C3878	C	0.278322	0.408464	0.339045
	C3879	C	0.339820	0.467592	0.330941
	C3880	C	0.277286	0.404643	0.169733
	C3881	C	0.340776	0.471016	0.161540
	C3882	C	0.285329	0.407567	0.330757
	C3883	C	0.346808	0.466723	0.338760
	N3884	N	0.255695	0.476861	0.479019
	N3885	N	0.318867	0.417111	0.424503
	N3886	N	0.306769	0.460795	0.020583
	N3887	N	0.368677	0.395331	0.074571
	N3888	N	0.306120	0.457521	0.423556
	N3889	N	0.369274	0.397964	0.477603
	N3890	N	0.256323	0.479834	0.075559
	N3891	N	0.318244	0.414558	0.021282
	N3892	N	0.306160	0.417467	0.173562
	N3893	N	0.369312	0.476952	0.227611
	N3894	N	0.256420	0.395045	0.325856
	N3895	N	0.318249	0.460746	0.271668
	N3896	N	0.255780	0.398337	0.228776
	N3897	N	0.318887	0.457981	0.174428
	N3898	N	0.306851	0.414080	0.270437
	N3899	N	0.368681	0.479928	0.324634
	H3900	H	0.262373	0.464722	0.868607
	H3901	H	0.326957	0.412876	0.827953
	H3902	H	0.300004	0.472319	0.630459
	H3903	H	0.360527	0.399505	0.671246
	H3904	H	0.297924	0.461436	0.827129
	H3905	H	0.362545	0.409571	0.868009
	H3906	H	0.264484	0.476052	0.672200
	H3907	H	0.325072	0.403647	0.631312
	H3908	H	0.297952	0.413193	0.577243
	H3909	H	0.362383	0.465727	0.618027
	H3910	H	0.264484	0.398973	0.921940
	H3911	H	0.324878	0.472482	0.880853
	H3912	H	0.262403	0.409873	0.618682
	H3913	H	0.326896	0.462255	0.577242
	H3914	H	0.300013	0.402312	0.880208
	H3915	H	0.360476	0.475684	0.922189
	H3916	H	0.276040	0.464342	1.159261
	H3917	H	0.338566	0.402368	0.840027
	H3918	H	0.288238	0.465628	0.644712
	H3919	H	0.349012	0.410907	0.659098
	H3920	H	0.288206	0.465227	1.144555
	H3921	H	0.350782	0.403268	0.854517
	H3922	H	0.276028	0.464588	0.659009
	H3923	H	0.336775	0.409748	0.644906
	H3924	H	0.286413	0.402255	0.589686
	H3925	H	0.350632	0.472069	0.604291
	H3926	H	0.276040	0.410332	0.909216
	H3927	H	0.336646	0.466219	0.894897
	H3928	H	0.274200	0.403118	0.604585
	H3929	H	0.338419	0.473363	0.590407
	H3930	H	0.288252	0.409481	0.894300
	H3931	H	0.348856	0.464943	0.909278
	Co3932	Co	0.375008	0.499781	0.654302
	Co3933	Co	0.312474	0.437557	0.594085
	Co3934	Co	0.249941	0.374881	0.905338
	Co3935	Co	0.312489	0.437386	0.844003
	C3936	C	0.261771	0.469156	0.943772
	C3937	C	0.325339	0.412231	0.901032
	C3938	C	0.300645	0.468128	0.555392
	C3939	C	0.362173	0.400466	0.598269
	C3940	C	0.299611	0.462450	0.900698
	C3941	C	0.363148	0.405498	0.942962
	C3942	C	0.262854	0.474879	0.598911
	C3943	C	0.324393	0.407376	0.556362
	C3944	C	0.299638	0.412196	0.650159
	C3945	C	0.363036	0.469710	0.693297
	C3946	C	0.262809	0.400054	0.848536
	C3947	C	0.324241	0.468180	0.805880
	C3948	C	0.261787	0.405588	0.693605
	C3949	C	0.325239	0.463136	0.651164
	C3950	C	0.300653	0.406831	0.805227
	C3951	C	0.362078	0.474745	0.848322
	C3952	C	0.266600	0.468559	1.016709
	C3953	C	0.329192	0.406258	0.482926
	C3954	C	0.295813	0.468721	0.982112
	C3955	C	0.358376	0.406603	0.516718
	C3956	C	0.295813	0.406206	0.731901
	C3957	C	0.358231	0.468923	0.766785
	C3958	C	0.266639	0.406265	0.766833
	C3959	C	0.329063	0.469146	0.732645
	C3960	C	0.273983	0.467551	1.007975
	C3961	C	0.336579	0.405323	0.491598
	C3962	C	0.288424	0.469508	0.991035
	C3963	C	0.351001	0.407557	0.508073
	C3964	C	0.288445	0.405387	0.740784
	C3965	C	0.350876	0.468227	0.758148
	C3966	C	0.274004	0.407211	0.758156
	C3967	C	0.336446	0.470132	0.741515
	C3968	C	0.278212	0.466037	1.088250
	C3969	C	0.340772	0.404104	0.910689
	C3970	C	0.285235	0.467141	0.580471
	C3971	C	0.346785	0.408957	0.588627
	C3972	C	0.285203	0.466898	1.079991
	C3973	C	0.347761	0.404746	0.918914
	C3974	C	0.278240	0.466435	0.588458
	C3975	C	0.339789	0.408048	0.580497
	C3976	C	0.284212	0.403927	0.660507
	C3977	C	0.347652	0.470678	0.669191
	C3978	C	0.278228	0.408644	0.838237
	C3979	C	0.339671	0.467665	0.830466
	C3980	C	0.277206	0.404835	0.669122
	C3981	C	0.340652	0.471457	0.661032
	C3982	C	0.285232	0.407763	0.829836
	C3983	C	0.346667	0.466898	0.838634
	N3984	N	0.255653	0.476614	0.978343
	N3985	N	0.318867	0.417434	0.924076
	N3986	N	0.306775	0.460726	0.520544
	N3987	N	0.368638	0.395087	0.574953
	N3988	N	0.306091	0.457495	0.923576
	N3989	N	0.369305	0.398274	0.977681
	N3990	N	0.256364	0.479930	0.576180
	N3991	N	0.318261	0.414518	0.521525
	N3992	N	0.306130	0.417187	0.673314
	N3993	N	0.369180	0.476805	0.727621
	N3994	N	0.256350	0.394908	0.825378
	N3995	N	0.318133	0.460841	0.771204
	N3996	N	0.255697	0.398132	0.728358
	N3997	N	0.318777	0.457868	0.674114
	N3998	N	0.306769	0.414162	0.770460
	N3999	N	0.368554	0.479699	0.825159
	H4000	H	0.262488	0.590495	0.368455
	H4001	H	0.326930	0.537721	0.326947
	H4002	H	0.300062	0.597483	0.131026
	H4003	H	0.360547	0.524405	0.171574
	H4004	H	0.298035	0.586865	0.327624
	H4005	H	0.362538	0.534778	0.367299
	H4006	H	0.264503	0.600678	0.172281
	H4007	H	0.324961	0.528036	0.131007
	H4008	H	0.298021	0.538482	0.077262
	H4009	H	0.362599	0.590300	0.117735
	H4010	H	0.264519	0.524558	0.422614
	H4011	H	0.325110	0.596538	0.381580
	H4012	H	0.262477	0.534719	0.118975
	H4013	H	0.326983	0.587230	0.076721
	H4014	H	0.300126	0.527166	0.380794
	H4015	H	0.360564	0.600838	0.420913
	H4016	H	0.276050	0.589760	0.659452
	H4017	H	0.338568	0.527566	0.339347
	H4018	H	0.288247	0.590420	0.145018
	H4019	H	0.348990	0.534877	0.158882
	H4020	H	0.288278	0.590803	0.645024
	H4021	H	0.350805	0.528668	0.353748
	H4022	H	0.276016	0.589205	0.159614
	H4023	H	0.336758	0.533472	0.144793
	H4024	H	0.286459	0.526748	0.090692
	H4025	H	0.349063	0.589850	0.408254
	H4026	H	0.276077	0.535233	0.409500
	H4027	H	0.338613	0.597348	0.089461
	H4028	H	0.274244	0.528477	0.105262
	H4029	H	0.336863	0.590979	0.394355
	H4030	H	0.288294	0.534122	0.394653
	H4031	H	0.350823	0.596400	0.103728
	Co4032	Co	0.375005	0.625327	0.154780
	Co4033	Co	0.312529	0.562774	0.094072
	Co4034	Co	0.249970	0.500056	0.406138
	Co4035	Co	0.312519	0.562422	0.344492
	C4036	C	0.261863	0.594560	0.443748
	C4037	C	0.325316	0.536971	0.400582
	C4038	C	0.300665	0.593203	0.055997
	C4039	C	0.362183	0.525388	0.097773
	C4040	C	0.299671	0.587556	0.400783
	C4041	C	0.363183	0.530578	0.442766
	C4042	C	0.262849	0.599791	0.099251
	C4043	C	0.324338	0.532024	0.055356
	C4044	C	0.299681	0.537448	0.151131
	C4045	C	0.363229	0.594529	0.192747
	C4046	C	0.262870	0.525285	0.349445
	C4047	C	0.324431	0.592790	0.305778
	C4048	C	0.261859	0.530627	0.194495
	C4049	C	0.325370	0.588011	0.150541
	C4050	C	0.300706	0.531676	0.305664
	C4051	C	0.362230	0.599809	0.347677
	C4052	C	0.266682	0.593659	0.517072
	C4053	C	0.329147	0.531168	-0.017692
	C4054	C	0.295863	0.593588	0.482471
	C4055	C	0.358354	0.531367	0.016344
	C4056	C	0.295890	0.531046	0.232466
	C4057	C	0.358426	0.593759	0.265891
	C4058	C	0.266668	0.531344	0.267686
	C4059	C	0.329230	0.593746	0.232211
	C4060	C	0.274049	0.592843	0.508277
	C4061	C	0.336529	0.530195	-0.008943
	C4062	C	0.288481	0.594655	0.491457
	C4063	C	0.350959	0.532277	0.007867
	C4064	C	0.288496	0.530153	0.241253
	C4065	C	0.351048	0.592773	0.257082
	C4066	C	0.274057	0.532148	0.258653
	C4067	C	0.336614	0.594613	0.240636
	C4068	C	0.278268	0.591423	0.588611
	C4069	C	0.340782	0.529187	0.409941
	C4070	C	0.285224	0.591973	0.080707
	C4071	C	0.346754	0.533313	0.088264
	C4072	C	0.285265	0.592236	0.580564
	C4073	C	0.347773	0.530105	0.418063
	C4074	C	0.278234	0.590991	0.088869
	C4075	C	0.339762	0.532420	0.080105
	C4076	C	0.284253	0.528613	0.161273
	C4077	C	0.346839	0.591428	0.337546
	C4078	C	0.278283	0.533516	0.338899
	C4079	C	0.340815	0.595852	0.160312
	C4080	C	0.277271	0.529530	0.169731
	C4081	C	0.339846	0.592280	0.329506
	C4082	C	0.285274	0.532694	0.330200
	C4083	C	0.347811	0.595103	0.168219
	N4084	N	0.255751	0.601725	0.478605
	N4085	N	0.318851	0.542014	0.424101
	N4086	N	0.306788	0.585885	0.021195
	N4087	N	0.368647	0.520275	0.074634
	N4088	N	0.306162	0.582525	0.423956
	N4089	N	0.369297	0.523197	0.477708
	N4090	N	0.256364	0.604962	0.076278
	N4091	N	0.318219	0.539459	0.020850
	N4092	N	0.306163	0.542510	0.173918
	N4093	N	0.369344	0.601915	0.227558
	N4094	N	0.256378	0.520243	0.326368
	N4095	N	0.318293	0.585547	0.271320
	N4096	N	0.255741	0.523279	0.229395
	N4097	N	0.318905	0.582822	0.174100
	N4098	N	0.306825	0.539169	0.270971
	N4099	N	0.368711	0.604896	0.324627
	H4100	H	0.262414	0.590088	0.869199
	H4101	H	0.326967	0.538016	0.827272
	H4102	H	0.300049	0.596755	0.631420
	H4103	H	0.360570	0.524969	0.671010
	H4104	H	0.297969	0.586419	0.827677
	H4105	H	0.362509	0.534701	0.868261
	H4106	H	0.264491	0.600067	0.672686
	H4107	H	0.325092	0.528019	0.630637
	H4108	H	0.298061	0.537656	0.577570
	H4109	H	0.362554	0.590182	0.617887
	H4110	H	0.264503	0.524125	0.922770
	H4111	H	0.324904	0.597422	0.880285
	H4112	H	0.262462	0.534684	0.618773
	H4113	H	0.327006	0.586589	0.577910
	H4114	H	0.300040	0.527720	0.880790
	H4115	H	0.360532	0.600388	0.921589
	H4116	H	0.274236	0.596633	0.854788
	H4117	H	0.338550	0.527396	0.839840
	H4118	H	0.286493	0.597657	0.340331
	H4119	H	0.349022	0.535595	0.657946
	H4120	H	0.286475	0.597584	0.840745
	H4121	H	0.350763	0.528724	0.854432
	H4122	H	0.274242	0.596629	0.354691
	H4123	H	0.336820	0.534369	0.643976
	H4124	H	0.288289	0.533672	0.894518
	H4125	H	0.350715	0.596667	0.604333
	H4126	H	0.274249	0.528540	0.604583
	H4127	H	0.336761	0.590588	0.894773
	H4128	H	0.276078	0.535149	0.909214
	H4129	H	0.338523	0.598114	0.590111
	H4130	H	0.286481	0.527194	0.590066
	H4131	H	0.348965	0.589711	0.908847
	Co4132	Co	0.374983	0.624911	0.654592
	Co4133	Co	0.312517	0.562198	0.593994
	Co4134	Co	0.249987	0.499923	0.905260
	Co4135	Co	0.312501	0.562506	0.843896
	C4136	C	0.261815	0.594525	0.944203
	C4137	C	0.325347	0.537133	0.900631
	C4138	C	0.300688	0.592759	0.555805
	C4139	C	0.362191	0.525628	0.597617
	C4140	C	0.299633	0.587578	0.901469
	C4141	C	0.363148	0.530610	0.942861
	C4142	C	0.262852	0.599404	0.598953
	C4143	C	0.324378	0.531963	0.555662
	C4144	C	0.299664	0.536912	0.650652
	C4145	C	0.363139	0.594470	0.693106
	C4146	C	0.262864	0.525203	0.848826
	C4147	C	0.324312	0.593108	0.805762
	C4148	C	0.261868	0.530501	0.693692
	C4149	C	0.325351	0.587557	0.651049
	C4150	C	0.300652	0.531831	0.805523
	C4151	C	0.362160	0.599393	0.848081
	C4152	C	0.266638	0.593695	1.017481
	C4153	C	0.329187	0.531206	0.482126
	C4154	C	0.295843	0.593663	0.983018
	C4155	C	0.358369	0.531574	0.515985
	C4156	C	0.295860	0.530949	0.732213
	C4157	C	0.358344	0.593561	0.766286
	C4158	C	0.266666	0.531145	0.767069
	C4159	C	0.329131	0.593739	0.732606
	C4160	C	0.274025	0.592612	1.008607
	C4161	C	0.336575	0.530493	0.490336
	C4162	C	0.288459	0.594478	0.991764
	C4163	C	0.351000	0.532477	0.507026
	C4164	C	0.288462	0.530067	0.740976
	C4165	C	0.350954	0.592709	0.757652
	C4166	C	0.274043	0.532118	0.758151
	C4167	C	0.336515	0.594643	0.741198
	C4168	C	0.277246	0.595070	0.919559
	C4169	C	0.340752	0.529069	0.910674
	C4170	C	0.284262	0.596012	0.411030
	C4171	C	0.346798	0.533844	0.587414
	C4172	C	0.284242	0.595802	0.911364
	C4173	C	0.347747	0.529970	0.918833
	C4174	C	0.277255	0.595274	0.419131
	C4175	C	0.339797	0.532899	0.579282
	C4176	C	0.285255	0.532482	0.830206
	C4177	C	0.347702	0.595251	0.668958
	C4178	C	0.277256	0.529767	0.669064
	C4179	C	0.339754	0.592063	0.830036
	C4180	C	0.278274	0.533365	0.838406
	C4181	C	0.340717	0.596100	0.660820
	C4182	C	0.284248	0.528915	0.660602
	C4183	C	0.346743	0.591306	0.838099
	N4184	N	0.255704	0.601865	0.979143
	N4185	N	0.318866	0.542357	0.923579
	N4186	N	0.306810	0.585495	0.521074
	N4187	N	0.368666	0.520345	0.574621
	N4188	N	0.306131	0.582658	0.924114
	N4189	N	0.369273	0.523215	0.977645
	N4190	N	0.256383	0.604527	0.576081
	N4191	N	0.318235	0.539070	0.521322
	N4192	N	0.306135	0.542103	0.673804
	N4193	N	0.369260	0.601751	0.727724
	N4194	N	0.256365	0.520180	0.825913
	N4195	N	0.318187	0.585719	0.770702
	N4196	N	0.255720	0.523258	0.728591
	N4197	N	0.318866	0.582490	0.673797
	N4198	N	0.306765	0.539159	0.770886
	N4199	N	0.368637	0.604623	0.824999
	H4200	H	0.262476	0.715625	0.368360
	H4201	H	0.327013	0.663210	0.326781
	H4202	H	0.299944	0.721326	0.131811
	H4203	H	0.360503	0.649630	0.170501
	H4204	H	0.298048	0.712110	0.327687
	H4205	H	0.362525	0.659805	0.368002
	H4206	H	0.264446	0.725154	0.173106
	H4207	H	0.324911	0.652563	0.130320
	H4208	H	0.297996	0.662679	0.077611
	H4209	H	0.362495	0.715597	0.117745
	H4210	H	0.264481	0.649210	0.422602
	H4211	H	0.324958	0.722321	0.380179
	H4212	H	0.262474	0.659835	0.118966
	H4213	H	0.326907	0.711399	0.076455
	H4214	H	0.300061	0.652907	0.382066
	H4215	H	0.360486	0.725258	0.421072
	H4216	H	0.276026	0.714829	0.659184
	H4217	H	0.338514	0.652104	0.339498
	H4218	H	0.288274	0.715742	0.144685
	H4219	H	0.348899	0.659771	0.158168
	H4220	H	0.288238	0.715872	0.645109
	H4221	H	0.350756	0.653460	0.353901
	H4222	H	0.276034	0.714658	0.159339
	H4223	H	0.336721	0.658916	0.143916
	H4224	H	0.288263	0.659299	0.395748
	H4225	H	0.350759	0.721305	0.103160
	H4226	H	0.274243	0.652890	0.105609
	H4227	H	0.336725	0.716527	0.393229
	H4228	H	0.276024	0.660486	0.409884
	H4229	H	0.338521	0.722337	0.088662
	H4230	H	0.286496	0.651745	0.090789
	H4231	H	0.348919	0.715098	0.408064
	Co4232	Co	0.375016	0.749996	0.154828
	Co4233	Co	0.312469	0.687215	0.094061
	Co4234	Co	0.250034	0.625171	0.406204
	Co4235	Co	0.312508	0.687491	0.343850
	C4236	C	0.261849	0.719580	0.443585
	C4237	C	0.325381	0.662280	0.400484
	C4238	C	0.300615	0.717579	0.056234
	C4239	C	0.362111	0.650504	0.097395
	C4240	C	0.299659	0.712740	0.401422
	C4241	C	0.363173	0.655444	0.443020
	C4242	C	0.262827	0.724526	0.099482
	C4243	C	0.324298	0.656750	0.055263
	C4244	C	0.299670	0.661906	0.151194
	C4245	C	0.363137	0.719667	0.192877
	C4246	C	0.262857	0.650273	0.349005
	C4247	C	0.324361	0.717958	0.304594
	C4248	C	0.261866	0.655470	0.194045
	C4249	C	0.325322	0.712620	0.149949
	C4250	C	0.300687	0.656880	0.306126
	C4251	C	0.362130	0.724570	0.347900
	C4252	C	0.266656	0.718635	0.516700
	C4253	C	0.329088	0.656030	-0.018172
	C4254	C	0.295858	0.718812	0.483016
	C4255	C	0.358321	0.656261	0.015768
	C4256	C	0.295867	0.656092	0.233139
	C4257	C	0.358332	0.718689	0.266047
	C4258	C	0.266687	0.656173	0.267381
	C4259	C	0.329146	0.718718	0.231212
	C4260	C	0.274035	0.717861	0.507912
	C4261	C	0.336492	0.655173	-0.009674
	C4262	C	0.288465	0.719834	0.491654
	C4263	C	0.350929	0.657025	0.006993
	C4264	C	0.288486	0.655147	0.242033
	C4265	C	0.350942	0.717849	0.256968
	C4266	C	0.274056	0.657018	0.258810
	C4267	C	0.336529	0.719735	0.239672
	C4268	C	0.278242	0.716502	0.588423
	C4269	C	0.340760	0.653915	0.410088
	C4270	C	0.285227	0.717023	0.080574
	C4271	C	0.346691	0.658282	0.087265
	C4272	C	0.285235	0.717345	0.580507
	C4273	C	0.347740	0.654828	0.418347
	C4274	C	0.278243	0.716323	0.088810
	C4275	C	0.339718	0.657552	0.079250
	C4276	C	0.285261	0.657730	0.331074
	C4277	C	0.347739	0.720051	0.167748
	C4278	C	0.277280	0.654467	0.169880
	C4279	C	0.339738	0.717643	0.328720
	C4280	C	0.278253	0.658536	0.339263
	C4281	C	0.340755	0.720743	0.159301
	C4282	C	0.284274	0.653635	0.161516
	C4283	C	0.346726	0.716744	0.337189
	N4284	N	0.255712	0.726653	0.478478
	N4285	N	0.318890	0.667303	0.423664
	N4286	N	0.306774	0.710625	0.021502
	N4287	N	0.368604	0.645321	0.075030
	N4288	N	0.306144	0.707531	0.424194
	N4289	N	0.369298	0.648183	0.477833
	N4290	N	0.256351	0.729655	0.076522
	N4291	N	0.318163	0.664160	0.020840
	N4292	N	0.306161	0.666948	0.173821
	N4293	N	0.369273	0.726877	0.227958
	N4294	N	0.256387	0.645349	0.325964
	N4295	N	0.318244	0.710571	0.270502
	N4296	N	0.255740	0.648388	0.228766
	N4297	N	0.318864	0.707513	0.173262
	N4298	N	0.306815	0.664069	0.271151
	N4299	N	0.368624	0.729752	0.324885
	H4300	H	0.262441	0.715682	0.868812
	H4301	H	0.326898	0.663100	0.827267
	H4302	H	0.300052	0.721907	0.631412
	H4303	H	0.360471	0.649482	0.671542
	H4304	H	0.298041	0.712255	0.827656
	H4305	H	0.362542	0.659298	0.867626
	H4306	H	0.264453	0.724708	0.672258
	H4307	H	0.325000	0.652495	0.630110
	H4308	H	0.298053	0.662890	0.578205
	H4309	H	0.362533	0.715262	0.618418
	H4310	H	0.264493	0.649404	0.922249
	H4311	H	0.324924	0.722556	0.880286
	H4312	H	0.262435	0.659523	0.618232
	H4313	H	0.326992	0.711364	0.577735
	H4314	H	0.300034	0.653066	0.880771
	H4315	H	0.360552	0.725293	0.921939
	H4316	H	0.274259	0.721535	0.855301
	H4317	H	0.338493	0.652178	0.839472
	H4318	H	0.286496	0.722852	0.340403
	H4319	H	0.348976	0.660187	0.658508
	H4320	H	0.286458	0.722540	0.840884
	H4321	H	0.350713	0.653466	0.853223
	H4322	H	0.274296	0.721469	0.353943
	H4323	H	0.336774	0.659066	0.643928
	H4324	H	0.286496	0.652142	0.590709
	H4325	H	0.350721	0.721452	0.604821
	H4326	H	0.276012	0.660490	0.908912
	H4327	H	0.336719	0.716038	0.895246
	H4328	H	0.274209	0.653412	0.604834
	H4329	H	0.338537	0.722485	0.590348
	H4330	H	0.288260	0.659030	0.894903
	H4331	H	0.348929	0.715043	0.909430
	Co4332	Co	0.375009	0.749929	0.654769
	Co4333	Co	0.312520	0.687228	0.594346
	Co4334	Co	0.249978	0.625018	0.906294
	Co4335	Co	0.312488	0.687731	0.844199
	C4336	C	0.261825	0.719572	0.944478
	C4337	C	0.325283	0.662139	0.900557
	C4338	C	0.300673	0.717910	0.556146
	C4339	C	0.362139	0.650203	0.597652
	C4340	C	0.299671	0.713106	0.900990
	C4341	C	0.363121	0.655413	0.942873
	C4342	C	0.262829	0.724223	0.598468
	C4343	C	0.324382	0.656765	0.555033
	C4344	C	0.299663	0.662046	0.651225
	C4345	C	0.363123	0.719486	0.693588
	C4346	C	0.262860	0.650144	0.848866
	C4347	C	0.324322	0.718143	0.805613
	C4348	C	0.261832	0.655320	0.693825
	C4349	C	0.325337	0.712621	0.650952
	C4350	C	0.300653	0.656967	0.806098
	C4351	C	0.362161	0.724479	0.848108
	C4352	C	0.266658	0.718651	1.017765
	C4353	C	0.329181	0.656202	0.481842
	C4354	C	0.295832	0.718491	0.982749
	C4355	C	0.358366	0.656280	0.516119
	C4356	C	0.295860	0.656093	0.732838
	C4357	C	0.358326	0.718611	0.766781
	C4358	C	0.266639	0.656238	0.767122
	C4359	C	0.329132	0.718700	0.732474
	C4360	C	0.274023	0.717725	1.008820
	C4361	C	0.336558	0.655313	0.490437
	C4362	C	0.288440	0.719427	0.991458
	C4363	C	0.350971	0.657282	0.507328
	C4364	C	0.288471	0.655234	0.741544
	C4365	C	0.350941	0.717833	0.758280
	C4366	C	0.274022	0.657286	0.758108
	C4367	C	0.336508	0.719631	0.741516
	C4368	C	0.277231	0.720098	0.919915
	C4369	C	0.340714	0.653960	0.909961
	C4370	C	0.284267	0.721128	0.411006
	C4371	C	0.346768	0.658573	0.587731
	C4372	C	0.284220	0.720798	0.911240
	C4373	C	0.347700	0.654708	0.917912
	C4374	C	0.277278	0.720157	0.418806
	C4375	C	0.339787	0.657764	0.579397
	C4376	C	0.284236	0.653903	0.661221
	C4377	C	0.347718	0.720006	0.669303
	C4378	C	0.278244	0.658563	0.838374
	C4379	C	0.339729	0.717378	0.830524
	C4380	C	0.277244	0.654822	0.669098
	C4381	C	0.340731	0.720790	0.661311
	C4382	C	0.285244	0.657664	0.830411
	C4383	C	0.346714	0.716580	0.838680
	N4384	N	0.255711	0.726887	0.979012
	N4385	N	0.318801	0.667349	0.923827
	N4386	N	0.306784	0.710479	0.521356
	N4387	N	0.368620	0.645008	0.574825
	N4388	N	0.306161	0.708066	0.924053
	N4389	N	0.369245	0.648053	0.977804
	N4390	N	0.256352	0.729318	0.576013
	N4391	N	0.318250	0.664155	0.520506
	N4392	N	0.306140	0.667192	0.674198
	N4393	N	0.369264	0.726680	0.727817
	N4394	N	0.256372	0.645031	0.826033
	N4395	N	0.318185	0.710834	0.770919
	N4396	N	0.255708	0.647984	0.728889
	N4397	N	0.318855	0.707591	0.673733
	N4398	N	0.306766	0.664365	0.771508
	N4399	N	0.368645	0.729520	0.824934
	H4400	H	0.262456	0.840202	0.368647
	H4401	H	0.326969	0.788560	0.326903
	H4402	H	0.300019	0.846801	0.131611
	H4403	H	0.360566	0.774721	0.171623
	H4404	H	0.297996	0.836654	0.326975
	H4405	H	0.362525	0.784311	0.366814
	H4406	H	0.264412	0.850147	0.172483
	H4407	H	0.324990	0.777641	0.130936
	H4408	H	0.298029	0.787906	0.076899
	H4409	H	0.362551	0.840570	0.118038
	H4410	H	0.264553	0.774612	0.421719
	H4411	H	0.324936	0.847428	0.380663
	H4412	H	0.262443	0.784555	0.118746
	H4413	H	0.326963	0.836925	0.077232
	H4414	H	0.300041	0.778012	0.381202
	H4415	H	0.360473	0.850949	0.421062
	H4416	H	0.275994	0.839445	0.659424
	H4417	H	0.338558	0.777811	0.339382
	H4418	H	0.288163	0.840940	0.145607
	H4419	H	0.349037	0.785293	0.158541
	H4420	H	0.288178	0.840952	0.644818
	H4421	H	0.350773	0.779065	0.353574
	H4422	H	0.275970	0.839607	0.159261
	H4423	H	0.336787	0.784278	0.144212
	H4424	H	0.288271	0.783854	0.394034
	H4425	H	0.348934	0.840259	0.408549
	H4426	H	0.274244	0.778194	0.103806
	H4427	H	0.338488	0.847332	0.090048
	H4428	H	0.276077	0.785342	0.408924
	H4429	H	0.336688	0.841405	0.394242
	H4430	H	0.286452	0.776876	0.089653
	H4431	H	0.350738	0.845907	0.103869
	Co4432	Co	0.375021	0.875047	0.154485
	Co4433	Co	0.312460	0.812287	0.093812
	Co4434	Co	0.250040	0.750093	0.406362
	Co4435	Co	0.312487	0.812541	0.344164
	C4436	C	0.261803	0.844367	0.443625
	C4437	C	0.325346	0.787391	0.400397
	C4438	C	0.300625	0.842865	0.056301
	C4439	C	0.362182	0.775327	0.097786
	C4440	C	0.299622	0.837631	0.400797
	C4441	C	0.363128	0.780255	0.442494
	C4442	C	0.262783	0.849498	0.098364
	C4443	C	0.324346	0.782057	0.055519
	C4444	C	0.299655	0.786920	0.150607
	C4445	C	0.363128	0.844609	0.193354
	C4446	C	0.262877	0.775207	0.348913
	C4447	C	0.324301	0.843230	0.305517
	C4448	C	0.261821	0.780397	0.193821
	C4449	C	0.325292	0.837860	0.150704
	C4450	C	0.300659	0.781841	0.305575
	C4451	C	0.362093	0.849935	0.347959
	C4452	C	0.266621	0.843381	0.517031
	C4453	C	0.329171	0.781453	-0.017735
	C4454	C	0.295788	0.843694	0.482467
	C4455	C	0.358377	0.781212	0.015921
	C4456	C	0.295842	0.781016	0.232259
	C4457	C	0.358304	0.843832	0.266308
	C4458	C	0.266660	0.781177	0.266822
	C4459	C	0.329109	0.844025	0.231972
	C4460	C	0.273994	0.842642	0.508221
	C4461	C	0.336560	0.780509	-0.009078
	C4462	C	0.288428	0.844683	0.491045
	C4463	C	0.351005	0.782174	0.007367
	C4464	C	0.288449	0.780104	0.240787
	C4465	C	0.350935	0.842778	0.257357
	C4466	C	0.274035	0.782074	0.257707
	C4467	C	0.336513	0.844915	0.240846
	C4468	C	0.278198	0.841388	0.588697
	C4469	C	0.340776	0.779354	0.409919
	C4470	C	0.285177	0.842134	0.080758
	C4471	C	0.346801	0.783609	0.087918
	C4472	C	0.285202	0.842246	0.580074
	C4473	C	0.347746	0.780184	0.417810
	C4474	C	0.278190	0.841306	0.088598
	C4475	C	0.339795	0.782915	0.079698
	C4476	C	0.285237	0.782488	0.329787
	C4477	C	0.346715	0.841693	0.337829
	C4478	C	0.277243	0.779628	0.168570
	C4479	C	0.340730	0.845796	0.160493
	C4480	C	0.278247	0.783379	0.338055
	C4481	C	0.339720	0.842599	0.329924
	C4482	C	0.284235	0.778841	0.160272
	C4483	C	0.347726	0.844872	0.168495
	N4484	N	0.255700	0.851689	0.478655
	N4485	N	0.318859	0.792478	0.423672
	N4486	N	0.306741	0.835612	0.021225
	N4487	N	0.368650	0.770066	0.074646
	N4488	N	0.306086	0.832426	0.424125
	N4489	N	0.369281	0.772950	0.477273
	N4490	N	0.256304	0.854702	0.075130
	N4491	N	0.318220	0.789375	0.020678
	N4492	N	0.306119	0.792156	0.173884
	N4493	N	0.369224	0.852080	0.227987
	N4494	N	0.256387	0.770153	0.326352
	N4495	N	0.318193	0.835653	0.270846
	N4496	N	0.255703	0.773096	0.229130
	N4497	N	0.318824	0.832542	0.173842
	N4498	N	0.306761	0.789278	0.270829
	N4499	N	0.368567	0.855123	0.325046
	H4500	H	0.262426	0.840162	0.867816
	H4501	H	0.326985	0.788452	0.827346
	H4502	H	0.299964	0.846901	0.631277
	H4503	H	0.360558	0.774642	0.670674
	H4504	H	0.297944	0.836949	0.827997
	H4505	H	0.362553	0.784165	0.867438
	H4506	H	0.264415	0.849824	0.672276
	H4507	H	0.324990	0.777565	0.629436
	H4508	H	0.297994	0.788229	0.577744
	H4509	H	0.362480	0.840871	0.617549
	H4510	H	0.264454	0.774962	0.922846
	H4511	H	0.324963	0.847491	0.880209
	H4512	H	0.262469	0.784155	0.618308
	H4513	H	0.326969	0.837169	0.577241
	H4514	H	0.300014	0.777933	0.880947
	H4515	H	0.360575	0.850148	0.921327
	H4516	H	0.274196	0.846182	0.854660
	H4517	H	0.338561	0.777457	0.840012
	H4518	H	0.286396	0.847705	0.339965
	H4519	H	0.348993	0.784618	0.657888
	H4520	H	0.286420	0.847698	0.840726
	H4521	H	0.350756	0.778510	0.853752
	H4522	H	0.274184	0.846193	0.354805
	H4523	H	0.336756	0.783531	0.643617
	H4524	H	0.286448	0.777147	0.590262
	H4525	H	0.350753	0.845826	0.604047
	H4526	H	0.276016	0.784943	0.909327
	H4527	H	0.336723	0.841758	0.893722
	H4528	H	0.274287	0.778056	0.604820
	H4529	H	0.338481	0.846911	0.589425
	H4530	H	0.288257	0.783765	0.895026
	H4531	H	0.348913	0.840679	0.908336
	Co4532	Co	0.374967	0.875280	0.654727
	Co4533	Co	0.312512	0.812456	0.594595
	Co4534	Co	0.249976	0.750143	0.906239
	Co4535	Co	0.312519	0.812794	0.843995
	C4536	C	0.261786	0.844337	0.943180
	C4537	C	0.325354	0.787606	0.900623
	C4538	C	0.300604	0.842792	0.555924
	C4539	C	0.362150	0.775262	0.597317
	C4540	C	0.299603	0.837816	0.901240
	C4541	C	0.363173	0.780135	0.942427
	C4542	C	0.262785	0.849263	0.599032
	C4543	C	0.324353	0.781820	0.554865
	C4544	C	0.299632	0.787336	0.651218
	C4545	C	0.363140	0.844769	0.692765
	C4546	C	0.262810	0.775439	0.848947
	C4547	C	0.324325	0.843286	0.805182
	C4548	C	0.261853	0.779996	0.693651
	C4549	C	0.325312	0.837942	0.650290
	C4550	C	0.300657	0.781986	0.806109
	C4551	C	0.362184	0.849454	0.847549
	C4552	C	0.266588	0.843494	1.016651
	C4553	C	0.329138	0.781242	0.481654
	C4554	C	0.295806	0.843689	0.983080
	C4555	C	0.358368	0.781184	0.515837
	C4556	C	0.295839	0.781267	0.732932
	C4557	C	0.358329	0.843807	0.765959
	C4558	C	0.266670	0.781210	0.767291
	C4559	C	0.329146	0.843973	0.731604
	C4560	C	0.273979	0.842566	1.008110
	C4561	C	0.336560	0.780305	0.490299
	C4562	C	0.288414	0.844647	0.991906
	C4563	C	0.350966	0.782230	0.506995
	C4564	C	0.288468	0.780244	0.741524
	C4565	C	0.350960	0.842873	0.757330
	C4566	C	0.274053	0.782053	0.758472
	C4567	C	0.336526	0.844726	0.740132
	C4568	C	0.277205	0.844938	0.919182
	C4569	C	0.340766	0.779221	0.910690
	C4570	C	0.284206	0.845858	0.410698
	C4571	C	0.346745	0.783217	0.587401
	C4572	C	0.284198	0.845888	0.911447
	C4573	C	0.347765	0.779850	0.918523
	C4574	C	0.277202	0.844991	0.419141
	C4575	C	0.339773	0.782399	0.579328
	C4576	C	0.284253	0.778891	0.661081
	C4577	C	0.347745	0.844774	0.668309
	C4578	C	0.278244	0.783378	0.838714
	C4579	C	0.339730	0.842641	0.829185
	C4580	C	0.277262	0.779632	0.669509
	C4581	C	0.340741	0.845645	0.659903
	C4582	C	0.285236	0.782509	0.830574
	C4583	C	0.346731	0.841837	0.837534
	N4584	N	0.255657	0.851698	0.978080
	N4585	N	0.318880	0.792591	0.923635
	N4586	N	0.306722	0.835426	0.521390
	N4587	N	0.368654	0.770066	0.574309
	N4588	N	0.306091	0.832673	0.924064
	N4589	N	0.369289	0.772833	0.977438
	N4590	N	0.256326	0.854507	0.575779
	N4591	N	0.318233	0.789315	0.520671
	N4592	N	0.306121	0.792390	0.674154
	N4593	N	0.369277	0.851869	0.727294
	N4594	N	0.256345	0.770254	0.825784
	N4595	N	0.318194	0.836043	0.770608
	N4596	N	0.255728	0.772871	0.728709
	N4597	N	0.318828	0.832981	0.673689
	N4598	N	0.306786	0.789318	0.771441
	N4599	N	0.368654	0.854593	0.824580
	H4600	H	0.262395	0.965439	0.369278
	H4601	H	0.326919	0.913225	0.327135
	H4602	H	0.300015	0.971607	0.131617
	H4603	H	0.360594	0.899545	0.171132
	H4604	H	0.297992	0.961781	0.326921
	H4605	H	0.362539	0.909338	0.367321
	H4606	H	0.264434	0.975129	0.172838
	H4607	H	0.325029	0.902828	0.130374
	H4608	H	0.298061	0.912715	0.077353
	H4609	H	0.362494	0.966118	0.117692
	H4610	H	0.264469	0.899569	0.421977
	H4611	H	0.324887	0.972843	0.380700
	H4612	H	0.262509	0.909173	0.118158
	H4613	H	0.326985	0.961685	0.077126
	H4614	H	0.299974	0.903233	0.381388
	H4615	H	0.360615	0.975139	0.421525
	H4616	H	0.274219	0.971265	0.354246
	H4617	H	0.336713	0.908241	0.643994
	H4618	H	0.286424	0.972194	-0.159598
	H4619	H	0.350764	0.903944	-0.146060
	H4620	H	0.286439	0.972786	0.340014
	H4621	H	0.348974	0.909674	0.658219
	H4622	H	0.274209	0.971351	-0.144657
	H4623	H	0.338544	0.903058	-0.160765
	H4624	H	0.286464	0.902382	0.090000
	H4625	H	0.350696	0.971229	0.103991
	H4626	H	0.276025	0.910036	0.409165
	H4627	H	0.336727	0.966520	0.394705
	H4628	H	0.274243	0.903227	0.104622
	H4629	H	0.338473	0.972414	0.090024
	H4630	H	0.288235	0.909302	0.394648
	H4631	H	0.348937	0.965564	0.408565
	Co4632	Co	0.374952	1.000231	0.154821
	Co4633	Co	0.312517	0.937078	0.094384
	Co4634	Co	0.249981	0.874960	0.405554
	Co4635	Co	0.312461	0.937627	0.343958
	C4636	C	0.261815	0.969447	0.444238
	C4637	C	0.325345	0.912498	0.400557
	C4638	C	0.300642	0.967584	0.056051
	C4639	C	0.362218	0.900569	0.097715
	C4640	C	0.299610	0.962816	0.400925
	C4641	C	0.363133	0.905590	0.442506
	C4642	C	0.262827	0.974426	0.099202
	C4643	C	0.324382	0.906838	0.054787
	C4644	C	0.299696	0.911982	0.150675
	C4645	C	0.363098	0.970122	0.192721
	C4646	C	0.262813	0.900255	0.348683
	C4647	C	0.324279	0.968380	0.305540
	C4648	C	0.261835	0.905207	0.193565
	C4649	C	0.325312	0.962813	0.150919
	C4650	C	0.300640	0.907204	0.306056
	C4651	C	0.362171	0.974584	0.347771
	C4652	C	0.266634	0.968843	0.517166
	C4653	C	0.329169	0.906163	-0.018418
	C4654	C	0.295819	0.968888	0.482549
	C4655	C	0.358376	0.906258	0.016319
	C4656	C	0.295833	0.906451	0.232358
	C4657	C	0.358324	0.969060	0.266094
	C4658	C	0.266636	0.905955	0.266840
	C4659	C	0.329089	0.969026	0.232239
	C4660	C	0.274023	0.967825	0.507942
	C4661	C	0.336557	0.905379	-0.009635
	C4662	C	0.288436	0.969796	0.491251
	C4663	C	0.350979	0.907276	0.007604
	C4664	C	0.288450	0.905528	0.240959
	C4665	C	0.350944	0.968192	0.257550
	C4666	C	0.274023	0.906949	0.257976
	C4667	C	0.336486	0.970010	0.241069
	C4668	C	0.277246	0.970144	0.418757
	C4669	C	0.339744	0.907499	0.579801
	C4670	C	0.284242	0.970637	-0.088765
	C4671	C	0.347759	0.905216	-0.081543
	C4672	C	0.284222	0.971032	0.410728
	C4673	C	0.346734	0.908308	0.587748
	C4674	C	0.277242	0.969903	-0.080499
	C4675	C	0.340775	0.904383	-0.090008
	C4676	C	0.284244	0.904129	0.160724
	C4677	C	0.347697	0.970177	0.168716
	C4678	C	0.278244	0.908498	0.338392
	C4679	C	0.339729	0.967951	0.330078
	C4680	C	0.277245	0.904792	0.168952
	C4681	C	0.340703	0.970992	0.160672
	C4682	C	0.285232	0.907933	0.330061
	C4683	C	0.346725	0.967174	0.337903
	N4684	N	0.255686	0.976769	0.479099
	N4685	N	0.318869	0.917549	0.423459
	N4686	N	0.306754	0.960222	0.021426
	N4687	N	0.368679	0.895339	0.074478
	N4688	N	0.306092	0.957792	0.423849
	N4689	N	0.369279	0.898361	0.477556
	N4690	N	0.256350	0.979585	0.075927
	N4691	N	0.318258	0.914169	0.020296
	N4692	N	0.306190	0.916879	0.174085
	N4693	N	0.369249	0.977112	0.227402
	N4694	N	0.256310	0.895394	0.325764
	N4695	N	0.318160	0.960947	0.270931
	N4696	N	0.255689	0.898216	0.228478
	N4697	N	0.318835	0.957613	0.173833
	N4698	N	0.306797	0.914145	0.271237
	N4699	N	0.368654	0.979695	0.324744
	H4700	H	0.262521	0.965602	0.868819
	H4701	H	0.326978	0.912841	0.826131
	H4702	H	0.300036	0.972292	0.631171
	H4703	H	0.360516	0.900001	0.671209
	H4704	H	0.298076	0.962051	0.827751
	H4705	H	0.362501	0.909221	0.867089
	H4706	H	0.264494	0.975820	0.672293
	H4707	H	0.324927	0.903086	0.630249
	H4708	H	0.298021	0.913097	0.577181
	H4709	H	0.362601	0.965047	0.618166
	H4710	H	0.264445	0.899443	0.921736
	H4711	H	0.325059	0.971682	0.880067
	H4712	H	0.262474	0.909287	0.618322
	H4713	H	0.326907	0.962372	0.576756
	H4714	H	0.300088	0.902670	0.880572
	H4715	H	0.360548	0.975766	0.921815
	H4716	H	0.276046	0.964959	1.159676
	H4717	H	0.336738	0.908469	1.143515
	H4718	H	0.288234	0.966098	0.644804
	H4719	H	0.350734	0.904552	0.353796
	H4720	H	0.288246	0.966173	1.145249
	H4721	H	0.348980	0.909582	1.158385
	H4722	H	0.275988	0.964795	0.658975
	H4723	H	0.338516	0.903320	0.339732
	H4724	H	0.288277	0.908460	0.894474
	H4725	H	0.350834	0.970999	0.604552
	H4726	H	0.274278	0.903714	0.604242
	H4727	H	0.336785	0.966669	0.893959
	H4728	H	0.276096	0.909772	0.908910
	H4729	H	0.338599	0.972075	0.589446
	H4730	H	0.286511	0.902467	0.589914
	H4731	H	0.349005	0.965378	0.908465
	Co4732	Co	0.375050	0.999895	0.654746
	Co4733	Co	0.312507	0.937658	0.594171
	Co4734	Co	0.249984	0.875333	0.905494
	Co4735	Co	0.312493	0.937497	0.843781
	C4736	C	0.261857	0.969466	0.944250
	C4737	C	0.325363	0.912113	0.900047
	C4738	C	0.300625	0.968253	0.555697
	C4739	C	0.362152	0.900715	0.597624
	C4740	C	0.299669	0.962717	0.901199
	C4741	C	0.363141	0.905251	0.942697
	C4742	C	0.262873	0.974963	0.598779
	C4743	C	0.324350	0.907239	0.555303
	C4744	C	0.299687	0.912188	0.650625
	C4745	C	0.363209	0.969262	0.693465
	C4746	C	0.262879	0.900397	0.848201
	C4747	C	0.324397	0.967727	0.804999
	C4748	C	0.261887	0.905280	0.693483
	C4749	C	0.325320	0.963096	0.650086
	C4750	C	0.300693	0.906875	0.805371
	C4751	C	0.362170	0.974797	0.848134
	C4752	C	0.266654	0.968559	1.017607
	C4753	C	0.329140	0.906448	0.482105
	C4754	C	0.295833	0.968598	0.982867
	C4755	C	0.358357	0.906545	0.516024
	C4756	C	0.295910	0.906055	0.731958
	C4757	C	0.358392	0.968618	0.766568
	C4758	C	0.266673	0.906188	0.766559
	C4759	C	0.329170	0.968637	0.731668
	C4760	C	0.274041	0.967650	1.008665
	C4761	C	0.336529	0.905588	0.490871
	C4762	C	0.288456	0.969554	0.991574
	C4763	C	0.350954	0.907482	0.507356
	C4764	C	0.288487	0.905135	0.740831
	C4765	C	0.350997	0.967703	0.757699
	C4766	C	0.274060	0.907068	0.757774
	C4767	C	0.336576	0.969601	0.740391
	C4768	C	0.278263	0.966387	1.088934
	C4769	C	0.339774	0.907379	1.079268
	C4770	C	0.285217	0.967367	0.580286
	C4771	C	0.347725	0.905413	0.418301
	C4772	C	0.285246	0.967327	1.080610
	C4773	C	0.346757	0.908229	1.087694
	C4774	C	0.278228	0.966550	0.588517
	C4775	C	0.340739	0.904692	0.410442
	C4776	C	0.285267	0.907338	0.829991
	C4777	C	0.347797	0.969856	0.668699
	C4778	C	0.277289	0.904925	0.668616
	C4779	C	0.339794	0.967655	0.829556
	C4780	C	0.278293	0.908230	0.838142
	C4781	C	0.340814	0.970658	0.660185
	C4782	C	0.284269	0.904085	0.660503
	C4783	C	0.346777	0.966816	0.837849
	N4784	N	0.255723	0.976717	0.978808
	N4785	N	0.318873	0.917179	0.923258
	N4786	N	0.306745	0.960921	0.521170
	N4787	N	0.368650	0.895489	0.574646
	N4788	N	0.306126	0.957456	0.924140
	N4789	N	0.369290	0.898114	0.977223
	N4790	N	0.256372	0.979934	0.576070
	N4791	N	0.318236	0.914584	0.520694
	N4792	N	0.306172	0.917460	0.673709
	N4793	N	0.369337	0.976698	0.728322
	N4794	N	0.256390	0.895288	0.825495
	N4795	N	0.318237	0.960724	0.770779
	N4796	N	0.255745	0.898152	0.728075
	N4797	N	0.318840	0.958005	0.673344
	N4798	N	0.306827	0.914340	0.770517
	N4799	N	0.368659	0.979902	0.825065
	H4800	H	0.387375	0.089957	0.367514
	H4801	H	0.452034	0.037968	0.325771
	H4802	H	0.424992	0.097352	0.129296
	H4803	H	0.485527	0.024107	0.171898
	H4804	H	0.422994	0.086499	0.326067
	H4805	H	0.487638	0.035065	0.367945
	H4806	H	0.389427	0.100353	0.171327
	H4807	H	0.449923	0.027897	0.129627
	H4808	H	0.422975	0.038507	0.076008
	H4809	H	0.487435	0.090087	0.118846
	H4810	H	0.389472	0.023971	0.421503
	H4811	H	0.449846	0.097401	0.380191
	H4812	H	0.387360	0.035000	0.118455
	H4813	H	0.451955	0.087054	0.076491
	H4814	H	0.425050	0.027359	0.379119
	H4815	H	0.485361	0.101393	0.421902
	H4816	H	0.401058	0.089754	0.658313
	H4817	H	0.463568	0.027367	0.339183
	H4818	H	0.413222	0.090954	0.143399
	H4819	H	0.475751	0.028375	-0.146019
	H4820	H	0.413269	0.091133	0.643751
	H4821	H	0.475812	0.028709	0.353799
	H4822	H	0.400982	0.089581	0.158206
	H4823	H	0.463542	0.026835	-0.160782
	H4824	H	0.411397	0.026707	0.088801
	H4825	H	0.473863	0.089765	0.409549
	H4826	H	0.401003	0.035719	0.408080
	H4827	H	0.463486	0.098590	0.090224
	H4828	H	0.399183	0.028111	0.103756
	H4829	H	0.461623	0.090920	0.394657
	H4830	H	0.413261	0.034216	0.393298
	H4831	H	0.475697	0.097034	0.104966
	Co4832	Co	0.499952	0.124571	0.154766
	Co4833	Co	0.437459	0.062560	0.092646
	Co4834	Co	0.375016	-0.000201	0.404806
	Co4835	Co	0.437500	0.062180	0.342503
	C4836	C	0.386830	0.094166	0.443269
	C4837	C	0.450376	0.037184	0.399466
	C4838	C	0.425622	0.093059	0.054189
	C4839	C	0.487137	0.025229	0.098160
	C4840	C	0.424618	0.087564	0.399200
	C4841	C	0.488216	0.030794	0.443269
	C4842	C	0.387799	0.099436	0.097818
	C4843	C	0.449340	0.031989	0.054382
	C4844	C	0.424618	0.037212	0.149615
	C4845	C	0.488072	0.094373	0.193926
	C4846	C	0.387857	0.025041	0.348039
	C4847	C	0.449259	0.093081	0.304924
	C4848	C	0.386806	0.030812	0.193561
	C4849	C	0.450299	0.087938	0.150048
	C4850	C	0.425634	0.031650	0.304129
	C4851	C	0.487049	0.100229	0.348712
	C4852	C	0.391635	0.093338	0.516240
	C4853	C	0.454133	0.031255	-0.018711
	C4854	C	0.420841	0.093694	0.480743
	C4855	C	0.483358	0.031329	0.016424
	C4856	C	0.420828	0.031033	0.231047
	C4857	C	0.483248	0.093973	0.267235
	C4858	C	0.391624	0.031267	0.266496
	C4859	C	0.454084	0.093962	0.231871
	C4860	C	0.399038	0.092371	0.507111
	C4861	C	0.461529	0.030279	-0.009896
	C4862	C	0.413452	0.094504	0.489717
	C4863	C	0.475959	0.032320	0.007457
	C4864	C	0.413430	0.030116	0.239862
	C4865	C	0.475865	0.093096	0.258412
	C4866	C	0.399010	0.032157	0.257234
	C4867	C	0.461461	0.095003	0.241079
	C4868	C	0.403276	0.091362	0.587522
	C4869	C	0.465799	0.029218	0.409877
	C4870	C	0.410208	0.092103	0.078941
	C4871	C	0.472748	0.029806	-0.081588
	C4872	C	0.410254	0.092294	0.579064
	C4873	C	0.472781	0.030013	0.418214
	C4874	C	0.403214	0.091284	0.087449
	C4875	C	0.465771	0.028804	-0.090134
	C4876	C	0.409194	0.028642	0.159598
	C4877	C	0.471646	0.091611	0.338854
	C4878	C	0.403237	0.033656	0.337472
	C4879	C	0.465690	0.096529	0.160885
	C4880	C	0.402213	0.029468	0.168079
	C4881	C	0.464655	0.092334	0.330323
	C4882	C	0.410223	0.032805	0.328988
	C4883	C	0.472672	0.095646	0.169266
	N4884	N	0.380719	0.101653	0.477978
	N4885	N	0.443893	0.042308	0.422527
	N4886	N	0.431743	0.085738	0.019532
	N4887	N	0.493619	0.020050	0.075265
	N4888	N	0.431107	0.082391	0.422133
	N4889	N	0.494328	0.023258	0.478064
	N4890	N	0.381338	0.104800	0.074859
	N4891	N	0.443221	0.039375	0.019693
	N4892	N	0.431095	0.042312	0.172353
	N4893	N	0.494189	0.101695	0.228533
	N4894	N	0.381364	0.020131	0.325369
	N4895	N	0.443143	0.085745	0.269935
	N4896	N	0.380681	0.023441	0.228376
	N4897	N	0.443817	0.082765	0.172698
	N4898	N	0.431754	0.039079	0.269477
	N4899	N	0.493545	0.105101	0.325555
	H4900	H	0.387378	0.090665	0.867597
	H4901	H	0.451962	0.038042	0.826004
	H4902	H	0.425060	0.097439	0.629106
	H4903	H	0.485534	0.024300	0.671645
	H4904	H	0.422974	0.086774	0.825648
	H4905	H	0.487579	0.034614	0.867925
	H4906	H	0.389466	0.100312	0.671409
	H4907	H	0.450033	0.028084	0.629888
	H4908	H	0.423030	0.038529	0.576469
	H4909	H	0.487594	0.090135	0.618419
	H4910	H	0.389465	0.025032	0.921511
	H4911	H	0.449941	0.097051	0.879956
	H4912	H	0.387530	0.034229	0.617429
	H4913	H	0.452006	0.086795	0.576331
	H4914	H	0.425091	0.028076	0.880521
	H4915	H	0.485479	0.100989	0.922334
	H4916	H	0.399189	0.096258	0.853560
	H4917	H	0.461702	0.034240	1.143447
	H4918	H	0.411422	0.097380	0.338557
	H4919	H	0.473970	0.035397	0.658146
	H4920	H	0.411418	0.097431	0.838753
	H4921	H	0.473918	0.035324	1.158381
	H4922	H	0.399184	0.095979	0.353410
	H4923	H	0.461745	0.034259	0.643571
	H4924	H	0.411518	0.027932	0.589394
	H4925	H	0.475796	0.096624	0.604078
	H4926	H	0.401044	0.035039	0.908454
	H4927	H	0.461730	0.091148	0.894104
	H4928	H	0.399238	0.028561	0.603559
	H4929	H	0.463587	0.097814	0.589519
	H4930	H	0.413282	0.034067	0.894034
	H4931	H	0.473929	0.089690	0.909196
	Co4932	Co	0.500022	0.124925	0.655417
	Co4933	Co	0.437490	0.062600	0.592708
	Co4934	Co	0.374972	0.000330	0.904876
	Co4935	Co	0.437497	0.062391	0.842953
	C4936	C	0.386793	0.094454	0.942644
	C4937	C	0.450369	0.037267	0.899638
	C4938	C	0.425638	0.093041	0.553884
	C4939	C	0.487159	0.025225	0.598107
	C4940	C	0.424624	0.087577	0.899395
	C4941	C	0.488162	0.030573	0.943227
	C4942	C	0.387879	0.099582	0.597723
	C4943	C	0.449382	0.032272	0.554633
	C4944	C	0.424655	0.037433	0.649940
	C4945	C	0.488184	0.094246	0.694077
	C4946	C	0.387864	0.025471	0.847947
	C4947	C	0.449348	0.093159	0.804424
	C4948	C	0.386879	0.030311	0.693034
	C4949	C	0.450385	0.087824	0.649653
	C4950	C	0.425674	0.032127	0.805074
	C4951	C	0.487126	0.100013	0.848735
	C4952	C	0.391604	0.093497	1.016124
	C4953	C	0.454175	0.031415	0.481272
	C4954	C	0.420812	0.093668	0.981037
	C4955	C	0.483391	0.031557	0.516341
	C4956	C	0.420855	0.031479	0.731715
	C4957	C	0.483359	0.093787	0.767101
	C4958	C	0.391670	0.031214	0.766215
	C4959	C	0.454170	0.093842	0.731386
	C4960	C	0.398979	0.092520	1.007224
	C4961	C	0.461570	0.030579	0.490045
	C4962	C	0.413417	0.094438	0.989873
	C4963	C	0.475991	0.032520	0.507315
	C4964	C	0.413474	0.030552	0.740410
	C4965	C	0.475987	0.092768	0.757893
	C4966	C	0.399062	0.032119	0.757263
	C4967	C	0.461565	0.094873	0.740588
	C4968	C	0.402201	0.094904	0.918018
	C4969	C	0.464746	0.032866	1.079215
	C4970	C	0.409216	0.095720	0.409372
	C4971	C	0.471754	0.033707	0.587435
	C4972	C	0.409203	0.095631	0.909558
	C4973	C	0.471726	0.033625	1.087555
	C4974	C	0.402237	0.094794	0.417694
	C4975	C	0.464765	0.032933	0.579220
	C4976	C	0.409271	0.029274	0.659996
	C4977	C	0.472787	0.095231	0.668576
	C4978	C	0.403282	0.033343	0.837786
	C4979	C	0.464767	0.092501	0.829795
	C4980	C	0.402279	0.029866	0.667928
	C4981	C	0.465803	0.096130	0.660290
	C4982	C	0.410266	0.032703	0.829508
	C4983	C	0.471750	0.091454	0.838234
	N4984	N	0.380680	0.101951	0.977527
	N4985	N	0.443878	0.042355	0.922347
	N4986	N	0.431768	0.085654	0.519315
	N4987	N	0.493643	0.020060	0.575197
	N4988	N	0.431104	0.082579	0.922461
	N4989	N	0.494278	0.023157	0.978030
	N4990	N	0.381394	0.104803	0.575000
	N4991	N	0.443250	0.039507	0.519713
	N4992	N	0.431149	0.042448	0.672985
	N4993	N	0.494301	0.101708	0.728842
	N4994	N	0.381371	0.020400	0.825116
	N4995	N	0.443245	0.085673	0.769738
	N4996	N	0.380748	0.023143	0.727815
	N4997	N	0.443902	0.082644	0.672654
	N4998	N	0.431810	0.039311	0.770035
	N4999	N	0.493618	0.105023	0.826090
	H5000	H	0.387483	0.215165	0.366801
	H5001	H	0.452071	0.163236	0.326997
	H5002	H	0.425028	0.222042	0.130154
	H5003	H	0.485523	0.149318	0.171566
	H5004	H	0.423047	0.211884	0.325488
	H5005	H	0.487616	0.160249	0.369094
	H5006	H	0.389465	0.225868	0.171153
	H5007	H	0.449998	0.153198	0.130127
	H5008	H	0.423048	0.162967	0.075594
	H5009	H	0.487512	0.214760	0.119343
	H5010	H	0.389516	0.149404	0.421136
	H5011	H	0.449918	0.222255	0.380067
	H5012	H	0.387535	0.159295	0.116831
	H5013	H	0.451932	0.212122	0.076219
	H5014	H	0.425033	0.153066	0.379701
	H5015	H	0.485442	0.226327	0.422518
	H5016	H	0.399225	0.221299	0.352915
	H5017	H	0.461775	0.159318	0.644387
	H5018	H	0.413287	0.215368	0.143869
	H5019	H	0.474017	0.160841	0.158603
	H5020	H	0.411476	0.222281	0.338225
	H5021	H	0.473988	0.160491	0.659062
	H5022	H	0.401029	0.214163	0.158432
	H5023	H	0.461765	0.159994	0.144021
	H5024	H	0.411527	0.152540	0.088601
	H5025	H	0.475758	0.222148	0.104537
	H5026	H	0.401076	0.159449	0.407947
	H5027	H	0.461658	0.216200	0.394098
	H5028	H	0.399277	0.153461	0.103671
	H5029	H	0.463528	0.223310	0.089552
	H5030	H	0.413303	0.158210	0.393263
	H5031	H	0.473890	0.214886	0.408978
	Co5032	Co	0.499980	0.249530	0.155028
	Co5033	Co	0.437501	0.187421	0.092827
	Co5034	Co	0.374991	0.124871	0.404494
	Co5035	Co	0.437513	0.187430	0.342992
	C5036	C	0.386840	0.219306	0.442107
	C5037	C	0.450382	0.162186	0.400126
	C5038	C	0.425652	0.217821	0.054936
	C5039	C	0.487159	0.150221	0.098309
	C5040	C	0.424649	0.212691	0.399044
	C5041	C	0.488207	0.155771	0.443810
	C5042	C	0.387837	0.224883	0.097748
	C5043	C	0.449402	0.157166	0.054780
	C5044	C	0.424687	0.161980	0.149181
	C5045	C	0.488138	0.219324	0.194291
	C5046	C	0.387867	0.150180	0.347457
	C5047	C	0.449312	0.218176	0.304578
	C5048	C	0.386877	0.155217	0.192587
	C5049	C	0.450324	0.213060	0.149622
	C5050	C	0.425680	0.156815	0.304431
	C5051	C	0.487117	0.225056	0.348724
	C5052	C	0.391669	0.218598	0.515246
	C5053	C	0.454193	0.156481	-0.018290
	C5054	C	0.420830	0.218646	0.480537
	C5055	C	0.483407	0.156411	0.016742
	C5056	C	0.420877	0.155995	0.230945
	C5057	C	0.483306	0.218903	0.267301
	C5058	C	0.391694	0.156048	0.265806
	C5059	C	0.454118	0.219023	0.231467
	C5060	C	0.399053	0.217573	0.506488
	C5061	C	0.461587	0.155554	-0.009283
	C5062	C	0.413460	0.219420	0.489360
	C5063	C	0.475991	0.157342	0.007749
	C5064	C	0.413506	0.154982	0.239736
	C5065	C	0.475919	0.218034	0.258107
	C5066	C	0.399094	0.156835	0.256953
	C5067	C	0.461489	0.219978	0.240322
	C5068	C	0.402253	0.219878	0.417333
	C5069	C	0.464795	0.157832	0.579977
	C5070	C	0.410233	0.216832	0.079808
	C5071	C	0.471766	0.159066	0.088064
	C5072	C	0.409246	0.220685	0.408950
	C5073	C	0.471788	0.158746	0.588231
	C5074	C	0.403248	0.216102	0.087731
	C5075	C	0.464793	0.158318	0.079863
	C5076	C	0.409306	0.153906	0.159316
	C5077	C	0.472721	0.220557	0.168902
	C5078	C	0.403297	0.157956	0.337266
	C5079	C	0.464691	0.217492	0.329562
	C5080	C	0.402316	0.154593	0.167812
	C5081	C	0.465736	0.221363	0.160130
	C5082	C	0.410291	0.157070	0.328822
	C5083	C	0.471687	0.216611	0.338187
	N5084	N	0.380716	0.226634	0.477396
	N5085	N	0.443905	0.167386	0.423077
	N5086	N	0.431776	0.210545	0.019739
	N5087	N	0.493662	0.145173	0.075469
	N5088	N	0.431130	0.207635	0.421978
	N5089	N	0.494332	0.148437	0.478586
	N5090	N	0.381346	0.229904	0.074704
	N5091	N	0.443259	0.164376	0.019984
	N5092	N	0.431167	0.167109	0.172393
	N5093	N	0.494258	0.226616	0.228868
	N5094	N	0.381387	0.145015	0.324457
	N5095	N	0.443188	0.210725	0.269790
	N5096	N	0.380743	0.148024	0.227461
	N5097	N	0.443838	0.207780	0.172552
	N5098	N	0.431808	0.164130	0.269721
	N5099	N	0.493591	0.229990	0.325906
	H5100	H	0.387462	0.215017	0.867641
	H5101	H	0.452010	0.163161	0.826231
	H5102	H	0.425049	0.221925	0.629145
	H5103	H	0.485536	0.148926	0.672269
	H5104	H	0.422991	0.211854	0.826012
	H5105	H	0.487616	0.160019	0.868333
	H5106	H	0.389574	0.225757	0.670725
	H5107	H	0.450030	0.153212	0.630534
	H5108	H	0.423137	0.162884	0.575838
	H5109	H	0.487644	0.214111	0.618967
	H5110	H	0.389551	0.149086	0.920419
	H5111	H	0.449978	0.222327	0.880066
	H5112	H	0.387496	0.159509	0.617549
	H5113	H	0.452026	0.211910	0.576650
	H5114	H	0.425142	0.152664	0.879872
	H5115	H	0.485518	0.226270	0.921332
	H5116	H	0.399253	0.221921	0.853770
	H5117	H	0.463600	0.152085	0.839692
	H5118	H	0.413268	0.215905	0.643041
	H5119	H	0.475828	0.153130	0.354957
	H5120	H	0.411492	0.222897	0.839826
	H5121	H	0.475835	0.153184	0.854187
	H5122	H	0.401047	0.214839	0.657834
	H5123	H	0.463552	0.152567	0.339894
	H5124	H	0.411513	0.151667	0.589191
	H5125	H	0.473962	0.214726	0.909176
	H5126	H	0.401044	0.159891	0.907894
	H5127	H	0.463589	0.222794	0.589856
	H5128	H	0.399304	0.153287	0.603326
	H5129	H	0.461750	0.216312	0.894560
	H5130	H	0.413314	0.158765	0.893625
	H5131	H	0.475819	0.221004	0.604459
	Co5132	Co	0.499961	0.249675	0.655043
	Co5133	Co	0.437544	0.187528	0.592444
	Co5134	Co	0.374974	0.125355	0.904420
	Co5135	Co	0.437542	0.187525	0.843013
	C5136	C	0.386848	0.219330	0.942759
	C5137	C	0.450412	0.162380	0.900108
	C5138	C	0.425644	0.217796	0.553744
	C5139	C	0.487176	0.150081	0.598529
	C5140	C	0.424630	0.212576	0.899938
	C5141	C	0.488201	0.155730	0.943606
	C5142	C	0.387876	0.224684	0.597181
	C5143	C	0.449378	0.157232	0.555188
	C5144	C	0.424694	0.162042	0.649568
	C5145	C	0.488204	0.218726	0.694083
	C5146	C	0.387897	0.150204	0.847329
	C5147	C	0.449373	0.218187	0.804869
	C5148	C	0.386894	0.155397	0.692346
	C5149	C	0.450377	0.212972	0.650161
	C5150	C	0.425720	0.156740	0.804336
	C5151	C	0.487134	0.224944	0.848417
	C5152	C	0.391643	0.218760	1.016077
	C5153	C	0.454191	0.156353	0.481859
	C5154	C	0.420850	0.218547	0.981702
	C5155	C	0.483372	0.156315	0.516899
	C5156	C	0.420920	0.155859	0.731280
	C5157	C	0.483364	0.218381	0.766974
	C5158	C	0.391686	0.155984	0.765614
	C5159	C	0.454173	0.218989	0.731779
	C5160	C	0.399028	0.217815	1.007439
	C5161	C	0.461585	0.155379	0.490740
	C5162	C	0.413446	0.219456	0.990720
	C5163	C	0.476006	0.157216	0.508087
	C5164	C	0.413517	0.154807	0.740319
	C5165	C	0.475977	0.217589	0.758185
	C5166	C	0.399089	0.156810	0.756949
	C5167	C	0.461565	0.219946	0.740887
	C5168	C	0.402249	0.220365	0.918541
	C5169	C	0.465814	0.153919	0.910437
	C5170	C	0.410245	0.217176	0.578552
	C5171	C	0.472807	0.154694	0.419094
	C5172	C	0.409234	0.221022	0.910309
	C5173	C	0.472789	0.154748	0.918560
	C5174	C	0.403259	0.216315	0.586989
	C5175	C	0.465802	0.154029	0.410443
	C5176	C	0.409287	0.153493	0.659899
	C5177	C	0.471751	0.216488	0.838585
	C5178	C	0.403293	0.158059	0.837394
	C5179	C	0.465798	0.221009	0.660557
	C5180	C	0.402313	0.154495	0.667906
	C5181	C	0.464768	0.217471	0.830111
	C5182	C	0.410282	0.157382	0.829380
	C5183	C	0.472779	0.219859	0.668858
	N5184	N	0.380711	0.226704	0.977455
	N5185	N	0.443908	0.167412	0.922802
	N5186	N	0.431777	0.210596	0.519232
	N5187	N	0.493655	0.145111	0.575715
	N5188	N	0.431118	0.207539	0.922804
	N5189	N	0.494337	0.148389	0.978496
	N5190	N	0.381391	0.229730	0.574398
	N5191	N	0.443244	0.164387	0.519989
	N5192	N	0.431166	0.167395	0.672509
	N5193	N	0.494306	0.226375	0.728768
	N5194	N	0.381388	0.145302	0.824518
	N5195	N	0.443241	0.210799	0.770083
	N5196	N	0.380734	0.148334	0.727342
	N5197	N	0.443882	0.207790	0.672848
	N5198	N	0.431836	0.164247	0.769740
	N5199	N	0.493615	0.229958	0.825716
	H5200	H	0.387474	0.340045	0.367901
	H5201	H	0.451996	0.288328	0.326465
	H5202	H	0.425052	0.346853	0.129960
	H5203	H	0.485535	0.273747	0.172237
	H5204	H	0.423000	0.336726	0.326797
	H5205	H	0.487509	0.285264	0.368824
	H5206	H	0.389527	0.350692	0.170731
	H5207	H	0.449865	0.277633	0.130448
	H5208	H	0.423071	0.288202	0.076004
	H5209	H	0.487621	0.339754	0.118974
	H5210	H	0.389503	0.273860	0.421252
	H5211	H	0.449887	0.347354	0.380504
	H5212	H	0.387368	0.284872	0.117229
	H5213	H	0.452006	0.336592	0.076782
	H5214	H	0.425068	0.277948	0.379996
	H5215	H	0.485484	0.351309	0.422213
	H5216	H	0.401034	0.339211	0.658927
	H5217	H	0.463538	0.277394	0.339221
	H5218	H	0.413326	0.340688	0.143593
	H5219	H	0.473935	0.285177	0.159887
	H5220	H	0.413307	0.340471	0.644292
	H5221	H	0.475767	0.278425	0.354608
	H5222	H	0.401063	0.339793	0.158344
	H5223	H	0.461708	0.284221	0.144868
	H5224	H	0.413283	0.284238	0.393566
	H5225	H	0.474007	0.339239	0.409396
	H5226	H	0.399242	0.278323	0.103766
	H5227	H	0.463583	0.348044	0.089862
	H5228	H	0.401027	0.285269	0.408091
	H5229	H	0.461748	0.340597	0.394762
	H5230	H	0.411494	0.277199	0.088913
	H5231	H	0.475821	0.347015	0.105053
	Co5232	Co	0.500052	0.374667	0.155423
	Co5233	Co	0.437553	0.312339	0.092804
	Co5234	Co	0.375010	0.249889	0.404450
	Co5235	Co	0.437528	0.312546	0.342821
	C5236	C	0.386848	0.344269	0.442976
	C5237	C	0.450353	0.287186	0.399541
	C5238	C	0.425675	0.342842	0.054849
	C5239	C	0.487151	0.274945	0.098904
	C5240	C	0.424672	0.337813	0.399818
	C5241	C	0.488129	0.280898	0.444012
	C5242	C	0.387841	0.349723	0.097686
	C5243	C	0.449319	0.281783	0.054629
	C5244	C	0.424669	0.287328	0.149715
	C5245	C	0.488189	0.344256	0.194355
	C5246	C	0.387888	0.275082	0.347527
	C5247	C	0.449337	0.343126	0.304985
	C5248	C	0.386835	0.280741	0.192954
	C5249	C	0.450401	0.337624	0.150231
	C5250	C	0.425669	0.282084	0.304511
	C5251	C	0.487126	0.350018	0.349122
	C5252	C	0.391670	0.343530	0.516392
	C5253	C	0.454146	0.281069	-0.018134
	C5254	C	0.420873	0.343746	0.481721
	C5255	C	0.483358	0.281196	0.017607
	C5256	C	0.420898	0.281304	0.231363
	C5257	C	0.483387	0.343814	0.267424
	C5258	C	0.391633	0.281248	0.266058
	C5259	C	0.454146	0.343765	0.232038
	C5260	C	0.399056	0.342613	0.508065
	C5261	C	0.461521	0.280207	-0.008822
	C5262	C	0.413494	0.344519	0.490934
	C5263	C	0.475948	0.282104	0.008871
	C5264	C	0.413481	0.280345	0.240113
	C5265	C	0.475976	0.342843	0.258373
	C5266	C	0.399048	0.282120	0.257155
	C5267	C	0.461550	0.344681	0.240986
	C5268	C	0.403274	0.341134	0.588463
	C5269	C	0.465736	0.278944	0.410154
	C5270	C	0.410279	0.342127	0.079284
	C5271	C	0.471707	0.283485	0.089179
	C5272	C	0.410277	0.341930	0.580024
	C5273	C	0.472719	0.279834	0.418754
	C5274	C	0.403278	0.341394	0.087567
	C5275	C	0.464725	0.282800	0.080393
	C5276	C	0.410246	0.282844	0.329182
	C5277	C	0.471757	0.341165	0.338858
	C5278	C	0.402282	0.279606	0.168097
	C5279	C	0.465784	0.346142	0.160690
	C5280	C	0.403268	0.283573	0.337514
	C5281	C	0.464777	0.342050	0.330231
	C5282	C	0.409260	0.278854	0.159732
	C5283	C	0.472759	0.345482	0.169220
	N5284	N	0.380714	0.351481	0.477507
	N5285	N	0.443872	0.292323	0.422282
	N5286	N	0.431794	0.335538	0.019934
	N5287	N	0.493632	0.269906	0.075550
	N5288	N	0.431154	0.332823	0.422328
	N5289	N	0.494246	0.273370	0.478664
	N5290	N	0.381388	0.354872	0.074714
	N5291	N	0.443205	0.289046	0.019502
	N5292	N	0.431168	0.292379	0.172672
	N5293	N	0.494306	0.351661	0.229186
	N5294	N	0.381389	0.270079	0.324809
	N5295	N	0.443210	0.335760	0.269947
	N5296	N	0.380708	0.273324	0.227699
	N5297	N	0.443905	0.332498	0.172647
	N5298	N	0.431810	0.289334	0.269872
	N5299	N	0.493633	0.354996	0.326061
	H5300	H	0.387494	0.339723	0.867519
	H5301	H	0.452008	0.287668	0.825980
	H5302	H	0.425136	0.347488	0.629847
	H5303	H	0.485390	0.273498	0.671859
	H5304	H	0.423049	0.336838	0.825860
	H5305	H	0.487537	0.285066	0.869172
	H5306	H	0.389461	0.350420	0.671609
	H5307	H	0.449865	0.277385	0.629194
	H5308	H	0.422932	0.288272	0.576398
	H5309	H	0.487628	0.339452	0.619170
	H5310	H	0.389532	0.273806	0.921468
	H5311	H	0.449952	0.347383	0.879838
	H5312	H	0.387469	0.284883	0.618215
	H5313	H	0.452054	0.336477	0.576198
	H5314	H	0.425099	0.277362	0.879135
	H5315	H	0.485504	0.351167	0.922387
	H5316	H	0.399265	0.346028	0.853311
	H5317	H	0.463565	0.276665	0.840290
	H5318	H	0.411473	0.347986	0.340050
	H5319	H	0.473896	0.284785	0.659198
	H5320	H	0.411495	0.347579	0.839252
	H5321	H	0.475784	0.278034	0.855438
	H5322	H	0.399269	0.346649	0.354537
	H5323	H	0.461661	0.283339	0.644108
	H5324	H	0.413300	0.284215	0.894243
	H5325	H	0.475852	0.346413	0.604160
	H5326	H	0.399254	0.277886	0.604011
	H5327	H	0.461738	0.340167	0.894265
	H5328	H	0.401071	0.285709	0.908535
	H5329	H	0.463576	0.347680	0.589526
	H5330	H	0.411484	0.276630	0.589637
	H5331	H	0.473953	0.339232	0.909010
	Co5332	Co	0.499974	0.374827	0.655686
	Co5333	Co	0.437480	0.312553	0.592379
	Co5334	Co	0.375006	0.249845	0.904345
	Co5335	Co	0.437534	0.312304	0.842445
	C5336	C	0.386835	0.344251	0.942793
	C5337	C	0.450383	0.286984	0.899898
	C5338	C	0.425722	0.343169	0.554490
	C5339	C	0.487073	0.274763	0.598503
	C5340	C	0.424672	0.337728	0.899700
	C5341	C	0.488151	0.280761	0.944289
	C5342	C	0.387830	0.349516	0.597755
	C5343	C	0.449297	0.281682	0.554265
	C5344	C	0.424628	0.287280	0.649510
	C5345	C	0.488236	0.343974	0.694151
	C5346	C	0.387867	0.274989	0.848032
	C5347	C	0.449349	0.342899	0.804764
	C5348	C	0.386855	0.280387	0.693042
	C5349	C	0.450366	0.337398	0.649702
	C5350	C	0.425713	0.281637	0.804134
	C5351	C	0.487164	0.349862	0.848749
	C5352	C	0.391663	0.343571	1.016077
	C5353	C	0.454130	0.280994	0.481350
	C5354	C	0.420859	0.343714	0.981509
	C5355	C	0.483302	0.281207	0.517122
	C5356	C	0.420856	0.280911	0.731443
	C5357	C	0.483382	0.343523	0.767053
	C5358	C	0.391697	0.281010	0.766402
	C5359	C	0.454181	0.343441	0.731394
	C5360	C	0.399050	0.342616	1.007315
	C5361	C	0.461510	0.279989	0.490392
	C5362	C	0.413483	0.344587	0.990396
	C5363	C	0.475914	0.282155	0.508128
	C5364	C	0.413472	0.280001	0.740729
	C5365	C	0.476001	0.342473	0.757752
	C5366	C	0.399054	0.281877	0.757672
	C5367	C	0.461566	0.344203	0.740467
	C5368	C	0.402267	0.344923	0.918189
	C5369	C	0.465757	0.278691	0.911150
	C5370	C	0.409274	0.346001	0.410654
	C5371	C	0.471683	0.283262	0.588413
	C5372	C	0.409270	0.345987	0.910035
	C5373	C	0.472739	0.279593	0.919673
	C5374	C	0.402280	0.345244	0.419161
	C5375	C	0.464703	0.282196	0.579686
	C5376	C	0.410271	0.282674	0.829850
	C5377	C	0.472812	0.344910	0.668562
	C5378	C	0.402252	0.279281	0.668592
	C5379	C	0.464755	0.341684	0.829656
	C5380	C	0.403266	0.283494	0.837924
	C5381	C	0.465814	0.345738	0.660327
	C5382	C	0.409251	0.278515	0.660257
	C5383	C	0.471758	0.341004	0.837949
	N5384	N	0.380725	0.351758	0.977466
	N5385	N	0.443895	0.292098	0.922213
	N5386	N	0.431845	0.335941	0.519283
	N5387	N	0.493570	0.269886	0.575668
	N5388	N	0.431151	0.332549	0.922898
	N5389	N	0.494275	0.273296	0.978670
	N5390	N	0.381358	0.354611	0.574624
	N5391	N	0.443189	0.289185	0.519352
	N5392	N	0.431112	0.292383	0.672256
	N5393	N	0.494336	0.351474	0.729092
	N5394	N	0.381393	0.269991	0.825011
	N5395	N	0.443213	0.335686	0.769774
	N5396	N	0.380730	0.273045	0.727907
	N5397	N	0.443869	0.332526	0.672661
	N5398	N	0.431804	0.289110	0.769200
	N5399	N	0.493638	0.354885	0.825868
	H5400	H	0.387465	0.465544	0.367274
	H5401	H	0.451976	0.413378	0.326335
	H5402	H	0.425006	0.471623	0.130918
	H5403	H	0.485541	0.398866	0.171945
	H5404	H	0.423018	0.461977	0.327206
	H5405	H	0.487671	0.410554	0.369525
	H5406	H	0.389480	0.475820	0.171132
	H5407	H	0.449999	0.402584	0.129504
	H5408	H	0.423002	0.412822	0.076503
	H5409	H	0.487506	0.464890	0.117735
	H5410	H	0.389472	0.399051	0.421365
	H5411	H	0.449890	0.472091	0.379472
	H5412	H	0.387473	0.409551	0.117674
	H5413	H	0.451899	0.462317	0.076151
	H5414	H	0.425023	0.402865	0.380263
	H5415	H	0.485396	0.475998	0.421019
	H5416	H	0.399257	0.472164	0.354050
	H5417	H	0.463588	0.401758	0.339888
	H5418	H	0.413228	0.465591	0.143877
	H5419	H	0.475828	0.403309	-0.145755
	H5420	H	0.411483	0.473236	0.339933
	H5421	H	0.475794	0.402970	0.354552
	H5422	H	0.401004	0.464527	0.158279
	H5423	H	0.463673	0.402053	-0.160893
	H5424	H	0.411479	0.401860	0.090077
	H5425	H	0.475696	0.472084	0.103647
	H5426	H	0.401034	0.410298	0.408396
	H5427	H	0.461673	0.465887	0.393611
	H5428	H	0.399249	0.403006	0.104327
	H5429	H	0.463536	0.473132	0.088783
	H5430	H	0.413266	0.409131	0.394391
	H5431	H	0.473857	0.464609	0.408326
	Co5432	Co	0.499993	0.499546	0.155441
	Co5433	Co	0.437527	0.437268	0.093014
	Co5434	Co	0.374996	0.374572	0.404229
	Co5435	Co	0.437474	0.437484	0.342896
	C5436	C	0.386860	0.469445	0.442656
	C5437	C	0.450368	0.412339	0.399767
	C5438	C	0.425635	0.467768	0.055547
	C5439	C	0.487191	0.400091	0.098825
	C5440	C	0.424630	0.462764	0.400138
	C5441	C	0.488204	0.405948	0.444405
	C5442	C	0.387836	0.474699	0.097669
	C5443	C	0.449413	0.406864	0.054224
	C5444	C	0.424645	0.412004	0.150063
	C5445	C	0.488100	0.469222	0.193299
	C5446	C	0.387845	0.400021	0.347850
	C5447	C	0.449281	0.468061	0.304292
	C5448	C	0.386849	0.405452	0.193076
	C5449	C	0.450284	0.463098	0.149559
	C5450	C	0.425645	0.407017	0.305130
	C5451	C	0.487056	0.474812	0.348218
	C5452	C	0.391652	0.468686	0.515935
	C5453	C	0.454205	0.406137	-0.018871
	C5454	C	0.420850	0.468739	0.481895
	C5455	C	0.483423	0.406285	0.017277
	C5456	C	0.420839	0.406104	0.231902
	C5457	C	0.483267	0.468788	0.266384
	C5458	C	0.391658	0.406181	0.266433
	C5459	C	0.454089	0.469092	0.231234
	C5460	C	0.399031	0.467810	0.507333
	C5461	C	0.461605	0.405287	-0.009709
	C5462	C	0.413455	0.469719	0.490869
	C5463	C	0.476019	0.407314	0.008113
	C5464	C	0.413465	0.405206	0.240874
	C5465	C	0.475890	0.468010	0.257420
	C5466	C	0.399050	0.407126	0.257541
	C5467	C	0.461470	0.470056	0.240043
	C5468	C	0.402260	0.470614	0.418572
	C5469	C	0.465793	0.403797	0.410611
	C5470	C	0.410222	0.467039	0.079346
	C5471	C	0.472818	0.404791	-0.081241
	C5472	C	0.409251	0.471248	0.410463
	C5473	C	0.472766	0.404495	0.418893
	C5474	C	0.403235	0.466231	0.087701
	C5475	C	0.465845	0.403992	-0.089893
	C5476	C	0.409249	0.403688	0.160574
	C5477	C	0.472695	0.470555	0.168286
	C5478	C	0.403259	0.408515	0.337829
	C5479	C	0.464687	0.467478	0.329196
	C5480	C	0.402264	0.404535	0.168661
	C5481	C	0.465711	0.471480	0.159784
	C5482	C	0.410255	0.407637	0.329851
	C5483	C	0.471663	0.466480	0.337587
	N5484	N	0.380715	0.476653	0.477263
	N5485	N	0.443857	0.417410	0.422768
	N5486	N	0.431780	0.460581	0.020686
	N5487	N	0.493675	0.394897	0.075860
	N5488	N	0.431131	0.457805	0.422719
	N5489	N	0.494317	0.398502	0.479096
	N5490	N	0.381357	0.479888	0.074746
	N5491	N	0.443293	0.414273	0.019556
	N5492	N	0.431137	0.417152	0.172912
	N5493	N	0.494233	0.476451	0.228343
	N5494	N	0.381373	0.394890	0.324715
	N5495	N	0.443160	0.460700	0.269680
	N5496	N	0.380739	0.397933	0.227528
	N5497	N	0.443819	0.457719	0.172336
	N5498	N	0.431782	0.414209	0.270200
	N5499	N	0.493566	0.479681	0.325374
	H5500	H	0.387380	0.464806	0.868226
	H5501	H	0.452040	0.413557	0.825939
	H5502	H	0.425123	0.472239	0.629732
	H5503	H	0.485468	0.398417	0.672008
	H5504	H	0.423053	0.462211	0.826566
	H5505	H	0.487652	0.410033	0.868977
	H5506	H	0.389446	0.475399	0.670891
	H5507	H	0.449875	0.402682	0.630163
	H5508	H	0.423124	0.412947	0.576220
	H5509	H	0.487552	0.465080	0.618840
	H5510	H	0.389553	0.399335	0.921277
	H5511	H	0.449972	0.472942	0.880438
	H5512	H	0.387564	0.409372	0.617411
	H5513	H	0.452086	0.461861	0.577047
	H5514	H	0.425111	0.402818	0.879915
	H5515	H	0.485477	0.475961	0.922207
	H5516	H	0.399213	0.471515	0.854157
	H5517	H	0.461768	0.409507	1.143798
	H5518	H	0.413257	0.465555	0.644017
	H5519	H	0.473909	0.410597	0.659062
	H5520	H	0.411443	0.472670	0.839488
	H5521	H	0.473987	0.410850	1.158880
	H5522	H	0.401025	0.463914	0.658157
	H5523	H	0.461720	0.409158	0.644464
	H5524	H	0.413321	0.408907	0.893816
	H5525	H	0.473968	0.465118	0.908815
	H5526	H	0.399268	0.403378	0.603851
	H5527	H	0.463587	0.473353	0.590013
	H5528	H	0.401085	0.410063	0.908022
	H5529	H	0.461760	0.466068	0.894702
	H5530	H	0.411509	0.402242	0.589128
	H5531	H	0.475770	0.471789	0.604377
	Co5532	Co	0.500016	0.500189	0.655344
	Co5533	Co	0.437534	0.437541	0.593016
	Co5534	Co	0.374997	0.375018	0.904288
	Co5535	Co	0.437534	0.437676	0.843446
	C5536	C	0.386789	0.469274	0.943157
	C5537	C	0.450442	0.412334	0.899503
	C5538	C	0.425685	0.468052	0.554692
	C5539	C	0.487118	0.399941	0.598701
	C5540	C	0.424664	0.462900	0.900608
	C5541	C	0.488210	0.405628	0.943970
	C5542	C	0.387835	0.474527	0.597448
	C5543	C	0.449340	0.406977	0.554845
	C5544	C	0.424729	0.412324	0.649985
	C5545	C	0.488166	0.469616	0.693527
	C5546	C	0.387905	0.400089	0.847801
	C5547	C	0.449324	0.468644	0.805088
	C5548	C	0.386908	0.405381	0.692618
	C5549	C	0.450379	0.462883	0.650333
	C5550	C	0.425725	0.406976	0.804775
	C5551	C	0.487166	0.474869	0.848579
	C5552	C	0.391606	0.468495	1.016112
	C5553	C	0.454131	0.406265	0.481613
	C5554	C	0.420843	0.468627	0.982043
	C5555	C	0.483389	0.406276	0.517209
	C5556	C	0.420915	0.406145	0.731439
	C5557	C	0.483346	0.468805	0.767014
	C5558	C	0.391712	0.406011	0.766013
	C5559	C	0.454166	0.469232	0.732083
	C5560	C	0.399019	0.467512	1.007276
	C5561	C	0.461537	0.405258	0.490702
	C5562	C	0.413454	0.469412	0.990371
	C5563	C	0.475978	0.407123	0.508187
	C5564	C	0.413537	0.405150	0.740305
	C5565	C	0.475965	0.467956	0.758030
	C5566	C	0.399101	0.406927	0.757215
	C5567	C	0.461557	0.470161	0.741095
	C5568	C	0.402248	0.469885	0.918357
	C5569	C	0.464808	0.407992	1.079575
	C5570	C	0.410233	0.467034	0.579711
	C5571	C	0.471709	0.408662	0.588273
	C5572	C	0.409230	0.470822	0.910167
	C5573	C	0.471779	0.408900	1.088223
	C5574	C	0.403250	0.466107	0.587579
	C5575	C	0.464742	0.407909	0.579824
	C5576	C	0.410315	0.407560	0.829259
	C5577	C	0.471742	0.466827	0.838364
	C5578	C	0.402310	0.404580	0.668176
	C5579	C	0.465775	0.471539	0.660783
	C5580	C	0.403323	0.408317	0.837494
	C5581	C	0.464751	0.467662	0.830124
	C5582	C	0.409307	0.403842	0.660030
	C5583	C	0.472756	0.470366	0.668873
	N5584	N	0.380684	0.476755	0.977921
	N5585	N	0.443958	0.417479	0.922488
	N5586	N	0.431808	0.460879	0.519953
	N5587	N	0.493614	0.395043	0.576295
	N5588	N	0.431162	0.457842	0.923413
	N5589	N	0.494333	0.398195	0.978806
	N5590	N	0.381345	0.479546	0.574667
	N5591	N	0.443212	0.414317	0.519677
	N5592	N	0.431200	0.417421	0.672956
	N5593	N	0.494297	0.476998	0.728493
	N5594	N	0.381402	0.395166	0.824507
	N5595	N	0.443222	0.461062	0.770282
	N5596	N	0.380774	0.398142	0.727425
	N5597	N	0.443907	0.457771	0.673198
	N5598	N	0.431851	0.414330	0.770244
	N5599	N	0.493658	0.480029	0.825462
	H5600	H	0.387511	0.590413	0.368361
	H5601	H	0.452054	0.538778	0.326958
	H5602	H	0.425088	0.597021	0.129838
	H5603	H	0.485455	0.523534	0.171915
	H5604	H	0.422965	0.586800	0.326712
	H5605	H	0.487491	0.535028	0.368555
	H5606	H	0.389469	0.600519	0.171282
	H5607	H	0.450057	0.527962	0.130494
	H5608	H	0.423035	0.538026	0.076067
	H5609	H	0.487572	0.589995	0.119130
	H5610	H	0.389515	0.524419	0.421095
	H5611	H	0.449895	0.597136	0.380120
	H5612	H	0.387461	0.534538	0.117095
	H5613	H	0.452007	0.586705	0.076954
	H5614	H	0.425058	0.527824	0.379840
	H5615	H	0.485531	0.600591	0.422115
	H5616	H	0.401124	0.589504	0.659242
	H5617	H	0.463596	0.526883	0.339566
	H5618	H	0.413240	0.591098	0.144589
	H5619	H	0.475816	0.528352	-0.146064
	H5620	H	0.413311	0.590713	0.644202
	H5621	H	0.475799	0.528016	0.354445
	H5622	H	0.401057	0.589804	0.158876
	H5623	H	0.463589	0.527290	-0.160351
	H5624	H	0.411479	0.527240	0.088924
	H5625	H	0.475754	0.596998	0.105027
	H5626	H	0.401053	0.535232	0.408137
	H5627	H	0.461735	0.590678	0.394760
	H5628	H	0.399246	0.528294	0.103600
	H5629	H	0.463561	0.598023	0.090091
	H5630	H	0.413315	0.533966	0.393655
	H5631	H	0.473950	0.589108	0.409311
	Co5632	Co	0.500016	0.624741	0.155238
	Co5633	Co	0.437522	0.562320	0.093078
	Co5634	Co	0.375050	0.500084	0.404640
	Co5635	Co	0.437530	0.562492	0.342737
	C5636	C	0.386863	0.594437	0.443176
	C5637	C	0.450383	0.537444	0.399997
	C5638	C	0.425660	0.592868	0.054873
	C5639	C	0.487168	0.524819	0.098706
	C5640	C	0.424660	0.587902	0.400030
	C5641	C	0.488169	0.530655	0.443723
	C5642	C	0.387835	0.599749	0.098098
	C5643	C	0.449385	0.532074	0.054985
	C5644	C	0.424678	0.537071	0.149768
	C5645	C	0.488143	0.594206	0.193913
	C5646	C	0.387879	0.525476	0.347746
	C5647	C	0.449337	0.593079	0.304990
	C5648	C	0.386867	0.530593	0.192861
	C5649	C	0.450371	0.587841	0.150179
	C5650	C	0.425679	0.531912	0.304800
	C5651	C	0.487141	0.599434	0.348779
	C5652	C	0.391665	0.593586	0.516485
	C5653	C	0.454215	0.531466	-0.018292
	C5654	C	0.420866	0.593868	0.481710
	C5655	C	0.483389	0.531267	0.016967
	C5656	C	0.420880	0.531091	0.231397
	C5657	C	0.483366	0.593390	0.267326
	C5658	C	0.391675	0.531365	0.266062
	C5659	C	0.454139	0.593799	0.232079
	C5660	C	0.399054	0.592607	0.507828
	C5661	C	0.461597	0.530571	-0.009392
	C5662	C	0.413485	0.594782	0.490653
	C5663	C	0.476029	0.532326	0.007835
	C5664	C	0.413501	0.530230	0.240021
	C5665	C	0.475965	0.592523	0.258472
	C5666	C	0.399066	0.532257	0.257114
	C5667	C	0.461545	0.594737	0.241184
	C5668	C	0.403283	0.591311	0.588226
	C5669	C	0.465791	0.528698	0.410354
	C5670	C	0.410248	0.592279	0.079612
	C5671	C	0.472820	0.529722	-0.081240
	C5672	C	0.410273	0.592240	0.579792
	C5673	C	0.472777	0.529617	0.418793
	C5674	C	0.403256	0.591441	0.087881
	C5675	C	0.465815	0.529138	-0.089740
	C5676	C	0.409276	0.529057	0.159634
	C5677	C	0.472736	0.595271	0.169213
	C5678	C	0.403300	0.533558	0.337535
	C5679	C	0.464761	0.592106	0.330277
	C5680	C	0.402288	0.529847	0.167883
	C5681	C	0.465767	0.596145	0.160887
	C5682	C	0.410297	0.532605	0.329151
	C5683	C	0.471733	0.591039	0.338644
	N5684	N	0.380735	0.601786	0.477417
	N5685	N	0.443895	0.542279	0.422610
	N5686	N	0.431776	0.585498	0.019975
	N5687	N	0.493639	0.519785	0.076065
	N5688	N	0.431139	0.582705	0.422871
	N5689	N	0.494294	0.523355	0.478371
	N5690	N	0.381352	0.604914	0.075146
	N5691	N	0.443258	0.539257	0.019936
	N5692	N	0.431157	0.542233	0.172814
	N5693	N	0.494285	0.601603	0.228578
	N5694	N	0.381406	0.520240	0.324893
	N5695	N	0.443211	0.585810	0.269955
	N5696	N	0.380754	0.523286	0.227626
	N5697	N	0.443869	0.582708	0.172831
	N5698	N	0.431814	0.539245	0.270029
	N5699	N	0.493630	0.604661	0.325846
	H5700	H	0.387427	0.590074	0.868000
	H5701	H	0.452032	0.538407	0.826068
	H5702	H	0.425054	0.597125	0.630590
	H5703	H	0.485528	0.524668	0.672373
	H5704	H	0.422975	0.586636	0.827065
	H5705	H	0.487632	0.535190	0.869063
	H5706	H	0.389457	0.600379	0.672003
	H5707	H	0.449968	0.527140	0.629366
	H5708	H	0.422959	0.537911	0.577628
	H5709	H	0.487481	0.590739	0.617070
	H5710	H	0.389400	0.524448	0.921727
	H5711	H	0.449936	0.597086	0.879369
	H5712	H	0.387409	0.534777	0.618237
	H5713	H	0.451963	0.586259	0.575501
	H5714	H	0.425033	0.527321	0.880579
	H5715	H	0.485508	0.600314	0.921689
	H5716	H	0.399190	0.596442	0.853902
	H5717	H	0.461759	0.534558	1.143930
	H5718	H	0.411501	0.598159	0.339838
	H5719	H	0.473953	0.535582	0.658908
	H5720	H	0.411407	0.597465	0.839315
	H5721	H	0.473966	0.535842	1.158914
	H5722	H	0.399290	0.596691	0.354314
	H5723	H	0.461722	0.534296	0.644208
	H5724	H	0.413217	0.534384	0.894524
	H5725	H	0.473893	0.590219	0.908383
	H5726	H	0.399146	0.528241	0.604831
	H5727	H	0.463521	0.597480	0.588849
	H5728	H	0.400964	0.535320	0.909205
	H5729	H	0.461686	0.591094	0.893255
	H5730	H	0.411387	0.526741	0.590632
	H5731	H	0.475732	0.596447	0.603591
	Co5732	Co	0.499953	0.625275	0.655264
	Co5733	Co	0.437465	0.562088	0.593199
	Co5734	Co	0.374924	0.499804	0.904587
	Co5735	Co	0.437482	0.562247	0.843170
	C5736	C	0.386802	0.594282	0.943498
	C5737	C	0.450381	0.537400	0.899860
	C5738	C	0.425667	0.592992	0.555022
	C5739	C	0.487164	0.525421	0.598754
	C5740	C	0.424641	0.587534	0.899965
	C5741	C	0.488259	0.530867	0.944149
	C5742	C	0.387830	0.599621	0.598067
	C5743	C	0.449316	0.531627	0.554656
	C5744	C	0.424580	0.537001	0.650597
	C5745	C	0.488111	0.594779	0.692842
	C5746	C	0.387759	0.525313	0.848193
	C5747	C	0.449298	0.592841	0.804088
	C5748	C	0.386777	0.530629	0.693473
	C5749	C	0.450305	0.587404	0.649469
	C5750	C	0.425611	0.531642	0.805294
	C5751	C	0.487127	0.599673	0.847964
	C5752	C	0.391622	0.593537	1.016413
	C5753	C	0.454179	0.531256	0.481699
	C5754	C	0.420824	0.593603	0.981513
	C5755	C	0.483343	0.531525	0.517029
	C5756	C	0.420796	0.530912	0.732280
	C5757	C	0.483288	0.593883	0.766185
	C5758	C	0.391563	0.531313	0.766781
	C5759	C	0.454113	0.593580	0.730936
	C5760	C	0.399009	0.592638	1.007494
	C5761	C	0.461556	0.530362	0.490539
	C5762	C	0.413449	0.594554	0.990462
	C5763	C	0.475961	0.532363	0.507970
	C5764	C	0.413397	0.530043	0.741448
	C5765	C	0.475916	0.593011	0.757424
	C5766	C	0.398956	0.532113	0.758343
	C5767	C	0.461492	0.594694	0.739855
	C5768	C	0.402224	0.595046	0.918414
	C5769	C	0.464795	0.533212	1.079647
	C5770	C	0.409270	0.596178	0.410438
	C5771	C	0.471738	0.533799	0.588236
	C5772	C	0.409219	0.595908	0.910334
	C5773	C	0.471793	0.533879	1.088050
	C5774	C	0.402289	0.595257	0.418989
	C5775	C	0.464739	0.532835	0.579778
	C5776	C	0.410175	0.532779	0.830364
	C5777	C	0.471700	0.591808	0.837540
	C5778	C	0.402157	0.529709	0.669320
	C5779	C	0.465724	0.595847	0.659528
	C5780	C	0.403190	0.533530	0.838552
	C5781	C	0.464712	0.592518	0.829000
	C5782	C	0.409153	0.528542	0.661215
	C5783	C	0.472721	0.595182	0.668172
	N5784	N	0.380696	0.601751	0.978039
	N5785	N	0.443895	0.542283	0.923180
	N5786	N	0.431780	0.585552	0.519901
	N5787	N	0.493644	0.520350	0.575509
	N5788	N	0.431126	0.582488	0.922856
	N5789	N	0.494360	0.523314	0.978958
	N5790	N	0.381346	0.604799	0.574836
	N5791	N	0.443192	0.539007	0.519691
	N5792	N	0.431100	0.541994	0.673352
	N5793	N	0.494236	0.601939	0.727865
	N5794	N	0.381283	0.520214	0.825314
	N5795	N	0.443189	0.585414	0.769698
	N5796	N	0.380644	0.523226	0.727890
	N5797	N	0.443834	0.582293	0.672399
	N5798	N	0.431750	0.538935	0.770505
	N5799	N	0.493610	0.604732	0.825143
	H5800	H	0.387383	0.715091	0.367852
	H5801	H	0.452005	0.663077	0.327253
	H5802	H	0.425056	0.722020	0.130199
	H5803	H	0.485580	0.649567	0.171292
	H5804	H	0.422988	0.711643	0.327089
	H5805	H	0.487471	0.659122	0.367609
	H5806	H	0.389514	0.725640	0.171480
	H5807	H	0.450039	0.653159	0.130945
	H5808	H	0.423133	0.662703	0.076580
	H5809	H	0.487571	0.715724	0.117216
	H5810	H	0.389520	0.649180	0.421676
	H5811	H	0.449964	0.722108	0.380348
	H5812	H	0.387572	0.659707	0.117631
	H5813	H	0.451973	0.711699	0.076340
	H5814	H	0.425131	0.653077	0.380658
	H5815	H	0.485498	0.725535	0.421373
	H5816	H	0.399158	0.721125	0.354080
	H5817	H	0.463485	0.651520	0.340313
	H5818	H	0.411446	0.722591	-0.161260
	H5819	H	0.475777	0.653989	-0.145859
	H5820	H	0.411367	0.722122	0.339603
	H5821	H	0.475700	0.652846	0.354412
	H5822	H	0.399238	0.721415	-0.145979
	H5823	H	0.463539	0.652639	-0.159810
	H5824	H	0.413281	0.658821	0.394394
	H5825	H	0.473998	0.714130	0.408138
	H5826	H	0.399315	0.653206	0.103984
	H5827	H	0.463574	0.722761	0.089122
	H5828	H	0.401088	0.660154	0.408513
	H5829	H	0.461797	0.715468	0.393864
	H5830	H	0.411554	0.651968	0.089583
	H5831	H	0.475803	0.721562	0.103478
	Co5832	Co	0.500069	0.750028	0.154672
	Co5833	Co	0.437546	0.687567	0.093420
	Co5834	Co	0.375034	0.625067	0.404507
	Co5835	Co	0.437513	0.687684	0.343072
	C5836	C	0.386810	0.719096	0.443429
	C5837	C	0.450339	0.662095	0.400393
	C5838	C	0.425674	0.717920	0.054622
	C5839	C	0.487218	0.650340	0.098264
	C5840	C	0.424616	0.712571	0.400327
	C5841	C	0.488087	0.655272	0.443059
	C5842	C	0.387851	0.724626	0.098144
	C5843	C	0.449405	0.657163	0.055463
	C5844	C	0.424734	0.661992	0.150149
	C5845	C	0.488169	0.719704	0.192723
	C5846	C	0.387911	0.650141	0.347936
	C5847	C	0.449385	0.717965	0.304957
	C5848	C	0.386927	0.655427	0.192606
	C5849	C	0.450347	0.712838	0.150046
	C5850	C	0.425725	0.657004	0.305194
	C5851	C	0.487160	0.724574	0.347994
	C5852	C	0.391604	0.718315	0.516718
	C5853	C	0.454206	0.656391	-0.017735
	C5854	C	0.420803	0.718344	0.481928
	C5855	C	0.483397	0.656260	0.016552
	C5856	C	0.420929	0.656093	0.231923
	C5857	C	0.483380	0.718722	0.266002
	C5858	C	0.391713	0.655976	0.266051
	C5859	C	0.454170	0.718597	0.231565
	C5860	C	0.398999	0.717385	0.507685
	C5861	C	0.461592	0.655572	-0.008898
	C5862	C	0.413421	0.719213	0.490728
	C5863	C	0.476020	0.657390	0.007920
	C5864	C	0.413530	0.655019	0.240722
	C5865	C	0.475983	0.717651	0.256980
	C5866	C	0.399110	0.656876	0.257364
	C5867	C	0.461563	0.719520	0.240180
	C5868	C	0.402205	0.719709	0.418560
	C5869	C	0.465693	0.653312	0.410871
	C5870	C	0.409262	0.721019	-0.090182
	C5871	C	0.472804	0.655254	-0.081073
	C5872	C	0.409185	0.720482	0.410378
	C5873	C	0.472680	0.654330	0.418737
	C5874	C	0.402271	0.720119	-0.081609
	C5875	C	0.465806	0.654361	-0.089438
	C5876	C	0.410293	0.657462	0.329664
	C5877	C	0.471770	0.716148	0.337477
	C5878	C	0.402337	0.654385	0.168333
	C5879	C	0.465790	0.720880	0.159829
	C5880	C	0.403315	0.658267	0.337859
	C5881	C	0.464784	0.716906	0.329271
	C5882	C	0.409318	0.653653	0.160291
	C5883	C	0.472765	0.720116	0.167847
	N5884	N	0.380686	0.726510	0.478149
	N5885	N	0.443859	0.667367	0.423133
	N5886	N	0.431781	0.710447	0.019878
	N5887	N	0.493682	0.644990	0.075240
	N5888	N	0.431124	0.707736	0.422892
	N5889	N	0.494227	0.648238	0.477720
	N5890	N	0.381349	0.729511	0.075531
	N5891	N	0.443273	0.664278	0.020541
	N5892	N	0.431213	0.667166	0.173180
	N5893	N	0.494281	0.727050	0.227935
	N5894	N	0.381411	0.645333	0.324735
	N5895	N	0.443232	0.710898	0.270509
	N5896	N	0.380762	0.648421	0.227698
	N5897	N	0.443857	0.707958	0.173067
	N5898	N	0.431854	0.664253	0.270289
	N5899	N	0.493647	0.729867	0.324905
	H5900	H	0.387394	0.714474	0.868687
	H5901	H	0.452026	0.662989	0.826585
	H5902	H	0.424997	0.721979	0.629722
	H5903	H	0.485517	0.649868	0.672011
	H5904	H	0.422979	0.711468	0.826301
	H5905	H	0.487587	0.659336	0.868055
	H5906	H	0.389476	0.725309	0.671687
	H5907	H	0.449862	0.652524	0.630634
	H5908	H	0.422899	0.663085	0.576452
	H5909	H	0.487410	0.715841	0.617298
	H5910	H	0.389468	0.649170	0.920883
	H5911	H	0.449900	0.721953	0.880300
	H5912	H	0.387419	0.659856	0.616903
	H5913	H	0.451883	0.711929	0.576316
	H5914	H	0.424999	0.652194	0.879597
	H5915	H	0.485463	0.724751	0.921209
	H5916	H	0.401070	0.714502	1.158504
	H5917	H	0.461793	0.659105	1.144572
	H5918	H	0.413215	0.715696	0.644266
	H5919	H	0.473895	0.660103	0.658553
	H5920	H	0.413279	0.715562	1.143785
	H5921	H	0.474011	0.660084	1.159202
	H5922	H	0.400978	0.714597	0.658746
	H5923	H	0.461676	0.658823	0.644418
	H5924	H	0.413204	0.659000	0.894216
	H5925	H	0.475679	0.721682	0.603605
	H5926	H	0.399225	0.653128	0.603243
	H5927	H	0.461642	0.715869	0.893577
	H5928	H	0.401003	0.660422	0.908174
	H5929	H	0.463452	0.722653	0.589239
	H5930	H	0.411388	0.651787	0.588706
	H5931	H	0.473875	0.714905	0.908011
	Co5932	Co	0.499934	0.750194	0.654626
	Co5933	Co	0.437404	0.687221	0.593002
	Co5934	Co	0.374962	0.624977	0.904866
	Co5935	Co	0.437496	0.686964	0.843088
	C5936	C	0.386814	0.719011	0.943658
	C5937	C	0.450385	0.662079	0.900488
	C5938	C	0.425617	0.717759	0.554958
	C5939	C	0.487112	0.650387	0.597947
	C5940	C	0.424639	0.712368	0.899874
	C5941	C	0.488216	0.655167	0.943236
	C5942	C	0.387818	0.724320	0.598306
	C5943	C	0.449269	0.656666	0.555151
	C5944	C	0.424586	0.662040	0.649681
	C5945	C	0.488075	0.719737	0.692627
	C5946	C	0.387790	0.650247	0.847528
	C5947	C	0.449254	0.717892	0.804946
	C5948	C	0.386780	0.655534	0.692372
	C5949	C	0.450233	0.712663	0.649868
	C5950	C	0.425642	0.656493	0.804652
	C5951	C	0.487105	0.724443	0.847617
	C5952	C	0.391646	0.718518	1.016664
	C5953	C	0.454106	0.655862	0.482135
	C5954	C	0.420854	0.718561	0.981497
	C5955	C	0.483287	0.656142	0.516361
	C5956	C	0.420794	0.655889	0.731514
	C5957	C	0.483250	0.718788	0.765967
	C5958	C	0.391623	0.656248	0.765665
	C5959	C	0.454074	0.718679	0.731470
	C5960	C	0.399051	0.717600	1.007635
	C5961	C	0.461478	0.654868	0.491128
	C5962	C	0.413473	0.719516	0.990185
	C5963	C	0.475899	0.656946	0.507789
	C5964	C	0.413430	0.655006	0.740271
	C5965	C	0.475878	0.717896	0.757138
	C5966	C	0.399009	0.657111	0.756829
	C5967	C	0.461441	0.719600	0.740299
	C5968	C	0.403284	0.716240	1.087928
	C5969	C	0.464820	0.657809	1.080214
	C5970	C	0.410210	0.716982	0.579900
	C5971	C	0.471668	0.658313	0.588064
	C5972	C	0.410264	0.717085	1.079246
	C5973	C	0.471816	0.658493	1.088303
	C5974	C	0.403219	0.716160	0.588021
	C5975	C	0.464679	0.657415	0.580023
	C5976	C	0.410210	0.657592	0.829458
	C5977	C	0.472665	0.720306	0.668190
	C5978	C	0.402217	0.654550	0.667796
	C5979	C	0.464659	0.717210	0.828961
	C5980	C	0.403213	0.658527	0.837466
	C5981	C	0.465657	0.721045	0.660101
	C5982	C	0.409217	0.653627	0.659598
	C5983	C	0.471650	0.716478	0.837206
	N5984	N	0.380684	0.726276	0.978419
	N5985	N	0.443898	0.667094	0.923289
	N5986	N	0.431763	0.710709	0.520289
	N5987	N	0.493600	0.645395	0.575283
	N5988	N	0.431126	0.707234	0.922793
	N5989	N	0.494335	0.647799	0.978018
	N5990	N	0.381335	0.729539	0.575122
	N5991	N	0.443170	0.664164	0.520037
	N5992	N	0.431061	0.667057	0.672589
	N5993	N	0.494214	0.726773	0.727271
	N5994	N	0.381316	0.645183	0.824488
	N5995	N	0.443137	0.710498	0.770297
	N5996	N	0.380668	0.648222	0.727644
	N5997	N	0.443758	0.707521	0.673160
	N5998	N	0.431738	0.663946	0.769832
	N5999	N	0.493584	0.729397	0.824542
	H6000	H	0.387467	0.840447	0.368511
	H6001	H	0.451988	0.788075	0.326593
	H6002	H	0.425086	0.847125	0.130508
	H6003	H	0.485659	0.774874	0.171736
	H6004	H	0.423025	0.836621	0.326995
	H6005	H	0.487549	0.784576	0.367292
	H6006	H	0.389421	0.850411	0.170953
	H6007	H	0.450048	0.777788	0.129587
	H6008	H	0.423030	0.787996	0.076061
	H6009	H	0.487436	0.840747	0.117857
	H6010	H	0.389446	0.774312	0.421105
	H6011	H	0.449944	0.847115	0.380557
	H6012	H	0.387532	0.784254	0.117861
	H6013	H	0.451954	0.836865	0.076930
	H6014	H	0.425120	0.777325	0.380206
	H6015	H	0.485589	0.849686	0.422718
	H6016	H	0.400997	0.839721	0.658896
	H6017	H	0.463555	0.777217	0.339342
	H6018	H	0.413258	0.839560	0.144066
	H6019	H	0.474030	0.785187	0.158624
	H6020	H	0.413209	0.841049	0.644643
	H6021	H	0.475745	0.778330	0.353669
	H6022	H	0.401025	0.838706	0.158305
	H6023	H	0.461807	0.783997	0.143823
	H6024	H	0.411534	0.776568	0.089936
	H6025	H	0.473947	0.840124	0.409289
	H6026	H	0.401109	0.785076	0.408468
	H6027	H	0.463543	0.847389	0.089883
	H6028	H	0.399322	0.777820	0.103742
	H6029	H	0.461732	0.841289	0.394897
	H6030	H	0.413336	0.783895	0.394284
	H6031	H	0.475764	0.845641	0.104606
	Co6032	Co	0.499928	0.875333	0.154734
	Co6033	Co	0.437525	0.812339	0.093688
	Co6034	Co	0.375015	0.749755	0.404679
	Co6035	Co	0.437498	0.812494	0.343196
	C6036	C	0.386816	0.844529	0.443405
	C6037	C	0.450361	0.787208	0.400149
	C6038	C	0.425663	0.842771	0.055328
	C6039	C	0.487257	0.775603	0.097853
	C6040	C	0.424616	0.837471	0.400658
	C6041	C	0.488161	0.780472	0.442907
	C6042	C	0.387833	0.849598	0.097912
	C6043	C	0.449439	0.782049	0.054917
	C6044	C	0.424684	0.787028	0.150062
	C6045	C	0.488111	0.844653	0.193167
	C6046	C	0.387855	0.775068	0.347949
	C6047	C	0.449329	0.843026	0.305525
	C6048	C	0.386895	0.780122	0.193121
	C6049	C	0.450321	0.837904	0.150525
	C6050	C	0.425721	0.781609	0.305019
	C6051	C	0.487195	0.849056	0.348751
	C6052	C	0.391608	0.843795	0.516695
	C6053	C	0.454223	0.781410	-0.018371
	C6054	C	0.420816	0.843454	0.482064
	C6055	C	0.483427	0.781255	0.016227
	C6056	C	0.420908	0.780912	0.231869
	C6057	C	0.483337	0.843484	0.266965
	C6058	C	0.391683	0.780991	0.266398
	C6059	C	0.454136	0.843804	0.232253
	C6060	C	0.399007	0.842838	0.507883
	C6061	C	0.461628	0.780529	-0.009582
	C6062	C	0.413431	0.844496	0.490889
	C6063	C	0.476050	0.782278	0.007607
	C6064	C	0.413511	0.780021	0.240805
	C6065	C	0.475944	0.842578	0.258313
	C6066	C	0.399074	0.781859	0.257545
	C6067	C	0.461524	0.844685	0.241086
	C6068	C	0.403223	0.841404	0.588386
	C6069	C	0.465773	0.778924	0.410213
	C6070	C	0.410227	0.841414	0.079766
	C6071	C	0.471824	0.783591	0.087708
	C6072	C	0.410207	0.842230	0.580014
	C6073	C	0.472750	0.779757	0.418296
	C6074	C	0.403244	0.840686	0.087702
	C6075	C	0.464842	0.782706	0.079535
	C6076	C	0.409295	0.778543	0.160479
	C6077	C	0.471728	0.841748	0.338698
	C6078	C	0.403314	0.783246	0.337746
	C6079	C	0.465747	0.845770	0.160659
	C6080	C	0.402305	0.779287	0.168600
	C6081	C	0.464739	0.842485	0.330302
	C6082	C	0.410304	0.782508	0.329876
	C6083	C	0.472736	0.844787	0.169117
	N6084	N	0.380685	0.851916	0.478096
	N6085	N	0.443873	0.792374	0.423294
	N6086	N	0.431776	0.835427	0.020631
	N6087	N	0.493715	0.770261	0.074785
	N6088	N	0.431102	0.832587	0.422892
	N6089	N	0.494293	0.773210	0.477750
	N6090	N	0.381353	0.854819	0.074803
	N6091	N	0.443303	0.789391	0.019974
	N6092	N	0.431170	0.792084	0.173123
	N6093	N	0.494257	0.851790	0.227803
	N6094	N	0.381382	0.769900	0.325042
	N6095	N	0.443208	0.835803	0.270593
	N6096	N	0.380760	0.772933	0.227563
	N6097	N	0.443841	0.832814	0.173299
	N6098	N	0.431832	0.789057	0.269975
	N6099	N	0.493662	0.854278	0.325068
	H6100	H	0.387434	0.840254	0.867671
	H6101	H	0.452053	0.788228	0.826183
	H6102	H	0.425088	0.846993	0.630366
	H6103	H	0.485509	0.774810	0.671216
	H6104	H	0.423017	0.836423	0.827523
	H6105	H	0.487608	0.784020	0.867430
	H6106	H	0.389479	0.850851	0.672582
	H6107	H	0.450010	0.777816	0.630819
	H6108	H	0.423046	0.787989	0.576338
	H6109	H	0.487663	0.839815	0.617829
	H6110	H	0.389452	0.774004	0.922351
	H6111	H	0.450030	0.847019	0.880237
	H6112	H	0.387435	0.784595	0.618370
	H6113	H	0.451976	0.837012	0.576101
	H6114	H	0.425115	0.777293	0.879760
	H6115	H	0.485511	0.850626	0.921122
	H6116	H	0.399232	0.846887	0.854239
	H6117	H	0.463634	0.777494	0.839310
	H6118	H	0.411445	0.847545	0.340109
	H6119	H	0.473982	0.785284	0.658406
	H6120	H	0.411490	0.848208	0.840347
	H6121	H	0.475805	0.778388	0.853782
	H6122	H	0.399186	0.846664	0.354398
	H6123	H	0.461752	0.784008	0.644231
	H6124	H	0.413300	0.784095	0.893883
	H6125	H	0.475805	0.846358	0.603667
	H6126	H	0.399242	0.778170	0.604463
	H6127	H	0.461804	0.840611	0.893362
	H6128	H	0.401074	0.785514	0.908746
	H6129	H	0.463609	0.847598	0.588780
	H6130	H	0.411482	0.776919	0.589569
	H6131	H	0.473984	0.839387	0.907801
	Co6132	Co	0.500033	0.874843	0.654893
	Co6133	Co	0.437511	0.812671	0.593062
	Co6134	Co	0.375029	0.749507	0.904631
	Co6135	Co	0.437540	0.812355	0.843197
	C6136	C	0.386833	0.844438	0.943110
	C6137	C	0.450439	0.787392	0.899841
	C6138	C	0.425640	0.842842	0.554998
	C6139	C	0.487137	0.775440	0.597751
	C6140	C	0.424636	0.837429	0.900721
	C6141	C	0.488201	0.780085	0.942646
	C6142	C	0.387829	0.849853	0.598401
	C6143	C	0.449358	0.782090	0.555196
	C6144	C	0.424677	0.787184	0.649754
	C6145	C	0.488226	0.844195	0.693132
	C6146	C	0.387853	0.775039	0.848113
	C6147	C	0.449406	0.842896	0.804761
	C6148	C	0.386864	0.780379	0.693379
	C6149	C	0.450360	0.837963	0.649565
	C6150	C	0.425729	0.781598	0.804589
	C6151	C	0.487168	0.849485	0.847939
	C6152	C	0.391632	0.843509	1.016286
	C6153	C	0.454160	0.781249	0.481967
	C6154	C	0.420860	0.843478	0.982220
	C6155	C	0.483348	0.781390	0.516052
	C6156	C	0.420913	0.780971	0.731458
	C6157	C	0.483396	0.843419	0.766008
	C6158	C	0.391648	0.781062	0.766625
	C6159	C	0.454190	0.843717	0.731066
	C6160	C	0.399027	0.842460	1.007552
	C6161	C	0.461554	0.780356	0.490567
	C6162	C	0.413468	0.844302	0.990958
	C6163	C	0.475968	0.782299	0.507358
	C6164	C	0.413481	0.780099	0.740440
	C6165	C	0.476005	0.842493	0.756989
	C6166	C	0.399051	0.781998	0.757849
	C6167	C	0.461571	0.844453	0.739744
	C6168	C	0.402247	0.845187	0.918761
	C6169	C	0.465845	0.779206	0.910068
	C6170	C	0.409210	0.845875	0.410716
	C6171	C	0.471763	0.783573	0.587619
	C6172	C	0.409242	0.846102	0.910667
	C6173	C	0.472827	0.779892	0.918525
	C6174	C	0.402225	0.845253	0.418766
	C6175	C	0.464772	0.782700	0.579607
	C6176	C	0.410265	0.782737	0.829468
	C6177	C	0.472783	0.845025	0.668016
	C6178	C	0.402271	0.779525	0.668684
	C6179	C	0.464804	0.842009	0.828751
	C6180	C	0.403286	0.783534	0.838034
	C6181	C	0.465796	0.845888	0.659631
	C6182	C	0.409253	0.778708	0.660184
	C6183	C	0.471775	0.841211	0.837253
	N6184	N	0.380701	0.851779	0.977694
	N6185	N	0.443938	0.792429	0.923034
	N6186	N	0.431772	0.835654	0.520133
	N6187	N	0.493613	0.770306	0.574968
	N6188	N	0.431116	0.832320	0.923257
	N6189	N	0.494331	0.772855	0.977105
	N6190	N	0.381337	0.855051	0.575276
	N6191	N	0.443232	0.789429	0.520418
	N6192	N	0.431166	0.792323	0.672704
	N6193	N	0.494337	0.851588	0.728245
	N6194	N	0.381365	0.769989	0.825267
	N6195	N	0.443266	0.835688	0.770273
	N6196	N	0.380721	0.773066	0.728091
	N6197	N	0.443878	0.832837	0.672837
	N6198	N	0.431843	0.789097	0.769681
	N6199	N	0.493655	0.854656	0.825305
	H6200	H	0.387523	0.965180	0.368025
	H6201	H	0.451986	0.913037	0.326758
	H6202	H	0.424957	0.972127	0.129947
	H6203	H	0.485473	0.899797	0.171431
	H6204	H	0.423082	0.961690	0.326889
	H6205	H	0.487569	0.909203	0.367204
	H6206	H	0.389480	0.975985	0.171516
	H6207	H	0.449857	0.902855	0.130311
	H6208	H	0.422984	0.913548	0.077103
	H6209	H	0.487543	0.964931	0.118075
	H6210	H	0.389412	0.899571	0.422380
	H6211	H	0.449958	0.971856	0.380483
	H6212	H	0.387491	0.909633	0.118613
	H6213	H	0.451878	0.962259	0.075859
	H6214	H	0.425077	0.902505	0.380398
	H6215	H	0.485463	0.975839	0.421162
	H6216	H	0.399306	0.971177	0.354208
	H6217	H	0.463573	0.902112	0.339458
	H6218	H	0.413238	0.965649	0.143305
	H6219	H	0.475682	0.903159	-0.145782
	H6220	H	0.411553	0.972914	0.339421
	H6221	H	0.475791	0.903372	0.353906
	H6222	H	0.400974	0.964748	0.158047
	H6223	H	0.463453	0.901984	-0.160085
	H6224	H	0.411397	0.901651	0.090212
	H6225	H	0.473927	0.964615	0.407929
	H6226	H	0.401012	0.910211	0.409057
	H6227	H	0.463496	0.972885	0.088671
	H6228	H	0.399248	0.902826	0.104651
	H6229	H	0.461685	0.965804	0.393212
	H6230	H	0.413264	0.909271	0.394580
	H6231	H	0.475748	0.971589	0.103031
	Co6232	Co	0.499968	0.999770	0.154985
	Co6233	Co	0.437432	0.937778	0.093452
	Co6234	Co	0.374938	0.875113	0.405110
	Co6235	Co	0.437537	0.937055	0.342995
	C6236	C	0.386908	0.969384	0.442855
	C6237	C	0.450376	0.912060	0.400326
	C6238	C	0.425576	0.968118	0.054583
	C6239	C	0.487077	0.900636	0.098123
	C6240	C	0.424728	0.962750	0.399769
	C6241	C	0.488173	0.905086	0.442641
	C6242	C	0.387807	0.975055	0.098040
	C6243	C	0.449236	0.907030	0.055016
	C6244	C	0.424602	0.912348	0.150570
	C6245	C	0.488149	0.969253	0.193004
	C6246	C	0.387805	0.900402	0.348488
	C6247	C	0.449314	0.967970	0.304831
	C6248	C	0.386877	0.905250	0.193379
	C6249	C	0.450270	0.963042	0.149570
	C6250	C	0.425666	0.906741	0.304940
	C6251	C	0.487113	0.974700	0.347896
	C6252	C	0.391711	0.968669	0.516158
	C6253	C	0.454058	0.906162	-0.018068
	C6254	C	0.420950	0.969052	0.481522
	C6255	C	0.483263	0.906542	0.016463
	C6256	C	0.420838	0.906201	0.232238
	C6257	C	0.483319	0.968730	0.266067
	C6258	C	0.391650	0.906218	0.266977
	C6259	C	0.454100	0.968852	0.231191
	C6260	C	0.399114	0.967925	0.507643
	C6261	C	0.461444	0.905111	-0.009113
	C6262	C	0.413560	0.970088	0.490471
	C6263	C	0.475885	0.907164	0.007680
	C6264	C	0.413468	0.905117	0.241262
	C6265	C	0.475936	0.967890	0.256921
	C6266	C	0.399032	0.906973	0.258260
	C6267	C	0.461504	0.969824	0.239757
	C6268	C	0.402352	0.970295	0.418531
	C6269	C	0.465788	0.903906	0.410075
	C6270	C	0.410196	0.967163	0.078973
	C6271	C	0.472661	0.904556	-0.081280
	C6272	C	0.409343	0.971199	0.410153
	C6273	C	0.472774	0.904765	0.418226
	C6274	C	0.403212	0.966378	0.087533
	C6275	C	0.465673	0.903645	-0.089302
	C6276	C	0.409219	0.903558	0.160902
	C6277	C	0.471709	0.966566	0.337202
	C6278	C	0.403243	0.908451	0.338520
	C6279	C	0.465735	0.971172	0.159432
	C6280	C	0.402236	0.904367	0.169156
	C6281	C	0.464719	0.967322	0.328901
	C6282	C	0.410245	0.907694	0.330346
	C6283	C	0.472730	0.970334	0.167684
	N6284	N	0.380784	0.976690	0.477594
	N6285	N	0.443890	0.917059	0.423330
	N6286	N	0.431715	0.960900	0.020155
	N6287	N	0.493567	0.895471	0.075013
	N6288	N	0.431188	0.957373	0.422705
	N6289	N	0.494293	0.897664	0.477738
	N6290	N	0.381323	0.980150	0.075167
	N6291	N	0.443144	0.914518	0.020450
	N6292	N	0.431084	0.917358	0.172799
	N6293	N	0.494259	0.976469	0.227887
	N6294	N	0.381336	0.895211	0.325057
	N6295	N	0.443162	0.960722	0.270259
	N6296	N	0.380744	0.898087	0.228005
	N6297	N	0.443781	0.957946	0.173218
	N6298	N	0.431777	0.914096	0.270087
	N6299	N	0.493608	0.979593	0.325100
	H6300	H	0.387406	0.965599	0.868023
	H6301	H	0.451902	0.913190	0.826989
	H6302	H	0.425203	0.972574	0.629966
	H6303	H	0.485516	0.899527	0.671855
	H6304	H	0.422995	0.962416	0.825342
	H6305	H	0.487454	0.910004	0.867560
	H6306	H	0.389526	0.975416	0.671167
	H6307	H	0.450015	0.902527	0.630182
	H6308	H	0.423017	0.913085	0.576025
	H6309	H	0.487530	0.965277	0.617940
	H6310	H	0.389521	0.899263	0.920799
	H6311	H	0.449944	0.972042	0.880736
	H6312	H	0.387429	0.910229	0.617950
	H6313	H	0.451991	0.961901	0.577250
	H6314	H	0.424943	0.903097	0.879424
	H6315	H	0.485565	0.975082	0.922518
	H6316	H	0.399128	0.971502	0.853847
	H6317	H	0.461641	0.909266	1.144503
	H6318	H	0.413336	0.966650	0.644219
	H6319	H	0.474048	0.910623	0.658101
	H6320	H	0.411377	0.972506	0.838561
	H6321	H	0.473866	0.910286	1.158663
	H6322	H	0.401105	0.965099	0.658817
	H6323	H	0.461788	0.909350	0.643647
	H6324	H	0.411429	0.902562	0.588390
	H6325	H	0.475772	0.972003	0.604879
	H6326	H	0.401040	0.910031	0.907931
	H6327	H	0.461718	0.965779	0.894476
	H6328	H	0.399183	0.903607	0.603300
	H6329	H	0.463539	0.972810	0.590095
	H6330	H	0.413250	0.908700	0.893087
	H6331	H	0.473968	0.964407	0.909458
	Co6332	Co	0.499995	0.999950	0.654996
	Co6333	Co	0.437540	0.937180	0.593422
	Co6334	Co	0.374977	0.874900	0.904151
	Co6335	Co	0.437433	0.937813	0.843263
	C6336	C	0.386772	0.969795	0.943155
	C6337	C	0.450267	0.912460	0.900511
	C6338	C	0.425777	0.968236	0.554480
	C6339	C	0.487163	0.900167	0.597948
	C6340	C	0.424617	0.963176	0.899485
	C6341	C	0.488060	0.905701	0.943060
	C6342	C	0.387908	0.974635	0.597695
	C6343	C	0.449393	0.906844	0.555112
	C6344	C	0.424642	0.912174	0.649500
	C6345	C	0.488164	0.969471	0.693325
	C6346	C	0.387817	0.900206	0.847827
	C6347	C	0.449353	0.967894	0.805492
	C6348	C	0.386788	0.905758	0.692995
	C6349	C	0.450383	0.962541	0.650693
	C6350	C	0.425588	0.907160	0.804524
	C6351	C	0.487192	0.974516	0.848732
	C6352	C	0.391594	0.969025	1.016254
	C6353	C	0.454191	0.906092	0.481909
	C6354	C	0.420782	0.968876	0.981070
	C6355	C	0.483388	0.906105	0.516159
	C6356	C	0.420791	0.906299	0.730998
	C6357	C	0.483371	0.968598	0.766898
	C6358	C	0.391627	0.906365	0.766115
	C6359	C	0.454157	0.968598	0.732389
	C6360	C	0.398989	0.967904	1.007311
	C6361	C	0.461579	0.905305	0.490501
	C6362	C	0.413401	0.969612	0.989812
	C6363	C	0.475999	0.907214	0.507271
	C6364	C	0.413418	0.905369	0.739573
	C6365	C	0.475969	0.967798	0.758267
	C6366	C	0.399009	0.907285	0.756937
	C6367	C	0.461542	0.969581	0.741200
	C6368	C	0.402178	0.970215	0.918032
	C6369	C	0.464653	0.907555	1.079910
	C6370	C	0.410333	0.967733	0.579549
	C6371	C	0.471798	0.908682	0.587677
	C6372	C	0.409176	0.970907	0.909552
	C6373	C	0.471654	0.908535	1.087908
	C6374	C	0.403330	0.966877	0.588156
	C6375	C	0.464813	0.907929	0.579319
	C6376	C	0.409203	0.904167	0.659028
	C6377	C	0.472760	0.970447	0.669350
	C6378	C	0.403231	0.908507	0.837193
	C6379	C	0.464769	0.967141	0.830372
	C6380	C	0.402207	0.904964	0.667644
	C6381	C	0.465770	0.971092	0.660862
	C6382	C	0.410223	0.907612	0.828795
	C6383	C	0.471756	0.966214	0.838629
	N6384	N	0.380656	0.977145	0.978223
	N6385	N	0.443808	0.917652	0.923273
	N6386	N	0.431871	0.960548	0.519768
	N6387	N	0.493637	0.894801	0.574950
	N6388	N	0.431106	0.958058	0.922729
	N6389	N	0.494198	0.898408	0.977677
	N6390	N	0.381428	0.979748	0.574681
	N6391	N	0.443256	0.914038	0.520380
	N6392	N	0.431125	0.917236	0.673013
	N6393	N	0.494291	0.976755	0.728372
	N6394	N	0.381334	0.895228	0.825023
	N6395	N	0.443224	0.960650	0.770404
	N6396	N	0.380665	0.898421	0.727902
	N6397	N	0.443889	0.957470	0.673289
	N6398	N	0.431719	0.914403	0.770172
	N6399	N	0.493664	0.979672	0.825609
	H6400	H	0.512399	0.090576	0.368016
	H6401	H	0.576982	0.038116	0.327006
	H6402	H	0.549990	0.096869	0.130814
	H6403	H	0.610566	0.024723	0.172628
	H6404	H	0.548020	0.087170	0.327933
	H6405	H	0.612460	0.034112	0.369234
	H6406	H	0.514376	0.099814	0.172135
	H6407	H	0.574959	0.027867	0.131318
	H6408	H	0.548033	0.037881	0.077366
	H6409	H	0.612563	0.090493	0.119190
	H6410	H	0.514396	0.024783	0.421667
	H6411	H	0.575008	0.096837	0.381429
	H6412	H	0.512438	0.034298	0.117689
	H6413	H	0.576947	0.086859	0.076840
	H6414	H	0.550016	0.027924	0.381172
	H6415	H	0.610553	0.100458	0.422244
	H6416	H	0.524188	0.096256	0.354810
	H6417	H	0.588489	0.027115	0.340534
	H6418	H	0.538254	0.091082	0.144457
	H6419	H	0.598989	0.034597	0.159575
	H6420	H	0.536442	0.097370	0.340593
	H6421	H	0.600714	0.028397	0.354856
	H6422	H	0.526013	0.089898	0.158774
	H6423	H	0.586754	0.033427	0.145190
	H6424	H	0.536470	0.027375	0.090406
	H6425	H	0.600782	0.096087	0.104987
	H6426	H	0.526003	0.035087	0.409051
	H6427	H	0.586725	0.091138	0.394884
	H6428	H	0.524263	0.028540	0.104190
	H6429	H	0.588543	0.097196	0.090538
	H6430	H	0.538255	0.033788	0.394904
	H6431	H	0.598989	0.090004	0.409856
	Co6432	Co	0.625007	0.125241	0.156279
	Co6433	Co	0.562460	0.062541	0.094236
	Co6434	Co	0.499997	-0.000056	0.404816
	Co6435	Co	0.562481	0.062666	0.344532
	C6436	C	0.511793	0.094440	0.443273
	C6437	C	0.575321	0.037284	0.400903
	C6438	C	0.550634	0.092991	0.055689
	C6439	C	0.612171	0.025297	0.098866
	C6440	C	0.549667	0.087930	0.401236
	C6441	C	0.613117	0.030181	0.444335
	C6442	C	0.512792	0.099118	0.098327
	C6443	C	0.574342	0.032052	0.056112
	C6444	C	0.549670	0.037116	0.151222
	C6445	C	0.613178	0.094560	0.194295
	C6446	C	0.512802	0.025368	0.348043
	C6447	C	0.574364	0.092875	0.305818
	C6448	C	0.511839	0.030236	0.193067
	C6449	C	0.575341	0.087800	0.150839
	C6450	C	0.550643	0.032139	0.306089
	C6451	C	0.612166	0.099682	0.349080
	C6452	C	0.516592	0.093483	0.516658
	C6453	C	0.579150	0.031259	-0.017167
	C6454	C	0.545831	0.093602	0.482909
	C6455	C	0.608348	0.031077	0.016898
	C6456	C	0.545835	0.031222	0.232805
	C6457	C	0.608364	0.093813	0.267432
	C6458	C	0.516642	0.031155	0.266461
	C6459	C	0.579167	0.093613	0.232602
	C6460	C	0.523988	0.092640	0.508082
	C6461	C	0.586533	0.030241	-0.008656
	C6462	C	0.538437	0.094478	0.491579
	C6463	C	0.600966	0.031969	0.008218
	C6464	C	0.538443	0.030248	0.241483
	C6465	C	0.600987	0.092736	0.258755
	C6466	C	0.523996	0.032053	0.258040
	C6467	C	0.586556	0.094493	0.241458
	C6468	C	0.527220	0.094896	0.419086
	C6469	C	0.590718	0.028911	0.411135
	C6470	C	0.535232	0.092323	0.079842
	C6471	C	0.596762	0.033039	0.088713
	C6472	C	0.534220	0.095640	0.411107
	C6473	C	0.597716	0.029593	0.419436
	C6474	C	0.528244	0.091502	0.088017
	C6475	C	0.589765	0.032219	0.080487
	C6476	C	0.534233	0.029041	0.161039
	C6477	C	0.597763	0.094909	0.169536
	C6478	C	0.528209	0.033378	0.338367
	C6479	C	0.589770	0.092328	0.330602
	C6480	C	0.527239	0.029815	0.169125
	C6481	C	0.590776	0.095677	0.161212
	C6482	C	0.535221	0.032543	0.330459
	C6483	C	0.596763	0.091612	0.339093
	N6484	N	0.505660	0.101688	0.478366
	N6485	N	0.568836	0.042374	0.423880
	N6486	N	0.556782	0.085848	0.021318
	N6487	N	0.618663	0.020233	0.075841
	N6488	N	0.556155	0.082959	0.424214
	N6489	N	0.619238	0.023139	0.478850
	N6490	N	0.506313	0.104323	0.075246
	N6491	N	0.568223	0.039453	0.021223
	N6492	N	0.556137	0.042176	0.174234
	N6493	N	0.619307	0.101751	0.228840
	N6494	N	0.506329	0.020189	0.325142
	N6495	N	0.568223	0.085677	0.271013
	N6496	N	0.505703	0.023013	0.227601
	N6497	N	0.568860	0.082765	0.173928
	N6498	N	0.556763	0.039390	0.271446
	N6499	N	0.618650	0.104707	0.326221
	H6500	H	0.512439	0.090818	0.867409
	H6501	H	0.576962	0.038214	0.828373
	H6502	H	0.549993	0.096864	0.631511
	H6503	H	0.610536	0.024789	0.672936
	H6504	H	0.548050	0.086864	0.827126
	H6505	H	0.612502	0.034009	0.868351
	H6506	H	0.514418	0.099918	0.671712
	H6507	H	0.574940	0.027773	0.631327
	H6508	H	0.548054	0.037704	0.578208
	H6509	H	0.612543	0.090999	0.618748
	H6510	H	0.514472	0.024841	0.921910
	H6511	H	0.575018	0.097096	0.880761
	H6512	H	0.512475	0.034431	0.618106
	H6513	H	0.576974	0.086739	0.577353
	H6514	H	0.550053	0.027955	0.881291
	H6515	H	0.610538	0.100040	0.922681
	H6516	H	0.524231	0.096450	0.854217
	H6517	H	0.588520	0.027731	0.840345
	H6518	H	0.538191	0.091034	0.645032
	H6519	H	0.598921	0.035345	0.659252
	H6520	H	0.536441	0.097485	0.839567
	H6521	H	0.600753	0.028671	0.854670
	H6522	H	0.525964	0.089858	0.659073
	H6523	H	0.586690	0.033838	0.645087
	H6524	H	0.536507	0.027571	0.590637
	H6525	H	0.600830	0.095903	0.604621
	H6526	H	0.526053	0.034744	0.909438
	H6527	H	0.586748	0.091259	0.894620
	H6528	H	0.524288	0.028732	0.604557
	H6529	H	0.588624	0.097156	0.589878
	H6530	H	0.538277	0.033539	0.895070
	H6531	H	0.599023	0.090321	0.909581
	Co6532	Co	0.625047	0.125420	0.656074
	Co6533	Co	0.562484	0.062480	0.594381
	Co6534	Co	0.500009	0.000143	0.905176
	Co6535	Co	0.562522	0.062687	0.844117
	C6536	C	0.511848	0.094578	0.943113
	C6537	C	0.575347	0.037319	0.901251
	C6538	C	0.550636	0.092805	0.556134
	C6539	C	0.612157	0.025625	0.599345
	C6540	C	0.549678	0.087948	0.900710
	C6541	C	0.613155	0.030076	0.943675
	C6542	C	0.512794	0.099333	0.598391
	C6543	C	0.574315	0.031884	0.556067
	C6544	C	0.549698	0.036914	0.651088
	C6545	C	0.613213	0.094787	0.694091
	C6546	C	0.512871	0.025343	0.848189
	C6547	C	0.574354	0.092957	0.805658
	C6548	C	0.511867	0.030530	0.693423
	C6549	C	0.575337	0.087694	0.650745
	C6550	C	0.550695	0.031941	0.806158
	C6551	C	0.612236	0.099469	0.849344
	C6552	C	0.516628	0.093545	1.016629
	C6553	C	0.579125	0.031233	0.482548
	C6554	C	0.545857	0.093699	0.982152
	C6555	C	0.608305	0.031172	0.517428
	C6556	C	0.545886	0.030999	0.732805
	C6557	C	0.608375	0.093794	0.767627
	C6558	C	0.516675	0.031444	0.766645
	C6559	C	0.579210	0.093717	0.732428
	C6560	C	0.524021	0.092667	1.007775
	C6561	C	0.586497	0.030228	0.491404
	C6562	C	0.538459	0.094550	0.990741
	C6563	C	0.600919	0.032053	0.508371
	C6564	C	0.538476	0.030084	0.741584
	C6565	C	0.601014	0.092835	0.758562
	C6566	C	0.524046	0.032220	0.758201
	C6567	C	0.586570	0.094609	0.741148
	C6568	C	0.527244	0.095000	0.918691
	C6569	C	0.590749	0.029086	0.911069
	C6570	C	0.535196	0.092164	0.580410
	C6571	C	0.596703	0.033370	0.588753
	C6572	C	0.534226	0.095737	0.910328
	C6573	C	0.597743	0.029696	0.919362
	C6574	C	0.528201	0.091438	0.588519
	C6575	C	0.589708	0.032585	0.580567
	C6576	C	0.534267	0.029002	0.661127
	C6577	C	0.597818	0.094903	0.669287
	C6578	C	0.528256	0.033290	0.838717
	C6579	C	0.589767	0.092508	0.830198
	C6580	C	0.527280	0.030059	0.669261
	C6581	C	0.590802	0.095746	0.660908
	C6582	C	0.535249	0.032363	0.830667
	C6583	C	0.596790	0.091817	0.838878
	N6584	N	0.505707	0.101649	0.977823
	N6585	N	0.568889	0.042480	0.923912
	N6586	N	0.556762	0.085761	0.521613
	N6587	N	0.618619	0.020515	0.576312
	N6588	N	0.556169	0.082867	0.924035
	N6589	N	0.619291	0.022952	0.978572
	N6590	N	0.506312	0.104524	0.575375
	N6591	N	0.568185	0.039337	0.521003
	N6592	N	0.556170	0.042222	0.674209
	N6593	N	0.619326	0.102021	0.729059
	N6594	N	0.506397	0.020108	0.825243
	N6595	N	0.568239	0.085742	0.771185
	N6596	N	0.505758	0.023030	0.727877
	N6597	N	0.568875	0.082639	0.673949
	N6598	N	0.556818	0.039356	0.771231
	N6599	N	0.618701	0.104668	0.826312
	H6600	H	0.512533	0.216399	0.367362
	H6601	H	0.576999	0.163133	0.327985
	H6602	H	0.549970	0.221460	0.131416
	H6603	H	0.610580	0.149839	0.172545
	H6604	H	0.548036	0.211836	0.328010
	H6605	H	0.612584	0.159323	0.368715
	H6606	H	0.514381	0.224753	0.172095
	H6607	H	0.574975	0.152786	0.130592
	H6608	H	0.548030	0.162666	0.077443
	H6609	H	0.612520	0.215339	0.118935
	H6610	H	0.514421	0.149800	0.421057
	H6611	H	0.574857	0.222551	0.380716
	H6612	H	0.512468	0.158824	0.117482
	H6613	H	0.576978	0.211545	0.077642
	H6614	H	0.549979	0.152890	0.381405
	H6615	H	0.610472	0.225227	0.422551
	H6616	H	0.526002	0.214665	0.658851
	H6617	H	0.588551	0.152909	0.340704
	H6618	H	0.538282	0.215770	0.144209
	H6619	H	0.599001	0.159764	0.158819
	H6620	H	0.538225	0.215851	0.644829
	H6621	H	0.600787	0.154241	0.354853
	H6622	H	0.526025	0.214887	0.158653
	H6623	H	0.586763	0.158396	0.144569
	H6624	H	0.536500	0.152216	0.090256
	H6625	H	0.600754	0.221177	0.105028
	H6626	H	0.526009	0.159812	0.408758
	H6627	H	0.586687	0.216506	0.394956
	H6628	H	0.524275	0.153268	0.104195
	H6629	H	0.588515	0.222405	0.090659
	H6630	H	0.538243	0.159125	0.394338
	H6631	H	0.598930	0.215268	0.409848
	Co6632	Co	0.625016	0.249823	0.155998
	Co6633	Co	0.562498	0.187016	0.094221
	Co6634	Co	0.499982	0.125000	0.405225
	Co6635	Co	0.562499	0.187442	0.344158
	C6636	C	0.511856	0.220082	0.442935
	C6637	C	0.575366	0.162218	0.401324
	C6638	C	0.550629	0.217599	0.055980
	C6639	C	0.612178	0.150502	0.098789
	C6640	C	0.549653	0.212734	0.401352
	C6641	C	0.613182	0.155379	0.443804
	C6642	C	0.512832	0.224246	0.098079
	C6643	C	0.574394	0.156720	0.055302
	C6644	C	0.549646	0.161912	0.150908
	C6645	C	0.613158	0.219450	0.194285
	C6646	C	0.512814	0.150321	0.347716
	C6647	C	0.574301	0.218093	0.305602
	C6648	C	0.511840	0.154973	0.192779
	C6649	C	0.575333	0.212630	0.150804
	C6650	C	0.550629	0.156957	0.306015
	C6651	C	0.612155	0.224484	0.349163
	C6652	C	0.516651	0.218819	0.516264
	C6653	C	0.579166	0.156045	-0.017956
	C6654	C	0.545837	0.218650	0.482929
	C6655	C	0.608404	0.156191	0.017094
	C6656	C	0.545834	0.156097	0.232738
	C6657	C	0.608336	0.218659	0.267470
	C6658	C	0.516639	0.156127	0.266180
	C6659	C	0.579127	0.218853	0.232457
	C6660	C	0.524031	0.217869	0.507656
	C6661	C	0.586558	0.155197	-0.009140
	C6662	C	0.538461	0.219518	0.491503
	C6663	C	0.600987	0.157180	0.008107
	C6664	C	0.538453	0.155276	0.241143
	C6665	C	0.600942	0.217827	0.258608
	C6666	C	0.524020	0.157086	0.257672
	C6667	C	0.586503	0.219840	0.241552
	C6668	C	0.528221	0.216422	0.588134
	C6669	C	0.590783	0.154242	0.411305
	C6670	C	0.535246	0.217188	0.079979
	C6671	C	0.596750	0.158211	0.088355
	C6672	C	0.535215	0.217111	0.580329
	C6673	C	0.597772	0.155224	0.419547
	C6674	C	0.528264	0.216571	0.088016
	C6675	C	0.589770	0.157353	0.080014
	C6676	C	0.534260	0.153950	0.160723
	C6677	C	0.597727	0.220102	0.169528
	C6678	C	0.528227	0.158331	0.337996
	C6679	C	0.589721	0.217692	0.330555
	C6680	C	0.527267	0.154838	0.168868
	C6681	C	0.590730	0.220909	0.161292
	C6682	C	0.535219	0.157553	0.329895
	C6683	C	0.596717	0.216782	0.338971
	N6684	N	0.505724	0.227165	0.477590
	N6685	N	0.568879	0.167267	0.424091
	N6686	N	0.556778	0.210319	0.021530
	N6687	N	0.618675	0.145425	0.076144
	N6688	N	0.556133	0.207592	0.424300
	N6689	N	0.619332	0.148258	0.478558
	N6690	N	0.506340	0.229500	0.075209
	N6691	N	0.568250	0.164095	0.020917
	N6692	N	0.556128	0.166898	0.174026
	N6693	N	0.619286	0.226556	0.229108
	N6694	N	0.506348	0.145016	0.324807
	N6695	N	0.568181	0.210666	0.270795
	N6696	N	0.505717	0.147685	0.227553
	N6697	N	0.568854	0.207425	0.173710
	N6698	N	0.556757	0.164179	0.271120
	N6699	N	0.618641	0.229501	0.326261
	H6700	H	0.512504	0.216383	0.867828
	H6701	H	0.576931	0.163042	0.826832
	H6702	H	0.550061	0.222149	0.631474
	H6703	H	0.610648	0.150176	0.672248
	H6704	H	0.548069	0.211846	0.827519
	H6705	H	0.612536	0.158982	0.868337
	H6706	H	0.514408	0.224742	0.671471
	H6707	H	0.574982	0.152819	0.631279
	H6708	H	0.548050	0.162784	0.577524
	H6709	H	0.612564	0.215439	0.618291
	H6710	H	0.514551	0.149900	0.921480
	H6711	H	0.574983	0.222318	0.880788
	H6712	H	0.512577	0.159005	0.617545
	H6713	H	0.576994	0.212259	0.577122
	H6714	H	0.550097	0.152877	0.881527
	H6715	H	0.610538	0.225431	0.922200
	H6716	H	0.524242	0.221470	0.854172
	H6717	H	0.588601	0.152699	0.839934
	H6718	H	0.536538	0.222853	0.340652
	H6719	H	0.598998	0.159763	0.659672
	H6720	H	0.536511	0.222647	0.840170
	H6721	H	0.600829	0.153950	0.854830
	H6722	H	0.524286	0.221876	0.354214
	H6723	H	0.586769	0.158677	0.645310
	H6724	H	0.538312	0.159002	0.895246
	H6725	H	0.600795	0.221123	0.604563
	H6726	H	0.524332	0.153345	0.603928
	H6727	H	0.586726	0.216831	0.894567
	H6728	H	0.526078	0.160319	0.909029
	H6729	H	0.588554	0.222208	0.589885
	H6730	H	0.536556	0.152120	0.590299
	H6731	H	0.598938	0.215420	0.909492
	Co6732	Co	0.625021	0.250065	0.656152
	Co6733	Co	0.562511	0.187323	0.594294
	Co6734	Co	0.500042	0.125178	0.905525
	Co6735	Co	0.562561	0.187488	0.844530
	C6736	C	0.511889	0.219987	0.943187
	C6737	C	0.575375	0.162078	0.900706
	C6738	C	0.550648	0.217823	0.556260
	C6739	C	0.612223	0.150729	0.598789
	C6740	C	0.549695	0.212750	0.901073
	C6741	C	0.613177	0.155354	0.943863
	C6742	C	0.512803	0.224407	0.598102
	C6743	C	0.574357	0.157003	0.555999
	C6744	C	0.549688	0.162065	0.651275
	C6745	C	0.613191	0.219421	0.693734
	C6746	C	0.512880	0.150420	0.847776
	C6747	C	0.574339	0.218127	0.805735
	C6748	C	0.511913	0.155025	0.692816
	C6749	C	0.575329	0.212909	0.650793
	C6750	C	0.550706	0.156918	0.806211
	C6751	C	0.612178	0.224543	0.848699
	C6752	C	0.516647	0.218769	1.016433
	C6753	C	0.579168	0.156218	0.482985
	C6754	C	0.545881	0.218512	0.982385
	C6755	C	0.608391	0.156393	0.517150
	C6756	C	0.545874	0.155999	0.732838
	C6757	C	0.608355	0.218593	0.766992
	C6758	C	0.516725	0.156176	0.766124
	C6759	C	0.579156	0.218978	0.732375
	C6760	C	0.524047	0.217834	1.007672
	C6761	C	0.586568	0.155303	0.491829
	C6762	C	0.538463	0.219505	0.990805
	C6763	C	0.601008	0.157265	0.508668
	C6764	C	0.538518	0.155121	0.741465
	C6765	C	0.600986	0.217679	0.758260
	C6766	C	0.524094	0.157096	0.757634
	C6767	C	0.586545	0.219792	0.740985
	C6768	C	0.527262	0.220082	0.918631
	C6769	C	0.590805	0.154177	0.910734
	C6770	C	0.534266	0.220961	0.410928
	C6771	C	0.596784	0.158228	0.588953
	C6772	C	0.534241	0.220856	0.910421
	C6773	C	0.597774	0.155028	0.918842
	C6774	C	0.527264	0.220308	0.418932
	C6775	C	0.589794	0.157469	0.580891
	C6776	C	0.535308	0.157593	0.830427
	C6777	C	0.597777	0.220002	0.669185
	C6778	C	0.527315	0.154762	0.668667
	C6779	C	0.589754	0.217836	0.830140
	C6780	C	0.528301	0.158535	0.838291
	C6781	C	0.590775	0.220798	0.660638
	C6782	C	0.534317	0.153937	0.660915
	C6783	C	0.596754	0.216827	0.838413
	N6784	N	0.505738	0.227060	0.977720
	N6785	N	0.568886	0.167153	0.923754
	N6786	N	0.556776	0.210577	0.521501
	N6787	N	0.618705	0.145611	0.576015
	N6788	N	0.556172	0.207529	0.924325
	N6789	N	0.619311	0.148202	0.978832
	N6790	N	0.506332	0.229709	0.574971
	N6791	N	0.568225	0.164158	0.521186
	N6792	N	0.556158	0.167213	0.674270
	N6793	N	0.619315	0.226662	0.728683
	N6794	N	0.506419	0.145197	0.825007
	N6795	N	0.568214	0.210812	0.771100
	N6796	N	0.505791	0.147964	0.727630
	N6797	N	0.568853	0.207738	0.673960
	N6798	N	0.556815	0.164295	0.771442
	N6799	N	0.618657	0.229597	0.825914
	H6800	H	0.512394	0.340529	0.367936
	H6801	H	0.576998	0.288411	0.327077
	H6802	H	0.550069	0.346931	0.131235
	H6803	H	0.610530	0.274763	0.172138
	H6804	H	0.548022	0.337088	0.328093
	H6805	H	0.612503	0.283853	0.369043
	H6806	H	0.514415	0.350024	0.172175
	H6807	H	0.575024	0.278040	0.130775
	H6808	H	0.548018	0.287816	0.077468
	H6809	H	0.612544	0.340450	0.119412
	H6810	H	0.514420	0.275096	0.421807
	H6811	H	0.574987	0.347126	0.381682
	H6812	H	0.512482	0.284107	0.118202
	H6813	H	0.576996	0.336859	0.078224
	H6814	H	0.550023	0.277794	0.380695
	H6815	H	0.610519	0.351057	0.422649
	H6816	H	0.524197	0.346510	0.354979
	H6817	H	0.588589	0.277676	0.340304
	H6818	H	0.538234	0.340637	0.145746
	H6819	H	0.599020	0.285101	0.159043
	H6820	H	0.536447	0.347563	0.340707
	H6821	H	0.600820	0.278981	0.355428
	H6822	H	0.525991	0.339806	0.159635
	H6823	H	0.586795	0.283880	0.145104
	H6824	H	0.538271	0.283589	0.394722
	H6825	H	0.599009	0.340079	0.409944
	H6826	H	0.524248	0.278724	0.104647
	H6827	H	0.588588	0.347189	0.090512
	H6828	H	0.526052	0.285238	0.409328
	H6829	H	0.586809	0.341062	0.396023
	H6830	H	0.536508	0.277203	0.090340
	H6831	H	0.600798	0.346139	0.105174
	Co6832	Co	0.625037	0.375209	0.155998
	Co6833	Co	0.562504	0.312564	0.093965
	Co6834	Co	0.499972	0.250308	0.404919
	Co6835	Co	0.562499	0.312576	0.344506
	C6836	C	0.511787	0.344284	0.443191
	C6837	C	0.575359	0.287218	0.400549
	C6838	C	0.550676	0.342985	0.056059
	C6839	C	0.612174	0.275400	0.098709
	C6840	C	0.549632	0.337781	0.401503
	C6841	C	0.613123	0.279986	0.444447
	C6842	C	0.512817	0.349224	0.098532
	C6843	C	0.574390	0.282254	0.055923
	C6844	C	0.549675	0.287039	0.150808
	C6845	C	0.613204	0.344653	0.194374
	C6846	C	0.512839	0.275691	0.348165
	C6847	C	0.574338	0.343075	0.306407
	C6848	C	0.511879	0.280193	0.193074
	C6849	C	0.575346	0.337872	0.151379
	C6850	C	0.550682	0.281952	0.305636
	C6851	C	0.612176	0.350021	0.349209
	C6852	C	0.516578	0.343421	0.516519
	C6853	C	0.579213	0.281379	-0.017427
	C6854	C	0.545806	0.343613	0.483014
	C6855	C	0.608365	0.281393	0.016779
	C6856	C	0.545884	0.280987	0.232433
	C6857	C	0.608366	0.343979	0.267492
	C6858	C	0.516667	0.281529	0.266528
	C6859	C	0.579182	0.343817	0.233228
	C6860	C	0.523963	0.342533	0.508286
	C6861	C	0.586586	0.280450	-0.008516
	C6862	C	0.538402	0.344534	0.491569
	C6863	C	0.601016	0.282357	0.007914
	C6864	C	0.538482	0.280174	0.241200
	C6865	C	0.600978	0.342902	0.258718
	C6866	C	0.524044	0.282420	0.258008
	C6867	C	0.586553	0.344688	0.242005
	C6868	C	0.527205	0.344911	0.419385
	C6869	C	0.590792	0.279127	0.410923
	C6870	C	0.535221	0.342143	0.081250
	C6871	C	0.596811	0.283470	0.088339
	C6872	C	0.534201	0.345867	0.411143
	C6873	C	0.597773	0.280047	0.419718
	C6874	C	0.528229	0.341475	0.089218
	C6875	C	0.589812	0.282549	0.080464
	C6876	C	0.535244	0.282545	0.330240
	C6877	C	0.596771	0.341717	0.339269
	C6878	C	0.527271	0.280060	0.169073
	C6879	C	0.590765	0.345688	0.161513
	C6880	C	0.528248	0.283525	0.338381
	C6881	C	0.589771	0.342486	0.331087
	C6882	C	0.534264	0.279036	0.160757
	C6883	C	0.597765	0.344889	0.169510
	N6884	N	0.505663	0.351729	0.477833
	N6885	N	0.568878	0.292415	0.423787
	N6886	N	0.556804	0.335761	0.021157
	N6887	N	0.618642	0.270158	0.076066
	N6888	N	0.556115	0.332720	0.424551
	N6889	N	0.619263	0.272818	0.479209
	N6890	N	0.506337	0.354359	0.075412
	N6891	N	0.568250	0.289401	0.021100
	N6892	N	0.556136	0.292382	0.173822
	N6893	N	0.619311	0.351977	0.229272
	N6894	N	0.506369	0.270261	0.324766
	N6895	N	0.568206	0.335850	0.271586
	N6896	N	0.505753	0.272807	0.227788
	N6897	N	0.568864	0.332756	0.174311
	N6898	N	0.556789	0.289344	0.271096
	N6899	N	0.618649	0.355088	0.326149
	H6900	H	0.512479	0.340596	0.868148
	H6901	H	0.576992	0.288275	0.827121
	H6902	H	0.549935	0.346743	0.631486
	H6903	H	0.610522	0.274763	0.673325
	H6904	H	0.547993	0.336667	0.827999
	H6905	H	0.612540	0.284437	0.868092
	H6906	H	0.514375	0.350400	0.671680
	H6907	H	0.574941	0.277537	0.630912
	H6908	H	0.548066	0.287667	0.577746
	H6909	H	0.612434	0.340657	0.618981
	H6910	H	0.514425	0.275438	0.921302
	H6911	H	0.574904	0.347248	0.881412
	H6912	H	0.512446	0.284120	0.617256
	H6913	H	0.576941	0.336674	0.577448
	H6914	H	0.549986	0.278118	0.881279
	H6915	H	0.610511	0.350368	0.922892
	H6916	H	0.524231	0.346571	0.855461
	H6917	H	0.588543	0.277787	0.840301
	H6918	H	0.538208	0.340860	0.644796
	H6919	H	0.598951	0.284751	0.659988
	H6920	H	0.536495	0.347802	0.841130
	H6921	H	0.600774	0.278841	0.854023
	H6922	H	0.525942	0.339787	0.659384
	H6923	H	0.586697	0.283995	0.644409
	H6924	H	0.536452	0.277167	0.590002
	H6925	H	0.600706	0.346039	0.605053
	H6926	H	0.525949	0.285514	0.908094
	H6927	H	0.586688	0.341250	0.895954
	H6928	H	0.524230	0.278029	0.604247
	H6929	H	0.588496	0.347411	0.590563
	H6930	H	0.538198	0.284345	0.894150
	H6931	H	0.598920	0.340282	0.910025
	Co6932	Co	0.624997	0.374922	0.656273
	Co6933	Co	0.562469	0.312178	0.594668
	Co6934	Co	0.500005	0.250365	0.905085
	Co6935	Co	0.562489	0.312356	0.844305
	C6936	C	0.511854	0.344425	0.943516
	C6937	C	0.575366	0.287245	0.900699
	C6938	C	0.550587	0.342676	0.556379
	C6939	C	0.612160	0.275330	0.599727
	C6940	C	0.549642	0.337636	0.901383
	C6941	C	0.613190	0.280347	0.943674
	C6942	C	0.512779	0.349422	0.598085
	C6943	C	0.574359	0.281805	0.555525
	C6944	C	0.549655	0.287020	0.651362
	C6945	C	0.613069	0.344568	0.694227
	C6946	C	0.512783	0.275758	0.847891
	C6947	C	0.574279	0.343117	0.806178
	C6948	C	0.511797	0.280358	0.692762
	C6949	C	0.575291	0.337786	0.651152
	C6950	C	0.550600	0.282127	0.806042
	C6951	C	0.612103	0.349472	0.849323
	C6952	C	0.516640	0.343533	1.016900
	C6953	C	0.579149	0.281084	0.482077
	C6954	C	0.545852	0.343603	0.983017
	C6955	C	0.608353	0.281079	0.517929
	C6956	C	0.545801	0.281303	0.732693
	C6957	C	0.608279	0.343711	0.767697
	C6958	C	0.516601	0.281401	0.766040
	C6959	C	0.579088	0.343827	0.732957
	C6960	C	0.524028	0.342805	1.008734
	C6961	C	0.586544	0.280266	0.491017
	C6962	C	0.538453	0.344600	0.992120
	C6963	C	0.600960	0.282142	0.508975
	C6964	C	0.538425	0.280459	0.740943
	C6965	C	0.600883	0.342820	0.758950
	C6966	C	0.523991	0.282250	0.757267
	C6967	C	0.586482	0.344778	0.741955
	C6968	C	0.527253	0.345236	0.919829
	C6969	C	0.590796	0.279390	0.911027
	C6970	C	0.535168	0.342099	0.580467
	C6971	C	0.596731	0.283295	0.589056
	C6972	C	0.534244	0.346097	0.911673
	C6973	C	0.597799	0.280178	0.918904
	C6974	C	0.528177	0.341262	0.588757
	C6975	C	0.589747	0.282634	0.580345
	C6976	C	0.534224	0.278930	0.660538
	C6977	C	0.597683	0.344886	0.669636
	C6978	C	0.528191	0.283747	0.837666
	C6979	C	0.589691	0.342564	0.831191
	C6980	C	0.527225	0.279678	0.668518
	C6981	C	0.590704	0.345783	0.661469
	C6982	C	0.535184	0.282951	0.829772
	C6983	C	0.596674	0.341817	0.839388
	N6984	N	0.505719	0.351646	0.978148
	N6985	N	0.568894	0.292346	0.923961
	N6986	N	0.556723	0.335449	0.521688
	N6987	N	0.618649	0.270146	0.576332
	N6988	N	0.556131	0.332628	0.923975
	N6989	N	0.619289	0.272945	0.978607
	N6990	N	0.506306	0.354719	0.575125
	N6991	N	0.568229	0.289225	0.520944
	N6992	N	0.556130	0.291982	0.674374
	N6993	N	0.619208	0.351793	0.728981
	N6994	N	0.506301	0.270508	0.824865
	N6995	N	0.568157	0.335687	0.771294
	N6996	N	0.505660	0.273158	0.727708
	N6997	N	0.568812	0.332558	0.674163
	N6998	N	0.556732	0.289195	0.771698
	N6999	N	0.618585	0.354575	0.826173
	H7000	H	0.512395	0.465105	0.368366
	H7001	H	0.577003	0.413113	0.326974
	H7002	H	0.550048	0.472156	0.131336
	H7003	H	0.610547	0.399352	0.172819
	H7004	H	0.548068	0.461964	0.327235
	H7005	H	0.612532	0.409789	0.368975
	H7006	H	0.514522	0.475214	0.171738
	H7007	H	0.574944	0.402601	0.130644
	H7008	H	0.548138	0.412742	0.077274
	H7009	H	0.612620	0.465268	0.119118
	H7010	H	0.514578	0.399554	0.421917
	H7011	H	0.575022	0.472401	0.380470
	H7012	H	0.512579	0.409078	0.118264
	H7013	H	0.577073	0.461769	0.076760
	H7014	H	0.550075	0.403075	0.381315
	H7015	H	0.610559	0.475625	0.422865
	H7016	H	0.525992	0.464783	0.659052
	H7017	H	0.588568	0.402715	0.340665
	H7018	H	0.538254	0.465686	0.144898
	H7019	H	0.598966	0.410060	0.160303
	H7020	H	0.538237	0.465364	0.643928
	H7021	H	0.600817	0.403691	0.355411
	H7022	H	0.526015	0.464327	0.159417
	H7023	H	0.586728	0.408913	0.145248
	H7024	H	0.536540	0.402034	0.089905
	H7025	H	0.600858	0.470641	0.105040
	H7026	H	0.526114	0.410335	0.408521
	H7027	H	0.586798	0.466095	0.394623
	H7028	H	0.524307	0.403016	0.104370
	H7029	H	0.588628	0.472072	0.090120
	H7030	H	0.538342	0.408923	0.394334
	H7031	H	0.599015	0.464959	0.409647
	Co7032	Co	0.625096	0.500011	0.156520
	Co7033	Co	0.562588	0.437562	0.094209
	Co7034	Co	0.499997	0.375301	0.405441
	Co7035	Co	0.562557	0.437750	0.344262
	C7036	C	0.511793	0.469293	0.443513
	C7037	C	0.575391	0.412194	0.400804
	C7038	C	0.550674	0.467906	0.056267
	C7039	C	0.612214	0.400469	0.099391
	C7040	C	0.549669	0.462827	0.400685
	C7041	C	0.613163	0.405598	0.444406
	C7042	C	0.512850	0.474385	0.098461
	C7043	C	0.574355	0.406907	0.055590
	C7044	C	0.549781	0.411907	0.150650
	C7045	C	0.613215	0.469365	0.194321
	C7046	C	0.512909	0.400190	0.348373
	C7047	C	0.574402	0.468049	0.305294
	C7048	C	0.511926	0.405087	0.193247
	C7049	C	0.575414	0.462824	0.150447
	C7050	C	0.550738	0.407052	0.305576
	C7051	C	0.612187	0.474703	0.349282
	C7052	C	0.516619	0.468508	0.516746
	C7053	C	0.579187	0.406188	-0.017257
	C7054	C	0.545824	0.468726	0.482103
	C7055	C	0.608372	0.406477	0.017887
	C7056	C	0.545921	0.406043	0.232242
	C7057	C	0.608431	0.468559	0.267503
	C7058	C	0.516748	0.405951	0.266600
	C7059	C	0.579201	0.468692	0.232174
	C7060	C	0.524006	0.467530	0.507998
	C7061	C	0.586570	0.405320	-0.008093
	C7062	C	0.538443	0.469471	0.490725
	C7063	C	0.600998	0.407336	0.009129
	C7064	C	0.538545	0.405039	0.240897
	C7065	C	0.601031	0.467505	0.258590
	C7066	C	0.524117	0.406866	0.257703
	C7067	C	0.586611	0.469441	0.241049
	C7068	C	0.528216	0.466314	0.588362
	C7069	C	0.590800	0.404148	0.411318
	C7070	C	0.535232	0.467049	0.080675
	C7071	C	0.596773	0.408434	0.089421
	C7072	C	0.535215	0.467071	0.579703
	C7073	C	0.597781	0.404826	0.419725
	C7074	C	0.528238	0.466205	0.088745
	C7075	C	0.589777	0.407499	0.081140
	C7076	C	0.534320	0.403736	0.160639
	C7077	C	0.597805	0.469641	0.169349
	C7078	C	0.528330	0.408318	0.337902
	C7079	C	0.589819	0.467315	0.330143
	C7080	C	0.527315	0.404428	0.168762
	C7081	C	0.590835	0.470493	0.160873
	C7082	C	0.535329	0.407476	0.329663
	C7083	C	0.596793	0.466525	0.338916
	N7084	N	0.505681	0.476670	0.478458
	N7085	N	0.568910	0.417394	0.423686
	N7086	N	0.556794	0.460635	0.021373
	N7087	N	0.618682	0.395319	0.076120
	N7088	N	0.556131	0.457670	0.423877
	N7089	N	0.619307	0.398369	0.479368
	N7090	N	0.506381	0.479502	0.075492
	N7091	N	0.568239	0.414213	0.020731
	N7092	N	0.556238	0.417233	0.173985
	N7093	N	0.619322	0.476974	0.229298
	N7094	N	0.506426	0.395160	0.325420
	N7095	N	0.568255	0.460795	0.270512
	N7096	N	0.505791	0.397909	0.228221
	N7097	N	0.568914	0.457835	0.173518
	N7098	N	0.556855	0.414387	0.271306
	N7099	N	0.618678	0.480065	0.326496
	H7100	H	0.512516	0.465112	0.867894
	H7101	H	0.577040	0.413224	0.827606
	H7102	H	0.549968	0.471757	0.630909
	H7103	H	0.610568	0.399524	0.673153
	H7104	H	0.547983	0.461610	0.828224
	H7105	H	0.612554	0.409812	0.869264
	H7106	H	0.514510	0.475542	0.671904
	H7107	H	0.575002	0.403008	0.631015
	H7108	H	0.548037	0.412824	0.577538
	H7109	H	0.612510	0.464778	0.619002
	H7110	H	0.514435	0.399659	0.921941
	H7111	H	0.574847	0.472225	0.880946
	H7112	H	0.512529	0.408995	0.617584
	H7113	H	0.576896	0.461958	0.577657
	H7114	H	0.550050	0.402711	0.880817
	H7115	H	0.610440	0.475506	0.922422
	H7116	H	0.524270	0.471273	0.854602
	H7117	H	0.588582	0.402657	0.840692
	H7118	H	0.536414	0.472135	0.339924
	H7119	H	0.598984	0.410230	0.660002
	H7120	H	0.536509	0.472789	0.840936
	H7121	H	0.600800	0.403575	0.855164
	H7122	H	0.524197	0.471018	0.354598
	H7123	H	0.586750	0.408736	0.645199
	H7124	H	0.536514	0.401848	0.590683
	H7125	H	0.600680	0.471294	0.604702
	H7126	H	0.526009	0.410558	0.908982
	H7127	H	0.586668	0.466024	0.895322
	H7128	H	0.524236	0.402775	0.604839
	H7129	H	0.588479	0.472757	0.590526
	H7130	H	0.538281	0.409026	0.894586
	H7131	H	0.598886	0.464732	0.909914
	Co7132	Co	0.624937	0.499704	0.656221
	Co7133	Co	0.562494	0.437305	0.594109
	Co7134	Co	0.500013	0.375066	0.905323
	Co7135	Co	0.562487	0.437256	0.843699
	C7136	C	0.511854	0.469280	0.943324
	C7137	C	0.575397	0.412342	0.900972
	C7138	C	0.550607	0.467731	0.555615
	C7139	C	0.612178	0.400435	0.599515
	C7140	C	0.549648	0.462550	0.901446
	C7141	C	0.613195	0.405665	0.944368
	C7142	C	0.512836	0.474654	0.598458
	C7143	C	0.574381	0.407036	0.555734
	C7144	C	0.549657	0.411916	0.650904
	C7145	C	0.613122	0.469144	0.694149
	C7146	C	0.512854	0.400546	0.848434
	C7147	C	0.574279	0.468048	0.805921
	C7148	C	0.511915	0.405076	0.693269
	C7149	C	0.575309	0.462908	0.651057
	C7150	C	0.550647	0.406865	0.805880
	C7151	C	0.612101	0.474541	0.848888
	C7152	C	0.516670	0.468415	1.016705
	C7153	C	0.579180	0.406153	0.482493
	C7154	C	0.545845	0.468638	0.983207
	C7155	C	0.608384	0.406268	0.517812
	C7156	C	0.545864	0.406106	0.732764
	C7157	C	0.608302	0.468514	0.767279
	C7158	C	0.516661	0.406145	0.766836
	C7159	C	0.579079	0.468879	0.732780
	C7160	C	0.524047	0.467492	1.008250
	C7161	C	0.586580	0.405175	0.491570
	C7162	C	0.538466	0.469546	0.991953
	C7163	C	0.600986	0.407061	0.509030
	C7164	C	0.538458	0.405196	0.741549
	C7165	C	0.600904	0.467621	0.758715
	C7166	C	0.524056	0.407063	0.758221
	C7167	C	0.586473	0.469721	0.741744
	C7168	C	0.527266	0.469967	0.919309
	C7169	C	0.590801	0.404118	0.911466
	C7170	C	0.534219	0.470727	0.410567
	C7171	C	0.596765	0.408293	0.589357
	C7172	C	0.534271	0.470936	0.911451
	C7173	C	0.597801	0.404959	0.919977
	C7174	C	0.527227	0.469686	0.418940
	C7175	C	0.589787	0.407383	0.580783
	C7176	C	0.534255	0.403760	0.661041
	C7177	C	0.597689	0.470051	0.669645
	C7178	C	0.528262	0.408529	0.838594
	C7179	C	0.589709	0.467340	0.830917
	C7180	C	0.527277	0.404379	0.669106
	C7181	C	0.590703	0.471023	0.661355
	C7182	C	0.535236	0.407536	0.830618
	C7183	C	0.596687	0.466525	0.839062
	N7184	N	0.505719	0.476497	0.978238
	N7185	N	0.568915	0.417420	0.923725
	N7186	N	0.556735	0.460488	0.521364
	N7187	N	0.618667	0.395337	0.576550
	N7188	N	0.556136	0.457477	0.924368
	N7189	N	0.619327	0.398325	0.978851
	N7190	N	0.506347	0.479780	0.575625
	N7191	N	0.568246	0.414295	0.520797
	N7192	N	0.556160	0.416969	0.673857
	N7193	N	0.619247	0.476388	0.728870
	N7194	N	0.506365	0.395402	0.825352
	N7195	N	0.568159	0.460654	0.771024
	N7196	N	0.505758	0.398043	0.727977
	N7197	N	0.568814	0.457705	0.673730
	N7198	N	0.556795	0.413977	0.771026
	N7199	N	0.618582	0.479536	0.826121
	H7200	H	0.512401	0.590281	0.368683
	H7201	H	0.576968	0.538172	0.327342
	H7202	H	0.550039	0.596662	0.132028
	H7203	H	0.610633	0.524155	0.173735
	H7204	H	0.547931	0.586635	0.328197
	H7205	H	0.612577	0.534819	0.369934
	H7206	H	0.514510	0.600518	0.172758
	H7207	H	0.575007	0.527856	0.131426
	H7208	H	0.548024	0.537803	0.077451
	H7209	H	0.612537	0.590075	0.119340
	H7210	H	0.514448	0.524443	0.422321
	H7211	H	0.574934	0.597148	0.381156
	H7212	H	0.512456	0.534195	0.118438
	H7213	H	0.576982	0.586747	0.077283
	H7214	H	0.549970	0.527972	0.381063
	H7215	H	0.610447	0.600925	0.422113
	H7216	H	0.524213	0.596845	0.355450
	H7217	H	0.588531	0.527219	0.340722
	H7218	H	0.538290	0.591494	0.145400
	H7219	H	0.599042	0.534185	0.160981
	H7220	H	0.536451	0.597744	0.341756
	H7221	H	0.600755	0.527985	0.355772
	H7222	H	0.526081	0.590146	0.159447
	H7223	H	0.586825	0.533573	0.146796
	H7224	H	0.536425	0.527517	0.090318
	H7225	H	0.598921	0.589541	0.409881
	H7226	H	0.525996	0.534846	0.408945
	H7227	H	0.588491	0.597167	0.090192
	H7228	H	0.524212	0.528790	0.104601
	H7229	H	0.586725	0.591018	0.394979
	H7230	H	0.538200	0.534133	0.394800
	H7231	H	0.600744	0.596153	0.104809
	Co7232	Co	0.625040	0.624605	0.155955
	Co7233	Co	0.562491	0.562310	0.094715
	Co7234	Co	0.499939	0.499815	0.405164
	Co7235	Co	0.562471	0.562519	0.344295
	C7236	C	0.511779	0.594377	0.443998
	C7237	C	0.575305	0.537128	0.401063
	C7238	C	0.550687	0.592896	0.056307
	C7239	C	0.612230	0.525093	0.099581
	C7240	C	0.549589	0.587610	0.401839
	C7241	C	0.613130	0.530576	0.445435
	C7242	C	0.512898	0.599632	0.099052
	C7243	C	0.574385	0.532006	0.056311
	C7244	C	0.549655	0.537009	0.150914
	C7245	C	0.613181	0.594279	0.194370
	C7246	C	0.512818	0.525075	0.348501
	C7247	C	0.574311	0.592927	0.305936
	C7248	C	0.511818	0.530283	0.193555
	C7249	C	0.575312	0.587573	0.150996
	C7250	C	0.550621	0.532042	0.305875
	C7251	C	0.612138	0.599771	0.349118
	C7252	C	0.516588	0.593649	0.517176
	C7253	C	0.579217	0.531239	-0.016647
	C7254	C	0.545793	0.593393	0.483530
	C7255	C	0.608397	0.530948	0.018266
	C7256	C	0.545823	0.531238	0.232513
	C7257	C	0.608331	0.593582	0.267304
	C7258	C	0.516621	0.531032	0.266821
	C7259	C	0.579146	0.593591	0.232598
	C7260	C	0.523981	0.592700	0.508547
	C7261	C	0.586591	0.530218	-0.007429
	C7262	C	0.538402	0.594376	0.492425
	C7263	C	0.601015	0.531917	0.009754
	C7264	C	0.538431	0.530354	0.241275
	C7265	C	0.600955	0.592592	0.258428
	C7266	C	0.524011	0.532025	0.257970
	C7267	C	0.586520	0.594437	0.241290
	C7268	C	0.527212	0.595326	0.419870
	C7269	C	0.590727	0.528730	0.411530
	C7270	C	0.535295	0.592659	0.080667
	C7271	C	0.596793	0.532887	0.090253
	C7272	C	0.534193	0.595969	0.412031
	C7273	C	0.597704	0.529402	0.419815
	C7274	C	0.528318	0.591827	0.088967
	C7275	C	0.589800	0.532212	0.081844
	C7276	C	0.534212	0.529085	0.161061
	C7277	C	0.596740	0.591340	0.338840
	C7278	C	0.528221	0.533231	0.338367
	C7279	C	0.590734	0.595615	0.160912
	C7280	C	0.527227	0.529904	0.169007
	C7281	C	0.589745	0.592173	0.330403
	C7282	C	0.535208	0.532620	0.330145
	C7283	C	0.597735	0.594923	0.169396
	N7284	N	0.505651	0.601784	0.478454
	N7285	N	0.568827	0.542287	0.424111
	N7286	N	0.556821	0.585663	0.021934
	N7287	N	0.618713	0.520091	0.076435
	N7288	N	0.556089	0.582638	0.424308
	N7289	N	0.619253	0.523221	0.480334
	N7290	N	0.506391	0.604442	0.076123
	N7291	N	0.568271	0.539389	0.021478
	N7292	N	0.556147	0.542032	0.174092
	N7293	N	0.619276	0.601679	0.229217
	N7294	N	0.506332	0.520026	0.325413
	N7295	N	0.568169	0.585701	0.271070
	N7296	N	0.505692	0.522982	0.228368
	N7297	N	0.568820	0.582621	0.174217
	N7298	N	0.556773	0.539224	0.271282
	N7299	N	0.618598	0.604971	0.326327
	H7300	H	0.512553	0.590028	0.869033
	H7301	H	0.577042	0.538297	0.828503
	H7302	H	0.549985	0.596704	0.631363
	H7303	H	0.610446	0.523746	0.673389
	H7304	H	0.548093	0.587022	0.828524
	H7305	H	0.612576	0.534539	0.869971
	H7306	H	0.514409	0.600835	0.672076
	H7307	H	0.574967	0.527743	0.631187
	H7308	H	0.548117	0.537668	0.577486
	H7309	H	0.612572	0.590089	0.619575
	H7310	H	0.514522	0.524053	0.921862
	H7311	H	0.574966	0.597141	0.880849
	H7312	H	0.512489	0.534800	0.618311
	H7313	H	0.576970	0.586829	0.577561
	H7314	H	0.550084	0.527470	0.881116
	H7315	H	0.610517	0.600735	0.922913
	H7316	H	0.524283	0.596413	0.855290
	H7317	H	0.588621	0.527865	0.841150
	H7318	H	0.538177	0.590540	0.645844
	H7319	H	0.598930	0.535128	0.659554
	H7320	H	0.536521	0.597418	0.840579
	H7321	H	0.600818	0.528952	0.856238
	H7322	H	0.525959	0.589430	0.659480
	H7323	H	0.586698	0.534077	0.645283
	H7324	H	0.538333	0.533658	0.894728
	H7325	H	0.599019	0.589576	0.909686
	H7326	H	0.524309	0.528227	0.604378
	H7327	H	0.588608	0.597694	0.590445
	H7328	H	0.526127	0.535175	0.908533
	H7329	H	0.586786	0.590773	0.895043
	H7330	H	0.536536	0.526802	0.590088
	H7331	H	0.600826	0.596681	0.605117
	Co7332	Co	0.624966	0.625155	0.655959
	Co7333	Co	0.562547	0.562525	0.594590
	Co7334	Co	0.500056	0.500089	0.905472
	Co7335	Co	0.562534	0.562616	0.844536
	C7336	C	0.511921	0.594274	0.944304
	C7337	C	0.575399	0.537323	0.901636
	C7338	C	0.550603	0.592657	0.556533
	C7339	C	0.612062	0.524916	0.599879
	C7340	C	0.549723	0.587898	0.901549
	C7341	C	0.613187	0.530241	0.944814
	C7342	C	0.512785	0.599827	0.598723
	C7343	C	0.574316	0.531894	0.555850
	C7344	C	0.549750	0.536662	0.650961
	C7345	C	0.613199	0.594346	0.694570
	C7346	C	0.512932	0.525063	0.848344
	C7347	C	0.574382	0.592968	0.805553
	C7348	C	0.511887	0.530621	0.693793
	C7349	C	0.575377	0.587882	0.650902
	C7350	C	0.550713	0.531696	0.805987
	C7351	C	0.612177	0.599785	0.849446
	C7352	C	0.516705	0.593764	1.017644
	C7353	C	0.579112	0.531112	0.482627
	C7354	C	0.545907	0.593791	0.983052
	C7355	C	0.608305	0.531023	0.518155
	C7356	C	0.545951	0.530662	0.732357
	C7357	C	0.608398	0.593655	0.767776
	C7358	C	0.516714	0.531193	0.766707
	C7359	C	0.579190	0.593649	0.732420
	C7360	C	0.524098	0.593017	1.008649
	C7361	C	0.586506	0.530171	0.491619
	C7362	C	0.538510	0.594816	0.991680
	C7363	C	0.600913	0.531903	0.508906
	C7364	C	0.538550	0.529870	0.740966
	C7365	C	0.600993	0.592729	0.758595
	C7366	C	0.524121	0.532000	0.757704
	C7367	C	0.586584	0.594617	0.741324
	C7368	C	0.527320	0.595323	0.919483
	C7369	C	0.590806	0.529053	0.912343
	C7370	C	0.535171	0.591936	0.581347
	C7371	C	0.596676	0.533364	0.589176
	C7372	C	0.534302	0.596008	0.911258
	C7373	C	0.597791	0.529968	0.920526
	C7374	C	0.528178	0.591180	0.588965
	C7375	C	0.589699	0.532478	0.580772
	C7376	C	0.535332	0.532328	0.829998
	C7377	C	0.596777	0.591315	0.838955
	C7378	C	0.527331	0.529488	0.668718
	C7379	C	0.590813	0.596098	0.661199
	C7380	C	0.528350	0.533249	0.837982
	C7381	C	0.589796	0.592196	0.830547
	C7382	C	0.534315	0.528649	0.660626
	C7383	C	0.597789	0.595313	0.669370
	N7384	N	0.505761	0.601395	0.978865
	N7385	N	0.568923	0.542400	0.924171
	N7386	N	0.556748	0.585564	0.521513
	N7387	N	0.618566	0.519980	0.577277
	N7388	N	0.556189	0.582686	0.924743
	N7389	N	0.619333	0.522997	0.979211
	N7390	N	0.506302	0.604956	0.575534
	N7391	N	0.568180	0.539202	0.521189
	N7392	N	0.556215	0.542174	0.674433
	N7393	N	0.619327	0.601727	0.729381
	N7394	N	0.506445	0.520012	0.825399
	N7395	N	0.568227	0.585898	0.771192
	N7396	N	0.505764	0.523305	0.728465
	N7397	N	0.568891	0.582857	0.673896
	N7398	N	0.556847	0.539269	0.771495
	N7399	N	0.618670	0.604926	0.826232
	H7400	H	0.512504	0.715317	0.368580
	H7401	H	0.576945	0.663300	0.328338
	H7402	H	0.550052	0.722445	0.131225
	H7403	H	0.610624	0.649171	0.172997
	H7404	H	0.548012	0.712051	0.327822
	H7405	H	0.612497	0.659696	0.369305
	H7406	H	0.514531	0.725770	0.171962
	H7407	H	0.574986	0.652958	0.131221
	H7408	H	0.548075	0.662995	0.077381
	H7409	H	0.612519	0.715349	0.119104
	H7410	H	0.514444	0.649518	0.421578
	H7411	H	0.574856	0.722379	0.381759
	H7412	H	0.512419	0.659628	0.117860
	H7413	H	0.576920	0.711939	0.077938
	H7414	H	0.550011	0.652983	0.380824
	H7415	H	0.610492	0.725722	0.422690
	H7416	H	0.524205	0.721569	0.355130
	H7417	H	0.588499	0.651948	0.341358
	H7418	H	0.538296	0.716650	0.145469
	H7419	H	0.598973	0.659631	0.160420
	H7420	H	0.536444	0.722549	0.340678
	H7421	H	0.600728	0.653127	0.355584
	H7422	H	0.526067	0.715299	0.159307
	H7423	H	0.586763	0.658449	0.145739
	H7424	H	0.538238	0.659154	0.394142
	H7425	H	0.598931	0.714609	0.409779
	H7426	H	0.524243	0.653607	0.104004
	H7427	H	0.588495	0.723034	0.090742
	H7428	H	0.526011	0.660159	0.408645
	H7429	H	0.586715	0.715947	0.395398
	H7430	H	0.536466	0.652648	0.089782
	H7431	H	0.600731	0.721646	0.105328
	Co7432	Co	0.624958	0.750185	0.155849
	Co7433	Co	0.562519	0.687279	0.094667
	Co7434	Co	0.499961	0.625129	0.405149
	Co7435	Co	0.562457	0.687395	0.344850
	C7436	C	0.511839	0.719442	0.443722
	C7437	C	0.575321	0.662267	0.401655
	C7438	C	0.550693	0.718030	0.056016
	C7439	C	0.612208	0.649997	0.099314
	C7440	C	0.549645	0.712877	0.401122
	C7441	C	0.613083	0.655641	0.444539
	C7442	C	0.512881	0.724607	0.098493
	C7443	C	0.574399	0.656957	0.056013
	C7444	C	0.549660	0.662061	0.151057
	C7445	C	0.613138	0.719455	0.194198
	C7446	C	0.512812	0.650319	0.348038
	C7447	C	0.574284	0.718151	0.306483
	C7448	C	0.511807	0.655508	0.193148
	C7449	C	0.575308	0.712789	0.151610
	C7450	C	0.550615	0.657129	0.306036
	C7451	C	0.612115	0.724753	0.349180
	C7452	C	0.516638	0.718806	0.517299
	C7453	C	0.579189	0.656116	-0.017133
	C7454	C	0.545810	0.718923	0.482676
	C7455	C	0.608408	0.656170	0.017795
	C7456	C	0.545826	0.656311	0.232611
	C7457	C	0.608333	0.718751	0.267426
	C7458	C	0.516624	0.656366	0.266339
	C7459	C	0.579101	0.718948	0.233161
	C7460	C	0.524016	0.717953	0.508731
	C7461	C	0.586594	0.655198	-0.008079
	C7462	C	0.538442	0.719827	0.491695
	C7463	C	0.601008	0.657064	0.009335
	C7464	C	0.538446	0.655478	0.240918
	C7465	C	0.600934	0.717814	0.258759
	C7466	C	0.524012	0.657293	0.257521
	C7467	C	0.586489	0.719868	0.241874
	C7468	C	0.527223	0.720183	0.419471
	C7469	C	0.590717	0.653752	0.411977
	C7470	C	0.535303	0.717605	0.080645
	C7471	C	0.596777	0.658304	0.089676
	C7472	C	0.534227	0.721076	0.411296
	C7473	C	0.597696	0.654675	0.419795
	C7474	C	0.528310	0.716691	0.088664
	C7475	C	0.589801	0.657441	0.081325
	C7476	C	0.535210	0.657827	0.329848
	C7477	C	0.596715	0.716417	0.339185
	C7478	C	0.527237	0.654971	0.168652
	C7479	C	0.590708	0.721205	0.161464
	C7480	C	0.528218	0.658576	0.337805
	C7481	C	0.589722	0.717258	0.330752
	C7482	C	0.534234	0.654132	0.160362
	C7483	C	0.597697	0.720287	0.169642
	N7484	N	0.505702	0.726675	0.478020
	N7485	N	0.568822	0.667443	0.424549
	N7486	N	0.556798	0.710524	0.021393
	N7487	N	0.618695	0.644944	0.076157
	N7488	N	0.556118	0.707848	0.424162
	N7489	N	0.619213	0.648282	0.478974
	N7490	N	0.506389	0.729466	0.075635
	N7491	N	0.568281	0.664345	0.021009
	N7492	N	0.556146	0.667096	0.174277
	N7493	N	0.619258	0.726833	0.228983
	N7494	N	0.506354	0.645067	0.325312
	N7495	N	0.568168	0.710721	0.271698
	N7496	N	0.505700	0.648078	0.228091
	N7497	N	0.568828	0.707628	0.174619
	N7498	N	0.556761	0.664201	0.271552
	N7499	N	0.618598	0.729796	0.326202
	H7500	H	0.512501	0.714597	0.868836
	H7501	H	0.577076	0.662646	0.827646
	H7502	H	0.550007	0.722244	0.631000
	H7503	H	0.610515	0.649330	0.672773
	H7504	H	0.548076	0.712105	0.827815
	H7505	H	0.612569	0.659591	0.869351
	H7506	H	0.514410	0.725535	0.672066
	H7507	H	0.574902	0.652768	0.631569
	H7508	H	0.548010	0.663075	0.578127
	H7509	H	0.612481	0.715770	0.618627
	H7510	H	0.514563	0.648924	0.921713
	H7511	H	0.574967	0.721963	0.881367
	H7512	H	0.512474	0.660127	0.618791
	H7513	H	0.576931	0.712215	0.577778
	H7514	H	0.550053	0.652903	0.881452
	H7515	H	0.610561	0.725855	0.922861
	H7516	H	0.524285	0.721228	0.854750
	H7517	H	0.588558	0.652299	0.840960
	H7518	H	0.538250	0.716151	0.645399
	H7519	H	0.598913	0.660681	0.659507
	H7520	H	0.536510	0.722788	0.840675
	H7521	H	0.600812	0.653360	0.855775
	H7522	H	0.525997	0.715231	0.659752
	H7523	H	0.586682	0.659510	0.645564
	H7524	H	0.536471	0.652428	0.590549
	H7525	H	0.600753	0.722133	0.604953
	H7526	H	0.526030	0.660093	0.909145
	H7527	H	0.586721	0.715724	0.894785
	H7528	H	0.524216	0.653767	0.605032
	H7529	H	0.588510	0.723120	0.590567
	H7530	H	0.538273	0.658787	0.894919
	H7531	H	0.598930	0.715010	0.909711
	Co7532	Co	0.625065	0.749915	0.655616
	Co7533	Co	0.562460	0.687654	0.594541
	Co7534	Co	0.500050	0.624555	0.905272
	Co7535	Co	0.562555	0.687338	0.844362
	C7536	C	0.511864	0.718930	0.943868
	C7537	C	0.575439	0.662177	0.901225
	C7538	C	0.550646	0.718222	0.555906
	C7539	C	0.612094	0.650406	0.599160
	C7540	C	0.549702	0.712869	0.901237
	C7541	C	0.613197	0.655478	0.944512
	C7542	C	0.512780	0.724759	0.598671
	C7543	C	0.574303	0.657008	0.556414
	C7544	C	0.549647	0.662210	0.651287
	C7545	C	0.613138	0.719861	0.693931
	C7546	C	0.512899	0.650050	0.848686
	C7547	C	0.574348	0.717950	0.806388
	C7548	C	0.511852	0.655703	0.693963
	C7549	C	0.575299	0.713180	0.651137
	C7550	C	0.550652	0.657033	0.806007
	C7551	C	0.612166	0.724775	0.849066
	C7552	C	0.516694	0.718475	1.017042
	C7553	C	0.579084	0.656234	0.483261
	C7554	C	0.545891	0.719088	0.982814
	C7555	C	0.608312	0.656383	0.517676
	C7556	C	0.545848	0.656249	0.732897
	C7557	C	0.608358	0.718930	0.767251
	C7558	C	0.516668	0.656231	0.767084
	C7559	C	0.579132	0.718942	0.732780
	C7560	C	0.524085	0.717736	1.008287
	C7561	C	0.586484	0.655304	0.492176
	C7562	C	0.538515	0.719963	0.991684
	C7563	C	0.600909	0.657308	0.508766
	C7564	C	0.538460	0.655265	0.741643
	C7565	C	0.600963	0.718039	0.758495
	C7566	C	0.524052	0.657339	0.758290
	C7567	C	0.586532	0.719876	0.741436
	C7568	C	0.527306	0.719951	0.919275
	C7569	C	0.590815	0.653866	0.911554
	C7570	C	0.535237	0.717470	0.580893
	C7571	C	0.596670	0.658912	0.589040
	C7572	C	0.534305	0.721016	0.911396
	C7573	C	0.597796	0.654645	0.920275
	C7574	C	0.528231	0.716678	0.589175
	C7575	C	0.589695	0.658074	0.581101
	C7576	C	0.534244	0.654107	0.661236
	C7577	C	0.597739	0.720402	0.669301
	C7578	C	0.528262	0.658542	0.838733
	C7579	C	0.589743	0.717430	0.830456
	C7580	C	0.527253	0.655068	0.669240
	C7581	C	0.590747	0.721292	0.661219
	C7582	C	0.535249	0.657664	0.830522
	C7583	C	0.596726	0.716678	0.838780
	N7584	N	0.505727	0.726221	0.978438
	N7585	N	0.568952	0.667388	0.924122
	N7586	N	0.556766	0.710993	0.521353
	N7587	N	0.618574	0.645264	0.576247
	N7588	N	0.556154	0.707462	0.924362
	N7589	N	0.619331	0.648180	0.979000
	N7590	N	0.506301	0.729763	0.575111
	N7591	N	0.568164	0.664408	0.521673
	N7592	N	0.556133	0.667333	0.674327
	N7593	N	0.619283	0.727119	0.728733
	N7594	N	0.506411	0.644971	0.825702
	N7595	N	0.568226	0.710646	0.771544
	N7596	N	0.505745	0.648229	0.728840
	N7597	N	0.568839	0.707841	0.674569
	N7598	N	0.556778	0.664281	0.771365
	N7599	N	0.618652	0.730058	0.825998
	H7600	H	0.512558	0.839984	0.368844
	H7601	H	0.577137	0.787980	0.327618
	H7602	H	0.549919	0.847078	0.131030
	H7603	H	0.610524	0.774670	0.172329
	H7604	H	0.548123	0.836560	0.327857
	H7605	H	0.612612	0.784458	0.368160
	H7606	H	0.514410	0.850760	0.171619
	H7607	H	0.574963	0.778291	0.131330
	H7608	H	0.548058	0.788288	0.077863
	H7609	H	0.612640	0.840292	0.118937
	H7610	H	0.514535	0.774589	0.422061
	H7611	H	0.575070	0.846814	0.381493
	H7612	H	0.512609	0.784574	0.118539
	H7613	H	0.576949	0.837441	0.077127
	H7614	H	0.550166	0.777292	0.380650
	H7615	H	0.610534	0.850647	0.422605
	H7616	H	0.524294	0.846279	0.354863
	H7617	H	0.588686	0.777051	0.341020
	H7618	H	0.538137	0.841240	0.144942
	H7619	H	0.598915	0.785464	0.159323
	H7620	H	0.536510	0.847480	0.340578
	H7621	H	0.600906	0.778314	0.355682
	H7622	H	0.525925	0.840007	0.159581
	H7623	H	0.586688	0.783629	0.145192
	H7624	H	0.536538	0.777662	0.090590
	H7625	H	0.599017	0.839916	0.409289
	H7626	H	0.526117	0.784801	0.409619
	H7627	H	0.588608	0.847774	0.089958
	H7628	H	0.524347	0.778773	0.104910
	H7629	H	0.586810	0.840991	0.394526
	H7630	H	0.538351	0.783496	0.395255
	H7631	H	0.600844	0.846531	0.104651
	Co7632	Co	0.625042	0.875266	0.155979
	Co7633	Co	0.562470	0.813010	0.094327
	Co7634	Co	0.500026	0.749983	0.404922
	Co7635	Co	0.562596	0.812276	0.344609
	C7636	C	0.511897	0.844112	0.443967
	C7637	C	0.575455	0.787194	0.400886
	C7638	C	0.550556	0.842945	0.055765
	C7639	C	0.612133	0.775558	0.098831
	C7640	C	0.549729	0.837400	0.401482
	C7641	C	0.613238	0.780564	0.444069
	C7642	C	0.512737	0.849668	0.098325
	C7643	C	0.574319	0.782343	0.056199
	C7644	C	0.549716	0.787405	0.151052
	C7645	C	0.613224	0.844490	0.193885
	C7646	C	0.512920	0.775157	0.348684
	C7647	C	0.574416	0.842842	0.306204
	C7648	C	0.511960	0.780292	0.193563
	C7649	C	0.575340	0.838095	0.151027
	C7650	C	0.550785	0.781739	0.305707
	C7651	C	0.612179	0.849724	0.348832
	C7652	C	0.516697	0.843470	0.517397
	C7653	C	0.579116	0.781361	-0.017086
	C7654	C	0.545903	0.843333	0.482926
	C7655	C	0.608320	0.781710	0.017397
	C7656	C	0.545927	0.781056	0.232737
	C7657	C	0.608413	0.843674	0.266963
	C7658	C	0.516751	0.781226	0.267169
	C7659	C	0.579196	0.843741	0.232360
	C7660	C	0.524094	0.842599	0.508425
	C7661	C	0.586496	0.780441	-0.008353
	C7662	C	0.538528	0.844389	0.491664
	C7663	C	0.600929	0.782629	0.008561
	C7664	C	0.538557	0.780172	0.241631
	C7665	C	0.601026	0.842768	0.258030
	C7666	C	0.524125	0.782047	0.258600
	C7667	C	0.586597	0.844668	0.240767
	C7668	C	0.527302	0.844891	0.419285
	C7669	C	0.590877	0.778911	0.411664
	C7670	C	0.535142	0.842353	0.080378
	C7671	C	0.596696	0.783771	0.088751
	C7672	C	0.534301	0.845679	0.411251
	C7673	C	0.597875	0.779888	0.419813
	C7674	C	0.528149	0.841564	0.088953
	C7675	C	0.589701	0.782699	0.080707
	C7676	C	0.534347	0.779238	0.161409
	C7677	C	0.596799	0.841425	0.338556
	C7678	C	0.528347	0.783232	0.338931
	C7679	C	0.590817	0.845924	0.160640
	C7680	C	0.527352	0.779865	0.169604
	C7681	C	0.589818	0.842306	0.329894
	C7682	C	0.535356	0.782399	0.330624
	C7683	C	0.597804	0.845045	0.168873
	N7684	N	0.505769	0.851453	0.478417
	N7685	N	0.568969	0.792135	0.424134
	N7686	N	0.556687	0.835800	0.020871
	N7687	N	0.618609	0.770419	0.075918
	N7688	N	0.556219	0.832389	0.424592
	N7689	N	0.619360	0.773223	0.478700
	N7690	N	0.506275	0.855034	0.075179
	N7691	N	0.568202	0.789644	0.021513
	N7692	N	0.556171	0.792531	0.173971
	N7693	N	0.619335	0.851921	0.228992
	N7694	N	0.506437	0.770036	0.325181
	N7695	N	0.568256	0.835765	0.271700
	N7696	N	0.505828	0.772995	0.228019
	N7697	N	0.568863	0.833089	0.174303
	N7698	N	0.556875	0.789220	0.270829
	N7699	N	0.618676	0.854912	0.326116
	H7700	H	0.512369	0.839862	0.868555
	H7701	H	0.576924	0.788015	0.827516
	H7702	H	0.550076	0.846505	0.631795
	H7703	H	0.610661	0.774894	0.672658
	H7704	H	0.547928	0.836360	0.827508
	H7705	H	0.612556	0.785039	0.869234
	H7706	H	0.514509	0.850345	0.672354
	H7707	H	0.575110	0.777970	0.631411
	H7708	H	0.548044	0.787575	0.577192
	H7709	H	0.612380	0.841133	0.618541
	H7710	H	0.514490	0.773369	0.921951
	H7711	H	0.574808	0.847449	0.881818
	H7712	H	0.512381	0.784833	0.618482
	H7713	H	0.576941	0.836501	0.578614
	H7714	H	0.549917	0.777860	0.881116
	H7715	H	0.610568	0.850207	0.923540
	H7716	H	0.524146	0.846078	0.854808
	H7717	H	0.588509	0.777672	0.840588
	H7718	H	0.538294	0.840671	0.645312
	H7719	H	0.599078	0.785732	0.659881
	H7720	H	0.536332	0.847027	0.840071
	H7721	H	0.600711	0.778962	0.855115
	H7722	H	0.526096	0.839630	0.659361
	H7723	H	0.586834	0.784449	0.645342
	H7724	H	0.536446	0.777142	0.589734
	H7725	H	0.600644	0.847150	0.606255
	H7726	H	0.526061	0.785000	0.909148
	H7727	H	0.586651	0.841174	0.896305
	H7728	H	0.524227	0.778293	0.604310
	H7729	H	0.588430	0.847909	0.592212
	H7730	H	0.538229	0.783853	0.894478
	H7731	H	0.598905	0.840273	0.910941
	Co7732	Co	0.624948	0.875333	0.656150
	Co7733	Co	0.562530	0.811870	0.594855
	Co7734	Co	0.499996	0.749248	0.904637
	Co7735	Co	0.562411	0.812322	0.844355
	C7736	C	0.511746	0.844386	0.943571
	C7737	C	0.575306	0.787309	0.901130
	C7738	C	0.550696	0.842532	0.556275
	C7739	C	0.612289	0.775717	0.599138
	C7740	C	0.549556	0.837548	0.901018
	C7741	C	0.613140	0.780877	0.943979
	C7742	C	0.512887	0.849465	0.598767
	C7743	C	0.574449	0.781845	0.556033
	C7744	C	0.549673	0.786753	0.650865
	C7745	C	0.613058	0.845056	0.694278
	C7746	C	0.512842	0.774692	0.848156
	C7747	C	0.574227	0.843081	0.806588
	C7748	C	0.511804	0.780527	0.693663
	C7749	C	0.575292	0.837662	0.651778
	C7750	C	0.550606	0.781887	0.805941
	C7751	C	0.612155	0.849494	0.849717
	C7752	C	0.516541	0.843464	1.016997
	C7753	C	0.579287	0.781251	0.482867
	C7754	C	0.545735	0.843441	0.982706
	C7755	C	0.608450	0.781572	0.517763
	C7756	C	0.545825	0.781030	0.732392
	C7757	C	0.608289	0.844069	0.768026
	C7758	C	0.516647	0.781007	0.766717
	C7759	C	0.579061	0.843725	0.733700
	C7760	C	0.523929	0.842557	1.008479
	C7761	C	0.586665	0.780403	0.492022
	C7762	C	0.538354	0.844352	0.991317
	C7763	C	0.601081	0.782516	0.509071
	C7764	C	0.538435	0.780243	0.740784
	C7765	C	0.600892	0.843340	0.759852
	C7766	C	0.524011	0.782116	0.757934
	C7767	C	0.586455	0.844788	0.742911
	C7768	C	0.527160	0.844694	0.919310
	C7769	C	0.590713	0.779420	0.911129
	C7770	C	0.535298	0.842056	0.580645
	C7771	C	0.596849	0.783959	0.589306
	C7772	C	0.534146	0.845431	0.910986
	C7773	C	0.597704	0.780234	0.919456
	C7774	C	0.528317	0.841264	0.588682
	C7775	C	0.589850	0.783052	0.580823
	C7776	C	0.534222	0.778941	0.660293
	C7777	C	0.597657	0.845674	0.670930
	C7778	C	0.528226	0.783435	0.838122
	C7779	C	0.589678	0.842599	0.832136
	C7780	C	0.527234	0.779808	0.668831
	C7781	C	0.590676	0.846274	0.662728
	C7782	C	0.535216	0.782681	0.829760
	C7783	C	0.596677	0.841951	0.840280
	N7784	N	0.505633	0.851967	0.978085
	N7785	N	0.568841	0.792506	0.924315
	N7786	N	0.556820	0.835201	0.521946
	N7787	N	0.618745	0.770416	0.575996
	N7788	N	0.556046	0.832671	0.923831
	N7789	N	0.619269	0.773490	0.978621
	N7790	N	0.506415	0.854525	0.575584
	N7791	N	0.568333	0.789031	0.521187
	N7792	N	0.556148	0.791756	0.674382
	N7793	N	0.619223	0.851965	0.728533
	N7794	N	0.506368	0.769651	0.825384
	N7795	N	0.568113	0.835644	0.771459
	N7796	N	0.505693	0.773081	0.728291
	N7797	N	0.568807	0.832531	0.674371
	N7798	N	0.556750	0.789003	0.771510
	N7799	N	0.618636	0.854517	0.826174
	H7800	H	0.512504	0.965603	0.367536
	H7801	H	0.576914	0.912781	0.327779
	H7802	H	0.550005	0.971867	0.131643
	H7803	H	0.610556	0.899592	0.172593
	H7804	H	0.547985	0.961491	0.327738
	H7805	H	0.612528	0.909486	0.368809
	H7806	H	0.514493	0.975118	0.171375
	H7807	H	0.574959	0.902815	0.132203
	H7808	H	0.548028	0.912818	0.076911
	H7809	H	0.612549	0.965768	0.118816
	H7810	H	0.514516	0.898937	0.420199
	H7811	H	0.575005	0.971655	0.381733
	H7812	H	0.512387	0.909889	0.117589
	H7813	H	0.576961	0.962043	0.077668
	H7814	H	0.549948	0.902738	0.380288
	H7815	H	0.610611	0.975207	0.422397
	H7816	H	0.524296	0.971354	0.354488
	H7817	H	0.588505	0.902107	0.340407
	H7818	H	0.536471	0.972161	-0.160120
	H7819	H	0.598981	0.909537	0.159651
	H7820	H	0.536498	0.972637	0.340181
	H7821	H	0.600738	0.903380	0.354735
	H7822	H	0.524249	0.970875	-0.146584
	H7823	H	0.586749	0.908718	0.145496
	H7824	H	0.536438	0.902405	0.088798
	H7825	H	0.600803	0.971253	0.104978
	H7826	H	0.525990	0.910025	0.407824
	H7827	H	0.586766	0.965839	0.395194
	H7828	H	0.524241	0.903549	0.103028
	H7829	H	0.588541	0.972225	0.090786
	H7830	H	0.538206	0.908399	0.393870
	H7831	H	0.599012	0.964855	0.409536
	Co7832	Co	0.625034	1.000354	0.156248
	Co7833	Co	0.562498	0.937399	0.094785
	Co7834	Co	0.500037	0.874514	0.404576
	Co7835	Co	0.562501	0.937275	0.344804
	C7836	C	0.511876	0.969627	0.443135
	C7837	C	0.575307	0.911922	0.401445
	C7838	C	0.550635	0.967924	0.055947
	C7839	C	0.612146	0.900196	0.098943
	C7840	C	0.549678	0.962648	0.401139
	C7841	C	0.613152	0.905503	0.444034
	C7842	C	0.512806	0.974500	0.097893
	C7843	C	0.574352	0.906841	0.056834
	C7844	C	0.549690	0.911947	0.150410
	C7845	C	0.613174	0.969803	0.193836
	C7846	C	0.512865	0.899941	0.347226
	C7847	C	0.574394	0.967715	0.305969
	C7848	C	0.511815	0.905604	0.192674
	C7849	C	0.575393	0.962593	0.151201
	C7850	C	0.550643	0.906789	0.305547
	C7851	C	0.612202	0.974500	0.348646
	C7852	C	0.516683	0.968688	0.516366
	C7853	C	0.579127	0.906179	-0.016538
	C7854	C	0.545853	0.968736	0.482675
	C7855	C	0.608353	0.906041	0.017291
	C7856	C	0.545835	0.905959	0.231792
	C7857	C	0.608394	0.968740	0.267082
	C7858	C	0.516655	0.906213	0.265590
	C7859	C	0.579179	0.968568	0.232792
	C7860	C	0.524057	0.967757	0.507688
	C7861	C	0.586529	0.905229	-0.008199
	C7862	C	0.538475	0.969708	0.491013
	C7863	C	0.600945	0.907041	0.008470
	C7864	C	0.538439	0.905055	0.240168
	C7865	C	0.600991	0.967762	0.258606
	C7866	C	0.524012	0.907163	0.256791
	C7867	C	0.586574	0.969507	0.241679
	C7868	C	0.527290	0.970081	0.418948
	C7869	C	0.590732	0.903776	0.411046
	C7870	C	0.534233	0.970533	-0.089618
	C7871	C	0.596739	0.908222	0.088956
	C7872	C	0.534283	0.970911	0.410643
	C7873	C	0.597733	0.904711	0.419220
	C7874	C	0.527237	0.969806	-0.081850
	C7875	C	0.589763	0.907448	0.080897
	C7876	C	0.534238	0.904045	0.159563
	C7877	C	0.597783	0.969974	0.169565
	C7878	C	0.528219	0.908293	0.337302
	C7879	C	0.589803	0.967239	0.330853
	C7880	C	0.527246	0.904857	0.167711
	C7881	C	0.590795	0.970735	0.161307
	C7882	C	0.535218	0.907303	0.329143
	C7883	C	0.596780	0.966437	0.338897
	N7884	N	0.505743	0.976795	0.477893
	N7885	N	0.568839	0.917219	0.424873
	N7886	N	0.556763	0.960537	0.021625
	N7887	N	0.618640	0.895139	0.075962
	N7888	N	0.556157	0.957572	0.424297
	N7889	N	0.619290	0.898424	0.478936
	N7890	N	0.506338	0.979565	0.074907
	N7891	N	0.568197	0.914068	0.021995
	N7892	N	0.556161	0.917039	0.174134
	N7893	N	0.619304	0.977061	0.228485
	N7894	N	0.506368	0.894985	0.324802
	N7895	N	0.568261	0.960286	0.271230
	N7896	N	0.505698	0.898288	0.227717
	N7897	N	0.568901	0.957388	0.174016
	N7898	N	0.556761	0.914112	0.271315
	N7899	N	0.618669	0.979864	0.325671
	H7900	H	0.512467	0.965396	0.867630
	H7901	H	0.576963	0.912815	0.828479
	H7902	H	0.549999	0.972263	0.630799
	H7903	H	0.610526	0.900323	0.672296
	H7904	H	0.548089	0.961634	0.827287
	H7905	H	0.612515	0.908998	0.868492
	H7906	H	0.514499	0.975127	0.671219
	H7907	H	0.574944	0.903040	0.631729
	H7908	H	0.547934	0.913404	0.578511
	H7909	H	0.612527	0.965694	0.617938
	H7910	H	0.514377	0.899964	0.922895
	H7911	H	0.574979	0.971741	0.880955
	H7912	H	0.512586	0.908851	0.618209
	H7913	H	0.576883	0.962437	0.577088
	H7914	H	0.550088	0.902350	0.882264
	H7915	H	0.610595	0.974894	0.922360
	H7916	H	0.525972	0.964904	1.158138
	H7917	H	0.588482	0.902527	0.840681
	H7918	H	0.538244	0.965891	0.644116
	H7919	H	0.598951	0.910342	0.659118
	H7920	H	0.538237	0.966192	1.144207
	H7921	H	0.600738	0.903666	0.855079
	H7922	H	0.526025	0.964720	0.658345
	H7923	H	0.586749	0.909305	0.644815
	H7924	H	0.536455	0.901884	0.591284
	H7925	H	0.600798	0.971369	0.604732
	H7926	H	0.526029	0.909601	0.910252
	H7927	H	0.586768	0.966532	0.894902
	H7928	H	0.524278	0.903521	0.605416
	H7929	H	0.588543	0.972554	0.589796
	H7930	H	0.538226	0.908369	0.896423
	H7931	H	0.598999	0.965319	0.909138
	Co7932	Co	0.624964	1.000323	0.656071
	Co7933	Co	0.562497	0.937439	0.595089
	Co7934	Co	0.499937	0.875245	0.904816
	Co7935	Co	0.562503	0.937315	0.844743
	C7936	C	0.511819	0.969485	0.942492
	C7937	C	0.575353	0.912148	0.901972
	C7938	C	0.550667	0.968035	0.555983
	C7939	C	0.612161	0.900879	0.599018
	C7940	C	0.549687	0.962804	0.900810
	C7941	C	0.613136	0.905082	0.944091
	C7942	C	0.512847	0.974537	0.598041
	C7943	C	0.574346	0.907049	0.556423
	C7944	C	0.549626	0.912285	0.651684
	C7945	C	0.613158	0.969558	0.693575
	C7946	C	0.512789	0.900506	0.848808
	C7947	C	0.574348	0.967992	0.805962
	C7948	C	0.511908	0.905063	0.693472
	C7949	C	0.575308	0.963177	0.651020
	C7950	C	0.550687	0.906715	0.806685
	C7951	C	0.612171	0.974440	0.848739
	C7952	C	0.516621	0.968628	1.016116
	C7953	C	0.579136	0.906056	0.482908
	C7954	C	0.545851	0.968713	0.982465
	C7955	C	0.608346	0.906511	0.517205
	C7956	C	0.545839	0.906043	0.733578
	C7957	C	0.608373	0.968606	0.766885
	C7958	C	0.516670	0.906106	0.767458
	C7959	C	0.579126	0.969044	0.732556
	C7960	C	0.524020	0.967674	1.007212
	C7961	C	0.586522	0.905190	0.491356
	C7962	C	0.538461	0.969567	0.990986
	C7963	C	0.600958	0.907212	0.508151
	C7964	C	0.538472	0.904994	0.742575
	C7965	C	0.600974	0.967900	0.758058
	C7966	C	0.524045	0.906892	0.759164
	C7967	C	0.586533	0.969935	0.741156
	C7968	C	0.528213	0.966563	1.087649
	C7969	C	0.590733	0.904024	0.911254
	C7970	C	0.535242	0.967325	0.579736
	C7971	C	0.596737	0.908492	0.588437
	C7972	C	0.535213	0.967370	1.079771
	C7973	C	0.597710	0.904895	0.919370
	C7974	C	0.528253	0.966532	0.587992
	C7975	C	0.589756	0.907689	0.580245
	C7976	C	0.534267	0.903795	0.662099
	C7977	C	0.597755	0.970248	0.668904
	C7978	C	0.528255	0.907801	0.839626
	C7979	C	0.589770	0.967761	0.830165
	C7980	C	0.527278	0.904701	0.670013
	C7981	C	0.590764	0.971136	0.660719
	C7982	C	0.535253	0.907155	0.831405
	C7983	C	0.596756	0.966808	0.838392
	N7984	N	0.505708	0.976757	0.977836
	N7985	N	0.568839	0.917065	0.924763
	N7986	N	0.556794	0.960678	0.521312
	N7987	N	0.618646	0.895682	0.576245
	N7988	N	0.556171	0.957595	0.924455
	N7989	N	0.619270	0.897855	0.978741
	N7990	N	0.506360	0.979597	0.575181
	N7991	N	0.568218	0.914350	0.521913
	N7992	N	0.556100	0.917387	0.674605
	N7993	N	0.619300	0.976807	0.728665
	N7994	N	0.506313	0.895484	0.825151
	N7995	N	0.568214	0.960637	0.771573
	N7996	N	0.505755	0.898071	0.727776
	N7997	N	0.568841	0.957821	0.674169
	N7998	N	0.556775	0.914144	0.771732
	N7999	N	0.618655	0.979605	0.825848
	H8000	H	0.637407	0.089604	0.369924
	H8001	H	0.702005	0.037912	0.327063
	H8002	H	0.675086	0.097556	0.130578
	H8003	H	0.735480	0.024219	0.172900
	H8004	H	0.672913	0.086129	0.326722
	H8005	H	0.737645	0.034503	0.369254
	H8006	H	0.639548	0.101238	0.173048
	H8007	H	0.699898	0.028045	0.131422
	H8008	H	0.672972	0.038418	0.077059
	H8009	H	0.737496	0.090328	0.119507
	H8010	H	0.639589	0.023596	0.423038
	H8011	H	0.699903	0.097073	0.381108
	H8012	H	0.637385	0.035625	0.120433
	H8013	H	0.701940	0.087063	0.077622
	H8014	H	0.675031	0.026830	0.380435
	H8015	H	0.735411	0.101245	0.423218
	H8016	H	0.649156	0.096309	0.355459
	H8017	H	0.713593	0.027796	0.340790
	H8018	H	0.663255	0.091183	0.145657
	H8019	H	0.723939	0.035540	0.160134
	H8020	H	0.661373	0.097510	0.339830
	H8021	H	0.725811	0.028876	0.355052
	H8022	H	0.651047	0.089822	0.160253
	H8023	H	0.711707	0.033923	0.145591
	H8024	H	0.661382	0.027411	0.089586
	H8025	H	0.725711	0.096584	0.105288
	H8026	H	0.651100	0.035122	0.409838
	H8027	H	0.711675	0.091011	0.395759
	H8028	H	0.649184	0.029044	0.105123
	H8029	H	0.713509	0.097443	0.090310
	H8030	H	0.663287	0.033488	0.394745
	H8031	H	0.723870	0.090334	0.410373
	Co8032	Co	0.749956	0.125018	0.156142
	Co8033	Co	0.687433	0.062641	0.093829
	Co8034	Co	0.625015	-0.000166	0.406571
	Co8035	Co	0.687493	0.062076	0.343741
	C8036	C	0.636776	0.093974	0.445115
	C8037	C	0.700394	0.037175	0.400736
	C8038	C	0.675669	0.093166	0.055358
	C8039	C	0.737117	0.025359	0.099494
	C8040	C	0.674630	0.087342	0.399495
	C8041	C	0.738223	0.030442	0.444287
	C8042	C	0.637870	0.099943	0.099561
	C8043	C	0.699296	0.032114	0.055919
	C8044	C	0.674659	0.037149	0.150395
	C8045	C	0.738118	0.094563	0.194826
	C8046	C	0.637925	0.024987	0.349980
	C8047	C	0.699264	0.092884	0.305933
	C8048	C	0.636823	0.031089	0.195509
	C8049	C	0.700271	0.087908	0.150861
	C8050	C	0.675687	0.031302	0.304960
	C8051	C	0.737094	0.100061	0.349699
	C8052	C	0.641654	0.093496	0.518233
	C8053	C	0.704120	0.031171	-0.016939
	C8054	C	0.670796	0.093522	0.481371
	C8055	C	0.733337	0.031560	0.018121
	C8056	C	0.670863	0.030897	0.231817
	C8057	C	0.733273	0.094062	0.267964
	C8058	C	0.641676	0.031392	0.268158
	C8059	C	0.704087	0.093810	0.232696
	C8060	C	0.649016	0.092611	0.509120
	C8061	C	0.711515	0.030106	-0.007840
	C8062	C	0.663446	0.094479	0.490782
	C8063	C	0.725938	0.032376	0.009197
	C8064	C	0.663465	0.030041	0.240712
	C8065	C	0.725896	0.093122	0.259037
	C8066	C	0.649059	0.032311	0.258670
	C8067	C	0.711470	0.094731	0.241750
	C8068	C	0.652189	0.094949	0.419874
	C8069	C	0.715822	0.029418	0.411389
	C8070	C	0.660242	0.092430	0.081032
	C8071	C	0.721711	0.033744	0.089502
	C8072	C	0.659192	0.095778	0.410717
	C8073	C	0.722805	0.030121	0.419695
	C8074	C	0.653254	0.091481	0.089563
	C8075	C	0.714722	0.032635	0.081156
	C8076	C	0.659221	0.029222	0.160534
	C8077	C	0.722695	0.095320	0.169865
	C8078	C	0.653293	0.033325	0.338936
	C8079	C	0.714681	0.092470	0.331040
	C8080	C	0.652239	0.030161	0.169371
	C8081	C	0.715696	0.095985	0.161267
	C8082	C	0.660275	0.032380	0.330127
	C8083	C	0.721678	0.091804	0.339401
	N8084	N	0.630686	0.101500	0.480012
	N8085	N	0.693915	0.042308	0.423645
	N8086	N	0.681773	0.085967	0.020628
	N8087	N	0.743604	0.020336	0.076581
	N8088	N	0.681114	0.082474	0.422789
	N8089	N	0.744344	0.022992	0.478803
	N8090	N	0.631379	0.104953	0.076686
	N8091	N	0.693185	0.039574	0.020753
	N8092	N	0.681138	0.042131	0.173369
	N8093	N	0.744246	0.101800	0.229659
	N8094	N	0.631425	0.020028	0.327199
	N8095	N	0.693127	0.085670	0.271171
	N8096	N	0.630710	0.023564	0.230555
	N8097	N	0.693781	0.082781	0.173880
	N8098	N	0.681817	0.038761	0.270580
	N8099	N	0.743583	0.104923	0.326675
	H8100	H	0.637401	0.089453	0.869941
	H8101	H	0.701987	0.038199	0.827894
	H8102	H	0.675001	0.097557	0.629492
	H8103	H	0.735652	0.024545	0.672707
	H8104	H	0.672983	0.086832	0.827114
	H8105	H	0.737518	0.035493	0.869914
	H8106	H	0.639502	0.100821	0.673251
	H8107	H	0.700018	0.028476	0.631174
	H8108	H	0.672998	0.038202	0.577520
	H8109	H	0.737540	0.090058	0.619898
	H8110	H	0.639538	0.023544	0.922516
	H8111	H	0.699968	0.097226	0.881445
	H8112	H	0.637435	0.035213	0.618961
	H8113	H	0.701984	0.086961	0.577170
	H8114	H	0.675143	0.027536	0.880543
	H8115	H	0.735395	0.101298	0.922314
	H8116	H	0.649199	0.096289	0.855484
	H8117	H	0.713535	0.026922	0.841113
	H8118	H	0.663289	0.090871	0.644962
	H8119	H	0.723983	0.035427	0.659709
	H8120	H	0.661395	0.097340	0.840538
	H8121	H	0.725770	0.028254	0.856051
	H8122	H	0.651112	0.089845	0.660317
	H8123	H	0.711765	0.034110	0.645058
	H8124	H	0.661522	0.027210	0.590856
	H8125	H	0.725761	0.096864	0.604843
	H8126	H	0.651095	0.034953	0.909918
	H8127	H	0.711742	0.090148	0.894832
	H8128	H	0.649276	0.028035	0.604897
	H8129	H	0.713544	0.097967	0.590273
	H8130	H	0.663293	0.033868	0.895470
	H8131	H	0.723964	0.089323	0.909501
	Co8132	Co	0.750001	0.124791	0.656348
	Co8133	Co	0.687478	0.062831	0.593500
	Co8134	Co	0.625044	-0.000312	0.906148
	Co8135	Co	0.687499	0.062720	0.843436
	C8136	C	0.636811	0.093960	0.944718
	C8137	C	0.700346	0.037252	0.901139
	C8138	C	0.675662	0.093129	0.554498
	C8139	C	0.737219	0.025273	0.599096
	C8140	C	0.674632	0.087877	0.900647
	C8141	C	0.738136	0.031009	0.944917
	C8142	C	0.637829	0.099876	0.599840
	C8143	C	0.699399	0.032505	0.555835
	C8144	C	0.674657	0.037330	0.650946
	C8145	C	0.738184	0.094419	0.694620
	C8146	C	0.637891	0.024719	0.848692
	C8147	C	0.699332	0.093106	0.805882
	C8148	C	0.636829	0.030692	0.694267
	C8149	C	0.700334	0.087833	0.651013
	C8150	C	0.675723	0.031879	0.805762
	C8151	C	0.737105	0.100263	0.849364
	C8152	C	0.641636	0.093578	1.017987
	C8153	C	0.704189	0.031525	0.482488
	C8154	C	0.670824	0.093934	0.982480
	C8155	C	0.733430	0.031343	0.517457
	C8156	C	0.670895	0.031100	0.732737
	C8157	C	0.733328	0.093995	0.767667
	C8158	C	0.641673	0.031059	0.767147
	C8159	C	0.704169	0.093712	0.732702
	C8160	C	0.649014	0.092692	1.009255
	C8161	C	0.711592	0.030629	0.491512
	C8162	C	0.663440	0.094742	0.991935
	C8163	C	0.726036	0.032462	0.508605
	C8164	C	0.663498	0.030198	0.741858
	C8165	C	0.725958	0.092915	0.758478
	C8166	C	0.649062	0.031905	0.758439
	C8167	C	0.711538	0.094560	0.741364
	C8168	C	0.652216	0.094943	0.919974
	C8169	C	0.715746	0.028714	0.911934
	C8170	C	0.660279	0.092187	0.580171
	C8171	C	0.721783	0.033775	0.588826
	C8172	C	0.659211	0.095756	0.911683
	C8173	C	0.722730	0.029611	0.920185
	C8174	C	0.653265	0.091528	0.589129
	C8175	C	0.714796	0.032896	0.580694
	C8176	C	0.659280	0.028817	0.661398
	C8177	C	0.722750	0.095483	0.669382
	C8178	C	0.653287	0.033294	0.838903
	C8179	C	0.714747	0.091798	0.830232
	C8180	C	0.652286	0.029567	0.669487
	C8181	C	0.715752	0.096209	0.661127
	C8182	C	0.660278	0.032567	0.830968
	C8183	C	0.721747	0.091184	0.838773
	N8184	N	0.630682	0.101485	0.979637
	N8185	N	0.693858	0.042554	0.923759
	N8186	N	0.681769	0.085842	0.519661
	N8187	N	0.743691	0.019914	0.576111
	N8188	N	0.681106	0.082822	0.923446
	N8189	N	0.744262	0.023534	0.979513
	N8190	N	0.631370	0.104882	0.576879
	N8191	N	0.693255	0.039644	0.520785
	N8192	N	0.681149	0.042500	0.673616
	N8193	N	0.744302	0.101747	0.729910
	N8194	N	0.631398	0.019919	0.826168
	N8195	N	0.693197	0.086061	0.771064
	N8196	N	0.630693	0.023429	0.729109
	N8197	N	0.693850	0.082962	0.673855
	N8198	N	0.681836	0.039280	0.770565
	N8199	N	0.743598	0.105168	0.826713
	H8200	H	0.637467	0.214977	0.369530
	H8201	H	0.702015	0.163151	0.327090
	H8202	H	0.675104	0.222355	0.130389
	H8203	H	0.735514	0.149554	0.173451
	H8204	H	0.673013	0.211677	0.327005
	H8205	H	0.737638	0.159971	0.369147
	H8206	H	0.639511	0.225878	0.172337
	H8207	H	0.699826	0.152275	0.130887
	H8208	H	0.672994	0.163795	0.077928
	H8209	H	0.737514	0.215292	0.118872
	H8210	H	0.639591	0.148944	0.423363
	H8211	H	0.699904	0.222383	0.381533
	H8212	H	0.637486	0.159803	0.119285
	H8213	H	0.701984	0.211712	0.077557
	H8214	H	0.675213	0.151836	0.380469
	H8215	H	0.735540	0.225204	0.422438
	H8216	H	0.649245	0.220744	0.355062
	H8217	H	0.713616	0.152712	0.339872
	H8218	H	0.663338	0.216491	0.144505
	H8219	H	0.723890	0.160123	0.160258
	H8220	H	0.661468	0.222417	0.339915
	H8221	H	0.725830	0.154042	0.354641
	H8222	H	0.651117	0.215251	0.159311
	H8223	H	0.711653	0.158697	0.145377
	H8224	H	0.661493	0.152607	0.090181
	H8225	H	0.725735	0.221540	0.104761
	H8226	H	0.651110	0.159783	0.410242
	H8227	H	0.711723	0.215967	0.395278
	H8228	H	0.649278	0.153779	0.104788
	H8229	H	0.713531	0.222482	0.090592
	H8230	H	0.663328	0.158405	0.395314
	H8231	H	0.723926	0.214964	0.409685
	Co8232	Co	0.750012	0.250120	0.156207
	Co8233	Co	0.687501	0.187601	0.093503
	Co8234	Co	0.625009	0.124691	0.406183
	Co8235	Co	0.687553	0.187249	0.343354
	C8236	C	0.636872	0.219340	0.444557
	C8237	C	0.700389	0.162074	0.400307
	C8238	C	0.675701	0.218239	0.055022
	C8239	C	0.737133	0.150394	0.099856
	C8240	C	0.674683	0.212598	0.400067
	C8241	C	0.738226	0.155720	0.444071
	C8242	C	0.637895	0.224773	0.099242
	C8243	C	0.699267	0.156618	0.055718
	C8244	C	0.674658	0.162365	0.151119
	C8245	C	0.738171	0.219529	0.194114
	C8246	C	0.637902	0.149875	0.349628
	C8247	C	0.699324	0.218059	0.305940
	C8248	C	0.636861	0.155550	0.194812
	C8249	C	0.700351	0.212651	0.151091
	C8250	C	0.675768	0.156347	0.305377
	C8251	C	0.737190	0.224525	0.349121
	C8252	C	0.641683	0.218569	0.517739
	C8253	C	0.704102	0.155874	-0.017270
	C8254	C	0.670885	0.218653	0.481961
	C8255	C	0.733311	0.156330	0.018153
	C8256	C	0.670892	0.155874	0.232728
	C8257	C	0.733352	0.218663	0.267334
	C8258	C	0.641696	0.156093	0.267847
	C8259	C	0.704150	0.218744	0.232739
	C8260	C	0.649074	0.217506	0.508765
	C8261	C	0.711488	0.155002	-0.008027
	C8262	C	0.663490	0.219473	0.491032
	C8263	C	0.725920	0.157184	0.009333
	C8264	C	0.663510	0.155029	0.241596
	C8265	C	0.725960	0.217817	0.258475
	C8266	C	0.649081	0.157064	0.258783
	C8267	C	0.711521	0.219597	0.241624
	C8268	C	0.652282	0.219671	0.419379
	C8269	C	0.715821	0.154319	0.410701
	C8270	C	0.660300	0.217432	0.080153
	C8271	C	0.721691	0.158353	0.089503
	C8272	C	0.659264	0.220611	0.410694
	C8273	C	0.722807	0.155125	0.419139
	C8274	C	0.653322	0.216727	0.088405
	C8275	C	0.714698	0.157398	0.081131
	C8276	C	0.659287	0.154029	0.161086
	C8277	C	0.722748	0.220181	0.169493
	C8278	C	0.653303	0.158212	0.339331
	C8279	C	0.714743	0.217425	0.330782
	C8280	C	0.652292	0.154841	0.169443
	C8281	C	0.715747	0.220940	0.161406
	C8282	C	0.660301	0.157259	0.330764
	C8283	C	0.721734	0.216579	0.338752
	N8284	N	0.630752	0.226596	0.479370
	N8285	N	0.693910	0.167159	0.422969
	N8286	N	0.681841	0.210973	0.020295
	N8287	N	0.743610	0.145381	0.076754
	N8288	N	0.681179	0.207531	0.423287
	N8289	N	0.744340	0.148181	0.479150
	N8290	N	0.631384	0.229567	0.076678
	N8291	N	0.693163	0.164234	0.020590
	N8292	N	0.681135	0.167363	0.173551
	N8293	N	0.744298	0.226742	0.228993
	N8294	N	0.631406	0.144926	0.326666
	N8295	N	0.693199	0.210784	0.271040
	N8296	N	0.630720	0.148332	0.229768
	N8297	N	0.693868	0.207641	0.173883
	N8298	N	0.681853	0.163885	0.270450
	N8299	N	0.743670	0.229552	0.326300
	H8300	H	0.637430	0.215076	0.869397
	H8301	H	0.701992	0.162951	0.827731
	H8302	H	0.675043	0.222312	0.630109
	H8303	H	0.735529	0.149322	0.672348
	H8304	H	0.673076	0.211804	0.826507
	H8305	H	0.737507	0.159936	0.869485
	H8306	H	0.639502	0.225683	0.673289
	H8307	H	0.699957	0.152884	0.630006
	H8308	H	0.673013	0.163411	0.576864
	H8309	H	0.737622	0.215219	0.619135
	H8310	H	0.639559	0.148548	0.923351
	H8311	H	0.700058	0.221691	0.881142
	H8312	H	0.637478	0.160035	0.620194
	H8313	H	0.702101	0.211923	0.577318
	H8314	H	0.675077	0.152866	0.880466
	H8315	H	0.735569	0.225596	0.922935
	H8316	H	0.649276	0.221285	0.854442
	H8317	H	0.713522	0.152110	0.841042
	H8318	H	0.663317	0.215958	0.644666
	H8319	H	0.723961	0.160420	0.659548
	H8320	H	0.661485	0.222375	0.839974
	H8321	H	0.725733	0.153536	0.855806
	H8322	H	0.651106	0.214682	0.659569
	H8323	H	0.711742	0.159062	0.644479
	H8324	H	0.661442	0.152413	0.590170
	H8325	H	0.724032	0.214491	0.909802
	H8326	H	0.651141	0.159761	0.910076
	H8327	H	0.713614	0.222453	0.590373
	H8328	H	0.649231	0.153474	0.605181
	H8329	H	0.711788	0.215854	0.895102
	H8330	H	0.663347	0.158774	0.895046
	H8331	H	0.725873	0.221317	0.605471
	Co8332	Co	0.750082	0.250130	0.656281
	Co8333	Co	0.687540	0.187528	0.593421
	Co8334	Co	0.625035	0.124880	0.906354
	Co8335	Co	0.687514	0.187519	0.843553
	C8336	C	0.636854	0.219163	0.944637
	C8337	C	0.700340	0.162010	0.901054
	C8338	C	0.675688	0.217998	0.555222
	C8339	C	0.737169	0.150190	0.598993
	C8340	C	0.674682	0.212796	0.900300
	C8341	C	0.738116	0.155600	0.944879
	C8342	C	0.637886	0.224720	0.599175
	C8343	C	0.699370	0.156901	0.554961
	C8344	C	0.674690	0.162275	0.650101
	C8345	C	0.738246	0.219482	0.694407
	C8346	C	0.637937	0.149930	0.850016
	C8347	C	0.699409	0.217862	0.805942
	C8348	C	0.636900	0.155696	0.695114
	C8349	C	0.700414	0.212774	0.650686
	C8350	C	0.675723	0.156872	0.805171
	C8351	C	0.737227	0.224682	0.849535
	C8352	C	0.641667	0.218817	1.017537
	C8353	C	0.704184	0.156197	0.481855
	C8354	C	0.670910	0.218790	0.981964
	C8355	C	0.733400	0.156413	0.517271
	C8356	C	0.670891	0.156205	0.731893
	C8357	C	0.733410	0.218616	0.767624
	C8358	C	0.641718	0.156149	0.768288
	C8359	C	0.704237	0.218700	0.732658
	C8360	C	0.649078	0.217933	1.008320
	C8361	C	0.711571	0.155421	0.490887
	C8362	C	0.663511	0.219690	0.990967
	C8363	C	0.726007	0.157455	0.508323
	C8364	C	0.663502	0.155115	0.741246
	C8365	C	0.726041	0.217586	0.758897
	C8366	C	0.649090	0.156968	0.759029
	C8367	C	0.711611	0.219556	0.741576
	C8368	C	0.652287	0.220160	0.919081
	C8369	C	0.715736	0.153753	0.911789
	C8370	C	0.660300	0.217087	0.580145
	C8371	C	0.721774	0.158633	0.588591
	C8372	C	0.659268	0.220835	0.910654
	C8373	C	0.722722	0.154750	0.920259
	C8374	C	0.653310	0.216309	0.588902
	C8375	C	0.714783	0.157811	0.580109
	C8376	C	0.659254	0.153912	0.661129
	C8377	C	0.721821	0.216213	0.839138
	C8378	C	0.653339	0.158042	0.839290
	C8379	C	0.715829	0.220844	0.661209
	C8380	C	0.652269	0.154682	0.669550
	C8381	C	0.714818	0.217153	0.830601
	C8382	C	0.660330	0.157339	0.830633
	C8383	C	0.722839	0.220030	0.669876
	N8384	N	0.630705	0.226347	0.979543
	N8385	N	0.693850	0.167274	0.923505
	N8386	N	0.681820	0.210657	0.520130
	N8387	N	0.743660	0.144965	0.576048
	N8388	N	0.681186	0.207860	0.923128
	N8389	N	0.744241	0.148485	0.979403
	N8390	N	0.631413	0.229829	0.576463
	N8391	N	0.693254	0.164228	0.520262
	N8392	N	0.681163	0.167357	0.673067
	N8393	N	0.744358	0.226904	0.729504
	N8394	N	0.631444	0.144915	0.826952
	N8395	N	0.693310	0.210541	0.770918
	N8396	N	0.630782	0.148254	0.729947
	N8397	N	0.693943	0.207597	0.673600
	N8398	N	0.681819	0.164281	0.770239
	N8399	N	0.743702	0.229866	0.826471
	H8400	H	0.637457	0.340376	0.368799
	H8401	H	0.702009	0.288458	0.327516
	H8402	H	0.675081	0.347259	0.130832
	H8403	H	0.735513	0.274487	0.172819
	H8404	H	0.673015	0.336605	0.326792
	H8405	H	0.737624	0.284552	0.368763
	H8406	H	0.639547	0.350623	0.172644
	H8407	H	0.699917	0.277578	0.130109
	H8408	H	0.672973	0.288384	0.076501
	H8409	H	0.737542	0.340305	0.119496
	H8410	H	0.639479	0.273932	0.422977
	H8411	H	0.699800	0.347416	0.380514
	H8412	H	0.637433	0.284570	0.119200
	H8413	H	0.701965	0.336804	0.077767
	H8414	H	0.675068	0.277267	0.379559
	H8415	H	0.735400	0.350700	0.423040
	H8416	H	0.649239	0.346049	0.354945
	H8417	H	0.713604	0.277886	0.339836
	H8418	H	0.661451	0.348257	-0.159714
	H8419	H	0.725823	0.278456	-0.144621
	H8420	H	0.661446	0.347281	0.340271
	H8421	H	0.725837	0.279030	0.354460
	H8422	H	0.649244	0.346980	-0.145315
	H8423	H	0.713568	0.276884	-0.159298
	H8424	H	0.661405	0.277707	0.089460
	H8425	H	0.725713	0.346682	0.105200
	H8426	H	0.651069	0.284633	0.409752
	H8427	H	0.711670	0.341254	0.394890
	H8428	H	0.649157	0.278667	0.104795
	H8429	H	0.713484	0.348007	0.090739
	H8430	H	0.663260	0.283695	0.394564
	H8431	H	0.723887	0.339769	0.409756
	Co8432	Co	0.749967	0.374959	0.157340
	Co8433	Co	0.687510	0.312272	0.093340
	Co8434	Co	0.624999	0.249592	0.406324
	Co8435	Co	0.687481	0.312135	0.343247
	C8436	C	0.636851	0.344538	0.444316
	C8437	C	0.700395	0.287416	0.400536
	C8438	C	0.675686	0.343019	0.055819
	C8439	C	0.737137	0.275383	0.099622
	C8440	C	0.674659	0.337509	0.400347
	C8441	C	0.738230	0.280487	0.443985
	C8442	C	0.637867	0.349687	0.099174
	C8443	C	0.699323	0.281833	0.054910
	C8444	C	0.674617	0.287232	0.149689
	C8445	C	0.738136	0.344416	0.194403
	C8446	C	0.637860	0.274867	0.349266
	C8447	C	0.699274	0.343188	0.305575
	C8448	C	0.636838	0.280365	0.194576
	C8449	C	0.700333	0.337918	0.150686
	C8450	C	0.675659	0.281591	0.304395
	C8451	C	0.737074	0.349735	0.349406
	C8452	C	0.641665	0.343669	0.517646
	C8453	C	0.704145	0.281202	-0.018101
	C8454	C	0.670871	0.343663	0.482107
	C8455	C	0.733339	0.281334	0.017884
	C8456	C	0.670825	0.280982	0.231402
	C8457	C	0.733311	0.343758	0.267412
	C8458	C	0.641649	0.281045	0.267621
	C8459	C	0.704092	0.344065	0.232458
	C8460	C	0.649044	0.342828	0.508738
	C8461	C	0.711530	0.280277	-0.008745
	C8462	C	0.663488	0.344658	0.491269
	C8463	C	0.725943	0.282184	0.008711
	C8464	C	0.663436	0.280130	0.240493
	C8465	C	0.725908	0.342897	0.258558
	C8466	C	0.649023	0.282022	0.258504
	C8467	C	0.711482	0.345017	0.241510
	C8468	C	0.652243	0.344908	0.419505
	C8469	C	0.715836	0.279366	0.410497
	C8470	C	0.659255	0.346351	-0.088996
	C8471	C	0.722760	0.279765	-0.080580
	C8472	C	0.659241	0.345624	0.410985
	C8473	C	0.722835	0.280101	0.418893
	C8474	C	0.652248	0.345404	-0.080974
	C8475	C	0.715773	0.278785	-0.088773
	C8476	C	0.659190	0.279044	0.160278
	C8477	C	0.722683	0.345343	0.169530
	C8478	C	0.653256	0.283272	0.338644
	C8479	C	0.714703	0.342516	0.330536
	C8480	C	0.652213	0.279950	0.168921
	C8481	C	0.715703	0.346246	0.161323
	C8482	C	0.660243	0.282421	0.329849
	C8483	C	0.721680	0.341564	0.339005
	N8484	N	0.630742	0.352015	0.479111
	N8485	N	0.693898	0.292355	0.423606
	N8486	N	0.681783	0.335614	0.020830
	N8487	N	0.743626	0.270357	0.076535
	N8488	N	0.681136	0.332375	0.423151
	N8489	N	0.744343	0.273194	0.479114
	N8490	N	0.631394	0.354783	0.076367
	N8491	N	0.693194	0.289073	0.020036
	N8492	N	0.681096	0.292277	0.172681
	N8493	N	0.744252	0.351732	0.229744
	N8494	N	0.631372	0.269820	0.326536
	N8495	N	0.693172	0.335572	0.270364
	N8496	N	0.630702	0.273003	0.229414
	N8497	N	0.693855	0.332509	0.173400
	N8498	N	0.681772	0.288995	0.269801
	N8499	N	0.743566	0.354873	0.326829
	H8500	H	0.637436	0.339655	0.869444
	H8501	H	0.702022	0.288520	0.826428
	H8502	H	0.675094	0.347204	0.630239
	H8503	H	0.735531	0.274471	0.672926
	H8504	H	0.673020	0.336907	0.827422
	H8505	H	0.737514	0.284777	0.869269
	H8506	H	0.639507	0.350442	0.672591
	H8507	H	0.700035	0.277885	0.630709
	H8508	H	0.672978	0.288489	0.576949
	H8509	H	0.737631	0.340060	0.619608
	H8510	H	0.639575	0.273615	0.922295
	H8511	H	0.699987	0.347455	0.880465
	H8512	H	0.637430	0.285046	0.620097
	H8513	H	0.702083	0.336457	0.576610
	H8514	H	0.675071	0.277543	0.880343
	H8515	H	0.735491	0.351008	0.922782
	H8516	H	0.651049	0.339376	1.159037
	H8517	H	0.711692	0.284077	1.144822
	H8518	H	0.663318	0.341509	0.644999
	H8519	H	0.724026	0.285310	0.658888
	H8520	H	0.663267	0.340731	1.144627
	H8521	H	0.723941	0.285157	1.159521
	H8522	H	0.651084	0.340395	0.659683
	H8523	H	0.711783	0.284180	0.644249
	H8524	H	0.661469	0.277226	0.590130
	H8525	H	0.725879	0.346586	0.605288
	H8526	H	0.651085	0.285202	0.909511
	H8527	H	0.711760	0.340713	0.894511
	H8528	H	0.649228	0.278254	0.604894
	H8529	H	0.713657	0.347700	0.589986
	H8530	H	0.663320	0.284126	0.894491
	H8531	H	0.723972	0.339737	0.909885
	Co8532	Co	0.750054	0.375244	0.656612
	Co8533	Co	0.687540	0.312515	0.593353
	Co8534	Co	0.625026	0.249592	0.906368
	Co8535	Co	0.687512	0.312654	0.843257
	C8536	C	0.636810	0.344198	0.944172
	C8537	C	0.700370	0.287288	0.900286
	C8538	C	0.675708	0.342994	0.555132
	C8539	C	0.737198	0.275321	0.598894
	C8540	C	0.674655	0.337745	0.900773
	C8541	C	0.738135	0.280552	0.944479
	C8542	C	0.637858	0.349683	0.599398
	C8543	C	0.699403	0.282177	0.555311
	C8544	C	0.674674	0.287409	0.650337
	C8545	C	0.738249	0.344404	0.694979
	C8546	C	0.637892	0.274868	0.849475
	C8547	C	0.699369	0.343104	0.804862
	C8548	C	0.636809	0.280671	0.694864
	C8549	C	0.700396	0.337637	0.650173
	C8550	C	0.675694	0.281963	0.805493
	C8551	C	0.737185	0.350035	0.849811
	C8552	C	0.641670	0.343470	1.017331
	C8553	C	0.704210	0.281498	0.482105
	C8554	C	0.670849	0.343868	0.982619
	C8555	C	0.733403	0.281258	0.516966
	C8556	C	0.670862	0.281305	0.732080
	C8557	C	0.733397	0.343798	0.768024
	C8558	C	0.641671	0.281209	0.767626
	C8559	C	0.704219	0.343783	0.731708
	C8560	C	0.649041	0.342654	1.008121
	C8561	C	0.711610	0.280598	0.490848
	C8562	C	0.663478	0.344787	0.991359
	C8563	C	0.726040	0.282361	0.507960
	C8564	C	0.663481	0.280344	0.741044
	C8565	C	0.726025	0.342852	0.758869
	C8566	C	0.649051	0.282124	0.758505
	C8567	C	0.711598	0.344686	0.740870
	C8568	C	0.653256	0.341252	1.088435
	C8569	C	0.714714	0.282717	1.080480
	C8570	C	0.660285	0.342511	0.580612
	C8571	C	0.721818	0.283764	0.588173
	C8572	C	0.660264	0.342201	1.080198
	C8573	C	0.721705	0.283439	1.088866
	C8574	C	0.653286	0.341771	0.588889
	C8575	C	0.714832	0.282960	0.579906
	C8576	C	0.659254	0.279013	0.660997
	C8577	C	0.722844	0.345200	0.669607
	C8578	C	0.653282	0.283513	0.838684
	C8579	C	0.714783	0.342275	0.830075
	C8580	C	0.652254	0.279687	0.669479
	C8581	C	0.715842	0.346051	0.660940
	C8582	C	0.660281	0.282772	0.830134
	C8583	C	0.721784	0.341492	0.838956
	N8584	N	0.630710	0.351621	0.979233
	N8585	N	0.693875	0.292330	0.922843
	N8586	N	0.681810	0.335606	0.520345
	N8587	N	0.743679	0.270253	0.576421
	N8588	N	0.681122	0.332605	0.923593
	N8589	N	0.744261	0.273294	0.979383
	N8590	N	0.631380	0.354908	0.576319
	N8591	N	0.693256	0.289276	0.520672
	N8592	N	0.681161	0.292457	0.673451
	N8593	N	0.744350	0.351877	0.729885
	N8594	N	0.631415	0.269817	0.826796
	N8595	N	0.693255	0.335842	0.770211
	N8596	N	0.630721	0.273224	0.729655
	N8597	N	0.693925	0.332626	0.673058
	N8598	N	0.681825	0.289352	0.770342
	N8599	N	0.743681	0.355081	0.827037
	H8600	H	0.637408	0.465516	0.368601
	H8601	H	0.701992	0.413826	0.327033
	H8602	H	0.675121	0.472115	0.131093
	H8603	H	0.735531	0.399059	0.172896
	H8604	H	0.672987	0.462236	0.327297
	H8605	H	0.737497	0.409444	0.369797
	H8606	H	0.639553	0.475610	0.172962
	H8607	H	0.700018	0.402604	0.130501
	H8608	H	0.673110	0.412940	0.077131
	H8609	H	0.737572	0.465521	0.120060
	H8610	H	0.639509	0.399743	0.423093
	H8611	H	0.699958	0.472926	0.380571
	H8612	H	0.637569	0.409365	0.118407
	H8613	H	0.702113	0.461655	0.077540
	H8614	H	0.675132	0.403119	0.380975
	H8615	H	0.735509	0.475610	0.423005
	H8616	H	0.649219	0.471366	0.354848
	H8617	H	0.713597	0.402533	0.340186
	H8618	H	0.663286	0.465730	0.144977
	H8619	H	0.723964	0.410349	0.159188
	H8620	H	0.661458	0.472340	0.340530
	H8621	H	0.725786	0.403451	0.355539
	H8622	H	0.651054	0.464597	0.159377
	H8623	H	0.711714	0.409063	0.144838
	H8624	H	0.661513	0.402292	0.090992
	H8625	H	0.723962	0.464773	0.410358
	H8626	H	0.651074	0.409837	0.409651
	H8627	H	0.713568	0.472914	0.090806
	H8628	H	0.649301	0.403469	0.105452
	H8629	H	0.711729	0.465970	0.395569
	H8630	H	0.663326	0.408744	0.395394
	H8631	H	0.725806	0.471560	0.105729
	Co8632	Co	0.750019	0.500017	0.156496
	Co8633	Co	0.687559	0.437478	0.093493
	Co8634	Co	0.625045	0.375307	0.406030
	Co8635	Co	0.687512	0.437935	0.343693
	C8636	C	0.636811	0.469520	0.444047
	C8637	C	0.700366	0.412693	0.400598
	C8638	C	0.675660	0.467998	0.056213
	C8639	C	0.737137	0.400296	0.099546
	C8640	C	0.674630	0.462855	0.400945
	C8641	C	0.738143	0.405350	0.445356
	C8642	C	0.637870	0.474590	0.099771
	C8643	C	0.699353	0.406882	0.055238
	C8644	C	0.674736	0.412167	0.151155
	C8645	C	0.738180	0.469511	0.194976
	C8646	C	0.637927	0.400395	0.349065
	C8647	C	0.699339	0.468388	0.305578
	C8648	C	0.636956	0.405415	0.194041
	C8649	C	0.700403	0.462711	0.150776
	C8650	C	0.675738	0.407193	0.305783
	C8651	C	0.737152	0.474757	0.349902
	C8652	C	0.641621	0.468593	0.517360
	C8653	C	0.704145	0.406319	-0.017768
	C8654	C	0.670824	0.468712	0.482932
	C8655	C	0.733351	0.406449	0.017742
	C8656	C	0.670939	0.406287	0.232789
	C8657	C	0.733348	0.468718	0.268100
	C8658	C	0.641713	0.406146	0.267494
	C8659	C	0.704198	0.468886	0.232630
	C8660	C	0.648984	0.467671	0.508599
	C8661	C	0.711550	0.405477	-0.008809
	C8662	C	0.663418	0.469546	0.491670
	C8663	C	0.725964	0.407477	0.008526
	C8664	C	0.663534	0.405183	0.241852
	C8665	C	0.725984	0.467748	0.259171
	C8666	C	0.649109	0.406937	0.258936
	C8667	C	0.711575	0.469772	0.241861
	C8668	C	0.652216	0.469934	0.419498
	C8669	C	0.715769	0.404054	0.411244
	C8670	C	0.660262	0.467212	0.080579
	C8671	C	0.721729	0.408687	0.088599
	C8672	C	0.659210	0.470780	0.411071
	C8673	C	0.722756	0.404759	0.419967
	C8674	C	0.653275	0.466394	0.088725
	C8675	C	0.714744	0.407784	0.080431
	C8676	C	0.659306	0.403908	0.161690
	C8677	C	0.721764	0.466504	0.339516
	C8678	C	0.653335	0.408174	0.339313
	C8679	C	0.715789	0.471148	0.161648
	C8680	C	0.652334	0.404638	0.169784
	C8681	C	0.714758	0.467341	0.331004
	C8682	C	0.660314	0.407478	0.330942
	C8683	C	0.722775	0.470247	0.169995
	N8684	N	0.630697	0.476859	0.479013
	N8685	N	0.693869	0.417535	0.423235
	N8686	N	0.681782	0.460623	0.021469
	N8687	N	0.743627	0.395202	0.076894
	N8688	N	0.681113	0.457707	0.423966
	N8689	N	0.744260	0.398081	0.480096
	N8690	N	0.631366	0.479569	0.076972
	N8691	N	0.693226	0.414159	0.020441
	N8692	N	0.681213	0.417354	0.173785
	N8693	N	0.744292	0.476809	0.229792
	N8694	N	0.631419	0.395305	0.325851
	N8695	N	0.693218	0.461176	0.270468
	N8696	N	0.630790	0.398274	0.228830
	N8697	N	0.693908	0.457834	0.173501
	N8698	N	0.681863	0.414465	0.271084
	N8699	N	0.743636	0.479854	0.327016
	H8700	H	0.637440	0.465009	0.869372
	H8701	H	0.702055	0.413395	0.827236
	H8702	H	0.674993	0.471857	0.631846
	H8703	H	0.735491	0.399460	0.673852
	H8704	H	0.673092	0.462003	0.827969
	H8705	H	0.737660	0.409989	0.869642
	H8706	H	0.639396	0.475367	0.673203
	H8707	H	0.699845	0.402395	0.629894
	H8708	H	0.673002	0.412843	0.577207
	H8709	H	0.737512	0.465338	0.618636
	H8710	H	0.639416	0.398991	0.923179
	H8711	H	0.699885	0.472157	0.880738
	H8712	H	0.637353	0.409701	0.620069
	H8713	H	0.701960	0.461482	0.576944
	H8714	H	0.674981	0.402930	0.880965
	H8715	H	0.735402	0.476334	0.922775
	H8716	H	0.649230	0.471781	0.854912
	H8717	H	0.713554	0.402510	0.840147
	H8718	H	0.663215	0.465746	0.644918
	H8719	H	0.723904	0.410203	0.660113
	H8720	H	0.661459	0.473149	0.840521
	H8721	H	0.725810	0.403547	0.855180
	H8722	H	0.650995	0.464759	0.659832
	H8723	H	0.711707	0.409125	0.644903
	H8724	H	0.661386	0.402150	0.590354
	H8725	H	0.725672	0.471880	0.604584
	H8726	H	0.651032	0.410278	0.909753
	H8727	H	0.711608	0.465972	0.894722
	H8728	H	0.649161	0.403173	0.605247
	H8729	H	0.713453	0.472697	0.590260
	H8730	H	0.663273	0.409068	0.894783
	H8731	H	0.723867	0.465205	0.909381
	Co8732	Co	0.749966	0.500052	0.656729
	Co8733	Co	0.687489	0.437097	0.593673
	Co8734	Co	0.624953	0.374755	0.906097
	Co8735	Co	0.687452	0.437240	0.843587
	C8736	C	0.636805	0.469013	0.944882
	C8737	C	0.700368	0.412247	0.900364
	C8738	C	0.675630	0.467654	0.556120
	C8739	C	0.737140	0.400334	0.600247
	C8740	C	0.674661	0.462907	0.901425
	C8741	C	0.738206	0.405803	0.944763
	C8742	C	0.637797	0.474520	0.599072
	C8743	C	0.699313	0.406866	0.555152
	C8744	C	0.674599	0.411976	0.650538
	C8745	C	0.738094	0.469682	0.694313
	C8746	C	0.637816	0.400037	0.849791
	C8747	C	0.699274	0.467846	0.805288
	C8748	C	0.636800	0.405446	0.695069
	C8749	C	0.700292	0.462627	0.650223
	C8750	C	0.675593	0.406939	0.805706
	C8751	C	0.737066	0.475059	0.849100
	C8752	C	0.641641	0.468597	1.017812
	C8753	C	0.704162	0.406487	0.482171
	C8754	C	0.670869	0.468951	0.982929
	C8755	C	0.733335	0.406158	0.518457
	C8756	C	0.670819	0.406198	0.732426
	C8757	C	0.733265	0.469100	0.767402
	C8758	C	0.641589	0.406133	0.768205
	C8759	C	0.704074	0.468606	0.732150
	C8760	C	0.649047	0.467818	1.008477
	C8761	C	0.711524	0.405502	0.491254
	C8762	C	0.663487	0.469870	0.991469
	C8763	C	0.725953	0.407175	0.509255
	C8764	C	0.663408	0.405345	0.741318
	C8765	C	0.725882	0.468137	0.758367
	C8766	C	0.648995	0.407091	0.758942
	C8767	C	0.711454	0.469614	0.741332
	C8768	C	0.652257	0.470294	0.919399
	C8769	C	0.715783	0.404253	0.910807
	C8770	C	0.660184	0.467156	0.580561
	C8771	C	0.721714	0.408567	0.589264
	C8772	C	0.659250	0.471254	0.911174
	C8773	C	0.722772	0.404991	0.919424
	C8774	C	0.653193	0.466312	0.588882
	C8775	C	0.714729	0.407746	0.580381
	C8776	C	0.659163	0.403921	0.661045
	C8777	C	0.722667	0.470369	0.669217
	C8778	C	0.653241	0.408530	0.839033
	C8779	C	0.714651	0.467400	0.830427
	C8780	C	0.652190	0.404590	0.669685
	C8781	C	0.715677	0.471037	0.660996
	C8782	C	0.660210	0.407812	0.830607
	C8783	C	0.721636	0.466809	0.838622
	N8784	N	0.630688	0.476351	0.979790
	N8785	N	0.693870	0.417256	0.923314
	N8786	N	0.681756	0.460441	0.521041
	N8787	N	0.743613	0.395226	0.577427
	N8788	N	0.681128	0.457553	0.924126
	N8789	N	0.744326	0.398420	0.979987
	N8790	N	0.631334	0.479668	0.576419
	N8791	N	0.693192	0.414133	0.520288
	N8792	N	0.681112	0.417007	0.673719
	N8793	N	0.744225	0.476880	0.729149
	N8794	N	0.631325	0.394946	0.826867
	N8795	N	0.693151	0.460538	0.770338
	N8796	N	0.630662	0.398080	0.729824
	N8797	N	0.693795	0.457558	0.673294
	N8798	N	0.681742	0.414057	0.770761
	N8799	N	0.743552	0.480078	0.826453
	H8800	H	0.637389	0.590483	0.369228
	H8801	H	0.702077	0.538968	0.327495
	H8802	H	0.675112	0.597048	0.131313
	H8803	H	0.735530	0.524530	0.173626
	H8804	H	0.673000	0.587167	0.327359
	H8805	H	0.737566	0.534645	0.369030
	H8806	H	0.639475	0.599990	0.172748
	H8807	H	0.699996	0.527363	0.130610
	H8808	H	0.673178	0.537486	0.077796
	H8809	H	0.737647	0.590599	0.118924
	H8810	H	0.639588	0.524110	0.423102
	H8811	H	0.700019	0.597493	0.380258
	H8812	H	0.637569	0.534534	0.119844
	H8813	H	0.702135	0.586676	0.077069
	H8814	H	0.675180	0.528385	0.381645
	H8815	H	0.735621	0.600212	0.422733
	H8816	H	0.649178	0.596602	0.354868
	H8817	H	0.713547	0.527107	0.340495
	H8818	H	0.663292	0.590677	0.145333
	H8819	H	0.723942	0.535329	0.159917
	H8820	H	0.661404	0.597406	0.340578
	H8821	H	0.725777	0.528482	0.355201
	H8822	H	0.651090	0.589580	0.159444
	H8823	H	0.711730	0.533923	0.144714
	H8824	H	0.661571	0.527431	0.091257
	H8825	H	0.725915	0.596145	0.104599
	H8826	H	0.651153	0.534988	0.410322
	H8827	H	0.711858	0.591004	0.394872
	H8828	H	0.649351	0.528586	0.105407
	H8829	H	0.713695	0.597280	0.089721
	H8830	H	0.663364	0.533631	0.396077
	H8831	H	0.724077	0.589676	0.409163
	Co8832	Co	0.750086	0.625395	0.156029
	Co8833	Co	0.687625	0.562379	0.094044
	Co8834	Co	0.625020	0.500337	0.406619
	Co8835	Co	0.687571	0.563329	0.343862
	C8836	C	0.636753	0.594506	0.444364
	C8837	C	0.700391	0.537607	0.400585
	C8838	C	0.675719	0.592746	0.056251
	C8839	C	0.737191	0.525525	0.100018
	C8840	C	0.674641	0.587885	0.401164
	C8841	C	0.738170	0.530721	0.444588
	C8842	C	0.637868	0.599313	0.099459
	C8843	C	0.699403	0.531830	0.055513
	C8844	C	0.674794	0.536946	0.151567
	C8845	C	0.738243	0.594736	0.193901
	C8846	C	0.637963	0.525008	0.349777
	C8847	C	0.699419	0.593332	0.304890
	C8848	C	0.636954	0.530269	0.194782
	C8849	C	0.700461	0.587646	0.150470
	C8850	C	0.675785	0.532367	0.306611
	C8851	C	0.737251	0.599704	0.349116
	C8852	C	0.641587	0.593612	0.517302
	C8853	C	0.704194	0.531102	-0.017861
	C8854	C	0.670768	0.593371	0.482857
	C8855	C	0.733388	0.531508	0.018256
	C8856	C	0.670979	0.531173	0.233404
	C8857	C	0.733450	0.593803	0.267344
	C8858	C	0.641761	0.530835	0.268027
	C8859	C	0.704259	0.593703	0.232093
	C8860	C	0.648950	0.592554	0.508367
	C8861	C	0.711576	0.530432	-0.008940
	C8862	C	0.663381	0.594222	0.491593
	C8863	C	0.726003	0.532454	0.008979
	C8864	C	0.663581	0.530144	0.242395
	C8865	C	0.726070	0.592807	0.258234
	C8866	C	0.649138	0.531783	0.259294
	C8867	C	0.711644	0.594540	0.241073
	C8868	C	0.652175	0.595018	0.419447
	C8869	C	0.715746	0.528936	0.411153
	C8870	C	0.660305	0.592301	0.080734
	C8871	C	0.721755	0.533695	0.088995
	C8872	C	0.659179	0.595663	0.411288
	C8873	C	0.722733	0.529764	0.419630
	C8874	C	0.653309	0.591492	0.089011
	C8875	C	0.714765	0.532766	0.080314
	C8876	C	0.659350	0.529085	0.161995
	C8877	C	0.722871	0.595111	0.169046
	C8878	C	0.653361	0.533097	0.339676
	C8879	C	0.714849	0.592306	0.330252
	C8880	C	0.652359	0.529686	0.170063
	C8881	C	0.715879	0.595736	0.160842
	C8882	C	0.660353	0.532408	0.331459
	C8883	C	0.721838	0.591485	0.338501
	N8884	N	0.630655	0.601948	0.479064
	N8885	N	0.693907	0.542786	0.423092
	N8886	N	0.681823	0.585361	0.021558
	N8887	N	0.743679	0.520404	0.077033
	N8888	N	0.681127	0.582870	0.424430
	N8889	N	0.744289	0.523421	0.479625
	N8890	N	0.631391	0.604424	0.076388
	N8891	N	0.693267	0.539055	0.020885
	N8892	N	0.681266	0.542238	0.174370
	N8893	N	0.744371	0.601989	0.228770
	N8894	N	0.631458	0.520213	0.326939
	N8895	N	0.693295	0.586189	0.270127
	N8896	N	0.630813	0.523132	0.229712
	N8897	N	0.693960	0.582863	0.172968
	N8898	N	0.681896	0.539661	0.271560
	N8899	N	0.743739	0.604815	0.325942
	H8900	H	0.637536	0.590745	0.868654
	H8901	H	0.701997	0.538036	0.827261
	H8902	H	0.674917	0.596496	0.631698
	H8903	H	0.735476	0.524347	0.672692
	H8904	H	0.673075	0.586688	0.827988
	H8905	H	0.737601	0.535099	0.869786
	H8906	H	0.639441	0.600350	0.673005
	H8907	H	0.699855	0.527231	0.630358
	H8908	H	0.672932	0.537658	0.577719
	H8909	H	0.737437	0.590242	0.618611
	H8910	H	0.639440	0.523832	0.923188
	H8911	H	0.699827	0.597491	0.879733
	H8912	H	0.637352	0.534784	0.619304
	H8913	H	0.701912	0.586419	0.576572
	H8914	H	0.674874	0.528063	0.881549
	H8915	H	0.735390	0.600817	0.922085
	H8916	H	0.649272	0.597186	0.855480
	H8917	H	0.713597	0.527651	0.840402
	H8918	H	0.663177	0.590444	0.645098
	H8919	H	0.723955	0.534811	0.659871
	H8920	H	0.661486	0.598065	0.840643
	H8921	H	0.725864	0.528868	0.855366
	H8922	H	0.650956	0.589373	0.659409
	H8923	H	0.711701	0.533730	0.645033
	H8924	H	0.661328	0.526789	0.590358
	H8925	H	0.725670	0.596092	0.604448
	H8926	H	0.650988	0.535796	0.910018
	H8927	H	0.711599	0.591642	0.893867
	H8928	H	0.649151	0.528013	0.605167
	H8929	H	0.713472	0.597414	0.589301
	H8930	H	0.663207	0.534751	0.894930
	H8931	H	0.723830	0.590529	0.909165
	Co8932	Co	0.750000	0.624412	0.655968
	Co8933	Co	0.687414	0.561962	0.593930
	Co8934	Co	0.624976	0.499414	0.906342
	Co8935	Co	0.687471	0.562091	0.844086
	C8936	C	0.636903	0.594733	0.944362
	C8937	C	0.700368	0.537100	0.900732
	C8938	C	0.675579	0.592465	0.556334
	C8939	C	0.737133	0.525369	0.599505
	C8940	C	0.674710	0.587613	0.901342
	C8941	C	0.738203	0.530820	0.945096
	C8942	C	0.637788	0.599740	0.599058
	C8943	C	0.699302	0.531778	0.555166
	C8944	C	0.674578	0.536961	0.650687
	C8945	C	0.738095	0.594372	0.694071
	C8946	C	0.637776	0.524848	0.849763
	C8947	C	0.699227	0.593292	0.804782
	C8948	C	0.636736	0.530496	0.694877
	C8949	C	0.700269	0.587580	0.649891
	C8950	C	0.675581	0.531932	0.805771
	C8951	C	0.737076	0.599729	0.848877
	C8952	C	0.641702	0.593671	1.017603
	C8953	C	0.704145	0.531268	0.482301
	C8954	C	0.670895	0.593701	0.983047
	C8955	C	0.733338	0.531273	0.517691
	C8956	C	0.670741	0.531252	0.732607
	C8957	C	0.733254	0.593844	0.767199
	C8958	C	0.641578	0.531182	0.768039
	C8959	C	0.704057	0.593979	0.731570
	C8960	C	0.649079	0.592876	1.008640
	C8961	C	0.711526	0.530222	0.491401
	C8962	C	0.663522	0.594665	0.991770
	C8963	C	0.725951	0.532099	0.508644
	C8964	C	0.663368	0.530517	0.741451
	C8965	C	0.725862	0.592993	0.758214
	C8966	C	0.648938	0.532312	0.759046
	C8967	C	0.711429	0.594971	0.740450
	C8968	C	0.652303	0.595522	0.919662
	C8969	C	0.715820	0.529358	0.911020
	C8970	C	0.660164	0.591917	0.580658
	C8971	C	0.721728	0.533188	0.589006
	C8972	C	0.659307	0.596280	0.911455
	C8973	C	0.722816	0.530220	0.919629
	C8974	C	0.653159	0.591083	0.588757
	C8975	C	0.714743	0.532491	0.580599
	C8976	C	0.659142	0.528850	0.661235
	C8977	C	0.722663	0.595056	0.668977
	C8978	C	0.653182	0.533883	0.839088
	C8979	C	0.714637	0.592832	0.829596
	C8980	C	0.652141	0.529650	0.669935
	C8981	C	0.715661	0.595933	0.660254
	C8982	C	0.660179	0.533257	0.830498
	C8983	C	0.721626	0.592000	0.838405
	N8984	N	0.630764	0.601719	0.979086
	N8985	N	0.693886	0.542146	0.923777
	N8986	N	0.681742	0.585545	0.521569
	N8987	N	0.743633	0.520331	0.576634
	N8988	N	0.681169	0.582325	0.924368
	N8989	N	0.744319	0.523446	0.979869
	N8990	N	0.631322	0.604942	0.576287
	N8991	N	0.693207	0.539311	0.520085
	N8992	N	0.681060	0.541785	0.673726
	N8993	N	0.744215	0.601509	0.728954
	N8994	N	0.631299	0.519696	0.826646
	N8995	N	0.693128	0.585476	0.770165
	N8996	N	0.630618	0.522947	0.729608
	N8997	N	0.693782	0.582306	0.673285
	N8998	N	0.681708	0.538905	0.770891
	N8999	N	0.743552	0.604602	0.826078
	H9000	H	0.637485	0.715284	0.369276
	H9001	H	0.702071	0.663490	0.327055
	H9002	H	0.675012	0.722084	0.131807
	H9003	H	0.735564	0.649837	0.172156
	H9004	H	0.673147	0.712569	0.327455
	H9005	H	0.737617	0.659449	0.368871
	H9006	H	0.639419	0.726062	0.173267
	H9007	H	0.699936	0.652613	0.130917
	H9008	H	0.673109	0.662462	0.077801
	H9009	H	0.737578	0.715256	0.119352
	H9010	H	0.639474	0.649502	0.422867
	H9011	H	0.699921	0.722342	0.380059
	H9012	H	0.637488	0.659223	0.119061
	H9013	H	0.701958	0.711615	0.077051
	H9014	H	0.675069	0.653235	0.381858
	H9015	H	0.735504	0.725527	0.423278
	H9016	H	0.651107	0.714696	0.659438
	H9017	H	0.711785	0.658836	0.644476
	H9018	H	0.663264	0.715583	0.145531
	H9019	H	0.725757	0.654249	-0.145536
	H9020	H	0.663309	0.716490	0.645098
	H9021	H	0.724016	0.660000	0.659125
	H9022	H	0.651048	0.714735	0.160037
	H9023	H	0.713542	0.653052	-0.159794
	H9024	H	0.661486	0.652498	0.090927
	H9025	H	0.725824	0.721470	0.105395
	H9026	H	0.651061	0.659884	0.409898
	H9027	H	0.711727	0.715960	0.394461
	H9028	H	0.649251	0.653574	0.105318
	H9029	H	0.713607	0.722780	0.090367
	H9030	H	0.663282	0.659088	0.395321
	H9031	H	0.723993	0.714761	0.409691
	Co9032	Co	0.750040	0.749858	0.156043
	Co9033	Co	0.687502	0.687286	0.094293
	Co9034	Co	0.624968	0.625291	0.405932
	Co9035	Co	0.687584	0.687687	0.344023
	C9036	C	0.636878	0.719308	0.444343
	C9037	C	0.700436	0.662340	0.400548
	C9038	C	0.675647	0.717857	0.056420
	C9039	C	0.737193	0.650546	0.098976
	C9040	C	0.674738	0.713073	0.401197
	C9041	C	0.738234	0.655426	0.444343
	C9042	C	0.637808	0.725010	0.099450
	C9043	C	0.699330	0.656791	0.055453
	C9044	C	0.674696	0.661909	0.151232
	C9045	C	0.738191	0.719344	0.194584
	C9046	C	0.637870	0.650297	0.349045
	C9047	C	0.699371	0.718062	0.305129
	C9048	C	0.636881	0.655260	0.194054
	C9049	C	0.700375	0.712646	0.150531
	C9050	C	0.675678	0.657287	0.306231
	C9051	C	0.737178	0.724665	0.349655
	C9052	C	0.641684	0.718539	0.517461
	C9053	C	0.704158	0.656282	-0.017784
	C9054	C	0.670926	0.718803	0.482706
	C9055	C	0.733373	0.656453	0.017263
	C9056	C	0.670895	0.656150	0.232986
	C9057	C	0.733393	0.718656	0.268004
	C9058	C	0.641667	0.656095	0.267485
	C9059	C	0.704169	0.718683	0.232133
	C9060	C	0.649092	0.717565	0.508511
	C9061	C	0.711539	0.655441	-0.008863
	C9062	C	0.663525	0.719602	0.491364
	C9063	C	0.725987	0.657363	0.008369
	C9064	C	0.663491	0.655235	0.241820
	C9065	C	0.725987	0.717789	0.258965
	C9066	C	0.649054	0.656972	0.258852
	C9067	C	0.711563	0.719631	0.241154
	C9068	C	0.653320	0.716370	0.588790
	C9069	C	0.714801	0.657564	0.580084
	C9070	C	0.660244	0.717224	0.081063
	C9071	C	0.722770	0.655175	-0.080700
	C9072	C	0.660296	0.717404	0.580512
	C9073	C	0.721786	0.658341	0.588527
	C9074	C	0.653247	0.716566	0.089267
	C9075	C	0.715767	0.654415	-0.089128
	C9076	C	0.659260	0.654053	0.161510
	C9077	C	0.722789	0.720212	0.169701
	C9078	C	0.653272	0.658308	0.339202
	C9079	C	0.714774	0.717229	0.330295
	C9080	C	0.652275	0.654831	0.169769
	C9081	C	0.715810	0.721019	0.161097
	C9082	C	0.660258	0.657559	0.330864
	C9083	C	0.721762	0.716533	0.339047
	N9084	N	0.630747	0.726582	0.478974
	N9085	N	0.693947	0.667438	0.423438
	N9086	N	0.681780	0.710717	0.021607
	N9087	N	0.743656	0.645311	0.076054
	N9088	N	0.681218	0.707885	0.424114
	N9089	N	0.744338	0.647993	0.479274
	N9090	N	0.631343	0.730136	0.076167
	N9091	N	0.693224	0.664354	0.020492
	N9092	N	0.681170	0.667128	0.174166
	N9093	N	0.744320	0.726689	0.229468
	N9094	N	0.631386	0.645180	0.326026
	N9095	N	0.693249	0.710774	0.270567
	N9096	N	0.630747	0.647988	0.228878
	N9097	N	0.693873	0.707606	0.173429
	N9098	N	0.681807	0.664449	0.271537
	N9099	N	0.743667	0.729767	0.326487
	H9100	H	0.637472	0.715792	0.868831
	H9101	H	0.702029	0.663499	0.827293
	H9102	H	0.675080	0.721893	0.631137
	H9103	H	0.735521	0.649126	0.672625
	H9104	H	0.672999	0.712075	0.827965
	H9105	H	0.737554	0.659360	0.868607
	H9106	H	0.639477	0.725407	0.672824
	H9107	H	0.699960	0.652416	0.629560
	H9108	H	0.673058	0.662743	0.577352
	H9109	H	0.737653	0.714951	0.618865
	H9110	H	0.639565	0.649475	0.922312
	H9111	H	0.699994	0.722533	0.880554
	H9112	H	0.637497	0.659475	0.618132
	H9113	H	0.702015	0.711448	0.576958
	H9114	H	0.675035	0.652745	0.881195
	H9115	H	0.735511	0.726289	0.921938
	H9116	H	0.649232	0.722085	0.855618
	H9117	H	0.711726	0.658823	1.144533
	H9118	H	0.661538	0.722489	0.340236
	H9119	H	0.725817	0.653331	0.354536
	H9120	H	0.661468	0.723221	0.841314
	H9121	H	0.723919	0.659855	1.159615
	H9122	H	0.649301	0.721441	0.355223
	H9123	H	0.713612	0.652000	0.340041
	H9124	H	0.661512	0.651386	0.590576
	H9125	H	0.725774	0.720997	0.604324
	H9126	H	0.651076	0.661052	0.909290
	H9127	H	0.711747	0.716464	0.894631
	H9128	H	0.649263	0.652978	0.604761
	H9129	H	0.713578	0.722008	0.589528
	H9130	H	0.663312	0.659670	0.894973
	H9131	H	0.723953	0.715368	0.909182
	Co9132	Co	0.749992	0.750209	0.655744
	Co9133	Co	0.687546	0.687325	0.593975
	Co9134	Co	0.625050	0.625002	0.906245
	Co9135	Co	0.687512	0.687814	0.844196
	C9136	C	0.636842	0.719802	0.944364
	C9137	C	0.700366	0.662591	0.900731
	C9138	C	0.675704	0.717881	0.556112
	C9139	C	0.737197	0.650029	0.599122
	C9140	C	0.674643	0.712818	0.901406
	C9141	C	0.738190	0.655501	0.944026
	C9142	C	0.637885	0.724518	0.599173
	C9143	C	0.699392	0.656781	0.555116
	C9144	C	0.674708	0.661999	0.651027
	C9145	C	0.738213	0.719249	0.694240
	C9146	C	0.637876	0.650430	0.849087
	C9147	C	0.699361	0.718205	0.805156
	C9148	C	0.636863	0.655466	0.693901
	C9149	C	0.700371	0.712651	0.650563
	C9150	C	0.675684	0.657031	0.806189
	C9151	C	0.737160	0.725074	0.848786
	C9152	C	0.641634	0.719083	1.017802
	C9153	C	0.704218	0.656197	0.482174
	C9154	C	0.670842	0.718656	0.983122
	C9155	C	0.733411	0.656152	0.517453
	C9156	C	0.670873	0.656000	0.732660
	C9157	C	0.733365	0.718750	0.767209
	C9158	C	0.641704	0.656320	0.767103
	C9159	C	0.704173	0.718779	0.732074
	C9160	C	0.649021	0.718031	1.009030
	C9161	C	0.711590	0.655199	0.491031
	C9162	C	0.663453	0.719700	0.992094
	C9163	C	0.726013	0.657104	0.508297
	C9164	C	0.663503	0.655036	0.741438
	C9165	C	0.725987	0.717749	0.758198
	C9166	C	0.649076	0.657163	0.758235
	C9167	C	0.711553	0.719726	0.740908
	C9168	C	0.652251	0.720490	0.920024
	C9169	C	0.714755	0.657626	1.080149
	C9170	C	0.659313	0.720740	0.410992
	C9171	C	0.722810	0.654659	0.419072
	C9172	C	0.659236	0.721326	0.911755
	C9173	C	0.721746	0.658482	1.088571
	C9174	C	0.652324	0.720039	0.419586
	C9175	C	0.715822	0.653870	0.410761
	C9176	C	0.659279	0.653543	0.661099
	C9177	C	0.722773	0.719816	0.668927
	C9178	C	0.653291	0.658764	0.838624
	C9179	C	0.714760	0.717592	0.830099
	C9180	C	0.652283	0.654485	0.669314
	C9181	C	0.715784	0.720652	0.660543
	C9182	C	0.660299	0.657918	0.830489
	C9183	C	0.721756	0.716824	0.838428
	N9184	N	0.630708	0.727060	0.978877
	N9185	N	0.693883	0.667674	0.924004
	N9186	N	0.681847	0.710722	0.521361
	N9187	N	0.743672	0.644835	0.576320
	N9188	N	0.681129	0.707836	0.924535
	N9189	N	0.744290	0.648125	0.978625
	N9190	N	0.631392	0.729539	0.576138
	N9191	N	0.693274	0.664225	0.520369
	N9192	N	0.681167	0.667257	0.674234
	N9193	N	0.744316	0.726801	0.729025
	N9194	N	0.631406	0.645249	0.826036
	N9195	N	0.693231	0.710900	0.770681
	N9196	N	0.630754	0.648259	0.728920
	N9197	N	0.693888	0.707613	0.673581
	N9198	N	0.681800	0.664365	0.771507
	N9199	N	0.743635	0.730059	0.826097
	H9200	H	0.637349	0.839962	0.369514
	H9201	H	0.701931	0.787763	0.327146
	H9202	H	0.675088	0.846955	0.130660
	H9203	H	0.735572	0.774324	0.172851
	H9204	H	0.672857	0.836682	0.327410
	H9205	H	0.737495	0.784763	0.368812
	H9206	H	0.639545	0.850992	0.172934
	H9207	H	0.700003	0.777521	0.130126
	H9208	H	0.673002	0.787800	0.078303
	H9209	H	0.737515	0.839902	0.119678
	H9210	H	0.639546	0.774323	0.422560
	H9211	H	0.699867	0.847270	0.380368
	H9212	H	0.637409	0.785126	0.118500
	H9213	H	0.701991	0.836492	0.077194
	H9214	H	0.675008	0.777818	0.381448
	H9215	H	0.735451	0.850647	0.423163
	H9216	H	0.649157	0.846836	0.355589
	H9217	H	0.713474	0.777477	0.340639
	H9218	H	0.663292	0.841290	0.145045
	H9219	H	0.725859	0.778620	-0.144754
	H9220	H	0.661391	0.847819	0.341175
	H9221	H	0.725686	0.778707	0.355034
	H9222	H	0.651078	0.840506	0.159476
	H9223	H	0.713631	0.777345	-0.159485
	H9224	H	0.661407	0.777584	0.090150
	H9225	H	0.725724	0.846647	0.105458
	H9226	H	0.651011	0.785245	0.409657
	H9227	H	0.711661	0.840564	0.394484
	H9228	H	0.649223	0.778896	0.104340
	H9229	H	0.713512	0.848023	0.090623
	H9230	H	0.663208	0.783855	0.395215
	H9231	H	0.723892	0.839454	0.409798
	Co9232	Co	0.749979	0.874632	0.155961
	Co9233	Co	0.687496	0.811935	0.093649
	Co9234	Co	0.625017	0.749786	0.405753
	Co9235	Co	0.687426	0.812482	0.344034
	C9236	C	0.636780	0.844357	0.444842
	C9237	C	0.700304	0.787122	0.400558
	C9238	C	0.675686	0.842675	0.055405
	C9239	C	0.737192	0.775165	0.099211
	C9240	C	0.674569	0.837793	0.401170
	C9241	C	0.738084	0.780554	0.443952
	C9242	C	0.637909	0.849983	0.099096
	C9243	C	0.699378	0.781690	0.055148
	C9244	C	0.674614	0.787020	0.151295
	C9245	C	0.738112	0.844250	0.194494
	C9246	C	0.637843	0.775451	0.349150
	C9247	C	0.699266	0.843070	0.305314
	C9248	C	0.636786	0.780956	0.194103
	C9249	C	0.700332	0.837409	0.150463
	C9250	C	0.675614	0.781867	0.306020
	C9251	C	0.737110	0.849587	0.349435
	C9252	C	0.641599	0.843679	0.518023
	C9253	C	0.704217	0.781213	-0.017881
	C9254	C	0.670773	0.843802	0.482892
	C9255	C	0.733393	0.781419	0.017700
	C9256	C	0.670816	0.781061	0.232814
	C9257	C	0.733300	0.843497	0.267845
	C9258	C	0.641608	0.781762	0.267233
	C9259	C	0.704107	0.843768	0.232297
	C9260	C	0.648960	0.842717	0.509212
	C9261	C	0.711600	0.780368	-0.008597
	C9262	C	0.663377	0.844687	0.492046
	C9263	C	0.726013	0.782349	0.008941
	C9264	C	0.663411	0.780326	0.241496
	C9265	C	0.725914	0.842689	0.258924
	C9266	C	0.648999	0.782629	0.258226
	C9267	C	0.711488	0.844735	0.241336
	C9268	C	0.652173	0.845295	0.420137
	C9269	C	0.715698	0.779056	0.411315
	C9270	C	0.660297	0.842587	0.080342
	C9271	C	0.722823	0.779972	-0.080326
	C9272	C	0.659162	0.846070	0.411850
	C9273	C	0.722677	0.779853	0.419518
	C9274	C	0.653302	0.842041	0.088857
	C9275	C	0.715837	0.779021	-0.088767
	C9276	C	0.659190	0.779257	0.160895
	C9277	C	0.722707	0.845235	0.169873
	C9278	C	0.653202	0.783729	0.338803
	C9279	C	0.714689	0.842173	0.330349
	C9280	C	0.652214	0.780279	0.169124
	C9281	C	0.715714	0.846140	0.161267
	C9282	C	0.660186	0.782650	0.330734
	C9283	C	0.721680	0.841338	0.339108
	N9284	N	0.630678	0.851891	0.479313
	N9285	N	0.693831	0.792529	0.423891
	N9286	N	0.681814	0.835393	0.021066
	N9287	N	0.743676	0.770126	0.076210
	N9288	N	0.681068	0.832806	0.423920
	N9289	N	0.744226	0.773336	0.478729
	N9290	N	0.631396	0.854918	0.076558
	N9291	N	0.693241	0.788843	0.020350
	N9292	N	0.681101	0.792023	0.174087
	N9293	N	0.744233	0.851552	0.229222
	N9294	N	0.631363	0.770129	0.326046
	N9295	N	0.693171	0.835458	0.270187
	N9296	N	0.630680	0.773367	0.229148
	N9297	N	0.693852	0.832196	0.173358
	N9298	N	0.681743	0.789060	0.271193
	N9299	N	0.743583	0.854728	0.326408
	H9300	H	0.637430	0.840022	0.869229
	H9301	H	0.702081	0.788164	0.826999
	H9302	H	0.674979	0.847387	0.631265
	H9303	H	0.735448	0.774502	0.672281
	H9304	H	0.673129	0.836559	0.827439
	H9305	H	0.737601	0.785032	0.869307
	H9306	H	0.639403	0.851111	0.672747
	H9307	H	0.699904	0.778190	0.631290
	H9308	H	0.673033	0.788381	0.576183
	H9309	H	0.737554	0.839909	0.619092
	H9310	H	0.639535	0.774556	0.922838
	H9311	H	0.700002	0.846715	0.881459
	H9312	H	0.637518	0.784743	0.619376
	H9313	H	0.701987	0.837114	0.577315
	H9314	H	0.675107	0.777334	0.879661
	H9315	H	0.735517	0.851083	0.922371
	H9316	H	0.649253	0.846114	0.854756
	H9317	H	0.711765	0.784084	1.144965
	H9318	H	0.663182	0.840768	0.645608
	H9319	H	0.723888	0.784990	0.659735
	H9320	H	0.661449	0.847448	0.840195
	H9321	H	0.723981	0.785054	1.160054
	H9322	H	0.650993	0.839486	0.660121
	H9323	H	0.711646	0.783574	0.644931
	H9324	H	0.661445	0.777186	0.589740
	H9325	H	0.725808	0.846253	0.605008
	H9326	H	0.651109	0.785076	0.909552
	H9327	H	0.711769	0.841180	0.895309
	H9328	H	0.649244	0.778488	0.605089
	H9329	H	0.713607	0.847148	0.590103
	H9330	H	0.663334	0.784068	0.894552
	H9331	H	0.723973	0.839692	0.909750
	Co9332	Co	0.750004	0.874847	0.655745
	Co9333	Co	0.687460	0.812937	0.594048
	Co9334	Co	0.625002	0.750252	0.905640
	Co9335	Co	0.687560	0.812360	0.843837
	C9336	C	0.636860	0.844265	0.944510
	C9337	C	0.700408	0.787173	0.900454
	C9338	C	0.675604	0.843217	0.556055
	C9339	C	0.737080	0.775197	0.598774
	C9340	C	0.674712	0.837628	0.900664
	C9341	C	0.738207	0.780781	0.944557
	C9342	C	0.637808	0.849898	0.599542
	C9343	C	0.699289	0.782116	0.555597
	C9344	C	0.674693	0.787276	0.650164
	C9345	C	0.738181	0.844178	0.694564
	C9346	C	0.637874	0.775495	0.849519
	C9347	C	0.699357	0.842865	0.805834
	C9348	C	0.636895	0.780487	0.694177
	C9349	C	0.700351	0.837932	0.650863
	C9350	C	0.675718	0.781738	0.804971
	C9351	C	0.737159	0.849907	0.849350
	C9352	C	0.641664	0.843955	1.017528
	C9353	C	0.704082	0.781046	0.482305
	C9354	C	0.670898	0.843604	0.982243
	C9355	C	0.733295	0.781176	0.517276
	C9356	C	0.670890	0.781118	0.731690
	C9357	C	0.733347	0.843526	0.767648
	C9358	C	0.641705	0.781301	0.767597
	C9359	C	0.704188	0.843754	0.732601
	C9360	C	0.649065	0.843137	1.008491
	C9361	C	0.711484	0.780079	0.491540
	C9362	C	0.663502	0.844775	0.991263
	C9363	C	0.725902	0.782081	0.508635
	C9364	C	0.663511	0.780110	0.740848
	C9365	C	0.725979	0.842530	0.758630
	C9366	C	0.649086	0.782116	0.758599
	C9367	C	0.711548	0.844588	0.741418
	C9368	C	0.652287	0.845069	0.919099
	C9369	C	0.714786	0.782654	1.080739
	C9370	C	0.660175	0.842214	0.581152
	C9371	C	0.721670	0.783234	0.588930
	C9372	C	0.659261	0.845900	0.910997
	C9373	C	0.721781	0.783514	1.089288
	C9374	C	0.653190	0.841258	0.589388
	C9375	C	0.714687	0.782307	0.580613
	C9376	C	0.659262	0.778919	0.660829
	C9377	C	0.722784	0.844848	0.669504
	C9378	C	0.653326	0.783287	0.838776
	C9379	C	0.714751	0.842329	0.830595
	C9380	C	0.652270	0.779916	0.669312
	C9381	C	0.715782	0.845584	0.661141
	C9382	C	0.660313	0.782485	0.830006
	C9383	C	0.721752	0.841307	0.839020
	N9384	N	0.630731	0.851564	0.979611
	N9385	N	0.693906	0.792030	0.923260
	N9386	N	0.681731	0.835994	0.520824
	N9387	N	0.743580	0.770200	0.575939
	N9388	N	0.681182	0.832419	0.923794
	N9389	N	0.744318	0.773321	0.979069
	N9390	N	0.631337	0.855041	0.576753
	N9391	N	0.693184	0.789662	0.520693
	N9392	N	0.681177	0.792372	0.673213
	N9393	N	0.744280	0.851761	0.729268
	N9394	N	0.631397	0.770446	0.826244
	N9395	N	0.693251	0.835634	0.771222
	N9396	N	0.630768	0.773297	0.729040
	N9397	N	0.693896	0.832740	0.673708
	N9398	N	0.681841	0.789124	0.770402
	N9399	N	0.743626	0.855110	0.826073
	H9400	H	0.637378	0.964630	0.369646
	H9401	H	0.702040	0.913551	0.327445
	H9402	H	0.675167	0.972846	0.130223
	H9403	H	0.735538	0.899119	0.173023
	H9404	H	0.673014	0.961669	0.326591
	H9405	H	0.737548	0.909869	0.369339
	H9406	H	0.639533	0.975996	0.173220
	H9407	H	0.699980	0.903104	0.130789
	H9408	H	0.673055	0.912906	0.077186
	H9409	H	0.737497	0.965090	0.119235
	H9410	H	0.639481	0.899514	0.422845
	H9411	H	0.699911	0.972478	0.380613
	H9412	H	0.637425	0.910083	0.118708
	H9413	H	0.701997	0.961918	0.077192
	H9414	H	0.675037	0.903227	0.381078
	H9415	H	0.735514	0.975622	0.423019
	H9416	H	0.649194	0.971185	0.354976
	H9417	H	0.713500	0.902209	0.341464
	H9418	H	0.663357	0.966131	0.145346
	H9419	H	0.723952	0.910666	0.159517
	H9420	H	0.661425	0.972631	0.340408
	H9421	H	0.725763	0.903310	0.355748
	H9422	H	0.651149	0.965200	0.160511
	H9423	H	0.711731	0.909435	0.144705
	H9424	H	0.661428	0.902926	0.090115
	H9425	H	0.725781	0.971434	0.105489
	H9426	H	0.651080	0.909880	0.410009
	H9427	H	0.711717	0.966213	0.395117
	H9428	H	0.649266	0.903855	0.105071
	H9429	H	0.713554	0.972821	0.090765
	H9430	H	0.663327	0.908582	0.395204
	H9431	H	0.723942	0.964995	0.409636
	Co9432	Co	0.749961	0.999982	0.155870
	Co9433	Co	0.687503	0.937633	0.093653
	Co9434	Co	0.625035	0.875261	0.405892
	Co9435	Co	0.687487	0.937645	0.343457
	C9436	C	0.636792	0.969119	0.444748
	C9437	C	0.700384	0.912526	0.401017
	C9438	C	0.675739	0.968467	0.055215
	C9439	C	0.737192	0.900207	0.099566
	C9440	C	0.674599	0.962800	0.400851
	C9441	C	0.738163	0.905639	0.444392
	C9442	C	0.637899	0.974877	0.100164
	C9443	C	0.699364	0.907115	0.055667
	C9444	C	0.674672	0.912206	0.150366
	C9445	C	0.738144	0.969514	0.194337
	C9446	C	0.637839	0.900342	0.349361
	C9447	C	0.699326	0.968205	0.305717
	C9448	C	0.636839	0.905788	0.194412
	C9449	C	0.700352	0.962909	0.150717
	C9450	C	0.675683	0.907198	0.305611
	C9451	C	0.737168	0.974831	0.349428
	C9452	C	0.641575	0.968673	0.517788
	C9453	C	0.704178	0.906270	-0.017517
	C9454	C	0.670847	0.968719	0.482412
	C9455	C	0.733387	0.906390	0.017785
	C9456	C	0.670873	0.906310	0.232437
	C9457	C	0.733337	0.968879	0.267885
	C9458	C	0.641672	0.906379	0.267878
	C9459	C	0.704151	0.968948	0.232615
	C9460	C	0.649011	0.967634	0.508831
	C9461	C	0.711563	0.905405	-0.008547
	C9462	C	0.663418	0.969529	0.491415
	C9463	C	0.725992	0.907352	0.008845
	C9464	C	0.663491	0.905469	0.241424
	C9465	C	0.725952	0.967985	0.258959
	C9466	C	0.649053	0.907207	0.258994
	C9467	C	0.711524	0.969923	0.241551
	C9468	C	0.652217	0.969945	0.419545
	C9469	C	0.715752	0.903944	0.411929
	C9470	C	0.660319	0.967539	0.081173
	C9471	C	0.721756	0.908807	0.088858
	C9472	C	0.659186	0.970860	0.411056
	C9473	C	0.722743	0.904781	0.420263
	C9474	C	0.653336	0.966671	0.089640
	C9475	C	0.714754	0.907972	0.080525
	C9476	C	0.659243	0.904418	0.161129
	C9477	C	0.722754	0.970308	0.169787
	C9478	C	0.653273	0.908352	0.339136
	C9479	C	0.714727	0.967592	0.330558
	C9480	C	0.652252	0.904990	0.169842
	C9481	C	0.715761	0.971117	0.161357
	C9482	C	0.660279	0.907506	0.330780
	C9483	C	0.721724	0.966801	0.339144
	N9484	N	0.630640	0.976517	0.479640
	N9485	N	0.693884	0.917656	0.423736
	N9486	N	0.681846	0.960957	0.020425
	N9487	N	0.743668	0.895117	0.076550
	N9488	N	0.681103	0.957801	0.423518
	N9489	N	0.744294	0.898268	0.479021
	N9490	N	0.631420	0.979986	0.077088
	N9491	N	0.693234	0.914323	0.020801
	N9492	N	0.681156	0.917346	0.173214
	N9493	N	0.744284	0.976701	0.229125
	N9494	N	0.631359	0.895434	0.326211
	N9495	N	0.693211	0.960885	0.270672
	N9496	N	0.630707	0.898575	0.229043
	N9497	N	0.693866	0.957849	0.173483
	N9498	N	0.681808	0.914384	0.270600
	N9499	N	0.743653	0.979698	0.326235
	H9500	H	0.637526	0.964951	0.870330
	H9501	H	0.702003	0.912827	0.826990
	H9502	H	0.675073	0.972282	0.631017
	H9503	H	0.735507	0.899229	0.672983
	H9504	H	0.672997	0.961508	0.828025
	H9505	H	0.737573	0.909959	0.869270
	H9506	H	0.639497	0.976156	0.673398
	H9507	H	0.699884	0.903045	0.631183
	H9508	H	0.673030	0.913168	0.577020
	H9509	H	0.737575	0.964672	0.619644
	H9510	H	0.639558	0.898583	0.922171
	H9511	H	0.699990	0.971972	0.880599
	H9512	H	0.637364	0.910559	0.619670
	H9513	H	0.701960	0.962019	0.577351
	H9514	H	0.675091	0.902633	0.880813
	H9515	H	0.735447	0.976213	0.921919
	H9516	H	0.649250	0.971450	0.856011
	H9517	H	0.713596	0.901940	0.840671
	H9518	H	0.663277	0.965903	0.644998
	H9519	H	0.723937	0.910228	0.660150
	H9520	H	0.661480	0.972695	0.840916
	H9521	H	0.725850	0.903138	0.855848
	H9522	H	0.651026	0.964814	0.659923
	H9523	H	0.711701	0.909273	0.645170
	H9524	H	0.661471	0.902137	0.590143
	H9525	H	0.725736	0.971458	0.604795
	H9526	H	0.651029	0.910268	0.909049
	H9527	H	0.711695	0.965770	0.894492
	H9528	H	0.649227	0.903577	0.604329
	H9529	H	0.713567	0.972749	0.590212
	H9530	H	0.663246	0.909082	0.894242
	H9531	H	0.723929	0.964469	0.909443
	Co9532	Co	0.750024	0.999569	0.656026
	Co9533	Co	0.687475	0.937800	0.593872
	Co9534	Co	0.625002	0.874485	0.905933
	Co9535	Co	0.687508	0.937253	0.843556
	C9536	C	0.636889	0.969301	0.945435
	C9537	C	0.700378	0.911990	0.900647
	C9538	C	0.675615	0.968108	0.555577
	C9539	C	0.737163	0.900366	0.599352
	C9540	C	0.674653	0.962605	0.900844
	C9541	C	0.738218	0.905789	0.944659
	C9542	C	0.637845	0.974895	0.599447
	C9543	C	0.699336	0.907326	0.555753
	C9544	C	0.674644	0.912158	0.650840
	C9545	C	0.738193	0.969133	0.694687
	C9546	C	0.637878	0.899785	0.848722
	C9547	C	0.699332	0.968032	0.805456
	C9548	C	0.636782	0.905971	0.694348
	C9549	C	0.700326	0.962980	0.650808
	C9550	C	0.675644	0.906807	0.805507
	C9551	C	0.737135	0.975042	0.849238
	C9552	C	0.641706	0.968690	1.018691
	C9553	C	0.704141	0.906535	0.482906
	C9554	C	0.670899	0.968978	0.982496
	C9555	C	0.733371	0.906380	0.517843
	C9556	C	0.670854	0.906053	0.732325
	C9557	C	0.733335	0.968646	0.767681
	C9558	C	0.641615	0.906348	0.767209
	C9559	C	0.704142	0.968898	0.732479
	C9560	C	0.649096	0.967820	1.009520
	C9561	C	0.711536	0.905467	0.492137
	C9562	C	0.663514	0.969905	0.991846
	C9563	C	0.725962	0.907258	0.509269
	C9564	C	0.663458	0.905230	0.741028
	C9565	C	0.725965	0.967717	0.758623
	C9566	C	0.649022	0.907280	0.757930
	C9567	C	0.711521	0.969712	0.741234
	C9568	C	0.652285	0.970125	0.920355
	C9569	C	0.715807	0.903822	0.911287
	C9570	C	0.660204	0.967258	0.580858
	C9571	C	0.721740	0.908482	0.589324
	C9572	C	0.659269	0.971081	0.911705
	C9573	C	0.722805	0.904644	0.919877
	C9574	C	0.653241	0.966455	0.589211
	C9575	C	0.714764	0.907804	0.581049
	C9576	C	0.659238	0.903962	0.660690
	C9577	C	0.722757	0.970207	0.669579
	C9578	C	0.653245	0.908539	0.838243
	C9579	C	0.714735	0.967217	0.830315
	C9580	C	0.652246	0.904851	0.668879
	C9581	C	0.715765	0.971125	0.660996
	C9582	C	0.660225	0.907670	0.829907
	C9583	C	0.721742	0.966365	0.838664
	N9584	N	0.630764	0.976720	0.979965
	N9585	N	0.693885	0.917091	0.923479
	N9586	N	0.681761	0.960934	0.520711
	N9587	N	0.743641	0.895170	0.576321
	N9588	N	0.681149	0.957553	0.923391
	N9589	N	0.744324	0.898335	0.979434
	N9590	N	0.631328	0.979939	0.576654
	N9591	N	0.693211	0.914612	0.520571
	N9592	N	0.681138	0.917269	0.673525
	N9593	N	0.744305	0.976553	0.729572
	N9594	N	0.631373	0.894874	0.826245
	N9595	N	0.693217	0.960601	0.770783
	N9596	N	0.630667	0.898459	0.729355
	N9597	N	0.693859	0.957766	0.673677
	N9598	N	0.681774	0.914100	0.770744
	N9599	N	0.743610	0.979981	0.826529
	H9600	H	0.762506	0.090187	0.369412
	H9601	H	0.827124	0.038612	0.327534
	H9602	H	0.799982	0.096847	0.131534
	H9603	H	0.860414	0.023850	0.172835
	H9604	H	0.798094	0.087441	0.328258
	H9605	H	0.862675	0.035231	0.370598
	H9606	H	0.764448	0.100565	0.172564
	H9607	H	0.824871	0.027629	0.130605
	H9608	H	0.798027	0.038034	0.077682
	H9609	H	0.862613	0.090186	0.120106
	H9610	H	0.764505	0.024373	0.422760
	H9611	H	0.824977	0.097621	0.380519
	H9612	H	0.762464	0.034919	0.118969
	H9613	H	0.827062	0.086464	0.077171
	H9614	H	0.800045	0.028199	0.381636
	H9615	H	0.860535	0.100979	0.422802
	H9616	H	0.776110	0.090259	0.659957
	H9617	H	0.838615	0.027387	0.340672
	H9618	H	0.788228	0.091009	0.145212
	H9619	H	0.850780	0.028670	-0.144965
	H9620	H	0.788313	0.091647	0.645479
	H9621	H	0.850864	0.028728	0.355906
	H9622	H	0.775996	0.089933	0.159671
	H9623	H	0.838536	0.027529	-0.159764
	H9624	H	0.786487	0.027534	0.091072
	H9625	H	0.848963	0.089679	0.409631
	H9626	H	0.776075	0.034828	0.409682
	H9627	H	0.838659	0.097387	0.090305
	H9628	H	0.774259	0.028778	0.105123
	H9629	H	0.836775	0.091273	0.394653
	H9630	H	0.788283	0.033741	0.395117
	H9631	H	0.850880	0.096062	0.105471
	Co9632	Co	0.875025	0.125415	0.156919
	Co9633	Co	0.812483	0.062449	0.093926
	Co9634	Co	0.750050	-0.000268	0.405790
	Co9635	Co	0.812534	0.062662	0.344041
	C9636	C	0.761901	0.094437	0.444652
	C9637	C	0.825431	0.037523	0.400933
	C9638	C	0.800618	0.092896	0.056069
	C9639	C	0.862114	0.024939	0.099632
	C9640	C	0.799697	0.087861	0.401414
	C9641	C	0.863253	0.030933	0.445445
	C9642	C	0.762782	0.099754	0.099271
	C9643	C	0.824312	0.031869	0.055418
	C9644	C	0.799661	0.037111	0.151117
	C9645	C	0.863245	0.094523	0.194986
	C9646	C	0.762857	0.025335	0.349266
	C9647	C	0.824361	0.093385	0.305236
	C9648	C	0.761863	0.030551	0.194327
	C9649	C	0.825405	0.087527	0.150592
	C9650	C	0.800666	0.032245	0.306099
	C9651	C	0.862203	0.099911	0.349628
	C9652	C	0.766694	0.093772	0.517859
	C9653	C	0.829144	0.031227	-0.017619
	C9654	C	0.795907	0.093708	0.483166
	C9655	C	0.858349	0.031171	0.017940
	C9656	C	0.795858	0.031242	0.232950
	C9657	C	0.858410	0.093754	0.268008
	C9658	C	0.766670	0.031403	0.267589
	C9659	C	0.829208	0.093861	0.232210
	C9660	C	0.774089	0.092904	0.508975
	C9661	C	0.836525	0.030206	-0.008562
	C9662	C	0.788520	0.094777	0.491925
	C9663	C	0.850955	0.032074	0.008763
	C9664	C	0.788469	0.030205	0.241921
	C9665	C	0.851023	0.092657	0.258791
	C9666	C	0.774047	0.032247	0.258755
	C9667	C	0.836587	0.094691	0.241120
	C9668	C	0.778317	0.091878	0.589213
	C9669	C	0.840833	0.029171	0.411398
	C9670	C	0.785199	0.092278	0.080778
	C9671	C	0.847750	0.029921	-0.080489
	C9672	C	0.785304	0.092626	0.581041
	C9673	C	0.847824	0.030059	0.420141
	C9674	C	0.778200	0.091420	0.088918
	C9675	C	0.840755	0.028947	-0.088897
	C9676	C	0.784250	0.029058	0.161520
	C9677	C	0.846770	0.091467	0.338864
	C9678	C	0.778270	0.033328	0.338856
	C9679	C	0.840836	0.095821	0.161126
	C9680	C	0.777257	0.030029	0.169726
	C9681	C	0.839776	0.092319	0.330195
	C9682	C	0.785262	0.032448	0.330875
	C9683	C	0.847831	0.094996	0.169702
	N9684	N	0.755760	0.101674	0.479214
	N9685	N	0.818918	0.042397	0.423613
	N9686	N	0.806754	0.085720	0.021277
	N9687	N	0.868608	0.019990	0.077078
	N9688	N	0.806175	0.082653	0.424206
	N9689	N	0.869344	0.023382	0.480171
	N9690	N	0.756309	0.104958	0.076173
	N9691	N	0.818205	0.039254	0.020560
	N9692	N	0.806145	0.042262	0.173990
	N9693	N	0.869357	0.101958	0.229712
	N9694	N	0.756389	0.020108	0.326128
	N9695	N	0.818264	0.085702	0.270391
	N9696	N	0.755749	0.023067	0.228865
	N9697	N	0.818937	0.082362	0.173489
	N9698	N	0.806781	0.039485	0.271173
	N9699	N	0.868676	0.105133	0.326706
	H9700	H	0.762419	0.090608	0.869184
	H9701	H	0.827033	0.038515	0.827147
	H9702	H	0.800078	0.096378	0.632113
	H9703	H	0.860501	0.024029	0.673403
	H9704	H	0.797976	0.087073	0.827413
	H9705	H	0.862606	0.035068	0.869576
	H9706	H	0.764487	0.100559	0.673437
	H9707	H	0.824990	0.027310	0.630884
	H9708	H	0.798116	0.037074	0.578247
	H9709	H	0.862514	0.090039	0.619942
	H9710	H	0.764544	0.024309	0.922394
	H9711	H	0.824879	0.097730	0.880020
	H9712	H	0.762420	0.034576	0.618932
	H9713	H	0.827015	0.086459	0.577037
	H9714	H	0.800003	0.028479	0.882300
	H9715	H	0.860458	0.100942	0.923751
	H9716	H	0.774228	0.096564	0.855046
	H9717	H	0.836702	0.033614	1.145131
	H9718	H	0.786528	0.097491	0.341341
	H9719	H	0.848988	0.035372	0.660492
	H9720	H	0.786412	0.097406	0.840695
	H9721	H	0.848924	0.034366	1.159988
	H9722	H	0.774267	0.096015	0.355740
	H9723	H	0.836746	0.034269	0.645073
	H9724	H	0.788248	0.033885	0.895269
	H9725	H	0.850782	0.096617	0.606426
	H9726	H	0.774259	0.028781	0.605121
	H9727	H	0.836667	0.091045	0.894785
	H9728	H	0.776020	0.034993	0.909703
	H9729	H	0.838550	0.097840	0.590914
	H9730	H	0.786476	0.027629	0.590799
	H9731	H	0.848885	0.089897	0.910180
	Co9732	Co	0.875001	0.124691	0.657123
	Co9733	Co	0.812542	0.061947	0.594215
	Co9734	Co	0.749978	0.000151	0.906313
	Co9735	Co	0.812501	0.062754	0.844054
	C9736	C	0.761773	0.094685	0.944371
	C9737	C	0.825361	0.037424	0.900616
	C9738	C	0.800694	0.092572	0.556651
	C9739	C	0.862182	0.025190	0.600151
	C9740	C	0.799621	0.087894	0.901343
	C9741	C	0.863190	0.030679	0.945072
	C9742	C	0.762887	0.099725	0.599521
	C9743	C	0.824379	0.031658	0.555529
	C9744	C	0.799720	0.036571	0.651776
	C9745	C	0.863134	0.094332	0.695236
	C9746	C	0.762870	0.025181	0.848921
	C9747	C	0.824295	0.093398	0.805196
	C9748	C	0.761831	0.030547	0.694220
	C9749	C	0.825365	0.087536	0.650733
	C9750	C	0.800661	0.032161	0.806922
	C9751	C	0.862112	0.099733	0.850326
	C9752	C	0.766617	0.093748	1.017483
	C9753	C	0.829209	0.031289	0.482490
	C9754	C	0.795790	0.093635	0.982864
	C9755	C	0.858403	0.031519	0.518508
	C9756	C	0.795869	0.030940	0.733414
	C9757	C	0.858325	0.093759	0.768410
	C9758	C	0.766655	0.031265	0.767298
	C9759	C	0.829123	0.093868	0.732254
	C9760	C	0.773990	0.092771	1.008608
	C9761	C	0.836594	0.030398	0.491627
	C9762	C	0.788424	0.094516	0.991794
	C9763	C	0.851014	0.032387	0.509370
	C9764	C	0.788469	0.030111	0.741852
	C9765	C	0.850932	0.092887	0.759410
	C9766	C	0.774019	0.032259	0.758516
	C9767	C	0.836517	0.094873	0.741498
	C9768	C	0.777201	0.095105	0.919819
	C9769	C	0.839733	0.032337	1.080626
	C9770	C	0.784303	0.095921	0.411759
	C9771	C	0.846788	0.033636	0.589584
	C9772	C	0.784204	0.095812	0.911490
	C9773	C	0.846723	0.033087	1.089033
	C9774	C	0.777307	0.095103	0.420078
	C9775	C	0.839799	0.032810	0.581018
	C9776	C	0.785226	0.032517	0.830724
	C9777	C	0.847735	0.095272	0.670398
	C9778	C	0.777263	0.030079	0.669602
	C9779	C	0.839713	0.092421	0.830701
	C9780	C	0.778227	0.033465	0.838951
	C9781	C	0.840751	0.096114	0.661508
	C9782	C	0.784253	0.029086	0.661467
	C9783	C	0.846691	0.091623	0.839476
	N9784	N	0.755668	0.102067	0.979018
	N9785	N	0.818866	0.042469	0.923453
	N9786	N	0.806812	0.085272	0.521618
	N9787	N	0.868660	0.020066	0.577095
	N9788	N	0.806100	0.082813	0.924040
	N9789	N	0.869305	0.023313	0.980058
	N9790	N	0.756399	0.104740	0.576433
	N9791	N	0.818251	0.038979	0.520640
	N9792	N	0.806186	0.041862	0.674820
	N9793	N	0.869278	0.101554	0.730238
	N9794	N	0.756380	0.020075	0.826165
	N9795	N	0.818185	0.085911	0.770257
	N9796	N	0.755722	0.023081	0.728932
	N9797	N	0.818873	0.082549	0.673348
	N9798	N	0.806782	0.039352	0.772060
	N9799	N	0.868615	0.104704	0.827286
	H9800	H	0.762458	0.214850	0.369197
	H9801	H	0.827049	0.163425	0.327553
	H9802	H	0.799970	0.222039	0.131542
	H9803	H	0.860518	0.149428	0.173883
	H9804	H	0.797962	0.212131	0.326974
	H9805	H	0.862635	0.160033	0.370855
	H9806	H	0.764416	0.225426	0.172665
	H9807	H	0.824836	0.152277	0.130443
	H9808	H	0.798042	0.162914	0.077022
	H9809	H	0.862523	0.215563	0.119427
	H9810	H	0.764492	0.149104	0.422822
	H9811	H	0.824918	0.222558	0.380820
	H9812	H	0.762452	0.159928	0.119274
	H9813	H	0.826993	0.211455	0.077343
	H9814	H	0.800079	0.153153	0.381701
	H9815	H	0.860476	0.225388	0.423049
	H9816	H	0.776076	0.214549	0.660364
	H9817	H	0.836742	0.159087	0.645347
	H9818	H	0.788215	0.216131	0.145248
	H9819	H	0.848881	0.160307	0.159980
	H9820	H	0.788292	0.215686	0.645623
	H9821	H	0.848934	0.160143	0.660589
	H9822	H	0.775979	0.214968	0.159827
	H9823	H	0.836668	0.158792	0.145390
	H9824	H	0.786430	0.152851	0.090585
	H9825	H	0.850775	0.221399	0.105020
	H9826	H	0.776024	0.160074	0.409636
	H9827	H	0.836736	0.216038	0.395367
	H9828	H	0.774210	0.153734	0.105670
	H9829	H	0.838558	0.222560	0.090550
	H9830	H	0.788213	0.158978	0.395306
	H9831	H	0.848940	0.214677	0.409743
	Co9832	Co	0.874989	0.250315	0.156725
	Co9833	Co	0.812477	0.187509	0.094107
	Co9834	Co	0.750006	0.124804	0.406332
	Co9835	Co	0.812537	0.187476	0.344090
	C9836	C	0.761860	0.219115	0.444422
	C9837	C	0.825402	0.162369	0.401133
	C9838	C	0.800615	0.218018	0.056713
	C9839	C	0.862114	0.150296	0.099479
	C9840	C	0.799680	0.212858	0.400858
	C9841	C	0.863195	0.155554	0.445866
	C9842	C	0.762807	0.224811	0.099339
	C9843	C	0.824251	0.156704	0.055241
	C9844	C	0.799660	0.162031	0.151117
	C9845	C	0.863150	0.219670	0.194620
	C9846	C	0.762845	0.150257	0.349374
	C9847	C	0.824336	0.218256	0.305761
	C9848	C	0.761824	0.155581	0.194597
	C9849	C	0.825374	0.212448	0.151031
	C9850	C	0.800645	0.157232	0.306094
	C9851	C	0.862144	0.224705	0.350007
	C9852	C	0.766695	0.218623	0.517636
	C9853	C	0.829072	0.156233	-0.017581
	C9854	C	0.795880	0.218830	0.482912
	C9855	C	0.858312	0.156279	0.018071
	C9856	C	0.795849	0.156271	0.232805
	C9857	C	0.858339	0.218675	0.267972
	C9858	C	0.766614	0.156302	0.267785
	C9859	C	0.829164	0.218769	0.232644
	C9860	C	0.774060	0.217693	0.509144
	C9861	C	0.836477	0.155280	-0.008100
	C9862	C	0.788499	0.219758	0.492042
	C9863	C	0.850909	0.157093	0.009189
	C9864	C	0.788460	0.155465	0.241624
	C9865	C	0.850960	0.217703	0.258769
	C9866	C	0.774032	0.157332	0.258932
	C9867	C	0.836532	0.219687	0.241680
	C9868	C	0.778280	0.216333	0.589502
	C9869	C	0.839767	0.157772	0.580882
	C9870	C	0.785187	0.217398	0.081019
	C9871	C	0.846670	0.158523	0.089306
	C9872	C	0.785279	0.217131	0.581080
	C9873	C	0.846750	0.158573	0.589730
	C9874	C	0.778191	0.216672	0.088955
	C9875	C	0.839692	0.157671	0.081025
	C9876	C	0.784232	0.154344	0.161446
	C9877	C	0.847767	0.220011	0.169610
	C9878	C	0.778256	0.158431	0.339073
	C9879	C	0.839744	0.217231	0.330694
	C9880	C	0.777248	0.155147	0.169733
	C9881	C	0.840766	0.220866	0.161297
	C9882	C	0.785230	0.157538	0.330731
	C9883	C	0.846736	0.216299	0.338963
	N9884	N	0.755753	0.226572	0.479127
	N9885	N	0.818923	0.167375	0.424145
	N9886	N	0.806743	0.210876	0.021664
	N9887	N	0.868599	0.145300	0.076823
	N9888	N	0.806178	0.207761	0.423728
	N9889	N	0.869311	0.148134	0.480417
	N9890	N	0.756325	0.229809	0.076566
	N9891	N	0.818142	0.164278	0.020378
	N9892	N	0.806145	0.167164	0.173843
	N9893	N	0.869252	0.227078	0.229848
	N9894	N	0.756344	0.145129	0.326386
	N9895	N	0.818229	0.210800	0.271120
	N9896	N	0.755697	0.148175	0.229538
	N9897	N	0.818889	0.207506	0.173892
	N9898	N	0.806778	0.164332	0.271353
	N9899	N	0.868608	0.229962	0.327019
	H9900	H	0.762384	0.215566	0.869312
	H9901	H	0.827015	0.163832	0.827306
	H9902	H	0.800096	0.222163	0.631559
	H9903	H	0.860555	0.148950	0.673265
	H9904	H	0.797974	0.212306	0.828662
	H9905	H	0.862532	0.159870	0.869890
	H9906	H	0.764532	0.226031	0.672629
	H9907	H	0.825020	0.153003	0.631356
	H9908	H	0.798031	0.162943	0.578170
	H9909	H	0.862523	0.215436	0.619336
	H9910	H	0.764465	0.149525	0.922684
	H9911	H	0.824915	0.222565	0.880879
	H9912	H	0.762454	0.159451	0.618880
	H9913	H	0.826928	0.211838	0.577258
	H9914	H	0.800057	0.152829	0.881583
	H9915	H	0.860456	0.225811	0.922919
	H9916	H	0.774223	0.221202	0.854860
	H9917	H	0.838493	0.152446	0.840910
	H9918	H	0.786495	0.223057	0.340870
	H9919	H	0.850835	0.153277	0.356058
	H9920	H	0.786423	0.222362	0.840829
	H9921	H	0.850734	0.153408	0.855630
	H9922	H	0.774263	0.221668	0.355346
	H9923	H	0.838604	0.152498	0.340673
	H9924	H	0.788271	0.158961	0.895461
	H9925	H	0.850713	0.221988	0.605113
	H9926	H	0.774274	0.153604	0.605373
	H9927	H	0.836682	0.215990	0.894783
	H9928	H	0.776057	0.160418	0.909625
	H9929	H	0.838530	0.223335	0.590625
	H9930	H	0.786473	0.152270	0.591224
	H9931	H	0.848899	0.215105	0.910083
	Co9932	Co	0.874969	0.249870	0.656888
	Co9933	Co	0.812524	0.187349	0.594219
	Co9934	Co	0.749980	0.125416	0.906290
	Co9935	Co	0.812453	0.187878	0.844120
	C9936	C	0.761815	0.219717	0.944544
	C9937	C	0.825323	0.162621	0.900633
	C9938	C	0.800725	0.217973	0.556015
	C9939	C	0.862157	0.150031	0.600381
	C9940	C	0.799615	0.213020	0.901617
	C9941	C	0.863114	0.155474	0.944844
	C9942	C	0.762885	0.224870	0.599085
	C9943	C	0.824409	0.157047	0.556157
	C9944	C	0.799658	0.162063	0.651187
	C9945	C	0.863110	0.219540	0.694548
	C9946	C	0.762840	0.150434	0.849101
	C9947	C	0.824312	0.218291	0.805495
	C9948	C	0.761836	0.155430	0.694084
	C9949	C	0.825319	0.212981	0.650652
	C9950	C	0.800673	0.156935	0.806276
	C9951	C	0.862106	0.224786	0.849498
	C9952	C	0.766628	0.218932	1.017651
	C9953	C	0.829206	0.156485	0.482813
	C9954	C	0.795806	0.218841	0.983464
	C9955	C	0.858379	0.156220	0.518743
	C9956	C	0.795863	0.156042	0.733013
	C9957	C	0.858309	0.218846	0.767878
	C9958	C	0.766642	0.156307	0.767331
	C9959	C	0.829119	0.218988	0.732413
	C9960	C	0.773974	0.217881	1.008705
	C9961	C	0.836590	0.155493	0.491621
	C9962	C	0.788405	0.219634	0.992109
	C9963	C	0.850994	0.157158	0.509655
	C9964	C	0.788476	0.155203	0.742050
	C9965	C	0.850930	0.218059	0.759013
	C9966	C	0.774039	0.157337	0.758691
	C9967	C	0.836508	0.219960	0.741457
	C9968	C	0.777202	0.220047	0.919737
	C9969	C	0.840710	0.154129	0.911662
	C9970	C	0.784280	0.221192	0.411576
	C9971	C	0.847794	0.154804	0.420326
	C9972	C	0.784193	0.220829	0.911536
	C9973	C	0.847706	0.154828	0.920034
	C9974	C	0.777274	0.220251	0.419921
	C9975	C	0.840819	0.154153	0.411550
	C9976	C	0.785257	0.157642	0.831077
	C9977	C	0.847721	0.220499	0.669775
	C9978	C	0.777266	0.154939	0.669865
	C9979	C	0.839714	0.217466	0.830589
	C9980	C	0.778265	0.158616	0.839038
	C9981	C	0.840739	0.221329	0.661272
	C9982	C	0.784255	0.154094	0.661805
	C9983	C	0.846704	0.216743	0.839283
	N9984	N	0.755687	0.226904	0.979115
	N9985	N	0.818830	0.167678	0.923407
	N9986	N	0.806836	0.210718	0.520933
	N9987	N	0.868644	0.144952	0.577662
	N9988	N	0.806109	0.208055	0.924477
	N9989	N	0.869255	0.148285	0.979663
	N9990	N	0.756421	0.229819	0.576314
	N9991	N	0.818276	0.164280	0.521312
	N9992	N	0.806124	0.167332	0.674210
	N9993	N	0.869240	0.226710	0.729403
	N9994	N	0.756358	0.145254	0.826101
	N9995	N	0.818195	0.210971	0.770835
	N9996	N	0.755713	0.148138	0.728862
	N9997	N	0.818840	0.207890	0.673603
	N9998	N	0.806788	0.164407	0.771284
	N9999	N	0.868592	0.229801	0.826766
	H10000	H	0.762400	0.340039	0.369883
	H10001	H	0.827038	0.287938	0.327447
	H10002	H	0.800027	0.347336	0.130854
	H10003	H	0.860504	0.274532	0.173384
	H10004	H	0.797976	0.336758	0.327503
	H10005	H	0.862605	0.285249	0.370772
	H10006	H	0.764509	0.350328	0.173115
	H10007	H	0.824942	0.278057	0.131146
	H10008	H	0.798009	0.288344	0.077120
	H10009	H	0.862556	0.340384	0.119943
	H10010	H	0.764566	0.274072	0.423143
	H10011	H	0.824939	0.346919	0.381426
	H10012	H	0.762467	0.284829	0.119451
	H10013	H	0.826973	0.337132	0.077458
	H10014	H	0.800074	0.277960	0.380325
	H10015	H	0.860541	0.351098	0.423159
	H10016	H	0.774237	0.347120	0.355590
	H10017	H	0.836748	0.284715	0.645064
	H10018	H	0.786423	0.347427	-0.159647
	H10019	H	0.850834	0.278586	-0.143871
	H10020	H	0.786452	0.348166	0.340883
	H10021	H	0.848984	0.285455	0.660109
	H10022	H	0.774198	0.346064	-0.144819
	H10023	H	0.838550	0.277230	-0.159128
	H10024	H	0.786460	0.276930	0.090419
	H10025	H	0.850793	0.346766	0.105854
	H10026	H	0.776085	0.285944	0.409893
	H10027	H	0.836721	0.340884	0.395486
	H10028	H	0.774215	0.278023	0.105367
	H10029	H	0.838554	0.348100	0.091082
	H10030	H	0.788308	0.284620	0.394975
	H10031	H	0.848953	0.339955	0.410639
	Co10032	Co	0.874978	0.375498	0.157106
	Co10033	Co	0.812517	0.312754	0.094061
	Co10034	Co	0.750023	0.249816	0.406171
	Co10035	Co	0.812520	0.312367	0.343811
	C10036	C	0.761836	0.344295	0.444807
	C10037	C	0.825400	0.287288	0.400824
	C10038	C	0.800654	0.343054	0.055608
	C10039	C	0.862162	0.275548	0.100173
	C10040	C	0.799643	0.337591	0.400950
	C10041	C	0.863205	0.280807	0.445624
	C10042	C	0.762840	0.349588	0.099898
	C10043	C	0.824357	0.282200	0.056014
	C10044	C	0.799657	0.287424	0.150546
	C10045	C	0.863176	0.344695	0.195178
	C10046	C	0.762903	0.275034	0.349741
	C10047	C	0.824365	0.342989	0.306089
	C10048	C	0.761863	0.280557	0.194495
	C10049	C	0.825375	0.338025	0.150975
	C10050	C	0.800671	0.282112	0.305473
	C10051	C	0.862162	0.350063	0.350034
	C10052	C	0.766680	0.343784	0.517774
	C10053	C	0.829163	0.281392	-0.017186
	C10054	C	0.795857	0.343764	0.482566
	C10055	C	0.858377	0.281529	0.018315
	C10056	C	0.795854	0.281402	0.232176
	C10057	C	0.858369	0.343986	0.268309
	C10058	C	0.766677	0.281295	0.267905
	C10059	C	0.829162	0.343850	0.232890
	C10060	C	0.774052	0.342923	0.508980
	C10061	C	0.836552	0.280362	-0.008186
	C10062	C	0.788471	0.344706	0.491758
	C10063	C	0.850962	0.282392	0.009283
	C10064	C	0.788468	0.280500	0.241382
	C10065	C	0.850959	0.343014	0.259401
	C10066	C	0.774060	0.282295	0.258847
	C10067	C	0.836539	0.344775	0.241817
	C10068	C	0.777258	0.345558	0.419964
	C10069	C	0.839771	0.283079	0.580875
	C10070	C	0.784226	0.345850	-0.088715
	C10071	C	0.847766	0.279960	-0.079918
	C10072	C	0.784244	0.346329	0.411561
	C10073	C	0.846759	0.283831	0.589486
	C10074	C	0.777219	0.344952	-0.080229
	C10075	C	0.840776	0.279121	-0.088428
	C10076	C	0.784236	0.278863	0.161103
	C10077	C	0.847746	0.345495	0.170252
	C10078	C	0.778285	0.283887	0.339075
	C10079	C	0.839749	0.342307	0.331116
	C10080	C	0.777255	0.279536	0.169719
	C10081	C	0.840769	0.346274	0.161661
	C10082	C	0.785272	0.283107	0.330617
	C10083	C	0.846739	0.341667	0.339759
	N10084	N	0.755703	0.351526	0.479889
	N10085	N	0.818911	0.292341	0.423797
	N10086	N	0.806763	0.335806	0.020888
	N10087	N	0.868644	0.270373	0.076657
	N10088	N	0.806138	0.332588	0.423380
	N10089	N	0.869321	0.273395	0.480194
	N10090	N	0.756384	0.354925	0.077148
	N10091	N	0.818241	0.289592	0.021129
	N10092	N	0.806144	0.292446	0.173498
	N10093	N	0.869293	0.352057	0.229770
	N10094	N	0.756404	0.269933	0.326608
	N10095	N	0.818222	0.335776	0.270948
	N10096	N	0.755749	0.273099	0.229591
	N10097	N	0.818880	0.332926	0.173605
	N10098	N	0.806790	0.289311	0.270604
	N10099	N	0.868640	0.355173	0.327045
	H10100	H	0.762447	0.340280	0.869456
	H10101	H	0.827005	0.288433	0.827638
	H10102	H	0.800068	0.347286	0.630590
	H10103	H	0.860507	0.274214	0.673672
	H10104	H	0.797945	0.336430	0.827480
	H10105	H	0.862526	0.284767	0.869424
	H10106	H	0.764546	0.351121	0.672951
	H10107	H	0.825005	0.278139	0.631588
	H10108	H	0.798018	0.288367	0.577349
	H10109	H	0.862578	0.340251	0.619841
	H10110	H	0.764561	0.274294	0.922720
	H10111	H	0.824922	0.347272	0.881425
	H10112	H	0.762528	0.284799	0.618915
	H10113	H	0.826973	0.337138	0.577669
	H10114	H	0.800159	0.277169	0.881101
	H10115	H	0.860471	0.350693	0.924416
	H10116	H	0.776056	0.339856	1.160060
	H10117	H	0.836736	0.284040	1.145587
	H10118	H	0.788294	0.340440	0.645070
	H10119	H	0.850878	0.278657	0.356423
	H10120	H	0.788253	0.341091	1.145285
	H10121	H	0.848969	0.285336	1.160203
	H10122	H	0.776049	0.339531	0.659838
	H10123	H	0.838629	0.277404	0.341195
	H10124	H	0.788361	0.283635	0.895333
	H10125	H	0.850777	0.346813	0.605459
	H10126	H	0.774275	0.278416	0.605474
	H10127	H	0.836724	0.340850	0.895120
	H10128	H	0.776128	0.284750	0.909930
	H10129	H	0.838551	0.348028	0.591036
	H10130	H	0.786485	0.277365	0.590158
	H10131	H	0.848936	0.339384	0.909656
	Co10132	Co	0.875004	0.375155	0.657146
	Co10133	Co	0.812547	0.312603	0.593970
	Co10134	Co	0.750012	0.250281	0.906164
	Co10135	Co	0.812487	0.312709	0.843772
	C10136	C	0.761821	0.344501	0.944864
	C10137	C	0.825367	0.287455	0.901087
	C10138	C	0.800695	0.343064	0.555455
	C10139	C	0.862165	0.275293	0.600304
	C10140	C	0.799619	0.337615	0.900783
	C10141	C	0.863182	0.280676	0.944879
	C10142	C	0.762889	0.349963	0.599301
	C10143	C	0.824389	0.282188	0.556107
	C10144	C	0.799698	0.287171	0.650530
	C10145	C	0.863148	0.344562	0.695225
	C10146	C	0.762883	0.275319	0.849409
	C10147	C	0.824333	0.343330	0.805844
	C10148	C	0.761882	0.280684	0.694483
	C10149	C	0.825354	0.338091	0.651096
	C10150	C	0.800750	0.281588	0.805444
	C10151	C	0.862111	0.349805	0.850273
	C10152	C	0.766652	0.343529	1.018051
	C10153	C	0.829199	0.281405	0.482700
	C10154	C	0.795809	0.343694	0.982525
	C10155	C	0.858398	0.281445	0.518678
	C10156	C	0.795911	0.280918	0.732388
	C10157	C	0.858344	0.343866	0.768376
	C10158	C	0.766706	0.281301	0.767706
	C10159	C	0.829130	0.344068	0.732806
	C10160	C	0.774024	0.342651	1.009072
	C10161	C	0.836582	0.280603	0.491814
	C10162	C	0.788446	0.344613	0.991652
	C10163	C	0.851009	0.282433	0.509530
	C10164	C	0.788535	0.280048	0.741488
	C10165	C	0.850957	0.342904	0.758995
	C10166	C	0.774104	0.282102	0.758990
	C10167	C	0.836531	0.344890	0.741827
	C10168	C	0.778253	0.341538	1.089284
	C10169	C	0.839761	0.282859	1.081011
	C10170	C	0.785267	0.342080	0.580912
	C10171	C	0.847813	0.280101	0.420399
	C10172	C	0.785244	0.342314	1.080782
	C10173	C	0.846747	0.283635	1.089567
	C10174	C	0.778270	0.341331	0.589232
	C10175	C	0.840824	0.279214	0.411904
	C10176	C	0.785338	0.282309	0.830655
	C10177	C	0.847756	0.345439	0.669806
	C10178	C	0.777305	0.279765	0.669927
	C10179	C	0.839741	0.342301	0.830854
	C10180	C	0.778337	0.283234	0.839201
	C10181	C	0.840773	0.346192	0.661559
	C10182	C	0.784306	0.278975	0.661306
	C10183	C	0.846723	0.341365	0.839091
	N10184	N	0.755722	0.351936	0.979947
	N10185	N	0.818885	0.292690	0.924035
	N10186	N	0.806798	0.335662	0.520585
	N10187	N	0.868660	0.270248	0.577314
	N10188	N	0.806109	0.332683	0.923922
	N10189	N	0.869301	0.273332	0.979749
	N10190	N	0.756383	0.354856	0.576778
	N10191	N	0.818253	0.289383	0.521003
	N10192	N	0.806165	0.292427	0.673512
	N10193	N	0.869282	0.351822	0.730105
	N10194	N	0.756401	0.270333	0.826339
	N10195	N	0.818216	0.336031	0.771151
	N10196	N	0.755775	0.273342	0.729221
	N10197	N	0.818870	0.332917	0.673876
	N10198	N	0.806859	0.289184	0.770567
	N10199	N	0.868610	0.354800	0.827484
	H10200	H	0.762431	0.465579	0.369825
	H10201	H	0.826928	0.412871	0.327760
	H10202	H	0.799964	0.471973	0.130236
	H10203	H	0.860481	0.399987	0.173664
	H10204	H	0.797919	0.461427	0.327361
	H10205	H	0.862621	0.410128	0.370772
	H10206	H	0.764501	0.475894	0.172820
	H10207	H	0.824915	0.403284	0.130667
	H10208	H	0.797945	0.413304	0.076649
	H10209	H	0.862563	0.464989	0.119119
	H10210	H	0.764454	0.399037	0.423298
	H10211	H	0.824910	0.471838	0.381434
	H10212	H	0.762349	0.409843	0.120128
	H10213	H	0.826973	0.462111	0.077299
	H10214	H	0.799987	0.402534	0.379442
	H10215	H	0.860399	0.476070	0.422254
	H10216	H	0.776057	0.465083	0.659983
	H10217	H	0.838541	0.401850	0.341000
	H10218	H	0.786418	0.472288	-0.160694
	H10219	H	0.850799	0.403771	-0.144456
	H10220	H	0.788262	0.466289	0.645494
	H10221	H	0.850722	0.402949	0.355179
	H10222	H	0.774232	0.471294	-0.145387
	H10223	H	0.838557	0.402322	-0.159683
	H10224	H	0.786360	0.402539	0.090201
	H10225	H	0.848898	0.464493	0.409296
	H10226	H	0.775999	0.410258	0.409400
	H10227	H	0.838474	0.473344	0.090704
	H10228	H	0.774153	0.403559	0.105246
	H10229	H	0.836690	0.465268	0.394931
	H10230	H	0.788263	0.409236	0.394232
	H10231	H	0.850720	0.472228	0.104848
	Co10232	Co	0.875005	0.499880	0.157166
	Co10233	Co	0.812462	0.437573	0.093492
	Co10234	Co	0.749968	0.374739	0.407290
	Co10235	Co	0.812428	0.437268	0.343434
	C10236	C	0.761823	0.469672	0.444904
	C10237	C	0.825305	0.412137	0.401492
	C10238	C	0.800653	0.468042	0.054995
	C10239	C	0.862114	0.400710	0.100291
	C10240	C	0.799587	0.462595	0.400775
	C10241	C	0.863168	0.405770	0.445375
	C10242	C	0.762879	0.474958	0.098916
	C10243	C	0.824313	0.407230	0.055432
	C10244	C	0.799591	0.412493	0.149995
	C10245	C	0.863182	0.469348	0.194781
	C10246	C	0.762829	0.400036	0.349913
	C10247	C	0.824300	0.467728	0.306226
	C10248	C	0.761774	0.405564	0.195394
	C10249	C	0.825300	0.462890	0.150982
	C10250	C	0.800618	0.406823	0.304721
	C10251	C	0.862099	0.474937	0.349573
	C10252	C	0.766640	0.468995	0.518049
	C10253	C	0.829123	0.406384	-0.017706
	C10254	C	0.795831	0.468958	0.482473
	C10255	C	0.858320	0.406354	0.018365
	C10256	C	0.795794	0.406391	0.231773
	C10257	C	0.858307	0.468832	0.267464
	C10258	C	0.766609	0.406149	0.268214
	C10259	C	0.829112	0.468733	0.232833
	C10260	C	0.774023	0.468111	0.509095
	C10261	C	0.836510	0.405464	-0.008520
	C10262	C	0.788449	0.469953	0.491904
	C10263	C	0.850934	0.407305	0.009249
	C10264	C	0.788397	0.405522	0.241016
	C10265	C	0.850921	0.467984	0.258255
	C10266	C	0.773973	0.407218	0.258759
	C10267	C	0.836488	0.469684	0.241502
	C10268	C	0.778259	0.466841	0.589307
	C10269	C	0.840738	0.403749	0.411924
	C10270	C	0.784237	0.470733	-0.089703
	C10271	C	0.847745	0.404890	-0.080104
	C10272	C	0.785246	0.467625	0.580952
	C10273	C	0.847729	0.404459	0.420138
	C10274	C	0.777249	0.469936	-0.080938
	C10275	C	0.840758	0.404081	-0.088738
	C10276	C	0.784152	0.404098	0.160937
	C10277	C	0.846708	0.466421	0.338488
	C10278	C	0.778213	0.408612	0.338704
	C10279	C	0.840716	0.471502	0.161095
	C10280	C	0.777165	0.404882	0.169627
	C10281	C	0.839711	0.467015	0.330541
	C10282	C	0.785207	0.407893	0.330195
	C10283	C	0.847720	0.470562	0.169399
	N10284	N	0.755695	0.476915	0.479696
	N10285	N	0.818824	0.417389	0.424173
	N10286	N	0.806799	0.460876	0.020293
	N10287	N	0.868611	0.395707	0.077427
	N10288	N	0.806095	0.457632	0.423285
	N10289	N	0.869275	0.398386	0.480243
	N10290	N	0.756395	0.479912	0.076285
	N10291	N	0.818199	0.414467	0.020588
	N10292	N	0.806105	0.417243	0.172856
	N10293	N	0.869281	0.476705	0.230192
	N10294	N	0.756347	0.395046	0.327619
	N10295	N	0.818180	0.460453	0.271137
	N10296	N	0.755656	0.398300	0.230326
	N10297	N	0.818814	0.457661	0.173928
	N10298	N	0.806764	0.414001	0.269923
	N10299	N	0.868582	0.479960	0.327107
	H10300	H	0.762437	0.465202	0.868397
	H10301	H	0.826940	0.412960	0.826628
	H10302	H	0.800063	0.472668	0.630451
	H10303	H	0.860430	0.399048	0.673507
	H10304	H	0.798052	0.461641	0.826555
	H10305	H	0.862499	0.409508	0.869130
	H10306	H	0.764453	0.475890	0.673071
	H10307	H	0.824849	0.402702	0.631749
	H10308	H	0.798120	0.413209	0.576296
	H10309	H	0.862632	0.465262	0.620709
	H10310	H	0.764576	0.399224	0.922560
	H10311	H	0.825001	0.472680	0.881146
	H10312	H	0.762490	0.409639	0.619077
	H10313	H	0.827119	0.461834	0.577965
	H10314	H	0.800114	0.403121	0.880654
	H10315	H	0.860527	0.475970	0.924320
	H10316	H	0.776060	0.464857	1.159505
	H10317	H	0.836679	0.409432	1.145058
	H10318	H	0.786418	0.472926	0.340738
	H10319	H	0.848908	0.410831	0.659960
	H10320	H	0.788295	0.465891	1.144449
	H10321	H	0.848910	0.410613	1.160168
	H10322	H	0.774197	0.471754	0.355524
	H10323	H	0.836658	0.409334	0.645448
	H10324	H	0.786521	0.402554	0.589495
	H10325	H	0.850879	0.471836	0.606545
	H10326	H	0.776126	0.409984	0.909109
	H10327	H	0.836769	0.465831	0.895785
	H10328	H	0.774268	0.403789	0.604616
	H10329	H	0.838687	0.473015	0.591473
	H10330	H	0.788381	0.408565	0.894198
	H10331	H	0.849022	0.464529	0.910511
	Co10332	Co	0.875040	0.500251	0.657329
	Co10333	Co	0.812529	0.438130	0.593743
	Co10334	Co	0.750055	0.375298	0.907036
	Co10335	Co	0.812579	0.437873	0.843700
	C10336	C	0.761832	0.469472	0.944261
	C10337	C	0.825328	0.412240	0.900358
	C10338	C	0.800669	0.468476	0.555209
	C10339	C	0.862118	0.400213	0.600118
	C10340	C	0.799684	0.462925	0.899938
	C10341	C	0.863109	0.405491	0.945096
	C10342	C	0.762840	0.474992	0.599755
	C10343	C	0.824260	0.406879	0.556308
	C10344	C	0.799719	0.412402	0.650217
	C10345	C	0.863221	0.469556	0.695619
	C10346	C	0.762945	0.400252	0.849096
	C10347	C	0.824399	0.468309	0.805878
	C10348	C	0.761901	0.405672	0.694655
	C10349	C	0.825448	0.462922	0.651190
	C10350	C	0.800717	0.407168	0.805010
	C10351	C	0.862199	0.474890	0.850616
	C10352	C	0.766668	0.468745	1.017188
	C10353	C	0.829097	0.406055	0.483341
	C10354	C	0.795852	0.468699	0.981677
	C10355	C	0.858319	0.406338	0.518390
	C10356	C	0.795923	0.406283	0.731751
	C10357	C	0.858411	0.468790	0.768923
	C10358	C	0.766717	0.406198	0.767428
	C10359	C	0.829232	0.468953	0.732932
	C10360	C	0.774046	0.467744	1.008322
	C10361	C	0.836484	0.405262	0.492135
	C10362	C	0.788467	0.469519	0.990588
	C10363	C	0.850935	0.407273	0.509134
	C10364	C	0.788530	0.405220	0.740642
	C10365	C	0.851031	0.467904	0.759921
	C10366	C	0.774120	0.407152	0.758163
	C10367	C	0.836619	0.469855	0.742305
	C10368	C	0.778281	0.466505	1.088654
	C10369	C	0.839715	0.408001	1.080686
	C10370	C	0.784214	0.471240	0.411537
	C10371	C	0.846694	0.408894	0.589128
	C10372	C	0.785267	0.467209	1.079901
	C10373	C	0.846704	0.408708	1.089402
	C10374	C	0.777226	0.470417	0.419904
	C10375	C	0.839692	0.407895	0.581049
	C10376	C	0.784300	0.404086	0.660312
	C10377	C	0.847847	0.470494	0.670831
	C10378	C	0.778355	0.408337	0.838474
	C10379	C	0.839813	0.467304	0.831486
	C10380	C	0.777319	0.404842	0.668793
	C10381	C	0.840865	0.471290	0.662341
	C10382	C	0.785339	0.407523	0.829863
	C10383	C	0.846797	0.466378	0.840018
	N10384	N	0.755719	0.476837	0.979097
	N10385	N	0.818854	0.417471	0.923250
	N10386	N	0.806785	0.461032	0.520296
	N10387	N	0.868598	0.395178	0.577493
	N10388	N	0.806163	0.457926	0.923196
	N10389	N	0.869250	0.398445	0.980134
	N10390	N	0.756356	0.479959	0.577012
	N10391	N	0.818157	0.414421	0.521295
	N10392	N	0.806178	0.417805	0.673364
	N10393	N	0.869327	0.476970	0.730597
	N10394	N	0.756449	0.395206	0.826686
	N10395	N	0.818261	0.461078	0.770812
	N10396	N	0.755771	0.398358	0.729606
	N10397	N	0.818939	0.458009	0.673642
	N10398	N	0.806828	0.414743	0.770421
	N10399	N	0.868687	0.479959	0.827611
	H10400	H	0.762515	0.590317	0.368613
	H10401	H	0.827035	0.537982	0.327829
	H10402	H	0.800029	0.597404	0.129966
	H10403	H	0.860482	0.524432	0.173641
	H10404	H	0.797984	0.586302	0.327116
	H10405	H	0.862582	0.534665	0.370541
	H10406	H	0.764523	0.600761	0.172393
	H10407	H	0.824922	0.527704	0.131437
	H10408	H	0.797983	0.538658	0.076534
	H10409	H	0.862581	0.590132	0.120633
	H10410	H	0.764526	0.524489	0.422029
	H10411	H	0.824937	0.597176	0.381117
	H10412	H	0.762447	0.534926	0.119266
	H10413	H	0.826992	0.586909	0.077417
	H10414	H	0.800039	0.527896	0.379903
	H10415	H	0.860461	0.600832	0.424347
	H10416	H	0.776120	0.590557	0.659014
	H10417	H	0.838593	0.526707	0.341259
	H10418	H	0.788269	0.591014	0.144054
	H10419	H	0.848966	0.535631	0.160272
	H10420	H	0.788349	0.591554	0.644715
	H10421	H	0.850779	0.527685	0.355961
	H10422	H	0.776053	0.589869	0.159293
	H10423	H	0.836737	0.534365	0.144871
	H10424	H	0.786434	0.527110	0.089504
	H10425	H	0.848940	0.589009	0.410061
	H10426	H	0.776059	0.535573	0.409165
	H10427	H	0.838573	0.598087	0.091055
	H10428	H	0.774210	0.528427	0.104536
	H10429	H	0.836674	0.590130	0.395089
	H10430	H	0.788295	0.534289	0.394052
	H10431	H	0.850773	0.597145	0.105752
	Co10432	Co	0.875017	0.624899	0.157250
	Co10433	Co	0.812490	0.562764	0.093328
	Co10434	Co	0.749987	0.500176	0.406579
	Co10435	Co	0.812506	0.562249	0.343453
	C10436	C	0.761897	0.594449	0.444024
	C10437	C	0.825376	0.537101	0.400937
	C10438	C	0.800642	0.593334	0.054718
	C10439	C	0.862148	0.525232	0.100095
	C10440	C	0.799682	0.587637	0.400381
	C10441	C	0.863195	0.530558	0.445719
	C10442	C	0.762873	0.599919	0.098962
	C10443	C	0.824339	0.532174	0.055819
	C10444	C	0.799638	0.537506	0.149921
	C10445	C	0.863174	0.594434	0.195767
	C10446	C	0.762847	0.525372	0.349032
	C10447	C	0.824328	0.593031	0.305831
	C10448	C	0.761817	0.530773	0.194308
	C10449	C	0.825365	0.587818	0.150991
	C10450	C	0.800661	0.531983	0.304475
	C10451	C	0.862123	0.599918	0.350522
	C10452	C	0.766731	0.593760	0.517192
	C10453	C	0.829157	0.531464	-0.017263
	C10454	C	0.795902	0.593752	0.482187
	C10455	C	0.858386	0.531354	0.018274
	C10456	C	0.795833	0.531474	0.231577
	C10457	C	0.858338	0.593735	0.268787
	C10458	C	0.766644	0.531475	0.267372
	C10459	C	0.829144	0.593811	0.232817
	C10460	C	0.774111	0.593009	0.508126
	C10461	C	0.836557	0.530550	-0.008433
	C10462	C	0.788527	0.594920	0.491279
	C10463	C	0.850990	0.532292	0.009141
	C10464	C	0.788455	0.530478	0.240491
	C10465	C	0.850944	0.592756	0.259300
	C10466	C	0.774039	0.532385	0.258283
	C10467	C	0.836526	0.594664	0.241883
	C10468	C	0.778328	0.592037	0.588321
	C10469	C	0.840797	0.528490	0.412172
	C10470	C	0.785233	0.592312	0.079852
	C10471	C	0.846760	0.533789	0.089322
	C10472	C	0.785320	0.592823	0.580412
	C10473	C	0.847790	0.529353	0.420592
	C10474	C	0.778250	0.591409	0.088457
	C10475	C	0.839776	0.533041	0.080632
	C10476	C	0.784224	0.529106	0.160207
	C10477	C	0.846711	0.590999	0.339374
	C10478	C	0.778268	0.533780	0.338438
	C10479	C	0.840770	0.596281	0.161872
	C10480	C	0.777235	0.529883	0.168983
	C10481	C	0.839720	0.591874	0.330984
	C10482	C	0.785260	0.532971	0.329655
	C10483	C	0.847755	0.595460	0.170225
	N10484	N	0.755755	0.601533	0.478967
	N10485	N	0.818887	0.542142	0.423596
	N10486	N	0.806763	0.585962	0.020138
	N10487	N	0.868641	0.520184	0.077544
	N10488	N	0.806162	0.582449	0.423301
	N10489	N	0.869312	0.523263	0.480483
	N10490	N	0.756387	0.604932	0.076466
	N10491	N	0.818202	0.539323	0.020801
	N10492	N	0.806127	0.542439	0.172709
	N10493	N	0.869288	0.601823	0.230817
	N10494	N	0.756365	0.520231	0.326232
	N10495	N	0.818203	0.585687	0.270909
	N10496	N	0.755702	0.523338	0.229205
	N10497	N	0.818873	0.582766	0.173610
	N10498	N	0.806792	0.539218	0.269715
	N10499	N	0.868609	0.605079	0.327760
	H10500	H	0.762402	0.589801	0.869434
	H10501	H	0.827031	0.538411	0.827395
	H10502	H	0.800106	0.597324	0.630581
	H10503	H	0.860557	0.524524	0.673988
	H10504	H	0.797997	0.586695	0.826835
	H10505	H	0.862620	0.535001	0.870001
	H10506	H	0.764557	0.600596	0.672327
	H10507	H	0.824971	0.527623	0.630756
	H10508	H	0.798015	0.538534	0.577090
	H10509	H	0.862533	0.590227	0.619969
	H10510	H	0.764511	0.524243	0.923625
	H10511	H	0.824852	0.597165	0.880701
	H10512	H	0.762432	0.534949	0.619378
	H10513	H	0.827024	0.586954	0.577459
	H10514	H	0.800047	0.527858	0.880625
	H10515	H	0.860512	0.601052	0.923857
	H10516	H	0.774230	0.596204	0.854641
	H10517	H	0.838580	0.527245	0.840720
	H10518	H	0.786526	0.597672	0.340105
	H10519	H	0.848934	0.535476	0.660613
	H10520	H	0.786425	0.597231	0.839865
	H10521	H	0.850809	0.528355	0.855391
	H10522	H	0.774298	0.596438	0.354417
	H10523	H	0.836734	0.534515	0.645783
	H10524	H	0.786419	0.528089	0.590051
	H10525	H	0.850794	0.596785	0.606046
	H10526	H	0.776062	0.534643	0.909825
	H10527	H	0.836701	0.591235	0.895944
	H10528	H	0.774206	0.529122	0.604811
	H10529	H	0.838550	0.597976	0.591098
	H10530	H	0.788296	0.533811	0.894849
	H10531	H	0.848904	0.590054	0.910450
	Co10532	Co	0.875006	0.624825	0.657269
	Co10533	Co	0.812537	0.562385	0.593341
	Co10534	Co	0.749953	0.500025	0.906686
	Co10535	Co	0.812456	0.562419	0.843410
	C10536	C	0.761813	0.594256	0.944390
	C10537	C	0.825365	0.537412	0.900931
	C10538	C	0.800726	0.593088	0.555287
	C10539	C	0.862185	0.525358	0.600590
	C10540	C	0.799605	0.587654	0.900133
	C10541	C	0.863206	0.530758	0.945232
	C10542	C	0.762905	0.599555	0.598968
	C10543	C	0.824343	0.531822	0.556015
	C10544	C	0.799655	0.537402	0.650445
	C10545	C	0.863144	0.594310	0.695649
	C10546	C	0.762831	0.525246	0.849680
	C10547	C	0.824283	0.593241	0.805479
	C10548	C	0.761801	0.530577	0.694567
	C10549	C	0.825354	0.587918	0.650757
	C10550	C	0.800688	0.531836	0.805299
	C10551	C	0.862124	0.599891	0.850465
	C10552	C	0.766647	0.593559	1.017418
	C10553	C	0.829181	0.531101	0.482965
	C10554	C	0.795825	0.593857	0.981698
	C10555	C	0.858360	0.531286	0.518802
	C10556	C	0.795845	0.531409	0.732174
	C10557	C	0.858324	0.593847	0.768716
	C10558	C	0.766639	0.531267	0.767684
	C10559	C	0.829127	0.594051	0.732581
	C10560	C	0.774025	0.592590	1.008420
	C10561	C	0.836559	0.530236	0.492209
	C10562	C	0.788440	0.594561	0.990757
	C10563	C	0.850991	0.532061	0.509603
	C10564	C	0.788455	0.530545	0.741232
	C10565	C	0.850941	0.593035	0.759526
	C10566	C	0.774021	0.532236	0.758569
	C10567	C	0.836511	0.594993	0.741931
	C10568	C	0.777226	0.594852	0.919126
	C10569	C	0.840784	0.529077	0.911422
	C10570	C	0.784298	0.596110	0.410836
	C10571	C	0.846755	0.533669	0.589706
	C10572	C	0.784208	0.595641	0.910519
	C10573	C	0.847770	0.529819	0.919911
	C10574	C	0.777306	0.595199	0.419052
	C10575	C	0.839753	0.532942	0.581372
	C10576	C	0.784213	0.529574	0.660980
	C10577	C	0.847749	0.595479	0.670336
	C10578	C	0.778264	0.533220	0.838808
	C10579	C	0.839704	0.592487	0.831211
	C10580	C	0.777211	0.530315	0.669340
	C10581	C	0.840762	0.596306	0.661906
	C10582	C	0.785261	0.532552	0.830478
	C10583	C	0.846697	0.591762	0.839650
	N10584	N	0.755689	0.601649	0.979349
	N10585	N	0.818854	0.542356	0.923659
	N10586	N	0.806827	0.585608	0.520400
	N10587	N	0.868664	0.520309	0.577820
	N10588	N	0.806102	0.582694	0.923040
	N10589	N	0.869314	0.523337	0.980415
	N10590	N	0.756414	0.604523	0.576008
	N10591	N	0.818231	0.539152	0.520858
	N10592	N	0.806129	0.542311	0.673234
	N10593	N	0.869279	0.601633	0.730387
	N10594	N	0.756340	0.520144	0.826739
	N10595	N	0.818192	0.585700	0.770534
	N10596	N	0.755679	0.523277	0.729731
	N10597	N	0.818875	0.582646	0.673364
	N10598	N	0.806801	0.539119	0.770325
	N10599	N	0.868618	0.604816	0.827529
	H10600	H	0.762387	0.715364	0.368466
	H10601	H	0.827081	0.663636	0.327930
	H10602	H	0.800081	0.722251	0.131012
	H10603	H	0.860531	0.649198	0.173240
	H10604	H	0.798084	0.711907	0.327390
	H10605	H	0.862617	0.660362	0.370586
	H10606	H	0.764511	0.725457	0.172396
	H10607	H	0.825023	0.652784	0.131340
	H10608	H	0.798092	0.663109	0.077092
	H10609	H	0.862668	0.714990	0.120105
	H10610	H	0.764585	0.649383	0.422410
	H10611	H	0.825091	0.722084	0.381131
	H10612	H	0.762554	0.660146	0.119439
	H10613	H	0.827094	0.712000	0.077981
	H10614	H	0.800173	0.652943	0.381038
	H10615	H	0.860531	0.726332	0.423654
	H10616	H	0.774207	0.721203	0.354428
	H10617	H	0.838579	0.651374	0.341343
	H10618	H	0.786447	0.722052	-0.159807
	H10619	H	0.848998	0.660709	0.160027
	H10620	H	0.786390	0.722263	0.339586
	H10621	H	0.850810	0.652503	0.356132
	H10622	H	0.774225	0.720749	-0.144981
	H10623	H	0.836753	0.659328	0.145228
	H10624	H	0.786550	0.651835	0.090706
	H10625	H	0.848990	0.714363	0.410123
	H10626	H	0.776142	0.660420	0.409239
	H10627	H	0.838640	0.722950	0.090481
	H10628	H	0.774334	0.653068	0.105328
	H10629	H	0.836787	0.715340	0.395368
	H10630	H	0.788391	0.659069	0.395132
	H10631	H	0.850865	0.721809	0.105378
	Co10632	Co	0.875025	0.750093	0.157077
	Co10633	Co	0.812575	0.687793	0.093773
	Co10634	Co	0.750099	0.625014	0.405895
	Co10635	Co	0.812566	0.687727	0.343775
	C10636	C	0.761784	0.719455	0.443720
	C10637	C	0.825412	0.662465	0.401162
	C10638	C	0.800701	0.718031	0.055581
	C10639	C	0.862184	0.650146	0.099794
	C10640	C	0.799679	0.712722	0.400637
	C10641	C	0.863203	0.655761	0.445775
	C10642	C	0.762889	0.724568	0.098882
	C10643	C	0.824381	0.657023	0.056120
	C10644	C	0.799738	0.662284	0.150746
	C10645	C	0.863251	0.719296	0.195677
	C10646	C	0.762949	0.650231	0.349011
	C10647	C	0.824409	0.718192	0.306067
	C10648	C	0.761944	0.655659	0.194308
	C10649	C	0.825414	0.712887	0.150866
	C10650	C	0.800793	0.656871	0.305601
	C10651	C	0.862193	0.725147	0.350191
	C10652	C	0.766623	0.718815	0.516863
	C10653	C	0.829187	0.656272	-0.017253
	C10654	C	0.795838	0.718738	0.482157
	C10655	C	0.858404	0.656297	0.018061
	C10656	C	0.795964	0.656123	0.232644
	C10657	C	0.858406	0.718755	0.268478
	C10658	C	0.766756	0.656286	0.267520
	C10659	C	0.829240	0.718787	0.232760
	C10660	C	0.773993	0.717866	0.507884
	C10661	C	0.836598	0.655478	-0.008276
	C10662	C	0.788450	0.719667	0.490758
	C10663	C	0.851032	0.657298	0.009028
	C10664	C	0.788593	0.655120	0.241781
	C10665	C	0.851036	0.717689	0.259120
	C10666	C	0.774156	0.657081	0.258685
	C10667	C	0.836621	0.719573	0.241590
	C10668	C	0.777215	0.720085	0.418930
	C10669	C	0.840782	0.653473	0.411896
	C10670	C	0.784253	0.720545	-0.089062
	C10671	C	0.846793	0.658771	0.089242
	C10672	C	0.784215	0.720787	0.410563
	C10673	C	0.847770	0.654286	0.420257
	C10674	C	0.777271	0.719676	-0.080866
	C10675	C	0.839799	0.657967	0.080902
	C10676	C	0.784361	0.653643	0.161611
	C10677	C	0.846798	0.716175	0.339283
	C10678	C	0.778386	0.658503	0.338847
	C10679	C	0.840851	0.721069	0.161172
	C10680	C	0.777365	0.654448	0.169765
	C10681	C	0.839800	0.716949	0.330812
	C10682	C	0.785376	0.657615	0.330675
	C10683	C	0.847851	0.720319	0.169770
	N10684	N	0.755678	0.726812	0.478770
	N10685	N	0.818902	0.667418	0.423811
	N10686	N	0.806840	0.710794	0.020723
	N10687	N	0.868686	0.645201	0.077314
	N10688	N	0.806135	0.707481	0.423819
	N10689	N	0.869324	0.648421	0.480749
	N10690	N	0.756405	0.729829	0.076044
	N10691	N	0.818252	0.664243	0.021056
	N10692	N	0.806204	0.667564	0.173426
	N10693	N	0.869351	0.726848	0.230416
	N10694	N	0.756450	0.645257	0.326097
	N10695	N	0.818277	0.711058	0.271083
	N10696	N	0.755802	0.648463	0.229223
	N10697	N	0.818925	0.707960	0.173952
	N10698	N	0.806889	0.664462	0.270694
	N10699	N	0.868671	0.730200	0.327426
	H10700	H	0.762434	0.715159	0.868815
	H10701	H	0.827047	0.662851	0.827354
	H10702	H	0.799981	0.721879	0.631014
	H10703	H	0.860485	0.648991	0.673655
	H10704	H	0.798037	0.711578	0.826716
	H10705	H	0.862694	0.660093	0.869968
	H10706	H	0.764457	0.725733	0.672080
	H10707	H	0.824940	0.652585	0.631002
	H10708	H	0.797998	0.662614	0.577081
	H10709	H	0.862491	0.714574	0.621222
	H10710	H	0.764427	0.649264	0.922815
	H10711	H	0.824778	0.722358	0.881576
	H10712	H	0.762381	0.659641	0.619258
	H10713	H	0.826943	0.711467	0.577882
	H10714	H	0.799952	0.652892	0.881122
	H10715	H	0.860423	0.726158	0.924131
	H10716	H	0.776041	0.714788	1.159143
	H10717	H	0.838600	0.651887	0.840907
	H10718	H	0.788201	0.716213	0.644550
	H10719	H	0.848952	0.661184	0.660082
	H10720	H	0.788256	0.716041	1.144898
	H10721	H	0.850819	0.653107	0.855391
	H10722	H	0.776019	0.714955	0.658842
	H10723	H	0.836726	0.660216	0.645325
	H10724	H	0.788207	0.658323	0.894047
	H10725	H	0.850686	0.722575	0.606465
	H10726	H	0.774159	0.654247	0.604276
	H10727	H	0.836616	0.715643	0.895742
	H10728	H	0.776009	0.659184	0.909089
	H10729	H	0.838456	0.723510	0.591807
	H10730	H	0.786417	0.653234	0.589909
	H10731	H	0.848827	0.714688	0.910799
	Co10732	Co	0.874939	0.749479	0.657201
	Co10733	Co	0.812439	0.687136	0.594567
	Co10734	Co	0.749961	0.624656	0.905973
	Co10735	Co	0.812477	0.687062	0.844067
	C10736	C	0.761847	0.719361	0.944101
	C10737	C	0.825386	0.662111	0.900953
	C10738	C	0.800630	0.717740	0.555719
	C10739	C	0.862137	0.650029	0.600337
	C10740	C	0.799683	0.712571	0.900664
	C10741	C	0.863240	0.655641	0.945119
	C10742	C	0.762827	0.724882	0.598727
	C10743	C	0.824350	0.656905	0.556013
	C10744	C	0.799614	0.661876	0.650726
	C10745	C	0.863090	0.719107	0.695916
	C10746	C	0.762804	0.649967	0.848991
	C10747	C	0.824237	0.717989	0.806293
	C10748	C	0.761778	0.655254	0.694278
	C10749	C	0.825292	0.712640	0.651541
	C10750	C	0.800574	0.656908	0.805627
	C10751	C	0.862066	0.724827	0.850579
	C10752	C	0.766654	0.718496	1.017135
	C10753	C	0.829182	0.656419	0.483117
	C10754	C	0.795879	0.718664	0.982374
	C10755	C	0.858361	0.656246	0.518680
	C10756	C	0.795792	0.656108	0.732161
	C10757	C	0.858275	0.718741	0.769031
	C10758	C	0.766589	0.656008	0.767316
	C10759	C	0.829049	0.718833	0.733355
	C10760	C	0.774050	0.717561	1.008307
	C10761	C	0.836554	0.655438	0.492091
	C10762	C	0.788476	0.719506	0.991223
	C10763	C	0.850968	0.657208	0.509418
	C10764	C	0.788385	0.655266	0.740801
	C10765	C	0.850873	0.718123	0.759845
	C10766	C	0.773954	0.656987	0.758239
	C10767	C	0.836447	0.719966	0.742591
	C10768	C	0.778274	0.716474	1.088677
	C10769	C	0.840827	0.653900	0.911484
	C10770	C	0.785213	0.717498	0.579771
	C10771	C	0.846736	0.659032	0.589551
	C10772	C	0.785267	0.717284	1.080132
	C10773	C	0.847814	0.654679	0.919950
	C10774	C	0.778223	0.716726	0.588145
	C10775	C	0.839748	0.658267	0.581083
	C10776	C	0.785165	0.657141	0.829933
	C10777	C	0.847661	0.720907	0.670761
	C10778	C	0.777165	0.655183	0.669045
	C10779	C	0.839649	0.717460	0.831622
	C10780	C	0.778182	0.657864	0.838139
	C10781	C	0.840678	0.721664	0.662480
	C10782	C	0.784156	0.654432	0.660441
	C10783	C	0.846629	0.716627	0.839931
	N10784	N	0.755743	0.726871	0.979009
	N10785	N	0.818898	0.667160	0.924098
	N10786	N	0.806761	0.710354	0.521253
	N10787	N	0.868626	0.645092	0.577854
	N10788	N	0.806168	0.707469	0.923652
	N10789	N	0.869370	0.648394	0.979996
	N10790	N	0.756351	0.729927	0.575816
	N10791	N	0.818229	0.664216	0.520913
	N10792	N	0.806111	0.666807	0.674059
	N10793	N	0.869245	0.726351	0.730589
	N10794	N	0.756322	0.644865	0.826348
	N10795	N	0.818137	0.710513	0.771197
	N10796	N	0.755643	0.647895	0.729089
	N10797	N	0.818800	0.707426	0.674235
	N10798	N	0.806732	0.663904	0.771144
	N10799	N	0.868565	0.729715	0.827776
	H10800	H	0.762425	0.840260	0.368412
	H10801	H	0.827089	0.787994	0.327219
	H10802	H	0.800049	0.847243	0.131298
	H10803	H	0.860489	0.774179	0.173075
	H10804	H	0.798032	0.837048	0.327318
	H10805	H	0.862642	0.785937	0.370581
	H10806	H	0.764484	0.849901	0.172452
	H10807	H	0.824850	0.777748	0.131157
	H10808	H	0.798003	0.788123	0.077480
	H10809	H	0.862632	0.839763	0.120337
	H10810	H	0.764491	0.774565	0.422008
	H10811	H	0.824912	0.847056	0.381121
	H10812	H	0.762474	0.784241	0.118264
	H10813	H	0.827018	0.836758	0.077246
	H10814	H	0.800036	0.777431	0.380782
	H10815	H	0.860466	0.851173	0.423530
	H10816	H	0.776059	0.839892	0.659520
	H10817	H	0.838629	0.776635	0.341029
	H10818	H	0.786446	0.847062	-0.159557
	H10819	H	0.848881	0.784926	0.160461
	H10820	H	0.788315	0.841123	0.644560
	H10821	H	0.850816	0.777991	0.355751
	H10822	H	0.774231	0.845783	-0.145309
	H10823	H	0.836640	0.783547	0.145578
	H10824	H	0.786464	0.777351	0.090226
	H10825	H	0.848996	0.840157	0.410404
	H10826	H	0.776084	0.785128	0.408813
	H10827	H	0.838583	0.847248	0.090537
	H10828	H	0.774260	0.778749	0.104436
	H10829	H	0.836766	0.841257	0.395386
	H10830	H	0.788273	0.783955	0.394555
	H10831	H	0.850845	0.846033	0.105811
	Co10832	Co	0.875028	0.874990	0.156994
	Co10833	Co	0.812493	0.812635	0.093826
	Co10834	Co	0.749977	0.750253	0.405873
	Co10835	Co	0.812524	0.812411	0.343769
	C10836	C	0.761835	0.844222	0.444342
	C10837	C	0.825414	0.787211	0.400555
	C10838	C	0.800631	0.843070	0.055930
	C10839	C	0.862107	0.775080	0.099994
	C10840	C	0.799658	0.837770	0.400701
	C10841	C	0.863209	0.781125	0.445399
	C10842	C	0.762837	0.849319	0.099103
	C10843	C	0.824287	0.781862	0.055831
	C10844	C	0.799671	0.787215	0.150641
	C10845	C	0.863228	0.844273	0.195520
	C10846	C	0.762844	0.775483	0.348579
	C10847	C	0.824342	0.842982	0.305733
	C10848	C	0.761838	0.780493	0.193612
	C10849	C	0.825376	0.837620	0.151195
	C10850	C	0.800694	0.781697	0.305519
	C10851	C	0.862149	0.850100	0.350100
	C10852	C	0.766644	0.843414	0.517444
	C10853	C	0.829082	0.781300	-0.017111
	C10854	C	0.795876	0.843780	0.482427
	C10855	C	0.858343	0.781184	0.018471
	C10856	C	0.795863	0.780998	0.232280
	C10857	C	0.858381	0.843712	0.268435
	C10858	C	0.766667	0.781287	0.266715
	C10859	C	0.829191	0.843621	0.232749
	C10860	C	0.774047	0.842546	0.508753
	C10861	C	0.836492	0.780296	-0.007866
	C10862	C	0.788471	0.844728	0.491356
	C10863	C	0.850919	0.782170	0.009530
	C10864	C	0.788482	0.780147	0.241078
	C10865	C	0.850997	0.842802	0.259296
	C10866	C	0.774040	0.782253	0.257932
	C10867	C	0.836561	0.844562	0.241769
	C10868	C	0.778278	0.841342	0.588979
	C10869	C	0.840812	0.778733	0.411698
	C10870	C	0.784221	0.845636	-0.088860
	C10871	C	0.846668	0.783274	0.089762
	C10872	C	0.785261	0.842332	0.580451
	C10873	C	0.847800	0.779607	0.420112
	C10874	C	0.777229	0.844634	-0.080788
	C10875	C	0.839694	0.782437	0.081390
	C10876	C	0.784255	0.778936	0.160903
	C10877	C	0.846781	0.841727	0.339537
	C10878	C	0.778275	0.783424	0.338021
	C10879	C	0.840792	0.845624	0.161396
	C10880	C	0.777260	0.779866	0.169113
	C10881	C	0.839788	0.842428	0.330889
	C10882	C	0.785275	0.782526	0.329995
	C10883	C	0.847794	0.844900	0.170058
	N10884	N	0.755724	0.851693	0.479072
	N10885	N	0.818920	0.792286	0.423224
	N10886	N	0.806771	0.835862	0.021139
	N10887	N	0.868614	0.770023	0.077171
	N10888	N	0.806143	0.832538	0.423828
	N10889	N	0.869303	0.773513	0.480310
	N10890	N	0.756369	0.854606	0.076004
	N10891	N	0.818183	0.789365	0.020597
	N10892	N	0.806153	0.792335	0.173775
	N10893	N	0.869333	0.851788	0.230592
	N10894	N	0.756358	0.770410	0.325836
	N10895	N	0.818211	0.835847	0.271119
	N10896	N	0.755721	0.773239	0.228568
	N10897	N	0.818881	0.832671	0.173777
	N10898	N	0.806805	0.789196	0.270674
	N10899	N	0.868631	0.855137	0.327425
	H10900	H	0.762478	0.840639	0.868415
	H10901	H	0.826986	0.788713	0.827446
	H10902	H	0.800028	0.847022	0.630826
	H10903	H	0.860397	0.773464	0.673354
	H10904	H	0.798040	0.836997	0.827344
	H10905	H	0.862547	0.784863	0.870070
	H10906	H	0.764456	0.850414	0.672618
	H10907	H	0.824983	0.777516	0.630544
	H10908	H	0.797995	0.788179	0.577425
	H10909	H	0.862611	0.839778	0.620325
	H10910	H	0.764475	0.774832	0.922525
	H10911	H	0.824882	0.847728	0.880285
	H10912	H	0.762473	0.784686	0.618452
	H10913	H	0.827056	0.836622	0.577685
	H10914	H	0.800048	0.777986	0.881462
	H10915	H	0.860485	0.851012	0.923644
	H10916	H	0.776025	0.839823	1.159700
	H10917	H	0.838509	0.777579	0.840950
	H10918	H	0.786476	0.847496	0.340215
	H10919	H	0.848971	0.786274	0.659784
	H10920	H	0.788258	0.841632	1.145414
	H10921	H	0.850727	0.778711	0.855599
	H10922	H	0.774241	0.846161	0.355129
	H10923	H	0.836758	0.784740	0.645386
	H10924	H	0.788242	0.783750	0.895508
	H10925	H	0.850841	0.846683	0.606220
	H10926	H	0.774246	0.778897	0.604634
	H10927	H	0.836695	0.840902	0.895326
	H10928	H	0.776043	0.784808	0.909737
	H10929	H	0.838591	0.848031	0.591008
	H10930	H	0.786471	0.777365	0.590218
	H10931	H	0.848934	0.839852	0.910276
	Co10932	Co	0.875023	0.874610	0.657025
	Co10933	Co	0.812504	0.812253	0.593678
	Co10934	Co	0.750017	0.750239	0.905717
	Co10935	Co	0.812487	0.812758	0.843783
	C10936	C	0.761845	0.844387	0.943824
	C10937	C	0.825353	0.787446	0.901019
	C10938	C	0.800662	0.842915	0.555649
	C10939	C	0.862117	0.774925	0.599825
	C10940	C	0.799640	0.837994	0.901007
	C10941	C	0.863125	0.780625	0.945223
	C10942	C	0.762848	0.849429	0.599052
	C10943	C	0.824357	0.781863	0.555394
	C10944	C	0.799638	0.787193	0.651040
	C10945	C	0.863185	0.844150	0.695616
	C10946	C	0.762828	0.775517	0.849089
	C10947	C	0.824326	0.843386	0.805137
	C10948	C	0.761846	0.780472	0.693971
	C10949	C	0.825407	0.837542	0.650612
	C10950	C	0.800654	0.782198	0.806231
	C10951	C	0.862128	0.849952	0.850184
	C10952	C	0.766636	0.843355	1.017291
	C10953	C	0.829196	0.781189	0.482501
	C10954	C	0.795835	0.843867	0.982617
	C10955	C	0.858356	0.781530	0.518378
	C10956	C	0.795846	0.781315	0.732967
	C10957	C	0.858362	0.843617	0.768596
	C10958	C	0.766649	0.781299	0.767306
	C10959	C	0.829166	0.843918	0.732269
	C10960	C	0.774035	0.842393	1.008458
	C10961	C	0.836574	0.780326	0.491837
	C10962	C	0.788450	0.844694	0.991488
	C10963	C	0.850985	0.782451	0.509078
	C10964	C	0.788476	0.780382	0.741591
	C10965	C	0.850964	0.842806	0.759442
	C10966	C	0.774045	0.782179	0.758486
	C10967	C	0.836549	0.844836	0.741735
	C10968	C	0.778253	0.841405	1.088928
	C10969	C	0.840725	0.779142	0.911740
	C10970	C	0.784252	0.845963	0.411020
	C10971	C	0.846765	0.784127	0.589194
	C10972	C	0.785237	0.842543	1.080865
	C10973	C	0.847693	0.779843	0.920197
	C10974	C	0.777270	0.844933	0.419501
	C10975	C	0.839771	0.783122	0.580908
	C10976	C	0.785248	0.782532	0.830649
	C10977	C	0.847772	0.845346	0.670197
	C10978	C	0.777275	0.779879	0.669322
	C10979	C	0.839728	0.842278	0.831038
	C10980	C	0.778253	0.783172	0.838926
	C10981	C	0.840793	0.846339	0.661684
	C10982	C	0.784263	0.779068	0.661030
	C10983	C	0.846716	0.841486	0.839618
	N10984	N	0.755736	0.851799	0.978665
	N10985	N	0.818858	0.792575	0.923763
	N10986	N	0.806788	0.835484	0.520746
	N10987	N	0.868596	0.769838	0.577059
	N10988	N	0.806130	0.832922	0.923896
	N10989	N	0.869271	0.773181	0.980103
	N10990	N	0.756367	0.854596	0.576322
	N10991	N	0.818231	0.789103	0.520298
	N10992	N	0.806125	0.792305	0.673926
	N10993	N	0.869314	0.851555	0.730357
	N10994	N	0.756340	0.770541	0.826006
	N10995	N	0.818229	0.835887	0.770361
	N10996	N	0.755707	0.773359	0.728824
	N10997	N	0.818917	0.832486	0.673219
	N10998	N	0.806779	0.789389	0.771293
	N10999	N	0.868623	0.855067	0.827282
	H11000	H	0.762526	0.965114	0.369549
	H11001	H	0.827042	0.913527	0.326988
	H11002	H	0.800019	0.971711	0.131313
	H11003	H	0.860489	0.898940	0.173708
	H11004	H	0.798133	0.962441	0.327369
	H11005	H	0.862703	0.910298	0.370249
	H11006	H	0.764460	0.975942	0.173363
	H11007	H	0.824910	0.902140	0.130446
	H11008	H	0.797959	0.912611	0.078223
	H11009	H	0.862643	0.964694	0.119963
	H11010	H	0.764417	0.898958	0.422932
	H11011	H	0.824892	0.972378	0.380663
	H11012	H	0.762408	0.909445	0.119639
	H11013	H	0.826994	0.961571	0.077234
	H11014	H	0.800005	0.902946	0.381459
	H11015	H	0.860457	0.976145	0.423282
	H11016	H	0.774260	0.971191	0.355737
	H11017	H	0.838576	0.902607	0.340847
	H11018	H	0.788265	0.966183	0.145360
	H11019	H	0.848931	0.909651	0.160118
	H11020	H	0.786526	0.972387	0.341067
	H11021	H	0.850818	0.903731	0.355333
	H11022	H	0.776010	0.964976	0.159897
	H11023	H	0.836717	0.908470	0.145200
	H11024	H	0.786482	0.902140	0.091524
	H11025	H	0.850803	0.971009	0.105177
	H11026	H	0.776019	0.909975	0.409756
	H11027	H	0.836732	0.966758	0.395398
	H11028	H	0.774241	0.903174	0.105980
	H11029	H	0.838585	0.972302	0.090117
	H11030	H	0.788222	0.909171	0.395872
	H11031	H	0.848915	0.965368	0.409914
	Co11032	Co	0.874944	0.999801	0.156980
	Co11033	Co	0.812520	0.937210	0.094147
	Co11034	Co	0.749964	0.874920	0.406149
	Co11035	Co	0.812537	0.937523	0.343931
	C11036	C	0.761902	0.969313	0.444508
	C11037	C	0.825427	0.912276	0.400915
	C11038	C	0.800655	0.967655	0.056111
	C11039	C	0.862153	0.899919	0.100018
	C11040	C	0.799715	0.963013	0.401071
	C11041	C	0.863246	0.905881	0.445316
	C11042	C	0.762830	0.974722	0.099369
	C11043	C	0.824331	0.906580	0.055535
	C11044	C	0.799664	0.911901	0.151539
	C11045	C	0.863204	0.969006	0.195390
	C11046	C	0.762827	0.899985	0.349207
	C11047	C	0.824324	0.968158	0.305381
	C11048	C	0.761830	0.905161	0.194608
	C11049	C	0.825356	0.962621	0.150590
	C11050	C	0.800666	0.907093	0.306588
	C11051	C	0.862121	0.975032	0.349774
	C11052	C	0.766698	0.968613	0.517807
	C11053	C	0.829190	0.906023	-0.017722
	C11054	C	0.795909	0.968736	0.483027
	C11055	C	0.858344	0.906126	0.018302
	C11056	C	0.795857	0.906155	0.233399
	C11057	C	0.858344	0.968617	0.268054
	C11058	C	0.766650	0.905998	0.267704
	C11059	C	0.829166	0.968765	0.232183
	C11060	C	0.774104	0.967786	0.508899
	C11061	C	0.836540	0.905039	-0.008676
	C11062	C	0.788523	0.969715	0.491905
	C11063	C	0.850964	0.906933	0.009041
	C11064	C	0.788459	0.905287	0.242252
	C11065	C	0.850962	0.967781	0.258761
	C11066	C	0.774028	0.907043	0.258881
	C11067	C	0.836528	0.969800	0.241312
	C11068	C	0.777309	0.970052	0.419808
	C11069	C	0.840836	0.904093	0.411458
	C11070	C	0.785242	0.967247	0.080883
	C11071	C	0.846723	0.908081	0.089217
	C11072	C	0.784303	0.970857	0.411701
	C11073	C	0.847825	0.905032	0.420002
	C11074	C	0.778246	0.966481	0.089226
	C11075	C	0.839718	0.907238	0.080519
	C11076	C	0.784254	0.903817	0.162002
	C11077	C	0.847776	0.969903	0.169526
	C11078	C	0.778252	0.908428	0.339235
	C11079	C	0.839729	0.967721	0.330652
	C11080	C	0.777265	0.904658	0.170053
	C11081	C	0.840775	0.970749	0.161123
	C11082	C	0.785248	0.907703	0.331166
	C11083	C	0.846717	0.966849	0.339033
	N11084	N	0.755769	0.976610	0.479429
	N11085	N	0.818937	0.917277	0.423531
	N11086	N	0.806764	0.960374	0.021203
	N11087	N	0.868624	0.895046	0.077305
	N11088	N	0.806196	0.957753	0.424074
	N11089	N	0.869356	0.898282	0.480137
	N11090	N	0.756329	0.979760	0.076074
	N11091	N	0.818229	0.914150	0.020549
	N11092	N	0.806150	0.917028	0.174257
	N11093	N	0.869293	0.976478	0.230241
	N11094	N	0.756337	0.894994	0.326211
	N11095	N	0.818216	0.960729	0.270562
	N11096	N	0.755693	0.897932	0.228971
	N11097	N	0.818869	0.957551	0.173352
	N11098	N	0.806795	0.914232	0.271502
	N11099	N	0.868602	0.979983	0.327175
	H11100	H	0.762424	0.965282	0.869001
	H11101	H	0.827079	0.913747	0.827563
	H11102	H	0.800144	0.971436	0.632081
	H11103	H	0.860512	0.898724	0.672946
	H11104	H	0.798023	0.962221	0.827382
	H11105	H	0.862565	0.910063	0.869986
	H11106	H	0.764542	0.975375	0.672884
	H11107	H	0.824955	0.902234	0.630645
	H11108	H	0.798099	0.912554	0.577834
	H11109	H	0.862566	0.965151	0.620024
	H11110	H	0.764569	0.899409	0.922421
	H11111	H	0.824847	0.973290	0.880232
	H11112	H	0.762523	0.909521	0.618479
	H11113	H	0.827081	0.961427	0.577235
	H11114	H	0.800080	0.903052	0.881878
	H11115	H	0.860549	0.975602	0.923649
	H11116	H	0.774191	0.971429	0.855720
	H11117	H	0.838585	0.902217	0.840340
	H11118	H	0.788308	0.966595	0.645416
	H11119	H	0.848958	0.910152	0.660264
	H11120	H	0.786455	0.972506	0.841074
	H11121	H	0.850842	0.903484	0.855326
	H11122	H	0.776076	0.965188	0.659782
	H11123	H	0.836714	0.908938	0.644718
	H11124	H	0.786540	0.902630	0.590211
	H11125	H	0.850814	0.971524	0.606357
	H11126	H	0.776098	0.909880	0.909315
	H11127	H	0.836707	0.966454	0.895243
	H11128	H	0.774288	0.903794	0.604626
	H11129	H	0.838621	0.972906	0.591111
	H11130	H	0.788278	0.908353	0.895086
	H11131	H	0.848953	0.964773	0.910209
	Co11132	Co	0.875014	0.999857	0.656904
	Co11133	Co	0.812584	0.937200	0.593875
	Co11134	Co	0.750031	0.875238	0.905944
	Co11135	Co	0.812518	0.937809	0.843836
	C11136	C	0.761841	0.969458	0.944315
	C11137	C	0.825395	0.912443	0.900455
	C11138	C	0.800711	0.967779	0.556300
	C11139	C	0.862167	0.899999	0.599949
	C11140	C	0.799650	0.962828	0.901140
	C11141	C	0.863187	0.905577	0.945298
	C11142	C	0.762922	0.974672	0.599570
	C11143	C	0.824386	0.906575	0.555323
	C11144	C	0.799742	0.911790	0.651258
	C11145	C	0.863137	0.969366	0.695191
	C11146	C	0.762927	0.900116	0.848932
	C11147	C	0.824303	0.968708	0.805111
	C11148	C	0.761899	0.905375	0.693923
	C11149	C	0.825408	0.962765	0.650710
	C11150	C	0.800702	0.907087	0.806436
	C11151	C	0.862145	0.974756	0.849941
	C11152	C	0.766630	0.968775	1.017776
	C11153	C	0.829195	0.906085	0.482421
	C11154	C	0.795854	0.968667	0.982871
	C11155	C	0.858414	0.906484	0.518265
	C11156	C	0.795911	0.906014	0.733018
	C11157	C	0.858364	0.968729	0.768473
	C11158	C	0.766713	0.906156	0.767107
	C11159	C	0.829139	0.969210	0.732388
	C11160	C	0.774019	0.967791	1.008990
	C11161	C	0.836602	0.905274	0.491709
	C11162	C	0.788447	0.969615	0.991860
	C11163	C	0.851027	0.907409	0.509171
	C11164	C	0.788522	0.905099	0.741386
	C11165	C	0.850971	0.967883	0.759680
	C11166	C	0.774093	0.907070	0.758178
	C11167	C	0.836549	0.970125	0.741990
	C11168	C	0.777233	0.970089	0.919921
	C11169	C	0.840782	0.903889	0.911209
	C11170	C	0.785300	0.967502	0.580827
	C11171	C	0.846788	0.908670	0.589384
	C11172	C	0.784219	0.970806	0.911672
	C11173	C	0.847775	0.904650	0.919681
	C11174	C	0.778318	0.966679	0.589271
	C11175	C	0.839805	0.907697	0.580960
	C11176	C	0.784316	0.904108	0.660906
	C11177	C	0.847769	0.970325	0.670556
	C11178	C	0.778305	0.908233	0.838602
	C11179	C	0.839748	0.967719	0.831146
	C11180	C	0.777325	0.904894	0.669044
	C11181	C	0.840801	0.971201	0.662015
	C11182	C	0.785295	0.907328	0.830274
	C11183	C	0.846733	0.966645	0.839743
	N11184	N	0.755695	0.976789	0.978942
	N11185	N	0.818912	0.917574	0.923522
	N11186	N	0.806821	0.960491	0.521533
	N11187	N	0.868645	0.894798	0.577459
	N11188	N	0.806122	0.957597	0.923946
	N11189	N	0.869303	0.898417	0.980144
	N11190	N	0.756434	0.979668	0.576494
	N11191	N	0.818259	0.913957	0.520358
	N11192	N	0.806205	0.917045	0.674215
	N11193	N	0.869266	0.976682	0.729857
	N11194	N	0.756439	0.895011	0.825918
	N11195	N	0.818195	0.961018	0.770178
	N11196	N	0.755766	0.897983	0.728910
	N11197	N	0.818909	0.957598	0.673182
	N11198	N	0.806821	0.914286	0.771673
	N11199	N	0.868637	0.979771	0.827098
	H11200	H	0.887552	0.090024	0.370279
	H11201	H	0.952021	0.038138	0.327609
	H11202	H	0.924979	0.096589	0.132341
	H11203	H	0.985460	0.024469	0.173878
	H11204	H	0.923022	0.086664	0.328731
	H11205	H	0.987552	0.034582	0.369015
	H11206	H	0.889567	0.100776	0.173755
	H11207	H	0.949867	0.027467	0.131416
	H11208	H	0.923008	0.037625	0.078187
	H11209	H	0.987530	0.089861	0.120407
	H11210	H	0.889499	0.024387	0.422645
	H11211	H	0.949920	0.097343	0.381587
	H11212	H	0.887498	0.034246	0.119317
	H11213	H	0.952004	0.086663	0.077310
	H11214	H	0.925013	0.027498	0.381949
	H11215	H	0.985489	0.100198	0.423654
	H11216	H	0.901092	0.089636	0.660896
	H11217	H	0.963588	0.027341	0.340782
	H11218	H	0.913218	0.091521	0.145851
	H11219	H	0.973961	0.035870	0.160928
	H11220	H	0.913321	0.091005	0.645908
	H11221	H	0.975805	0.028368	0.355322
	H11222	H	0.901032	0.090188	0.159972
	H11223	H	0.961750	0.034503	0.146476
	H11224	H	0.911454	0.027057	0.091564
	H11225	H	0.975729	0.096413	0.105585
	H11226	H	0.901072	0.034981	0.410011
	H11227	H	0.961676	0.091274	0.395360
	H11228	H	0.899267	0.028236	0.105522
	H11229	H	0.963556	0.097816	0.091134
	H11230	H	0.913288	0.033978	0.395407
	H11231	H	0.973888	0.089718	0.410633
	Co11232	Co	0.999934	0.124811	0.156663
	Co11233	Co	0.937513	0.062327	0.094623
	Co11234	Co	0.875018	0.000085	0.406590
	Co11235	Co	0.937515	0.062295	0.344494
	C11236	C	0.886877	0.094278	0.445373
	C11237	C	0.950378	0.037171	0.401319
	C11238	C	0.925634	0.092652	0.056668
	C11239	C	0.987131	0.025389	0.100386
	C11240	C	0.924674	0.087582	0.401932
	C11241	C	0.988219	0.030588	0.444331
	C11242	C	0.887921	0.099910	0.100166
	C11243	C	0.949326	0.031865	0.056471
	C11244	C	0.924694	0.036999	0.151335
	C11245	C	0.988143	0.094198	0.195081
	C11246	C	0.887857	0.025277	0.349541
	C11247	C	0.949305	0.093160	0.306161
	C11248	C	0.886850	0.030274	0.194445
	C11249	C	0.950359	0.087610	0.151171
	C11250	C	0.925701	0.031770	0.306422
	C11251	C	0.987145	0.099538	0.350162
	C11252	C	0.891693	0.093498	0.518849
	C11253	C	0.954156	0.031285	-0.016333
	C11254	C	0.920892	0.094054	0.483696
	C11255	C	0.983360	0.031618	0.018904
	C11256	C	0.920851	0.031023	0.233187
	C11257	C	0.983320	0.093578	0.268453
	C11258	C	0.891678	0.031224	0.267730
	C11259	C	0.954130	0.093883	0.232990
	C11260	C	0.899082	0.092847	0.510237
	C11261	C	0.961544	0.030403	-0.007113
	C11262	C	0.913519	0.094982	0.492681
	C11263	C	0.975959	0.032456	0.009977
	C11264	C	0.913478	0.030157	0.242275
	C11265	C	0.975945	0.092863	0.259674
	C11266	C	0.899038	0.032089	0.259030
	C11267	C	0.961515	0.094899	0.242095
	C11268	C	0.903316	0.091396	0.590257
	C11269	C	0.965798	0.029011	0.411450
	C11270	C	0.910248	0.092426	0.080844
	C11271	C	0.971743	0.033966	0.090304
	C11272	C	0.910305	0.092431	0.581518
	C11273	C	0.972789	0.029919	0.419624
	C11274	C	0.903264	0.091565	0.089337
	C11275	C	0.964768	0.033000	0.081993
	C11276	C	0.909259	0.028715	0.162226
	C11277	C	0.972749	0.095322	0.170509
	C11278	C	0.903274	0.033451	0.339319
	C11279	C	0.964725	0.092493	0.331281
	C11280	C	0.902252	0.029641	0.170182
	C11281	C	0.965755	0.096181	0.161858
	C11282	C	0.910285	0.032670	0.331014
	C11283	C	0.971714	0.091622	0.339776
	N11284	N	0.880752	0.101661	0.480100
	N11285	N	0.943916	0.042302	0.424454
	N11286	N	0.931777	0.085536	0.022084
	N11287	N	0.993622	0.020220	0.077183
	N11288	N	0.931160	0.082564	0.424476
	N11289	N	0.994332	0.023235	0.479622
	N11290	N	0.881444	0.105229	0.077504
	N11291	N	0.943203	0.039166	0.021480
	N11292	N	0.931167	0.042039	0.174439
	N11293	N	0.994275	0.101421	0.230034
	N11294	N	0.881380	0.020074	0.326537
	N11295	N	0.943209	0.085632	0.271265
	N11296	N	0.880731	0.022925	0.229298
	N11297	N	0.943884	0.082443	0.174202
	N11298	N	0.931810	0.039091	0.271409
	N11299	N	0.993626	0.104395	0.327226
	H11300	H	0.887403	0.090090	0.870392
	H11301	H	0.952019	0.038478	0.828647
	H11302	H	0.925157	0.097860	0.631963
	H11303	H	0.985484	0.024574	0.672790
	H11304	H	0.923074	0.087227	0.828011
	H11305	H	0.987564	0.035241	0.870349
	H11306	H	0.889512	0.100468	0.673979
	H11307	H	0.950010	0.027860	0.631755
	H11308	H	0.923019	0.038326	0.578084
	H11309	H	0.987658	0.090091	0.619242
	H11310	H	0.889517	0.024173	0.923586
	H11311	H	0.950012	0.097171	0.881671
	H11312	H	0.887478	0.034431	0.619436
	H11313	H	0.952071	0.086871	0.578459
	H11314	H	0.925143	0.027566	0.881101
	H11315	H	0.985558	0.100806	0.923170
	H11316	H	0.899201	0.095682	0.855777
	H11317	H	0.963607	0.027041	0.841846
	H11318	H	0.911448	0.097992	0.341884
	H11319	H	0.973970	0.035098	0.659616
	H11320	H	0.911384	0.096913	0.840666
	H11321	H	0.975773	0.028335	0.856787
	H11322	H	0.899245	0.096752	0.357051
	H11323	H	0.961793	0.034219	0.645159
	H11324	H	0.911486	0.026978	0.591180
	H11325	H	0.975835	0.096686	0.606021
	H11326	H	0.901082	0.034766	0.910352
	H11327	H	0.961824	0.090556	0.896003
	H11328	H	0.899257	0.028258	0.606137
	H11329	H	0.963613	0.097618	0.591634
	H11330	H	0.913263	0.033540	0.896184
	H11331	H	0.974042	0.089365	0.910113
	Co11332	Co	1.000057	0.125134	0.656743
	Co11333	Co	0.937543	0.062694	0.594412
	Co11334	Co	0.875006	0.000127	0.906849
	Co11335	Co	0.937519	0.062727	0.844626
	C11336	C	0.886852	0.094438	0.945684
	C11337	C	0.950378	0.037354	0.901957
	C11338	C	0.925752	0.093506	0.556583
	C11339	C	0.987183	0.025370	0.599432
	C11340	C	0.924686	0.087984	0.901516
	C11341	C	0.988161	0.030895	0.945740
	C11342	C	0.887871	0.099565	0.600526
	C11343	C	0.949386	0.032049	0.556318
	C11344	C	0.924667	0.037353	0.651630
	C11345	C	0.988249	0.094438	0.694692
	C11346	C	0.887902	0.025045	0.849875
	C11347	C	0.949372	0.093021	0.806630
	C11348	C	0.886894	0.030265	0.694905
	C11349	C	0.950403	0.087794	0.651537
	C11350	C	0.925702	0.031918	0.806345
	C11351	C	0.987225	0.099784	0.849629
	C11352	C	0.891662	0.093537	1.018601
	C11353	C	0.954195	0.031259	0.482952
	C11354	C	0.920838	0.093640	0.983194
	C11355	C	0.983386	0.031315	0.517461
	C11356	C	0.920893	0.031118	0.733155
	C11357	C	0.983419	0.093670	0.768151
	C11358	C	0.891686	0.031026	0.768081
	C11359	C	0.954214	0.093706	0.733605
	C11360	C	0.899036	0.092548	1.009127
	C11361	C	0.961568	0.030413	0.491645
	C11362	C	0.913454	0.094524	0.991791
	C11363	C	0.976004	0.032271	0.508591
	C11364	C	0.913498	0.030053	0.742215
	C11365	C	0.976055	0.092695	0.759509
	C11366	C	0.899084	0.031895	0.759339
	C11367	C	0.961610	0.094536	0.742692
	C11368	C	0.902239	0.094636	0.919881
	C11369	C	0.965775	0.028881	0.912839
	C11370	C	0.909281	0.096363	0.412788
	C11371	C	0.971779	0.033580	0.588740
	C11372	C	0.909222	0.095534	0.911649
	C11373	C	0.972748	0.029855	0.921065
	C11374	C	0.902291	0.095508	0.421327
	C11375	C	0.964789	0.032851	0.580586
	C11376	C	0.909277	0.028727	0.661963
	C11377	C	0.972834	0.095245	0.670480
	C11378	C	0.903300	0.033137	0.839717
	C11379	C	0.964837	0.092076	0.831446
	C11380	C	0.902300	0.029542	0.670253
	C11381	C	0.965833	0.095956	0.662254
	C11382	C	0.910281	0.032353	0.831405
	C11383	C	0.971839	0.091208	0.839534
	N11384	N	0.880756	0.102027	0.980599
	N11385	N	0.943883	0.042385	0.924235
	N11386	N	0.931855	0.085929	0.521515
	N11387	N	0.993679	0.020307	0.576555
	N11388	N	0.931165	0.082870	0.924522
	N11389	N	0.994277	0.023370	0.980321
	N11390	N	0.881402	0.104707	0.577157
	N11391	N	0.943276	0.039375	0.521767
	N11392	N	0.931152	0.042611	0.674362
	N11393	N	0.994355	0.101932	0.729699
	N11394	N	0.881410	0.020018	0.827106
	N11395	N	0.943266	0.085796	0.771631
	N11396	N	0.880762	0.023012	0.730003
	N11397	N	0.943909	0.082763	0.674632
	N11398	N	0.931812	0.039415	0.771527
	N11399	N	0.993683	0.105035	0.826812
	H11400	H	0.887408	0.215193	0.369638
	H11401	H	0.951957	0.162804	0.327668
	H11402	H	0.925082	0.222511	0.131697
	H11403	H	0.985482	0.149241	0.173115
	H11404	H	0.922979	0.211864	0.328172
	H11405	H	0.987566	0.159629	0.370213
	H11406	H	0.889406	0.225391	0.174292
	H11407	H	0.949907	0.153174	0.131791
	H11408	H	0.922975	0.163072	0.077706
	H11409	H	0.987495	0.215877	0.119589
	H11410	H	0.889533	0.149048	0.423561
	H11411	H	0.949946	0.222217	0.381675
	H11412	H	0.887458	0.160202	0.120789
	H11413	H	0.951920	0.212074	0.078197
	H11414	H	0.925026	0.152651	0.381893
	H11415	H	0.985484	0.225951	0.423707
	H11416	H	0.899263	0.221050	0.355993
	H11417	H	0.963571	0.153048	0.340994
	H11418	H	0.913254	0.216100	0.146233
	H11419	H	0.973929	0.160712	0.159939
	H11420	H	0.911483	0.222310	0.341406
	H11421	H	0.975788	0.154101	0.356072
	H11422	H	0.901054	0.214818	0.160814
	H11423	H	0.961719	0.159597	0.145599
	H11424	H	0.911449	0.152361	0.091576
	H11425	H	0.973909	0.215037	0.410143
	H11426	H	0.901048	0.160060	0.410467
	H11427	H	0.963498	0.223304	0.091415
	H11428	H	0.899225	0.153550	0.106380
	H11429	H	0.961690	0.216141	0.395511
	H11430	H	0.913268	0.158719	0.396247
	H11431	H	0.975677	0.221989	0.105526
	Co11432	Co	0.999978	0.250402	0.156766
	Co11433	Co	0.937464	0.187630	0.094659
	Co11434	Co	0.875079	0.125107	0.406639
	Co11435	Co	0.937501	0.187269	0.344864
	C11436	C	0.886825	0.219390	0.444976
	C11437	C	0.950334	0.162021	0.401717
	C11438	C	0.925662	0.218393	0.056340
	C11439	C	0.987107	0.150186	0.099302
	C11440	C	0.924648	0.212631	0.401982
	C11441	C	0.988175	0.155432	0.445144
	C11442	C	0.887828	0.224617	0.100388
	C11443	C	0.949323	0.157335	0.056535
	C11444	C	0.924629	0.162065	0.151357
	C11445	C	0.988112	0.219883	0.194931
	C11446	C	0.887893	0.150279	0.350123
	C11447	C	0.949332	0.217908	0.306633
	C11448	C	0.886849	0.156023	0.195562
	C11449	C	0.950311	0.213106	0.151612
	C11450	C	0.925644	0.156858	0.306341
	C11451	C	0.987122	0.224917	0.349938
	C11452	C	0.891654	0.218634	0.518045
	C11453	C	0.954104	0.156396	-0.016647
	C11454	C	0.920855	0.218815	0.483654
	C11455	C	0.983323	0.156173	0.017585
	C11456	C	0.920829	0.156149	0.233212
	C11457	C	0.983324	0.219099	0.268386
	C11458	C	0.891677	0.156479	0.268699
	C11459	C	0.954105	0.218946	0.233354
	C11460	C	0.899037	0.217746	0.509437
	C11461	C	0.961499	0.155447	-0.007773
	C11462	C	0.913467	0.219739	0.492570
	C11463	C	0.975933	0.157204	0.008990
	C11464	C	0.913452	0.155265	0.242461
	C11465	C	0.975923	0.218200	0.259385
	C11466	C	0.899053	0.157395	0.259641
	C11467	C	0.961501	0.220030	0.242318
	C11468	C	0.902275	0.219902	0.420568
	C11469	C	0.965773	0.154337	0.411939
	C11470	C	0.910251	0.217301	0.081426
	C11471	C	0.971715	0.158779	0.089192
	C11472	C	0.909272	0.220871	0.412311
	C11473	C	0.972754	0.155144	0.420453
	C11474	C	0.903261	0.216381	0.089978
	C11475	C	0.964737	0.158035	0.081165
	C11476	C	0.909239	0.154044	0.162324
	C11477	C	0.971699	0.216862	0.339602
	C11478	C	0.903284	0.158543	0.339965
	C11479	C	0.965725	0.221446	0.162013
	C11480	C	0.902262	0.154912	0.170533
	C11481	C	0.964721	0.217537	0.331209
	C11482	C	0.910265	0.157614	0.331681
	C11483	C	0.972698	0.220618	0.170225
	N11484	N	0.880719	0.226707	0.479595
	N11485	N	0.943840	0.167115	0.424526
	N11486	N	0.931779	0.210985	0.021675
	N11487	N	0.993593	0.145111	0.076686
	N11488	N	0.931132	0.207623	0.424650
	N11489	N	0.994297	0.147996	0.479743
	N11490	N	0.881334	0.229629	0.077460
	N11491	N	0.943181	0.164403	0.021830
	N11492	N	0.931110	0.167143	0.174057
	N11493	N	0.994257	0.227095	0.229563
	N11494	N	0.881390	0.145377	0.327161
	N11495	N	0.943199	0.210631	0.272075
	N11496	N	0.880719	0.148665	0.230257
	N11497	N	0.943831	0.207778	0.174880
	N11498	N	0.931760	0.164128	0.271368
	N11499	N	0.993612	0.230017	0.326854
	H11500	H	0.887412	0.215074	0.870160
	H11501	H	0.951910	0.162811	0.828533
	H11502	H	0.925082	0.222486	0.632117
	H11503	H	0.985570	0.149481	0.673815
	H11504	H	0.922999	0.211918	0.828389
	H11505	H	0.987520	0.159563	0.869055
	H11506	H	0.889473	0.225590	0.673741
	H11507	H	0.949908	0.152893	0.631907
	H11508	H	0.922990	0.163339	0.578096
	H11509	H	0.987606	0.215485	0.620448
	H11510	H	0.889462	0.149897	0.923329
	H11511	H	0.949937	0.222102	0.881809
	H11512	H	0.887475	0.159586	0.618714
	H11513	H	0.951961	0.211910	0.578139
	H11514	H	0.924974	0.153254	0.881549
	H11515	H	0.985541	0.226012	0.923276
	H11516	H	0.899142	0.220949	0.856223
	H11517	H	0.963483	0.152025	0.841552
	H11518	H	0.913262	0.216415	0.646213
	H11519	H	0.973978	0.159834	0.660759
	H11520	H	0.911408	0.222481	0.841032
	H11521	H	0.975726	0.153308	0.855607
	H11522	H	0.901038	0.215355	0.660717
	H11523	H	0.961752	0.158513	0.646092
	H11524	H	0.911429	0.153032	0.591094
	H11525	H	0.975754	0.221462	0.606123
	H11526	H	0.901027	0.159750	0.910254
	H11527	H	0.961710	0.216172	0.895810
	H11528	H	0.899223	0.154096	0.605428
	H11529	H	0.963539	0.222331	0.591277
	H11530	H	0.913218	0.158607	0.895440
	H11531	H	0.973896	0.214901	0.910722
	Co11532	Co	1.000023	0.250154	0.656845
	Co11533	Co	0.937499	0.187481	0.594550
	Co11534	Co	0.874977	0.125051	0.906893
	Co11535	Co	0.937490	0.187630	0.844907
	C11536	C	0.886827	0.219303	0.945553
	C11537	C	0.950313	0.162165	0.901664
	C11538	C	0.925686	0.218182	0.556802
	C11539	C	0.987180	0.150182	0.600096
	C11540	C	0.924633	0.212962	0.901432
	C11541	C	0.988129	0.155436	0.944544
	C11542	C	0.887837	0.224644	0.599761
	C11543	C	0.949331	0.156999	0.556602
	C11544	C	0.924643	0.162350	0.651312
	C11545	C	0.988150	0.219554	0.695737
	C11546	C	0.887810	0.150534	0.849842
	C11547	C	0.949330	0.218120	0.806492
	C11548	C	0.886808	0.155519	0.694656
	C11549	C	0.950342	0.212759	0.651834
	C11550	C	0.925641	0.157212	0.806466
	C11551	C	0.987133	0.224840	0.850136
	C11552	C	0.891623	0.218608	1.018814
	C11553	C	0.954135	0.156125	0.483429
	C11554	C	0.920845	0.219015	0.983161
	C11555	C	0.983381	0.156274	0.518570
	C11556	C	0.920812	0.156462	0.733049
	C11557	C	0.983354	0.218843	0.768692
	C11558	C	0.891629	0.156565	0.767846
	C11559	C	0.954116	0.218761	0.733339
	C11560	C	0.899015	0.217635	1.009845
	C11561	C	0.961534	0.155359	0.492287
	C11562	C	0.913450	0.219800	0.992291
	C11563	C	0.975970	0.157224	0.509711
	C11564	C	0.913432	0.155475	0.741985
	C11565	C	0.975945	0.217804	0.759786
	C11566	C	0.899003	0.157348	0.759114
	C11567	C	0.961523	0.219675	0.742214
	C11568	C	0.902206	0.219862	0.920419
	C11569	C	0.965722	0.153820	0.912027
	C11570	C	0.910248	0.217519	0.581703
	C11571	C	0.971750	0.158265	0.590002
	C11572	C	0.909197	0.220890	0.912015
	C11573	C	0.972712	0.154597	0.920130
	C11574	C	0.903251	0.216679	0.589920
	C11575	C	0.964763	0.157414	0.581530
	C11576	C	0.909218	0.154408	0.661890
	C11577	C	0.972726	0.220188	0.670567
	C11578	C	0.903230	0.158345	0.839424
	C11579	C	0.964734	0.217452	0.831471
	C11580	C	0.902217	0.155116	0.670213
	C11581	C	0.965754	0.220985	0.661978
	C11582	C	0.910219	0.157521	0.831003
	C11583	C	0.971701	0.216571	0.839915
	N11584	N	0.880698	0.226620	0.980122
	N11585	N	0.943815	0.167330	0.924533
	N11586	N	0.931796	0.210785	0.521538
	N11587	N	0.993657	0.145045	0.576828
	N11588	N	0.931119	0.207813	0.924382
	N11589	N	0.994248	0.148113	0.979659
	N11590	N	0.881352	0.229681	0.577029
	N11591	N	0.943189	0.164205	0.521663
	N11592	N	0.931115	0.167416	0.674518
	N11593	N	0.994285	0.226941	0.730130
	N11594	N	0.881347	0.145186	0.826813
	N11595	N	0.943199	0.210784	0.771746
	N11596	N	0.880704	0.148060	0.729511
	N11597	N	0.943831	0.207759	0.674631
	N11598	N	0.931772	0.164416	0.771643
	N11599	N	0.993624	0.229948	0.827448
	H11600	H	0.887443	0.340079	0.370186
	H11601	H	0.952053	0.288485	0.328311
	H11602	H	0.925038	0.347144	0.132336
	H11603	H	0.985488	0.274888	0.173143
	H11604	H	0.922970	0.336758	0.327594
	H11605	H	0.987575	0.285114	0.369638
	H11606	H	0.889451	0.350970	0.174091
	H11607	H	0.949966	0.277910	0.131233
	H11608	H	0.922945	0.288156	0.078483
	H11609	H	0.987535	0.340769	0.119547
	H11610	H	0.889519	0.274231	0.423820
	H11611	H	0.949936	0.347451	0.381585
	H11612	H	0.887510	0.284757	0.120312
	H11613	H	0.951991	0.337289	0.077499
	H11614	H	0.925090	0.277619	0.381999
	H11615	H	0.985560	0.350707	0.423489
	H11616	H	0.899169	0.346274	0.355836
	H11617	H	0.961766	0.283897	0.645681
	H11618	H	0.913243	0.341161	0.145544
	H11619	H	0.973933	0.285394	0.160666
	H11620	H	0.911406	0.347220	0.340529
	H11621	H	0.973975	0.285126	0.660551
	H11622	H	0.901018	0.339910	0.160293
	H11623	H	0.961735	0.284150	0.145784
	H11624	H	0.911522	0.277129	0.091417
	H11625	H	0.973933	0.340468	0.410481
	H11626	H	0.901116	0.285107	0.410734
	H11627	H	0.963550	0.347391	0.090691
	H11628	H	0.899282	0.278183	0.105844
	H11629	H	0.961719	0.341444	0.395795
	H11630	H	0.913304	0.283796	0.395869
	H11631	H	0.975757	0.346290	0.105789
	Co11632	Co	1.000038	0.375075	0.156526
	Co11633	Co	0.937526	0.312636	0.094658
	Co11634	Co	0.874983	0.250041	0.406929
	Co11635	Co	0.937502	0.312676	0.344333
	C11636	C	0.886825	0.344479	0.445177
	C11637	C	0.950366	0.287340	0.401142
	C11638	C	0.925617	0.343004	0.056432
	C11639	C	0.987140	0.275585	0.099840
	C11640	C	0.924649	0.337730	0.400844
	C11641	C	0.988212	0.280802	0.444781
	C11642	C	0.887831	0.349955	0.100232
	C11643	C	0.949346	0.282121	0.056068
	C11644	C	0.924672	0.287352	0.151511
	C11645	C	0.988166	0.344703	0.194829
	C11646	C	0.887876	0.275111	0.350434
	C11647	C	0.949340	0.343172	0.306046
	C11648	C	0.886866	0.280429	0.195481
	C11649	C	0.950353	0.338144	0.151014
	C11650	C	0.925726	0.281910	0.306655
	C11651	C	0.987162	0.349872	0.349572
	C11652	C	0.891659	0.343813	0.518229
	C11653	C	0.954164	0.281242	-0.017197
	C11654	C	0.920824	0.343699	0.482668
	C11655	C	0.983339	0.281444	0.018084
	C11656	C	0.920877	0.281230	0.233308
	C11657	C	0.983350	0.344071	0.268093
	C11658	C	0.891703	0.281081	0.268665
	C11659	C	0.954150	0.343962	0.233042
	C11660	C	0.899037	0.342918	0.509261
	C11661	C	0.961553	0.280238	-0.007764
	C11662	C	0.913461	0.344684	0.491925
	C11663	C	0.975963	0.282255	0.009418
	C11664	C	0.913496	0.280194	0.242183
	C11665	C	0.975950	0.342992	0.259417
	C11666	C	0.899066	0.281953	0.259493
	C11667	C	0.961526	0.344815	0.242111
	C11668	C	0.902235	0.345011	0.420010
	C11669	C	0.964784	0.282766	0.581098
	C11670	C	0.910204	0.342396	0.081164
	C11671	C	0.971730	0.283741	0.089784
	C11672	C	0.909225	0.345723	0.411669
	C11673	C	0.971784	0.283559	0.589635
	C11674	C	0.903238	0.341515	0.089587
	C11675	C	0.964743	0.282793	0.081338
	C11676	C	0.909291	0.278790	0.161856
	C11677	C	0.971719	0.341878	0.339690
	C11678	C	0.903296	0.283295	0.339777
	C11679	C	0.965747	0.345903	0.161635
	C11680	C	0.902291	0.279491	0.170459
	C11681	C	0.964736	0.342668	0.331142
	C11682	C	0.910295	0.282568	0.331295
	C11683	C	0.972731	0.345098	0.170123
	N11684	N	0.880704	0.351851	0.480146
	N11685	N	0.943899	0.292562	0.424097
	N11686	N	0.931756	0.335714	0.021549
	N11687	N	0.993641	0.270604	0.076863
	N11688	N	0.931111	0.332721	0.423855
	N11689	N	0.994310	0.273390	0.479761
	N11690	N	0.881328	0.355122	0.077464
	N11691	N	0.943221	0.289454	0.021358
	N11692	N	0.931154	0.292399	0.174542
	N11693	N	0.994307	0.351796	0.229466
	N11694	N	0.881391	0.270142	0.327360
	N11695	N	0.943209	0.335931	0.271234
	N11696	N	0.880749	0.273222	0.230062
	N11697	N	0.943845	0.333076	0.173944
	N11698	N	0.931826	0.289307	0.271299
	N11699	N	0.993647	0.354799	0.326839
	H11700	H	0.887332	0.339869	0.870489
	H11701	H	0.951985	0.288069	0.827542
	H11702	H	0.925041	0.347138	0.630509
	H11703	H	0.985472	0.274511	0.673092
	H11704	H	0.922989	0.336720	0.828329
	H11705	H	0.987524	0.284741	0.869790
	H11706	H	0.889506	0.350855	0.673216
	H11707	H	0.950024	0.278294	0.631628
	H11708	H	0.922918	0.288574	0.577885
	H11709	H	0.987567	0.340680	0.619179
	H11710	H	0.889478	0.274167	0.923985
	H11711	H	0.949950	0.347083	0.882000
	H11712	H	0.887410	0.284771	0.620566
	H11713	H	0.951978	0.336885	0.578468
	H11714	H	0.925029	0.277558	0.881579
	H11715	H	0.985551	0.350646	0.922933
	H11716	H	0.899190	0.346503	0.856001
	H11717	H	0.963586	0.277216	0.841488
	H11718	H	0.913253	0.341363	0.646290
	H11719	H	0.975794	0.279106	0.355235
	H11720	H	0.911412	0.347499	0.840873
	H11721	H	0.975802	0.278659	0.855820
	H11722	H	0.901045	0.340213	0.660360
	H11723	H	0.963606	0.277877	0.340619
	H11724	H	0.913217	0.283879	0.896396
	H11725	H	0.973961	0.339692	0.909804
	H11726	H	0.899157	0.279220	0.605966
	H11727	H	0.963486	0.347813	0.591196
	H11728	H	0.901039	0.284765	0.910882
	H11729	H	0.961726	0.340773	0.895691
	H11730	H	0.911335	0.277889	0.590838
	H11731	H	0.975700	0.347105	0.605699
	Co11732	Co	1.000041	0.375199	0.656503
	Co11733	Co	0.937499	0.312516	0.594184
	Co11734	Co	0.874996	0.249851	0.906691
	Co11735	Co	0.937460	0.312419	0.844500
	C11736	C	0.886777	0.344308	0.945732
	C11737	C	0.950331	0.287245	0.901288
	C11738	C	0.925670	0.343068	0.555930
	C11739	C	0.987190	0.275470	0.599799
	C11740	C	0.924599	0.337803	0.901641
	C11741	C	0.988143	0.280674	0.944778
	C11742	C	0.887861	0.349937	0.600094
	C11743	C	0.949374	0.282363	0.556213
	C11744	C	0.924609	0.287416	0.651428
	C11745	C	0.988152	0.344731	0.694491
	C11746	C	0.887822	0.275056	0.850435
	C11747	C	0.949308	0.343048	0.806828
	C11748	C	0.886779	0.280483	0.695553
	C11749	C	0.950325	0.337925	0.651910
	C11750	C	0.925639	0.281874	0.806293
	C11751	C	0.987165	0.349625	0.849449
	C11752	C	0.891575	0.343700	1.018570
	C11753	C	0.954209	0.281499	0.482936
	C11754	C	0.920832	0.343675	0.983160
	C11755	C	0.983362	0.281606	0.517998
	C11756	C	0.920791	0.281317	0.733174
	C11757	C	0.983343	0.343906	0.767682
	C11758	C	0.891617	0.281252	0.768715
	C11759	C	0.954116	0.343755	0.733631
	C11760	C	0.898995	0.342742	1.009328
	C11761	C	0.961573	0.280606	0.491889
	C11762	C	0.913424	0.344581	0.991870
	C11763	C	0.975996	0.282533	0.509159
	C11764	C	0.913430	0.280503	0.742199
	C11765	C	0.975952	0.342919	0.758893
	C11766	C	0.898999	0.282318	0.759740
	C11767	C	0.961514	0.344717	0.742425
	C11768	C	0.902219	0.345135	0.920326
	C11769	C	0.965784	0.278980	0.912179
	C11770	C	0.910284	0.342584	0.581265
	C11771	C	0.972800	0.280329	0.420089
	C11772	C	0.909195	0.345885	0.911684
	C11773	C	0.972772	0.279862	0.920326
	C11774	C	0.903282	0.341760	0.589634
	C11775	C	0.965798	0.279468	0.411539
	C11776	C	0.910241	0.282712	0.831440
	C11777	C	0.971734	0.341447	0.839232
	C11778	C	0.902189	0.280267	0.670398
	C11779	C	0.965716	0.346114	0.662034
	C11780	C	0.903246	0.283347	0.839889
	C11781	C	0.964746	0.342329	0.831352
	C11782	C	0.909183	0.279479	0.662098
	C11783	C	0.972699	0.345425	0.670094
	N11784	N	0.880656	0.351828	0.980503
	N11785	N	0.943854	0.292388	0.924300
	N11786	N	0.931776	0.335733	0.521204
	N11787	N	0.993663	0.270320	0.576750
	N11788	N	0.931091	0.332656	0.924482
	N11789	N	0.994280	0.273502	0.979654
	N11790	N	0.881362	0.354987	0.576969
	N11791	N	0.943268	0.289620	0.521111
	N11792	N	0.931097	0.292427	0.673978
	N11793	N	0.994299	0.351945	0.729251
	N11794	N	0.881341	0.269989	0.827270
	N11795	N	0.943181	0.335765	0.771760
	N11796	N	0.880667	0.273114	0.730344
	N11797	N	0.943841	0.332797	0.674645
	N11798	N	0.931762	0.289233	0.771408
	N11799	N	0.993657	0.354791	0.826634
	H11800	H	0.887465	0.465235	0.370237
	H11801	H	0.951966	0.412845	0.328189
	H11802	H	0.925105	0.472462	0.132218
	H11803	H	0.985577	0.399547	0.173481
	H11804	H	0.922993	0.461446	0.328030
	H11805	H	0.987614	0.410252	0.369754
	H11806	H	0.889428	0.475240	0.174082
	H11807	H	0.949927	0.402715	0.131177
	H11808	H	0.923030	0.413253	0.077735
	H11809	H	0.987577	0.465332	0.119353
	H11810	H	0.889562	0.399200	0.423561
	H11811	H	0.949935	0.472215	0.381225
	H11812	H	0.887448	0.409889	0.119409
	H11813	H	0.952031	0.461945	0.077925
	H11814	H	0.925096	0.402324	0.380894
	H11815	H	0.985597	0.475872	0.423337
	H11816	H	0.901070	0.464810	0.660554
	H11817	H	0.961767	0.408834	0.645612
	H11818	H	0.913288	0.466053	0.145847
	H11819	H	0.973948	0.409619	0.160370
	H11820	H	0.913305	0.465732	0.645704
	H11821	H	0.973947	0.410120	0.659870
	H11822	H	0.901050	0.465051	0.161277
	H11823	H	0.961698	0.408642	0.145363
	H11824	H	0.911485	0.402832	0.090705
	H11825	H	0.975815	0.471205	0.106030
	H11826	H	0.901113	0.409586	0.409647
	H11827	H	0.961751	0.466221	0.395960
	H11828	H	0.899245	0.403781	0.105645
	H11829	H	0.963579	0.472414	0.091462
	H11830	H	0.913358	0.408423	0.394670
	H11831	H	0.973995	0.465352	0.410799
	Co11832	Co	1.000034	0.499994	0.156480
	Co11833	Co	0.937513	0.437714	0.094123
	Co11834	Co	0.875030	0.375224	0.407104
	Co11835	Co	0.937520	0.437350	0.344132
	C11836	C	0.886856	0.469586	0.445331
	C11837	C	0.950352	0.412031	0.401598
	C11838	C	0.925667	0.468115	0.056712
	C11839	C	0.987176	0.400273	0.100080
	C11840	C	0.924657	0.462415	0.401269
	C11841	C	0.988202	0.405838	0.444784
	C11842	C	0.887814	0.474565	0.100539
	C11843	C	0.949339	0.407065	0.055987
	C11844	C	0.924708	0.412282	0.150828
	C11845	C	0.988187	0.469526	0.194725
	C11846	C	0.887923	0.400247	0.349922
	C11847	C	0.949357	0.468074	0.306057
	C11848	C	0.886869	0.405788	0.195170
	C11849	C	0.950397	0.462776	0.151226
	C11850	C	0.925732	0.406689	0.305773
	C11851	C	0.987199	0.474808	0.349535
	C11852	C	0.891680	0.468968	0.518668
	C11853	C	0.954147	0.406277	-0.017193
	C11854	C	0.920868	0.468661	0.483007
	C11855	C	0.983358	0.405990	0.018314
	C11856	C	0.920902	0.406041	0.232528
	C11857	C	0.983403	0.468886	0.268099
	C11858	C	0.891704	0.406298	0.268100
	C11859	C	0.954165	0.468769	0.233066
	C11860	C	0.899062	0.467864	0.509766
	C11861	C	0.961542	0.405260	-0.008046
	C11862	C	0.913489	0.469511	0.492125
	C11863	C	0.975960	0.406955	0.009503
	C11864	C	0.913511	0.405103	0.241383
	C11865	C	0.976000	0.467907	0.259608
	C11866	C	0.899075	0.407038	0.258986
	C11867	C	0.961573	0.469704	0.242403
	C11868	C	0.903295	0.466512	0.589953
	C11869	C	0.964762	0.407597	0.580944
	C11870	C	0.910251	0.467465	0.081756
	C11871	C	0.971719	0.408115	0.089710
	C11872	C	0.910299	0.467158	0.581296
	C11873	C	0.971752	0.408398	0.589186
	C11874	C	0.903253	0.466825	0.090474
	C11875	C	0.964731	0.407415	0.081217
	C11876	C	0.909273	0.404140	0.161438
	C11877	C	0.972783	0.470086	0.170436
	C11878	C	0.903322	0.408094	0.338920
	C11879	C	0.964788	0.467572	0.331654
	C11880	C	0.902281	0.404922	0.169947
	C11881	C	0.965808	0.470958	0.162169
	C11882	C	0.910322	0.407188	0.330440
	C11883	C	0.971773	0.466807	0.339961
	N11884	N	0.880735	0.476805	0.480616
	N11885	N	0.943870	0.417230	0.424268
	N11886	N	0.931770	0.460821	0.021265
	N11887	N	0.993682	0.395369	0.076906
	N11888	N	0.931136	0.457474	0.423807
	N11889	N	0.994320	0.398422	0.479601
	N11890	N	0.881338	0.479765	0.077522
	N11891	N	0.943223	0.414407	0.021175
	N11892	N	0.931186	0.417283	0.173962
	N11893	N	0.994323	0.476787	0.229321
	N11894	N	0.881425	0.395327	0.327443
	N11895	N	0.943220	0.460745	0.271160
	N11896	N	0.880753	0.398492	0.230201
	N11897	N	0.943902	0.457691	0.174008
	N11898	N	0.931854	0.414085	0.270999
	N11899	N	0.993688	0.479857	0.326469
	H11900	H	0.887443	0.465505	0.869877
	H11901	H	0.951961	0.413149	0.827460
	H11902	H	0.925111	0.472438	0.630752
	H11903	H	0.985505	0.399280	0.673310
	H11904	H	0.922930	0.461677	0.827944
	H11905	H	0.987486	0.408928	0.869624
	H11906	H	0.889560	0.475857	0.673929
	H11907	H	0.949911	0.402762	0.631618
	H11908	H	0.922984	0.413189	0.577423
	H11909	H	0.987576	0.465025	0.618751
	H11910	H	0.889489	0.398736	0.924049
	H11911	H	0.949982	0.472200	0.880982
	H11912	H	0.887415	0.410481	0.620753
	H11913	H	0.951982	0.462055	0.576941
	H11914	H	0.925006	0.402933	0.881713
	H11915	H	0.985451	0.475509	0.922397
	H11916	H	0.899220	0.471366	0.856473
	H11917	H	0.963567	0.402577	0.841134
	H11918	H	0.911415	0.472409	0.341199
	H11919	H	0.975807	0.404174	0.355418
	H11920	H	0.911438	0.472808	0.842072
	H11921	H	0.975788	0.403544	0.855888
	H11922	H	0.899216	0.471331	0.356328
	H11923	H	0.963580	0.402608	0.340902
	H11924	H	0.911405	0.402525	0.591278
	H11925	H	0.975783	0.471383	0.604873
	H11926	H	0.900999	0.409961	0.911407
	H11927	H	0.961741	0.466309	0.894632
	H11928	H	0.899159	0.403622	0.606482
	H11929	H	0.963566	0.472437	0.589811
	H11930	H	0.913264	0.408873	0.896436
	H11931	H	0.973949	0.464698	0.909128
	Co11932	Co	0.999990	0.499767	0.656474
	Co11933	Co	0.937511	0.437450	0.594332
	Co11934	Co	0.874927	0.375001	0.907340
	Co11935	Co	0.937476	0.437588	0.844362
	C11936	C	0.886818	0.469555	0.945584
	C11937	C	0.950358	0.412348	0.901186
	C11938	C	0.925710	0.468072	0.555882
	C11939	C	0.987165	0.400328	0.599662
	C11940	C	0.924612	0.462898	0.901428
	C11941	C	0.988141	0.405305	0.944913
	C11942	C	0.887891	0.475067	0.600458
	C11943	C	0.949357	0.406929	0.556311
	C11944	C	0.924623	0.412176	0.651240
	C11945	C	0.988181	0.469167	0.694200
	C11946	C	0.887834	0.399933	0.850508
	C11947	C	0.949352	0.467902	0.805613
	C11948	C	0.886796	0.405840	0.695760
	C11949	C	0.950348	0.462759	0.650515
	C11950	C	0.925624	0.407089	0.806225
	C11951	C	0.987132	0.474486	0.849196
	C11952	C	0.891620	0.468691	1.018936
	C11953	C	0.954162	0.406040	0.483175
	C11954	C	0.920821	0.468845	0.983585
	C11955	C	0.983373	0.406434	0.517871
	C11956	C	0.920802	0.406267	0.733236
	C11957	C	0.983326	0.468391	0.767203
	C11958	C	0.891618	0.406236	0.768988
	C11959	C	0.954178	0.468789	0.732155
	C11960	C	0.899007	0.467792	1.010178
	C11961	C	0.961538	0.405241	0.491941
	C11962	C	0.913451	0.469687	0.992666
	C11963	C	0.975978	0.407312	0.508860
	C11964	C	0.913426	0.405307	0.742544
	C11965	C	0.975963	0.467625	0.758227
	C11966	C	0.899011	0.407181	0.760225
	C11967	C	0.961539	0.469655	0.740888
	C11968	C	0.902234	0.470184	0.921127
	C11969	C	0.965782	0.404098	0.911855
	C11970	C	0.909244	0.470829	0.412079
	C11971	C	0.972771	0.405138	0.419787
	C11972	C	0.909228	0.470997	0.912707
	C11973	C	0.972761	0.404791	0.920206
	C11974	C	0.902254	0.470004	0.420590
	C11975	C	0.965774	0.404196	0.411605
	C11976	C	0.909200	0.404133	0.662263
	C11977	C	0.972760	0.470076	0.669264
	C11978	C	0.903239	0.408413	0.840643
	C11979	C	0.964749	0.467458	0.830008
	C11980	C	0.902207	0.404948	0.670785
	C11981	C	0.965758	0.470859	0.660683
	C11982	C	0.910233	0.407561	0.831850
	C11983	C	0.971748	0.466376	0.838462
	N11984	N	0.880692	0.476827	0.979956
	N11985	N	0.943876	0.417423	0.923993
	N11986	N	0.931819	0.460687	0.521057
	N11987	N	0.993645	0.395243	0.576630
	N11988	N	0.931089	0.457752	0.924276
	N11989	N	0.994301	0.398279	0.979661
	N11990	N	0.881384	0.479945	0.577546
	N11991	N	0.943233	0.414207	0.521659
	N11992	N	0.931098	0.417269	0.674111
	N11993	N	0.994268	0.476578	0.729456
	N11994	N	0.881352	0.394986	0.827561
	N11995	N	0.943235	0.460590	0.770870
	N11996	N	0.880672	0.398452	0.730643
	N11997	N	0.943886	0.457622	0.673519
	N11998	N	0.931743	0.414348	0.771210
	N11999	N	0.993603	0.479684	0.826391
	H12000	H	0.887415	0.590608	0.369862
	H12001	H	0.951951	0.537900	0.327538
	H12002	H	0.925054	0.596987	0.131531
	H12003	H	0.985540	0.524051	0.174041
	H12004	H	0.922941	0.586562	0.327488
	H12005	H	0.987629	0.534699	0.369983
	H12006	H	0.889505	0.600234	0.173459
	H12007	H	0.949961	0.527988	0.131591
	H12008	H	0.922922	0.538238	0.077957
	H12009	H	0.987469	0.590234	0.119571
	H12010	H	0.889461	0.524010	0.423066
	H12011	H	0.949901	0.597051	0.382393
	H12012	H	0.887461	0.534707	0.120713
	H12013	H	0.951893	0.587270	0.078561
	H12014	H	0.925098	0.527388	0.381166
	H12015	H	0.985411	0.601077	0.422939
	H12016	H	0.899186	0.596148	0.355807
	H12017	H	0.963614	0.527865	0.340510
	H12018	H	0.911407	0.597355	-0.159300
	H12019	H	0.975805	0.528513	-0.143790
	H12020	H	0.911403	0.597220	0.340843
	H12021	H	0.975826	0.529201	0.355436
	H12022	H	0.899210	0.596383	-0.144543
	H12023	H	0.963576	0.527597	-0.158580
	H12024	H	0.911456	0.527723	0.091531
	H12025	H	0.975665	0.596036	0.105230
	H12026	H	0.901080	0.535074	0.411205
	H12027	H	0.961697	0.591930	0.395865
	H12028	H	0.899196	0.528956	0.106473
	H12029	H	0.963409	0.597602	0.090899
	H12030	H	0.913279	0.533666	0.396590
	H12031	H	0.973895	0.590287	0.410036
	Co12032	Co	0.999983	0.624939	0.156524
	Co12033	Co	0.937453	0.562533	0.094270
	Co12034	Co	0.874982	0.499959	0.407665
	Co12035	Co	0.937478	0.562388	0.344547
	C12036	C	0.886822	0.594523	0.445311
	C12037	C	0.950344	0.537264	0.401019
	C12038	C	0.925644	0.593067	0.056045
	C12039	C	0.987179	0.525178	0.100248
	C12040	C	0.924603	0.587611	0.401117
	C12041	C	0.988227	0.530644	0.445218
	C12042	C	0.887837	0.599500	0.100003
	C12043	C	0.949373	0.532287	0.056439
	C12044	C	0.924611	0.537065	0.151400
	C12045	C	0.988105	0.594443	0.194474
	C12046	C	0.887860	0.525148	0.350085
	C12047	C	0.949273	0.593082	0.306898
	C12048	C	0.886854	0.530598	0.195532
	C12049	C	0.950274	0.587985	0.152017
	C12050	C	0.925694	0.531574	0.306171
	C12051	C	0.987068	0.599971	0.349358
	C12052	C	0.891630	0.593587	0.518307
	C12053	C	0.954169	0.531498	-0.016646
	C12054	C	0.920814	0.593708	0.482853
	C12055	C	0.983380	0.531096	0.018615
	C12056	C	0.920847	0.530920	0.233331
	C12057	C	0.983262	0.593741	0.267489
	C12058	C	0.891660	0.531366	0.268851
	C12059	C	0.954089	0.593935	0.233663
	C12060	C	0.899010	0.592541	0.509247
	C12061	C	0.961571	0.530422	-0.007797
	C12062	C	0.913430	0.594544	0.491739
	C12063	C	0.975986	0.532031	0.009828
	C12064	C	0.913462	0.530231	0.242778
	C12065	C	0.975878	0.592774	0.258728
	C12066	C	0.899051	0.532422	0.260104
	C12067	C	0.961460	0.594891	0.242153
	C12068	C	0.902216	0.594979	0.420184
	C12069	C	0.965810	0.529394	0.411293
	C12070	C	0.909204	0.595934	-0.088460
	C12071	C	0.972777	0.529812	-0.079378
	C12072	C	0.909200	0.595796	0.411618
	C12073	C	0.972798	0.530187	0.419780
	C12074	C	0.902216	0.595222	-0.079914
	C12075	C	0.965796	0.529123	-0.088002
	C12076	C	0.909236	0.529187	0.162388
	C12077	C	0.972654	0.595061	0.169822
	C12078	C	0.903288	0.533395	0.340361
	C12079	C	0.964697	0.592686	0.331092
	C12080	C	0.902252	0.530152	0.170754
	C12081	C	0.965649	0.595916	0.161535
	C12082	C	0.910273	0.532389	0.332038
	C12083	C	0.971684	0.591805	0.339258
	N12084	N	0.880713	0.601857	0.480099
	N12085	N	0.943876	0.542383	0.424049
	N12086	N	0.931751	0.585677	0.021236
	N12087	N	0.993660	0.520147	0.077229
	N12088	N	0.931100	0.582560	0.424019
	N12089	N	0.994344	0.523180	0.479931
	N12090	N	0.881345	0.604550	0.077145
	N12091	N	0.943237	0.539509	0.021421
	N12092	N	0.931103	0.542222	0.174020
	N12093	N	0.994214	0.601888	0.229513
	N12094	N	0.881373	0.520010	0.327241
	N12095	N	0.943161	0.585787	0.272000
	N12096	N	0.880723	0.523113	0.230218
	N12097	N	0.943805	0.582803	0.174798
	N12098	N	0.931801	0.538964	0.271149
	N12099	N	0.993536	0.605127	0.326446
	H12100	H	0.887456	0.590018	0.869494
	H12101	H	0.952019	0.538372	0.828225
	H12102	H	0.925007	0.597223	0.631353
	H12103	H	0.985521	0.524155	0.672914
	H12104	H	0.923052	0.586915	0.827642
	H12105	H	0.987579	0.534645	0.870228
	H12106	H	0.889416	0.600061	0.673810
	H12107	H	0.950015	0.528607	0.631288
	H12108	H	0.923062	0.538251	0.578029
	H12109	H	0.987509	0.590655	0.619208
	H12110	H	0.889543	0.524840	0.924222
	H12111	H	0.949955	0.597327	0.880826
	H12112	H	0.887521	0.534661	0.619580
	H12113	H	0.951973	0.587312	0.577418
	H12114	H	0.925131	0.527377	0.880987
	H12115	H	0.985514	0.600985	0.923015
	H12116	H	0.901036	0.590091	1.160390
	H12117	H	0.961742	0.533949	1.145560
	H12118	H	0.913232	0.590968	0.645275
	H12119	H	0.973987	0.534913	0.659707
	H12120	H	0.913265	0.591300	1.145454
	H12121	H	0.973959	0.534754	1.160737
	H12122	H	0.901031	0.589536	0.660134
	H12123	H	0.961763	0.533963	0.644982
	H12124	H	0.913331	0.533953	0.895516
	H12125	H	0.975787	0.596530	0.605659
	H12126	H	0.899280	0.528785	0.605657
	H12127	H	0.961708	0.591403	0.895749
	H12128	H	0.901073	0.535343	0.910420
	H12129	H	0.963564	0.597713	0.590895
	H12130	H	0.911454	0.527231	0.591206
	H12131	H	0.973928	0.590218	0.910131
	Co12132	Co	0.999973	0.625193	0.656434
	Co12133	Co	0.937491	0.562841	0.594397
	Co12134	Co	0.875050	0.500302	0.907159
	Co12135	Co	0.937521	0.562593	0.844271
	C12136	C	0.886806	0.594266	0.944762
	C12137	C	0.950383	0.537419	0.901711
	C12138	C	0.925624	0.593168	0.556086
	C12139	C	0.987167	0.525125	0.599714
	C12140	C	0.924621	0.587570	0.901247
	C12141	C	0.988173	0.530425	0.945508
	C12142	C	0.887844	0.599504	0.600033
	C12143	C	0.949377	0.532431	0.555973
	C12144	C	0.924691	0.537322	0.651482
	C12145	C	0.988154	0.594657	0.694820
	C12146	C	0.887873	0.525730	0.850227
	C12147	C	0.949334	0.593205	0.805895
	C12148	C	0.886888	0.530715	0.695242
	C12149	C	0.950348	0.588056	0.650989
	C12150	C	0.925720	0.531961	0.805920
	C12151	C	0.987156	0.599992	0.849769
	C12152	C	0.891626	0.593549	1.018073
	C12153	C	0.954181	0.531455	0.482630
	C12154	C	0.920827	0.593769	0.982872
	C12155	C	0.983393	0.531329	0.518149
	C12156	C	0.920874	0.531112	0.732973
	C12157	C	0.983338	0.594029	0.768114
	C12158	C	0.891708	0.531478	0.768344
	C12159	C	0.954152	0.593978	0.732765
	C12160	C	0.899016	0.592873	1.009186
	C12161	C	0.961575	0.530541	0.491520
	C12162	C	0.913438	0.594741	0.991844
	C12163	C	0.976013	0.532372	0.508932
	C12164	C	0.913505	0.530219	0.742028
	C12165	C	0.975961	0.592982	0.759166
	C12166	C	0.899076	0.532286	0.759379
	C12167	C	0.961530	0.594880	0.741849
	C12168	C	0.903241	0.591638	1.089547
	C12169	C	0.964782	0.532491	1.081446
	C12170	C	0.910213	0.592219	0.580770
	C12171	C	0.971770	0.533442	0.589090
	C12172	C	0.910225	0.592530	1.081239
	C12173	C	0.971760	0.533192	1.089981
	C12174	C	0.903233	0.591291	0.589299
	C12175	C	0.964777	0.532777	0.580649
	C12176	C	0.910298	0.532668	0.831115
	C12177	C	0.972761	0.595327	0.670060
	C12178	C	0.902280	0.529877	0.670410
	C12179	C	0.964722	0.592534	0.831077
	C12180	C	0.903304	0.533488	0.839656
	C12181	C	0.965774	0.596165	0.661638
	C12182	C	0.909279	0.528966	0.661978
	C12183	C	0.971723	0.591754	0.839294
	N12184	N	0.880677	0.601473	0.979888
	N12185	N	0.943878	0.542436	0.924438
	N12186	N	0.931762	0.585819	0.521099
	N12187	N	0.993659	0.519933	0.576903
	N12188	N	0.931092	0.582509	0.924100
	N12189	N	0.994306	0.523175	0.979934
	N12190	N	0.881368	0.604715	0.577289
	N12191	N	0.943240	0.539597	0.521352
	N12192	N	0.931158	0.542467	0.674123
	N12193	N	0.994296	0.601867	0.729667
	N12194	N	0.881397	0.520561	0.827252
	N12195	N	0.943211	0.586022	0.771210
	N12196	N	0.880768	0.523473	0.730061
	N12197	N	0.943862	0.583065	0.673794
	N12198	N	0.931831	0.539340	0.771228
	N12199	N	0.993644	0.604970	0.826853
	H12200	H	0.887447	0.715637	0.369175
	H12201	H	0.951944	0.662960	0.328016
	H12202	H	0.924995	0.721995	0.131691
	H12203	H	0.985530	0.649595	0.173250
	H12204	H	0.922993	0.711457	0.328183
	H12205	H	0.987530	0.659743	0.369245
	H12206	H	0.889495	0.725476	0.173338
	H12207	H	0.950067	0.653080	0.132176
	H12208	H	0.922979	0.662918	0.077318
	H12209	H	0.987565	0.715247	0.119726
	H12210	H	0.889545	0.649511	0.423875
	H12211	H	0.949976	0.721669	0.382184
	H12212	H	0.887504	0.659519	0.119871
	H12213	H	0.951884	0.712174	0.078072
	H12214	H	0.925080	0.652499	0.381483
	H12215	H	0.985519	0.725555	0.423046
	H12216	H	0.899233	0.721688	0.355718
	H12217	H	0.963536	0.652943	0.341011
	H12218	H	0.913261	0.715504	0.145583
	H12219	H	0.975836	0.653902	-0.144771
	H12220	H	0.911446	0.723092	0.341314
	H12221	H	0.975766	0.654288	0.355150
	H12222	H	0.901031	0.714655	0.160102
	H12223	H	0.963558	0.652681	-0.159107
	H12224	H	0.911479	0.652354	0.091197
	H12225	H	0.975788	0.721148	0.105600
	H12226	H	0.901081	0.659944	0.410668
	H12227	H	0.961729	0.716351	0.394956
	H12228	H	0.899240	0.653670	0.106286
	H12229	H	0.963544	0.722193	0.090749
	H12230	H	0.913349	0.658691	0.395930
	H12231	H	0.973991	0.715339	0.409515
	Co12232	Co	1.000006	0.749656	0.156391
	Co12233	Co	0.937520	0.687522	0.095105
	Co12234	Co	0.875017	0.625270	0.407522
	Co12235	Co	0.937504	0.687377	0.344642
	C12236	C	0.886831	0.719664	0.444570
	C12237	C	0.950348	0.662100	0.401590
	C12238	C	0.925641	0.717804	0.056329
	C12239	C	0.987188	0.650553	0.100010
	C12240	C	0.924649	0.712473	0.401583
	C12241	C	0.988164	0.655678	0.444505
	C12242	C	0.887828	0.724717	0.099739
	C12243	C	0.949423	0.657089	0.056793
	C12244	C	0.924683	0.661958	0.151414
	C12245	C	0.988139	0.719458	0.194860
	C12246	C	0.887881	0.650408	0.350210
	C12247	C	0.949362	0.717848	0.306506
	C12248	C	0.886892	0.655384	0.194941
	C12249	C	0.950330	0.712829	0.151507
	C12250	C	0.925719	0.656665	0.306328
	C12251	C	0.987134	0.724686	0.349686
	C12252	C	0.891648	0.718553	0.517950
	C12253	C	0.954214	0.656080	-0.016715
	C12254	C	0.920867	0.718780	0.483236
	C12255	C	0.983388	0.656712	0.018272
	C12256	C	0.920883	0.655871	0.233110
	C12257	C	0.983348	0.718842	0.267956
	C12258	C	0.891701	0.656353	0.268430
	C12259	C	0.954143	0.718682	0.233109
	C12260	C	0.899034	0.717702	0.509027
	C12261	C	0.961607	0.655264	-0.008227
	C12262	C	0.913478	0.719713	0.492092
	C12263	C	0.976023	0.657569	0.008993
	C12264	C	0.913501	0.655036	0.242222
	C12265	C	0.975959	0.717968	0.258817
	C12266	C	0.899084	0.657152	0.259693
	C12267	C	0.961541	0.719639	0.241705
	C12268	C	0.902253	0.720200	0.420149
	C12269	C	0.965770	0.654513	0.411766
	C12270	C	0.910247	0.717054	0.081093
	C12271	C	0.972821	0.655111	-0.080087
	C12272	C	0.909247	0.721097	0.411819
	C12273	C	0.972763	0.655292	0.419861
	C12274	C	0.903245	0.716410	0.089397
	C12275	C	0.965825	0.654091	-0.088630
	C12276	C	0.909274	0.653905	0.162033
	C12277	C	0.972745	0.720072	0.169682
	C12278	C	0.903315	0.658331	0.340011
	C12279	C	0.964757	0.717517	0.330623
	C12280	C	0.902277	0.654879	0.170506
	C12281	C	0.965766	0.720801	0.161434
	C12282	C	0.910309	0.657427	0.331510
	C12283	C	0.971743	0.716786	0.339130
	N12284	N	0.880728	0.727103	0.479453
	N12285	N	0.943861	0.667171	0.424508
	N12286	N	0.931775	0.710587	0.021732
	N12287	N	0.993666	0.645321	0.077023
	N12288	N	0.931129	0.707445	0.424446
	N12289	N	0.994274	0.648430	0.479428
	N12290	N	0.881358	0.729801	0.076987
	N12291	N	0.943310	0.664463	0.022240
	N12292	N	0.931167	0.667102	0.174160
	N12293	N	0.994279	0.726587	0.229701
	N12294	N	0.881410	0.645176	0.327033
	N12295	N	0.943217	0.710633	0.272046
	N12296	N	0.880777	0.648030	0.229815
	N12297	N	0.943837	0.707787	0.174707
	N12298	N	0.931830	0.664026	0.271253
	N12299	N	0.993631	0.729709	0.327027
	H12300	H	0.887439	0.715612	0.869919
	H12301	H	0.952042	0.662876	0.828130
	H12302	H	0.925089	0.722718	0.630909
	H12303	H	0.985526	0.649747	0.672710
	H12304	H	0.923036	0.711818	0.827858
	H12305	H	0.987597	0.659992	0.869851
	H12306	H	0.889454	0.725059	0.673108
	H12307	H	0.949959	0.652873	0.632024
	H12308	H	0.923048	0.663036	0.578858
	H12309	H	0.987524	0.715251	0.619533
	H12310	H	0.889520	0.649293	0.923636
	H12311	H	0.949896	0.722527	0.881018
	H12312	H	0.887498	0.659339	0.619979
	H12313	H	0.952010	0.711600	0.577743
	H12314	H	0.925067	0.653104	0.882268
	H12315	H	0.985488	0.725976	0.923103
	H12316	H	0.899219	0.721954	0.855699
	H12317	H	0.961772	0.658653	1.144963
	H12318	H	0.913289	0.715919	0.645297
	H12319	H	0.973990	0.660319	0.659813
	H12320	H	0.911438	0.723113	0.840954
	H12321	H	0.974021	0.660063	1.160135
	H12322	H	0.901029	0.714470	0.659762
	H12323	H	0.961736	0.658781	0.645733
	H12324	H	0.911461	0.652195	0.591621
	H12325	H	0.975782	0.721533	0.606181
	H12326	H	0.901120	0.660147	0.910840
	H12327	H	0.961712	0.716143	0.895541
	H12328	H	0.899249	0.653212	0.606264
	H12329	H	0.963523	0.722812	0.591584
	H12330	H	0.913312	0.659154	0.895929
	H12331	H	0.973969	0.714857	0.910366
	Co12332	Co	0.999956	0.750205	0.656634
	Co12333	Co	0.937507	0.687476	0.594708
	Co12334	Co	0.875020	0.624917	0.907263
	Co12335	Co	0.937528	0.687373	0.845008
	C12336	C	0.886819	0.719533	0.945096
	C12337	C	0.950388	0.662128	0.901880
	C12338	C	0.925695	0.718197	0.556234
	C12339	C	0.987164	0.650594	0.599616
	C12340	C	0.924651	0.712584	0.901473
	C12341	C	0.988215	0.655854	0.945165
	C12342	C	0.887838	0.724460	0.599792
	C12343	C	0.949353	0.657006	0.556702
	C12344	C	0.924676	0.662245	0.651812
	C12345	C	0.988152	0.719444	0.694770
	C12346	C	0.887882	0.650170	0.850342
	C12347	C	0.949334	0.718215	0.806175
	C12348	C	0.886871	0.655326	0.695659
	C12349	C	0.950367	0.712820	0.651539
	C12350	C	0.925678	0.657015	0.806894
	C12351	C	0.987148	0.724716	0.849732
	C12352	C	0.891652	0.718761	1.018090
	C12353	C	0.954155	0.656251	0.483348
	C12354	C	0.920821	0.718567	0.983094
	C12355	C	0.983361	0.656553	0.517804
	C12356	C	0.920874	0.656286	0.733648
	C12357	C	0.983356	0.718690	0.768143
	C12358	C	0.891674	0.656123	0.768613
	C12359	C	0.954148	0.718862	0.733166
	C12360	C	0.899026	0.717824	1.009109
	C12361	C	0.961539	0.655507	0.492100
	C12362	C	0.913456	0.719541	0.991999
	C12363	C	0.975973	0.657559	0.508878
	C12364	C	0.913491	0.655246	0.742493
	C12365	C	0.975961	0.717734	0.759500
	C12366	C	0.899072	0.657107	0.759800
	C12367	C	0.961541	0.719798	0.742309
	C12368	C	0.902235	0.720388	0.920110
	C12369	C	0.964819	0.657564	1.080948
	C12370	C	0.910253	0.717241	0.580974
	C12371	C	0.971755	0.658663	0.589238
	C12372	C	0.909225	0.721220	0.911694
	C12373	C	0.971808	0.658629	1.089222
	C12374	C	0.903254	0.716328	0.589200
	C12375	C	0.964759	0.657840	0.581288
	C12376	C	0.909264	0.653817	0.662367
	C12377	C	0.972754	0.720186	0.670443
	C12378	C	0.903320	0.658421	0.840104
	C12379	C	0.964758	0.717427	0.831356
	C12380	C	0.902280	0.654635	0.670671
	C12381	C	0.965762	0.721061	0.662110
	C12382	C	0.910297	0.657645	0.831545
	C12383	C	0.971739	0.716538	0.839748
	N12384	N	0.880695	0.726748	0.979878
	N12385	N	0.943935	0.667457	0.925278
	N12386	N	0.931807	0.710734	0.521541
	N12387	N	0.993633	0.645486	0.576690
	N12388	N	0.931135	0.707550	0.924380
	N12389	N	0.994321	0.648358	0.979939
	N12390	N	0.881366	0.729787	0.576721
	N12391	N	0.943210	0.664208	0.521794
	N12392	N	0.931177	0.667235	0.674740
	N12393	N	0.994273	0.726860	0.729513
	N12394	N	0.881398	0.645019	0.827621
	N12395	N	0.943225	0.710716	0.771540
	N12396	N	0.880749	0.647988	0.730323
	N12397	N	0.943886	0.707610	0.674392
	N12398	N	0.931812	0.664274	0.771871
	N12399	N	0.993625	0.729940	0.826651
	H12400	H	0.887475	0.840314	0.368859
	H12401	H	0.951982	0.787953	0.328181
	H12402	H	0.925111	0.847722	0.131152
	H12403	H	0.985554	0.774375	0.173093
	H12404	H	0.923019	0.836877	0.327650
	H12405	H	0.987565	0.785320	0.369718
	H12406	H	0.889488	0.850254	0.173261
	H12407	H	0.950018	0.778336	0.131711
	H12408	H	0.923106	0.788162	0.077070
	H12409	H	0.987600	0.840289	0.119646
	H12410	H	0.889504	0.775158	0.423372
	H12411	H	0.950001	0.847193	0.381358
	H12412	H	0.887536	0.784116	0.118620
	H12413	H	0.952062	0.836881	0.077742
	H12414	H	0.925145	0.778011	0.381108
	H12415	H	0.985582	0.850868	0.422680
	H12416	H	0.899229	0.846410	0.355540
	H12417	H	0.961685	0.784112	0.645731
	H12418	H	0.913287	0.840964	0.145282
	H12419	H	0.975817	0.778673	-0.144098
	H12420	H	0.911443	0.847646	0.340717
	H12421	H	0.973931	0.785426	0.660358
	H12422	H	0.901059	0.839824	0.160214
	H12423	H	0.963572	0.777532	-0.159056
	H12424	H	0.911471	0.777328	0.090116
	H12425	H	0.974009	0.839608	0.410160
	H12426	H	0.901092	0.785122	0.409661
	H12427	H	0.963589	0.848018	0.091102
	H12428	H	0.899240	0.778777	0.105157
	H12429	H	0.961749	0.840934	0.395255
	H12430	H	0.913332	0.783649	0.395088
	H12431	H	0.975824	0.846852	0.105824
	Co12432	Co	1.000027	0.875169	0.155869
	Co12433	Co	0.937546	0.812716	0.094239
	Co12434	Co	0.875047	0.750625	0.406659
	Co12435	Co	0.937547	0.812716	0.344118
	C12436	C	0.886851	0.844323	0.444308
	C12437	C	0.950301	0.787064	0.401548
	C12438	C	0.925700	0.843306	0.055820
	C12439	C	0.987175	0.775187	0.099938
	C12440	C	0.924670	0.837786	0.401024
	C12441	C	0.988154	0.780722	0.445177
	C12442	C	0.887842	0.849544	0.099709
	C12443	C	0.949372	0.782147	0.056444
	C12444	C	0.924724	0.787243	0.150800
	C12445	C	0.988229	0.844345	0.194547
	C12446	C	0.887898	0.775841	0.349571
	C12447	C	0.949405	0.843122	0.306162
	C12448	C	0.886921	0.780378	0.194139
	C12449	C	0.950430	0.837771	0.151377
	C12450	C	0.925725	0.782130	0.305676
	C12451	C	0.987210	0.849854	0.349274
	C12452	C	0.891675	0.843569	0.517704
	C12453	C	0.954188	0.781406	-0.016870
	C12454	C	0.920843	0.843782	0.483017
	C12455	C	0.983372	0.781249	0.018283
	C12456	C	0.920914	0.781198	0.232304
	C12457	C	0.983410	0.843670	0.267839
	C12458	C	0.891697	0.781351	0.267545
	C12459	C	0.954214	0.843722	0.233083
	C12460	C	0.899050	0.842686	0.508949
	C12461	C	0.961569	0.780399	-0.008106
	C12462	C	0.913475	0.844717	0.492092
	C12463	C	0.975983	0.782061	0.009323
	C12464	C	0.913520	0.780189	0.241156
	C12465	C	0.976013	0.842713	0.259202
	C12466	C	0.899098	0.782142	0.258619
	C12467	C	0.961594	0.844641	0.241989
	C12468	C	0.902264	0.845091	0.419831
	C12469	C	0.964720	0.782769	0.581380
	C12470	C	0.910257	0.842339	0.081040
	C12471	C	0.972781	0.779879	-0.079847
	C12472	C	0.909263	0.845928	0.411726
	C12473	C	0.971720	0.783619	0.589546
	C12474	C	0.903271	0.841509	0.089436
	C12475	C	0.965780	0.779150	-0.088387
	C12476	C	0.909281	0.779107	0.160941
	C12477	C	0.971789	0.841315	0.339385
	C12478	C	0.903332	0.783273	0.339089
	C12479	C	0.965817	0.846113	0.161717
	C12480	C	0.902301	0.779868	0.169316
	C12481	C	0.964810	0.842168	0.331048
	C12482	C	0.910320	0.782483	0.330414
	C12483	C	0.972808	0.845274	0.170229
	N12484	N	0.880735	0.851621	0.479549
	N12485	N	0.943831	0.792221	0.424333
	N12486	N	0.931804	0.835838	0.020959
	N12487	N	0.993657	0.770095	0.077127
	N12488	N	0.931150	0.832841	0.423842
	N12489	N	0.994286	0.773484	0.480076
	N12490	N	0.881358	0.854820	0.076731
	N12491	N	0.943229	0.789266	0.021524
	N12492	N	0.931189	0.792536	0.173914
	N12493	N	0.994354	0.851855	0.229285
	N12494	N	0.881391	0.770729	0.326513
	N12495	N	0.943272	0.835966	0.271403
	N12496	N	0.880774	0.773362	0.229215
	N12497	N	0.943929	0.832856	0.174127
	N12498	N	0.931834	0.789549	0.271164
	N12499	N	0.993689	0.854976	0.326288
	H12500	H	0.887464	0.840681	0.869098
	H12501	H	0.951996	0.787915	0.828105
	H12502	H	0.925062	0.847509	0.631319
	H12503	H	0.985450	0.774370	0.673522
	H12504	H	0.922992	0.836563	0.827735
	H12505	H	0.987581	0.784668	0.870150
	H12506	H	0.889550	0.850323	0.672954
	H12507	H	0.949916	0.777768	0.631674
	H12508	H	0.922886	0.788377	0.578037
	H12509	H	0.987497	0.840363	0.619011
	H12510	H	0.889427	0.774498	0.922837
	H12511	H	0.949944	0.846774	0.881545
	H12512	H	0.887305	0.784533	0.619061
	H12513	H	0.951980	0.836719	0.578030
	H12514	H	0.924903	0.778068	0.881384
	H12515	H	0.985459	0.850296	0.923059
	H12516	H	0.899254	0.846310	0.855317
	H12517	H	0.961749	0.783842	1.145331
	H12518	H	0.913272	0.840993	0.645859
	H12519	H	0.975775	0.778462	0.355603
	H12520	H	0.911468	0.847700	0.840899
	H12521	H	0.973991	0.784694	1.160139
	H12522	H	0.901001	0.839558	0.659791
	H12523	H	0.963522	0.777124	0.341426
	H12524	H	0.911388	0.777217	0.590668
	H12525	H	0.973929	0.839861	0.909558
	H12526	H	0.900914	0.785892	0.909369
	H12527	H	0.963492	0.847512	0.591072
	H12528	H	0.899104	0.778231	0.605125
	H12529	H	0.961691	0.840762	0.895048
	H12530	H	0.913139	0.784664	0.894986
	H12531	H	0.975721	0.846620	0.605489
	Co12532	Co	0.999970	0.875019	0.656523
	Co12533	Co	0.937459	0.812383	0.594259
	Co12534	Co	0.874969	0.749886	0.907160
	Co12535	Co	0.937483	0.812254	0.844200
	C12536	C	0.886836	0.844655	0.944582
	C12537	C	0.950351	0.787188	0.901301
	C12538	C	0.925697	0.843111	0.556188
	C12539	C	0.987113	0.775435	0.600030
	C12540	C	0.924636	0.837652	0.901286
	C12541	C	0.988208	0.780559	0.945240
	C12542	C	0.887879	0.849483	0.599475
	C12543	C	0.949277	0.781835	0.556397
	C12544	C	0.924544	0.787575	0.651191
	C12545	C	0.988133	0.844471	0.694496
	C12546	C	0.887770	0.775390	0.849533
	C12547	C	0.949319	0.842868	0.806122
	C12548	C	0.886710	0.780466	0.694506
	C12549	C	0.950337	0.837580	0.651358
	C12550	C	0.925553	0.782097	0.806136
	C12551	C	0.987111	0.849690	0.849505
	C12552	C	0.891644	0.843666	1.017947
	C12553	C	0.954106	0.781147	0.483359
	C12554	C	0.920866	0.843931	0.982943
	C12555	C	0.983315	0.781509	0.518270
	C12556	C	0.920728	0.781622	0.732761
	C12557	C	0.983317	0.843663	0.767755
	C12558	C	0.891540	0.781314	0.767351
	C12559	C	0.954130	0.843584	0.733116
	C12560	C	0.899037	0.842732	1.009164
	C12561	C	0.961512	0.780299	0.492306
	C12562	C	0.913473	0.844758	0.991947
	C12563	C	0.975946	0.782330	0.509349
	C12564	C	0.913335	0.780595	0.741370
	C12565	C	0.975936	0.842714	0.758780
	C12566	C	0.898914	0.782312	0.758351
	C12567	C	0.961505	0.844545	0.741904
	C12568	C	0.902260	0.845134	0.920029
	C12569	C	0.964769	0.782610	1.081003
	C12570	C	0.910268	0.842357	0.581103
	C12571	C	0.972749	0.779804	0.420312
	C12572	C	0.909255	0.846040	0.911612
	C12573	C	0.971767	0.783262	1.089604
	C12574	C	0.903262	0.841378	0.589404
	C12575	C	0.965748	0.778971	0.412027
	C12576	C	0.909130	0.779125	0.661125
	C12577	C	0.971717	0.841302	0.838861
	C12578	C	0.903129	0.783851	0.838764
	C12579	C	0.965722	0.846012	0.661646
	C12580	C	0.902138	0.779779	0.669434
	C12581	C	0.964725	0.842071	0.830715
	C12582	C	0.910119	0.783108	0.830488
	C12583	C	0.972714	0.845207	0.669922
	N12584	N	0.880704	0.851960	0.979454
	N12585	N	0.943854	0.792174	0.924338
	N12586	N	0.931818	0.835877	0.521246
	N12587	N	0.993604	0.770414	0.577189
	N12588	N	0.931125	0.832579	0.923988
	N12589	N	0.994323	0.773182	0.980091
	N12590	N	0.881390	0.854536	0.576603
	N12591	N	0.943171	0.789179	0.521398
	N12592	N	0.931042	0.792316	0.674093
	N12593	N	0.994257	0.851817	0.729439
	N12594	N	0.881284	0.770140	0.826921
	N12595	N	0.943214	0.835528	0.771336
	N12596	N	0.880600	0.773082	0.729729
	N12597	N	0.943855	0.832471	0.674245
	N12598	N	0.931689	0.789265	0.771191
	N12599	N	0.993597	0.854775	0.826643
	H12600	H	0.887438	0.965170	0.369622
	H12601	H	0.952049	0.912961	0.328085
	H12602	H	0.925040	0.972121	0.131763
	H12603	H	0.985533	0.899538	0.173167
	H12604	H	0.922956	0.961553	0.327494
	H12605	H	0.987532	0.909964	0.369534
	H12606	H	0.889439	0.975264	0.173816
	H12607	H	0.950048	0.902825	0.131423
	H12608	H	0.923002	0.913012	0.077551
	H12609	H	0.987543	0.965171	0.119372
	H12610	H	0.889536	0.899140	0.422876
	H12611	H	0.949859	0.972671	0.381245
	H12612	H	0.887467	0.909621	0.120000
	H12613	H	0.951921	0.962126	0.078492
	H12614	H	0.925089	0.902426	0.381059
	H12615	H	0.985503	0.975895	0.422842
	H12616	H	0.899171	0.970817	0.355758
	H12617	H	0.963529	0.901939	0.341425
	H12618	H	0.911376	0.972537	-0.158604
	H12619	H	0.975815	0.903243	-0.144087
	H12620	H	0.911383	0.972167	0.340693
	H12621	H	0.975785	0.903352	0.356022
	H12622	H	0.899160	0.971463	-0.144184
	H12623	H	0.963602	0.902486	-0.158834
	H12624	H	0.911469	0.902230	0.090790
	H12625	H	0.975697	0.972058	0.105449
	H12626	H	0.901151	0.910222	0.410306
	H12627	H	0.961684	0.965998	0.395948
	H12628	H	0.899286	0.903272	0.105531
	H12629	H	0.963488	0.973319	0.091331
	H12630	H	0.913346	0.908854	0.395402
	H12631	H	0.973866	0.964863	0.409953
	Co12632	Co	0.999958	0.999900	0.156825
	Co12633	Co	0.937502	0.937376	0.094599
	Co12634	Co	0.875038	0.875096	0.407145
	Co12635	Co	0.937485	0.937331	0.344312
	C12636	C	0.886811	0.969185	0.444640
	C12637	C	0.950395	0.912292	0.401413
	C12638	C	0.925629	0.967786	0.056552
	C12639	C	0.987187	0.900337	0.099995
	C12640	C	0.924604	0.962441	0.400806
	C12641	C	0.988150	0.905646	0.444822
	C12642	C	0.887775	0.974314	0.099864
	C12643	C	0.949379	0.907066	0.056334
	C12644	C	0.924689	0.912000	0.150856
	C12645	C	0.988110	0.969472	0.195020
	C12646	C	0.887913	0.900300	0.349874
	C12647	C	0.949259	0.968315	0.306279
	C12648	C	0.886884	0.905555	0.195186
	C12649	C	0.950277	0.963056	0.151667
	C12650	C	0.925732	0.906608	0.306024
	C12651	C	0.987090	0.974885	0.349479
	C12652	C	0.891603	0.968321	0.518288
	C12653	C	0.954219	0.906413	-0.016994
	C12654	C	0.920810	0.968466	0.482810
	C12655	C	0.983369	0.906282	0.018109
	C12656	C	0.920883	0.906003	0.232876
	C12657	C	0.983276	0.968925	0.267869
	C12658	C	0.891728	0.906290	0.268321
	C12659	C	0.954074	0.969152	0.233191
	C12660	C	0.898993	0.967331	0.509517
	C12661	C	0.961599	0.905440	-0.008029
	C12662	C	0.913419	0.969298	0.491846
	C12663	C	0.976008	0.907222	0.009136
	C12664	C	0.913506	0.905176	0.242021
	C12665	C	0.975905	0.968141	0.258964
	C12666	C	0.899088	0.907207	0.259372
	C12667	C	0.961457	0.970055	0.242218
	C12668	C	0.902198	0.969663	0.420163
	C12669	C	0.965773	0.903835	0.411868
	C12670	C	0.909171	0.970756	-0.087702
	C12671	C	0.972806	0.904802	-0.079741
	C12672	C	0.909189	0.970498	0.411604
	C12673	C	0.972765	0.904686	0.420294
	C12674	C	0.902177	0.969977	-0.079631
	C12675	C	0.965806	0.904104	-0.088075
	C12676	C	0.909282	0.903931	0.161585
	C12677	C	0.972685	0.970647	0.169966
	C12678	C	0.903329	0.908505	0.339442
	C12679	C	0.964674	0.967492	0.331233
	C12680	C	0.902290	0.904743	0.170083
	C12681	C	0.965698	0.971473	0.162040
	C12682	C	0.910327	0.907479	0.331042
	C12683	C	0.971667	0.966681	0.339167
	N12684	N	0.880671	0.976588	0.479516
	N12685	N	0.943917	0.917496	0.424413
	N12686	N	0.931741	0.960528	0.021849
	N12687	N	0.993674	0.895281	0.076747
	N12688	N	0.931090	0.957472	0.423735
	N12689	N	0.994274	0.898353	0.479435
	N12690	N	0.881298	0.979532	0.076954
	N12691	N	0.943259	0.914322	0.021267
	N12692	N	0.931170	0.917008	0.173985
	N12693	N	0.994244	0.976641	0.229732
	N12694	N	0.881445	0.895164	0.327312
	N12695	N	0.943137	0.960903	0.271596
	N12696	N	0.880775	0.898164	0.229951
	N12697	N	0.943799	0.957876	0.174207
	N12698	N	0.931838	0.913934	0.271026
	N12699	N	0.993586	0.979810	0.326931
	H12700	H	0.887393	0.965130	0.869527
	H12701	H	0.952101	0.913434	0.827828
	H12702	H	0.925032	0.971986	0.631319
	H12703	H	0.985551	0.899609	0.673457
	H12704	H	0.922953	0.961249	0.828288
	H12705	H	0.987570	0.909538	0.869603
	H12706	H	0.889417	0.975186	0.673107
	H12707	H	0.949953	0.902710	0.631846
	H12708	H	0.923077	0.912830	0.577754
	H12709	H	0.987501	0.965701	0.619819
	H12710	H	0.889484	0.899372	0.923415
	H12711	H	0.949858	0.972829	0.881404
	H12712	H	0.887440	0.909159	0.618603
	H12713	H	0.951978	0.961751	0.577772
	H12714	H	0.925085	0.902462	0.881827
	H12715	H	0.985442	0.975935	0.923118
	H12716	H	0.900951	0.964564	1.160927
	H12717	H	0.961776	0.909289	1.145402
	H12718	H	0.913235	0.965835	0.645396
	H12719	H	0.973929	0.910619	0.660326
	H12720	H	0.913163	0.965717	1.146256
	H12721	H	0.974012	0.910358	1.159963
	H12722	H	0.901029	0.964675	0.660526
	H12723	H	0.961778	0.908929	0.645947
	H12724	H	0.913333	0.908977	0.895229
	H12725	H	0.975722	0.972112	0.606073
	H12726	H	0.899287	0.903350	0.605334
	H12727	H	0.961691	0.965882	0.895387
	H12728	H	0.901065	0.910000	0.909662
	H12729	H	0.963505	0.973004	0.591545
	H12730	H	0.911511	0.901940	0.591024
	H12731	H	0.973905	0.964763	0.910497
	Co12732	Co	1.000007	1.000028	0.656589
	Co12733	Co	0.937517	0.937498	0.594369
	Co12734	Co	0.874998	0.875310	0.906872
	Co12735	Co	0.937530	0.937588	0.844407
	C12736	C	0.886772	0.969242	0.944970
	C12737	C	0.950398	0.912514	0.901408
	C12738	C	0.925644	0.967834	0.555747
	C12739	C	0.987151	0.900494	0.599649
	C12740	C	0.924604	0.962408	0.901899
	C12741	C	0.988190	0.905525	0.944824
	C12742	C	0.887809	0.974343	0.599978
	C12743	C	0.949359	0.906956	0.556420
	C12744	C	0.924675	0.912062	0.651580
	C12745	C	0.988130	0.969641	0.694887
	C12746	C	0.887885	0.900300	0.849354
	C12747	C	0.949281	0.968462	0.806040
	C12748	C	0.886890	0.905231	0.694389
	C12749	C	0.950326	0.962847	0.651449
	C12750	C	0.925689	0.906869	0.806485
	C12751	C	0.987108	0.974921	0.849793
	C12752	C	0.891573	0.968386	1.018250
	C12753	C	0.954180	0.906126	0.483236
	C12754	C	0.920770	0.968452	0.983524
	C12755	C	0.983338	0.906515	0.518080
	C12756	C	0.920916	0.905996	0.733266
	C12757	C	0.983324	0.968940	0.768042
	C12758	C	0.891675	0.906077	0.767628
	C12759	C	0.954116	0.968965	0.733097
	C12760	C	0.898950	0.967539	1.009568
	C12761	C	0.961564	0.905239	0.492243
	C12762	C	0.913389	0.969407	0.992465
	C12763	C	0.975972	0.907363	0.509334
	C12764	C	0.913493	0.905052	0.741973
	C12765	C	0.975937	0.968032	0.759362
	C12766	C	0.899077	0.907028	0.758828
	C12767	C	0.961509	0.969904	0.742199
	C12768	C	0.903175	0.966168	1.090035
	C12769	C	0.964788	0.907831	1.081092
	C12770	C	0.910215	0.967038	0.580936
	C12771	C	0.971754	0.908776	0.589473
	C12772	C	0.910174	0.966970	1.081471
	C12773	C	0.971782	0.908661	1.089332
	C12774	C	0.903227	0.966239	0.589700
	C12775	C	0.964770	0.907739	0.581241
	C12776	C	0.910279	0.907578	0.831048
	C12777	C	0.972720	0.970523	0.670438
	C12778	C	0.902301	0.904707	0.669775
	C12779	C	0.964731	0.967264	0.831128
	C12780	C	0.903296	0.908362	0.839114
	C12781	C	0.965737	0.971314	0.662086
	C12782	C	0.909267	0.903782	0.661514
	C12783	C	0.971717	0.966471	0.839622
	N12784	N	0.880648	0.976626	0.979774
	N12785	N	0.943927	0.917533	0.924515
	N12786	N	0.931757	0.960645	0.521061
	N12787	N	0.993617	0.895299	0.576712
	N12788	N	0.931071	0.957372	0.924650
	N12789	N	0.994316	0.898253	0.979610
	N12790	N	0.881333	0.979577	0.576809
	N12791	N	0.943255	0.914370	0.521411
	N12792	N	0.931161	0.917331	0.674580
	N12793	N	0.994248	0.976955	0.729770
	N12794	N	0.881393	0.895199	0.826522
	N12795	N	0.943152	0.961087	0.771138
	N12796	N	0.880753	0.897997	0.729250
	N12797	N	0.943826	0.957888	0.674167
	N12798	N	0.931819	0.914315	0.771699
	N12799	N	0.993602	0.980000	0.827012
