data_Molecule from HDF5

_cell_length_a		179.442808
_cell_length_b		87.241582
_cell_length_c		14.016723
_cell_angle_alpha	89.989933
_cell_angle_beta	90.012613
_cell_angle_gamma	82.615120
_symmetry_space_group_name_H-M	'P 1'
_symmetry_Int_Tables_number		1

loop_
	_symmetry_equiv_pos_as_xyz
	x,y,z

loop_
	_atom_site_label
	_atom_site_type_symbol
	_atom_site_fract_x
	_atom_site_fract_y
	_atom_site_fract_z
	H0	H	0.012301	0.096252	0.351088
	H1	H	0.071225	-0.004420	0.348320
	H2	H	0.041408	0.033993	0.149537
	H3	H	0.108496	0.012962	0.152376
	H4	H	0.041392	0.033609	0.350232
	H5	H	0.108437	0.013038	0.348734
	H6	H	0.012129	0.096022	0.148292
	H7	H	0.071177	-0.004397	0.152801
	H8	H	0.040387	-0.009350	0.099089
	H9	H	0.103067	0.052705	0.100112
	H10	H	0.004088	-0.032871	0.402323
	H11	H	0.066761	0.029358	0.403393
	H12	H	0.004162	-0.032823	0.099224
	H13	H	0.066643	0.029846	0.100344
	H14	H	0.040434	-0.009679	0.400465
	H15	H	0.103039	0.053094	0.401287
	H16	H	0.021667	0.075350	0.450016
	H17	H	0.083366	0.001432	0.350703
	H18	H	0.031619	0.053656	0.015850
	H19	H	0.095850	0.009646	-0.149710
	H20	H	0.031824	0.053709	0.451344
	H21	H	0.095900	0.009134	0.350991
	H22	H	0.021463	0.075329	0.015866
	H23	H	0.083300	0.002057	-0.149709
	H24	H	0.028210	-0.015554	0.102792
	H25	H	0.090844	0.046722	0.103218
	H26	H	0.015628	-0.023128	0.398037
	H27	H	0.078251	0.039214	0.399387
	H28	H	0.015503	-0.022612	0.103438
	H29	H	0.078148	0.039426	0.104193
	H30	H	0.028285	-0.015853	0.397507
	H31	H	0.090925	0.046497	0.398629
	Co32	Co	0.117147	0.069006	0.124859
	Co33	Co	0.054646	0.006671	0.125279
	Co34	Co	-0.007902	-0.055899	0.375853
	Co35	Co	0.054649	0.006409	0.375680
	C36	C	0.011276	0.098217	0.423757
	C37	C	0.069792	-0.004118	0.422926
	C38	C	0.042381	0.031858	0.076207
	C39	C	0.109842	0.012453	0.077897
	C40	C	0.042324	0.031535	0.423710
	C41	C	0.109808	0.012498	0.423230
	C42	C	0.011202	0.098158	0.075789
	C43	C	0.069814	-0.004123	0.078484
	C44	C	0.041642	-0.008678	0.172739
	C45	C	0.104238	0.053546	0.173808
	C46	C	0.003150	-0.034401	0.327809
	C47	C	0.065748	0.027961	0.328859
	C48	C	0.003179	-0.034443	0.173296
	C49	C	0.065701	0.028148	0.174165
	C50	C	0.041670	-0.008802	0.327019
	C51	C	0.104237	0.053762	0.327642
	C52	C	0.014701	0.090162	0.499882
	C53	C	0.074630	-0.003460	0.000615
	C54	C	0.038632	0.039104	0.500765
	C55	C	0.104944	0.012754	0.000259
	C56	C	0.037137	-0.011403	0.249930
	C57	C	0.099736	0.051000	0.250845
	C58	C	0.007174	-0.029613	0.250646
	C59	C	0.069741	0.032783	0.251648
	C60	C	0.020702	0.077114	0.500003
	C61	C	0.082313	0.000606	0.000367
	C62	C	0.032552	0.051984	0.500488
	C63	C	0.097066	0.009864	0.000484
	C64	C	0.029418	-0.015344	0.250176
	C65	C	0.092040	0.046971	0.250917
	C66	C	0.014500	-0.023757	0.250772
	C67	C	0.077111	0.038523	0.251669
	C68	C	0.023781	0.070649	0.472344
	C69	C	0.086062	0.002981	0.417333
	C70	C	0.029433	0.058376	0.008451
	C71	C	0.093198	0.007830	-0.083044
	C72	C	0.029565	0.058453	0.472731
	C73	C	0.093236	0.007401	0.417542
	C74	C	0.023708	0.070675	0.008335
	C75	C	0.086030	0.003379	-0.083049
	C76	C	0.025502	-0.017154	0.168135
	C77	C	0.088139	0.045040	0.168758
	C78	C	0.018324	-0.021469	0.332736
	C79	C	0.080933	0.040852	0.333788
	C80	C	0.018266	-0.021252	0.168640
	C81	C	0.080907	0.040940	0.169260
	C82	C	0.025557	-0.017400	0.332544
	C83	C	0.088172	0.044916	0.333363
	N84	N	0.006101	0.109705	0.452497
	N85	N	0.062609	-0.004281	0.451253
	N86	N	0.047730	0.020720	0.047560
	N87	N	0.117086	0.011148	0.049205
	N88	N	0.047688	0.020456	0.452840
	N89	N	0.117046	0.011268	0.451869
	N90	N	0.006051	0.109708	0.047200
	N91	N	0.062586	-0.004115	0.049757
	N92	N	0.048294	-0.004671	0.201556
	N93	N	0.110865	0.057708	0.202289
	N94	N	-0.002547	-0.041884	0.298520
	N95	N	0.060028	0.020536	0.299483
	N96	N	-0.002545	-0.041879	0.202284
	N97	N	0.059997	0.020639	0.202974
	N98	N	0.048323	-0.004753	0.298278
	N99	N	0.110873	0.057808	0.299003
	H100	H	0.012163	0.096178	0.850436
	H101	H	0.071218	-0.004402	0.848809
	H102	H	0.041444	0.033688	0.651268
	H103	H	0.108481	0.012897	0.653002
	H104	H	0.041216	0.033160	0.849008
	H105	H	0.108429	0.012851	0.848639
	H106	H	0.011991	0.095616	0.648893
	H107	H	0.071192	-0.004473	0.652923
	H108	H	0.040355	-0.009307	0.599517
	H109	H	0.102878	0.053209	0.599361
	H110	H	0.004090	-0.032689	0.901450
	H111	H	0.066655	0.029491	0.902264
	H112	H	0.004131	-0.032737	0.598370
	H113	H	0.066598	0.029667	0.598890
	H114	H	0.040459	-0.009886	0.900780
	H115	H	0.102934	0.052950	0.901291
	H116	H	0.021662	0.075530	0.981833
	H117	H	0.083471	0.001307	1.150685
	H118	H	0.031603	0.053805	0.550079
	H119	H	0.095902	0.008870	0.650993
	H120	H	0.031711	0.053744	0.981707
	H121	H	0.095942	0.008985	1.150849
	H122	H	0.021394	0.075305	0.549598
	H123	H	0.083417	0.001293	0.651071
	H124	H	0.028166	-0.015563	0.602870
	H125	H	0.090807	0.046241	0.602636
	H126	H	0.015467	-0.022760	0.896998
	H127	H	0.077917	0.040256	0.898540
	H128	H	0.015472	-0.022817	0.602916
	H129	H	0.078155	0.038919	0.602753
	H130	H	0.028190	-0.015629	0.897328
	H131	H	0.090625	0.047504	0.897667
	Co132	Co	0.117147	0.069111	0.625163
	Co133	Co	0.054666	0.006494	0.625214
	Co134	Co	-0.007852	-0.056023	0.875207
	Co135	Co	0.054659	0.006323	0.875846
	C136	C	0.011216	0.098190	0.923171
	C137	C	0.069823	-0.004097	0.923302
	C138	C	0.042347	0.031577	0.577677
	C139	C	0.109811	0.012400	0.578278
	C140	C	0.042272	0.031423	0.922384
	C141	C	0.109833	0.012380	0.922965
	C142	C	0.011114	0.097888	0.575997
	C143	C	0.069789	-0.004131	0.578111
	C144	C	0.041590	-0.008628	0.673306
	C145	C	0.104130	0.053826	0.673369
	C146	C	0.003122	-0.034391	0.827330
	C147	C	0.065691	0.027907	0.827919
	C148	C	0.003131	-0.034390	0.672665
	C149	C	0.065639	0.028055	0.673495
	C150	C	0.041648	-0.008905	0.827089
	C151	C	0.104166	0.053717	0.827406
	C152	C	0.014723	0.090325	0.999272
	C153	C	0.074595	-0.003468	0.500349
	C154	C	0.038677	0.039245	0.998972
	C155	C	0.104922	0.012671	0.500500
	C156	C	0.037086	-0.011419	0.750100
	C157	C	0.099626	0.051063	0.750492
	C158	C	0.007110	-0.029636	0.750012
	C159	C	0.069649	0.032811	0.750814
	C160	C	0.020721	0.077251	0.999022
	C161	C	0.082293	0.000464	0.500596
	C162	C	0.032516	0.051996	0.998839
	C163	C	0.097079	0.009622	0.500788
	C164	C	0.029352	-0.015304	0.749935
	C165	C	0.091879	0.047205	0.750440
	C166	C	0.014439	-0.023742	0.749994
	C167	C	0.076966	0.038722	0.750759
	C168	C	0.023771	0.070747	0.989442
	C169	C	0.086101	0.003049	1.084036
	C170	C	0.029460	0.058428	0.528199
	C171	C	0.093252	0.007276	0.584296
	C172	C	0.029499	0.058471	0.989331
	C173	C	0.093269	0.007444	1.084223
	C174	C	0.023695	0.070635	0.527979
	C175	C	0.086074	0.002930	0.584248
	C176	C	0.025450	-0.017192	0.667932
	C177	C	0.088055	0.044923	0.668020
	C178	C	0.018230	-0.021300	0.832183
	C179	C	0.080704	0.041499	0.832981
	C180	C	0.018219	-0.021283	0.667891
	C181	C	0.080830	0.040797	0.668187
	C182	C	0.025459	-0.017200	0.832156
	C183	C	0.087924	0.045652	0.832752
	N184	N	0.006050	0.109722	0.952288
	N185	N	0.062615	-0.004156	0.951650
	N186	N	0.047708	0.020492	0.548219
	N187	N	0.117071	0.011203	0.549414
	N188	N	0.047676	0.020423	0.952302
	N189	N	0.117066	0.011031	0.951544
	N190	N	0.006007	0.109500	0.547141
	N191	N	0.062589	-0.004278	0.549522
	N192	N	0.048257	-0.004679	0.702044
	N193	N	0.110771	0.057886	0.702155
	N194	N	-0.002579	-0.041908	0.797990
	N195	N	0.060004	0.020383	0.798821
	N196	N	-0.002583	-0.041885	0.701842
	N197	N	0.059958	0.020477	0.702639
	N198	N	0.048290	-0.004813	0.798447
	N199	N	0.110786	0.057829	0.798823
	H200	H	0.021138	0.278810	0.350290
	H201	H	0.074544	0.158260	0.351041
	H202	H	0.050423	0.216963	0.148875
	H203	H	0.103756	0.096158	0.150034
	H204	H	0.050479	0.216644	0.350446
	H205	H	0.104028	0.096554	0.349430
	H206	H	0.021090	0.279022	0.150489
	H207	H	0.074826	0.158862	0.148781
	H208	H	0.048455	0.170920	0.101980
	H209	H	0.110884	0.233394	0.101454
	H210	H	0.014055	0.141594	0.398534
	H211	H	0.076511	0.204106	0.397408
	H212	H	0.013995	0.141871	0.102220
	H213	H	0.076564	0.204399	0.102292
	H214	H	0.048402	0.170885	0.397219
	H215	H	0.110772	0.233744	0.398109
	H216	H	0.030590	0.258190	0.471710
	H217	H	0.084474	0.138781	0.560723
	H218	H	0.041343	0.237972	0.125771
	H219	H	0.094781	0.117526	0.045541
	H220	H	0.040820	0.236684	0.472025
	H221	H	0.094632	0.117173	0.560431
	H222	H	0.031176	0.259565	0.126113
	H223	H	0.084703	0.139250	0.045692
	H224	H	0.037367	0.161046	0.256293
	H225	H	0.099510	0.225074	0.266099
	H226	H	0.025034	0.151654	0.243310
	H227	H	0.087907	0.212690	0.233975
	H228	H	0.025191	0.151077	0.256896
	H229	H	0.087308	0.215100	0.266210
	H230	H	0.037154	0.161754	0.242502
	H231	H	0.100064	0.222671	0.233443
	Co232	Co	0.124959	0.250107	0.124330
	Co233	Co	0.062495	0.187590	0.124206
	Co234	Co	0.000003	0.124876	0.374700
	Co235	Co	0.062435	0.187489	0.375359
	C236	C	0.020154	0.280909	0.423356
	C237	C	0.073626	0.160554	0.423713
	C238	C	0.051337	0.214663	0.076082
	C239	C	0.104776	0.094131	0.076316
	C240	C	0.051382	0.214617	0.423651
	C241	C	0.104931	0.094379	0.422985
	C242	C	0.020164	0.281055	0.076649
	C243	C	0.073807	0.160848	0.075681
	C244	C	0.049537	0.172023	0.173764
	C245	C	0.112040	0.234564	0.173636
	C246	C	0.012901	0.140609	0.326256
	C247	C	0.075400	0.203039	0.325943
	C248	C	0.012871	0.140758	0.174384
	C249	C	0.075410	0.203210	0.174398
	C250	C	0.049519	0.171996	0.325146
	C251	C	0.111993	0.234730	0.325891
	C252	C	0.023815	0.273398	0.499994
	C253	C	0.077217	0.152859	-0.001066
	C254	C	0.047867	0.222432	0.499998
	C255	C	0.101138	0.101616	-0.000745
	C256	C	0.045357	0.168171	0.249480
	C257	C	0.107879	0.230756	0.249771
	C258	C	0.017004	0.144634	0.250464
	C259	C	0.079551	0.207009	0.250131
	C260	C	0.029969	0.260592	0.500246
	C261	C	0.083189	0.139712	-0.000780
	C262	C	0.041814	0.235469	0.499973
	C263	C	0.094978	0.114401	-0.000845
	C264	C	0.038189	0.162097	0.249578
	C265	C	0.100716	0.224637	0.250103
	C266	C	0.024178	0.150680	0.250478
	C267	C	0.086692	0.213188	0.249913
	C268	C	0.032904	0.253840	0.484310
	C269	C	0.086473	0.133681	0.534121
	C270	C	0.038960	0.242308	0.070425
	C271	C	0.092295	0.121640	0.025062
	C272	C	0.038661	0.241626	0.484232
	C273	C	0.092231	0.121473	0.533877
	C274	C	0.033210	0.254558	0.070528
	C275	C	0.086557	0.133901	0.025288
	C276	C	0.034651	0.159037	0.253679
	C277	C	0.096970	0.222402	0.259147
	C278	C	0.027711	0.153758	0.246346
	C279	C	0.090434	0.215453	0.240853
	C280	C	0.027815	0.153364	0.254201
	C281	C	0.090122	0.216755	0.258947
	C282	C	0.034555	0.159380	0.245710
	C283	C	0.097292	0.221064	0.240719
	N284	N	0.014799	0.292068	0.452012
	N285	N	0.068456	0.172116	0.452358
	N286	N	0.056498	0.203124	0.047481
	N287	N	0.110170	0.083033	0.047728
	N288	N	0.056512	0.202997	0.452581
	N289	N	0.110295	0.083273	0.452271
	N290	N	0.014799	0.292153	0.047196
	N291	N	0.068628	0.172347	0.046814
	N292	N	0.055686	0.177773	0.202486
	N293	N	0.118182	0.240355	0.202490
	N294	N	0.006776	0.134769	0.297039
	N295	N	0.069275	0.197191	0.296920
	N296	N	0.006737	0.134916	0.202982
	N297	N	0.069286	0.197288	0.202916
	N298	N	0.055674	0.177763	0.296350
	N299	N	0.118158	0.240449	0.297124
	H300	H	0.021074	0.278825	0.848678
	H301	H	0.074513	0.158229	0.849207
	H302	H	0.050410	0.216596	0.649332
	H303	H	0.103804	0.096069	0.650011
	H304	H	0.050286	0.216361	0.849636
	H305	H	0.103864	0.095961	0.848850
	H306	H	0.021131	0.279006	0.650092
	H307	H	0.074687	0.158548	0.649539
	H308	H	0.048415	0.170761	0.600910
	H309	H	0.110911	0.233410	0.602858
	H310	H	0.013973	0.142136	0.896930
	H311	H	0.076478	0.204502	0.899305
	H312	H	0.014079	0.141632	0.601269
	H313	H	0.076707	0.204030	0.601111
	H314	H	0.048299	0.171231	0.897560
	H315	H	0.110945	0.233789	0.898834
	H316	H	0.030402	0.258000	0.873408
	H317	H	0.083381	0.136493	0.952590
	H318	H	0.041241	0.237779	0.528150
	H319	H	0.093759	0.115431	0.438727
	H320	H	0.040543	0.236352	0.872515
	H321	H	0.093559	0.114981	0.952590
	H322	H	0.031036	0.259401	0.529509
	H323	H	0.083582	0.137114	0.439367
	H324	H	0.037542	0.160433	0.729871
	H325	H	0.100115	0.222822	0.752569
	H326	H	0.024894	0.152414	0.768408
	H327	H	0.087384	0.215003	0.749484
	H328	H	0.025357	0.150466	0.730753
	H329	H	0.087953	0.212895	0.751703
	H330	H	0.037063	0.162277	0.768003
	H331	H	0.099550	0.224948	0.750184
	Co332	Co	0.124989	0.250033	0.624024
	Co333	Co	0.062499	0.187559	0.624609
	Co334	Co	0.000001	0.125042	0.875368
	Co335	Co	0.062490	0.187585	0.875336
	C336	C	0.020154	0.280936	0.922593
	C337	C	0.073643	0.160547	0.922316
	C338	C	0.051341	0.214576	0.576278
	C339	C	0.104817	0.094129	0.576844
	C340	C	0.051258	0.214349	0.923028
	C341	C	0.104821	0.094052	0.922612
	C342	C	0.020159	0.280993	0.576582
	C343	C	0.073688	0.160692	0.576323
	C344	C	0.049568	0.171948	0.673362
	C345	C	0.112093	0.234503	0.674921
	C346	C	0.012859	0.140835	0.824959
	C347	C	0.075362	0.203334	0.826215
	C348	C	0.012910	0.140601	0.673519
	C349	C	0.075472	0.203095	0.673961
	C350	C	0.049513	0.172145	0.825207
	C351	C	0.112104	0.234695	0.826405
	C352	C	0.023818	0.273418	0.999761
	C353	C	0.077166	0.152806	0.500072
	C354	C	0.047756	0.222286	0.999336
	C355	C	0.101191	0.101796	0.499856
	C356	C	0.045395	0.168160	0.749118
	C357	C	0.107941	0.230645	0.751065
	C358	C	0.017036	0.144607	0.749189
	C359	C	0.079594	0.207129	0.750271
	C360	C	0.029937	0.260570	0.999800
	C361	C	0.083195	0.139737	0.499926
	C362	C	0.041754	0.235358	0.999214
	C363	C	0.095028	0.114545	0.499701
	C364	C	0.038226	0.162092	0.749098
	C365	C	0.100771	0.224629	0.751498
	C366	C	0.024196	0.150725	0.749514
	C367	C	0.086753	0.213182	0.750526
	C368	C	0.032778	0.253679	0.928820
	C369	C	0.085844	0.132441	0.972985
	C370	C	0.038899	0.242263	0.516023
	C371	C	0.091741	0.120498	0.465817
	C372	C	0.038519	0.241411	0.928250
	C373	C	0.091575	0.120190	0.972926
	C374	C	0.033140	0.254463	0.516355
	C375	C	0.085990	0.132749	0.465754
	C376	C	0.034783	0.158662	0.738227
	C377	C	0.097348	0.221132	0.751747
	C378	C	0.027644	0.154145	0.760288
	C379	C	0.090164	0.216708	0.750141
	C380	C	0.027920	0.153048	0.738736
	C381	C	0.090474	0.215547	0.751376
	C382	C	0.034502	0.159735	0.759989
	C383	C	0.097039	0.222282	0.750635
	N384	N	0.014804	0.292082	0.951448
	N385	N	0.068534	0.172196	0.951586
	N386	N	0.056496	0.202988	0.547410
	N387	N	0.110227	0.083121	0.547515
	N388	N	0.056443	0.202903	0.952530
	N389	N	0.110201	0.083009	0.952332
	N390	N	0.014808	0.292121	0.547491
	N391	N	0.068503	0.172212	0.547501
	N392	N	0.055743	0.177645	0.702265
	N393	N	0.118232	0.240364	0.703262
	N394	N	0.006727	0.134959	0.796765
	N395	N	0.069251	0.197465	0.797043
	N396	N	0.006760	0.134811	0.702438
	N397	N	0.069308	0.197351	0.702591
	N398	N	0.055710	0.177781	0.796681
	N399	N	0.118257	0.240430	0.797148
	H400	H	0.016416	0.362080	0.346949
	H401	H	0.083772	0.341918	0.349085
	H402	H	0.053740	0.379466	0.152364
	H403	H	0.112732	0.278976	0.149017
	H404	H	0.053694	0.379383	0.346736
	H405	H	0.113103	0.279624	0.349983
	H406	H	0.016492	0.361788	0.152394
	H407	H	0.083511	0.341249	0.150022
	H408	H	0.058209	0.345613	0.098540
	H409	H	0.120618	0.408336	0.098166
	H410	H	0.022074	0.321841	0.399915
	H411	H	0.084460	0.384868	0.400713
	H412	H	0.021952	0.322414	0.099060
	H413	H	0.084565	0.384336	0.098656
	H414	H	0.058383	0.345296	0.401826
	H415	H	0.120928	0.407596	0.401270
	H416	H	0.028974	0.365848	0.349080
	H417	H	0.093476	0.321655	0.542184
	H418	H	0.041566	0.373569	-0.150189
	H419	H	0.103157	0.299097	-0.094839
	H420	H	0.041536	0.373263	0.349037
	H421	H	0.103589	0.300015	0.541261
	H422	H	0.029023	0.365922	-0.150068
	H423	H	0.092981	0.320579	-0.096028
	H424	H	0.046850	0.335704	0.101860
	H425	H	0.109396	0.397936	0.101696
	H426	H	0.034303	0.327894	0.397983
	H427	H	0.096691	0.390793	0.397514
	H428	H	0.034235	0.328237	0.101549
	H429	H	0.096723	0.390782	0.102060
	H430	H	0.046936	0.335203	0.398497
	H431	H	0.109389	0.397970	0.397243
	Co432	Co	0.132781	0.431175	0.123853
	Co433	Co	0.070268	0.368608	0.124239
	Co434	Co	0.007852	0.306001	0.374825
	Co435	Co	0.070276	0.368715	0.375020
	C436	C	0.015089	0.362527	0.421732
	C437	C	0.082755	0.343778	0.422344
	C438	C	0.055130	0.379214	0.077697
	C439	C	0.113740	0.277001	0.076084
	C440	C	0.055107	0.379090	0.421776
	C441	C	0.113960	0.277273	0.423039
	C442	C	0.015173	0.362415	0.077547
	C443	C	0.082576	0.343398	0.076381
	C444	C	0.059263	0.347055	0.172427
	C445	C	0.121738	0.409686	0.172171
	C446	C	0.020841	0.321228	0.326388
	C447	C	0.083239	0.384106	0.326669
	C448	C	0.020793	0.321493	0.172528
	C449	C	0.083296	0.383829	0.172499
	C450	C	0.059331	0.346896	0.327503
	C451	C	0.121863	0.409398	0.326847
	C452	C	0.019959	0.362151	0.499500
	C453	C	0.086293	0.335947	-0.000738
	C454	C	0.050295	0.378383	0.499443
	C455	C	0.110274	0.284899	-0.000459
	C456	C	0.055298	0.342200	0.249955
	C457	C	0.117807	0.404729	0.249745
	C458	C	0.025354	0.323916	0.249596
	C459	C	0.087790	0.386701	0.249682
	C460	C	0.027830	0.365050	0.499650
	C461	C	0.092411	0.323134	-0.000963
	C462	C	0.042611	0.374284	0.499643
	C463	C	0.104241	0.297878	-0.000379
	C464	C	0.047996	0.336307	0.249987
	C465	C	0.110474	0.398850	0.249749
	C466	C	0.033068	0.327866	0.249653
	C467	C	0.095538	0.390529	0.249724
	C468	C	0.031662	0.367373	0.416070
	C469	C	0.095616	0.316915	0.523093
	C470	C	0.038853	0.372036	-0.083470
	C471	C	0.101065	0.304055	-0.053698
	C472	C	0.038839	0.371754	0.416096
	C473	C	0.101361	0.304633	0.523140
	C474	C	0.031703	0.367591	-0.083441
	C475	C	0.095325	0.316327	-0.054059
	C476	C	0.044184	0.333960	0.167409
	C477	C	0.106681	0.396398	0.167196
	C478	C	0.036982	0.329711	0.332371
	C479	C	0.099411	0.392438	0.332079
	C480	C	0.036943	0.329891	0.167084
	C481	C	0.099444	0.392356	0.167397
	C482	C	0.044223	0.333794	0.332494
	C483	C	0.106644	0.396521	0.332088
	N484	N	0.007833	0.363963	0.450452
	N485	N	0.077333	0.354787	0.451817
	N486	N	0.062357	0.379326	0.048998
	N487	N	0.118933	0.265522	0.047241
	N488	N	0.062300	0.379362	0.450298
	N489	N	0.119047	0.265639	0.452053
	N490	N	0.007930	0.363703	0.048405
	N491	N	0.077218	0.354502	0.047209
	N492	N	0.064957	0.354581	0.201646
	N493	N	0.127450	0.417193	0.200981
	N494	N	0.014198	0.317257	0.297748
	N495	N	0.076611	0.379985	0.297783
	N496	N	0.014158	0.317478	0.201175
	N497	N	0.076647	0.379851	0.201172
	N498	N	0.064978	0.354535	0.298041
	N499	N	0.127550	0.416991	0.297341
	H500	H	0.016553	0.361995	0.847858
	H501	H	0.083712	0.341640	0.848366
	H502	H	0.053698	0.379485	0.651405
	H503	H	0.112656	0.278832	0.649168
	H504	H	0.053724	0.379543	0.848221
	H505	H	0.113003	0.279252	0.850070
	H506	H	0.016396	0.361993	0.651454
	H507	H	0.083562	0.341290	0.649964
	H508	H	0.058301	0.345541	0.598391
	H509	H	0.120805	0.407788	0.597699
	H510	H	0.022108	0.321995	0.900260
	H511	H	0.084422	0.384970	0.900332
	H512	H	0.021988	0.322380	0.597959
	H513	H	0.084564	0.384420	0.598851
	H514	H	0.058323	0.345700	0.901686
	H515	H	0.120752	0.408151	0.901244
	H516	H	0.029013	0.365915	1.150434
	H517	H	0.093504	0.321974	1.094175
	H518	H	0.041527	0.373198	0.650152
	H519	H	0.103321	0.299600	0.456158
	H520	H	0.041563	0.373597	1.150392
	H521	H	0.103636	0.300259	1.094264
	H522	H	0.029061	0.365389	0.650162
	H523	H	0.093154	0.321266	0.455992
	H524	H	0.046985	0.335325	0.601685
	H525	H	0.109503	0.397165	0.602164
	H526	H	0.034186	0.328540	0.896993
	H527	H	0.096548	0.391254	0.897300
	H528	H	0.034335	0.328070	0.601284
	H529	H	0.096794	0.390222	0.602076
	H530	H	0.046860	0.335629	0.897227
	H531	H	0.109231	0.398512	0.897384
	Co532	Co	0.132775	0.430964	0.623716
	Co533	Co	0.070278	0.368608	0.624425
	Co534	Co	0.007829	0.306166	0.874520
	Co535	Co	0.070292	0.368748	0.875258
	C536	C	0.015188	0.362513	0.922284
	C537	C	0.082650	0.343609	0.922212
	C538	C	0.055102	0.379161	0.576973
	C539	C	0.113731	0.276864	0.576190
	C540	C	0.055113	0.379214	0.922332
	C541	C	0.113867	0.277143	0.923097
	C542	C	0.015071	0.362540	0.577048
	C543	C	0.082633	0.343479	0.576477
	C544	C	0.059314	0.346994	0.672919
	C545	C	0.121794	0.409365	0.672271
	C546	C	0.020850	0.321383	0.826512
	C547	C	0.083221	0.384147	0.826659
	C548	C	0.020791	0.321576	0.672192
	C549	C	0.083272	0.383864	0.672606
	C550	C	0.059279	0.347153	0.827443
	C551	C	0.121790	0.409507	0.826987
	C552	C	0.020043	0.362177	0.999832
	C553	C	0.086349	0.336092	0.499334
	C554	C	0.050334	0.378624	0.999958
	C555	C	0.110354	0.284961	0.499650
	C556	C	0.055304	0.342271	0.750253
	C557	C	0.117791	0.404569	0.749847
	C558	C	0.025336	0.324149	0.749345
	C559	C	0.087765	0.386658	0.749692
	C560	C	0.027883	0.365321	1.000054
	C561	C	0.092482	0.323268	0.499258
	C562	C	0.042619	0.374634	1.000026
	C563	C	0.104327	0.298026	0.499472
	C564	C	0.048007	0.336346	0.749781
	C565	C	0.110471	0.398725	0.749958
	C566	C	0.033062	0.328055	0.749232
	C567	C	0.095490	0.390464	0.749705
	C568	C	0.031692	0.367550	1.083744
	C569	C	0.095578	0.316981	1.052249
	C570	C	0.038855	0.371645	0.583139
	C571	C	0.101204	0.304385	0.475151
	C572	C	0.038851	0.372035	1.083723
	C573	C	0.101336	0.304715	1.052626
	C574	C	0.031692	0.367164	0.583224
	C575	C	0.095461	0.316666	0.475126
	C576	C	0.044246	0.333866	0.666953
	C577	C	0.106721	0.396038	0.667685
	C578	C	0.036920	0.330032	0.831587
	C579	C	0.099328	0.392663	0.832121
	C580	C	0.037006	0.329838	0.666874
	C581	C	0.099467	0.392006	0.667493
	C582	C	0.044148	0.334089	0.831781
	C583	C	0.106585	0.396681	0.832078
	N584	N	0.007952	0.363766	0.950911
	N585	N	0.077267	0.354627	0.951699
	N586	N	0.062300	0.379346	0.548566
	N587	N	0.118896	0.265364	0.547173
	N588	N	0.062330	0.379330	0.950862
	N589	N	0.119005	0.265608	0.952407
	N590	N	0.007826	0.364004	0.548224
	N591	N	0.077262	0.354594	0.547335
	N592	N	0.064979	0.354572	0.701903
	N593	N	0.127469	0.416897	0.701131
	N594	N	0.014188	0.317364	0.797829
	N595	N	0.076579	0.380049	0.797883
	N596	N	0.014154	0.317455	0.701178
	N597	N	0.076592	0.379961	0.701252
	N598	N	0.064981	0.354586	0.798460
	N599	N	0.127461	0.417006	0.797595
	H600	H	0.008763	0.433200	0.347702
	H601	H	0.078903	0.424213	0.347864
	H602	H	0.046073	0.450540	0.152724
	H603	H	0.116307	0.442135	0.151009
	H604	H	0.045984	0.451085	0.347606
	H605	H	0.116265	0.441886	0.347044
	H606	H	0.008817	0.433247	0.151831
	H607	H	0.079109	0.424401	0.152041
	H608	H	0.049875	0.416467	0.098356
	H609	H	0.112288	0.478994	0.097666
	H610	H	0.012637	0.396352	0.401270
	H611	H	0.075237	0.458497	0.401353
	H612	H	0.012791	0.395705	0.097695
	H613	H	0.075205	0.458414	0.097903
	H614	H	0.049639	0.417046	0.401707
	H615	H	0.112303	0.479087	0.401547
	H616	H	0.020974	0.439357	0.349798
	H617	H	0.091530	0.427670	0.648772
	H618	H	0.033501	0.447031	0.150330
	H619	H	0.104184	0.435710	0.149115
	H620	H	0.033414	0.447148	0.349908
	H621	H	0.104111	0.435263	0.649260
	H622	H	0.020964	0.439400	0.149797
	H623	H	0.091664	0.427991	0.149169
	H624	H	0.037638	0.409561	0.400201
	H625	H	0.100101	0.472519	0.399921
	H626	H	0.024801	0.403447	0.098595
	H627	H	0.087457	0.465216	0.100042
	H628	H	0.024830	0.403236	0.399277
	H629	H	0.087248	0.466338	0.400279
	H630	H	0.037662	0.409384	0.099884
	H631	H	0.100252	0.471475	0.099369
	Co632	Co	0.125019	0.499982	0.123321
	Co633	Co	0.062599	0.437344	0.124474
	Co634	Co	-0.000051	0.375208	0.374950
	Co635	Co	0.062462	0.437776	0.376391
	C636	C	0.007371	0.433393	0.421915
	C637	C	0.077581	0.424989	0.422032
	C638	C	0.047448	0.449967	0.077736
	C639	C	0.117669	0.441830	0.076483
	C640	C	0.047338	0.450425	0.422535
	C641	C	0.117597	0.441512	0.421800
	C642	C	0.007417	0.433476	0.077345
	C643	C	0.077765	0.424891	0.077444
	C644	C	0.050874	0.417882	0.172785
	C645	C	0.113359	0.480405	0.172032
	C646	C	0.011609	0.394833	0.326808
	C647	C	0.074190	0.457157	0.327264
	C648	C	0.011718	0.394502	0.171997
	C649	C	0.074215	0.457068	0.172473
	C650	C	0.050771	0.418151	0.327693
	C651	C	0.113408	0.480339	0.327158
	C652	C	0.012171	0.434088	0.499581
	C653	C	0.082566	0.424616	-0.000272
	C654	C	0.042486	0.450557	0.500130
	C655	C	0.112901	0.441000	-0.000967
	C656	C	0.046527	0.414278	0.250097
	C657	C	0.109106	0.476580	0.249795
	C658	C	0.015961	0.398429	0.249542
	C659	C	0.078481	0.460945	0.249905
	C660	C	0.019884	0.438098	0.499762
	C661	C	0.090440	0.427678	-0.000582
	C662	C	0.034639	0.447484	0.499973
	C663	C	0.105207	0.436957	-0.000859
	C664	C	0.038871	0.409893	0.250031
	C665	C	0.101411	0.472288	0.249868
	C666	C	0.023617	0.402813	0.249200
	C667	C	0.086139	0.465332	0.250025
	C668	C	0.023641	0.440848	0.416559
	C669	C	0.094216	0.429542	0.582693
	C670	C	0.030841	0.445337	0.083598
	C671	C	0.101476	0.434231	0.082486
	C672	C	0.030797	0.445292	0.416392
	C673	C	0.101367	0.433925	0.582777
	C674	C	0.023676	0.440901	0.083296
	C675	C	0.094316	0.429801	0.082700
	C676	C	0.034938	0.408135	0.333381
	C677	C	0.097414	0.470772	0.333193
	C678	C	0.027534	0.404634	0.165713
	C679	C	0.090156	0.466854	0.166681
	C680	C	0.027592	0.404575	0.332561
	C681	C	0.090032	0.467396	0.333479
	C682	C	0.034906	0.408009	0.166504
	C683	C	0.097511	0.470254	0.166336
	N684	N	0.000170	0.433237	0.450395
	N685	N	0.070324	0.426428	0.451377
	N686	N	0.054699	0.448679	0.048938
	N687	N	0.124866	0.441978	0.048063
	N688	N	0.054594	0.449171	0.451068
	N689	N	0.124820	0.441715	0.450252
	N690	N	0.000206	0.433414	0.048347
	N691	N	0.070504	0.426043	0.049060
	N692	N	0.057070	0.423919	0.202092
	N693	N	0.119543	0.486502	0.200908
	N694	N	0.005445	0.388758	0.297934
	N695	N	0.068014	0.451134	0.298623
	N696	N	0.005536	0.388513	0.200775
	N697	N	0.068045	0.451009	0.201424
	N698	N	0.056980	0.424149	0.299054
	N699	N	0.119569	0.486442	0.297913
	H700	H	0.008866	0.433474	0.847103
	H701	H	0.078985	0.424062	0.847261
	H702	H	0.046001	0.450688	0.652098
	H703	H	0.116247	0.441680	0.651302
	H704	H	0.046042	0.450944	0.848466
	H705	H	0.116324	0.441803	0.846305
	H706	H	0.008773	0.432945	0.651436
	H707	H	0.078992	0.424658	0.651458
	H708	H	0.049804	0.416748	0.597322
	H709	H	0.112142	0.479310	0.597496
	H710	H	0.012739	0.396084	0.901879
	H711	H	0.075353	0.458086	0.902364
	H712	H	0.012696	0.396060	0.597066
	H713	H	0.075086	0.458776	0.598292
	H714	H	0.049765	0.416679	0.901501
	H715	H	0.112302	0.479014	0.901273
	H716	H	0.021002	0.439241	0.849501
	H717	H	0.091502	0.428663	0.849088
	H718	H	0.033487	0.446681	0.650199
	H719	H	0.103930	0.436130	0.348847
	H720	H	0.033576	0.446841	0.850238
	H721	H	0.104022	0.436296	0.849017
	H722	H	0.021026	0.438884	0.650070
	H723	H	0.091414	0.428668	0.348703
	H724	H	0.037712	0.408943	0.598518
	H725	H	0.100289	0.471240	0.599202
	H726	H	0.024783	0.403504	0.900073
	H727	H	0.087255	0.466340	0.899564
	H728	H	0.024921	0.402932	0.599642
	H729	H	0.087435	0.464999	0.599550
	H730	H	0.037603	0.409748	0.899206
	H731	H	0.100069	0.472491	0.899315
	Co732	Co	0.124998	0.500084	0.623383
	Co733	Co	0.062475	0.437726	0.624313
	Co734	Co	0.000042	0.375040	0.875110
	Co735	Co	0.062567	0.437343	0.875979
	C736	C	0.007425	0.433608	0.921826
	C737	C	0.077702	0.424796	0.922265
	C738	C	0.047338	0.450212	0.577840
	C739	C	0.117601	0.441409	0.576613
	C740	C	0.047439	0.450175	0.922670
	C741	C	0.117680	0.441623	0.921084
	C742	C	0.007368	0.433315	0.577210
	C743	C	0.077626	0.425125	0.577219
	C744	C	0.050843	0.418042	0.672072
	C745	C	0.113305	0.480550	0.671721
	C746	C	0.011669	0.394697	0.827264
	C747	C	0.074220	0.457001	0.827548
	C748	C	0.011644	0.394785	0.672239
	C749	C	0.074105	0.457263	0.672809
	C750	C	0.050832	0.418035	0.826781
	C751	C	0.113377	0.480385	0.826600
	C752	C	0.012222	0.434252	0.999542
	C753	C	0.082442	0.424646	0.499519
	C754	C	0.042558	0.450407	1.000106
	C755	C	0.112819	0.440739	0.499331
	C756	C	0.046530	0.414292	0.749470
	C757	C	0.109030	0.476706	0.749056
	C758	C	0.015953	0.398470	0.749940
	C759	C	0.078485	0.460885	0.749824
	C760	C	0.019924	0.438261	0.999606
	C761	C	0.090334	0.427568	0.499108
	C762	C	0.034696	0.447497	1.000148
	C763	C	0.105097	0.436711	0.499353
	C764	C	0.038899	0.409803	0.749176
	C765	C	0.101364	0.472306	0.749377
	C766	C	0.023627	0.402718	0.749957
	C767	C	0.086132	0.465239	0.749486
	C768	C	0.023694	0.440799	0.916276
	C769	C	0.094220	0.430190	0.915807
	C770	C	0.030817	0.445079	0.583493
	C771	C	0.101273	0.434431	0.415523
	C772	C	0.030876	0.445199	0.916639
	C773	C	0.101368	0.434632	0.915661
	C774	C	0.023652	0.440612	0.583363
	C775	C	0.094121	0.430040	0.415263
	C776	C	0.034998	0.407744	0.665760
	C777	C	0.097495	0.470167	0.665920
	C778	C	0.027552	0.404609	0.833184
	C779	C	0.090028	0.467363	0.832803
	C780	C	0.027625	0.404348	0.666493
	C781	C	0.090126	0.466707	0.666104
	C782	C	0.034907	0.408141	0.832513
	C783	C	0.097380	0.470823	0.832713
	N784	N	0.000219	0.433454	0.950337
	N785	N	0.070456	0.426040	0.951407
	N786	N	0.054599	0.449016	0.548877
	N787	N	0.124808	0.441635	0.548422
	N788	N	0.054694	0.448741	0.951404
	N789	N	0.124884	0.441856	0.949696
	N790	N	0.000160	0.433187	0.548638
	N791	N	0.070363	0.426508	0.549044
	N792	N	0.057027	0.424055	0.701180
	N793	N	0.119495	0.486530	0.700440
	N794	N	0.005481	0.388688	0.798344
	N795	N	0.068008	0.451031	0.798909
	N796	N	0.005455	0.388776	0.701044
	N797	N	0.067925	0.451233	0.701911
	N798	N	0.057023	0.423975	0.798389
	N799	N	0.119558	0.486413	0.797520
	H800	H	0.012108	0.595858	0.351284
	H801	H	0.071169	0.495517	0.347433
	H802	H	0.041607	0.533954	0.150852
	H803	H	0.108601	0.513152	0.151888
	H804	H	0.041242	0.533414	0.349293
	H805	H	0.108488	0.513079	0.346065
	H806	H	0.012123	0.595799	0.149350
	H807	H	0.071272	0.495656	0.152129
	H808	H	0.040502	0.490462	0.099535
	H809	H	0.102989	0.552836	0.098925
	H810	H	0.004181	0.466976	0.401497
	H811	H	0.066743	0.529490	0.401706
	H812	H	0.004041	0.467386	0.098841
	H813	H	0.066749	0.529522	0.098829
	H814	H	0.040486	0.490680	0.401078
	H815	H	0.103021	0.552793	0.400309
	H816	H	0.021593	0.575467	0.539354
	H817	H	0.083298	0.502179	0.348940
	H818	H	0.031670	0.553793	0.097381
	H819	H	0.096125	0.508415	0.150498
	H820	H	0.031735	0.553807	0.538904
	H821	H	0.095889	0.509782	0.348481
	H822	H	0.021407	0.575271	0.097685
	H823	H	0.083578	0.500952	0.149798
	H824	H	0.028236	0.484558	0.102425
	H825	H	0.090960	0.545984	0.102237
	H826	H	0.015615	0.477146	0.398315
	H827	H	0.078011	0.540275	0.397374
	H828	H	0.015568	0.477338	0.102178
	H829	H	0.078298	0.538735	0.102433
	H830	H	0.028272	0.484324	0.398534
	H831	H	0.090700	0.547543	0.397035
	Co832	Co	0.117231	0.568818	0.124183
	Co833	Co	0.054744	0.506539	0.124802
	Co834	Co	-0.007808	0.443944	0.374831
	Co835	Co	0.054711	0.506576	0.375513
	C836	C	0.011152	0.598035	0.423960
	C837	C	0.069829	0.495920	0.422483
	C838	C	0.042457	0.531853	0.077027
	C839	C	0.109909	0.512531	0.077415
	C840	C	0.042305	0.531589	0.422761
	C841	C	0.109874	0.512481	0.421032
	C842	C	0.011170	0.597972	0.076282
	C843	C	0.069880	0.496012	0.077658
	C844	C	0.041691	0.491320	0.173266
	C845	C	0.104268	0.553551	0.172553
	C846	C	0.003198	0.465583	0.327221
	C847	C	0.065784	0.527996	0.327877
	C848	C	0.003163	0.465724	0.172828
	C849	C	0.065773	0.528031	0.173222
	C850	C	0.041670	0.491410	0.327284
	C851	C	0.104280	0.553539	0.326670
	C852	C	0.014697	0.590220	0.500380
	C853	C	0.074655	0.496629	-0.000283
	C854	C	0.038722	0.539333	0.499853
	C855	C	0.105010	0.512822	-0.000014
	C856	C	0.037147	0.488742	0.250222
	C857	C	0.099736	0.550956	0.249739
	C858	C	0.007176	0.470462	0.250148
	C859	C	0.069786	0.532746	0.250533
	C860	C	0.020751	0.577299	0.500364
	C861	C	0.082348	0.500662	-0.000317
	C862	C	0.032598	0.552125	0.500136
	C863	C	0.097137	0.509843	0.000528
	C864	C	0.029430	0.484837	0.250451
	C865	C	0.091998	0.547137	0.249873
	C866	C	0.014487	0.476387	0.250317
	C867	C	0.077085	0.538665	0.250132
	C868	C	0.023789	0.570830	0.522075
	C869	C	0.086065	0.503512	0.415518
	C870	C	0.029461	0.558486	0.054647
	C871	C	0.093383	0.507198	0.083808
	C872	C	0.029549	0.558585	0.521943
	C873	C	0.093253	0.507831	0.415044
	C874	C	0.023656	0.570585	0.054513
	C875	C	0.086200	0.502829	0.083274
	C876	C	0.025528	0.482931	0.167914
	C877	C	0.088203	0.544722	0.167606
	C878	C	0.018318	0.478706	0.332742
	C879	C	0.080820	0.541538	0.332186
	C880	C	0.018294	0.478829	0.167732
	C881	C	0.080969	0.540635	0.167746
	C882	C	0.025556	0.482803	0.332810
	C883	C	0.088051	0.545646	0.331906
	N884	N	0.006000	0.609572	0.452706
	N885	N	0.062623	0.495800	0.451176
	N886	N	0.047790	0.520660	0.047866
	N887	N	0.117124	0.511202	0.047929
	N888	N	0.047719	0.520597	0.452237
	N889	N	0.117103	0.511307	0.450020
	N890	N	0.006030	0.609566	0.047822
	N891	N	0.062651	0.495841	0.049177
	N892	N	0.048335	0.495381	0.201991
	N893	N	0.110925	0.557530	0.201192
	N894	N	-0.002501	0.458116	0.298178
	N895	N	0.060060	0.520557	0.298598
	N896	N	-0.002516	0.458160	0.201646
	N897	N	0.060066	0.520548	0.202381
	N898	N	0.048314	0.495369	0.298714
	N899	N	0.110932	0.557529	0.297735
	H900	H	0.011984	0.595711	0.850605
	H901	H	0.071220	0.495570	0.848004
	H902	H	0.041617	0.534175	0.650566
	H903	H	0.108484	0.513343	0.651020
	H904	H	0.041268	0.533342	0.849142
	H905	H	0.108509	0.512944	0.848180
	H906	H	0.012116	0.595985	0.649578
	H907	H	0.071212	0.496071	0.652043
	H908	H	0.040438	0.490839	0.599102
	H909	H	0.103006	0.553036	0.599173
	H910	H	0.004218	0.467200	0.901179
	H911	H	0.066759	0.529564	0.902762
	H912	H	0.004221	0.467024	0.597931
	H913	H	0.066611	0.530008	0.599209
	H914	H	0.040430	0.490498	0.899583
	H915	H	0.103148	0.552524	0.900463
	H916	H	0.021628	0.575287	0.902038
	H917	H	0.083290	0.502479	0.849897
	H918	H	0.031755	0.553778	0.461063
	H919	H	0.096101	0.508871	0.649115
	H920	H	0.031883	0.553821	0.902327
	H921	H	0.095848	0.510058	0.850608
	H922	H	0.021601	0.575426	0.461095
	H923	H	0.083581	0.501309	0.650116
	H924	H	0.028290	0.484533	0.896398
	H925	H	0.091033	0.545894	0.602660
	H926	H	0.015606	0.477426	0.601901
	H927	H	0.077936	0.540923	0.898012
	H928	H	0.015678	0.477091	0.896575
	H929	H	0.078316	0.538699	0.602580
	H930	H	0.028270	0.484586	0.601361
	H931	H	0.090641	0.548019	0.897762
	Co932	Co	0.117200	0.568928	0.624049
	Co933	Co	0.054735	0.506741	0.624919
	Co934	Co	-0.007760	0.444018	0.874929
	Co935	Co	0.054703	0.506518	0.875684
	C936	C	0.011100	0.597933	0.923657
	C937	C	0.069850	0.495912	0.922283
	C938	C	0.042495	0.531962	0.576912
	C939	C	0.109852	0.512680	0.576280
	C940	C	0.042303	0.531540	0.922877
	C941	C	0.109861	0.512448	0.922116
	C942	C	0.011155	0.598070	0.576715
	C943	C	0.069861	0.496167	0.577597
	C944	C	0.041695	0.491500	0.672570
	C945	C	0.104239	0.553668	0.672741
	C946	C	0.003256	0.465633	0.826868
	C947	C	0.065763	0.528069	0.827886
	C948	C	0.003236	0.465642	0.672422
	C949	C	0.065674	0.528342	0.673437
	C950	C	0.041683	0.491325	0.826495
	C951	C	0.104308	0.553417	0.826718
	C952	C	0.014646	0.590135	0.999808
	C953	C	0.074630	0.496766	0.499606
	C954	C	0.038752	0.539302	0.999933
	C955	C	0.105008	0.512851	0.498452
	C956	C	0.037209	0.488690	0.749208
	C957	C	0.099754	0.550872	0.749903
	C958	C	0.007241	0.470427	0.749488
	C959	C	0.069718	0.532988	0.750651
	C960	C	0.020682	0.577061	0.999406
	C961	C	0.082348	0.500729	0.499281
	C962	C	0.032593	0.552092	0.999847
	C963	C	0.097129	0.509864	0.498545
	C964	C	0.029489	0.484837	0.748883
	C965	C	0.091987	0.547090	0.750199
	C966	C	0.014552	0.476310	0.749243
	C967	C	0.077073	0.538788	0.750245
	C968	C	0.023780	0.570625	0.944811
	C969	C	0.086054	0.503602	0.916565
	C970	C	0.029532	0.558551	0.478358
	C971	C	0.093367	0.507406	0.582506
	C972	C	0.029578	0.558498	0.944924
	C973	C	0.093219	0.508043	0.917062
	C974	C	0.023766	0.570786	0.478388
	C975	C	0.086198	0.503056	0.582988
	C976	C	0.025607	0.482857	0.831007
	C977	C	0.088201	0.544697	0.667676
	C978	C	0.018354	0.478828	0.667064
	C979	C	0.080767	0.541807	0.832747
	C980	C	0.018379	0.478727	0.831205
	C981	C	0.080971	0.540667	0.667646
	C982	C	0.025578	0.482964	0.666821
	C983	C	0.088000	0.545840	0.832719
	N984	N	0.006022	0.609576	0.952726
	N985	N	0.062640	0.495782	0.951039
	N986	N	0.047842	0.520860	0.547541
	N987	N	0.117109	0.511405	0.547613
	N988	N	0.047673	0.520433	0.952250
	N989	N	0.117095	0.511144	0.950356
	N990	N	0.005987	0.609558	0.547557
	N991	N	0.062633	0.495943	0.549457
	N992	N	0.048345	0.495499	0.701669
	N993	N	0.110908	0.557622	0.701326
	N994	N	-0.002439	0.458118	0.797795
	N995	N	0.060022	0.520646	0.798933
	N996	N	-0.002444	0.458141	0.701606
	N997	N	0.059967	0.520819	0.702383
	N998	N	0.048332	0.495429	0.798127
	N999	N	0.110974	0.557417	0.797647
	H1000	H	0.021345	0.779376	0.349177
	H1001	H	0.074834	0.658795	0.349887
	H1002	H	0.050558	0.716540	0.149298
	H1003	H	0.103797	0.595764	0.148948
	H1004	H	0.050352	0.716351	0.349546
	H1005	H	0.103865	0.596090	0.348873
	H1006	H	0.021108	0.778454	0.152280
	H1007	H	0.074688	0.658275	0.148275
	H1008	H	0.048515	0.670281	0.102091
	H1009	H	0.110832	0.733797	0.101952
	H1010	H	0.014137	0.641502	0.397210
	H1011	H	0.076509	0.704463	0.398048
	H1012	H	0.014045	0.641574	0.101934
	H1013	H	0.076821	0.703234	0.102101
	H1014	H	0.048268	0.671153	0.396978
	H1015	H	0.110906	0.733578	0.397360
	H1016	H	0.030240	0.757587	0.529042
	H1017	H	0.084254	0.638157	0.552491
	H1018	H	0.041390	0.737651	-0.058405
	H1019	H	0.094258	0.616181	0.060878
	H1020	H	0.040375	0.735923	0.528772
	H1021	H	0.094396	0.616480	0.551988
	H1022	H	0.031250	0.759322	-0.057672
	H1023	H	0.084060	0.637648	0.062146
	H1024	H	0.037472	0.660445	0.283596
	H1025	H	0.099952	0.723103	0.261824
	H1026	H	0.025038	0.651733	0.214864
	H1027	H	0.087539	0.714441	0.238311
	H1028	H	0.025300	0.650431	0.283540
	H1029	H	0.087826	0.713039	0.262077
	H1030	H	0.037147	0.661815	0.214701
	H1031	H	0.099668	0.724619	0.238127
	Co1032	Co	0.125058	0.750147	0.124660
	Co1033	Co	0.062544	0.687243	0.123997
	Co1034	Co	-0.000034	0.624933	0.375754
	Co1035	Co	0.062475	0.687414	0.375104
	C1036	C	0.020285	0.781069	0.422737
	C1037	C	0.073791	0.660639	0.422840
	C1038	C	0.051428	0.714305	0.076646
	C1039	C	0.104842	0.593830	0.075540
	C1040	C	0.051313	0.714274	0.422815
	C1041	C	0.104863	0.593996	0.422211
	C1042	C	0.020146	0.780673	0.078353
	C1043	C	0.073776	0.660423	0.075466
	C1044	C	0.049647	0.671554	0.173970
	C1045	C	0.112022	0.734714	0.173780
	C1046	C	0.012907	0.640443	0.325484
	C1047	C	0.075398	0.703153	0.325870
	C1048	C	0.012868	0.640453	0.173729
	C1049	C	0.075564	0.702549	0.174026
	C1050	C	0.049524	0.671992	0.325347
	C1051	C	0.112068	0.734588	0.325694
	C1052	C	0.023874	0.773241	0.499533
	C1053	C	0.077271	0.652575	-0.001001
	C1054	C	0.047825	0.722132	0.499040
	C1055	C	0.101239	0.601510	-0.001447
	C1056	C	0.045409	0.667915	0.249582
	C1057	C	0.107896	0.730727	0.249817
	C1058	C	0.017076	0.644303	0.249415
	C1059	C	0.079605	0.706845	0.249870
	C1060	C	0.030013	0.760469	0.499647
	C1061	C	0.083274	0.639505	-0.001099
	C1062	C	0.041818	0.735201	0.498917
	C1063	C	0.095133	0.614388	-0.001524
	C1064	C	0.038249	0.661869	0.249462
	C1065	C	0.100733	0.724625	0.249872
	C1066	C	0.024229	0.650346	0.249319
	C1067	C	0.086743	0.713023	0.249896
	C1068	C	0.032728	0.753411	0.516040
	C1069	C	0.086409	0.633336	0.529030
	C1070	C	0.039010	0.742024	-0.032100
	C1071	C	0.092066	0.620818	0.033753
	C1072	C	0.038456	0.741120	0.515698
	C1073	C	0.092140	0.621063	0.528909
	C1074	C	0.033256	0.754277	-0.031916
	C1075	C	0.086295	0.633018	0.034176
	C1076	C	0.034751	0.658544	0.268510
	C1077	C	0.097234	0.721265	0.256372
	C1078	C	0.027732	0.653621	0.230076
	C1079	C	0.090244	0.716356	0.243411
	C1080	C	0.027876	0.652910	0.268737
	C1081	C	0.090395	0.715578	0.256526
	C1082	C	0.034596	0.659283	0.229977
	C1083	C	0.097073	0.722074	0.243618
	N1084	N	0.014861	0.792015	0.452282
	N1085	N	0.068553	0.672065	0.451615
	N1086	N	0.056546	0.702716	0.047531
	N1087	N	0.110253	0.582822	0.046743
	N1088	N	0.056458	0.702733	0.452048
	N1089	N	0.110219	0.582886	0.451421
	N1090	N	0.014767	0.791815	0.049002
	N1091	N	0.068604	0.671992	0.046593
	N1092	N	0.055771	0.677415	0.202559
	N1093	N	0.118190	0.740438	0.202288
	N1094	N	0.006746	0.634660	0.296973
	N1095	N	0.069295	0.697209	0.297206
	N1096	N	0.006720	0.634726	0.202708
	N1097	N	0.069388	0.696841	0.202965
	N1098	N	0.055696	0.677663	0.296529
	N1099	N	0.118220	0.740369	0.296657
	H1100	H	0.021177	0.778701	0.850447
	H1101	H	0.074682	0.658307	0.849945
	H1102	H	0.050323	0.716316	0.648475
	H1103	H	0.103848	0.596105	0.650027
	H1104	H	0.050237	0.716138	0.851258
	H1105	H	0.104057	0.596208	0.848356
	H1106	H	0.021029	0.778353	0.650229
	H1107	H	0.074467	0.658146	0.648921
	H1108	H	0.048617	0.670221	0.601549
	H1109	H	0.110794	0.733595	0.602180
	H1110	H	0.014009	0.641803	0.898019
	H1111	H	0.076441	0.704628	0.897899
	H1112	H	0.014183	0.641600	0.602787
	H1113	H	0.076665	0.703502	0.601598
	H1114	H	0.048445	0.670775	0.897704
	H1115	H	0.110864	0.733435	0.897793
	H1116	H	0.030443	0.757779	1.059695
	H1117	H	0.084154	0.637763	0.936133
	H1118	H	0.041626	0.738126	0.468718
	H1119	H	0.094097	0.616022	0.445976
	H1120	H	0.040571	0.736065	1.059485
	H1121	H	0.094353	0.616211	0.935844
	H1122	H	0.031535	0.759873	0.470067
	H1123	H	0.083942	0.637655	0.446248
	H1124	H	0.037382	0.661004	0.689356
	H1125	H	0.099119	0.726465	0.754179
	H1126	H	0.025223	0.651385	0.810355
	H1127	H	0.088258	0.711062	0.745511
	H1128	H	0.025202	0.651135	0.689061
	H1129	H	0.087017	0.716316	0.754137
	H1130	H	0.037411	0.661151	0.810223
	H1131	H	0.100404	0.721045	0.746643
	Co1132	Co	0.124933	0.750032	0.624778
	Co1133	Co	0.062498	0.687382	0.624027
	Co1134	Co	-0.000011	0.625037	0.876007
	Co1135	Co	0.062528	0.687438	0.875172
	C1136	C	0.020179	0.780798	0.924112
	C1137	C	0.073746	0.660454	0.922649
	C1138	C	0.051303	0.714244	0.575450
	C1139	C	0.104849	0.593996	0.576101
	C1140	C	0.051288	0.714122	0.924071
	C1141	C	0.104973	0.594033	0.921770
	C1142	C	0.020121	0.780578	0.576636
	C1143	C	0.073625	0.660365	0.575477
	C1144	C	0.049687	0.671512	0.673505
	C1145	C	0.111974	0.734592	0.674252
	C1146	C	0.012839	0.640733	0.826075
	C1147	C	0.075343	0.703274	0.825738
	C1148	C	0.012930	0.640598	0.674615
	C1149	C	0.075454	0.702787	0.673856
	C1150	C	0.049607	0.671807	0.825516
	C1151	C	0.112030	0.734502	0.825714
	C1152	C	0.023839	0.773214	1.001158
	C1153	C	0.077228	0.652665	0.499264
	C1154	C	0.047851	0.722045	1.000447
	C1155	C	0.101202	0.601586	0.498982
	C1156	C	0.045497	0.667762	0.749664
	C1157	C	0.107844	0.730646	0.750021
	C1158	C	0.017051	0.644535	0.750334
	C1159	C	0.079552	0.706917	0.749821
	C1160	C	0.029971	0.760353	1.001154
	C1161	C	0.083270	0.639677	0.499341
	C1162	C	0.041808	0.735092	1.000629
	C1163	C	0.095113	0.614487	0.498887
	C1164	C	0.038335	0.661733	0.749909
	C1165	C	0.100695	0.724553	0.750277
	C1166	C	0.024240	0.650511	0.750076
	C1167	C	0.086717	0.712957	0.749956
	C1168	C	0.032803	0.753437	1.033873
	C1169	C	0.086350	0.633041	0.963672
	C1170	C	0.039131	0.742373	0.482411
	C1171	C	0.091978	0.620803	0.469128
	C1172	C	0.038546	0.741162	1.033834
	C1173	C	0.092109	0.620824	0.963480
	C1174	C	0.033410	0.754655	0.482863
	C1175	C	0.086221	0.633045	0.469494
	C1176	C	0.034728	0.658834	0.715852
	C1177	C	0.096787	0.723027	0.752535
	C1178	C	0.027837	0.653440	0.783939
	C1179	C	0.090650	0.714420	0.747656
	C1180	C	0.027839	0.653312	0.715808
	C1181	C	0.089945	0.717346	0.752257
	C1182	C	0.034734	0.658921	0.784026
	C1183	C	0.097486	0.720123	0.748032
	N1184	N	0.014793	0.791916	0.953186
	N1185	N	0.068595	0.672028	0.951723
	N1186	N	0.056462	0.702724	0.546827
	N1187	N	0.110208	0.582885	0.547111
	N1188	N	0.056464	0.702605	0.952804
	N1189	N	0.110331	0.582932	0.951237
	N1190	N	0.014768	0.791717	0.547637
	N1191	N	0.068466	0.671896	0.546688
	N1192	N	0.055788	0.677447	0.702410
	N1193	N	0.118135	0.740335	0.702962
	N1194	N	0.006702	0.634978	0.797484
	N1195	N	0.069206	0.697399	0.797034
	N1196	N	0.006763	0.634852	0.703167
	N1197	N	0.069280	0.697106	0.702562
	N1198	N	0.055741	0.677674	0.796595
	N1199	N	0.118172	0.740276	0.797214
	H1200	H	0.016454	0.861948	0.348047
	H1201	H	0.083497	0.841167	0.350431
	H1202	H	0.053727	0.879381	0.153279
	H1203	H	0.112824	0.779056	0.149593
	H1204	H	0.053757	0.879556	0.349127
	H1205	H	0.112891	0.779105	0.350559
	H1206	H	0.016520	0.861511	0.152105
	H1207	H	0.083634	0.841204	0.151616
	H1208	H	0.058360	0.845363	0.098648
	H1209	H	0.120720	0.907795	0.099102
	H1210	H	0.021875	0.822516	0.400814
	H1211	H	0.084534	0.884286	0.403169
	H1212	H	0.021988	0.821851	0.099673
	H1213	H	0.084524	0.884507	0.101039
	H1214	H	0.058287	0.845324	0.402057
	H1215	H	0.120861	0.907821	0.402091
	H1216	H	0.029116	0.865269	0.350384
	H1217	H	0.093624	0.822105	0.456951
	H1218	H	0.041709	0.872943	-0.149377
	H1219	H	0.103774	0.799981	0.098714
	H1220	H	0.041661	0.872778	0.350669
	H1221	H	0.103801	0.800423	0.456809
	H1222	H	0.029155	0.865216	-0.149593
	H1223	H	0.093593	0.821544	0.099716
	H1224	H	0.046805	0.835611	0.102635
	H1225	H	0.109316	0.898145	0.399207
	H1226	H	0.034284	0.827683	0.397412
	H1227	H	0.096721	0.890058	0.104522
	H1228	H	0.034090	0.828586	0.102501
	H1229	H	0.096686	0.890853	0.399821
	H1230	H	0.046945	0.834859	0.397331
	H1231	H	0.109379	0.897386	0.103996
	Co1232	Co	0.132814	0.930698	0.124199
	Co1233	Co	0.070296	0.868505	0.125872
	Co1234	Co	0.007818	0.806012	0.375619
	Co1235	Co	0.070231	0.868455	0.376808
	C1236	C	0.015100	0.862541	0.422560
	C1237	C	0.082568	0.843301	0.423857
	C1238	C	0.055142	0.879085	0.078792
	C1239	C	0.113812	0.777005	0.076536
	C1240	C	0.055127	0.879091	0.423672
	C1241	C	0.113800	0.777022	0.423767
	C1242	C	0.015165	0.862204	0.077404
	C1243	C	0.082636	0.843308	0.077754
	C1244	C	0.059277	0.846889	0.173143
	C1245	C	0.121768	0.909209	0.173054
	C1246	C	0.020697	0.821596	0.327160
	C1247	C	0.083273	0.883650	0.329080
	C1248	C	0.020747	0.821263	0.173172
	C1249	C	0.083276	0.883764	0.174922
	C1250	C	0.059227	0.846925	0.327729
	C1251	C	0.121807	0.909290	0.327770
	C1252	C	0.019974	0.862143	0.500160
	C1253	C	0.086314	0.835797	0.000751
	C1254	C	0.050315	0.878396	0.501074
	C1255	C	0.110343	0.784911	-0.000025
	C1256	C	0.055270	0.842066	0.250155
	C1257	C	0.117764	0.904528	0.250831
	C1258	C	0.025230	0.824105	0.250138
	C1259	C	0.087800	0.886275	0.252174
	C1260	C	0.027846	0.865111	0.500282
	C1261	C	0.092462	0.823006	0.000771
	C1262	C	0.042619	0.874366	0.500643
	C1263	C	0.104305	0.797899	0.000101
	C1264	C	0.047939	0.836207	0.250035
	C1265	C	0.110470	0.898631	0.251529
	C1266	C	0.032970	0.827918	0.249953
	C1267	C	0.095528	0.890198	0.252075
	C1268	C	0.031742	0.867084	0.417096
	C1269	C	0.095683	0.817048	0.475886
	C1270	C	0.038964	0.871589	-0.082611
	C1271	C	0.101425	0.804508	0.055530
	C1272	C	0.038912	0.871512	0.417406
	C1273	C	0.101443	0.804817	0.475567
	C1274	C	0.031805	0.867092	-0.082872
	C1275	C	0.095670	0.816739	0.056020
	C1276	C	0.044080	0.834012	0.167852
	C1277	C	0.106636	0.896432	0.333841
	C1278	C	0.036936	0.829537	0.332087
	C1279	C	0.099439	0.891859	0.169671
	C1280	C	0.036830	0.830017	0.167744
	C1281	C	0.099410	0.892326	0.334178
	C1282	C	0.044186	0.833524	0.332115
	C1283	C	0.106668	0.895975	0.169590
	N1284	N	0.007852	0.863887	0.451040
	N1285	N	0.077171	0.854347	0.453098
	N1286	N	0.062352	0.879275	0.050485
	N1287	N	0.118970	0.765464	0.047823
	N1288	N	0.062331	0.879134	0.452357
	N1289	N	0.118944	0.765457	0.452592
	N1290	N	0.007914	0.863539	0.048685
	N1291	N	0.077205	0.854319	0.048738
	N1292	N	0.064926	0.854493	0.202832
	N1293	N	0.127473	0.916725	0.201562
	N1294	N	0.014066	0.817461	0.298520
	N1295	N	0.076653	0.879575	0.299865
	N1296	N	0.014084	0.817281	0.201819
	N1297	N	0.076637	0.879695	0.203536
	N1298	N	0.064911	0.854468	0.299095
	N1299	N	0.127474	0.916817	0.298181
	H1300	H	0.016535	0.862142	0.847960
	H1301	H	0.083608	0.841174	0.849997
	H1302	H	0.053707	0.879203	0.653254
	H1303	H	0.112928	0.779218	0.649428
	H1304	H	0.053732	0.879459	0.848885
	H1305	H	0.112992	0.779216	0.850463
	H1306	H	0.016423	0.861821	0.651866
	H1307	H	0.083722	0.841499	0.650664
	H1308	H	0.058248	0.845414	0.599810
	H1309	H	0.120773	0.907585	0.598647
	H1310	H	0.021908	0.822266	0.900781
	H1311	H	0.084478	0.884283	0.901645
	H1312	H	0.022034	0.821464	0.599363
	H1313	H	0.084444	0.884317	0.600768
	H1314	H	0.058200	0.845382	0.903111
	H1315	H	0.120758	0.907952	0.902254
	H1316	H	0.028917	0.866428	1.150843
	H1317	H	0.092957	0.820874	0.901884
	H1318	H	0.041467	0.873747	0.650637
	H1319	H	0.103136	0.799015	0.542725
	H1320	H	0.041459	0.874055	1.151259
	H1321	H	0.103189	0.799273	0.901828
	H1322	H	0.028906	0.866062	0.650064
	H1323	H	0.092936	0.820550	0.542898
	H1324	H	0.046881	0.834897	0.898362
	H1325	H	0.109469	0.897154	0.603471
	H1326	H	0.034035	0.828773	0.602418
	H1327	H	0.096543	0.891277	0.898440
	H1328	H	0.034239	0.827478	0.897523
	H1329	H	0.096758	0.890026	0.603720
	H1330	H	0.046715	0.836033	0.603176
	H1331	H	0.109201	0.898351	0.898464
	Co1332	Co	0.132806	0.930592	0.624803
	Co1333	Co	0.070284	0.868391	0.625869
	Co1334	Co	0.007796	0.805896	0.875451
	Co1335	Co	0.070235	0.868408	0.876678
	C1336	C	0.015165	0.862442	0.922525
	C1337	C	0.082612	0.843285	0.923821
	C1338	C	0.055103	0.878989	0.578860
	C1339	C	0.113836	0.777071	0.576298
	C1340	C	0.055157	0.879176	0.923452
	C1341	C	0.113888	0.777053	0.923501
	C1342	C	0.015079	0.862451	0.577522
	C1343	C	0.082682	0.843459	0.577395
	C1344	C	0.059247	0.846866	0.674067
	C1345	C	0.121774	0.909161	0.673140
	C1346	C	0.020697	0.821449	0.827238
	C1347	C	0.083266	0.883633	0.828247
	C1348	C	0.020762	0.821076	0.673276
	C1349	C	0.083256	0.883656	0.674384
	C1350	C	0.059181	0.846974	0.828697
	C1351	C	0.121717	0.909388	0.827775
	C1352	C	0.020066	0.861978	1.000012
	C1353	C	0.086308	0.835934	0.500555
	C1354	C	0.050353	0.878407	1.000986
	C1355	C	0.110296	0.784861	0.499991
	C1356	C	0.055219	0.842082	0.751215
	C1357	C	0.117758	0.904484	0.750484
	C1358	C	0.025217	0.824038	0.750236
	C1359	C	0.087763	0.886419	0.751311
	C1360	C	0.027925	0.865035	1.000495
	C1361	C	0.092449	0.823103	0.500009
	C1362	C	0.042674	0.874370	1.000901
	C1363	C	0.104301	0.797955	0.499680
	C1364	C	0.047910	0.836223	0.750685
	C1365	C	0.110418	0.898672	0.750785
	C1366	C	0.032961	0.827879	0.750126
	C1367	C	0.095478	0.890318	0.751069
	C1368	C	0.031676	0.867688	1.084072
	C1369	C	0.095342	0.816346	0.944990
	C1370	C	0.038796	0.872018	0.583926
	C1371	C	0.101077	0.804011	0.523826
	C1372	C	0.038839	0.872163	1.084510
	C1373	C	0.101115	0.804145	0.944860
	C1374	C	0.031642	0.867525	0.583709
	C1375	C	0.095332	0.816227	0.523707
	C1376	C	0.044158	0.833527	0.832564
	C1377	C	0.106671	0.895922	0.668627
	C1378	C	0.036816	0.830096	0.667856
	C1379	C	0.099311	0.892565	0.833245
	C1380	C	0.036913	0.829485	0.832467
	C1381	C	0.099426	0.891892	0.668909
	C1382	C	0.044061	0.834180	0.668336
	C1383	C	0.106553	0.896596	0.833242
	N1384	N	0.007914	0.863729	0.951177
	N1385	N	0.077200	0.854308	0.953066
	N1386	N	0.062324	0.879021	0.550466
	N1387	N	0.118967	0.765478	0.547476
	N1388	N	0.062366	0.879303	0.952141
	N1389	N	0.119001	0.765469	0.952803
	N1390	N	0.007833	0.863833	0.548630
	N1391	N	0.077251	0.854444	0.548672
	N1392	N	0.064944	0.854365	0.703377
	N1393	N	0.127483	0.916656	0.702096
	N1394	N	0.014068	0.817305	0.798606
	N1395	N	0.076637	0.879543	0.799425
	N1396	N	0.014122	0.817056	0.701960
	N1397	N	0.076639	0.879603	0.702831
	N1398	N	0.064886	0.854439	0.799667
	N1399	N	0.127449	0.916807	0.798488
	H1400	H	0.008641	0.933379	0.348062
	H1401	H	0.079013	0.924540	0.348978
	H1402	H	0.045978	0.950663	0.151943
	H1403	H	0.116353	0.942009	0.152317
	H1404	H	0.045924	0.950664	0.348999
	H1405	H	0.116262	0.941481	0.348118
	H1406	H	0.008690	0.933008	0.151574
	H1407	H	0.079056	0.924602	0.153419
	H1408	H	0.049773	0.916585	0.099342
	H1409	H	0.112216	0.979202	0.098292
	H1410	H	0.012669	0.896060	0.401615
	H1411	H	0.075242	0.958399	0.402188
	H1412	H	0.012771	0.895667	0.097542
	H1413	H	0.075170	0.958436	0.098742
	H1414	H	0.049780	0.916720	0.402751
	H1415	H	0.112284	0.979088	0.401949
	H1416	H	0.020888	0.938796	0.350382
	H1417	H	0.091608	0.927973	0.651066
	H1418	H	0.033417	0.946959	0.150147
	H1419	H	0.104299	0.935205	0.150507
	H1420	H	0.033473	0.946416	0.351013
	H1421	H	0.104140	0.935474	0.650811
	H1422	H	0.020821	0.939490	0.150249
	H1423	H	0.091708	0.927660	0.151140
	H1424	H	0.037706	0.909399	0.100767
	H1425	H	0.100211	0.971833	0.400626
	H1426	H	0.024846	0.902819	0.399991
	H1427	H	0.087432	0.965267	0.100289
	H1428	H	0.024839	0.903251	0.100132
	H1429	H	0.087363	0.965732	0.401159
	H1430	H	0.037684	0.908869	0.400741
	H1431	H	0.100192	0.971511	0.100060
	Co1432	Co	0.125008	0.999922	0.124327
	Co1433	Co	0.062500	0.937506	0.125299
	Co1434	Co	-0.000042	0.875148	0.375698
	Co1435	Co	0.062488	0.937544	0.377005
	C1436	C	0.007271	0.933544	0.422793
	C1437	C	0.077631	0.925021	0.423485
	C1438	C	0.047327	0.950038	0.077827
	C1439	C	0.117713	0.941530	0.077743
	C1440	C	0.047312	0.950017	0.423594
	C1441	C	0.117666	0.941249	0.422680
	C1442	C	0.007300	0.933381	0.077390
	C1443	C	0.077687	0.924985	0.079345
	C1444	C	0.050848	0.917871	0.173827
	C1445	C	0.113317	0.980376	0.172685
	C1446	C	0.011653	0.894514	0.327158
	C1447	C	0.074188	0.956983	0.327990
	C1448	C	0.011699	0.894341	0.172262
	C1449	C	0.074146	0.957079	0.173297
	C1450	C	0.050843	0.917874	0.328416
	C1451	C	0.113348	0.980395	0.327478
	C1452	C	0.012078	0.934075	0.500342
	C1453	C	0.082543	0.924631	0.001482
	C1454	C	0.042416	0.950317	0.501025
	C1455	C	0.112923	0.940822	0.000189
	C1456	C	0.046537	0.914110	0.251035
	C1457	C	0.109047	0.976622	0.250336
	C1458	C	0.015999	0.898123	0.249639
	C1459	C	0.078479	0.960749	0.250819
	C1460	C	0.019787	0.938032	0.500502
	C1461	C	0.090416	0.927649	0.001106
	C1462	C	0.034557	0.947290	0.501006
	C1463	C	0.105203	0.936856	0.000388
	C1464	C	0.038897	0.909673	0.250861
	C1465	C	0.101403	0.972173	0.250515
	C1466	C	0.023652	0.902517	0.249792
	C1467	C	0.086141	0.965081	0.250805
	C1468	C	0.023580	0.940424	0.417023
	C1469	C	0.094243	0.929679	0.584382
	C1470	C	0.030744	0.945199	0.083569
	C1471	C	0.101507	0.933926	0.084041
	C1472	C	0.030759	0.944860	0.417441
	C1473	C	0.101411	0.934051	0.584196
	C1474	C	0.023576	0.940736	0.083468
	C1475	C	0.094333	0.929559	0.084422
	C1476	C	0.034956	0.907966	0.167405
	C1477	C	0.097456	0.970427	0.333999
	C1478	C	0.027591	0.904224	0.333345
	C1479	C	0.090124	0.966703	0.167296
	C1480	C	0.027600	0.904432	0.166806
	C1481	C	0.090088	0.967003	0.334016
	C1482	C	0.034937	0.907729	0.333868
	C1483	C	0.097472	0.970203	0.167041
	N1484	N	0.000057	0.933418	0.451409
	N1485	N	0.070384	0.926278	0.452228
	N1486	N	0.054589	0.948622	0.049186
	N1487	N	0.124928	0.941593	0.049057
	N1488	N	0.054542	0.948695	0.452569
	N1489	N	0.124877	0.941435	0.451114
	N1490	N	0.000095	0.933285	0.048973
	N1491	N	0.070424	0.926178	0.050261
	N1492	N	0.057006	0.923987	0.202775
	N1493	N	0.119492	0.986460	0.201608
	N1494	N	0.005438	0.888592	0.298382
	N1495	N	0.067971	0.951066	0.299398
	N1496	N	0.005468	0.888481	0.201287
	N1497	N	0.067964	0.951077	0.202190
	N1498	N	0.057007	0.923932	0.299712
	N1499	N	0.119501	0.986499	0.298468
	H1500	H	0.008688	0.933252	0.848122
	H1501	H	0.079031	0.923990	0.849458
	H1502	H	0.045911	0.950560	0.653493
	H1503	H	0.116321	0.941818	0.652205
	H1504	H	0.045989	0.950356	0.848477
	H1505	H	0.116314	0.941623	0.848231
	H1506	H	0.008670	0.933018	0.652925
	H1507	H	0.078977	0.924454	0.653601
	H1508	H	0.049662	0.916873	0.599180
	H1509	H	0.112196	0.979073	0.597740
	H1510	H	0.012658	0.895858	0.902561
	H1511	H	0.075278	0.958064	0.903455
	H1512	H	0.012704	0.895919	0.598252
	H1513	H	0.075153	0.958377	0.598927
	H1514	H	0.049842	0.916291	0.902847
	H1515	H	0.112197	0.979019	0.901762
	H1516	H	0.020929	0.939017	0.849664
	H1517	H	0.091464	0.928748	0.850935
	H1518	H	0.033326	0.947022	0.650968
	H1519	H	0.104012	0.936053	0.350610
	H1520	H	0.033479	0.946499	0.849932
	H1521	H	0.104011	0.936264	0.850549
	H1522	H	0.020779	0.939354	0.650543
	H1523	H	0.091413	0.928641	0.350726
	H1524	H	0.037709	0.908908	0.901069
	H1525	H	0.100135	0.971446	0.599959
	H1526	H	0.024700	0.903754	0.600718
	H1527	H	0.087261	0.965970	0.900992
	H1528	H	0.024881	0.902604	0.901079
	H1529	H	0.087309	0.965319	0.600577
	H1530	H	0.037586	0.909785	0.600938
	H1531	H	0.100105	0.972264	0.900250
	Co1532	Co	0.125001	0.999899	0.624531
	Co1533	Co	0.062460	0.937466	0.625022
	Co1534	Co	-0.000029	0.874947	0.875501
	Co1535	Co	0.062535	0.937129	0.876633
	C1536	C	0.007299	0.933516	0.922431
	C1537	C	0.077687	0.924648	0.924043
	C1538	C	0.047294	0.949995	0.578729
	C1539	C	0.117672	0.941464	0.577752
	C1540	C	0.047347	0.949810	0.922711
	C1541	C	0.117697	0.941372	0.922613
	C1542	C	0.007282	0.933356	0.578026
	C1543	C	0.077613	0.924982	0.578681
	C1544	C	0.050788	0.917978	0.673576
	C1545	C	0.113293	0.980351	0.672394
	C1546	C	0.011590	0.894610	0.827643
	C1547	C	0.074148	0.956932	0.828439
	C1548	C	0.011622	0.894594	0.672845
	C1549	C	0.074104	0.957071	0.673675
	C1550	C	0.050886	0.917616	0.828287
	C1551	C	0.113321	0.980294	0.827297
	C1552	C	0.012114	0.934070	0.999944
	C1553	C	0.082493	0.924672	0.501051
	C1554	C	0.042469	0.950259	1.000229
	C1555	C	0.112866	0.940692	0.500222
	C1556	C	0.046520	0.914102	0.750914
	C1557	C	0.108992	0.976622	0.750046
	C1558	C	0.015926	0.898320	0.750439
	C1559	C	0.078420	0.960776	0.751205
	C1560	C	0.019832	0.938065	0.999983
	C1561	C	0.090355	0.927637	0.500946
	C1562	C	0.034610	0.947274	1.000200
	C1563	C	0.105157	0.936732	0.500654
	C1564	C	0.038851	0.909737	0.750848
	C1565	C	0.101310	0.972289	0.750211
	C1566	C	0.023593	0.902684	0.750720
	C1567	C	0.086067	0.965196	0.750960
	C1568	C	0.023615	0.940562	0.916550
	C1569	C	0.094181	0.930169	0.917642
	C1570	C	0.030697	0.945157	0.584369
	C1571	C	0.101322	0.934436	0.417242
	C1572	C	0.030792	0.944957	0.916586
	C1573	C	0.101351	0.934547	0.917199
	C1574	C	0.023531	0.940732	0.584014
	C1575	C	0.094131	0.930093	0.417377
	C1576	C	0.034935	0.907694	0.834296
	C1577	C	0.097380	0.970299	0.666806
	C1578	C	0.027495	0.904791	0.667372
	C1579	C	0.089997	0.967248	0.834048
	C1580	C	0.027583	0.904185	0.834345
	C1581	C	0.090019	0.966867	0.667277
	C1582	C	0.034875	0.908166	0.667420
	C1583	C	0.097341	0.970770	0.833658
	N1584	N	0.000100	0.933370	0.950659
	N1585	N	0.070432	0.925949	0.952762
	N1586	N	0.054533	0.948722	0.550197
	N1587	N	0.124896	0.941496	0.549197
	N1588	N	0.054602	0.948504	0.951610
	N1589	N	0.124904	0.941491	0.950932
	N1590	N	0.000063	0.933304	0.549419
	N1591	N	0.070373	0.926213	0.549929
	N1592	N	0.057005	0.923905	0.702434
	N1593	N	0.119495	0.986357	0.701465
	N1594	N	0.005391	0.888642	0.798433
	N1595	N	0.067992	0.950824	0.799768
	N1596	N	0.005420	0.888627	0.701232
	N1597	N	0.067930	0.950983	0.702627
	N1598	N	0.057078	0.923645	0.799340
	N1599	N	0.119513	0.986281	0.798337
	H1600	H	0.133708	0.058124	0.348621
	H1601	H	0.204039	0.049181	0.348594
	H1602	H	0.170915	0.075420	0.152806
	H1603	H	0.241242	0.067013	0.151844
	H1604	H	0.170979	0.075520	0.348390
	H1605	H	0.241190	0.066616	0.348371
	H1606	H	0.133632	0.057953	0.152543
	H1607	H	0.203978	0.049401	0.152512
	H1608	H	0.174836	0.041223	0.098161
	H1609	H	0.237114	0.104467	0.097040
	H1610	H	0.137571	0.021258	0.401992
	H1611	H	0.200370	0.082979	0.402386
	H1612	H	0.137753	0.020652	0.099107
	H1613	H	0.200149	0.083464	0.098409
	H1614	H	0.174654	0.041790	0.402552
	H1615	H	0.237348	0.103836	0.400835
	H1616	H	0.145879	0.064348	0.350790
	H1617	H	0.216438	0.053607	0.350509
	H1618	H	0.158350	0.071981	0.150843
	H1619	H	0.229087	0.060828	-0.150718
	H1620	H	0.158387	0.071796	0.350131
	H1621	H	0.229002	0.061232	0.350732
	H1622	H	0.145847	0.064265	0.150540
	H1623	H	0.216534	0.053200	-0.150187
	H1624	H	0.162608	0.034474	0.100395
	H1625	H	0.225244	0.096506	0.099254
	H1626	H	0.149967	0.027737	0.400621
	H1627	H	0.212256	0.091173	0.400523
	H1628	H	0.149744	0.028401	0.100550
	H1629	H	0.212411	0.090215	0.100250
	H1630	H	0.162747	0.033784	0.400393
	H1631	H	0.225067	0.097408	0.399111
	Co1632	Co	0.249927	0.125318	0.123550
	Co1633	Co	0.187458	0.062484	0.124462
	Co1634	Co	0.124962	0.000135	0.375844
	Co1635	Co	0.187498	0.062444	0.376450
	C1636	C	0.132325	0.058491	0.423069
	C1637	C	0.202654	0.049807	0.422906
	C1638	C	0.172306	0.075041	0.078235
	C1639	C	0.242635	0.066672	0.077174
	C1640	C	0.172302	0.075011	0.422741
	C1641	C	0.242610	0.066440	0.422471
	C1642	C	0.132290	0.058326	0.078035
	C1643	C	0.202622	0.049988	0.077895
	C1644	C	0.175887	0.042672	0.172956
	C1645	C	0.238247	0.105666	0.171531
	C1646	C	0.136619	0.019651	0.328126
	C1647	C	0.199252	0.081829	0.327532
	C1648	C	0.136674	0.019457	0.173630
	C1649	C	0.199136	0.082028	0.172766
	C1650	C	0.175802	0.042886	0.327852
	C1651	C	0.238383	0.105345	0.326464
	C1652	C	0.137119	0.059229	0.500584
	C1653	C	0.207509	0.049644	0.000065
	C1654	C	0.167434	0.075350	0.500166
	C1655	C	0.237840	0.065911	-0.000633
	C1656	C	0.171553	0.039002	0.250092
	C1657	C	0.234033	0.101706	0.249108
	C1658	C	0.140939	0.023336	0.250729
	C1659	C	0.203493	0.085720	0.249963
	C1660	C	0.144828	0.063201	0.500602
	C1661	C	0.215400	0.052528	-0.000120
	C1662	C	0.159583	0.072416	0.500230
	C1663	C	0.230158	0.061823	-0.000536
	C1664	C	0.163889	0.034614	0.249996
	C1665	C	0.226370	0.097306	0.249150
	C1666	C	0.148622	0.027653	0.250459
	C1667	C	0.211137	0.090204	0.250108
	C1668	C	0.148578	0.065791	0.417294
	C1669	C	0.219163	0.055106	0.417016
	C1670	C	0.155708	0.070203	0.084172
	C1671	C	0.226391	0.059245	-0.083909
	C1672	C	0.155747	0.070174	0.416912
	C1673	C	0.226328	0.059547	0.417240
	C1674	C	0.148547	0.065726	0.083878
	C1675	C	0.219221	0.054790	-0.083649
	C1676	C	0.159885	0.033030	0.167084
	C1677	C	0.222492	0.095277	0.165868
	C1678	C	0.152641	0.029234	0.333734
	C1679	C	0.215007	0.092276	0.333573
	C1680	C	0.152516	0.029654	0.167093
	C1681	C	0.215130	0.091831	0.166895
	C1682	C	0.159997	0.032695	0.333628
	C1683	C	0.222360	0.095761	0.332580
	N1684	N	0.125125	0.058423	0.451730
	N1685	N	0.195412	0.051161	0.451784
	N1686	N	0.179546	0.073656	0.049034
	N1687	N	0.249840	0.066814	0.048764
	N1688	N	0.179549	0.073630	0.451569
	N1689	N	0.249842	0.066646	0.450746
	N1690	N	0.125072	0.058220	0.049486
	N1691	N	0.195364	0.051320	0.048812
	N1692	N	0.182040	0.048788	0.201995
	N1693	N	0.244421	0.111748	0.200317
	N1694	N	0.130408	0.013661	0.299034
	N1695	N	0.193041	0.075875	0.298916
	N1696	N	0.130492	0.013413	0.202215
	N1697	N	0.192980	0.075953	0.201919
	N1698	N	0.181972	0.048956	0.299017
	N1699	N	0.244528	0.111519	0.297195
	H1700	H	0.133653	0.058289	0.847888
	H1701	H	0.204000	0.049469	0.847653
	H1702	H	0.170973	0.075476	0.652105
	H1703	H	0.241282	0.067235	0.652576
	H1704	H	0.170877	0.075674	0.848481
	H1705	H	0.241262	0.066881	0.847126
	H1706	H	0.133729	0.058519	0.652905
	H1707	H	0.204002	0.049565	0.652979
	H1708	H	0.174746	0.041510	0.599062
	H1709	H	0.237215	0.104120	0.597508
	H1710	H	0.137836	0.020542	0.902976
	H1711	H	0.200227	0.083192	0.901932
	H1712	H	0.137538	0.021170	0.598895
	H1713	H	0.200167	0.083357	0.597783
	H1714	H	0.174660	0.041902	0.902114
	H1715	H	0.237194	0.104192	0.901365
	H1716	H	0.145867	0.064137	0.850167
	H1717	H	0.216578	0.053124	1.150332
	H1718	H	0.158452	0.071759	0.650585
	H1719	H	0.229131	0.060474	0.650588
	H1720	H	0.158390	0.071706	0.850200
	H1721	H	0.229108	0.060806	1.149905
	H1722	H	0.145905	0.064224	0.650703
	H1723	H	0.216593	0.052851	0.650348
	H1724	H	0.162548	0.034611	0.900060
	H1725	H	0.225136	0.096955	0.900253
	H1726	H	0.149783	0.028249	0.600394
	H1727	H	0.212302	0.090346	0.599942
	H1728	H	0.149758	0.028291	0.900883
	H1729	H	0.212286	0.090730	0.900067
	H1730	H	0.162631	0.034281	0.600117
	H1731	H	0.225103	0.096570	0.599955
	Co1732	Co	0.249975	0.124867	0.623447
	Co1733	Co	0.187451	0.062455	0.624845
	Co1734	Co	0.124982	-0.000193	0.876076
	Co1735	Co	0.187478	0.062514	0.875709
	C1736	C	0.132295	0.058409	0.922759
	C1737	C	0.202624	0.050019	0.922580
	C1738	C	0.172291	0.075033	0.577918
	C1739	C	0.242650	0.066699	0.577940
	C1740	C	0.172293	0.075035	0.922907
	C1741	C	0.242649	0.066572	0.922049
	C1742	C	0.132320	0.058692	0.578241
	C1743	C	0.202645	0.049992	0.578218
	C1744	C	0.175814	0.042823	0.672985
	C1745	C	0.238267	0.105426	0.672076
	C1746	C	0.136690	0.019324	0.827949
	C1747	C	0.199128	0.081986	0.827543
	C1748	C	0.136576	0.019577	0.673234
	C1749	C	0.199087	0.082161	0.672404
	C1750	C	0.175757	0.043049	0.827819
	C1751	C	0.238260	0.105499	0.826976
	C1752	C	0.137102	0.059034	1.000447
	C1753	C	0.207520	0.049590	0.500585
	C1754	C	0.167410	0.075437	1.000664
	C1755	C	0.237833	0.065927	0.500477
	C1756	C	0.171462	0.039258	0.750338
	C1757	C	0.233949	0.101758	0.749726
	C1758	C	0.140927	0.023248	0.750415
	C1759	C	0.203416	0.085774	0.750166
	C1760	C	0.144775	0.063121	1.000432
	C1761	C	0.215383	0.052643	0.500382
	C1762	C	0.159541	0.072407	1.000616
	C1763	C	0.230147	0.061909	0.500631
	C1764	C	0.163794	0.034889	0.750194
	C1765	C	0.226307	0.097309	0.750174
	C1766	C	0.148568	0.027709	0.750577
	C1767	C	0.211076	0.090171	0.750143
	C1768	C	0.148545	0.065693	0.916868
	C1769	C	0.219242	0.054803	1.083518
	C1770	C	0.155746	0.070192	0.584013
	C1771	C	0.226417	0.059098	0.583932
	C1772	C	0.155717	0.070102	0.917005
	C1773	C	0.226400	0.059249	1.083290
	C1774	C	0.148583	0.065765	0.584091
	C1775	C	0.219249	0.054681	0.583882
	C1776	C	0.159830	0.033089	0.833689
	C1777	C	0.222388	0.095601	0.833601
	C1778	C	0.152511	0.029596	0.667178
	C1779	C	0.215017	0.091863	0.666629
	C1780	C	0.152492	0.029523	0.834052
	C1781	C	0.215029	0.092105	0.833380
	C1782	C	0.159875	0.033024	0.666740
	C1783	C	0.222368	0.095336	0.666863
	N1784	N	0.125092	0.058246	0.951240
	N1785	N	0.195374	0.051321	0.951267
	N1786	N	0.179550	0.073672	0.549164
	N1787	N	0.249865	0.066832	0.549023
	N1788	N	0.179538	0.073647	0.951575
	N1789	N	0.249821	0.066808	0.950480
	N1790	N	0.125120	0.058534	0.549740
	N1791	N	0.195416	0.051274	0.549457
	N1792	N	0.182005	0.048843	0.701952
	N1793	N	0.244442	0.111443	0.701084
	N1794	N	0.130502	0.013313	0.799289
	N1795	N	0.192908	0.076086	0.798411
	N1796	N	0.130423	0.013472	0.702242
	N1797	N	0.192895	0.076132	0.701395
	N1798	N	0.181970	0.048960	0.798855
	N1799	N	0.244458	0.111438	0.798171
	H1800	H	0.137222	0.221188	0.350291
	H1801	H	0.196151	0.120617	0.348290
	H1802	H	0.166296	0.158744	0.150550
	H1803	H	0.233456	0.138379	0.152462
	H1804	H	0.166249	0.158608	0.349436
	H1805	H	0.233439	0.138041	0.347957
	H1806	H	0.137141	0.220977	0.148632
	H1807	H	0.196159	0.120745	0.152662
	H1808	H	0.165448	0.115522	0.099257
	H1809	H	0.227900	0.178041	0.098583
	H1810	H	0.129110	0.092367	0.401792
	H1811	H	0.191667	0.154689	0.402117
	H1812	H	0.129200	0.091928	0.098341
	H1813	H	0.191584	0.154761	0.098961
	H1814	H	0.165412	0.115532	0.400365
	H1815	H	0.228005	0.177813	0.400276
	H1816	H	0.146591	0.200697	0.477484
	H1817	H	0.208281	0.126964	0.349959
	H1818	H	0.155756	0.176984	0.122771
	H1819	H	0.220838	0.134427	0.150670
	H1820	H	0.156721	0.178943	0.477734
	H1821	H	0.220849	0.134378	0.349672
	H1822	H	0.145656	0.198754	0.122842
	H1823	H	0.208341	0.126679	0.150901
	H1824	H	0.153247	0.109209	0.102045
	H1825	H	0.215680	0.171847	0.102250
	H1826	H	0.140602	0.102195	0.397529
	H1827	H	0.203002	0.164924	0.397587
	H1828	H	0.140526	0.102189	0.102319
	H1829	H	0.203003	0.164665	0.102956
	H1830	H	0.153260	0.109482	0.396918
	H1831	H	0.215685	0.172276	0.397328
	Co1832	Co	0.242159	0.193989	0.124515
	Co1833	Co	0.179629	0.131610	0.124843
	Co1834	Co	0.117212	0.069094	0.375850
	Co1835	Co	0.179666	0.131475	0.375863
	C1836	C	0.136212	0.223235	0.423365
	C1837	C	0.194787	0.120924	0.422955
	C1838	C	0.167268	0.156625	0.076695
	C1839	C	0.234760	0.137767	0.077491
	C1840	C	0.167284	0.156604	0.423288
	C1841	C	0.234828	0.137387	0.422039
	C1842	C	0.136193	0.223214	0.075954
	C1843	C	0.194773	0.120971	0.078438
	C1844	C	0.166664	0.116283	0.172900
	C1845	C	0.229155	0.178719	0.172041
	C1846	C	0.128193	0.090645	0.327283
	C1847	C	0.190665	0.153130	0.327609
	C1848	C	0.128201	0.090544	0.172639
	C1849	C	0.190627	0.153245	0.173043
	C1850	C	0.166648	0.116311	0.326666
	C1851	C	0.229205	0.178601	0.326287
	C1852	C	0.139630	0.215237	0.499588
	C1853	C	0.199560	0.121499	0.000630
	C1854	C	0.163609	0.164213	0.500172
	C1855	C	0.229868	0.138027	0.000110
	C1856	C	0.162146	0.113635	0.249708
	C1857	C	0.224650	0.176072	0.249338
	C1858	C	0.132177	0.095399	0.249889
	C1859	C	0.194631	0.157969	0.250428
	C1860	C	0.145644	0.202172	0.499746
	C1861	C	0.207261	0.125563	0.000627
	C1862	C	0.157479	0.177028	0.499924
	C1863	C	0.222008	0.134944	0.000405
	C1864	C	0.154413	0.109691	0.249664
	C1865	C	0.216900	0.172272	0.249731
	C1866	C	0.139495	0.101283	0.249803
	C1867	C	0.201955	0.163926	0.250239
	C1868	C	0.148728	0.195809	0.487378
	C1869	C	0.211016	0.128396	0.416666
	C1870	C	0.153931	0.182432	0.068594
	C1871	C	0.218170	0.132693	0.083980
	C1872	C	0.154497	0.183572	0.487513
	C1873	C	0.218195	0.132742	0.416542
	C1874	C	0.148235	0.194791	0.068311
	C1875	C	0.211021	0.128197	0.084133
	C1876	C	0.150525	0.107712	0.167413
	C1877	C	0.212982	0.170388	0.167738
	C1878	C	0.143323	0.103666	0.332022
	C1879	C	0.205765	0.166406	0.332406
	C1880	C	0.143293	0.103634	0.167450
	C1881	C	0.205751	0.166308	0.167897
	C1882	C	0.150544	0.107753	0.331983
	C1883	C	0.213002	0.170458	0.332059
	N1884	N	0.131059	0.234788	0.452123
	N1885	N	0.187588	0.120781	0.451438
	N1886	N	0.172669	0.145565	0.047568
	N1887	N	0.242004	0.136529	0.048495
	N1888	N	0.172684	0.145551	0.452594
	N1889	N	0.242080	0.136051	0.450538
	N1890	N	0.131066	0.234829	0.047315
	N1891	N	0.187552	0.120835	0.049964
	N1892	N	0.173316	0.120333	0.201894
	N1893	N	0.235821	0.182706	0.200708
	N1894	N	0.122499	0.083125	0.298170
	N1895	N	0.184952	0.145608	0.298350
	N1896	N	0.122494	0.083075	0.201792
	N1897	N	0.184941	0.145672	0.202355
	N1898	N	0.173295	0.120371	0.298229
	N1899	N	0.235849	0.182646	0.297464
	H1900	H	0.137178	0.221285	0.850116
	H1901	H	0.196136	0.120432	0.849000
	H1902	H	0.166242	0.158690	0.650599
	H1903	H	0.233486	0.138001	0.651633
	H1904	H	0.166342	0.158618	0.848883
	H1905	H	0.233347	0.138350	0.848193
	H1906	H	0.136918	0.220788	0.648909
	H1907	H	0.196184	0.120884	0.652628
	H1908	H	0.165483	0.115245	0.599310
	H1909	H	0.227956	0.178038	0.598206
	H1910	H	0.129138	0.092209	0.902039
	H1911	H	0.191742	0.154471	0.901965
	H1912	H	0.129140	0.092328	0.599422
	H1913	H	0.191599	0.154806	0.598526
	H1914	H	0.165505	0.115109	0.901210
	H1915	H	0.227910	0.178409	0.900330
	H1916	H	0.147374	0.202043	0.874780
	H1917	H	0.208318	0.126674	0.850635
	H1918	H	0.156558	0.178611	0.522155
	H1919	H	0.220965	0.134090	0.650059
	H1920	H	0.157413	0.180301	0.875918
	H1921	H	0.220833	0.134499	0.850441
	H1922	H	0.146315	0.200160	0.522491
	H1923	H	0.208411	0.126693	0.650055
	H1924	H	0.153283	0.109145	0.602832
	H1925	H	0.215704	0.171809	0.602791
	H1926	H	0.140543	0.102652	0.898429
	H1927	H	0.203091	0.164647	0.897424
	H1928	H	0.140585	0.102122	0.602972
	H1929	H	0.203052	0.164587	0.602935
	H1930	H	0.153243	0.109649	0.898244
	H1931	H	0.215739	0.171904	0.897100
	Co1932	Co	0.242206	0.193972	0.624404
	Co1933	Co	0.179646	0.131568	0.625180
	Co1934	Co	0.117195	0.069005	0.875839
	Co1935	Co	0.179628	0.131457	0.875783
	C1936	C	0.136254	0.223390	0.923046
	C1937	C	0.194753	0.120777	0.923306
	C1938	C	0.167288	0.156628	0.577213
	C1939	C	0.234833	0.137537	0.577255
	C1940	C	0.167300	0.156602	0.922441
	C1941	C	0.234737	0.137761	0.922615
	C1942	C	0.136057	0.223003	0.576086
	C1943	C	0.194801	0.121087	0.578123
	C1944	C	0.166688	0.116074	0.673117
	C1945	C	0.229175	0.178706	0.672542
	C1946	C	0.128185	0.090606	0.827822
	C1947	C	0.190715	0.153007	0.827817
	C1948	C	0.128199	0.090625	0.673564
	C1949	C	0.190648	0.153203	0.673101
	C1950	C	0.166706	0.116043	0.827430
	C1951	C	0.229137	0.178962	0.826508
	C1952	C	0.139749	0.215450	0.999489
	C1953	C	0.199587	0.121732	0.500407
	C1954	C	0.163586	0.164079	0.999450
	C1955	C	0.229945	0.137849	0.499692
	C1956	C	0.162195	0.113375	0.750283
	C1957	C	0.224639	0.176107	0.749525
	C1958	C	0.132191	0.095452	0.750633
	C1959	C	0.194644	0.157941	0.750435
	C1960	C	0.145706	0.202301	0.999211
	C1961	C	0.207275	0.125769	0.500067
	C1962	C	0.157443	0.176895	0.999353
	C1963	C	0.222068	0.134936	0.499778
	C1964	C	0.154456	0.109593	0.750543
	C1965	C	0.216919	0.172226	0.749695
	C1966	C	0.139496	0.101337	0.750570
	C1967	C	0.201975	0.163815	0.750301
	C1968	C	0.149153	0.196658	0.929811
	C1969	C	0.211022	0.128213	0.917265
	C1970	C	0.154364	0.183301	0.512327
	C1971	C	0.218273	0.132585	0.583388
	C1972	C	0.154859	0.184336	0.929907
	C1973	C	0.218178	0.132687	0.917041
	C1974	C	0.148611	0.195562	0.512436
	C1975	C	0.211097	0.128198	0.583332
	C1976	C	0.150565	0.107629	0.668255
	C1977	C	0.213014	0.170231	0.667922
	C1978	C	0.143299	0.103890	0.832850
	C1979	C	0.205802	0.166255	0.832279
	C1980	C	0.143306	0.103670	0.668341
	C1981	C	0.205784	0.166152	0.668052
	C1982	C	0.150546	0.107895	0.833017
	C1983	C	0.213034	0.170327	0.831832
	N1984	N	0.131102	0.234910	0.952296
	N1985	N	0.187541	0.120741	0.951759
	N1986	N	0.172675	0.145568	0.548086
	N1987	N	0.242079	0.136098	0.548145
	N1988	N	0.172689	0.145542	0.951936
	N1989	N	0.241993	0.136519	0.950937
	N1990	N	0.130982	0.234675	0.547104
	N1991	N	0.187584	0.120864	0.549591
	N1992	N	0.173316	0.120205	0.701934
	N1993	N	0.235828	0.182739	0.701042
	N1994	N	0.122475	0.083166	0.798790
	N1995	N	0.185033	0.145460	0.798780
	N1996	N	0.122484	0.083167	0.702457
	N1997	N	0.184990	0.145589	0.702342
	N1998	N	0.173329	0.120167	0.798477
	N1999	N	0.235804	0.182874	0.797888
	H2000	H	0.146264	0.404351	0.347686
	H2001	H	0.199564	0.283507	0.350360
	H2002	H	0.175545	0.341900	0.149480
	H2003	H	0.228715	0.221078	0.150432
	H2004	H	0.175559	0.342083	0.349961
	H2005	H	0.228827	0.220877	0.348734
	H2006	H	0.146008	0.404056	0.150995
	H2007	H	0.199505	0.283534	0.149292
	H2008	H	0.173234	0.296202	0.101809
	H2009	H	0.235908	0.358475	0.102764
	H2010	H	0.139083	0.266737	0.397453
	H2011	H	0.201507	0.329676	0.398031
	H2012	H	0.138961	0.266906	0.102307
	H2013	H	0.201784	0.328663	0.101692
	H2014	H	0.173481	0.295979	0.398583
	H2015	H	0.236123	0.358199	0.397455
	H2016	H	0.156306	0.384895	0.569943
	H2017	H	0.208279	0.261294	0.568837
	H2018	H	0.166259	0.362882	0.123465
	H2019	H	0.219135	0.241358	-0.125285
	H2020	H	0.166460	0.363212	0.569068
	H2021	H	0.218463	0.239710	0.569091
	H2022	H	0.156136	0.384572	0.123548
	H2023	H	0.209012	0.263136	-0.124732
	H2024	H	0.162424	0.285789	0.220714
	H2025	H	0.224989	0.348342	0.243621
	H2026	H	0.150065	0.276723	0.279875
	H2027	H	0.212660	0.339088	0.257303
	H2028	H	0.150285	0.275743	0.220892
	H2029	H	0.212863	0.338125	0.243193
	H2030	H	0.162205	0.286774	0.280532
	H2031	H	0.224821	0.349271	0.257695
	Co2032	Co	0.250017	0.374871	0.123968
	Co2033	Co	0.187458	0.312664	0.124069
	Co2034	Co	0.125017	0.250107	0.375230
	Co2035	Co	0.187502	0.312703	0.375070
	C2036	C	0.145242	0.406170	0.421419
	C2037	C	0.198633	0.285585	0.423013
	C2038	C	0.176412	0.339709	0.076598
	C2039	C	0.229750	0.219022	0.076661
	C2040	C	0.176412	0.339673	0.422806
	C2041	C	0.229787	0.218959	0.422302
	C2042	C	0.145122	0.406073	0.077126
	C2043	C	0.198621	0.285676	0.076369
	C2044	C	0.174468	0.297171	0.173983
	C2045	C	0.237070	0.359560	0.174352
	C2046	C	0.137915	0.265620	0.325391
	C2047	C	0.200396	0.328325	0.325819
	C2048	C	0.137870	0.265715	0.174083
	C2049	C	0.200540	0.327803	0.173784
	C2050	C	0.174571	0.297129	0.326053
	C2051	C	0.237181	0.359412	0.325674
	C2052	C	0.148845	0.398474	0.498568
	C2053	C	0.202166	0.277840	-0.000127
	C2054	C	0.172836	0.347357	0.499150
	C2055	C	0.226115	0.226674	-0.000531
	C2056	C	0.170388	0.293239	0.250359
	C2057	C	0.232952	0.355694	0.250250
	C2058	C	0.142057	0.269520	0.249911
	C2059	C	0.204633	0.331905	0.249863
	C2060	C	0.154967	0.385617	0.498223
	C2061	C	0.208162	0.264764	-0.000079
	C2062	C	0.166827	0.360447	0.498471
	C2063	C	0.219986	0.239511	-0.000457
	C2064	C	0.163237	0.287128	0.250471
	C2065	C	0.225805	0.349552	0.250515
	C2066	C	0.149239	0.275560	0.250189
	C2067	C	0.211816	0.337911	0.249967
	C2068	C	0.158309	0.379732	0.538235
	C2069	C	0.210805	0.257306	0.538029
	C2070	C	0.163928	0.367305	0.069527
	C2071	C	0.216951	0.246039	-0.070377
	C2072	C	0.164044	0.367466	0.538146
	C2073	C	0.216543	0.245042	0.538147
	C2074	C	0.158177	0.379560	0.069671
	C2075	C	0.211206	0.258326	-0.070012
	C2076	C	0.159720	0.283858	0.233725
	C2077	C	0.222294	0.346269	0.246555
	C2078	C	0.152762	0.278729	0.267029
	C2079	C	0.215345	0.341138	0.254329
	C2080	C	0.152879	0.278206	0.233614
	C2081	C	0.215454	0.340559	0.246408
	C2082	C	0.159605	0.284400	0.267257
	C2083	C	0.222189	0.346831	0.254415
	N2084	N	0.139823	0.417170	0.450923
	N2085	N	0.193468	0.297129	0.451839
	N2086	N	0.181541	0.328172	0.047289
	N2087	N	0.235154	0.208007	0.047518
	N2088	N	0.181526	0.328055	0.451763
	N2089	N	0.235196	0.207914	0.451904
	N2090	N	0.139745	0.417111	0.047257
	N2091	N	0.193504	0.297266	0.047251
	N2092	N	0.180633	0.303009	0.202086
	N2093	N	0.243230	0.365303	0.202937
	N2094	N	0.131753	0.259851	0.296521
	N2095	N	0.194261	0.322514	0.296794
	N2096	N	0.131729	0.259880	0.202586
	N2097	N	0.194360	0.322173	0.202521
	N2098	N	0.180689	0.303008	0.296673
	N2099	N	0.243298	0.365201	0.296633
	H2100	H	0.146199	0.404116	0.849372
	H2101	H	0.199638	0.283716	0.850283
	H2102	H	0.175182	0.341393	0.648747
	H2103	H	0.228813	0.221081	0.650042
	H2104	H	0.175174	0.341557	0.850299
	H2105	H	0.228937	0.221492	0.848943
	H2106	H	0.146031	0.403770	0.649619
	H2107	H	0.199604	0.283510	0.648113
	H2108	H	0.173448	0.295465	0.602892
	H2109	H	0.236024	0.357962	0.600910
	H2110	H	0.139031	0.266827	0.896746
	H2111	H	0.201469	0.329759	0.895592
	H2112	H	0.138999	0.266683	0.601613
	H2113	H	0.201680	0.328459	0.599406
	H2114	H	0.173392	0.296114	0.898210
	H2115	H	0.235873	0.358364	0.896987
	H2116	H	0.155438	0.383339	0.877101
	H2117	H	0.208964	0.262947	1.124553
	H2118	H	0.165483	0.361281	0.427035
	H2119	H	0.219778	0.242492	0.429589
	H2120	H	0.165611	0.361751	0.876526
	H2121	H	0.219108	0.241287	1.124982
	H2122	H	0.155359	0.383037	0.426624
	H2123	H	0.209649	0.264109	0.429421
	H2124	H	0.161895	0.287802	0.760971
	H2125	H	0.224461	0.349984	0.770007
	H2126	H	0.150610	0.274577	0.739035
	H2127	H	0.213089	0.337035	0.725225
	H2128	H	0.149692	0.277917	0.760807
	H2129	H	0.212297	0.340007	0.769819
	H2130	H	0.162815	0.284398	0.739653
	H2131	H	0.225260	0.347035	0.725381
	Co2132	Co	0.250072	0.374959	0.623917
	Co2133	Co	0.187438	0.312419	0.623590
	Co2134	Co	0.125037	0.250220	0.875475
	Co2135	Co	0.187506	0.312670	0.874961
	C2136	C	0.145216	0.406078	0.923134
	C2137	C	0.198680	0.285769	0.923262
	C2138	C	0.176233	0.339376	0.575691
	C2139	C	0.229784	0.219045	0.576407
	C2140	C	0.176235	0.339514	0.923390
	C2141	C	0.229866	0.219230	0.922458
	C2142	C	0.145116	0.405912	0.575796
	C2143	C	0.198655	0.285570	0.575069
	C2144	C	0.174611	0.296688	0.674794
	C2145	C	0.237130	0.359205	0.673007
	C2146	C	0.137890	0.265800	0.824719
	C2147	C	0.200362	0.328302	0.823478
	C2148	C	0.137891	0.265695	0.673647
	C2149	C	0.200465	0.327693	0.671861
	C2150	C	0.174569	0.297034	0.826071
	C2151	C	0.237051	0.359390	0.824768
	C2152	C	0.148842	0.398525	1.000286
	C2153	C	0.202130	0.277710	0.498948
	C2154	C	0.172785	0.347445	1.000150
	C2155	C	0.226134	0.226525	0.499251
	C2156	C	0.170463	0.292904	0.750664
	C2157	C	0.232946	0.355449	0.748697
	C2158	C	0.142037	0.269601	0.749183
	C2159	C	0.204584	0.331796	0.747241
	C2160	C	0.154940	0.385660	1.000359
	C2161	C	0.208139	0.264604	0.499078
	C2162	C	0.166782	0.360507	1.000192
	C2163	C	0.219988	0.239359	0.499045
	C2164	C	0.163285	0.286843	0.750569
	C2165	C	0.225783	0.349318	0.747990
	C2166	C	0.149233	0.275582	0.749995
	C2167	C	0.211776	0.337811	0.747489
	C2168	C	0.157831	0.378925	0.930982
	C2169	C	0.211191	0.258218	1.069843
	C2170	C	0.163521	0.366444	0.458231
	C2171	C	0.217276	0.246571	0.460051
	C2172	C	0.163579	0.366651	0.931060
	C2173	C	0.216942	0.245936	1.069748
	C2174	C	0.157758	0.378677	0.458183
	C2175	C	0.211535	0.258825	0.460096
	C2176	C	0.159471	0.284842	0.756099
	C2177	C	0.221992	0.347147	0.760369
	C2178	C	0.153074	0.277514	0.744273
	C2179	C	0.215563	0.339900	0.734917
	C2180	C	0.152581	0.279382	0.756002
	C2181	C	0.215132	0.341549	0.760096
	C2182	C	0.159951	0.283015	0.744340
	C2183	C	0.222422	0.345502	0.735271
	N2184	N	0.139813	0.417129	0.951950
	N2185	N	0.193534	0.297322	0.952234
	N2186	N	0.181413	0.327844	0.546989
	N2187	N	0.235176	0.207952	0.547453
	N2188	N	0.181442	0.328056	0.952049
	N2189	N	0.235227	0.208116	0.951789
	N2190	N	0.139742	0.417012	0.546436
	N2191	N	0.193483	0.297087	0.546439
	N2192	N	0.180718	0.302644	0.702879
	N2193	N	0.243260	0.365094	0.701690
	N2194	N	0.131729	0.259990	0.796218
	N2195	N	0.194230	0.322401	0.795410
	N2196	N	0.131727	0.259961	0.702403
	N2197	N	0.194294	0.322061	0.701163
	N2198	N	0.180684	0.302896	0.796955
	N2199	N	0.243218	0.365211	0.796044
	H2200	H	0.141433	0.486846	0.346101
	H2201	H	0.208557	0.466193	0.347647
	H2202	H	0.178800	0.504433	0.151493
	H2203	H	0.237881	0.403958	0.148581
	H2204	H	0.178788	0.504221	0.346429
	H2205	H	0.237932	0.404054	0.349863
	H2206	H	0.141531	0.486766	0.151827
	H2207	H	0.208694	0.466347	0.149840
	H2208	H	0.183285	0.470592	0.097250
	H2209	H	0.245843	0.532968	0.097898
	H2210	H	0.147053	0.447214	0.399844
	H2211	H	0.209566	0.509226	0.399694
	H2212	H	0.147012	0.447043	0.097969
	H2213	H	0.209514	0.509828	0.099022
	H2214	H	0.183367	0.470273	0.400347
	H2215	H	0.245863	0.532845	0.400852
	H2216	H	0.154052	0.490659	0.648177
	H2217	H	0.217962	0.445390	0.621445
	H2218	H	0.166688	0.498136	0.149481
	H2219	H	0.227811	0.423188	0.063312
	H2220	H	0.166601	0.498238	0.648795
	H2221	H	0.228161	0.423826	0.622177
	H2222	H	0.154100	0.490533	0.149563
	H2223	H	0.217701	0.444874	0.063270
	H2224	H	0.171989	0.460089	0.101303
	H2225	H	0.234346	0.523221	0.101401
	H2226	H	0.159151	0.453457	0.396520
	H2227	H	0.221838	0.515220	0.397491
	H2228	H	0.159328	0.452822	0.101081
	H2229	H	0.221711	0.515909	0.101552
	H2230	H	0.171847	0.460673	0.396248
	H2231	H	0.234481	0.522490	0.397438
	Co2232	Co	0.257814	0.556130	0.124592
	Co2233	Co	0.195338	0.493516	0.123757
	Co2234	Co	0.132801	0.431160	0.374484
	Co2235	Co	0.195328	0.493395	0.374410
	C2236	C	0.140136	0.487420	0.421110
	C2237	C	0.207637	0.468213	0.421772
	C2238	C	0.180183	0.504099	0.076441
	C2239	C	0.238849	0.401829	0.075662
	C2240	C	0.180181	0.503984	0.421402
	C2241	C	0.238905	0.401811	0.422812
	C2242	C	0.140171	0.487415	0.077039
	C2243	C	0.207734	0.468395	0.076084
	C2244	C	0.184287	0.471908	0.171398
	C2245	C	0.246830	0.534479	0.172388
	C2246	C	0.145799	0.446462	0.326057
	C2247	C	0.208362	0.508602	0.326204
	C2248	C	0.145786	0.446395	0.171767
	C2249	C	0.208319	0.508909	0.172301
	C2250	C	0.184329	0.471824	0.325879
	C2251	C	0.246821	0.534513	0.326639
	C2252	C	0.145022	0.487108	0.498690
	C2253	C	0.211429	0.460929	-0.001033
	C2254	C	0.175388	0.503287	0.499090
	C2255	C	0.235369	0.409673	-0.000707
	C2256	C	0.180318	0.467084	0.248712
	C2257	C	0.242830	0.529702	0.249506
	C2258	C	0.150306	0.449046	0.248868
	C2259	C	0.212865	0.511406	0.249360
	C2260	C	0.152888	0.490105	0.498602
	C2261	C	0.217543	0.448045	-0.001222
	C2262	C	0.167667	0.499340	0.498961
	C2263	C	0.229346	0.422732	-0.000830
	C2264	C	0.172998	0.461191	0.248794
	C2265	C	0.235522	0.523772	0.249368
	C2266	C	0.158042	0.452868	0.248862
	C2267	C	0.220590	0.515326	0.249492
	C2268	C	0.156731	0.492311	0.581855
	C2269	C	0.220369	0.441034	0.567804
	C2270	C	0.163927	0.496733	0.082926
	C2271	C	0.225942	0.428506	0.035153
	C2272	C	0.163902	0.496701	0.582137
	C2273	C	0.226115	0.428755	0.568013
	C2274	C	0.156769	0.492291	0.082904
	C2275	C	0.220209	0.440792	0.034880
	C2276	C	0.169228	0.458598	0.166456
	C2277	C	0.231662	0.521548	0.166931
	C2278	C	0.161898	0.454943	0.331127
	C2279	C	0.224525	0.516993	0.331932
	C2280	C	0.161995	0.454534	0.166643
	C2281	C	0.224434	0.517443	0.167050
	C2282	C	0.169133	0.459013	0.331001
	C2283	C	0.231744	0.521111	0.331956
	N2284	N	0.132891	0.488762	0.450122
	N2285	N	0.202285	0.479317	0.451501
	N2286	N	0.187389	0.504169	0.047935
	N2287	N	0.244007	0.390260	0.046714
	N2288	N	0.187402	0.504093	0.450167
	N2289	N	0.244074	0.390328	0.451736
	N2290	N	0.132930	0.488719	0.048130
	N2291	N	0.202335	0.479453	0.047071
	N2292	N	0.189971	0.479448	0.200509
	N2293	N	0.252503	0.542030	0.201407
	N2294	N	0.139156	0.442415	0.297578
	N2295	N	0.201700	0.504653	0.297460
	N2296	N	0.139136	0.442366	0.200733
	N2297	N	0.201651	0.504838	0.201025
	N2298	N	0.190005	0.479362	0.296853
	N2299	N	0.252512	0.542026	0.297934
	H2300	H	0.141555	0.486708	0.847631
	H2301	H	0.208720	0.466574	0.848347
	H2302	H	0.178775	0.504078	0.650672
	H2303	H	0.237927	0.404038	0.648677
	H2304	H	0.178821	0.504304	0.847062
	H2305	H	0.237981	0.404088	0.849494
	H2306	H	0.141494	0.486805	0.650170
	H2307	H	0.208723	0.466425	0.649962
	H2308	H	0.183382	0.470212	0.598013
	H2309	H	0.245852	0.533004	0.598049
	H2310	H	0.146949	0.447233	0.899544
	H2311	H	0.209455	0.509656	0.900584
	H2312	H	0.147005	0.447121	0.597918
	H2313	H	0.209574	0.509220	0.599081
	H2314	H	0.183236	0.470668	0.900651
	H2315	H	0.245740	0.533176	0.900823
	H2316	H	0.154052	0.490994	0.849067
	H2317	H	0.219052	0.447587	0.934094
	H2318	H	0.166586	0.498302	0.348811
	H2319	H	0.228850	0.425178	0.376791
	H2320	H	0.166548	0.498631	0.849199
	H2321	H	0.229169	0.425919	0.933993
	H2322	H	0.154075	0.490671	0.348210
	H2323	H	0.218672	0.446833	0.376296
	H2324	H	0.171930	0.460092	0.601217
	H2325	H	0.234513	0.522190	0.896738
	H2326	H	0.159098	0.453703	0.896913
	H2327	H	0.221625	0.516145	0.601594
	H2328	H	0.159266	0.452956	0.600589
	H2329	H	0.221860	0.514943	0.896825
	H2330	H	0.171771	0.460890	0.897584
	H2331	H	0.234239	0.523450	0.601467
	Co2332	Co	0.257836	0.556039	0.624156
	Co2333	Co	0.195318	0.493435	0.623983
	Co2334	Co	0.132812	0.431058	0.874382
	Co2335	Co	0.195337	0.493448	0.874392
	C2336	C	0.140193	0.487326	0.921658
	C2337	C	0.207756	0.468506	0.922252
	C2338	C	0.180164	0.503962	0.576579
	C2339	C	0.238904	0.401848	0.575810
	C2340	C	0.180164	0.504038	0.921369
	C2341	C	0.238902	0.401893	0.922819
	C2342	C	0.140147	0.487454	0.576045
	C2343	C	0.207747	0.468384	0.576193
	C2344	C	0.184310	0.471923	0.672377
	C2345	C	0.246778	0.534561	0.672117
	C2346	C	0.145723	0.446514	0.825798
	C2347	C	0.208302	0.508832	0.826512
	C2348	C	0.145749	0.446444	0.671666
	C2349	C	0.208324	0.508655	0.672527
	C2350	C	0.184298	0.471967	0.826648
	C2351	C	0.246746	0.534609	0.826661
	C2352	C	0.145045	0.487021	0.999576
	C2353	C	0.211374	0.460701	0.498859
	C2354	C	0.175393	0.503443	0.999249
	C2355	C	0.235356	0.409619	0.499199
	C2356	C	0.180285	0.467165	0.749521
	C2357	C	0.242762	0.529793	0.749380
	C2358	C	0.150266	0.449185	0.748860
	C2359	C	0.212813	0.511429	0.749463
	C2360	C	0.152912	0.490137	0.999501
	C2361	C	0.217507	0.447897	0.498908
	C2362	C	0.167681	0.499418	0.999412
	C2363	C	0.229344	0.422667	0.499170
	C2364	C	0.172959	0.461335	0.749318
	C2365	C	0.235468	0.523858	0.749206
	C2366	C	0.158005	0.453022	0.748881
	C2367	C	0.220546	0.515310	0.749341
	C2368	C	0.156708	0.492576	0.915932
	C2369	C	0.220942	0.442260	0.962632
	C2370	C	0.163878	0.496839	0.415275
	C2371	C	0.226500	0.429545	0.430377
	C2372	C	0.163860	0.497032	0.915891
	C2373	C	0.226685	0.429986	0.962785
	C2374	C	0.156709	0.492450	0.415145
	C2375	C	0.220752	0.441836	0.430241
	C2376	C	0.169183	0.458762	0.666780
	C2377	C	0.231745	0.521016	0.831357
	C2378	C	0.161872	0.455079	0.831487
	C2379	C	0.224377	0.517581	0.666807
	C2380	C	0.161936	0.454715	0.666391
	C2381	C	0.224522	0.516852	0.831623
	C2382	C	0.169117	0.459139	0.831643
	C2383	C	0.231599	0.521699	0.666924
	N2384	N	0.132921	0.488670	0.950507
	N2385	N	0.202355	0.479520	0.951581
	N2386	N	0.187379	0.504092	0.548393
	N2387	N	0.244076	0.390368	0.546939
	N2388	N	0.187386	0.504165	0.949827
	N2389	N	0.244047	0.390323	0.951679
	N2390	N	0.132898	0.488779	0.547779
	N2391	N	0.202347	0.479439	0.547052
	N2392	N	0.190027	0.479353	0.701165
	N2393	N	0.252478	0.542018	0.701123
	N2394	N	0.139118	0.442341	0.796963
	N2395	N	0.201679	0.504683	0.797652
	N2396	N	0.139117	0.442321	0.700340
	N2397	N	0.201671	0.504667	0.701042
	N2398	N	0.190001	0.479433	0.797442
	N2399	N	0.252449	0.542108	0.797723
	H2400	H	0.133820	0.558096	0.346915
	H2401	H	0.204072	0.549220	0.347324
	H2402	H	0.171031	0.575460	0.151312
	H2403	H	0.241248	0.567078	0.152045
	H2404	H	0.171006	0.575652	0.347907
	H2405	H	0.241312	0.566962	0.346723
	H2406	H	0.133769	0.558045	0.151723
	H2407	H	0.204025	0.549280	0.151547
	H2408	H	0.174813	0.541588	0.097151
	H2409	H	0.237327	0.604094	0.097290
	H2410	H	0.137761	0.521011	0.400526
	H2411	H	0.200221	0.583428	0.401072
	H2412	H	0.137799	0.520801	0.096862
	H2413	H	0.200273	0.583298	0.096839
	H2414	H	0.174835	0.541512	0.400847
	H2415	H	0.237193	0.604312	0.401374
	H2416	H	0.145941	0.564159	0.349302
	H2417	H	0.216613	0.553366	0.649351
	H2418	H	0.158511	0.571636	-0.150382
	H2419	H	0.229038	0.561237	0.149373
	H2420	H	0.158480	0.571785	0.349860
	H2421	H	0.229152	0.560944	0.648958
	H2422	H	0.145997	0.563898	-0.150058
	H2423	H	0.216502	0.553504	0.149175
	H2424	H	0.162684	0.534461	0.098909
	H2425	H	0.225156	0.597166	0.099379
	H2426	H	0.149873	0.528117	0.398957
	H2427	H	0.212402	0.590496	0.398763
	H2428	H	0.149858	0.528407	0.098787
	H2429	H	0.212352	0.590835	0.098844
	H2430	H	0.162708	0.534395	0.398635
	H2431	H	0.225203	0.596619	0.399461
	Co2432	Co	0.250084	0.624963	0.123935
	Co2433	Co	0.187515	0.562585	0.123155
	Co2434	Co	0.125007	0.500105	0.374955
	Co2435	Co	0.187566	0.562385	0.374780
	C2436	C	0.132395	0.558420	0.421504
	C2437	C	0.202714	0.549841	0.422085
	C2438	C	0.172352	0.575161	0.076862
	C2439	C	0.242660	0.566683	0.077353
	C2440	C	0.172391	0.575080	0.421862
	C2441	C	0.242686	0.566694	0.421650
	C2442	C	0.132380	0.558293	0.077188
	C2443	C	0.202677	0.549831	0.076896
	C2444	C	0.175890	0.542935	0.171722
	C2445	C	0.238389	0.605450	0.171985
	C2446	C	0.136686	0.519629	0.326270
	C2447	C	0.199197	0.582085	0.326618
	C2448	C	0.136694	0.519596	0.171324
	C2449	C	0.199220	0.581991	0.172032
	C2450	C	0.175916	0.542809	0.326435
	C2451	C	0.238342	0.605536	0.326581
	C2452	C	0.137195	0.559043	0.499267
	C2453	C	0.207562	0.549465	-0.000596
	C2454	C	0.167506	0.575396	0.499504
	C2455	C	0.237867	0.565937	-0.000194
	C2456	C	0.171593	0.539166	0.248959
	C2457	C	0.234056	0.601785	0.249206
	C2458	C	0.140997	0.523360	0.248690
	C2459	C	0.203511	0.585808	0.249103
	C2460	C	0.144890	0.563068	0.499511
	C2461	C	0.215440	0.552441	-0.000506
	C2462	C	0.159654	0.572358	0.499898
	C2463	C	0.230170	0.561882	-0.000406
	C2464	C	0.163920	0.534814	0.248868
	C2465	C	0.226392	0.597393	0.249194
	C2466	C	0.148665	0.527728	0.248840
	C2467	C	0.211162	0.590228	0.248674
	C2468	C	0.148644	0.565680	0.416040
	C2469	C	0.219275	0.555012	0.582450
	C2470	C	0.155810	0.570068	-0.083679
	C2471	C	0.226354	0.559524	0.082881
	C2472	C	0.155796	0.570188	0.416501
	C2473	C	0.226421	0.559475	0.582609
	C2474	C	0.148659	0.565557	-0.083145
	C2475	C	0.219228	0.554940	0.082866
	C2476	C	0.159975	0.532980	0.165589
	C2477	C	0.222430	0.595668	0.165895
	C2478	C	0.152602	0.529516	0.332284
	C2479	C	0.215128	0.591918	0.332082
	C2480	C	0.152606	0.529596	0.165623
	C2481	C	0.215081	0.592170	0.165446
	C2482	C	0.159958	0.533026	0.332165
	C2483	C	0.222479	0.595426	0.332482
	N2484	N	0.125190	0.558317	0.449861
	N2485	N	0.195464	0.551195	0.450657
	N2486	N	0.179580	0.573781	0.047887
	N2487	N	0.249854	0.566850	0.048968
	N2488	N	0.179652	0.573699	0.450362
	N2489	N	0.249908	0.566778	0.450444
	N2490	N	0.125173	0.558081	0.048667
	N2491	N	0.195418	0.551277	0.047962
	N2492	N	0.182089	0.548884	0.200478
	N2493	N	0.244550	0.611508	0.200843
	N2494	N	0.130485	0.513615	0.297285
	N2495	N	0.193015	0.575999	0.297783
	N2496	N	0.130512	0.513573	0.200357
	N2497	N	0.193022	0.575999	0.200816
	N2498	N	0.182090	0.548887	0.297442
	N2499	N	0.244533	0.611562	0.297945
	H2500	H	0.133764	0.557870	0.847353
	H2501	H	0.204042	0.549347	0.847262
	H2502	H	0.171059	0.575543	0.651519
	H2503	H	0.241279	0.567021	0.651170
	H2504	H	0.170936	0.575737	0.847337
	H2505	H	0.241288	0.566924	0.847887
	H2506	H	0.133747	0.558027	0.651313
	H2507	H	0.204037	0.549472	0.650900
	H2508	H	0.174859	0.541649	0.597417
	H2509	H	0.237365	0.603995	0.597846
	H2510	H	0.137811	0.520866	0.901462
	H2511	H	0.200185	0.583540	0.901106
	H2512	H	0.137770	0.520920	0.597133
	H2513	H	0.200320	0.583433	0.597645
	H2514	H	0.174801	0.541739	0.900911
	H2515	H	0.237261	0.604251	0.900835
	H2516	H	0.145944	0.564298	1.150577
	H2517	H	0.216655	0.552869	0.849618
	H2518	H	0.158510	0.571542	0.650046
	H2519	H	0.229145	0.560878	0.349199
	H2520	H	0.158448	0.572006	1.149613
	H2521	H	0.229141	0.560592	0.849522
	H2522	H	0.145984	0.563982	0.649912
	H2523	H	0.216594	0.553208	0.348844
	H2524	H	0.162658	0.534578	0.598606
	H2525	H	0.225219	0.597015	0.598740
	H2526	H	0.149880	0.528254	0.899410
	H2527	H	0.212456	0.590275	0.899820
	H2528	H	0.149894	0.528124	0.598655
	H2529	H	0.212310	0.591004	0.598953
	H2530	H	0.162687	0.534367	0.899463
	H2531	H	0.225241	0.596603	0.899403
	Co2532	Co	0.249999	0.625058	0.623418
	Co2533	Co	0.187575	0.562502	0.623601
	Co2534	Co	0.125049	0.499943	0.874928
	Co2535	Co	0.187508	0.562651	0.875140
	C2536	C	0.132384	0.558246	0.921981
	C2537	C	0.202688	0.549945	0.921587
	C2538	C	0.172403	0.575089	0.576854
	C2539	C	0.242660	0.566676	0.576725
	C2540	C	0.172333	0.575203	0.921942
	C2541	C	0.242659	0.566646	0.922168
	C2542	C	0.132363	0.558353	0.576678
	C2543	C	0.202716	0.550007	0.576637
	C2544	C	0.175908	0.542937	0.671723
	C2545	C	0.238426	0.605368	0.672003
	C2546	C	0.136730	0.519548	0.826692
	C2547	C	0.199181	0.582158	0.826406
	C2548	C	0.136694	0.519579	0.672005
	C2549	C	0.199226	0.582107	0.671504
	C2550	C	0.175883	0.543027	0.826198
	C2551	C	0.238381	0.605446	0.826674
	C2552	C	0.137181	0.559020	0.999707
	C2553	C	0.207590	0.549610	0.499348
	C2554	C	0.167468	0.575481	0.999500
	C2555	C	0.237885	0.566034	0.499068
	C2556	C	0.171581	0.539245	0.748954
	C2557	C	0.234091	0.601668	0.749209
	C2558	C	0.141007	0.523317	0.749155
	C2559	C	0.203505	0.585892	0.749041
	C2560	C	0.144870	0.563069	1.000164
	C2561	C	0.215444	0.552665	0.499176
	C2562	C	0.159606	0.572479	0.999640
	C2563	C	0.230187	0.561993	0.499063
	C2564	C	0.163910	0.534884	0.748876
	C2565	C	0.226424	0.597258	0.748971
	C2566	C	0.148662	0.527753	0.749010
	C2567	C	0.211183	0.590184	0.749188
	C2568	C	0.148608	0.565750	1.083562
	C2569	C	0.219298	0.554600	0.916082
	C2570	C	0.155845	0.569996	0.583262
	C2571	C	0.226429	0.559320	0.415528
	C2572	C	0.155764	0.570244	1.083126
	C2573	C	0.226447	0.559140	0.916139
	C2574	C	0.148676	0.565550	0.583136
	C2575	C	0.219278	0.554829	0.415526
	C2576	C	0.159961	0.533098	0.665425
	C2577	C	0.222477	0.595569	0.665463
	C2578	C	0.152601	0.529645	0.832545
	C2579	C	0.215158	0.591827	0.832805
	C2580	C	0.152613	0.529566	0.665464
	C2581	C	0.215103	0.592188	0.665668
	C2582	C	0.159970	0.533024	0.832468
	C2583	C	0.222499	0.595357	0.832521
	N2584	N	0.125172	0.558045	0.950393
	N2585	N	0.195416	0.551337	0.950454
	N2586	N	0.179648	0.573732	0.547931
	N2587	N	0.249887	0.566745	0.548391
	N2588	N	0.179582	0.573860	0.950479
	N2589	N	0.249865	0.566797	0.950715
	N2590	N	0.125159	0.558294	0.547999
	N2591	N	0.195471	0.551257	0.548280
	N2592	N	0.182077	0.548985	0.700737
	N2593	N	0.244598	0.611429	0.701000
	N2594	N	0.130526	0.513524	0.797964
	N2595	N	0.193002	0.576146	0.797443
	N2596	N	0.130500	0.513560	0.700939
	N2597	N	0.193030	0.576103	0.700303
	N2598	N	0.182084	0.548998	0.797714
	N2599	N	0.244579	0.611463	0.797830
	H2600	H	0.137130	0.721171	0.350852
	H2601	H	0.196184	0.620759	0.346687
	H2602	H	0.166343	0.658786	0.149804
	H2603	H	0.233482	0.637825	0.151464
	H2604	H	0.166186	0.658547	0.348699
	H2605	H	0.233466	0.638225	0.348094
	H2606	H	0.137131	0.721019	0.148737
	H2607	H	0.196226	0.620720	0.151686
	H2608	H	0.165503	0.615347	0.098107
	H2609	H	0.228011	0.677800	0.098914
	H2610	H	0.129186	0.592141	0.400126
	H2611	H	0.191650	0.654832	0.401006
	H2612	H	0.129182	0.592022	0.097181
	H2613	H	0.191826	0.654474	0.097342
	H2614	H	0.165364	0.615781	0.399840
	H2615	H	0.228062	0.678207	0.400957
	H2616	H	0.146758	0.701235	0.544069
	H2617	H	0.208432	0.626707	0.348968
	H2618	H	0.156993	0.679379	0.038120
	H2619	H	0.220900	0.634582	0.149674
	H2620	H	0.156852	0.679463	0.543344
	H2621	H	0.220990	0.634307	0.349498
	H2622	H	0.146870	0.701042	0.037747
	H2623	H	0.208393	0.626849	0.149522
	H2624	H	0.153286	0.609105	0.100274
	H2625	H	0.215743	0.672003	0.398642
	H2626	H	0.140571	0.602304	0.396301
	H2627	H	0.203226	0.664246	0.101786
	H2628	H	0.140602	0.601912	0.100601
	H2629	H	0.203080	0.664849	0.398061
	H2630	H	0.153237	0.609601	0.396102
	H2631	H	0.215907	0.671472	0.102143
	Co2632	Co	0.242251	0.693899	0.123818
	Co2633	Co	0.179689	0.631614	0.123731
	Co2634	Co	0.117227	0.568925	0.374472
	Co2635	Co	0.179603	0.631697	0.373884
	C2636	C	0.136172	0.723320	0.423692
	C2637	C	0.194814	0.620996	0.421168
	C2638	C	0.167327	0.656685	0.076256
	C2639	C	0.234843	0.637470	0.076961
	C2640	C	0.167228	0.656592	0.422378
	C2641	C	0.234822	0.637613	0.422434
	C2642	C	0.136169	0.723145	0.075831
	C2643	C	0.194825	0.621005	0.076913
	C2644	C	0.166715	0.616195	0.171634
	C2645	C	0.229267	0.678553	0.172825
	C2646	C	0.128234	0.590476	0.326095
	C2647	C	0.190693	0.653209	0.326541
	C2648	C	0.128237	0.590451	0.171495
	C2649	C	0.190773	0.653099	0.171766
	C2650	C	0.166631	0.616393	0.325711
	C2651	C	0.229269	0.678738	0.326833
	C2652	C	0.139681	0.715437	0.499792
	C2653	C	0.199611	0.621590	-0.000720
	C2654	C	0.163585	0.664217	0.499474
	C2655	C	0.229969	0.637928	-0.000598
	C2656	C	0.162155	0.613579	0.248600
	C2657	C	0.224762	0.675962	0.250070
	C2658	C	0.132223	0.595262	0.248852
	C2659	C	0.194732	0.657887	0.249342
	C2660	C	0.145690	0.702390	0.499436
	C2661	C	0.207314	0.625671	-0.000787
	C2662	C	0.157466	0.677038	0.499705
	C2663	C	0.222081	0.634973	-0.000530
	C2664	C	0.154435	0.609662	0.248448
	C2665	C	0.217015	0.672141	0.250214
	C2666	C	0.139534	0.601205	0.248608
	C2667	C	0.202061	0.663762	0.249737
	C2668	C	0.148828	0.696213	0.524207
	C2669	C	0.211142	0.628169	0.415683
	C2670	C	0.154635	0.683766	0.021354
	C2671	C	0.218227	0.632832	0.082957
	C2672	C	0.154555	0.683890	0.524312
	C2673	C	0.218296	0.632595	0.415884
	C2674	C	0.148902	0.696084	0.021056
	C2675	C	0.211085	0.628322	0.082711
	C2676	C	0.150565	0.607658	0.165775
	C2677	C	0.213062	0.670343	0.332716
	C2678	C	0.143322	0.603732	0.330976
	C2679	C	0.205918	0.665974	0.167400
	C2680	C	0.143341	0.603530	0.165922
	C2681	C	0.205834	0.666261	0.332474
	C2682	C	0.150542	0.607867	0.330770
	C2683	C	0.213155	0.670040	0.167763
	N2684	N	0.131016	0.734840	0.452814
	N2685	N	0.187584	0.620917	0.449548
	N2686	N	0.172722	0.645636	0.047015
	N2687	N	0.242102	0.636076	0.048043
	N2688	N	0.172649	0.645583	0.451519
	N2689	N	0.242061	0.636275	0.451073
	N2690	N	0.131020	0.734684	0.047148
	N2691	N	0.187610	0.620871	0.048470
	N2692	N	0.173314	0.620384	0.200769
	N2693	N	0.235925	0.682650	0.201135
	N2694	N	0.122536	0.582958	0.297065
	N2695	N	0.184970	0.645745	0.297063
	N2696	N	0.122558	0.582907	0.200789
	N2697	N	0.185026	0.645688	0.200786
	N2698	N	0.173266	0.620430	0.297286
	N2699	N	0.235905	0.682768	0.298045
	H2700	H	0.137056	0.721067	0.849948
	H2701	H	0.196190	0.620592	0.847199
	H2702	H	0.166356	0.658829	0.649896
	H2703	H	0.233465	0.638204	0.651442
	H2704	H	0.166210	0.658557	0.849075
	H2705	H	0.233488	0.638387	0.847285
	H2706	H	0.137048	0.720873	0.648997
	H2707	H	0.196182	0.620649	0.650856
	H2708	H	0.165473	0.615882	0.599057
	H2709	H	0.227925	0.678117	0.598786
	H2710	H	0.129272	0.591875	0.901497
	H2711	H	0.191617	0.654551	0.900711
	H2712	H	0.129212	0.591910	0.597561
	H2713	H	0.191630	0.654673	0.598077
	H2714	H	0.165542	0.615331	0.899485
	H2715	H	0.228012	0.677922	0.900188
	H2716	H	0.146197	0.699864	0.960417
	H2717	H	0.208403	0.626722	0.848858
	H2718	H	0.156367	0.678172	0.456002
	H2719	H	0.220910	0.634431	0.649770
	H2720	H	0.156278	0.678152	0.961296
	H2721	H	0.220966	0.634121	0.849482
	H2722	H	0.146287	0.699933	0.455983
	H2723	H	0.208368	0.626796	0.649745
	H2724	H	0.153349	0.609000	0.601555
	H2725	H	0.215692	0.671900	0.600917
	H2726	H	0.140581	0.602288	0.896814
	H2727	H	0.203113	0.664646	0.898427
	H2728	H	0.140711	0.601735	0.601205
	H2729	H	0.203071	0.664701	0.601371
	H2730	H	0.153245	0.609599	0.896794
	H2731	H	0.215774	0.671813	0.898240
	Co2732	Co	0.242178	0.693993	0.623948
	Co2733	Co	0.179691	0.631586	0.623829
	Co2734	Co	0.117259	0.568753	0.874435
	Co2735	Co	0.179646	0.631487	0.874837
	C2736	C	0.136129	0.723159	0.923046
	C2737	C	0.194811	0.620878	0.921859
	C2738	C	0.167301	0.656713	0.576293
	C2739	C	0.234829	0.637516	0.577310
	C2740	C	0.167245	0.656544	0.922525
	C2741	C	0.234839	0.637634	0.921875
	C2742	C	0.136119	0.723164	0.576284
	C2743	C	0.194822	0.620975	0.576431
	C2744	C	0.166685	0.616348	0.672481
	C2745	C	0.229183	0.678741	0.672581
	C2746	C	0.128293	0.590377	0.827013
	C2747	C	0.190670	0.653072	0.826579
	C2748	C	0.128273	0.590391	0.672112
	C2749	C	0.190703	0.653119	0.672499
	C2750	C	0.166728	0.616061	0.826162
	C2751	C	0.229232	0.678619	0.826387
	C2752	C	0.139695	0.715275	0.999314
	C2753	C	0.199600	0.621668	0.498768
	C2754	C	0.163598	0.664129	0.999489
	C2755	C	0.229967	0.637919	0.499868
	C2756	C	0.162195	0.613544	0.749355
	C2757	C	0.224675	0.676009	0.749693
	C2758	C	0.132270	0.595208	0.749588
	C2759	C	0.194677	0.657954	0.749705
	C2760	C	0.145692	0.702243	0.999467
	C2761	C	0.207316	0.625701	0.499122
	C2762	C	0.157484	0.676921	0.999821
	C2763	C	0.222085	0.634947	0.499428
	C2764	C	0.154493	0.609627	0.749323
	C2765	C	0.216946	0.672218	0.749815
	C2766	C	0.139547	0.601225	0.749348
	C2767	C	0.201993	0.663847	0.749987
	C2768	C	0.148524	0.695438	0.978027
	C2769	C	0.211087	0.628217	0.915855
	C2770	C	0.154284	0.683179	0.475171
	C2771	C	0.218222	0.632762	0.583077
	C2772	C	0.154250	0.683105	0.978102
	C2773	C	0.218252	0.632612	0.916057
	C2774	C	0.148571	0.695506	0.475123
	C2775	C	0.211068	0.628314	0.582917
	C2776	C	0.150616	0.607518	0.667075
	C2777	C	0.213034	0.670354	0.666996
	C2778	C	0.143330	0.603757	0.831586
	C2779	C	0.205830	0.666178	0.832585
	C2780	C	0.143387	0.603440	0.666882
	C2781	C	0.205799	0.666269	0.667067
	C2782	C	0.150571	0.607861	0.831531
	C2783	C	0.213065	0.670320	0.832376
	N2784	N	0.130995	0.734666	0.952377
	N2785	N	0.187600	0.620833	0.950380
	N2786	N	0.172709	0.645704	0.547182
	N2787	N	0.242081	0.636277	0.548466
	N2788	N	0.172666	0.645543	0.951464
	N2789	N	0.242091	0.636203	0.950682
	N2790	N	0.130966	0.734703	0.547643
	N2791	N	0.187593	0.620895	0.547770
	N2792	N	0.173315	0.620369	0.700920
	N2793	N	0.235838	0.682743	0.700881
	N2794	N	0.122625	0.582826	0.797831
	N2795	N	0.184992	0.645545	0.797454
	N2796	N	0.122585	0.582896	0.701282
	N2797	N	0.185015	0.645595	0.701173
	N2798	N	0.173351	0.620187	0.797586
	N2799	N	0.235871	0.682628	0.797835
	H2800	H	0.146247	0.903904	0.348985
	H2801	H	0.199567	0.783122	0.351600
	H2802	H	0.175320	0.841204	0.150238
	H2803	H	0.228861	0.720883	0.150427
	H2804	H	0.175218	0.840955	0.350937
	H2805	H	0.229013	0.721047	0.348168
	H2806	H	0.146036	0.903482	0.150662
	H2807	H	0.199744	0.783445	0.149402
	H2808	H	0.173505	0.795588	0.103518
	H2809	H	0.235878	0.858426	0.101780
	H2810	H	0.138978	0.766817	0.398212
	H2811	H	0.201630	0.828855	0.397867
	H2812	H	0.139323	0.766161	0.102876
	H2813	H	0.201530	0.829447	0.101847
	H2814	H	0.173436	0.795758	0.397909
	H2815	H	0.235865	0.858207	0.398519
	H2816	H	0.156165	0.884069	0.495073
	H2817	H	0.208635	0.761861	0.502911
	H2818	H	0.166029	0.861889	-0.070675
	H2819	H	0.219638	0.741864	0.048131
	H2820	H	0.166339	0.862435	0.494961
	H2821	H	0.218835	0.740274	0.501769
	H2822	H	0.155911	0.883531	-0.070923
	H2823	H	0.209512	0.763524	0.048224
	H2824	H	0.161976	0.788061	0.251441
	H2825	H	0.225069	0.847614	0.242289
	H2826	H	0.150626	0.774230	0.249535
	H2827	H	0.212405	0.839772	0.256721
	H2828	H	0.149787	0.778152	0.252105
	H2829	H	0.212854	0.837813	0.243414
	H2830	H	0.162776	0.784263	0.249743
	H2831	H	0.224638	0.849540	0.256884
	Co2832	Co	0.249963	0.874945	0.124865
	Co2833	Co	0.187543	0.812299	0.124807
	Co2834	Co	0.124971	0.750163	0.375556
	Co2835	Co	0.187530	0.812263	0.376297
	C2836	C	0.145219	0.905815	0.422789
	C2837	C	0.198626	0.785270	0.424802
	C2838	C	0.176318	0.839212	0.077184
	C2839	C	0.229809	0.718832	0.076384
	C2840	C	0.176245	0.839077	0.424064
	C2841	C	0.229915	0.719111	0.421980
	C2842	C	0.145146	0.905596	0.077146
	C2843	C	0.198713	0.785452	0.076767
	C2844	C	0.174637	0.796771	0.174934
	C2845	C	0.237072	0.859371	0.174125
	C2846	C	0.137883	0.765731	0.326141
	C2847	C	0.200422	0.827878	0.325995
	C2848	C	0.138062	0.765424	0.174775
	C2849	C	0.200368	0.828188	0.174070
	C2850	C	0.174612	0.796826	0.325826
	C2851	C	0.237068	0.859258	0.326164
	C2852	C	0.148864	0.898154	0.499597
	C2853	C	0.202213	0.777536	0.000298
	C2854	C	0.172820	0.847077	0.500393
	C2855	C	0.226093	0.726354	-0.000770
	C2856	C	0.170474	0.792957	0.250531
	C2857	C	0.232910	0.855392	0.249881
	C2858	C	0.142104	0.769504	0.250664
	C2859	C	0.204543	0.832002	0.250095
	C2860	C	0.155004	0.885327	0.499669
	C2861	C	0.208240	0.764530	0.000275
	C2862	C	0.166828	0.860175	0.500088
	C2863	C	0.220016	0.739247	-0.000329
	C2864	C	0.163315	0.786851	0.250297
	C2865	C	0.225749	0.849363	0.249689
	C2866	C	0.149295	0.775425	0.250846
	C2867	C	0.211695	0.838068	0.250284
	C2868	C	0.158227	0.879186	0.496989
	C2869	C	0.211005	0.757494	0.501731
	C2870	C	0.163786	0.866602	-0.039221
	C2871	C	0.217224	0.746145	0.026704
	C2872	C	0.163982	0.866964	0.497231
	C2873	C	0.216778	0.745311	0.500967
	C2874	C	0.158061	0.878869	-0.039027
	C2875	C	0.211509	0.758463	0.026992
	C2876	C	0.159491	0.785006	0.250913
	C2877	C	0.222300	0.845899	0.245795
	C2878	C	0.153099	0.777293	0.250285
	C2879	C	0.215164	0.841466	0.253908
	C2880	C	0.152636	0.779398	0.251410
	C2881	C	0.215402	0.840402	0.246208
	C2882	C	0.159961	0.782881	0.249929
	C2883	C	0.222043	0.847013	0.253887
	N2884	N	0.139802	0.916780	0.452097
	N2885	N	0.193482	0.796857	0.453440
	N2886	N	0.181508	0.827735	0.048094
	N2887	N	0.235201	0.707810	0.047121
	N2888	N	0.181444	0.827607	0.453036
	N2889	N	0.235284	0.708044	0.451717
	N2890	N	0.139788	0.916708	0.047632
	N2891	N	0.193509	0.796905	0.047534
	N2892	N	0.180781	0.802545	0.203474
	N2893	N	0.243218	0.865108	0.203187
	N2894	N	0.131749	0.759933	0.296948
	N2895	N	0.194286	0.822072	0.297289
	N2896	N	0.131877	0.759724	0.203167
	N2897	N	0.194270	0.822219	0.202951
	N2898	N	0.180762	0.802592	0.297338
	N2899	N	0.243219	0.865038	0.297567
	H2900	H	0.146177	0.903730	0.849746
	H2901	H	0.199648	0.783071	0.851120
	H2902	H	0.175582	0.841722	0.649697
	H2903	H	0.228830	0.720954	0.649592
	H2904	H	0.175454	0.841363	0.850939
	H2905	H	0.228824	0.720893	0.848529
	H2906	H	0.146094	0.903484	0.650233
	H2907	H	0.199646	0.783280	0.650204
	H2908	H	0.173413	0.795688	0.602156
	H2909	H	0.235887	0.858132	0.603363
	H2910	H	0.139105	0.766774	0.897209
	H2911	H	0.201650	0.828575	0.899461
	H2912	H	0.138957	0.766830	0.600916
	H2913	H	0.201593	0.829070	0.602286
	H2914	H	0.173234	0.795989	0.897087
	H2915	H	0.235926	0.858189	0.898324
	H2916	H	0.155780	0.883425	1.073460
	H2917	H	0.208592	0.761871	0.952339
	H2918	H	0.165679	0.861374	0.505457
	H2919	H	0.219607	0.741923	0.496909
	H2920	H	0.165913	0.861759	1.072639
	H2921	H	0.218732	0.740159	0.951331
	H2922	H	0.155495	0.883041	0.505220
	H2923	H	0.209425	0.763484	0.499068
	H2924	H	0.162170	0.786838	0.728977
	H2925	H	0.224971	0.848247	0.736159
	H2926	H	0.150265	0.775609	0.769696
	H2927	H	0.212608	0.838666	0.765998
	H2928	H	0.149977	0.777028	0.728868
	H2929	H	0.212825	0.838199	0.736078
	H2930	H	0.162454	0.785499	0.769597
	H2931	H	0.224765	0.848651	0.765652
	Co2932	Co	0.249948	0.874914	0.625168
	Co2933	Co	0.187502	0.812327	0.624808
	Co2934	Co	0.124977	0.750101	0.875677
	Co2935	Co	0.187455	0.812208	0.876102
	C2936	C	0.145221	0.905704	0.923389
	C2937	C	0.198662	0.785296	0.923663
	C2938	C	0.176414	0.839412	0.576611
	C2939	C	0.229811	0.719020	0.575981
	C2940	C	0.176366	0.839259	0.924155
	C2941	C	0.229787	0.718808	0.922190
	C2942	C	0.145146	0.905582	0.576663
	C2943	C	0.198684	0.785355	0.577320
	C2944	C	0.174583	0.796819	0.674151
	C2945	C	0.237048	0.859279	0.675228
	C2946	C	0.137882	0.765676	0.825368
	C2947	C	0.200455	0.827642	0.827021
	C2948	C	0.137813	0.765726	0.673165
	C2949	C	0.200434	0.827869	0.674583
	C2950	C	0.174485	0.796986	0.825642
	C2951	C	0.237052	0.859308	0.826722
	C2952	C	0.148876	0.898156	1.000531
	C2953	C	0.202155	0.777498	0.501188
	C2954	C	0.172813	0.847023	1.000616
	C2955	C	0.226194	0.726597	0.498768
	C2956	C	0.170387	0.793010	0.749749
	C2957	C	0.232910	0.855395	0.751136
	C2958	C	0.142018	0.769571	0.749050
	C2959	C	0.204620	0.831550	0.750939
	C2960	C	0.154987	0.885297	1.001071
	C2961	C	0.208177	0.764416	0.501169
	C2962	C	0.166778	0.860046	1.000787
	C2963	C	0.220032	0.739353	0.499179
	C2964	C	0.163226	0.786976	0.749307
	C2965	C	0.225765	0.849268	0.751102
	C2966	C	0.149181	0.775633	0.749031
	C2967	C	0.211765	0.837674	0.751027
	C2968	C	0.157996	0.878748	1.041288
	C2969	C	0.210992	0.757572	0.973066
	C2970	C	0.163625	0.866390	0.502782
	C2971	C	0.217204	0.746234	0.498450
	C2972	C	0.163742	0.866505	1.041239
	C2973	C	0.216732	0.745289	0.972957
	C2974	C	0.157864	0.878610	0.502768
	C2975	C	0.211438	0.758405	0.499552
	C2976	C	0.159558	0.784453	0.737784
	C2977	C	0.222254	0.846142	0.742541
	C2978	C	0.152848	0.778115	0.760592
	C2979	C	0.215300	0.840739	0.759402
	C2980	C	0.152687	0.778871	0.737582
	C2981	C	0.215401	0.840494	0.742747
	C2982	C	0.159731	0.783651	0.760887
	C2983	C	0.222143	0.846431	0.759524
	N2984	N	0.139817	0.916775	0.952355
	N2985	N	0.193491	0.796806	0.952703
	N2986	N	0.181547	0.827814	0.547826
	N2987	N	0.235227	0.707975	0.546977
	N2988	N	0.181532	0.827751	0.953169
	N2989	N	0.235191	0.707790	0.951592
	N2990	N	0.139764	0.916652	0.547477
	N2991	N	0.193497	0.796879	0.548239
	N2992	N	0.180715	0.802658	0.703062
	N2993	N	0.243173	0.865147	0.703823
	N2994	N	0.131724	0.759909	0.796907
	N2995	N	0.194278	0.821960	0.797978
	N2996	N	0.131672	0.759969	0.702540
	N2997	N	0.194264	0.822125	0.703292
	N2998	N	0.180653	0.802720	0.797171
	N2999	N	0.243174	0.865142	0.797809
	H3000	H	0.141462	0.987234	0.347159
	H3001	H	0.208555	0.966116	0.349971
	H3002	H	0.178842	1.004117	0.151364
	H3003	H	0.237937	0.904089	0.149525
	H3004	H	0.178771	1.004455	0.348508
	H3005	H	0.237848	0.903943	0.352017
	H3006	H	0.141580	0.986628	0.152303
	H3007	H	0.208693	0.966372	0.150312
	H3008	H	0.183336	0.970156	0.098658
	H3009	H	0.245724	1.032750	0.098465
	H3010	H	0.147003	0.947056	0.400378
	H3011	H	0.209590	1.009341	0.401119
	H3012	H	0.147157	0.946204	0.099641
	H3013	H	0.209517	1.009348	0.099707
	H3014	H	0.183229	0.970483	0.401675
	H3015	H	0.245846	1.032852	0.401410
	H3016	H	0.153978	0.991014	0.649789
	H3017	H	0.218699	0.947055	0.559681
	H3018	H	0.166607	0.998279	0.149803
	H3019	H	0.228644	0.924955	-0.103004
	H3020	H	0.166536	0.998513	0.650254
	H3021	H	0.228824	0.925377	0.560384
	H3022	H	0.154078	0.990528	0.150104
	H3023	H	0.218520	0.946637	-0.102923
	H3024	H	0.171963	0.959712	0.398175
	H3025	H	0.234308	1.023488	0.397362
	H3026	H	0.159186	0.953365	0.102503
	H3027	H	0.221906	1.014798	0.103059
	H3028	H	0.159312	0.952363	0.398059
	H3029	H	0.221655	1.016197	0.397630
	H3030	H	0.171838	0.960590	0.102392
	H3031	H	0.234548	1.022202	0.102900
	Co3032	Co	0.257746	1.056033	0.124505
	Co3033	Co	0.195346	0.993397	0.124736
	Co3034	Co	0.132840	0.930842	0.375287
	Co3035	Co	0.195308	0.993393	0.375911
	C3036	C	0.140144	0.987636	0.422336
	C3037	C	0.207609	0.968213	0.423375
	C3038	C	0.180187	1.003862	0.077167
	C3039	C	0.238858	0.901911	0.076599
	C3040	C	0.180169	1.004039	0.422875
	C3041	C	0.238790	0.901810	0.424536
	C3042	C	0.140174	0.987241	0.077570
	C3043	C	0.207686	0.968324	0.076741
	C3044	C	0.184336	0.971728	0.173211
	C3045	C	0.246750	1.034416	0.172449
	C3046	C	0.145792	0.946159	0.326815
	C3047	C	0.208361	1.008564	0.327404
	C3048	C	0.145875	0.945738	0.173101
	C3049	C	0.208343	1.008583	0.173352
	C3050	C	0.184240	0.971967	0.327451
	C3051	C	0.246787	1.034413	0.327187
	C3052	C	0.144998	0.987279	0.499861
	C3053	C	0.211340	0.960703	0.000008
	C3054	C	0.175379	1.003337	0.500621
	C3055	C	0.235323	0.909732	0.000238
	C3056	C	0.180300	0.967015	0.250347
	C3057	C	0.242801	1.029576	0.249911
	C3058	C	0.150349	0.948648	0.250077
	C3059	C	0.212870	1.011264	0.250488
	C3060	C	0.152865	0.990229	0.499922
	C3061	C	0.217474	0.947946	0.000590
	C3062	C	0.167663	0.999348	0.500596
	C3063	C	0.229340	0.922797	0.000461
	C3064	C	0.172995	0.961094	0.250273
	C3065	C	0.235479	1.023717	0.250153
	C3066	C	0.158066	0.952578	0.250369
	C3067	C	0.220580	1.015217	0.250186
	C3068	C	0.156689	0.992525	0.583334
	C3069	C	0.220712	0.941960	0.533752
	C3070	C	0.163868	0.996729	0.083479
	C3071	C	0.226399	0.929489	-0.057395
	C3072	C	0.163840	0.996958	0.583667
	C3073	C	0.226450	0.929656	0.534095
	C3074	C	0.156721	0.992218	0.083531
	C3075	C	0.220629	0.941730	-0.057483
	C3076	C	0.169210	0.958427	0.332684
	C3077	C	0.231621	1.021653	0.332363
	C3078	C	0.161940	0.954713	0.168101
	C3079	C	0.224539	1.016801	0.168182
	C3080	C	0.161986	0.954271	0.332760
	C3081	C	0.224404	1.017527	0.332171
	C3082	C	0.169159	0.958880	0.167963
	C3083	C	0.231759	1.020947	0.168048
	N3084	N	0.132896	0.988905	0.450957
	N3085	N	0.202255	0.979308	0.452608
	N3086	N	0.187379	1.003997	0.048738
	N3087	N	0.243994	0.890368	0.047808
	N3088	N	0.187395	1.004121	0.451517
	N3089	N	0.243946	0.890283	0.453398
	N3090	N	0.132906	0.988665	0.048816
	N3091	N	0.202270	0.979339	0.047539
	N3092	N	0.190010	0.979340	0.202329
	N3093	N	0.252446	1.041960	0.201503
	N3094	N	0.139166	0.942042	0.297888
	N3095	N	0.201706	1.004524	0.298571
	N3096	N	0.139219	0.941818	0.201411
	N3097	N	0.201700	1.004560	0.201863
	N3098	N	0.189957	0.979431	0.298507
	N3099	N	0.252461	1.041959	0.297585
	H3100	H	0.141487	0.986507	0.848190
	H3101	H	0.208561	0.965949	0.850032
	H3102	H	0.178836	1.004196	0.652989
	H3103	H	0.237884	0.903902	0.649897
	H3104	H	0.178777	1.004261	0.847280
	H3105	H	0.237869	0.903990	0.850950
	H3106	H	0.141482	0.986862	0.651528
	H3107	H	0.208706	0.966354	0.650990
	H3108	H	0.183369	0.970009	0.599115
	H3109	H	0.245770	1.033094	0.598522
	H3110	H	0.147012	0.947142	0.900387
	H3111	H	0.209406	1.009804	0.901569
	H3112	H	0.147009	0.946604	0.599176
	H3113	H	0.209542	1.009344	0.598886
	H3114	H	0.183210	0.970484	0.901775
	H3115	H	0.245828	1.032858	0.901671
	H3116	H	0.154060	0.990649	0.849333
	H3117	H	0.218167	0.945772	1.103979
	H3118	H	0.166640	0.997925	0.350475
	H3119	H	0.228015	0.923662	0.441132
	H3120	H	0.166559	0.998268	0.849525
	H3121	H	0.228343	0.924313	1.103576
	H3122	H	0.154091	0.990671	0.350189
	H3123	H	0.217882	0.945278	0.440478
	H3124	H	0.171895	0.960403	0.602344
	H3125	H	0.234407	1.022590	0.602452
	H3126	H	0.159175	0.953014	0.897060
	H3127	H	0.221655	1.015856	0.897950
	H3128	H	0.159183	0.953128	0.602143
	H3129	H	0.221790	1.015180	0.602627
	H3130	H	0.171845	0.960299	0.897334
	H3131	H	0.234328	1.023084	0.898373
	Co3132	Co	0.257789	1.056102	0.624367
	Co3133	Co	0.195337	0.993344	0.624852
	Co3134	Co	0.132837	0.930796	0.875551
	Co3135	Co	0.195283	0.993331	0.875298
	C3136	C	0.140174	0.987213	0.922285
	C3137	C	0.207607	0.968123	0.923179
	C3138	C	0.180180	1.003967	0.578047
	C3139	C	0.238790	0.901814	0.576984
	C3140	C	0.180175	1.003893	0.922093
	C3141	C	0.238843	0.901826	0.923732
	C3142	C	0.140158	0.987446	0.577222
	C3143	C	0.207706	0.968384	0.577450
	C3144	C	0.184331	0.971685	0.672817
	C3145	C	0.246727	1.034600	0.672939
	C3146	C	0.145762	0.946249	0.826682
	C3147	C	0.208250	1.008791	0.827251
	C3148	C	0.145787	0.945955	0.672801
	C3149	C	0.208331	1.008578	0.673123
	C3150	C	0.184209	0.971918	0.827506
	C3151	C	0.246776	1.034439	0.827359
	C3152	C	0.145035	0.986880	1.000078
	C3153	C	0.211328	0.960740	0.500373
	C3154	C	0.175381	1.003262	0.999716
	C3155	C	0.235277	0.909685	0.500819
	C3156	C	0.180278	0.967006	0.749857
	C3157	C	0.242761	1.029704	0.750172
	C3158	C	0.150280	0.948763	0.749664
	C3159	C	0.212813	1.011274	0.750352
	C3160	C	0.152886	0.989941	0.999992
	C3161	C	0.217456	0.947947	0.500177
	C3162	C	0.167648	0.999305	0.999850
	C3163	C	0.229253	0.922707	0.500690
	C3164	C	0.172943	0.961150	0.749731
	C3165	C	0.235462	1.023766	0.750313
	C3166	C	0.158019	0.952730	0.749524
	C3167	C	0.220540	1.015237	0.750354
	C3168	C	0.156710	0.992237	0.916263
	C3169	C	0.220465	0.941321	1.058249
	C3170	C	0.163924	0.996623	0.417177
	C3171	C	0.226005	0.928722	0.467226
	C3172	C	0.163874	0.996655	0.916132
	C3173	C	0.226222	0.929078	1.058332
	C3174	C	0.156759	0.992269	0.416698
	C3175	C	0.220278	0.941028	0.467044
	C3176	C	0.169145	0.958806	0.667584
	C3177	C	0.231695	1.021116	0.668155
	C3178	C	0.161909	0.954637	0.831843
	C3179	C	0.224411	1.017346	0.832735
	C3180	C	0.161907	0.954745	0.667278
	C3181	C	0.224467	1.017019	0.667996
	C3182	C	0.169129	0.958752	0.831989
	C3183	C	0.231638	1.021495	0.832686
	N3184	N	0.132914	0.988603	0.951224
	N3185	N	0.202221	0.979210	0.952253
	N3186	N	0.187387	1.004113	0.549566
	N3187	N	0.243919	0.890270	0.548134
	N3188	N	0.187385	1.004040	0.950597
	N3189	N	0.244005	0.890362	0.952568
	N3190	N	0.132905	0.988805	0.548651
	N3191	N	0.202308	0.979404	0.548007
	N3192	N	0.190034	0.979208	0.702254
	N3193	N	0.252425	1.042078	0.701907
	N3194	N	0.139121	0.942081	0.798128
	N3195	N	0.201626	1.004657	0.798411
	N3196	N	0.139154	0.941906	0.701723
	N3197	N	0.201671	1.004558	0.701685
	N3198	N	0.189942	0.979348	0.798360
	N3199	N	0.252457	1.042004	0.798244
	H3200	H	0.266596	0.111844	0.347698
	H3201	H	0.333553	0.091434	0.349311
	H3202	H	0.303705	0.129476	0.152979
	H3203	H	0.362746	0.028922	0.148998
	H3204	H	0.303750	0.129532	0.347976
	H3205	H	0.362876	0.029080	0.349948
	H3206	H	0.266390	0.112019	0.152015
	H3207	H	0.333640	0.091573	0.150499
	H3208	H	0.308335	0.095346	0.098033
	H3209	H	0.370857	0.157639	0.098691
	H3210	H	0.272053	0.071861	0.401629
	H3211	H	0.334536	0.134456	0.401120
	H3212	H	0.271953	0.071943	0.099141
	H3213	H	0.334475	0.134883	0.099730
	H3214	H	0.308208	0.095608	0.401858
	H3215	H	0.370841	0.157584	0.401650
	H3216	H	0.279084	0.115484	0.349904
	H3217	H	0.343241	0.071189	0.623641
	H3218	H	0.291462	0.123483	0.151012
	H3219	H	0.353306	0.049664	0.124472
	H3220	H	0.291687	0.123094	0.349797
	H3221	H	0.353358	0.049556	0.623914
	H3222	H	0.278918	0.116001	0.150606
	H3223	H	0.343154	0.071281	0.124912
	H3224	H	0.296733	0.086021	0.102324
	H3225	H	0.359288	0.148331	0.101993
	H3226	H	0.284352	0.077599	0.396786
	H3227	H	0.346819	0.140099	0.397836
	H3228	H	0.284068	0.078728	0.103094
	H3229	H	0.346599	0.141208	0.102621
	H3230	H	0.297043	0.084798	0.396207
	H3231	H	0.359534	0.147034	0.397598
	Co3232	Co	0.382803	0.180758	0.125080
	Co3233	Co	0.320279	0.118659	0.125098
	Co3234	Co	0.257777	0.056006	0.375060
	Co3235	Co	0.320266	0.118539	0.375786
	C3236	C	0.265157	0.112340	0.422161
	C3237	C	0.332619	0.093412	0.422746
	C3238	C	0.305105	0.129093	0.078338
	C3239	C	0.363751	0.026927	0.075822
	C3240	C	0.305158	0.129187	0.422490
	C3241	C	0.363818	0.026945	0.423142
	C3242	C	0.265061	0.112603	0.077462
	C3243	C	0.332668	0.093636	0.077150
	C3244	C	0.309307	0.096901	0.172398
	C3245	C	0.371785	0.159259	0.172904
	C3246	C	0.270800	0.071231	0.327439
	C3247	C	0.333286	0.133802	0.327598
	C3248	C	0.270761	0.071312	0.173126
	C3249	C	0.333250	0.134032	0.173304
	C3250	C	0.309212	0.097059	0.327246
	C3251	C	0.371827	0.159104	0.327626
	C3252	C	0.270046	0.112081	0.499807
	C3253	C	0.336349	0.086119	0.000056
	C3254	C	0.300346	0.128441	0.499915
	C3255	C	0.360281	0.034916	-0.000561
	C3256	C	0.305274	0.092166	0.249629
	C3257	C	0.367815	0.154429	0.250143
	C3258	C	0.275304	0.073925	0.250323
	C3259	C	0.337777	0.136582	0.250307
	C3260	C	0.277909	0.115155	0.499740
	C3261	C	0.342453	0.073234	-0.000291
	C3262	C	0.292663	0.124402	0.499771
	C3263	C	0.354265	0.047963	-0.000424
	C3264	C	0.297956	0.086292	0.249369
	C3265	C	0.360506	0.148601	0.250031
	C3266	C	0.283034	0.077813	0.250017
	C3267	C	0.345519	0.140393	0.250362
	C3268	C	0.281770	0.117174	0.416242
	C3269	C	0.345469	0.066566	0.568909
	C3270	C	0.288802	0.121946	0.084057
	C3271	C	0.351154	0.054375	0.069684
	C3272	C	0.288944	0.121627	0.416388
	C3273	C	0.351207	0.054309	0.569291
	C3274	C	0.281623	0.117573	0.083918
	C3275	C	0.345422	0.066662	0.069843
	C3276	C	0.294081	0.084174	0.167443
	C3277	C	0.356620	0.146527	0.167702
	C3278	C	0.287008	0.079429	0.331819
	C3279	C	0.349490	0.141892	0.332422
	C3280	C	0.286859	0.080032	0.167842
	C3281	C	0.349365	0.142569	0.167987
	C3282	C	0.294227	0.083596	0.331396
	C3283	C	0.356743	0.145905	0.332303
	N3284	N	0.257917	0.113615	0.450860
	N3285	N	0.327217	0.104427	0.452494
	N3286	N	0.312309	0.129325	0.049429
	N3287	N	0.368902	0.015407	0.046883
	N3288	N	0.312357	0.129310	0.451070
	N3289	N	0.368973	0.015411	0.451962
	N3290	N	0.257819	0.114007	0.048286
	N3291	N	0.327252	0.104676	0.047891
	N3292	N	0.314968	0.104481	0.201957
	N3293	N	0.377480	0.166713	0.202006
	N3294	N	0.264135	0.067250	0.298591
	N3295	N	0.326637	0.129790	0.298809
	N3296	N	0.264115	0.067303	0.201821
	N3297	N	0.326614	0.129922	0.202174
	N3298	N	0.314911	0.104548	0.298416
	N3299	N	0.377514	0.166635	0.298414
	H3300	H	0.266435	0.112214	0.848212
	H3301	H	0.333604	0.091647	0.849552
	H3302	H	0.303787	0.129424	0.652232
	H3303	H	0.362781	0.028812	0.649448
	H3304	H	0.303668	0.129398	0.848711
	H3305	H	0.362927	0.029337	0.850218
	H3306	H	0.266543	0.111811	0.651995
	H3307	H	0.333598	0.091339	0.650583
	H3308	H	0.308390	0.095088	0.598807
	H3309	H	0.370781	0.157802	0.599024
	H3310	H	0.271958	0.072102	0.900330
	H3311	H	0.334379	0.134933	0.901612
	H3312	H	0.271944	0.072155	0.598718
	H3313	H	0.334540	0.134421	0.599508
	H3314	H	0.308288	0.095499	0.901384
	H3315	H	0.370842	0.157749	0.902434
	H3316	H	0.279025	0.115503	0.850258
	H3317	H	0.343454	0.071655	0.874057
	H3318	H	0.291552	0.123586	0.650153
	H3319	H	0.353509	0.049676	0.375006
	H3320	H	0.291584	0.123067	0.850527
	H3321	H	0.353544	0.049923	0.874615
	H3322	H	0.279002	0.116167	0.650198
	H3323	H	0.343417	0.071405	0.374900
	H3324	H	0.296781	0.085871	0.602420
	H3325	H	0.359376	0.147835	0.602976
	H3326	H	0.284346	0.077329	0.896839
	H3327	H	0.346733	0.140620	0.898773
	H3328	H	0.284102	0.078888	0.603146
	H3329	H	0.346674	0.140888	0.602531
	H3330	H	0.297012	0.084476	0.897302
	H3331	H	0.359405	0.147804	0.898959
	Co3332	Co	0.382803	0.180985	0.624969
	Co3333	Co	0.320298	0.118508	0.624903
	Co3334	Co	0.257769	0.056146	0.875348
	Co3335	Co	0.320243	0.118659	0.875241
	C3336	C	0.265078	0.112644	0.922347
	C3337	C	0.332651	0.093694	0.923244
	C3338	C	0.305163	0.129090	0.577694
	C3339	C	0.363773	0.026811	0.576231
	C3340	C	0.305086	0.129141	0.922941
	C3341	C	0.363824	0.027129	0.923054
	C3342	C	0.265151	0.112333	0.577558
	C3343	C	0.332633	0.093342	0.576900
	C3344	C	0.309302	0.096851	0.673112
	C3345	C	0.371758	0.159445	0.673358
	C3346	C	0.270758	0.071427	0.826644
	C3347	C	0.333197	0.134084	0.827602
	C3348	C	0.270772	0.071399	0.672879
	C3349	C	0.333289	0.133783	0.673428
	C3350	C	0.309268	0.096978	0.827513
	C3351	C	0.371822	0.159295	0.827963
	C3352	C	0.269953	0.112257	0.999969
	C3353	C	0.336307	0.085850	0.499505
	C3354	C	0.300283	0.128403	1.000569
	C3355	C	0.360301	0.034745	0.499820
	C3356	C	0.305311	0.092042	0.750301
	C3357	C	0.367788	0.154580	0.750750
	C3358	C	0.275289	0.074034	0.749847
	C3359	C	0.337765	0.136593	0.750588
	C3360	C	0.277823	0.115122	1.000158
	C3361	C	0.342459	0.073063	0.499139
	C3362	C	0.292605	0.124333	1.000459
	C3363	C	0.354300	0.047814	0.499613
	C3364	C	0.298007	0.086148	0.749861
	C3365	C	0.360458	0.148713	0.750831
	C3366	C	0.283011	0.077881	0.749943
	C3367	C	0.345498	0.140456	0.750785
	C3368	C	0.281702	0.117203	0.916977
	C3369	C	0.345562	0.066851	0.929420
	C3370	C	0.288863	0.122069	0.583362
	C3371	C	0.351330	0.054379	0.429782
	C3372	C	0.288881	0.121613	0.917126
	C3373	C	0.351301	0.054580	0.929361
	C3374	C	0.281687	0.117631	0.583177
	C3375	C	0.345569	0.066631	0.429575
	C3376	C	0.294114	0.084164	0.667888
	C3377	C	0.356630	0.146409	0.668345
	C3378	C	0.286984	0.079350	0.831854
	C3379	C	0.349419	0.142279	0.833207
	C3380	C	0.286877	0.080105	0.668046
	C3381	C	0.349385	0.142354	0.668237
	C3382	C	0.294236	0.083373	0.831899
	C3383	C	0.356662	0.146296	0.833327
	N3384	N	0.257843	0.114010	0.950701
	N3385	N	0.327252	0.104716	0.952574
	N3386	N	0.312364	0.129258	0.549187
	N3387	N	0.368935	0.015336	0.547073
	N3388	N	0.312282	0.129323	0.951264
	N3389	N	0.368947	0.015510	0.951919
	N3390	N	0.257907	0.113626	0.548553
	N3391	N	0.327234	0.104395	0.547940
	N3392	N	0.314954	0.104476	0.701947
	N3393	N	0.377478	0.166884	0.702261
	N3394	N	0.264112	0.067425	0.798136
	N3395	N	0.326567	0.129966	0.798835
	N3396	N	0.264129	0.067390	0.701362
	N3397	N	0.326634	0.129752	0.701906
	N3398	N	0.314931	0.104550	0.798532
	N3399	N	0.377510	0.166835	0.798594
	H3400	H	0.258735	0.183046	0.346877
	H3401	H	0.329033	0.174266	0.347767
	H3402	H	0.295923	0.200663	0.151479
	H3403	H	0.366290	0.191603	0.152155
	H3404	H	0.295977	0.200585	0.347726
	H3405	H	0.366275	0.191772	0.347015
	H3406	H	0.258726	0.183155	0.151940
	H3407	H	0.329025	0.174749	0.152406
	H3408	H	0.299700	0.166999	0.097760
	H3409	H	0.362184	0.229353	0.098217
	H3410	H	0.262755	0.145817	0.401890
	H3411	H	0.325245	0.208114	0.401995
	H3412	H	0.262668	0.146139	0.097957
	H3413	H	0.325208	0.208384	0.098718
	H3414	H	0.299744	0.166591	0.400941
	H3415	H	0.362245	0.229103	0.401800
	H3416	H	0.270954	0.188958	0.348901
	H3417	H	0.341547	0.177594	0.350049
	H3418	H	0.283381	0.196797	-0.151723
	H3419	H	0.354114	0.185588	0.150086
	H3420	H	0.283512	0.196668	0.349546
	H3421	H	0.354100	0.185124	0.349531
	H3422	H	0.270878	0.189129	-0.151065
	H3423	H	0.341540	0.178142	0.150040
	H3424	H	0.287651	0.159223	0.099909
	H3425	H	0.350163	0.221805	0.099937
	H3426	H	0.274811	0.153274	0.399831
	H3427	H	0.337353	0.215584	0.400656
	H3428	H	0.274819	0.153133	0.099341
	H3429	H	0.337394	0.215423	0.100015
	H3430	H	0.287647	0.159382	0.400419
	H3431	H	0.350164	0.221848	0.399837
	Co3432	Co	0.374957	0.250108	0.124207
	Co3433	Co	0.312427	0.187702	0.124361
	Co3434	Co	0.250054	0.124906	0.375226
	Co3435	Co	0.312489	0.187418	0.375653
	C3436	C	0.257335	0.183388	0.421605
	C3437	C	0.327652	0.174721	0.422246
	C3438	C	0.297303	0.200038	0.076742
	C3439	C	0.367661	0.191391	0.077789
	C3440	C	0.297366	0.200007	0.422399
	C3441	C	0.367627	0.191416	0.421894
	C3442	C	0.257351	0.183438	0.077070
	C3443	C	0.327654	0.175055	0.077844
	C3444	C	0.300742	0.168201	0.172382
	C3445	C	0.363281	0.230592	0.172671
	C3446	C	0.261697	0.144501	0.327395
	C3447	C	0.324208	0.206825	0.327517
	C3448	C	0.261634	0.144729	0.172570
	C3449	C	0.324170	0.207037	0.173140
	C3450	C	0.300798	0.167967	0.327089
	C3451	C	0.363342	0.230418	0.327349
	C3452	C	0.262143	0.184118	0.499155
	C3453	C	0.332519	0.174555	0.000160
	C3454	C	0.292468	0.200445	0.499920
	C3455	C	0.362861	0.190799	0.000221
	C3456	C	0.296472	0.164312	0.249794
	C3457	C	0.359017	0.226723	0.249921
	C3458	C	0.265961	0.148368	0.249919
	C3459	C	0.328509	0.210638	0.250297
	C3460	C	0.269815	0.188235	0.499183
	C3461	C	0.340391	0.177564	-0.000115
	C3462	C	0.284581	0.197520	0.499750
	C3463	C	0.355148	0.186764	0.000018
	C3464	C	0.288833	0.159852	0.250047
	C3465	C	0.351369	0.222231	0.249928
	C3466	C	0.273633	0.152714	0.249738
	C3467	C	0.336155	0.214986	0.250441
	C3468	C	0.273621	0.190631	0.415706
	C3469	C	0.344227	0.179379	0.416291
	C3470	C	0.280744	0.195147	-0.084762
	C3471	C	0.351382	0.184179	0.083439
	C3472	C	0.280781	0.195136	0.416122
	C3473	C	0.351364	0.183885	0.416263
	C3474	C	0.273597	0.190650	-0.084417
	C3475	C	0.344222	0.179768	0.083464
	C3476	C	0.284888	0.158014	0.166625
	C3477	C	0.347451	0.220316	0.166609
	C3478	C	0.277580	0.154528	0.333276
	C3479	C	0.340083	0.216871	0.333725
	C3480	C	0.277545	0.154517	0.166182
	C3481	C	0.340110	0.216749	0.167016
	C3482	C	0.284924	0.158017	0.333642
	C3483	C	0.347426	0.220385	0.333359
	N3484	N	0.250143	0.183221	0.450154
	N3485	N	0.320402	0.176097	0.451055
	N3486	N	0.304557	0.198816	0.048333
	N3487	N	0.374888	0.191482	0.049391
	N3488	N	0.304623	0.198651	0.451268
	N3489	N	0.374843	0.191555	0.450526
	N3490	N	0.250134	0.183349	0.048759
	N3491	N	0.320397	0.176391	0.049103
	N3492	N	0.306948	0.174161	0.201204
	N3493	N	0.369474	0.236619	0.201684
	N3494	N	0.255491	0.138570	0.298441
	N3495	N	0.318005	0.200961	0.299005
	N3496	N	0.255448	0.138707	0.201480
	N3497	N	0.317953	0.201137	0.201692
	N3498	N	0.306998	0.173981	0.298206
	N3499	N	0.369500	0.236585	0.298395
	H3500	H	0.258705	0.182908	0.847185
	H3501	H	0.329001	0.174060	0.847842
	H3502	H	0.295971	0.200762	0.652198
	H3503	H	0.366222	0.191718	0.651868
	H3504	H	0.296007	0.200645	0.846984
	H3505	H	0.366309	0.191875	0.848087
	H3506	H	0.258735	0.183074	0.651150
	H3507	H	0.329016	0.173944	0.651777
	H3508	H	0.299686	0.166655	0.598086
	H3509	H	0.362297	0.228986	0.598350
	H3510	H	0.262598	0.146101	0.901473
	H3511	H	0.325140	0.208451	0.901506
	H3512	H	0.262834	0.145476	0.597623
	H3513	H	0.325282	0.208023	0.598064
	H3514	H	0.299736	0.166607	0.902578
	H3515	H	0.362119	0.229434	0.901870
	H3516	H	0.270957	0.188868	1.149646
	H3517	H	0.341550	0.178024	0.849803
	H3518	H	0.283385	0.196966	0.650264
	H3519	H	0.353966	0.186131	0.649601
	H3520	H	0.283435	0.196563	1.148890
	H3521	H	0.354123	0.185506	0.850040
	H3522	H	0.270834	0.189376	0.649556
	H3523	H	0.341447	0.178434	0.649937
	H3524	H	0.287569	0.159729	0.600135
	H3525	H	0.350049	0.222315	0.599896
	H3526	H	0.274828	0.152952	0.900378
	H3527	H	0.337375	0.215329	0.899969
	H3528	H	0.274811	0.153439	0.599455
	H3529	H	0.337196	0.216040	0.599440
	H3530	H	0.287688	0.158971	0.900487
	H3531	H	0.350160	0.221592	0.900339
	Co3532	Co	0.375027	0.249745	0.624377
	Co3533	Co	0.312515	0.187308	0.624032
	Co3534	Co	0.249880	0.125149	0.875343
	Co3535	Co	0.312508	0.187426	0.876001
	C3536	C	0.257348	0.183258	0.921781
	C3537	C	0.327651	0.174742	0.922547
	C3538	C	0.297358	0.200080	0.577770
	C3539	C	0.367613	0.191381	0.577008
	C3540	C	0.297352	0.200077	0.921683
	C3541	C	0.367670	0.191521	0.922649
	C3542	C	0.257349	0.183359	0.576870
	C3543	C	0.327644	0.174608	0.577492
	C3544	C	0.300806	0.167886	0.672773
	C3545	C	0.363336	0.230263	0.672967
	C3546	C	0.261618	0.144597	0.826896
	C3547	C	0.324149	0.207005	0.827214
	C3548	C	0.261708	0.144397	0.672145
	C3549	C	0.324188	0.206815	0.672747
	C3550	C	0.300817	0.167944	0.827618
	C3551	C	0.363262	0.230473	0.827749
	C3552	C	0.262136	0.184009	0.999306
	C3553	C	0.332500	0.174316	0.499842
	C3554	C	0.292438	0.200387	0.998902
	C3555	C	0.362815	0.190759	0.499429
	C3556	C	0.296498	0.164179	0.750385
	C3557	C	0.358987	0.226682	0.750085
	C3558	C	0.265963	0.148251	0.749847
	C3559	C	0.328462	0.210702	0.749872
	C3560	C	0.269821	0.188052	0.999209
	C3561	C	0.340371	0.177367	0.500004
	C3562	C	0.284574	0.197393	0.998628
	C3563	C	0.355102	0.186772	0.499419
	C3564	C	0.288840	0.159777	0.750471
	C3565	C	0.351333	0.222313	0.749957
	C3566	C	0.273601	0.152690	0.750192
	C3567	C	0.336097	0.215206	0.749751
	C3568	C	0.273605	0.190536	1.082784
	C3569	C	0.344234	0.179679	0.916310
	C3570	C	0.280735	0.195289	0.583182
	C3571	C	0.351299	0.184451	0.582960
	C3572	C	0.280761	0.194985	1.082162
	C3573	C	0.351397	0.184100	0.916460
	C3574	C	0.273549	0.190889	0.582894
	C3575	C	0.344156	0.179901	0.583437
	C3576	C	0.284879	0.158207	0.666859
	C3577	C	0.347343	0.220692	0.666635
	C3578	C	0.277577	0.154341	0.833644
	C3579	C	0.340070	0.216874	0.833240
	C3580	C	0.277544	0.154637	0.666539
	C3581	C	0.339976	0.217254	0.666340
	C3582	C	0.284945	0.157730	0.833664
	C3583	C	0.347419	0.220341	0.833478
	N3584	N	0.250138	0.183220	0.950460
	N3585	N	0.320399	0.176199	0.951650
	N3586	N	0.304625	0.198679	0.548828
	N3587	N	0.374844	0.191520	0.548741
	N3588	N	0.304591	0.198778	0.950802
	N3589	N	0.374893	0.191564	0.951334
	N3590	N	0.250150	0.183235	0.548467
	N3591	N	0.320403	0.175994	0.548665
	N3592	N	0.306981	0.173936	0.701771
	N3593	N	0.369506	0.236343	0.701843
	N3594	N	0.255456	0.138510	0.797833
	N3595	N	0.317991	0.200895	0.798433
	N3596	N	0.255491	0.138422	0.700794
	N3597	N	0.318021	0.200772	0.701435
	N3598	N	0.306996	0.173955	0.798692
	N3599	N	0.369487	0.236457	0.799079
	H3600	H	0.262290	0.346056	0.351181
	H3601	H	0.321223	0.245781	0.347924
	H3602	H	0.291453	0.283809	0.149715
	H3603	H	0.358454	0.263091	0.151156
	H3604	H	0.291259	0.283593	0.349507
	H3605	H	0.358517	0.263107	0.348064
	H3606	H	0.262137	0.345843	0.149877
	H3607	H	0.321210	0.245564	0.151633
	H3608	H	0.290420	0.240507	0.099990
	H3609	H	0.353028	0.302522	0.099051
	H3610	H	0.254241	0.216967	0.401684
	H3611	H	0.316598	0.279750	0.400711
	H3612	H	0.254112	0.217271	0.098329
	H3613	H	0.316756	0.279343	0.098463
	H3614	H	0.290568	0.240246	0.400619
	H3615	H	0.353048	0.302815	0.400254
	H3616	H	0.271746	0.325657	0.483563
	H3617	H	0.333438	0.251649	0.349796
	H3618	H	0.281009	0.302427	0.125763
	H3619	H	0.345945	0.259259	-0.150201
	H3620	H	0.281905	0.303974	0.483666
	H3621	H	0.345987	0.259367	0.350223
	H3622	H	0.270937	0.324115	0.125641
	H3623	H	0.333421	0.251558	-0.150226
	H3624	H	0.278292	0.234279	0.102861
	H3625	H	0.340836	0.296491	0.102044
	H3626	H	0.265545	0.227253	0.397708
	H3627	H	0.328047	0.289744	0.397641
	H3628	H	0.265596	0.227031	0.102747
	H3629	H	0.328152	0.289284	0.102377
	H3630	H	0.278224	0.234335	0.397819
	H3631	H	0.340776	0.296881	0.397538
	Co3632	Co	0.367137	0.318987	0.124477
	Co3633	Co	0.304692	0.256455	0.124311
	Co3634	Co	0.242192	0.193962	0.374743
	Co3635	Co	0.304673	0.256454	0.375197
	C3636	C	0.261292	0.348120	0.423620
	C3637	C	0.319828	0.246020	0.422420
	C3638	C	0.292416	0.281655	0.076093
	C3639	C	0.359816	0.262584	0.077183
	C3640	C	0.292283	0.281542	0.422881
	C3641	C	0.359850	0.262659	0.422473
	C3642	C	0.261248	0.347979	0.076298
	C3643	C	0.319811	0.245844	0.077092
	C3644	C	0.291671	0.241234	0.173479
	C3645	C	0.354244	0.303483	0.172944
	C3646	C	0.253195	0.215553	0.327485
	C3647	C	0.315697	0.278073	0.326944
	C3648	C	0.253134	0.215681	0.172714
	C3649	C	0.315775	0.277927	0.172579
	C3650	C	0.291723	0.241062	0.326975
	C3651	C	0.354242	0.303596	0.326924
	C3652	C	0.264715	0.340164	0.500159
	C3653	C	0.324637	0.246482	-0.000334
	C3654	C	0.288625	0.288965	0.499981
	C3655	C	0.354923	0.262941	-0.000249
	C3656	C	0.287165	0.238518	0.250319
	C3657	C	0.349719	0.300888	0.249987
	C3658	C	0.257165	0.220433	0.250039
	C3659	C	0.319708	0.282857	0.249912
	C3660	C	0.270704	0.327061	0.500115
	C3661	C	0.332319	0.250529	-0.000124
	C3662	C	0.282503	0.301813	0.499957
	C3663	C	0.347082	0.259876	-0.000048
	C3664	C	0.279433	0.234655	0.250308
	C3665	C	0.341985	0.296992	0.249925
	C3666	C	0.264468	0.226365	0.249961
	C3667	C	0.327038	0.288725	0.250068
	C3668	C	0.273836	0.320767	0.491061
	C3669	C	0.336145	0.253200	0.416667
	C3670	C	0.279155	0.307696	0.070042
	C3671	C	0.343247	0.257660	-0.083570
	C3672	C	0.279583	0.308523	0.491045
	C3673	C	0.343310	0.257664	0.416881
	C3674	C	0.273452	0.319988	0.070035
	C3675	C	0.336084	0.253153	-0.083506
	C3676	C	0.275558	0.232699	0.168109
	C3677	C	0.338125	0.294996	0.167599
	C3678	C	0.268267	0.228751	0.332346
	C3679	C	0.330836	0.291166	0.332481
	C3680	C	0.268311	0.228650	0.167899
	C3681	C	0.330875	0.290969	0.167668
	C3682	C	0.275506	0.232804	0.332379
	C3683	C	0.338078	0.295190	0.332232
	N3684	N	0.256141	0.359678	0.452493
	N3685	N	0.312611	0.245820	0.450730
	N3686	N	0.297794	0.270585	0.047248
	N3687	N	0.367045	0.261271	0.048460
	N3688	N	0.297712	0.270531	0.451963
	N3689	N	0.367089	0.261203	0.451113
	N3690	N	0.256089	0.359548	0.047450
	N3691	N	0.312614	0.245680	0.048706
	N3692	N	0.298304	0.245328	0.201848
	N3693	N	0.360870	0.307656	0.201701
	N3694	N	0.247506	0.208013	0.298084
	N3695	N	0.310016	0.270483	0.297661
	N3696	N	0.247445	0.208142	0.201791
	N3697	N	0.310075	0.270385	0.201728
	N3698	N	0.298341	0.245191	0.298231
	N3699	N	0.360877	0.307659	0.298297
	H3700	H	0.262240	0.346183	0.849489
	H3701	H	0.321236	0.245452	0.847205
	H3702	H	0.291336	0.283527	0.650150
	H3703	H	0.358522	0.263082	0.652495
	H3704	H	0.291388	0.283871	0.848997
	H3705	H	0.358465	0.263291	0.847474
	H3706	H	0.262045	0.345751	0.648929
	H3707	H	0.321194	0.245500	0.652242
	H3708	H	0.290484	0.240392	0.598819
	H3709	H	0.352929	0.303141	0.600310
	H3710	H	0.254191	0.217236	0.901530
	H3711	H	0.316783	0.279516	0.901465
	H3712	H	0.254127	0.217272	0.598029
	H3713	H	0.316707	0.279555	0.598406
	H3714	H	0.290403	0.240519	0.900032
	H3715	H	0.352887	0.303473	0.901440
	H3716	H	0.272277	0.326930	0.873740
	H3717	H	0.333408	0.251587	1.149910
	H3718	H	0.281489	0.303318	0.516856
	H3719	H	0.345929	0.259712	0.650601
	H3720	H	0.282421	0.305154	0.872826
	H3721	H	0.345932	0.259111	1.149915
	H3722	H	0.271314	0.324949	0.516650
	H3723	H	0.333380	0.252067	0.650523
	H3724	H	0.278197	0.234559	0.602091
	H3725	H	0.340717	0.297317	0.602538
	H3726	H	0.265585	0.227096	0.896688
	H3727	H	0.328078	0.289377	0.897948
	H3728	H	0.265488	0.227464	0.602208
	H3729	H	0.328053	0.289845	0.602241
	H3730	H	0.278296	0.234156	0.896187
	H3731	H	0.340750	0.296717	0.898787
	Co3732	Co	0.367189	0.318976	0.624562
	Co3733	Co	0.304664	0.256476	0.624685
	Co3734	Co	0.242203	0.193998	0.875040
	Co3735	Co	0.304703	0.256419	0.875011
	C3736	C	0.261294	0.348194	0.922896
	C3737	C	0.319828	0.245771	0.921821
	C3738	C	0.292302	0.281479	0.576908
	C3739	C	0.359875	0.262536	0.577554
	C3740	C	0.292398	0.281682	0.922383
	C3741	C	0.359804	0.262671	0.921987
	C3742	C	0.261171	0.347946	0.576433
	C3743	C	0.319817	0.245959	0.577511
	C3744	C	0.291680	0.241190	0.672528
	C3745	C	0.354191	0.303760	0.673703
	C3746	C	0.253178	0.215663	0.827171
	C3747	C	0.315725	0.278031	0.827091
	C3748	C	0.253180	0.215639	0.672153
	C3749	C	0.315702	0.278080	0.672402
	C3750	C	0.291645	0.241217	0.826414
	C3751	C	0.354167	0.303929	0.827458
	C3752	C	0.264794	0.340313	0.999415
	C3753	C	0.324643	0.246671	0.500071
	C3754	C	0.288735	0.289153	0.999162
	C3755	C	0.354997	0.262938	0.500183
	C3756	C	0.287144	0.238519	0.749408
	C3757	C	0.349653	0.301210	0.750570
	C3758	C	0.257144	0.220510	0.749749
	C3759	C	0.319697	0.282865	0.749780
	C3760	C	0.270806	0.327263	0.999245
	C3761	C	0.332363	0.250665	0.500182
	C3762	C	0.282586	0.301973	0.999257
	C3763	C	0.347132	0.260011	0.500422
	C3764	C	0.279425	0.234594	0.749195
	C3765	C	0.341929	0.297286	0.750402
	C3766	C	0.264469	0.226350	0.749444
	C3767	C	0.327015	0.288817	0.749981
	C3768	C	0.274198	0.321504	0.928746
	C3769	C	0.336085	0.253061	1.083234
	C3770	C	0.279348	0.308127	0.509498
	C3771	C	0.343281	0.257893	0.583959
	C3772	C	0.279921	0.309207	0.928514
	C3773	C	0.343252	0.257521	1.083275
	C3774	C	0.273613	0.320385	0.509363
	C3775	C	0.336110	0.253438	0.583635
	C3776	C	0.275515	0.232801	0.667116
	C3777	C	0.338017	0.295514	0.667928
	C3778	C	0.268290	0.228650	0.831388
	C3779	C	0.330828	0.291076	0.832625
	C3780	C	0.268258	0.228818	0.667170
	C3781	C	0.330805	0.291346	0.667595
	C3782	C	0.275540	0.232630	0.831104
	C3783	C	0.338046	0.295229	0.832856
	N3784	N	0.256104	0.359680	0.952282
	N3785	N	0.312611	0.245647	0.950438
	N3786	N	0.297721	0.270479	0.547562
	N3787	N	0.367105	0.261103	0.548889
	N3788	N	0.297785	0.270598	0.951621
	N3789	N	0.367051	0.261319	0.950884
	N3790	N	0.256093	0.359611	0.547158
	N3791	N	0.312602	0.245799	0.548970
	N3792	N	0.298330	0.245197	0.701601
	N3793	N	0.360874	0.307702	0.702212
	N3794	N	0.247502	0.208089	0.797913
	N3795	N	0.310038	0.270465	0.797726
	N3796	N	0.247484	0.208105	0.701479
	N3797	N	0.310048	0.270437	0.701944
	N3798	N	0.298291	0.245211	0.798068
	N3799	N	0.360846	0.307822	0.798781
	H3800	H	0.271125	0.528916	0.349064
	H3801	H	0.324546	0.408426	0.349956
	H3802	H	0.300320	0.466492	0.148350
	H3803	H	0.353613	0.345843	0.149969
	H3804	H	0.300317	0.466532	0.349182
	H3805	H	0.353888	0.346005	0.349255
	H3806	H	0.271084	0.529076	0.150329
	H3807	H	0.324690	0.408610	0.148859
	H3808	H	0.298466	0.420743	0.101457
	H3809	H	0.360931	0.483408	0.101376
	H3810	H	0.264100	0.391542	0.397260
	H3811	H	0.326660	0.453689	0.397660
	H3812	H	0.264084	0.391524	0.101424
	H3813	H	0.326499	0.454315	0.100371
	H3814	H	0.298388	0.420903	0.397237
	H3815	H	0.360981	0.483050	0.397839
	H3816	H	0.280865	0.508772	0.431920
	H3817	H	0.333909	0.387622	0.524875
	H3818	H	0.290617	0.486442	0.089422
	H3819	H	0.344282	0.366498	0.062710
	H3820	H	0.291034	0.487172	0.431795
	H3821	H	0.344047	0.365974	0.524887
	H3822	H	0.280506	0.508164	0.089584
	H3823	H	0.334140	0.388206	0.061907
	H3824	H	0.287749	0.409643	0.233148
	H3825	H	0.349930	0.473451	0.218132
	H3826	H	0.274770	0.402751	0.266048
	H3827	H	0.337586	0.463824	0.279526
	H3828	H	0.275578	0.399658	0.233220
	H3829	H	0.337740	0.463487	0.218040
	H3830	H	0.286908	0.412938	0.265525
	H3831	H	0.349730	0.473964	0.280346
	Co3832	Co	0.374989	0.500045	0.124416
	Co3833	Co	0.312511	0.437539	0.123731
	Co3834	Co	0.250062	0.374885	0.375021
	Co3835	Co	0.312503	0.437507	0.374853
	C3836	C	0.270185	0.530974	0.422533
	C3837	C	0.323653	0.410619	0.422823
	C3838	C	0.301285	0.464406	0.075283
	C3839	C	0.354690	0.343934	0.076597
	C3840	C	0.301338	0.464495	0.422441
	C3841	C	0.354793	0.343938	0.422855
	C3842	C	0.270211	0.531090	0.076630
	C3843	C	0.323682	0.410680	0.075765
	C3844	C	0.299582	0.421990	0.173552
	C3845	C	0.362069	0.484430	0.173612
	C3846	C	0.262940	0.390517	0.325218
	C3847	C	0.325476	0.452857	0.324854
	C3848	C	0.262922	0.390503	0.173504
	C3849	C	0.325423	0.453107	0.173074
	C3850	C	0.299537	0.422042	0.325484
	C3851	C	0.362084	0.484256	0.325545
	C3852	C	0.273881	0.523402	0.499358
	C3853	C	0.327189	0.402849	-0.000953
	C3854	C	0.297835	0.472398	0.498813
	C3855	C	0.351089	0.351626	-0.000418
	C3856	C	0.295388	0.418184	0.249480
	C3857	C	0.357938	0.480443	0.249460
	C3858	C	0.267078	0.394432	0.249413
	C3859	C	0.329598	0.456855	0.249066
	C3860	C	0.279972	0.510552	0.499370
	C3861	C	0.333203	0.389807	-0.001093
	C3862	C	0.291818	0.485382	0.499093
	C3863	C	0.344971	0.364481	-0.000554
	C3864	C	0.288249	0.412039	0.249318
	C3865	C	0.350775	0.474370	0.249280
	C3866	C	0.274253	0.400491	0.249252
	C3867	C	0.336773	0.462904	0.248941
	C3868	C	0.283056	0.504070	0.461387
	C3869	C	0.336132	0.383039	0.513806
	C3870	C	0.288604	0.491498	0.049707
	C3871	C	0.342015	0.371075	0.034734
	C3872	C	0.288817	0.491839	0.461154
	C3873	C	0.341878	0.370767	0.513830
	C3874	C	0.282863	0.503739	0.049816
	C3875	C	0.336296	0.383404	0.034532
	C3876	C	0.284904	0.408205	0.240349
	C3877	C	0.347244	0.471333	0.231852
	C3878	C	0.277601	0.404324	0.258294
	C3879	C	0.340292	0.465948	0.266449
	C3880	C	0.278058	0.402503	0.240246
	C3881	C	0.340393	0.465729	0.231649
	C3882	C	0.284455	0.409975	0.258234
	C3883	C	0.347146	0.471559	0.266627
	N3884	N	0.264821	0.541995	0.451840
	N3885	N	0.318531	0.422189	0.451901
	N3886	N	0.306429	0.452834	0.046530
	N3887	N	0.360135	0.332968	0.047526
	N3888	N	0.306519	0.452979	0.451520
	N3889	N	0.360220	0.332921	0.452283
	N3890	N	0.264825	0.542158	0.047293
	N3891	N	0.318518	0.422165	0.046794
	N3892	N	0.305714	0.427819	0.202241
	N3893	N	0.368180	0.490319	0.202617
	N3894	N	0.256786	0.384710	0.296386
	N3895	N	0.319325	0.447119	0.296173
	N3896	N	0.256784	0.384699	0.202334
	N3897	N	0.319279	0.447287	0.202073
	N3898	N	0.305682	0.427885	0.296577
	N3899	N	0.368162	0.490288	0.296869
	H3900	H	0.271228	0.529068	0.848953
	H3901	H	0.324645	0.408636	0.849296
	H3902	H	0.300471	0.466690	0.648076
	H3903	H	0.353780	0.345900	0.650439
	H3904	H	0.300397	0.466678	0.850008
	H3905	H	0.353901	0.346352	0.848904
	H3906	H	0.271102	0.528845	0.650170
	H3907	H	0.324669	0.408450	0.648818
	H3908	H	0.298366	0.421151	0.601942
	H3909	H	0.360817	0.483735	0.602806
	H3910	H	0.264231	0.391283	0.897896
	H3911	H	0.326604	0.454043	0.897295
	H3912	H	0.264034	0.391992	0.602013
	H3913	H	0.326657	0.454097	0.602372
	H3914	H	0.298491	0.420739	0.897571
	H3915	H	0.360969	0.483388	0.897663
	H3916	H	0.281217	0.509764	0.909010
	H3917	H	0.333873	0.387806	0.936006
	H3918	H	0.290994	0.487360	0.566781
	H3919	H	0.344266	0.366333	0.475284
	H3920	H	0.291399	0.488098	0.908124
	H3921	H	0.343965	0.366036	0.936561
	H3922	H	0.280787	0.508920	0.566754
	H3923	H	0.334108	0.387979	0.473943
	H3924	H	0.286859	0.413305	0.713840
	H3925	H	0.349551	0.475210	0.737709
	H3926	H	0.275566	0.399700	0.786950
	H3927	H	0.337995	0.462216	0.762482
	H3928	H	0.274683	0.403328	0.715149
	H3929	H	0.337425	0.465165	0.737850
	H3930	H	0.287734	0.409761	0.785725
	H3931	H	0.350156	0.472316	0.762438
	Co3932	Co	0.375018	0.500125	0.624553
	Co3933	Co	0.312531	0.437570	0.623826
	Co3934	Co	0.250006	0.374877	0.874765
	Co3935	Co	0.312513	0.437592	0.875041
	C3936	C	0.270270	0.531096	0.922659
	C3937	C	0.323675	0.410699	0.922492
	C3938	C	0.301396	0.464556	0.575362
	C3939	C	0.354749	0.343915	0.576624
	C3940	C	0.301321	0.464500	0.922745
	C3941	C	0.354834	0.344222	0.922585
	C3942	C	0.270172	0.530918	0.576445
	C3943	C	0.323707	0.410645	0.575653
	C3944	C	0.299567	0.422148	0.673884
	C3945	C	0.362049	0.484637	0.674416
	C3946	C	0.262990	0.390464	0.825924
	C3947	C	0.325457	0.453020	0.825391
	C3948	C	0.262901	0.390845	0.674058
	C3949	C	0.325497	0.453052	0.674078
	C3950	C	0.299633	0.421918	0.825296
	C3951	C	0.362136	0.484452	0.826075
	C3952	C	0.273932	0.523604	0.999700
	C3953	C	0.327187	0.402802	0.499099
	C3954	C	0.297832	0.472332	0.999045
	C3955	C	0.351085	0.351431	0.499627
	C3956	C	0.295429	0.418240	0.749585
	C3957	C	0.357955	0.480608	0.750203
	C3958	C	0.267052	0.394680	0.750409
	C3959	C	0.329646	0.456869	0.750068
	C3960	C	0.280042	0.510709	0.999444
	C3961	C	0.333179	0.389677	0.499263
	C3962	C	0.291839	0.485463	0.998891
	C3963	C	0.344983	0.364337	0.499658
	C3964	C	0.288243	0.412256	0.749459
	C3965	C	0.350789	0.474507	0.750386
	C3966	C	0.274213	0.400757	0.750817
	C3967	C	0.336816	0.462927	0.750515
	C3968	C	0.283304	0.504700	0.948461
	C3969	C	0.336129	0.383171	0.963660
	C3970	C	0.288783	0.491970	0.537060
	C3971	C	0.342002	0.370914	0.485471
	C3972	C	0.289031	0.492418	0.948157
	C3973	C	0.341851	0.370865	0.964076
	C3974	C	0.283018	0.504218	0.536942
	C3975	C	0.336262	0.383221	0.485274
	C3976	C	0.284421	0.410316	0.729478
	C3977	C	0.347054	0.472362	0.743480
	C3978	C	0.278047	0.402685	0.770989
	C3979	C	0.340542	0.465077	0.757430
	C3980	C	0.277551	0.404710	0.730348
	C3981	C	0.340214	0.466709	0.743329
	C3982	C	0.284901	0.408326	0.770190
	C3983	C	0.347392	0.470724	0.757454
	N3984	N	0.264852	0.542159	0.951689
	N3985	N	0.318500	0.422175	0.951671
	N3986	N	0.306570	0.453036	0.546609
	N3987	N	0.360190	0.332949	0.547603
	N3988	N	0.306457	0.452891	0.951614
	N3989	N	0.360224	0.333144	0.952004
	N3990	N	0.264809	0.542000	0.547249
	N3991	N	0.318553	0.422177	0.547082
	N3992	N	0.305757	0.427798	0.702370
	N3993	N	0.368204	0.490428	0.702886
	N3994	N	0.256864	0.384596	0.796877
	N3995	N	0.319297	0.447280	0.796324
	N3996	N	0.256803	0.384863	0.702607
	N3997	N	0.319301	0.447375	0.702332
	N3998	N	0.305796	0.427654	0.796711
	N3999	N	0.368253	0.490365	0.797238
	H4000	H	0.266483	0.612159	0.346843
	H4001	H	0.333794	0.591738	0.348402
	H4002	H	0.303847	0.629147	0.152247
	H4003	H	0.362762	0.528847	0.148930
	H4004	H	0.303739	0.629343	0.347886
	H4005	H	0.362882	0.528906	0.350176
	H4006	H	0.266580	0.611580	0.151653
	H4007	H	0.333560	0.590969	0.149488
	H4008	H	0.308506	0.594963	0.098484
	H4009	H	0.370914	0.657808	0.098774
	H4010	H	0.272054	0.572022	0.401125
	H4011	H	0.334369	0.635036	0.400350
	H4012	H	0.272090	0.571985	0.099397
	H4013	H	0.334695	0.633938	0.099322
	H4014	H	0.308193	0.595600	0.401799
	H4015	H	0.370913	0.657736	0.402011
	H4016	H	0.278944	0.616146	0.650023
	H4017	H	0.342739	0.570152	0.517528
	H4018	H	0.291567	0.623896	0.150124
	H4019	H	0.353707	0.550030	-0.062550
	H4020	H	0.291474	0.623876	0.650188
	H4021	H	0.352875	0.548367	0.517705
	H4022	H	0.279001	0.616260	0.150305
	H4023	H	0.343546	0.571697	-0.062471
	H4024	H	0.296750	0.586319	0.102351
	H4025	H	0.359487	0.647290	0.398142
	H4026	H	0.284475	0.577048	0.397454
	H4027	H	0.346713	0.641023	0.102746
	H4028	H	0.284106	0.578946	0.102471
	H4029	H	0.346837	0.640217	0.397965
	H4030	H	0.297123	0.584467	0.397158
	H4031	H	0.359383	0.648097	0.102292
	Co4032	Co	0.382825	0.681013	0.124892
	Co4033	Co	0.320334	0.618360	0.124503
	Co4034	Co	0.257845	0.556110	0.375124
	Co4035	Co	0.320328	0.618536	0.374996
	C4036	C	0.265159	0.612593	0.421707
	C4037	C	0.332750	0.593586	0.421787
	C4038	C	0.305194	0.628955	0.077533
	C4039	C	0.363740	0.526900	0.075771
	C4040	C	0.305172	0.629041	0.422743
	C4041	C	0.363834	0.526854	0.422831
	C4042	C	0.265217	0.612364	0.077368
	C4043	C	0.332651	0.593259	0.076134
	C4044	C	0.309364	0.596725	0.172770
	C4045	C	0.371804	0.659462	0.173144
	C4046	C	0.270844	0.571359	0.327093
	C4047	C	0.333260	0.634014	0.326618
	C4048	C	0.270842	0.571353	0.173304
	C4049	C	0.333388	0.633443	0.173159
	C4050	C	0.309263	0.596987	0.327203
	C4051	C	0.371815	0.659455	0.327496
	C4052	C	0.270048	0.612045	0.499209
	C4053	C	0.336384	0.585905	-0.000918
	C4054	C	0.300373	0.628300	0.500313
	C4055	C	0.360298	0.534834	-0.000822
	C4056	C	0.305329	0.592097	0.249926
	C4057	C	0.367848	0.654545	0.250348
	C4058	C	0.275337	0.574018	0.250209
	C4059	C	0.337844	0.636423	0.249874
	C4060	C	0.277897	0.615039	0.499853
	C4061	C	0.342497	0.573095	-0.000796
	C4062	C	0.292663	0.624311	0.500056
	C4063	C	0.354310	0.547881	-0.001320
	C4064	C	0.298008	0.586236	0.249856
	C4065	C	0.360541	0.648651	0.250252
	C4066	C	0.283072	0.577878	0.250136
	C4067	C	0.345581	0.640266	0.250183
	C4068	C	0.281647	0.617644	0.583454
	C4069	C	0.345183	0.565901	0.509324
	C4070	C	0.288891	0.622100	0.083507
	C4071	C	0.351386	0.554619	-0.035709
	C4072	C	0.288822	0.622088	0.583600
	C4073	C	0.350913	0.553585	0.509510
	C4074	C	0.281734	0.617636	0.083730
	C4075	C	0.345634	0.566864	-0.035335
	C4076	C	0.294114	0.584310	0.167753
	C4077	C	0.356752	0.646049	0.332525
	C4078	C	0.287086	0.579235	0.332210
	C4079	C	0.349459	0.642376	0.167978
	C4080	C	0.286883	0.580238	0.167878
	C4081	C	0.349517	0.641978	0.332559
	C4082	C	0.294309	0.583301	0.332028
	C4083	C	0.356700	0.646419	0.167934
	N4084	N	0.257909	0.613939	0.450229
	N4085	N	0.327307	0.604508	0.451427
	N4086	N	0.312412	0.629101	0.049148
	N4087	N	0.368918	0.515381	0.047205
	N4088	N	0.312367	0.629153	0.451010
	N4089	N	0.368989	0.515373	0.452039
	N4090	N	0.257971	0.613717	0.048541
	N4091	N	0.327280	0.604351	0.047128
	N4092	N	0.315031	0.604313	0.201988
	N4093	N	0.377501	0.666981	0.202092
	N4094	N	0.264176	0.567403	0.298470
	N4095	N	0.326643	0.629882	0.298005
	N4096	N	0.264164	0.567391	0.201710
	N4097	N	0.326723	0.629555	0.201325
	N4098	N	0.314991	0.604430	0.298154
	N4099	N	0.377495	0.667026	0.298469
	H4100	H	0.266550	0.612280	0.848073
	H4101	H	0.333757	0.591607	0.848567
	H4102	H	0.303754	0.629113	0.652077
	H4103	H	0.362776	0.529040	0.647897
	H4104	H	0.303854	0.629549	0.848067
	H4105	H	0.363047	0.529185	0.850182
	H4106	H	0.266458	0.611552	0.651118
	H4107	H	0.333504	0.590833	0.649054
	H4108	H	0.308425	0.595224	0.598611
	H4109	H	0.370908	0.657769	0.599079
	H4110	H	0.271944	0.572281	0.900583
	H4111	H	0.334390	0.634907	0.900599
	H4112	H	0.272117	0.571975	0.599575
	H4113	H	0.334765	0.633792	0.599689
	H4114	H	0.308272	0.595435	0.901397
	H4115	H	0.370881	0.657813	0.901686
	H4116	H	0.279207	0.615260	0.850118
	H4117	H	0.343172	0.570963	1.060649
	H4118	H	0.291738	0.622753	0.349718
	H4119	H	0.354030	0.550738	0.479006
	H4120	H	0.291733	0.622794	0.850011
	H4121	H	0.353348	0.549374	1.059864
	H4122	H	0.279209	0.615153	0.349523
	H4123	H	0.343894	0.572408	0.478961
	H4124	H	0.297056	0.584757	0.897710
	H4125	H	0.359465	0.647828	0.602873
	H4126	H	0.284137	0.578920	0.602587
	H4127	H	0.346792	0.640346	0.897919
	H4128	H	0.284330	0.577728	0.898022
	H4129	H	0.346753	0.640777	0.602986
	H4130	H	0.296847	0.585871	0.602866
	H4131	H	0.359428	0.647704	0.898376
	Co4132	Co	0.382829	0.681044	0.624900
	Co4133	Co	0.320343	0.618321	0.624423
	Co4134	Co	0.257828	0.556099	0.874570
	Co4135	Co	0.320305	0.618508	0.875131
	C4136	C	0.265218	0.612582	0.922365
	C4137	C	0.332737	0.593565	0.922185
	C4138	C	0.305187	0.628933	0.577886
	C4139	C	0.363789	0.526933	0.575292
	C4140	C	0.305194	0.629178	0.922498
	C4141	C	0.363882	0.527048	0.923160
	C4142	C	0.265144	0.612272	0.576472
	C4143	C	0.332616	0.593135	0.575760
	C4144	C	0.309338	0.596782	0.673077
	C4145	C	0.371833	0.659391	0.673458
	C4146	C	0.270780	0.571473	0.826774
	C4147	C	0.333291	0.633882	0.826769
	C4148	C	0.270842	0.571347	0.673060
	C4149	C	0.333451	0.633323	0.672942
	C4150	C	0.309291	0.596926	0.827557
	C4151	C	0.371813	0.659507	0.827902
	C4152	C	0.270087	0.612192	1.000082
	C4153	C	0.336367	0.585915	0.498594
	C4154	C	0.300415	0.628399	1.000110
	C4155	C	0.360301	0.534731	0.498856
	C4156	C	0.305350	0.591977	0.750405
	C4157	C	0.367838	0.654576	0.750778
	C4158	C	0.275313	0.574126	0.750018
	C4159	C	0.337897	0.636287	0.750071
	C4160	C	0.277952	0.615181	1.000206
	C4161	C	0.342448	0.573026	0.498404
	C4162	C	0.292716	0.624422	0.999963
	C4163	C	0.354262	0.547731	0.498474
	C4164	C	0.298031	0.586121	0.750332
	C4165	C	0.360532	0.648684	0.750686
	C4166	C	0.283061	0.577939	0.750206
	C4167	C	0.345616	0.640232	0.750449
	C4168	C	0.281832	0.617161	0.916712
	C4169	C	0.345457	0.566433	1.033417
	C4170	C	0.288986	0.621439	0.416477
	C4171	C	0.351555	0.554895	0.487508
	C4172	C	0.288985	0.621590	0.916483
	C4173	C	0.351207	0.554175	1.033179
	C4174	C	0.281809	0.617039	0.416490
	C4175	C	0.345834	0.567192	0.487620
	C4176	C	0.294258	0.583549	0.832580
	C4177	C	0.356740	0.646333	0.668348
	C4178	C	0.286913	0.580161	0.668044
	C4179	C	0.349505	0.642129	0.832908
	C4180	C	0.287016	0.579530	0.832568
	C4181	C	0.349505	0.642237	0.668078
	C4182	C	0.294158	0.584122	0.668149
	C4183	C	0.356744	0.646183	0.832933
	N4184	N	0.257983	0.613838	0.950813
	N4185	N	0.327331	0.604518	0.951592
	N4186	N	0.312378	0.629059	0.549245
	N4187	N	0.368971	0.515424	0.546815
	N4188	N	0.312421	0.629208	0.951021
	N4189	N	0.368996	0.515472	0.952410
	N4190	N	0.257885	0.613789	0.547842
	N4191	N	0.327238	0.604255	0.547003
	N4192	N	0.314992	0.604384	0.702141
	N4193	N	0.377491	0.666978	0.702230
	N4194	N	0.264152	0.567406	0.797988
	N4195	N	0.326666	0.629747	0.797835
	N4196	N	0.264188	0.567304	0.701246
	N4197	N	0.326765	0.629419	0.701435
	N4198	N	0.314979	0.604485	0.798190
	N4199	N	0.377509	0.667006	0.798615
	H4200	H	0.258779	0.683110	0.347827
	H4201	H	0.328955	0.674643	0.347869
	H4202	H	0.295936	0.700483	0.150584
	H4203	H	0.366311	0.691811	0.152489
	H4204	H	0.296002	0.701088	0.347779
	H4205	H	0.366354	0.691936	0.347875
	H4206	H	0.258759	0.682745	0.151606
	H4207	H	0.329006	0.674614	0.151916
	H4208	H	0.299955	0.666379	0.097903
	H4209	H	0.362349	0.728962	0.098705
	H4210	H	0.262695	0.646109	0.401124
	H4211	H	0.325247	0.708300	0.400955
	H4212	H	0.262827	0.645781	0.097438
	H4213	H	0.325171	0.708596	0.097786
	H4214	H	0.299710	0.666946	0.401083
	H4215	H	0.362233	0.729307	0.402472
	H4216	H	0.270778	0.689726	0.650049
	H4217	H	0.341602	0.678053	0.349827
	H4218	H	0.283371	0.697392	0.148923
	H4219	H	0.354121	0.685948	0.150412
	H4220	H	0.283319	0.697497	0.649566
	H4221	H	0.354157	0.685427	0.349884
	H4222	H	0.270844	0.689695	0.149290
	H4223	H	0.341583	0.678330	0.149986
	H4224	H	0.287830	0.658799	0.399745
	H4225	H	0.350218	0.721685	0.099410
	H4226	H	0.274751	0.653752	0.099268
	H4227	H	0.337307	0.715609	0.399773
	H4228	H	0.274975	0.652480	0.399879
	H4229	H	0.337373	0.715749	0.099425
	H4230	H	0.287552	0.660015	0.098964
	H4231	H	0.350143	0.721835	0.399812
	Co4232	Co	0.375018	0.749963	0.124422
	Co4233	Co	0.312515	0.687537	0.123674
	Co4234	Co	0.249971	0.625187	0.375286
	Co4235	Co	0.312434	0.687735	0.375692
	C4236	C	0.257346	0.683348	0.422210
	C4237	C	0.327609	0.675091	0.422350
	C4238	C	0.297337	0.699966	0.076502
	C4239	C	0.367701	0.691676	0.077986
	C4240	C	0.297296	0.700332	0.422373
	C4241	C	0.367690	0.691583	0.422898
	C4242	C	0.257378	0.683124	0.076797
	C4243	C	0.327687	0.675095	0.077304
	C4244	C	0.300933	0.667831	0.172401
	C4245	C	0.363366	0.730383	0.173284
	C4246	C	0.261649	0.644772	0.326593
	C4247	C	0.324166	0.707120	0.326911
	C4248	C	0.261740	0.644529	0.171856
	C4249	C	0.324141	0.707180	0.172257
	C4250	C	0.300805	0.668156	0.326706
	C4251	C	0.363316	0.730536	0.327848
	C4252	C	0.262109	0.684081	0.500231
	C4253	C	0.332536	0.674747	0.000024
	C4254	C	0.292430	0.700511	0.499999
	C4255	C	0.362946	0.690941	0.000499
	C4256	C	0.296569	0.664200	0.249500
	C4257	C	0.359033	0.726688	0.250540
	C4258	C	0.266013	0.648336	0.249524
	C4259	C	0.328460	0.710899	0.249488
	C4260	C	0.269809	0.688147	0.500315
	C4261	C	0.340419	0.677737	0.000119
	C4262	C	0.284570	0.697495	0.499987
	C4263	C	0.355203	0.686950	0.000318
	C4264	C	0.288911	0.659793	0.249411
	C4265	C	0.351392	0.722264	0.249909
	C4266	C	0.273685	0.652691	0.249728
	C4267	C	0.336122	0.715272	0.249665
	C4268	C	0.273518	0.691062	0.583453
	C4269	C	0.344273	0.679658	0.416507
	C4270	C	0.280732	0.695491	0.082404
	C4271	C	0.351396	0.684432	0.083653
	C4272	C	0.280677	0.695542	0.583193
	C4273	C	0.351451	0.683985	0.416664
	C4274	C	0.273568	0.691019	0.082526
	C4275	C	0.344245	0.680018	0.083512
	C4276	C	0.285049	0.657630	0.333008
	C4277	C	0.347477	0.720477	0.166316
	C4278	C	0.277535	0.654901	0.166063
	C4279	C	0.340057	0.717024	0.333099
	C4280	C	0.277686	0.654163	0.333194
	C4281	C	0.340094	0.717101	0.166316
	C4282	C	0.284884	0.658364	0.165949
	C4283	C	0.347423	0.720450	0.332975
	N4284	N	0.250129	0.683209	0.450565
	N4285	N	0.320357	0.676438	0.450902
	N4286	N	0.304594	0.698674	0.048098
	N4287	N	0.374928	0.691823	0.049458
	N4288	N	0.304560	0.699038	0.451148
	N4289	N	0.374895	0.691833	0.451382
	N4290	N	0.250166	0.683077	0.048108
	N4291	N	0.320436	0.676344	0.048639
	N4292	N	0.307066	0.673985	0.201255
	N4293	N	0.369531	0.736433	0.202160
	N4294	N	0.255451	0.638745	0.297455
	N4295	N	0.317988	0.701090	0.298202
	N4296	N	0.255498	0.638629	0.200630
	N4297	N	0.317956	0.701130	0.201195
	N4298	N	0.306993	0.674159	0.298416
	N4299	N	0.369492	0.736572	0.299288
	H4300	H	0.258786	0.683258	0.846932
	H4301	H	0.328993	0.674349	0.847972
	H4302	H	0.295979	0.700498	0.652147
	H4303	H	0.366277	0.691833	0.652256
	H4304	H	0.296061	0.700800	0.846958
	H4305	H	0.366348	0.691872	0.848321
	H4306	H	0.258731	0.683060	0.652036
	H4307	H	0.328990	0.674326	0.651572
	H4308	H	0.299838	0.666471	0.597269
	H4309	H	0.362221	0.729362	0.597783
	H4310	H	0.262755	0.645840	0.901229
	H4311	H	0.325278	0.708460	0.901682
	H4312	H	0.262726	0.645824	0.597992
	H4313	H	0.325259	0.708524	0.598066
	H4314	H	0.299714	0.666722	0.900896
	H4315	H	0.362323	0.729174	0.901530
	H4316	H	0.271037	0.688509	0.849214
	H4317	H	0.341639	0.678171	0.850103
	H4318	H	0.283484	0.696171	0.349941
	H4319	H	0.354090	0.685916	0.650002
	H4320	H	0.283547	0.696133	0.848783
	H4321	H	0.354167	0.685680	0.849831
	H4322	H	0.270993	0.688571	0.349970
	H4323	H	0.341499	0.678499	0.649750
	H4324	H	0.287600	0.659634	0.598659
	H4325	H	0.350081	0.722155	0.599858
	H4326	H	0.274889	0.652792	0.899064
	H4327	H	0.337367	0.715293	0.899598
	H4328	H	0.274780	0.653447	0.598835
	H4329	H	0.337227	0.715993	0.599641
	H4330	H	0.287662	0.659200	0.899039
	H4331	H	0.350200	0.721527	0.900142
	Co4332	Co	0.374947	0.750282	0.624127
	Co4333	Co	0.312485	0.687568	0.623962
	Co4334	Co	0.250045	0.625034	0.875379
	Co4335	Co	0.312495	0.687519	0.875753
	C4336	C	0.257388	0.683389	0.921543
	C4337	C	0.327701	0.674978	0.922468
	C4338	C	0.297304	0.700090	0.577369
	C4339	C	0.367665	0.691486	0.577697
	C4340	C	0.297381	0.700107	0.921575
	C4341	C	0.367695	0.691605	0.922756
	C4342	C	0.257307	0.683424	0.577651
	C4343	C	0.327629	0.674908	0.577036
	C4344	C	0.300883	0.667886	0.671813
	C4345	C	0.363301	0.730618	0.672300
	C4346	C	0.261682	0.644571	0.826824
	C4347	C	0.324165	0.707103	0.827046
	C4348	C	0.261641	0.644629	0.672392
	C4349	C	0.324158	0.707145	0.672280
	C4350	C	0.300822	0.668031	0.826334
	C4351	C	0.363355	0.730470	0.826957
	C4352	C	0.262181	0.683945	0.999230
	C4353	C	0.332496	0.674683	0.499652
	C4354	C	0.292481	0.700371	0.998932
	C4355	C	0.362904	0.690738	0.500199
	C4356	C	0.296540	0.664165	0.749058
	C4357	C	0.359001	0.726806	0.749673
	C4358	C	0.265977	0.648268	0.749483
	C4359	C	0.328436	0.710924	0.749827
	C4360	C	0.269864	0.688034	0.999297
	C4361	C	0.340394	0.677600	0.499743
	C4362	C	0.284621	0.697400	0.998798
	C4363	C	0.355204	0.686679	0.499996
	C4364	C	0.288881	0.659789	0.748994
	C4365	C	0.351344	0.722400	0.749920
	C4366	C	0.273620	0.652660	0.749175
	C4367	C	0.336110	0.715298	0.749828
	C4368	C	0.273687	0.690270	0.915835
	C4369	C	0.344292	0.679883	0.916726
	C4370	C	0.280777	0.694832	0.416717
	C4371	C	0.351385	0.684335	0.583381
	C4372	C	0.280857	0.694710	0.915469
	C4373	C	0.351444	0.684256	0.916541
	C4374	C	0.273621	0.690406	0.416786
	C4375	C	0.344215	0.679993	0.583277
	C4376	C	0.284922	0.658045	0.665786
	C4377	C	0.347371	0.720718	0.666651
	C4378	C	0.277601	0.654338	0.832353
	C4379	C	0.340103	0.716873	0.833139
	C4380	C	0.277549	0.654654	0.665613
	C4381	C	0.340012	0.717265	0.666187
	C4382	C	0.284954	0.657862	0.832185
	C4383	C	0.347454	0.720403	0.833268
	N4384	N	0.250183	0.683209	0.949928
	N4385	N	0.320428	0.676295	0.951157
	N4386	N	0.304553	0.698856	0.548770
	N4387	N	0.374890	0.691756	0.549655
	N4388	N	0.304614	0.698771	0.950601
	N4389	N	0.374928	0.691767	0.951283
	N4390	N	0.250112	0.683261	0.548623
	N4391	N	0.320371	0.676287	0.548512
	N4392	N	0.307039	0.673979	0.700868
	N4393	N	0.369504	0.736572	0.701140
	N4394	N	0.255465	0.638644	0.798315
	N4395	N	0.317994	0.700991	0.798033
	N4396	N	0.255424	0.638690	0.701197
	N4397	N	0.317981	0.701048	0.701365
	N4398	N	0.307005	0.674052	0.797809
	N4399	N	0.369504	0.736561	0.798207
	H4400	H	0.262052	0.845758	0.351142
	H4401	H	0.321309	0.745595	0.347537
	H4402	H	0.291376	0.783825	0.149680
	H4403	H	0.358487	0.762985	0.150901
	H4404	H	0.291333	0.783639	0.348985
	H4405	H	0.358478	0.763198	0.347950
	H4406	H	0.262141	0.845892	0.149042
	H4407	H	0.321226	0.745870	0.151048
	H4408	H	0.290554	0.740533	0.098171
	H4409	H	0.353013	0.802961	0.099377
	H4410	H	0.254253	0.717272	0.400707
	H4411	H	0.316804	0.779468	0.401698
	H4412	H	0.254310	0.716858	0.097736
	H4413	H	0.316723	0.779894	0.098491
	H4414	H	0.290490	0.740684	0.400393
	H4415	H	0.353098	0.803042	0.400500
	H4416	H	0.271941	0.826158	0.541405
	H4417	H	0.333492	0.751427	0.349806
	H4418	H	0.281262	0.802935	0.091567
	H4419	H	0.345984	0.759267	0.149138
	H4420	H	0.282150	0.804606	0.540649
	H4421	H	0.345996	0.759050	0.350070
	H4422	H	0.271097	0.824478	0.091532
	H4423	H	0.333357	0.751913	0.149376
	H4424	H	0.278525	0.733489	0.397003
	H4425	H	0.340896	0.796788	0.397741
	H4426	H	0.265513	0.727973	0.101380
	H4427	H	0.328223	0.789539	0.102912
	H4428	H	0.265911	0.726127	0.397041
	H4429	H	0.328198	0.789617	0.397766
	H4430	H	0.278176	0.735310	0.101401
	H4431	H	0.340874	0.796781	0.102850
	Co4432	Co	0.367206	0.818994	0.123822
	Co4433	Co	0.304747	0.756748	0.124434
	Co4434	Co	0.242248	0.694042	0.374631
	Co4435	Co	0.304748	0.756585	0.374807
	C4436	C	0.261099	0.847866	0.424323
	C4437	C	0.319885	0.745912	0.422244
	C4438	C	0.292320	0.781674	0.076508
	C4439	C	0.359855	0.762467	0.077208
	C4440	C	0.292330	0.781593	0.422571
	C4441	C	0.359809	0.762685	0.422349
	C4442	C	0.261158	0.848041	0.076295
	C4443	C	0.319822	0.746047	0.076858
	C4444	C	0.291754	0.741428	0.172279
	C4445	C	0.354268	0.803648	0.172768
	C4446	C	0.253305	0.715540	0.326383
	C4447	C	0.315816	0.778061	0.327427
	C4448	C	0.253370	0.715287	0.172135
	C4449	C	0.315767	0.778287	0.172833
	C4450	C	0.291696	0.741475	0.326605
	C4451	C	0.354311	0.803670	0.326864
	C4452	C	0.264602	0.840062	0.501003
	C4453	C	0.324617	0.746775	-0.000673
	C4454	C	0.288665	0.789150	0.499613
	C4455	C	0.355001	0.762808	-0.000373
	C4456	C	0.287216	0.738776	0.249038
	C4457	C	0.349798	0.800912	0.250051
	C4458	C	0.257320	0.720222	0.249223
	C4459	C	0.319789	0.782912	0.250286
	C4460	C	0.270653	0.827079	0.500664
	C4461	C	0.332316	0.750786	-0.000844
	C4462	C	0.282531	0.801976	0.499858
	C4463	C	0.347127	0.759863	-0.000626
	C4464	C	0.279509	0.734760	0.248960
	C4465	C	0.342072	0.797091	0.250259
	C4466	C	0.264630	0.726119	0.249102
	C4467	C	0.327115	0.788757	0.250301
	C4468	C	0.273940	0.821083	0.523094
	C4469	C	0.336129	0.753091	0.416617
	C4470	C	0.279234	0.807959	0.051300
	C4471	C	0.343271	0.757704	0.082700
	C4472	C	0.279715	0.808876	0.522829
	C4473	C	0.343282	0.757551	0.416664
	C4474	C	0.273463	0.820178	0.051205
	C4475	C	0.336094	0.753314	0.082569
	C4476	C	0.275741	0.732253	0.331417
	C4477	C	0.338170	0.795228	0.332523
	C4478	C	0.268340	0.729050	0.166696
	C4479	C	0.330933	0.791141	0.168036
	C4480	C	0.268539	0.728063	0.331514
	C4481	C	0.330934	0.791144	0.332483
	C4482	C	0.275541	0.733263	0.166683
	C4483	C	0.338170	0.795183	0.168142
	N4484	N	0.255938	0.859435	0.453167
	N4485	N	0.312673	0.745850	0.450527
	N4486	N	0.297738	0.770675	0.047471
	N4487	N	0.367119	0.761189	0.048798
	N4488	N	0.297705	0.770535	0.451688
	N4489	N	0.367076	0.761417	0.450911
	N4490	N	0.255971	0.859532	0.047719
	N4491	N	0.312623	0.745921	0.048726
	N4492	N	0.298396	0.745478	0.201368
	N4493	N	0.360920	0.807713	0.201171
	N4494	N	0.247600	0.707992	0.297335
	N4495	N	0.310095	0.770648	0.298039
	N4496	N	0.247643	0.707868	0.200824
	N4497	N	0.310037	0.770841	0.201600
	N4498	N	0.298349	0.745484	0.298003
	N4499	N	0.360936	0.807740	0.297795
	H4500	H	0.261993	0.845748	0.849994
	H4501	H	0.321167	0.745754	0.847503
	H4502	H	0.291320	0.783587	0.649968
	H4503	H	0.358471	0.763378	0.652140
	H4504	H	0.291340	0.783685	0.849311
	H4505	H	0.358546	0.763228	0.847801
	H4506	H	0.262069	0.846013	0.650763
	H4507	H	0.321294	0.745575	0.651946
	H4508	H	0.290458	0.740440	0.599002
	H4509	H	0.352958	0.802840	0.598508
	H4510	H	0.254122	0.717236	0.901873
	H4511	H	0.316633	0.779728	0.901312
	H4512	H	0.254178	0.717139	0.598571
	H4513	H	0.316656	0.779715	0.598434
	H4514	H	0.290483	0.740418	0.900181
	H4515	H	0.352998	0.802908	0.900194
	H4516	H	0.271849	0.826131	0.907941
	H4517	H	0.333422	0.751642	0.848741
	H4518	H	0.281241	0.802911	0.459043
	H4519	H	0.345928	0.759636	0.649799
	H4520	H	0.282042	0.804564	0.906860
	H4521	H	0.346020	0.759150	0.849179
	H4522	H	0.271079	0.824507	0.459525
	H4523	H	0.333361	0.751756	0.650156
	H4524	H	0.278127	0.734898	0.601815
	H4525	H	0.340695	0.797028	0.601714
	H4526	H	0.265724	0.726741	0.898224
	H4527	H	0.328096	0.789601	0.898297
	H4528	H	0.265485	0.727645	0.602181
	H4529	H	0.328001	0.789983	0.602265
	H4530	H	0.278415	0.733816	0.897611
	H4531	H	0.340787	0.796726	0.898246
	Co4532	Co	0.367085	0.819104	0.623911
	Co4533	Co	0.304665	0.756576	0.624128
	Co4534	Co	0.242225	0.693842	0.874335
	Co4535	Co	0.304667	0.756577	0.874740
	C4536	C	0.261067	0.847973	0.923504
	C4537	C	0.319807	0.746058	0.921725
	C4538	C	0.292298	0.781541	0.576471
	C4539	C	0.359824	0.762761	0.577213
	C4540	C	0.292324	0.781601	0.922827
	C4541	C	0.359891	0.762567	0.922251
	C4542	C	0.261106	0.847958	0.577583
	C4543	C	0.319855	0.745900	0.577423
	C4544	C	0.291693	0.741263	0.672416
	C4545	C	0.354190	0.803604	0.672407
	C4546	C	0.253184	0.715596	0.827606
	C4547	C	0.315692	0.778163	0.826979
	C4548	C	0.253230	0.715511	0.673095
	C4549	C	0.315706	0.778180	0.672490
	C4550	C	0.291698	0.741231	0.826548
	C4551	C	0.354220	0.803658	0.826300
	C4552	C	0.264634	0.840141	0.999684
	C4553	C	0.324666	0.746552	0.500149
	C4554	C	0.288610	0.789158	0.999695
	C4555	C	0.354937	0.763042	0.500076
	C4556	C	0.287172	0.738523	0.749401
	C4557	C	0.349694	0.800922	0.749511
	C4558	C	0.257197	0.720402	0.750422
	C4559	C	0.319678	0.783046	0.749902
	C4560	C	0.270639	0.827097	0.999596
	C4561	C	0.332350	0.750627	0.500276
	C4562	C	0.282497	0.801981	0.999482
	C4563	C	0.347071	0.760024	0.500223
	C4564	C	0.279444	0.734661	0.749602
	C4565	C	0.341957	0.797119	0.749953
	C4566	C	0.264507	0.726255	0.750265
	C4567	C	0.326994	0.788900	0.750156
	C4568	C	0.273890	0.821048	0.947948
	C4569	C	0.336106	0.753227	0.915580
	C4570	C	0.279251	0.807943	0.476906
	C4571	C	0.343227	0.757858	0.583604
	C4572	C	0.279675	0.808840	0.947739
	C4573	C	0.343307	0.757525	0.915619
	C4574	C	0.273470	0.820126	0.477467
	C4575	C	0.336077	0.753312	0.583642
	C4576	C	0.275482	0.733073	0.667506
	C4577	C	0.338007	0.795407	0.667537
	C4578	C	0.268397	0.728384	0.832405
	C4579	C	0.330826	0.791130	0.832725
	C4580	C	0.268251	0.728965	0.667825
	C4581	C	0.330770	0.791372	0.667591
	C4582	C	0.275623	0.732497	0.832152
	C4583	C	0.338081	0.795144	0.832652
	N4584	N	0.255909	0.859455	0.952614
	N4585	N	0.312605	0.745902	0.950455
	N4586	N	0.297697	0.770520	0.547003
	N4587	N	0.367066	0.761475	0.548382
	N4588	N	0.297736	0.770620	0.951942
	N4589	N	0.367156	0.761251	0.951279
	N4590	N	0.255936	0.859485	0.548237
	N4591	N	0.312653	0.745866	0.548692
	N4592	N	0.298329	0.745298	0.701194
	N4593	N	0.360826	0.807700	0.700833
	N4594	N	0.247500	0.708081	0.798228
	N4595	N	0.310023	0.770604	0.797515
	N4596	N	0.247543	0.708018	0.701610
	N4597	N	0.310043	0.770582	0.701526
	N4598	N	0.298353	0.745255	0.797607
	N4599	N	0.360844	0.807704	0.797674
	H4600	H	0.271159	1.028816	0.349890
	H4601	H	0.324759	0.908870	0.350136
	H4602	H	0.300173	0.966251	0.149103
	H4603	H	0.353690	0.845805	0.149920
	H4604	H	0.300298	0.966896	0.350882
	H4605	H	0.353881	0.846449	0.349180
	H4606	H	0.270910	1.028648	0.150874
	H4607	H	0.324517	0.908237	0.148831
	H4608	H	0.298516	0.920401	0.102379
	H4609	H	0.360931	0.983298	0.100763
	H4610	H	0.264104	0.891355	0.399253
	H4611	H	0.326445	0.954607	0.397230
	H4612	H	0.264061	0.891507	0.102156
	H4613	H	0.326593	0.953884	0.101165
	H4614	H	0.298197	0.921383	0.398804
	H4615	H	0.360791	0.983561	0.397315
	H4616	H	0.280595	1.008740	0.567314
	H4617	H	0.333989	0.888097	0.535708
	H4618	H	0.290877	0.987188	-0.074164
	H4619	H	0.344904	0.867532	0.106794
	H4620	H	0.290777	0.987115	0.567532
	H4621	H	0.344056	0.866344	0.536166
	H4622	H	0.280718	1.008893	-0.073412
	H4623	H	0.334735	0.889138	0.106758
	H4624	H	0.287124	0.912113	0.174678
	H4625	H	0.349766	0.973752	0.236695
	H4626	H	0.275305	0.900525	0.324565
	H4627	H	0.337605	0.964101	0.261311
	H4628	H	0.274975	0.901983	0.174319
	H4629	H	0.337598	0.963844	0.237234
	H4630	H	0.287476	0.910557	0.325496
	H4631	H	0.349787	0.974054	0.260708
	Co4632	Co	0.375006	1.000082	0.123897
	Co4633	Co	0.312416	0.937414	0.124276
	Co4634	Co	0.249962	0.874885	0.376108
	Co4635	Co	0.312461	0.937595	0.375118
	C4636	C	0.270137	1.030881	0.423268
	C4637	C	0.323729	0.910823	0.423180
	C4638	C	0.301156	0.964259	0.076180
	C4639	C	0.354754	0.843885	0.076363
	C4640	C	0.301280	0.964570	0.423896
	C4641	C	0.354808	0.844216	0.422434
	C4642	C	0.270032	1.030832	0.077230
	C4643	C	0.323627	0.910451	0.075611
	C4644	C	0.299596	0.921780	0.174463
	C4645	C	0.362071	0.984477	0.173067
	C4646	C	0.262942	0.890365	0.326564
	C4647	C	0.325307	0.953379	0.325174
	C4648	C	0.262909	0.890504	0.174387
	C4649	C	0.325384	0.953005	0.173483
	C4650	C	0.299439	0.922221	0.326522
	C4651	C	0.362016	0.984584	0.325139
	C4652	C	0.273780	1.023317	0.500437
	C4653	C	0.327194	0.902750	-0.001089
	C4654	C	0.297761	0.972354	0.500674
	C4655	C	0.351156	0.851534	-0.001021
	C4656	C	0.295374	0.918139	0.250460
	C4657	C	0.357872	0.980675	0.249030
	C4658	C	0.267083	0.894390	0.250447
	C4659	C	0.329527	0.957141	0.249177
	C4660	C	0.279901	1.010498	0.500573
	C4661	C	0.333193	0.889680	-0.001391
	C4662	C	0.291751	0.985401	0.500961
	C4663	C	0.345038	0.864354	-0.001443
	C4664	C	0.288220	0.912071	0.250283
	C4665	C	0.350724	0.974583	0.248842
	C4666	C	0.274237	0.900516	0.249757
	C4667	C	0.336693	0.963189	0.249335
	C4668	C	0.282883	1.004042	0.538045
	C4669	C	0.336189	0.883323	0.519994
	C4670	C	0.288658	0.991884	-0.041377
	C4671	C	0.342379	0.871586	0.059254
	C4672	C	0.288651	0.991825	0.538272
	C4673	C	0.341924	0.871039	0.520186
	C4674	C	0.282931	1.004188	-0.041067
	C4675	C	0.336629	0.883857	0.059372
	C4676	C	0.284562	0.909518	0.207534
	C4677	C	0.347132	0.971616	0.242116
	C4678	C	0.277896	0.903037	0.292140
	C4679	C	0.340267	0.966197	0.256038
	C4680	C	0.277701	0.903894	0.207573
	C4681	C	0.340261	0.966016	0.242521
	C4682	C	0.284747	0.908673	0.292338
	C4683	C	0.347131	0.971822	0.255699
	N4684	N	0.264728	1.041925	0.452366
	N4685	N	0.318541	0.922310	0.451992
	N4686	N	0.306332	0.952795	0.047241
	N4687	N	0.360180	0.832920	0.047097
	N4688	N	0.306435	0.952982	0.452342
	N4689	N	0.360204	0.833162	0.451492
	N4690	N	0.264700	1.041986	0.047680
	N4691	N	0.318475	0.922009	0.047021
	N4692	N	0.305704	0.927702	0.203455
	N4693	N	0.368215	0.990263	0.201985
	N4694	N	0.256813	0.884539	0.297735
	N4695	N	0.319193	0.947458	0.296492
	N4696	N	0.256817	0.884564	0.203458
	N4697	N	0.319239	0.947224	0.202548
	N4698	N	0.305609	0.927943	0.297651
	N4699	N	0.368170	0.990356	0.296386
	H4700	H	0.271325	1.029376	0.849586
	H4701	H	0.324700	0.908792	0.849502
	H4702	H	0.300316	0.966528	0.650315
	H4703	H	0.353729	0.846070	0.649757
	H4704	H	0.300421	0.966777	0.850498
	H4705	H	0.354050	0.846320	0.848354
	H4706	H	0.271063	1.028885	0.650829
	H4707	H	0.324484	0.908438	0.648996
	H4708	H	0.298335	0.920928	0.601384
	H4709	H	0.360698	0.983922	0.601642
	H4710	H	0.264171	0.891114	0.897760
	H4711	H	0.326480	0.954647	0.897131
	H4712	H	0.263886	0.892146	0.601334
	H4713	H	0.326628	0.953833	0.601432
	H4714	H	0.298413	0.920642	0.897870
	H4715	H	0.360949	0.983166	0.896829
	H4716	H	0.280718	1.008667	1.073626
	H4717	H	0.333347	0.886543	0.890080
	H4718	H	0.291024	0.987265	0.434879
	H4719	H	0.344214	0.866323	0.463105
	H4720	H	0.290848	0.986888	1.073537
	H4721	H	0.343469	0.864868	0.889994
	H4722	H	0.280819	1.008814	0.434500
	H4723	H	0.334078	0.888001	0.462959
	H4724	H	0.286970	0.912698	0.664748
	H4725	H	0.349645	0.974548	0.752183
	H4726	H	0.275556	0.899330	0.833554
	H4727	H	0.337756	0.963373	0.745755
	H4728	H	0.274800	0.902620	0.663936
	H4729	H	0.337444	0.964621	0.752033
	H4730	H	0.287703	0.909401	0.834666
	H4731	H	0.349933	0.973376	0.745801
	Co4732	Co	0.374956	1.000004	0.624134
	Co4733	Co	0.312475	0.937521	0.624157
	Co4734	Co	0.249986	0.874930	0.875677
	Co4735	Co	0.312479	0.937582	0.875634
	C4736	C	0.270255	1.031206	0.923267
	C4737	C	0.323715	0.910711	0.922667
	C4738	C	0.301277	0.964426	0.576906
	C4739	C	0.354721	0.844054	0.576257
	C4740	C	0.301294	0.964543	0.923441
	C4741	C	0.354919	0.844157	0.922044
	C4742	C	0.270099	1.030893	0.577327
	C4743	C	0.323607	0.910609	0.576027
	C4744	C	0.299561	0.921914	0.673799
	C4745	C	0.361938	0.984794	0.673627
	C4746	C	0.262960	0.890249	0.825505
	C4747	C	0.325341	0.953366	0.825168
	C4748	C	0.262795	0.890805	0.673848
	C4749	C	0.325431	0.952947	0.673310
	C4750	C	0.299602	0.921787	0.825953
	C4751	C	0.362071	0.984399	0.824925
	C4752	C	0.273809	1.023445	1.000527
	C4753	C	0.327175	0.902848	0.499712
	C4754	C	0.297699	0.972243	0.999905
	C4755	C	0.351073	0.851647	0.499333
	C4756	C	0.295448	0.917877	0.749899
	C4757	C	0.357843	0.980758	0.749086
	C4758	C	0.267044	0.894379	0.749245
	C4759	C	0.329541	0.957075	0.748999
	C4760	C	0.279882	1.010551	1.000457
	C4761	C	0.333187	0.889818	0.499734
	C4762	C	0.291678	0.985291	1.000033
	C4763	C	0.344995	0.864545	0.499516
	C4764	C	0.288272	0.911802	0.749718
	C4765	C	0.350688	0.974687	0.748792
	C4766	C	0.274229	0.900343	0.749178
	C4767	C	0.336699	0.963190	0.748916
	C4768	C	0.282903	1.003958	1.041369
	C4769	C	0.335839	0.882412	0.937799
	C4770	C	0.288783	0.991916	0.463819
	C4771	C	0.341992	0.871003	0.478827
	C4772	C	0.288645	0.991675	1.041268
	C4773	C	0.341590	0.870136	0.937551
	C4774	C	0.283009	1.004095	0.463477
	C4775	C	0.336261	0.883305	0.479039
	C4776	C	0.284483	0.909777	0.701710
	C4777	C	0.347046	0.972113	0.750697
	C4778	C	0.278038	0.902295	0.796830
	C4779	C	0.340351	0.965750	0.746861
	C4780	C	0.277623	0.904140	0.701379
	C4781	C	0.340192	0.966477	0.750733
	C4782	C	0.284892	0.907967	0.797287
	C4783	C	0.347197	0.971441	0.746797
	N4784	N	0.264808	1.042190	0.952147
	N4785	N	0.318529	0.922155	0.952041
	N4786	N	0.306433	0.952892	0.547717
	N4787	N	0.360147	0.833090	0.546982
	N4788	N	0.306411	0.952931	0.952403
	N4789	N	0.360273	0.833063	0.951584
	N4790	N	0.264717	1.041945	0.547855
	N4791	N	0.318462	0.922160	0.547135
	N4792	N	0.305700	0.927753	0.702663
	N4793	N	0.368137	0.990431	0.702561
	N4794	N	0.256785	0.884533	0.797001
	N4795	N	0.319209	0.947455	0.796797
	N4796	N	0.256670	0.884890	0.702953
	N4797	N	0.319255	0.947222	0.702471
	N4798	N	0.305719	0.927690	0.797295
	N4799	N	0.368223	0.990166	0.796478
	H4800	H	0.396200	0.153905	0.349865
	H4801	H	0.449505	0.033294	0.350851
	H4802	H	0.425314	0.091478	0.148475
	H4803	H	0.478837	-0.028976	0.149824
	H4804	H	0.425208	0.091151	0.350248
	H4805	H	0.478792	-0.029081	0.347868
	H4806	H	0.395970	0.153449	0.149801
	H4807	H	0.449721	0.033604	0.148478
	H4808	H	0.423444	0.046083	0.101469
	H4809	H	0.485983	0.107982	0.102690
	H4810	H	0.389167	0.016268	0.397868
	H4811	H	0.451496	0.079168	0.399498
	H4812	H	0.388948	0.017134	0.101277
	H4813	H	0.451695	0.078979	0.104193
	H4814	H	0.423466	0.045527	0.396694
	H4815	H	0.485874	0.108705	0.398025
	H4816	H	0.406040	0.133987	0.509346
	H4817	H	0.459015	0.012842	0.519047
	H4818	H	0.415733	0.111760	-0.082669
	H4819	H	0.469280	-0.008553	0.047648
	H4820	H	0.416236	0.112446	0.507489
	H4821	H	0.469116	-0.008921	0.517756
	H4822	H	0.405602	0.133367	-0.082040
	H4823	H	0.459118	0.012976	0.047835
	H4824	H	0.412333	0.036113	0.289671
	H4825	H	0.474302	0.100552	0.280655
	H4826	H	0.400254	0.025962	0.208636
	H4827	H	0.463190	0.086865	0.222666
	H4828	H	0.400188	0.026131	0.289660
	H4829	H	0.462175	0.090518	0.282032
	H4830	H	0.412444	0.035895	0.208086
	H4831	H	0.475297	0.096971	0.222521
	Co4832	Co	0.499994	0.124969	0.123984
	Co4833	Co	0.437556	0.062506	0.124124
	Co4834	Co	0.374970	-0.000035	0.375161
	Co4835	Co	0.437472	0.062375	0.375542
	C4836	C	0.395192	0.155890	0.423297
	C4837	C	0.448635	0.035509	0.423955
	C4838	C	0.426299	0.089376	0.075648
	C4839	C	0.479817	-0.030944	0.076198
	C4840	C	0.426256	0.089230	0.422976
	C4841	C	0.479794	-0.030975	0.422133
	C4842	C	0.395102	0.155624	0.076706
	C4843	C	0.448734	0.035630	0.075725
	C4844	C	0.424621	0.046929	0.173389
	C4845	C	0.487108	0.109298	0.174383
	C4846	C	0.387971	0.015346	0.325284
	C4847	C	0.450385	0.078024	0.327214
	C4848	C	0.387864	0.015775	0.173244
	C4849	C	0.450478	0.077998	0.175578
	C4850	C	0.424620	0.046714	0.324708
	C4851	C	0.487053	0.109657	0.326072
	C4852	C	0.398827	0.148205	0.500493
	C4853	C	0.452178	0.027631	-0.000522
	C4854	C	0.422864	0.097321	0.499391
	C4855	C	0.476133	-0.023393	-0.000749
	C4856	C	0.420493	0.042824	0.248847
	C4857	C	0.482895	0.105603	0.250513
	C4858	C	0.392097	0.019331	0.249125
	C4859	C	0.454570	0.081966	0.252073
	C4860	C	0.404948	0.135376	0.500462
	C4861	C	0.458175	0.014549	-0.000413
	C4862	C	0.416840	0.110335	0.499539
	C4863	C	0.470030	-0.010559	-0.000963
	C4864	C	0.413315	0.036770	0.248836
	C4865	C	0.475740	0.099474	0.251258
	C4866	C	0.399274	0.025379	0.248854
	C4867	C	0.461732	0.087999	0.252178
	C4868	C	0.408133	0.129189	0.504964
	C4869	C	0.461216	0.008203	0.510273
	C4870	C	0.413644	0.116589	-0.046540
	C4871	C	0.467035	-0.004003	0.026397
	C4872	C	0.413914	0.117011	0.504237
	C4873	C	0.466938	-0.004092	0.509851
	C4874	C	0.407896	0.128840	-0.045991
	C4875	C	0.461271	0.008206	0.026730
	C4876	C	0.409703	0.033884	0.271898
	C4877	C	0.471899	0.097556	0.267984
	C4878	C	0.402885	0.028219	0.226033
	C4879	C	0.465588	0.089901	0.235728
	C4880	C	0.402845	0.028286	0.271989
	C4881	C	0.465047	0.091899	0.268675
	C4882	C	0.409746	0.033828	0.225759
	C4883	C	0.472441	0.095559	0.235204
	N4884	N	0.389807	0.166916	0.452544
	N4885	N	0.443511	0.047084	0.452819
	N4886	N	0.431441	0.077785	0.047501
	N4887	N	0.485211	-0.041968	0.046790
	N4888	N	0.431440	0.077750	0.452326
	N4889	N	0.485207	-0.041978	0.451461
	N4890	N	0.389742	0.166779	0.047696
	N4891	N	0.443577	0.047131	0.046850
	N4892	N	0.430747	0.052760	0.202494
	N4893	N	0.493230	0.115219	0.202885
	N4894	N	0.381771	0.009729	0.296708
	N4895	N	0.444265	0.072197	0.297625
	N4896	N	0.381705	0.009981	0.202241
	N4897	N	0.444324	0.072175	0.203508
	N4898	N	0.430738	0.052644	0.296555
	N4899	N	0.493178	0.115441	0.297066
	H4900	H	0.396260	0.154109	0.850168
	H4901	H	0.449597	0.033220	0.849853
	H4902	H	0.425657	0.092132	0.648719
	H4903	H	0.478948	-0.028799	0.650827
	H4904	H	0.425427	0.091313	0.850093
	H4905	H	0.478936	-0.028708	0.848938
	H4906	H	0.396130	0.153643	0.651267
	H4907	H	0.449775	0.033678	0.649977
	H4908	H	0.423345	0.045978	0.602228
	H4909	H	0.485857	0.108655	0.601041
	H4910	H	0.389050	0.016479	0.897675
	H4911	H	0.451456	0.079464	0.897843
	H4912	H	0.388971	0.016957	0.601412
	H4913	H	0.451727	0.078888	0.602104
	H4914	H	0.423476	0.045776	0.897749
	H4915	H	0.486006	0.108165	0.898004
	H4916	H	0.406052	0.134006	1.082197
	H4917	H	0.458896	0.012494	0.950958
	H4918	H	0.415746	0.111729	0.492057
	H4919	H	0.469255	-0.008629	0.481479
	H4920	H	0.416190	0.112425	1.082028
	H4921	H	0.469024	-0.009152	0.950414
	H4922	H	0.405530	0.133222	0.492500
	H4923	H	0.459147	0.013015	0.481985
	H4924	H	0.412147	0.036914	0.793417
	H4925	H	0.475024	0.097923	0.744838
	H4926	H	0.400332	0.025599	0.706964
	H4927	H	0.462493	0.089617	0.756194
	H4928	H	0.399896	0.027120	0.792478
	H4929	H	0.462822	0.087971	0.745540
	H4930	H	0.412470	0.035570	0.707795
	H4931	H	0.474705	0.099506	0.755585
	Co4932	Co	0.500019	0.124955	0.623930
	Co4933	Co	0.437519	0.062499	0.624542
	Co4934	Co	0.374923	0.000080	0.875125
	Co4935	Co	0.437503	0.062464	0.875183
	C4936	C	0.395226	0.155981	0.923456
	C4937	C	0.448651	0.035448	0.923006
	C4938	C	0.426485	0.089727	0.576095
	C4939	C	0.479859	-0.030849	0.576650
	C4940	C	0.426357	0.089287	0.923380
	C4941	C	0.479855	-0.030832	0.922200
	C4942	C	0.395145	0.155734	0.577397
	C4943	C	0.448771	0.035701	0.576913
	C4944	C	0.424543	0.046993	0.674140
	C4945	C	0.487061	0.109563	0.673929
	C4946	C	0.387877	0.015556	0.825500
	C4947	C	0.450335	0.078288	0.825971
	C4948	C	0.387849	0.015810	0.673676
	C4949	C	0.450474	0.077994	0.674255
	C4950	C	0.424592	0.046898	0.825582
	C4951	C	0.487132	0.109343	0.825375
	C4952	C	0.398844	0.148248	1.000097
	C4953	C	0.452218	0.027776	0.500367
	C4954	C	0.422825	0.097224	0.999147
	C4955	C	0.476150	-0.023391	0.499439
	C4956	C	0.420424	0.043105	0.749948
	C4957	C	0.482922	0.105551	0.749649
	C4958	C	0.392009	0.019556	0.749672
	C4959	C	0.454553	0.082116	0.750068
	C4960	C	0.404960	0.135460	1.000307
	C4961	C	0.458238	0.014751	0.500283
	C4962	C	0.416810	0.110252	0.999426
	C4963	C	0.470024	-0.010558	0.499188
	C4964	C	0.413256	0.037014	0.750193
	C4965	C	0.475761	0.099488	0.750067
	C4966	C	0.399201	0.025583	0.749792
	C4967	C	0.461727	0.088113	0.750386
	C4968	C	0.408152	0.129181	1.046118
	C4969	C	0.461134	0.007920	0.972173
	C4970	C	0.413653	0.116555	0.495467
	C4971	C	0.467029	-0.004033	0.489478
	C4972	C	0.413903	0.116938	1.045998
	C4973	C	0.466901	-0.004296	0.971976
	C4974	C	0.407873	0.128734	0.495760
	C4975	C	0.461310	0.008260	0.489945
	C4976	C	0.409542	0.034495	0.773997
	C4977	C	0.472289	0.096096	0.747360
	C4978	C	0.402899	0.028131	0.725916
	C4979	C	0.465223	0.091397	0.753531
	C4980	C	0.402675	0.028900	0.773600
	C4981	C	0.465408	0.090536	0.747550
	C4982	C	0.409768	0.033706	0.726299
	C4983	C	0.472092	0.096997	0.753363
	N4984	N	0.389833	0.166988	0.952515
	N4985	N	0.443528	0.047032	0.951849
	N4986	N	0.431560	0.078016	0.547526
	N4987	N	0.485248	-0.041925	0.547263
	N4988	N	0.431489	0.077761	0.952705
	N4989	N	0.485231	-0.041891	0.951353
	N4990	N	0.389791	0.166866	0.548130
	N4991	N	0.443604	0.047225	0.547984
	N4992	N	0.430690	0.052862	0.702667
	N4993	N	0.493228	0.115258	0.702410
	N4994	N	0.381716	0.009824	0.796623
	N4995	N	0.444231	0.072424	0.797252
	N4996	N	0.381700	0.010002	0.702175
	N4997	N	0.444300	0.072264	0.703059
	N4998	N	0.430734	0.052749	0.796848
	N4999	N	0.493259	0.115152	0.796421
	H5000	H	0.391487	0.236889	0.348447
	H5001	H	0.458572	0.216309	0.349374
	H5002	H	0.428799	0.254572	0.152365
	H5003	H	0.488016	0.154264	0.149106
	H5004	H	0.428782	0.254185	0.347369
	H5005	H	0.487964	0.154250	0.350773
	H5006	H	0.391459	0.236807	0.152217
	H5007	H	0.458691	0.216333	0.150377
	H5008	H	0.433250	0.220343	0.098034
	H5009	H	0.495810	0.282832	0.099274
	H5010	H	0.397012	0.196740	0.401024
	H5011	H	0.459464	0.259405	0.401280
	H5012	H	0.397013	0.196932	0.098844
	H5013	H	0.459598	0.259009	0.099420
	H5014	H	0.433270	0.220188	0.400994
	H5015	H	0.495747	0.282937	0.401956
	H5016	H	0.403943	0.241224	0.350070
	H5017	H	0.468829	0.197346	0.451671
	H5018	H	0.416600	0.247985	0.151022
	H5019	H	0.478335	0.174223	-0.051917
	H5020	H	0.416470	0.248853	0.349906
	H5021	H	0.479013	0.175696	0.450940
	H5022	H	0.404061	0.240465	0.150624
	H5023	H	0.468135	0.195724	-0.052886
	H5024	H	0.421855	0.210320	0.101980
	H5025	H	0.484381	0.272947	0.103585
	H5026	H	0.409148	0.203284	0.397523
	H5027	H	0.471750	0.265104	0.397483
	H5028	H	0.409177	0.203024	0.102216
	H5029	H	0.471765	0.265593	0.103072
	H5030	H	0.421844	0.210411	0.397384
	H5031	H	0.484393	0.272520	0.397983
	Co5032	Co	0.507764	0.305949	0.124871
	Co5033	Co	0.445295	0.243334	0.124563
	Co5034	Co	0.382755	0.180845	0.375124
	Co5035	Co	0.445321	0.243309	0.374794
	C5036	C	0.390162	0.237360	0.422768
	C5037	C	0.457664	0.218318	0.422939
	C5038	C	0.430136	0.254048	0.077868
	C5039	C	0.488920	0.151993	0.076287
	C5040	C	0.430154	0.253896	0.422399
	C5041	C	0.488887	0.152046	0.423734
	C5042	C	0.390119	0.237484	0.077671
	C5043	C	0.457683	0.218325	0.076804
	C5044	C	0.434252	0.221862	0.172112
	C5045	C	0.496745	0.284411	0.173637
	C5046	C	0.395793	0.196124	0.326938
	C5047	C	0.458267	0.258671	0.327158
	C5048	C	0.395778	0.196186	0.172662
	C5049	C	0.458344	0.258431	0.173128
	C5050	C	0.434281	0.221811	0.326656
	C5051	C	0.496744	0.284531	0.327988
	C5052	C	0.395027	0.236921	0.500193
	C5053	C	0.461319	0.210711	-0.000252
	C5054	C	0.425364	0.253337	0.499955
	C5055	C	0.485352	0.159735	-0.000270
	C5056	C	0.430261	0.217053	0.249432
	C5057	C	0.492780	0.279578	0.250974
	C5058	C	0.400284	0.198913	0.249738
	C5059	C	0.462823	0.261249	0.250314
	C5060	C	0.402912	0.239931	0.500069
	C5061	C	0.467448	0.197905	-0.000474
	C5062	C	0.417663	0.249265	0.499922
	C5063	C	0.479314	0.172727	-0.000565
	C5064	C	0.422924	0.211201	0.249642
	C5065	C	0.485475	0.273606	0.250982
	C5066	C	0.408000	0.202827	0.249730
	C5067	C	0.470561	0.265053	0.250685
	C5068	C	0.406700	0.242530	0.416611
	C5069	C	0.470827	0.192130	0.472994
	C5070	C	0.413880	0.246605	0.084080
	C5071	C	0.476188	0.179041	-0.029523
	C5072	C	0.413850	0.246982	0.416624
	C5073	C	0.476576	0.179917	0.472717
	C5074	C	0.406705	0.242241	0.083884
	C5075	C	0.470418	0.191257	-0.029597
	C5076	C	0.419123	0.208822	0.167283
	C5077	C	0.481664	0.271252	0.168763
	C5078	C	0.411887	0.204773	0.332146
	C5079	C	0.474442	0.266893	0.332531
	C5080	C	0.411895	0.204698	0.167477
	C5081	C	0.474449	0.267091	0.168615
	C5082	C	0.419117	0.208881	0.332025
	C5083	C	0.481659	0.271080	0.332811
	N5084	N	0.382913	0.238605	0.451239
	N5085	N	0.452286	0.229384	0.452088
	N5086	N	0.437351	0.254106	0.049248
	N5087	N	0.494026	0.140401	0.047301
	N5088	N	0.437362	0.254036	0.450518
	N5089	N	0.494042	0.140486	0.452454
	N5090	N	0.382873	0.238863	0.048788
	N5091	N	0.452283	0.229364	0.047615
	N5092	N	0.439964	0.229304	0.201396
	N5093	N	0.502424	0.292000	0.202592
	N5094	N	0.389159	0.192037	0.298241
	N5095	N	0.451626	0.254683	0.298274
	N5096	N	0.389145	0.192052	0.201631
	N5097	N	0.451661	0.254540	0.201655
	N5098	N	0.439979	0.229301	0.297455
	N5099	N	0.502422	0.292074	0.298988
	H5100	H	0.391512	0.236661	0.848009
	H5101	H	0.458498	0.215939	0.849020
	H5102	H	0.428767	0.254440	0.652406
	H5103	H	0.487777	0.153813	0.649125
	H5104	H	0.428776	0.254139	0.848385
	H5105	H	0.487762	0.153793	0.850867
	H5106	H	0.391509	0.236558	0.652519
	H5107	H	0.458766	0.216602	0.649930
	H5108	H	0.433208	0.220544	0.598152
	H5109	H	0.495913	0.282642	0.597973
	H5110	H	0.396956	0.197052	0.900725
	H5111	H	0.459525	0.259368	0.900365
	H5112	H	0.397023	0.196884	0.599049
	H5113	H	0.459449	0.259804	0.599449
	H5114	H	0.433285	0.220168	0.901104
	H5115	H	0.495802	0.282732	0.901557
	H5116	H	0.403992	0.240883	0.850211
	H5117	H	0.468433	0.196375	1.050922
	H5118	H	0.416716	0.247504	0.650379
	H5119	H	0.477991	0.173555	0.548821
	H5120	H	0.416546	0.248565	0.850419
	H5121	H	0.478577	0.174834	1.051302
	H5122	H	0.404183	0.239795	0.650239
	H5123	H	0.467794	0.195163	0.549442
	H5124	H	0.421959	0.210028	0.602577
	H5125	H	0.484484	0.272315	0.897342
	H5126	H	0.409114	0.203670	0.897479
	H5127	H	0.471725	0.265516	0.601873
	H5128	H	0.409282	0.202808	0.602599
	H5129	H	0.471757	0.265283	0.897280
	H5130	H	0.421859	0.210701	0.897297
	H5131	H	0.484396	0.272601	0.602264
	Co5132	Co	0.507814	0.305766	0.624600
	Co5133	Co	0.445319	0.243489	0.624618
	Co5134	Co	0.382829	0.180958	0.875427
	Co5135	Co	0.445255	0.243442	0.875429
	C5136	C	0.390129	0.237435	0.922527
	C5137	C	0.457593	0.218139	0.922745
	C5138	C	0.430154	0.254052	0.577527
	C5139	C	0.488795	0.151830	0.576117
	C5140	C	0.430129	0.253901	0.922881
	C5141	C	0.488784	0.151744	0.923392
	C5142	C	0.390171	0.237121	0.577806
	C5143	C	0.457734	0.218512	0.576497
	C5144	C	0.434255	0.221921	0.672628
	C5145	C	0.496827	0.284128	0.672547
	C5146	C	0.395765	0.196387	0.826987
	C5147	C	0.458285	0.258716	0.826865
	C5148	C	0.395800	0.196287	0.672869
	C5149	C	0.458247	0.258857	0.673033
	C5150	C	0.434306	0.221753	0.827147
	C5151	C	0.496754	0.284304	0.826929
	C5152	C	0.395008	0.237042	1.000001
	C5153	C	0.461381	0.210855	0.499849
	C5154	C	0.425340	0.253311	1.000330
	C5155	C	0.485330	0.159773	0.499887
	C5156	C	0.430294	0.217056	0.749950
	C5157	C	0.492808	0.279348	0.749794
	C5158	C	0.400302	0.198976	0.750090
	C5159	C	0.462796	0.261374	0.749964
	C5160	C	0.402881	0.240016	1.000183
	C5161	C	0.467478	0.197970	0.500210
	C5162	C	0.417649	0.249242	1.000461
	C5163	C	0.479321	0.172826	0.500022
	C5164	C	0.422976	0.211120	0.750104
	C5165	C	0.485503	0.273413	0.750009
	C5166	C	0.408033	0.202816	0.750156
	C5167	C	0.470546	0.265165	0.749954
	C5168	C	0.406692	0.242373	0.916743
	C5169	C	0.470595	0.191589	1.028440
	C5170	C	0.413965	0.246291	0.583610
	C5171	C	0.475996	0.178729	0.527576
	C5172	C	0.413849	0.246842	0.916814
	C5173	C	0.476354	0.179367	1.028579
	C5174	C	0.406817	0.241790	0.583787
	C5175	C	0.470246	0.190976	0.527888
	C5176	C	0.419201	0.208592	0.667881
	C5177	C	0.481719	0.270955	0.832318
	C5178	C	0.411893	0.204910	0.832349
	C5179	C	0.474427	0.267053	0.667445
	C5180	C	0.411964	0.204554	0.667892
	C5181	C	0.474477	0.266929	0.832136
	C5182	C	0.419127	0.209004	0.832331
	C5183	C	0.481680	0.271037	0.667694
	N5184	N	0.382874	0.238840	0.951219
	N5185	N	0.452233	0.229278	0.952090
	N5186	N	0.437385	0.254110	0.548653
	N5187	N	0.494005	0.140396	0.547265
	N5188	N	0.437331	0.254061	0.951082
	N5189	N	0.493944	0.140233	0.952417
	N5190	N	0.382910	0.238506	0.548864
	N5191	N	0.452321	0.229494	0.547367
	N5192	N	0.439986	0.229362	0.701770
	N5193	N	0.502484	0.291724	0.701596
	N5194	N	0.389140	0.192278	0.798384
	N5195	N	0.451624	0.254734	0.798386
	N5196	N	0.389153	0.192206	0.701546
	N5197	N	0.451588	0.254861	0.701687
	N5198	N	0.439979	0.229353	0.797907
	N5199	N	0.502439	0.291844	0.797994
	H5200	H	0.383755	0.308188	0.347792
	H5201	H	0.454038	0.299237	0.348244
	H5202	H	0.420974	0.325758	0.150669
	H5203	H	0.491243	0.316819	0.152648
	H5204	H	0.420927	0.325447	0.348084
	H5205	H	0.491252	0.317210	0.348481
	H5206	H	0.383694	0.308024	0.151980
	H5207	H	0.453967	0.299371	0.152034
	H5208	H	0.424748	0.291813	0.097517
	H5209	H	0.487395	0.353861	0.098926
	H5210	H	0.387697	0.271052	0.402264
	H5211	H	0.450297	0.333362	0.401537
	H5212	H	0.387787	0.270827	0.098800
	H5213	H	0.450293	0.333506	0.097854
	H5214	H	0.424844	0.291610	0.401757
	H5215	H	0.487201	0.354261	0.402839
	H5216	H	0.395943	0.314041	0.650305
	H5217	H	0.466582	0.302768	0.350653
	H5218	H	0.408392	0.322073	0.149238
	H5219	H	0.479093	0.310954	0.149861
	H5220	H	0.408444	0.321703	0.650140
	H5221	H	0.479129	0.310481	0.350311
	H5222	H	0.395880	0.314359	0.149537
	H5223	H	0.466506	0.303215	0.149981
	H5224	H	0.412581	0.284744	0.400153
	H5225	H	0.475244	0.346175	0.400708
	H5226	H	0.399844	0.277916	0.100012
	H5227	H	0.462343	0.340785	0.099819
	H5228	H	0.399787	0.278543	0.399826
	H5229	H	0.462426	0.340048	0.399557
	H5230	H	0.412628	0.284290	0.099602
	H5231	H	0.475197	0.346944	0.100466
	Co5232	Co	0.500070	0.374752	0.124838
	Co5233	Co	0.437468	0.312613	0.124171
	Co5234	Co	0.375025	0.249975	0.375823
	Co5235	Co	0.437524	0.312501	0.375371
	C5236	C	0.382375	0.308396	0.422576
	C5237	C	0.452658	0.299884	0.422904
	C5238	C	0.422314	0.325100	0.076848
	C5239	C	0.492647	0.316452	0.077891
	C5240	C	0.422330	0.324900	0.422205
	C5241	C	0.492640	0.316792	0.423160
	C5242	C	0.382309	0.308286	0.077400
	C5243	C	0.452623	0.299996	0.077611
	C5244	C	0.425819	0.292994	0.172537
	C5245	C	0.488424	0.355217	0.173420
	C5246	C	0.386678	0.269597	0.327611
	C5247	C	0.449231	0.331932	0.327217
	C5248	C	0.386692	0.269529	0.172918
	C5249	C	0.449178	0.332103	0.172438
	C5250	C	0.425866	0.292903	0.327192
	C5251	C	0.488330	0.355471	0.328250
	C5252	C	0.387135	0.309058	0.500177
	C5253	C	0.457504	0.299601	0.000210
	C5254	C	0.417462	0.325375	0.499732
	C5255	C	0.487870	0.315787	0.000457
	C5256	C	0.421518	0.289226	0.249890
	C5257	C	0.484068	0.351552	0.250661
	C5258	C	0.390983	0.273314	0.250208
	C5259	C	0.453517	0.335718	0.249773
	C5260	C	0.394827	0.313134	0.500062
	C5261	C	0.465368	0.302594	0.000102
	C5262	C	0.409574	0.322442	0.500026
	C5263	C	0.480147	0.311756	0.000156
	C5264	C	0.413872	0.284848	0.249900
	C5265	C	0.476428	0.347130	0.250520
	C5266	C	0.398642	0.277726	0.250067
	C5267	C	0.461205	0.339987	0.249690
	C5268	C	0.398615	0.315660	0.583536
	C5269	C	0.469251	0.304586	0.417028
	C5270	C	0.405750	0.320178	0.082868
	C5271	C	0.476363	0.309262	0.083672
	C5272	C	0.405781	0.320066	0.583425
	C5273	C	0.476413	0.309073	0.416914
	C5274	C	0.398590	0.315742	0.082887
	C5275	C	0.469181	0.304890	0.083580
	C5276	C	0.409915	0.283174	0.333173
	C5277	C	0.472528	0.345071	0.333612
	C5278	C	0.402574	0.279404	0.166589
	C5279	C	0.465118	0.341972	0.166495
	C5280	C	0.402554	0.279756	0.333277
	C5281	C	0.465184	0.341566	0.333087
	C5282	C	0.409924	0.282917	0.166545
	C5283	C	0.472468	0.345489	0.167147
	N5284	N	0.375160	0.308235	0.450859
	N5285	N	0.445408	0.301210	0.451697
	N5286	N	0.429565	0.323765	0.047999
	N5287	N	0.499872	0.316662	0.049537
	N5288	N	0.429576	0.323645	0.450818
	N5289	N	0.499864	0.316833	0.451749
	N5290	N	0.375096	0.308278	0.049038
	N5291	N	0.445380	0.301314	0.048952
	N5292	N	0.432017	0.298967	0.201086
	N5293	N	0.494561	0.361314	0.202427
	N5294	N	0.380499	0.263551	0.298759
	N5295	N	0.442995	0.326032	0.298243
	N5296	N	0.380507	0.263501	0.201850
	N5297	N	0.442977	0.326089	0.201436
	N5298	N	0.432043	0.298944	0.298463
	N5299	N	0.494504	0.361534	0.299588
	H5300	H	0.383690	0.308104	0.847895
	H5301	H	0.453938	0.299190	0.848231
	H5302	H	0.420966	0.325760	0.652454
	H5303	H	0.491290	0.316519	0.652505
	H5304	H	0.420944	0.325583	0.847169
	H5305	H	0.491307	0.316784	0.848475
	H5306	H	0.383694	0.308082	0.652383
	H5307	H	0.454015	0.299205	0.652828
	H5308	H	0.424700	0.291672	0.597833
	H5309	H	0.487164	0.354198	0.599057
	H5310	H	0.387703	0.270989	0.901134
	H5311	H	0.450120	0.333401	0.901666
	H5312	H	0.387829	0.270522	0.597230
	H5313	H	0.450174	0.333303	0.597941
	H5314	H	0.424762	0.291428	0.901671
	H5315	H	0.487255	0.354044	0.902688
	H5316	H	0.395917	0.314011	0.849706
	H5317	H	0.466604	0.302785	0.850141
	H5318	H	0.408387	0.321983	0.350250
	H5319	H	0.479038	0.310805	0.650384
	H5320	H	0.408464	0.321682	0.849593
	H5321	H	0.479128	0.310429	0.850131
	H5322	H	0.395855	0.314305	0.350173
	H5323	H	0.466510	0.303198	0.650561
	H5324	H	0.412599	0.284520	0.899764
	H5325	H	0.475101	0.347082	0.600617
	H5326	H	0.399917	0.277597	0.599193
	H5327	H	0.462329	0.340320	0.900179
	H5328	H	0.399777	0.278255	0.899555
	H5329	H	0.462327	0.340753	0.600059
	H5330	H	0.412735	0.283850	0.599545
	H5331	H	0.475125	0.346637	0.900628
	Co5332	Co	0.499925	0.374996	0.624565
	Co5333	Co	0.437461	0.312495	0.624154
	Co5334	Co	0.374965	0.250104	0.876023
	Co5335	Co	0.437472	0.312377	0.875329
	C5336	C	0.382317	0.308307	0.922182
	C5337	C	0.452633	0.299876	0.922615
	C5338	C	0.422341	0.325108	0.577259
	C5339	C	0.492653	0.316377	0.578320
	C5340	C	0.422309	0.324992	0.921747
	C5341	C	0.492666	0.316508	0.922959
	C5342	C	0.382351	0.308370	0.577682
	C5343	C	0.452641	0.299913	0.578196
	C5344	C	0.425792	0.292893	0.672268
	C5345	C	0.488273	0.355395	0.673656
	C5346	C	0.386637	0.269555	0.826815
	C5347	C	0.449107	0.332052	0.826974
	C5348	C	0.386683	0.269328	0.672149
	C5349	C	0.449128	0.332033	0.672473
	C5350	C	0.425825	0.292797	0.827075
	C5351	C	0.488325	0.355264	0.828157
	C5352	C	0.387124	0.308935	0.999775
	C5353	C	0.457515	0.299533	0.500639
	C5354	C	0.417450	0.325366	0.999282
	C5355	C	0.487847	0.315924	0.500601
	C5356	C	0.421501	0.289102	0.749701
	C5357	C	0.484005	0.351589	0.750920
	C5358	C	0.390972	0.273142	0.749416
	C5359	C	0.453420	0.335780	0.749769
	C5360	C	0.394835	0.312982	0.999633
	C5361	C	0.465394	0.302476	0.500566
	C5362	C	0.409600	0.322330	0.999417
	C5363	C	0.480159	0.311805	0.500321
	C5364	C	0.413867	0.284650	0.749706
	C5365	C	0.476346	0.347199	0.750791
	C5366	C	0.398631	0.277510	0.749371
	C5367	C	0.461085	0.340113	0.750071
	C5368	C	0.398611	0.315549	0.916363
	C5369	C	0.469231	0.304675	0.916676
	C5370	C	0.405735	0.320246	0.416795
	C5371	C	0.476359	0.309250	0.583549
	C5372	C	0.405773	0.320027	0.916223
	C5373	C	0.476412	0.308971	0.916685
	C5374	C	0.398577	0.315828	0.416681
	C5375	C	0.469201	0.304803	0.583962
	C5376	C	0.409895	0.282986	0.832823
	C5377	C	0.472395	0.345519	0.667266
	C5378	C	0.402620	0.279144	0.666067
	C5379	C	0.465048	0.341782	0.833496
	C5380	C	0.402541	0.279496	0.832687
	C5381	C	0.465021	0.342115	0.667010
	C5382	C	0.409975	0.282623	0.666281
	C5383	C	0.472398	0.345259	0.833965
	N5384	N	0.375103	0.308302	0.950780
	N5385	N	0.445385	0.301233	0.951326
	N5386	N	0.429584	0.323738	0.548308
	N5387	N	0.499850	0.316553	0.549949
	N5388	N	0.429561	0.323678	0.950579
	N5389	N	0.499889	0.316613	0.951451
	N5390	N	0.375133	0.308236	0.548924
	N5391	N	0.445396	0.301193	0.549121
	N5392	N	0.431988	0.298890	0.701159
	N5393	N	0.494456	0.361459	0.702241
	N5394	N	0.380458	0.263517	0.798201
	N5395	N	0.442921	0.326036	0.798308
	N5396	N	0.380473	0.263422	0.701064
	N5397	N	0.442941	0.326040	0.701034
	N5398	N	0.432006	0.298816	0.798041
	N5399	N	0.494483	0.361407	0.799182
	H5400	H	0.386975	0.470664	0.350852
	H5401	H	0.446178	0.370611	0.347678
	H5402	H	0.416534	0.409090	0.151144
	H5403	H	0.483533	0.387726	0.152627
	H5404	H	0.416253	0.408458	0.349364
	H5405	H	0.483464	0.388115	0.348929
	H5406	H	0.387058	0.471082	0.150305
	H5407	H	0.446202	0.370718	0.152522
	H5408	H	0.415401	0.365843	0.098237
	H5409	H	0.478011	0.427718	0.100039
	H5410	H	0.379172	0.342183	0.401046
	H5411	H	0.441765	0.404309	0.402705
	H5412	H	0.379140	0.342030	0.098017
	H5413	H	0.441709	0.405000	0.099225
	H5414	H	0.415498	0.365027	0.400786
	H5415	H	0.478028	0.428006	0.401353
	H5416	H	0.396250	0.449873	0.465974
	H5417	H	0.458508	0.375919	0.350208
	H5418	H	0.407091	0.429527	0.031559
	H5419	H	0.471033	0.383671	-0.149692
	H5420	H	0.406474	0.428332	0.466154
	H5421	H	0.471017	0.383472	0.350511
	H5422	H	0.396987	0.451190	0.032219
	H5423	H	0.458445	0.376233	-0.149282
	H5424	H	0.403199	0.359702	0.102079
	H5425	H	0.465931	0.421023	0.398100
	H5426	H	0.390594	0.352296	0.396613
	H5427	H	0.452923	0.415438	0.104989
	H5428	H	0.390533	0.352508	0.102267
	H5429	H	0.453296	0.413705	0.398149
	H5430	H	0.403254	0.359308	0.396671
	H5431	H	0.465663	0.422351	0.104366
	Co5432	Co	0.492186	0.444016	0.124846
	Co5433	Co	0.429707	0.381706	0.124660
	Co5434	Co	0.367229	0.318936	0.375386
	Co5435	Co	0.429636	0.381504	0.374888
	C5436	C	0.386077	0.473009	0.423291
	C5437	C	0.444808	0.370900	0.422566
	C5438	C	0.417385	0.406868	0.077147
	C5439	C	0.484864	0.387207	0.078032
	C5440	C	0.417267	0.406612	0.422794
	C5441	C	0.484794	0.387586	0.423195
	C5442	C	0.386138	0.473185	0.077064
	C5443	C	0.444827	0.371028	0.078024
	C5444	C	0.416654	0.366470	0.172548
	C5445	C	0.479231	0.428514	0.173571
	C5446	C	0.378240	0.340578	0.326646
	C5447	C	0.440768	0.402921	0.328134
	C5448	C	0.378191	0.340587	0.172341
	C5449	C	0.440721	0.403260	0.173216
	C5450	C	0.416725	0.366040	0.326818
	C5451	C	0.479231	0.428630	0.327689
	C5452	C	0.389668	0.465368	0.499623
	C5453	C	0.449609	0.371722	0.000532
	C5454	C	0.413644	0.414315	0.499501
	C5455	C	0.479995	0.387738	0.000421
	C5456	C	0.412153	0.363688	0.249509
	C5457	C	0.474723	0.425870	0.250774
	C5458	C	0.382211	0.345427	0.249171
	C5459	C	0.444731	0.407843	0.251013
	C5460	C	0.395677	0.452332	0.499561
	C5461	C	0.457320	0.375674	0.000332
	C5462	C	0.407524	0.427143	0.499490
	C5463	C	0.472109	0.384782	-0.000189
	C5464	C	0.404420	0.359838	0.249167
	C5465	C	0.466999	0.422003	0.251031
	C5466	C	0.389456	0.351489	0.249166
	C5467	C	0.452055	0.413739	0.251474
	C5468	C	0.398578	0.445500	0.480678
	C5469	C	0.461163	0.377580	0.416942
	C5470	C	0.404690	0.433934	0.017981
	C5471	C	0.468312	0.382245	-0.083401
	C5472	C	0.404342	0.433267	0.480760
	C5473	C	0.468310	0.382039	0.416931
	C5474	C	0.398950	0.446215	0.018320
	C5475	C	0.461131	0.377949	-0.083103
	C5476	C	0.400490	0.358088	0.167255
	C5477	C	0.463195	0.419670	0.332935
	C5478	C	0.393296	0.353753	0.331317
	C5479	C	0.455760	0.416555	0.169504
	C5480	C	0.393251	0.354027	0.167342
	C5481	C	0.455953	0.415644	0.333277
	C5482	C	0.400528	0.357858	0.331289
	C5483	C	0.463001	0.420584	0.169462
	N5484	N	0.380922	0.484580	0.452277
	N5485	N	0.437573	0.370880	0.450966
	N5486	N	0.422763	0.395787	0.047730
	N5487	N	0.492109	0.385892	0.049345
	N5488	N	0.422667	0.395572	0.452143
	N5489	N	0.492047	0.386431	0.451976
	N5490	N	0.381016	0.484732	0.047854
	N5491	N	0.437603	0.370957	0.049367
	N5492	N	0.423292	0.370463	0.201248
	N5493	N	0.485861	0.432675	0.201987
	N5494	N	0.372571	0.333010	0.297900
	N5495	N	0.435043	0.395536	0.298367
	N5496	N	0.372561	0.332952	0.201498
	N5497	N	0.435024	0.395694	0.202168
	N5498	N	0.423350	0.370211	0.297983
	N5499	N	0.485857	0.432698	0.298812
	H5500	H	0.387329	0.471175	0.850807
	H5501	H	0.446193	0.370855	0.848408
	H5502	H	0.416492	0.409020	0.650032
	H5503	H	0.483405	0.388052	0.652357
	H5504	H	0.416159	0.408314	0.849498
	H5505	H	0.483517	0.388354	0.848381
	H5506	H	0.387151	0.471143	0.648380
	H5507	H	0.446166	0.370471	0.652190
	H5508	H	0.415405	0.365769	0.599614
	H5509	H	0.477914	0.427984	0.600228
	H5510	H	0.379144	0.342173	0.900838
	H5511	H	0.441618	0.404919	0.902105
	H5512	H	0.379147	0.342198	0.597990
	H5513	H	0.441716	0.404701	0.598505
	H5514	H	0.415454	0.365335	0.899804
	H5515	H	0.478011	0.427903	0.901433
	H5516	H	0.396128	0.449605	0.969055
	H5517	H	0.458355	0.377113	1.149891
	H5518	H	0.407017	0.429578	0.532395
	H5519	H	0.470856	0.384562	0.649980
	H5520	H	0.406268	0.427996	0.968904
	H5521	H	0.470902	0.384706	1.149291
	H5522	H	0.396824	0.451187	0.533289
	H5523	H	0.458261	0.376933	0.650437
	H5524	H	0.403223	0.359681	0.602478
	H5525	H	0.465787	0.421526	0.897982
	H5526	H	0.390639	0.352079	0.897084
	H5527	H	0.452986	0.415023	0.604116
	H5528	H	0.390545	0.352495	0.602182
	H5529	H	0.453099	0.414368	0.897963
	H5530	H	0.403293	0.359164	0.896820
	H5531	H	0.465691	0.422096	0.603702
	Co5532	Co	0.492169	0.443814	0.624656
	Co5533	Co	0.429635	0.381663	0.624629
	Co5534	Co	0.367188	0.319052	0.875437
	Co5535	Co	0.429653	0.381626	0.875372
	C5536	C	0.386258	0.473241	0.923869
	C5537	C	0.444844	0.371092	0.922727
	C5538	C	0.417378	0.406905	0.576569
	C5539	C	0.484790	0.387478	0.578164
	C5540	C	0.417193	0.406509	0.923243
	C5541	C	0.484871	0.387507	0.923176
	C5542	C	0.386156	0.473246	0.575861
	C5543	C	0.444783	0.370816	0.577661
	C5544	C	0.416630	0.366508	0.672898
	C5545	C	0.479172	0.428714	0.673979
	C5546	C	0.378206	0.340612	0.826697
	C5547	C	0.440652	0.403231	0.827791
	C5548	C	0.378218	0.340539	0.672342
	C5549	C	0.440708	0.403129	0.672921
	C5550	C	0.416667	0.366293	0.826617
	C5551	C	0.479193	0.428671	0.827765
	C5552	C	0.389676	0.465322	1.000673
	C5553	C	0.449589	0.371444	0.500387
	C5554	C	0.413614	0.414196	1.000192
	C5555	C	0.479942	0.387728	0.500800
	C5556	C	0.412147	0.363715	0.749631
	C5557	C	0.474643	0.426075	0.750973
	C5558	C	0.382206	0.345420	0.749368
	C5559	C	0.444643	0.408058	0.750496
	C5560	C	0.395694	0.452285	1.000829
	C5561	C	0.457320	0.375373	0.500525
	C5562	C	0.407519	0.427045	1.000094
	C5563	C	0.472074	0.384653	0.500490
	C5564	C	0.404457	0.359715	0.749637
	C5565	C	0.466919	0.422256	0.751107
	C5566	C	0.389545	0.351211	0.749596
	C5567	C	0.451967	0.413929	0.750929
	C5568	C	0.398494	0.445355	0.982925
	C5569	C	0.461071	0.378428	1.083399
	C5570	C	0.404648	0.434015	0.518293
	C5571	C	0.468179	0.382701	0.583746
	C5572	C	0.404229	0.433077	0.982677
	C5573	C	0.468236	0.382839	1.083230
	C5574	C	0.398874	0.446230	0.518362
	C5575	C	0.461019	0.378281	0.583816
	C5576	C	0.400537	0.357952	0.667499
	C5577	C	0.463052	0.420173	0.832974
	C5578	C	0.393361	0.353526	0.831766
	C5579	C	0.455748	0.416415	0.668902
	C5580	C	0.393319	0.353803	0.667522
	C5581	C	0.455803	0.416136	0.833012
	C5582	C	0.400581	0.357681	0.831742
	C5583	C	0.463006	0.420429	0.668993
	N5584	N	0.381086	0.484768	0.952511
	N5585	N	0.437625	0.370998	0.951130
	N5586	N	0.422717	0.395737	0.547293
	N5587	N	0.492048	0.386354	0.549560
	N5588	N	0.422648	0.395597	0.952269
	N5589	N	0.492116	0.386119	0.951882
	N5590	N	0.380985	0.484739	0.547166
	N5591	N	0.437558	0.370830	0.549014
	N5592	N	0.423289	0.370481	0.701592
	N5593	N	0.485831	0.432700	0.702373
	N5594	N	0.372541	0.333039	0.797615
	N5595	N	0.434978	0.395674	0.798275
	N5596	N	0.372533	0.333013	0.701499
	N5597	N	0.434999	0.395660	0.701985
	N5598	N	0.423304	0.370409	0.798060
	N5599	N	0.485850	0.432638	0.799014
	H5600	H	0.396270	0.654199	0.349480
	H5601	H	0.449527	0.533294	0.351344
	H5602	H	0.425191	0.591145	0.148860
	H5603	H	0.478788	0.470931	0.149549
	H5604	H	0.425426	0.591585	0.351250
	H5605	H	0.479114	0.471498	0.350037
	H5606	H	0.396068	0.653807	0.151280
	H5607	H	0.449730	0.533480	0.148848
	H5608	H	0.423680	0.545087	0.101667
	H5609	H	0.485993	0.608496	0.102465
	H5610	H	0.389207	0.515892	0.397606
	H5611	H	0.451578	0.579079	0.397576
	H5612	H	0.389066	0.516854	0.101645
	H5613	H	0.451591	0.579181	0.102020
	H5614	H	0.423250	0.546404	0.397559
	H5615	H	0.485970	0.608437	0.398756
	H5616	H	0.406374	0.635019	0.456275
	H5617	H	0.459086	0.512818	0.387025
	H5618	H	0.415546	0.611376	0.049425
	H5619	H	0.469092	0.490823	0.032543
	H5620	H	0.416543	0.613400	0.456290
	H5621	H	0.469253	0.491246	0.386710
	H5622	H	0.405426	0.633055	0.049833
	H5623	H	0.458902	0.512505	0.033994
	H5624	H	0.412235	0.536667	0.274832
	H5625	H	0.474195	0.601287	0.294355
	H5626	H	0.400325	0.525694	0.224147
	H5627	H	0.463321	0.586452	0.206748
	H5628	H	0.400042	0.526755	0.274930
	H5629	H	0.461980	0.591299	0.293566
	H5630	H	0.412493	0.535773	0.223807
	H5631	H	0.475506	0.596427	0.207158
	Co5632	Co	0.500018	0.625130	0.124868
	Co5633	Co	0.437549	0.562457	0.124840
	Co5634	Co	0.374966	0.499973	0.375054
	Co5635	Co	0.437523	0.562514	0.375906
	C5636	C	0.395220	0.656120	0.423160
	C5637	C	0.448602	0.535495	0.424083
	C5638	C	0.426228	0.589208	0.076379
	C5639	C	0.479794	0.468979	0.076393
	C5640	C	0.426337	0.589412	0.424053
	C5641	C	0.479973	0.469309	0.423194
	C5642	C	0.395192	0.655938	0.077206
	C5643	C	0.448730	0.535576	0.076478
	C5644	C	0.424716	0.546499	0.173854
	C5645	C	0.487098	0.609494	0.174643
	C5646	C	0.387996	0.515215	0.325333
	C5647	C	0.450426	0.578073	0.325828
	C5648	C	0.387912	0.515684	0.173509
	C5649	C	0.450442	0.578121	0.174046
	C5650	C	0.424504	0.547150	0.325543
	C5651	C	0.487090	0.609506	0.326443
	C5652	C	0.398841	0.648416	0.499945
	C5653	C	0.452207	0.527655	0.000152
	C5654	C	0.422802	0.597260	0.500342
	C5655	C	0.476154	0.476585	-0.000730
	C5656	C	0.420475	0.542983	0.249421
	C5657	C	0.482943	0.605580	0.250560
	C5658	C	0.392087	0.519395	0.249439
	C5659	C	0.454582	0.582071	0.249861
	C5660	C	0.405011	0.635650	0.499827
	C5661	C	0.458188	0.514522	0.000230
	C5662	C	0.416838	0.610422	0.500517
	C5663	C	0.470016	0.489365	-0.000709
	C5664	C	0.413297	0.536922	0.249390
	C5665	C	0.475749	0.599585	0.250678
	C5666	C	0.399274	0.525422	0.249609
	C5667	C	0.461763	0.588154	0.250071
	C5668	C	0.408368	0.629870	0.475669
	C5669	C	0.461260	0.508181	0.436608
	C5670	C	0.413538	0.616376	0.027519
	C5671	C	0.466917	0.495672	0.018184
	C5672	C	0.414107	0.617586	0.475677
	C5673	C	0.467038	0.495941	0.436719
	C5674	C	0.407825	0.628670	0.027724
	C5675	C	0.461155	0.507908	0.018674
	C5676	C	0.409624	0.534270	0.263909
	C5677	C	0.471802	0.598030	0.275137
	C5678	C	0.402911	0.528123	0.235149
	C5679	C	0.465701	0.589679	0.225823
	C5680	C	0.402776	0.528641	0.263823
	C5681	C	0.464941	0.592438	0.274808
	C5682	C	0.409777	0.533714	0.235041
	C5683	C	0.472539	0.595331	0.226049
	N5684	N	0.389836	0.667159	0.452243
	N5685	N	0.443484	0.547069	0.452969
	N5686	N	0.431451	0.577766	0.047580
	N5687	N	0.485216	0.457967	0.047328
	N5688	N	0.431469	0.577814	0.453071
	N5689	N	0.485293	0.458097	0.452474
	N5690	N	0.389817	0.667052	0.047955
	N5691	N	0.443591	0.547148	0.047664
	N5692	N	0.430836	0.552428	0.202940
	N5693	N	0.493231	0.615335	0.203392
	N5694	N	0.381821	0.509570	0.296481
	N5695	N	0.444288	0.572278	0.296876
	N5696	N	0.381763	0.509868	0.202342
	N5697	N	0.444292	0.572298	0.203129
	N5698	N	0.430689	0.552868	0.297396
	N5699	N	0.493228	0.615324	0.297509
	H5700	H	0.396229	0.654043	0.849420
	H5701	H	0.449631	0.533404	0.851277
	H5702	H	0.425295	0.591552	0.649432
	H5703	H	0.478779	0.470886	0.650868
	H5704	H	0.425498	0.591824	0.851427
	H5705	H	0.479037	0.471130	0.848881
	H5706	H	0.396141	0.653824	0.650581
	H5707	H	0.449713	0.533417	0.649386
	H5708	H	0.423505	0.545633	0.603281
	H5709	H	0.485808	0.608665	0.602952
	H5710	H	0.389042	0.516819	0.897523
	H5711	H	0.451598	0.578999	0.897520
	H5712	H	0.388958	0.517122	0.602651
	H5713	H	0.451486	0.579354	0.602142
	H5714	H	0.423370	0.546138	0.897879
	H5715	H	0.485986	0.608198	0.897975
	H5716	H	0.406235	0.634571	0.949704
	H5717	H	0.459106	0.512902	0.966308
	H5718	H	0.415444	0.611031	0.544290
	H5719	H	0.469271	0.491425	0.614326
	H5720	H	0.416357	0.612857	0.950499
	H5721	H	0.469247	0.491238	0.966087
	H5722	H	0.405303	0.632633	0.543940
	H5723	H	0.459078	0.512915	0.614208
	H5724	H	0.412612	0.535202	0.788766
	H5725	H	0.474956	0.598220	0.764415
	H5726	H	0.399841	0.527364	0.712078
	H5727	H	0.462578	0.589140	0.734833
	H5728	H	0.400386	0.525454	0.788236
	H5729	H	0.462779	0.588240	0.764697
	H5730	H	0.412072	0.537189	0.712765
	H5731	H	0.474728	0.599181	0.735336
	Co5732	Co	0.499976	0.625126	0.624984
	Co5733	Co	0.437481	0.562512	0.624945
	Co5734	Co	0.375030	0.500063	0.875755
	Co5735	Co	0.437503	0.562516	0.875822
	C5736	C	0.395266	0.656037	0.923227
	C5737	C	0.448685	0.535553	0.923976
	C5738	C	0.426275	0.589383	0.576660
	C5739	C	0.479821	0.468993	0.577023
	C5740	C	0.426397	0.589555	0.924053
	C5741	C	0.479898	0.469128	0.922605
	C5742	C	0.395155	0.655916	0.577095
	C5743	C	0.448676	0.535576	0.576456
	C5744	C	0.424625	0.546835	0.675090
	C5745	C	0.487022	0.609666	0.674657
	C5746	C	0.387911	0.515748	0.825661
	C5747	C	0.450460	0.577970	0.825271
	C5748	C	0.387862	0.515889	0.674342
	C5749	C	0.450410	0.578132	0.673982
	C5750	C	0.424551	0.547059	0.825827
	C5751	C	0.487106	0.609441	0.825913
	C5752	C	0.398913	0.648478	1.000087
	C5753	C	0.452154	0.527644	0.500308
	C5754	C	0.422799	0.597214	1.000259
	C5755	C	0.476226	0.476738	0.500092
	C5756	C	0.420440	0.543069	0.750740
	C5757	C	0.482932	0.605626	0.750305
	C5758	C	0.392029	0.519705	0.749940
	C5759	C	0.454598	0.581893	0.749569
	C5760	C	0.405010	0.635587	0.999693
	C5761	C	0.458203	0.514666	0.500408
	C5762	C	0.416774	0.610281	0.999814
	C5763	C	0.470095	0.489528	0.500414
	C5764	C	0.413262	0.537049	0.750604
	C5765	C	0.475794	0.599438	0.750119
	C5766	C	0.399202	0.525754	0.750062
	C5767	C	0.461761	0.587985	0.749686
	C5768	C	0.408254	0.629514	0.971659
	C5769	C	0.461254	0.508107	0.980910
	C5770	C	0.413500	0.616250	0.524945
	C5771	C	0.467032	0.496025	0.564369
	C5772	C	0.413978	0.617238	0.972008
	C5773	C	0.467004	0.495877	0.980641
	C5774	C	0.407773	0.628538	0.524763
	C5775	C	0.461267	0.508264	0.564218
	C5776	C	0.409826	0.533565	0.771867
	C5777	C	0.472266	0.596263	0.758195
	C5778	C	0.402653	0.529142	0.728571
	C5779	C	0.465276	0.591186	0.741443
	C5780	C	0.402952	0.528047	0.771713
	C5781	C	0.465411	0.590634	0.758112
	C5782	C	0.409535	0.534654	0.729144
	C5783	C	0.472141	0.596780	0.741588
	N5784	N	0.389870	0.667105	0.952443
	N5785	N	0.443543	0.547105	0.952824
	N5786	N	0.431434	0.577796	0.547929
	N5787	N	0.485187	0.457907	0.547887
	N5788	N	0.431554	0.577983	0.952706
	N5789	N	0.485273	0.458060	0.952251
	N5790	N	0.389776	0.667015	0.547918
	N5791	N	0.443531	0.547144	0.547859
	N5792	N	0.430769	0.552636	0.703413
	N5793	N	0.493160	0.615489	0.703039
	N5794	N	0.381799	0.509813	0.796903
	N5795	N	0.444334	0.572148	0.796830
	N5796	N	0.381763	0.509927	0.703215
	N5797	N	0.444279	0.572296	0.703045
	N5798	N	0.430724	0.552784	0.797277
	N5799	N	0.493215	0.615394	0.797142
	H5800	H	0.391564	0.736998	0.348402
	H5801	H	0.458580	0.716493	0.349571
	H5802	H	0.428827	0.754673	0.152068
	H5803	H	0.487932	0.654219	0.148927
	H5804	H	0.428771	0.754274	0.347311
	H5805	H	0.487969	0.654243	0.351122
	H5806	H	0.391513	0.736577	0.151619
	H5807	H	0.458511	0.716248	0.150555
	H5808	H	0.433269	0.720372	0.098876
	H5809	H	0.495765	0.782979	0.098683
	H5810	H	0.396970	0.697166	0.401151
	H5811	H	0.459450	0.759960	0.400068
	H5812	H	0.397027	0.697006	0.099930
	H5813	H	0.459750	0.758993	0.099662
	H5814	H	0.433306	0.720560	0.401443
	H5815	H	0.495816	0.783101	0.401255
	H5816	H	0.404042	0.740692	0.351090
	H5817	H	0.468584	0.696880	0.497327
	H5818	H	0.416584	0.748801	-0.149753
	H5819	H	0.478418	0.674630	-0.013837
	H5820	H	0.416613	0.748310	0.350613
	H5821	H	0.478730	0.675274	0.497555
	H5822	H	0.404022	0.741115	-0.149850
	H5823	H	0.468174	0.696131	-0.012479
	H5824	H	0.421887	0.710560	0.398375
	H5825	H	0.484385	0.773138	0.398234
	H5826	H	0.409257	0.703135	0.102382
	H5827	H	0.471829	0.765439	0.103223
	H5828	H	0.409264	0.703300	0.398045
	H5829	H	0.471690	0.765799	0.397771
	H5830	H	0.421963	0.710279	0.102915
	H5831	H	0.484422	0.772902	0.103553
	Co5832	Co	0.507753	0.806096	0.124404
	Co5833	Co	0.445314	0.743545	0.124054
	Co5834	Co	0.382800	0.681114	0.375783
	Co5835	Co	0.445353	0.743655	0.374578
	C5836	C	0.390152	0.737647	0.422952
	C5837	C	0.457640	0.718538	0.422827
	C5838	C	0.430204	0.754283	0.077562
	C5839	C	0.488884	0.652054	0.075889
	C5840	C	0.430179	0.754103	0.422300
	C5841	C	0.488897	0.652076	0.423773
	C5842	C	0.390184	0.737360	0.077169
	C5843	C	0.457615	0.718296	0.077137
	C5844	C	0.434286	0.721972	0.173045
	C5845	C	0.496796	0.784436	0.173073
	C5846	C	0.395769	0.696526	0.327439
	C5847	C	0.458248	0.759073	0.326419
	C5848	C	0.395787	0.696389	0.173449
	C5849	C	0.458404	0.758602	0.172916
	C5850	C	0.434295	0.722052	0.327478
	C5851	C	0.496816	0.784475	0.327577
	C5852	C	0.395024	0.737328	0.500255
	C5853	C	0.461305	0.710826	0.000177
	C5854	C	0.425377	0.753456	0.499676
	C5855	C	0.485379	0.659890	-0.000478
	C5856	C	0.430311	0.717223	0.250435
	C5857	C	0.492803	0.779655	0.250700
	C5858	C	0.400297	0.699168	0.250442
	C5859	C	0.462845	0.761501	0.250141
	C5860	C	0.402910	0.740216	0.500401
	C5861	C	0.467442	0.698007	0.000231
	C5862	C	0.417685	0.749418	0.499985
	C5863	C	0.479355	0.672932	-0.000178
	C5864	C	0.422983	0.711360	0.250455
	C5865	C	0.485490	0.773772	0.251002
	C5866	C	0.408045	0.702990	0.250317
	C5867	C	0.470577	0.765380	0.250620
	C5868	C	0.406741	0.742380	0.417186
	C5869	C	0.470643	0.691972	0.498293
	C5870	C	0.413898	0.747129	-0.083213
	C5871	C	0.476250	0.679302	-0.007379
	C5872	C	0.413909	0.746797	0.417042
	C5873	C	0.476413	0.679723	0.498340
	C5874	C	0.406736	0.742605	-0.083321
	C5875	C	0.470467	0.691475	-0.007137
	C5876	C	0.419185	0.708950	0.332724
	C5877	C	0.481687	0.771456	0.333048
	C5878	C	0.411953	0.704791	0.167983
	C5879	C	0.474483	0.767234	0.168491
	C5880	C	0.411953	0.704892	0.332535
	C5881	C	0.474455	0.767342	0.332923
	C5882	C	0.419189	0.708871	0.168076
	C5883	C	0.481704	0.771334	0.168767
	N5884	N	0.382904	0.739032	0.451415
	N5885	N	0.452276	0.729610	0.452156
	N5886	N	0.437418	0.754379	0.048802
	N5887	N	0.494044	0.640495	0.047325
	N5888	N	0.437378	0.754296	0.450254
	N5889	N	0.494051	0.640532	0.452906
	N5890	N	0.382927	0.738764	0.048628
	N5891	N	0.452252	0.729423	0.047659
	N5892	N	0.440004	0.729483	0.201706
	N5893	N	0.502486	0.791968	0.201967
	N5894	N	0.389149	0.692392	0.298644
	N5895	N	0.451621	0.754958	0.297412
	N5896	N	0.389146	0.692332	0.201995
	N5897	N	0.451722	0.754661	0.201049
	N5898	N	0.439998	0.729555	0.297872
	N5899	N	0.502495	0.791973	0.298240
	H5900	H	0.391540	0.737020	0.848372
	H5901	H	0.458616	0.716446	0.849742
	H5902	H	0.428861	0.754612	0.651988
	H5903	H	0.487819	0.654135	0.647890
	H5904	H	0.428798	0.754217	0.848244
	H5905	H	0.487868	0.654162	0.850099
	H5906	H	0.391539	0.737057	0.651958
	H5907	H	0.458587	0.716393	0.649777
	H5908	H	0.433403	0.720321	0.597811
	H5909	H	0.495776	0.783073	0.598844
	H5910	H	0.397043	0.697303	0.901073
	H5911	H	0.459549	0.759802	0.900591
	H5912	H	0.397077	0.697126	0.599399
	H5913	H	0.459614	0.759490	0.598938
	H5914	H	0.433421	0.720206	0.901886
	H5915	H	0.495801	0.783258	0.902676
	H5916	H	0.404106	0.740619	1.150333
	H5917	H	0.468382	0.696463	1.012699
	H5918	H	0.416649	0.748121	0.649918
	H5919	H	0.478153	0.674113	0.501605
	H5920	H	0.416663	0.748154	1.150481
	H5921	H	0.478577	0.674964	1.013710
	H5922	H	0.404116	0.740603	0.650252
	H5923	H	0.468039	0.695809	0.501814
	H5924	H	0.421862	0.710927	0.896703
	H5925	H	0.484520	0.772524	0.603155
	H5926	H	0.409416	0.702488	0.603672
	H5927	H	0.471656	0.766182	0.897476
	H5928	H	0.409182	0.703869	0.897164
	H5929	H	0.471870	0.765210	0.603056
	H5930	H	0.422087	0.709688	0.602666
	H5931	H	0.484326	0.773432	0.897491
	Co5932	Co	0.507833	0.806121	0.624459
	Co5933	Co	0.445344	0.743630	0.623991
	Co5934	Co	0.382850	0.681083	0.875438
	Co5935	Co	0.445358	0.743565	0.875083
	C5936	C	0.390184	0.737504	0.922419
	C5937	C	0.457674	0.718391	0.923117
	C5938	C	0.430198	0.754235	0.577215
	C5939	C	0.488819	0.652030	0.575724
	C5940	C	0.430197	0.754093	0.922414
	C5941	C	0.488862	0.652026	0.923294
	C5942	C	0.390142	0.737703	0.577802
	C5943	C	0.457648	0.718487	0.576351
	C5944	C	0.434351	0.722039	0.672192
	C5945	C	0.496804	0.784500	0.672987
	C5946	C	0.395859	0.696384	0.827266
	C5947	C	0.458303	0.759031	0.827170
	C5948	C	0.395851	0.696350	0.673108
	C5949	C	0.458365	0.758824	0.672766
	C5950	C	0.434397	0.721900	0.827144
	C5951	C	0.496777	0.784668	0.827686
	C5952	C	0.395067	0.737096	0.999704
	C5953	C	0.461353	0.710936	0.499569
	C5954	C	0.425392	0.753480	0.999947
	C5955	C	0.485344	0.659897	0.499449
	C5956	C	0.430395	0.717103	0.749740
	C5957	C	0.492806	0.779800	0.750456
	C5958	C	0.400376	0.699046	0.750265
	C5959	C	0.462844	0.761582	0.749962
	C5960	C	0.402921	0.740153	1.000112
	C5961	C	0.467478	0.698118	0.499482
	C5962	C	0.417688	0.749480	1.000207
	C5963	C	0.479318	0.672890	0.499392
	C5964	C	0.423070	0.711250	0.749681
	C5965	C	0.485510	0.773872	0.750346
	C5966	C	0.408097	0.702913	0.750353
	C5967	C	0.470573	0.765474	0.750055
	C5968	C	0.406768	0.742328	1.083837
	C5969	C	0.470562	0.691665	1.007492
	C5970	C	0.413935	0.746762	0.583394
	C5971	C	0.476115	0.679062	0.500671
	C5972	C	0.413936	0.746776	1.083736
	C5973	C	0.476355	0.679510	1.007429
	C5974	C	0.406760	0.742357	0.583739
	C5975	C	0.470365	0.691344	0.500788
	C5976	C	0.419188	0.709194	0.831721
	C5977	C	0.481773	0.771156	0.668250
	C5978	C	0.412068	0.704491	0.668390
	C5979	C	0.474412	0.767643	0.832298
	C5980	C	0.411938	0.705153	0.832138
	C5981	C	0.474533	0.767105	0.668089
	C5982	C	0.419319	0.708517	0.667902
	C5983	C	0.481642	0.771732	0.832397
	N5984	N	0.382938	0.738816	0.950922
	N5985	N	0.452282	0.729463	0.952320
	N5986	N	0.437411	0.754335	0.548477
	N5987	N	0.493989	0.640465	0.547563
	N5988	N	0.437393	0.754282	0.950691
	N5989	N	0.494002	0.640452	0.952146
	N5990	N	0.382882	0.739075	0.548797
	N5991	N	0.452286	0.729556	0.547127
	N5992	N	0.440056	0.729528	0.701385
	N5993	N	0.502493	0.792049	0.701940
	N5994	N	0.389231	0.692323	0.798549
	N5995	N	0.451683	0.754887	0.798253
	N5996	N	0.389198	0.692342	0.701851
	N5997	N	0.451726	0.754769	0.701460
	N5998	N	0.440057	0.729486	0.797819
	N5999	N	0.502460	0.792167	0.798301
	H6000	H	0.383718	0.808244	0.347344
	H6001	H	0.454008	0.799362	0.347947
	H6002	H	0.420936	0.825826	0.151152
	H6003	H	0.491282	0.816951	0.152126
	H6004	H	0.420973	0.825752	0.347066
	H6005	H	0.491248	0.816992	0.347617
	H6006	H	0.383738	0.808199	0.151670
	H6007	H	0.453984	0.799637	0.151380
	H6008	H	0.424741	0.791859	0.097781
	H6009	H	0.487242	0.854277	0.097164
	H6010	H	0.387698	0.771292	0.401267
	H6011	H	0.450197	0.833441	0.401299
	H6012	H	0.387758	0.770838	0.097918
	H6013	H	0.450141	0.833742	0.096926
	H6014	H	0.424854	0.791537	0.401603
	H6015	H	0.487243	0.854205	0.401063
	H6016	H	0.395909	0.814534	0.650347
	H6017	H	0.466557	0.803144	0.650279
	H6018	H	0.408446	0.821995	0.149653
	H6019	H	0.479139	0.810769	0.150078
	H6020	H	0.408421	0.822124	0.649718
	H6021	H	0.479072	0.810919	0.650012
	H6022	H	0.395878	0.814361	0.149520
	H6023	H	0.466580	0.803296	0.150124
	H6024	H	0.412719	0.784302	0.100390
	H6025	H	0.475132	0.847033	0.399388
	H6026	H	0.399807	0.778393	0.399235
	H6027	H	0.462327	0.840531	0.098928
	H6028	H	0.399880	0.778082	0.099210
	H6029	H	0.462303	0.841020	0.399263
	H6030	H	0.412702	0.784385	0.400502
	H6031	H	0.475123	0.846831	0.098805
	Co6032	Co	0.499908	0.875168	0.123668
	Co6033	Co	0.437514	0.812684	0.123624
	Co6034	Co	0.374967	0.750204	0.375621
	Co6035	Co	0.437506	0.812668	0.375513
	C6036	C	0.382346	0.808575	0.421939
	C6037	C	0.452642	0.800066	0.422459
	C6038	C	0.422328	0.825187	0.077022
	C6039	C	0.492652	0.816721	0.077445
	C6040	C	0.422327	0.825225	0.421511
	C6041	C	0.492629	0.816618	0.422237
	C6042	C	0.382361	0.808464	0.076554
	C6043	C	0.452653	0.800095	0.077152
	C6044	C	0.425863	0.793041	0.172364
	C6045	C	0.488300	0.855493	0.171698
	C6046	C	0.386662	0.769752	0.327020
	C6047	C	0.449146	0.832175	0.326758
	C6048	C	0.386690	0.769562	0.172425
	C6049	C	0.449102	0.832331	0.171789
	C6050	C	0.425905	0.792938	0.327159
	C6051	C	0.488291	0.855483	0.326447
	C6052	C	0.387134	0.809222	0.499692
	C6053	C	0.457534	0.799852	-0.000178
	C6054	C	0.417467	0.825576	0.499102
	C6055	C	0.487842	0.816094	-0.000066
	C6056	C	0.421583	0.789224	0.249963
	C6057	C	0.483984	0.851837	0.249013
	C6058	C	0.390959	0.773458	0.249728
	C6059	C	0.453432	0.835974	0.249319
	C6060	C	0.394848	0.813224	0.499880
	C6061	C	0.465383	0.802858	0.000109
	C6062	C	0.409619	0.822528	0.499293
	C6063	C	0.480124	0.812100	0.000144
	C6064	C	0.413913	0.784836	0.250234
	C6065	C	0.476339	0.847423	0.249091
	C6066	C	0.398635	0.777831	0.249378
	C6067	C	0.461101	0.840313	0.249168
	C6068	C	0.398599	0.815948	0.583340
	C6069	C	0.469198	0.804910	0.583447
	C6070	C	0.405761	0.820255	0.083052
	C6071	C	0.476400	0.809372	0.083444
	C6072	C	0.405771	0.820329	0.582880
	C6073	C	0.476375	0.809308	0.583347
	C6074	C	0.398601	0.815780	0.082751
	C6075	C	0.469243	0.804952	0.083468
	C6076	C	0.409949	0.783010	0.166955
	C6077	C	0.472402	0.845670	0.332600
	C6078	C	0.402601	0.779637	0.332766
	C6079	C	0.465042	0.841999	0.165650
	C6080	C	0.402596	0.779547	0.166045
	C6081	C	0.465049	0.842229	0.332492
	C6082	C	0.409980	0.783038	0.333579
	C6083	C	0.472389	0.845546	0.165681
	N6084	N	0.375136	0.808451	0.450363
	N6085	N	0.445406	0.801407	0.450972
	N6086	N	0.429570	0.823929	0.048274
	N6087	N	0.499850	0.816785	0.048696
	N6088	N	0.429583	0.823932	0.450540
	N6089	N	0.499843	0.816796	0.450556
	N6090	N	0.375160	0.808382	0.048363
	N6091	N	0.445404	0.801462	0.048064
	N6092	N	0.432025	0.799132	0.200987
	N6093	N	0.494501	0.861443	0.200577
	N6094	N	0.380470	0.763687	0.298160
	N6095	N	0.442939	0.826222	0.297797
	N6096	N	0.380497	0.763554	0.201244
	N6097	N	0.442905	0.826323	0.200693
	N6098	N	0.432053	0.799087	0.298025
	N6099	N	0.494495	0.861422	0.297769
	H6100	H	0.383667	0.808177	0.846716
	H6101	H	0.454037	0.799677	0.847726
	H6102	H	0.420973	0.825861	0.651544
	H6103	H	0.491276	0.816888	0.651643
	H6104	H	0.420969	0.825887	0.847209
	H6105	H	0.491233	0.817000	0.847831
	H6106	H	0.383692	0.808165	0.651027
	H6107	H	0.453972	0.799582	0.652148
	H6108	H	0.424767	0.791814	0.597202
	H6109	H	0.487343	0.854060	0.597806
	H6110	H	0.387736	0.770815	0.901400
	H6111	H	0.450188	0.833700	0.901708
	H6112	H	0.387658	0.771014	0.598323
	H6113	H	0.450294	0.833269	0.597724
	H6114	H	0.424716	0.791727	0.901368
	H6115	H	0.487225	0.854210	0.901299
	H6116	H	0.395966	0.814186	0.848155
	H6117	H	0.466486	0.803500	0.850036
	H6118	H	0.408444	0.821847	0.349097
	H6119	H	0.479009	0.811157	0.349843
	H6120	H	0.408456	0.821751	0.848766
	H6121	H	0.479088	0.811167	0.850138
	H6122	H	0.395952	0.814045	0.349410
	H6123	H	0.466489	0.803499	0.350032
	H6124	H	0.412661	0.784414	0.899152
	H6125	H	0.475125	0.847055	0.599193
	H6126	H	0.399835	0.778087	0.599326
	H6127	H	0.462382	0.840651	0.899428
	H6128	H	0.399863	0.778252	0.899800
	H6129	H	0.462320	0.840919	0.599254
	H6130	H	0.412664	0.784409	0.598837
	H6131	H	0.475236	0.846735	0.899280
	Co6132	Co	0.500053	0.874926	0.623904
	Co6133	Co	0.437500	0.812672	0.623935
	Co6134	Co	0.375035	0.750028	0.875669
	Co6135	Co	0.437442	0.812733	0.875081
	C6136	C	0.382363	0.808346	0.921347
	C6137	C	0.452669	0.800259	0.922070
	C6138	C	0.422336	0.825263	0.576790
	C6139	C	0.492645	0.816585	0.577241
	C6140	C	0.422322	0.825270	0.921840
	C6141	C	0.492642	0.816667	0.922161
	C6142	C	0.382317	0.808574	0.577081
	C6143	C	0.452638	0.800048	0.577462
	C6144	C	0.425836	0.793068	0.671947
	C6145	C	0.488372	0.855360	0.672075
	C6146	C	0.386689	0.769504	0.826931
	C6147	C	0.449132	0.832322	0.826912
	C6148	C	0.386629	0.769667	0.672643
	C6149	C	0.449170	0.832154	0.672122
	C6150	C	0.425791	0.793096	0.826901
	C6151	C	0.488304	0.855487	0.827006
	C6152	C	0.387159	0.809062	0.999076
	C6153	C	0.457515	0.799713	0.499974
	C6154	C	0.417445	0.825513	0.999563
	C6155	C	0.487839	0.815923	0.499716
	C6156	C	0.421517	0.789293	0.749155
	C6157	C	0.484044	0.851693	0.749495
	C6158	C	0.390980	0.773325	0.749613
	C6159	C	0.453470	0.835935	0.749543
	C6160	C	0.394853	0.813107	0.999105
	C6161	C	0.465366	0.802757	0.499858
	C6162	C	0.409598	0.822457	0.999578
	C6163	C	0.480123	0.811994	0.499726
	C6164	C	0.413857	0.784865	0.748942
	C6165	C	0.476368	0.847375	0.749410
	C6166	C	0.398630	0.777647	0.749536
	C6167	C	0.461123	0.840335	0.749422
	C6168	C	0.398627	0.815653	0.915358
	C6169	C	0.469192	0.805135	0.916585
	C6170	C	0.405782	0.820221	0.415893
	C6171	C	0.476324	0.809519	0.416232
	C6172	C	0.405776	0.820188	0.915645
	C6173	C	0.476356	0.809594	0.916556
	C6174	C	0.398638	0.815698	0.416251
	C6175	C	0.469169	0.805087	0.416430
	C6176	C	0.409905	0.783050	0.832402
	C6177	C	0.472404	0.845642	0.666061
	C6178	C	0.402558	0.779502	0.666075
	C6179	C	0.465094	0.842056	0.832663
	C6180	C	0.402554	0.779570	0.832797
	C6181	C	0.465059	0.842162	0.666026
	C6182	C	0.409911	0.783063	0.665581
	C6183	C	0.472455	0.845526	0.832716
	N6184	N	0.375149	0.808348	0.950121
	N6185	N	0.445407	0.801538	0.950533
	N6186	N	0.429583	0.823922	0.548147
	N6187	N	0.499861	0.816759	0.548766
	N6188	N	0.429573	0.823984	0.950775
	N6189	N	0.499863	0.816765	0.950620
	N6190	N	0.375109	0.808462	0.548375
	N6191	N	0.445397	0.801366	0.548556
	N6192	N	0.432001	0.799176	0.701272
	N6193	N	0.494554	0.861422	0.701330
	N6194	N	0.380470	0.763659	0.798593
	N6195	N	0.442937	0.826337	0.798178
	N6196	N	0.380444	0.763699	0.701477
	N6197	N	0.442966	0.826211	0.701028
	N6198	N	0.431992	0.799114	0.798336
	N6199	N	0.494518	0.861492	0.798170
	H6200	H	0.387104	0.971082	0.350343
	H6201	H	0.446162	0.870871	0.346681
	H6202	H	0.416435	0.908899	0.149584
	H6203	H	0.483367	0.888221	0.151236
	H6204	H	0.416221	0.908551	0.348418
	H6205	H	0.483566	0.888427	0.347167
	H6206	H	0.387364	0.971384	0.148076
	H6207	H	0.446179	0.870605	0.151050
	H6208	H	0.415520	0.865396	0.098081
	H6209	H	0.478030	0.927764	0.098447
	H6210	H	0.379177	0.842216	0.400469
	H6211	H	0.441568	0.904985	0.400216
	H6212	H	0.379259	0.842003	0.097484
	H6213	H	0.441694	0.904550	0.097265
	H6214	H	0.415511	0.865454	0.400248
	H6215	H	0.478001	0.927764	0.399005
	H6216	H	0.396925	0.951298	0.468112
	H6217	H	0.458433	0.876873	0.348956
	H6218	H	0.406932	0.929512	0.076700
	H6219	H	0.470893	0.884340	-0.150775
	H6220	H	0.407128	0.929696	0.467843
	H6221	H	0.470980	0.884471	0.349005
	H6222	H	0.396800	0.951171	0.076637
	H6223	H	0.458399	0.876658	-0.151252
	H6224	H	0.403222	0.859607	0.101666
	H6225	H	0.465771	0.921945	0.101093
	H6226	H	0.390641	0.851952	0.397139
	H6227	H	0.453116	0.914402	0.395966
	H6228	H	0.390568	0.852390	0.101169
	H6229	H	0.453015	0.914953	0.100829
	H6230	H	0.403323	0.859107	0.397288
	H6231	H	0.465823	0.921513	0.396104
	Co6232	Co	0.492181	0.943993	0.123619
	Co6233	Co	0.429661	0.881572	0.123419
	Co6234	Co	0.367226	0.819128	0.374634
	Co6235	Co	0.429639	0.881655	0.374193
	C6236	C	0.386150	0.973108	0.423274
	C6237	C	0.444814	0.871135	0.421198
	C6238	C	0.417339	0.906795	0.075878
	C6239	C	0.484765	0.887629	0.076879
	C6240	C	0.417241	0.906631	0.422188
	C6241	C	0.484891	0.887697	0.421703
	C6242	C	0.386299	0.973368	0.075311
	C6243	C	0.444794	0.870815	0.076437
	C6244	C	0.416706	0.866127	0.172024
	C6245	C	0.479239	0.928596	0.171970
	C6246	C	0.378198	0.840635	0.326287
	C6247	C	0.440672	0.903217	0.325869
	C6248	C	0.378204	0.840587	0.171745
	C6249	C	0.440710	0.903068	0.171504
	C6250	C	0.416699	0.866185	0.326134
	C6251	C	0.479201	0.928626	0.325468
	C6252	C	0.389641	0.965236	0.499676
	C6253	C	0.449600	0.871466	-0.001073
	C6254	C	0.413611	0.914185	0.499225
	C6255	C	0.479887	0.888031	-0.000697
	C6256	C	0.412189	0.863434	0.249158
	C6257	C	0.474708	0.925995	0.248586
	C6258	C	0.382213	0.845383	0.249049
	C6259	C	0.444654	0.907989	0.248612
	C6260	C	0.395647	0.952156	0.499412
	C6261	C	0.457292	0.875623	-0.000811
	C6262	C	0.407474	0.926994	0.499126
	C6263	C	0.472031	0.884988	-0.000799
	C6264	C	0.404470	0.859563	0.249397
	C6265	C	0.466945	0.922172	0.248321
	C6266	C	0.389536	0.851242	0.249225
	C6267	C	0.451988	0.913872	0.248327
	C6268	C	0.398928	0.946144	0.481841
	C6269	C	0.461126	0.878364	0.415527
	C6270	C	0.404583	0.933895	0.042450
	C6271	C	0.468234	0.882666	-0.084217
	C6272	C	0.404696	0.933956	0.481560
	C6273	C	0.468288	0.882843	0.415424
	C6274	C	0.398847	0.946171	0.042492
	C6275	C	0.461086	0.878166	-0.084324
	C6276	C	0.400525	0.857881	0.166886
	C6277	C	0.463027	0.920382	0.166174
	C6278	C	0.393367	0.853474	0.331853
	C6279	C	0.455833	0.916079	0.330664
	C6280	C	0.393290	0.853811	0.166792
	C6281	C	0.455785	0.916360	0.166119
	C6282	C	0.400610	0.857505	0.331873
	C6283	C	0.463075	0.920076	0.330616
	N6284	N	0.381016	0.984674	0.452329
	N6285	N	0.437604	0.870956	0.449743
	N6286	N	0.422695	0.895671	0.046740
	N6287	N	0.492024	0.886389	0.048111
	N6288	N	0.422674	0.895617	0.451505
	N6289	N	0.492145	0.886248	0.450549
	N6290	N	0.381110	0.984877	0.046769
	N6291	N	0.437577	0.870796	0.047920
	N6292	N	0.423330	0.870303	0.200609
	N6293	N	0.485886	0.932650	0.200830
	N6294	N	0.372481	0.833193	0.297198
	N6295	N	0.434941	0.895730	0.296995
	N6296	N	0.372498	0.833133	0.200989
	N6297	N	0.434999	0.895585	0.200687
	N6298	N	0.423328	0.870301	0.297456
	N6299	N	0.485865	0.932659	0.297127
	H6300	H	0.387000	0.970839	0.849645
	H6301	H	0.446173	0.870563	0.846817
	H6302	H	0.416430	0.908770	0.649801
	H6303	H	0.483529	0.888126	0.650806
	H6304	H	0.416198	0.908400	0.848809
	H6305	H	0.483422	0.888388	0.847256
	H6306	H	0.386989	0.970863	0.648855
	H6307	H	0.446227	0.870604	0.650826
	H6308	H	0.415486	0.865213	0.597836
	H6309	H	0.478118	0.927890	0.598686
	H6310	H	0.379305	0.841835	0.901248
	H6311	H	0.441742	0.904500	0.900728
	H6312	H	0.379032	0.842439	0.598087
	H6313	H	0.441743	0.904753	0.597586
	H6314	H	0.415397	0.865691	0.899422
	H6315	H	0.477972	0.928262	0.899913
	H6316	H	0.396197	0.949753	0.921453
	H6317	H	0.458300	0.876842	1.149188
	H6318	H	0.406224	0.928005	0.530425
	H6319	H	0.470957	0.884685	0.648886
	H6320	H	0.406348	0.928114	0.921643
	H6321	H	0.470855	0.884638	1.148998
	H6322	H	0.396037	0.949589	0.530662
	H6323	H	0.458409	0.877066	0.649136
	H6324	H	0.403174	0.859616	0.600281
	H6325	H	0.465743	0.922039	0.601749
	H6326	H	0.390651	0.851852	0.897893
	H6327	H	0.453166	0.914575	0.896930
	H6328	H	0.390497	0.852340	0.600729
	H6329	H	0.453107	0.914675	0.602261
	H6330	H	0.403315	0.859124	0.897285
	H6331	H	0.465835	0.921870	0.896587
	Co6332	Co	0.492236	0.944074	0.624208
	Co6333	Co	0.429699	0.881618	0.623699
	Co6334	Co	0.367218	0.818936	0.874783
	Co6335	Co	0.429646	0.881553	0.874296
	C6336	C	0.386091	0.973069	0.922663
	C6337	C	0.444799	0.870832	0.921371
	C6338	C	0.417325	0.906738	0.576403
	C6339	C	0.484884	0.887600	0.576598
	C6340	C	0.417217	0.906552	0.922153
	C6341	C	0.484762	0.887753	0.921711
	C6342	C	0.386096	0.973000	0.576149
	C6343	C	0.444836	0.871011	0.576169
	C6344	C	0.416715	0.866154	0.671494
	C6345	C	0.479288	0.928647	0.672503
	C6346	C	0.378210	0.840482	0.826838
	C6347	C	0.440724	0.903020	0.826512
	C6348	C	0.378101	0.840747	0.672434
	C6349	C	0.440746	0.903097	0.671907
	C6350	C	0.416650	0.866339	0.825878
	C6351	C	0.479222	0.928832	0.826226
	C6352	C	0.389671	0.965346	0.998947
	C6353	C	0.449640	0.871726	0.498727
	C6354	C	0.413594	0.914227	0.998952
	C6355	C	0.480015	0.888070	0.499029
	C6356	C	0.412156	0.863603	0.748588
	C6357	C	0.474745	0.926007	0.749427
	C6358	C	0.382142	0.845420	0.749640
	C6359	C	0.444752	0.907810	0.749424
	C6360	C	0.395669	0.952308	0.999079
	C6361	C	0.457349	0.875770	0.498886
	C6362	C	0.407475	0.927074	0.998890
	C6363	C	0.472142	0.885039	0.498898
	C6364	C	0.404426	0.859668	0.748662
	C6365	C	0.467031	0.922174	0.749413
	C6366	C	0.389479	0.851278	0.749335
	C6367	C	0.452078	0.913713	0.749638
	C6368	C	0.398536	0.945402	0.955640
	C6369	C	0.461026	0.878376	1.082761
	C6370	C	0.404195	0.933042	0.516654
	C6371	C	0.468293	0.882817	0.582418
	C6372	C	0.404265	0.933139	0.955440
	C6373	C	0.468194	0.882842	1.082668
	C6374	C	0.398425	0.945240	0.516818
	C6375	C	0.461124	0.878416	0.582360
	C6376	C	0.400501	0.857869	0.666164
	C6377	C	0.463082	0.920338	0.667239
	C6378	C	0.393340	0.853495	0.831945
	C6379	C	0.455883	0.916141	0.831631
	C6380	C	0.393267	0.853781	0.666485
	C6381	C	0.455847	0.916223	0.667448
	C6382	C	0.400576	0.857591	0.831524
	C6383	C	0.463124	0.920250	0.831465
	N6384	N	0.380995	0.984706	0.951712
	N6385	N	0.437589	0.870753	0.949663
	N6386	N	0.422723	0.895698	0.547020
	N6387	N	0.492131	0.886204	0.548072
	N6388	N	0.422642	0.895561	0.951407
	N6389	N	0.492017	0.886432	0.950686
	N6390	N	0.380992	0.984623	0.547118
	N6391	N	0.437613	0.870893	0.547878
	N6392	N	0.423348	0.870259	0.700427
	N6393	N	0.485905	0.932799	0.701004
	N6394	N	0.372496	0.833000	0.797811
	N6395	N	0.435010	0.895604	0.797190
	N6396	N	0.372444	0.833110	0.701632
	N6397	N	0.435013	0.895637	0.700979
	N6398	N	0.423308	0.870305	0.797257
	N6399	N	0.485853	0.932912	0.797990
	H6400	H	0.511997	0.096045	0.349192
	H6401	H	0.571263	-0.004393	0.347185
	H6402	H	0.541223	0.033278	0.150227
	H6403	H	0.608567	0.013084	0.151054
	H6404	H	0.541303	0.033363	0.347885
	H6405	H	0.608511	0.013137	0.347495
	H6406	H	0.512199	0.096026	0.148732
	H6407	H	0.571269	-0.004360	0.151626
	H6408	H	0.540489	-0.009604	0.098254
	H6409	H	0.603068	0.052794	0.097870
	H6410	H	0.504212	-0.033086	0.400616
	H6411	H	0.566673	0.029696	0.400997
	H6412	H	0.504131	-0.032923	0.097354
	H6413	H	0.566753	0.029546	0.097849
	H6414	H	0.540489	-0.009671	0.400501
	H6415	H	0.603081	0.052750	0.399971
	H6416	H	0.521186	0.074476	0.464543
	H6417	H	0.583449	0.001420	0.349017
	H6418	H	0.531998	0.054410	-0.028290
	H6419	H	0.595908	0.009735	0.150191
	H6420	H	0.531287	0.052815	0.464534
	H6421	H	0.595996	0.009000	0.349072
	H6422	H	0.521830	0.076007	-0.028536
	H6423	H	0.583382	0.002194	0.150294
	H6424	H	0.528289	-0.015554	0.101359
	H6425	H	0.590695	0.047259	0.100554
	H6426	H	0.515665	-0.023116	0.397586
	H6427	H	0.578241	0.039144	0.398208
	H6428	H	0.515626	-0.022706	0.101258
	H6429	H	0.577984	0.040176	0.101173
	H6430	H	0.528332	-0.015881	0.396948
	H6431	H	0.590938	0.046268	0.397508
	Co6432	Co	0.617192	0.068902	0.123750
	Co6433	Co	0.554698	0.006518	0.124144
	Co6434	Co	0.492175	-0.056073	0.374784
	Co6435	Co	0.554714	0.006404	0.374395
	C6436	C	0.511137	0.098047	0.422607
	C6437	C	0.569880	-0.004156	0.421819
	C6438	C	0.542258	0.031417	0.076626
	C6439	C	0.609905	0.012617	0.077032
	C6440	C	0.542294	0.031404	0.422218
	C6441	C	0.609865	0.012675	0.421751
	C6442	C	0.511201	0.098114	0.075693
	C6443	C	0.569856	-0.004047	0.076981
	C6444	C	0.541718	-0.008950	0.172224
	C6445	C	0.604262	0.053488	0.171745
	C6446	C	0.503250	-0.034601	0.326195
	C6447	C	0.565689	0.028118	0.326614
	C6448	C	0.503208	-0.034488	0.171831
	C6449	C	0.565708	0.028104	0.172214
	C6450	C	0.541724	-0.008987	0.326256
	C6451	C	0.604276	0.053454	0.325992
	C6452	C	0.514663	0.090177	0.498836
	C6453	C	0.574692	-0.003371	-0.000536
	C6454	C	0.538640	0.038974	0.498940
	C6455	C	0.605013	0.012896	-0.000375
	C6456	C	0.537239	-0.011720	0.249290
	C6457	C	0.599739	0.050818	0.248756
	C6458	C	0.507249	-0.029779	0.249067
	C6459	C	0.569695	0.032934	0.249453
	C6460	C	0.520666	0.077087	0.498624
	C6461	C	0.582382	0.000666	-0.000325
	C6462	C	0.532505	0.051835	0.498511
	C6463	C	0.597143	0.009941	-0.000341
	C6464	C	0.529494	-0.015561	0.249226
	C6465	C	0.591994	0.047051	0.248924
	C6466	C	0.514569	-0.023926	0.249282
	C6467	C	0.577013	0.038822	0.249656
	C6468	C	0.523525	0.070133	0.479767
	C6469	C	0.586150	0.003051	0.415700
	C6470	C	0.529635	0.058735	-0.016038
	C6471	C	0.593274	0.007928	0.083442
	C6472	C	0.529254	0.057871	0.479493
	C6473	C	0.593313	0.007495	0.415748
	C6474	C	0.523868	0.070962	-0.016117
	C6475	C	0.586108	0.003472	0.083311
	C6476	C	0.525571	-0.017282	0.166660
	C6477	C	0.588019	0.045494	0.166519
	C6478	C	0.518368	-0.021563	0.331701
	C6479	C	0.580902	0.040865	0.332345
	C6480	C	0.518346	-0.021373	0.166869
	C6481	C	0.580759	0.041521	0.166756
	C6482	C	0.525591	-0.017471	0.331824
	C6483	C	0.588161	0.044880	0.331841
	N6484	N	0.505984	0.109590	0.451931
	N6485	N	0.562667	-0.004224	0.450545
	N6486	N	0.547665	0.020451	0.047312
	N6487	N	0.617140	0.011294	0.048086
	N6488	N	0.547728	0.020432	0.451598
	N6489	N	0.617109	0.011312	0.450496
	N6490	N	0.506057	0.109672	0.046947
	N6491	N	0.562638	-0.004124	0.048237
	N6492	N	0.548353	-0.004838	0.200987
	N6493	N	0.610883	0.057560	0.200377
	N6494	N	0.497531	-0.042058	0.297251
	N6495	N	0.559999	0.020576	0.297526
	N6496	N	0.497517	-0.042020	0.200850
	N6497	N	0.560048	0.020505	0.201257
	N6498	N	0.548354	-0.004879	0.297786
	N6499	N	0.610906	0.057541	0.297224
	H6500	H	0.512124	0.096044	0.849956
	H6501	H	0.571319	-0.004342	0.847398
	H6502	H	0.541362	0.033691	0.649582
	H6503	H	0.608498	0.013160	0.651894
	H6504	H	0.541440	0.033887	0.849618
	H6505	H	0.608491	0.013048	0.847222
	H6506	H	0.512138	0.095969	0.648737
	H6507	H	0.571286	-0.004419	0.651498
	H6508	H	0.540621	-0.010023	0.598470
	H6509	H	0.603060	0.052657	0.598763
	H6510	H	0.504203	-0.032656	0.900956
	H6511	H	0.566720	0.029596	0.900669
	H6512	H	0.504274	-0.032920	0.598007
	H6513	H	0.566737	0.029598	0.597925
	H6514	H	0.540556	-0.009607	0.899941
	H6515	H	0.603027	0.052972	0.900055
	H6516	H	0.521116	0.074577	1.027786
	H6517	H	0.583500	0.001308	0.849055
	H6518	H	0.531954	0.054469	0.533139
	H6519	H	0.595962	0.009408	0.649163
	H6520	H	0.531295	0.052991	1.027661
	H6521	H	0.596080	0.008945	0.849082
	H6522	H	0.521853	0.076160	0.533011
	H6523	H	0.583453	0.001682	0.649286
	H6524	H	0.528304	-0.015774	0.601671
	H6525	H	0.590888	0.046593	0.600896
	H6526	H	0.515679	-0.022763	0.897114
	H6527	H	0.578205	0.039330	0.897876
	H6528	H	0.515617	-0.022860	0.601710
	H6529	H	0.578205	0.039369	0.601224
	H6530	H	0.528398	-0.015770	0.896502
	H6531	H	0.590917	0.046437	0.897868
	Co6532	Co	0.617210	0.068821	0.623466
	Co6533	Co	0.554740	0.006517	0.624250
	Co6534	Co	0.492210	-0.055859	0.874342
	Co6535	Co	0.554714	0.006584	0.874434
	C6536	C	0.511173	0.098130	0.922900
	C6537	C	0.569886	-0.004046	0.921703
	C6538	C	0.542333	0.031545	0.576128
	C6539	C	0.609848	0.012640	0.577038
	C6540	C	0.542377	0.031695	0.922774
	C6541	C	0.609897	0.012546	0.922002
	C6542	C	0.511198	0.097986	0.575540
	C6543	C	0.569894	-0.004127	0.577128
	C6544	C	0.541808	-0.009069	0.672010
	C6545	C	0.604273	0.053424	0.672352
	C6546	C	0.503261	-0.034360	0.826936
	C6547	C	0.565742	0.028124	0.826463
	C6548	C	0.503291	-0.034458	0.672358
	C6549	C	0.565776	0.028066	0.672044
	C6550	C	0.541761	-0.008857	0.826270
	C6551	C	0.604259	0.053548	0.826244
	C6552	C	0.514687	0.090203	0.999197
	C6553	C	0.574686	-0.003479	0.499278
	C6554	C	0.538622	0.039113	0.999727
	C6555	C	0.604987	0.012988	0.499218
	C6556	C	0.537271	-0.011652	0.749229
	C6557	C	0.599782	0.050764	0.749273
	C6558	C	0.507247	-0.029589	0.749649
	C6559	C	0.569754	0.032856	0.749335
	C6560	C	0.520652	0.077091	0.999500
	C6561	C	0.582390	0.000523	0.499088
	C6562	C	0.532491	0.051918	0.999767
	C6563	C	0.597149	0.009898	0.499017
	C6564	C	0.529535	-0.015478	0.749232
	C6565	C	0.592073	0.046805	0.749320
	C6566	C	0.514556	-0.023706	0.749611
	C6567	C	0.577114	0.038563	0.749354
	C6568	C	0.523494	0.070267	1.015161
	C6569	C	0.586179	0.003036	0.915911
	C6570	C	0.529635	0.058764	0.517925
	C6571	C	0.593309	0.007678	0.582430
	C6572	C	0.529229	0.057958	1.015196
	C6573	C	0.593347	0.007504	0.915706
	C6574	C	0.523899	0.071028	0.517757
	C6575	C	0.586162	0.003142	0.582406
	C6576	C	0.525623	-0.017365	0.667147
	C6577	C	0.588178	0.044930	0.666623
	C6578	C	0.518393	-0.021314	0.831810
	C6579	C	0.580948	0.040845	0.832105
	C6580	C	0.518372	-0.021361	0.667167
	C6581	C	0.580944	0.040899	0.666782
	C6582	C	0.525645	-0.017317	0.831411
	C6583	C	0.588186	0.044854	0.832090
	N6584	N	0.506042	0.109672	0.952157
	N6585	N	0.562665	-0.004143	0.950088
	N6586	N	0.547752	0.020502	0.547287
	N6587	N	0.617103	0.011248	0.548360
	N6588	N	0.547752	0.020610	0.951898
	N6589	N	0.617127	0.011207	0.950505
	N6590	N	0.506026	0.109545	0.546913
	N6591	N	0.562679	-0.004218	0.548535
	N6592	N	0.548418	-0.004835	0.700922
	N6593	N	0.610923	0.057487	0.700937
	N6594	N	0.497553	-0.041831	0.797721
	N6595	N	0.560056	0.020610	0.797223
	N6596	N	0.497581	-0.041929	0.701353
	N6597	N	0.560075	0.020579	0.700956
	N6598	N	0.548382	-0.004739	0.797545
	N6599	N	0.610906	0.057613	0.797558
	H6600	H	0.521212	0.279017	0.349000
	H6601	H	0.574809	0.158756	0.349728
	H6602	H	0.550488	0.216418	0.150264
	H6603	H	0.603830	0.095977	0.149219
	H6604	H	0.550255	0.216361	0.350451
	H6605	H	0.603979	0.096176	0.347668
	H6606	H	0.521153	0.278847	0.151270
	H6607	H	0.574688	0.158519	0.150049
	H6608	H	0.548402	0.170879	0.102335
	H6609	H	0.610996	0.233140	0.103232
	H6610	H	0.514247	0.141239	0.396867
	H6611	H	0.576577	0.204040	0.398533
	H6612	H	0.514086	0.141754	0.101613
	H6613	H	0.576579	0.203937	0.102135
	H6614	H	0.548467	0.170606	0.397067
	H6615	H	0.610889	0.233334	0.398713
	H6616	H	0.531130	0.259383	0.402391
	H6617	H	0.583777	0.137220	0.390611
	H6618	H	0.540808	0.236503	0.015797
	H6619	H	0.593744	0.115532	0.060522
	H6620	H	0.541317	0.237766	0.403055
	H6621	H	0.593902	0.115563	0.390463
	H6622	H	0.530607	0.257997	0.015701
	H6623	H	0.583624	0.137267	0.060495
	H6624	H	0.537593	0.160035	0.240350
	H6625	H	0.599647	0.224290	0.218896
	H6626	H	0.525034	0.152058	0.259048
	H6627	H	0.587861	0.212932	0.283265
	H6628	H	0.525482	0.150006	0.239640
	H6629	H	0.587427	0.214425	0.218280
	H6630	H	0.537126	0.162264	0.258934
	H6631	H	0.600041	0.222831	0.283580
	Co6632	Co	0.625027	0.249878	0.125193
	Co6633	Co	0.562487	0.187485	0.124427
	Co6634	Co	0.500009	0.125113	0.375233
	Co6635	Co	0.562508	0.187387	0.375521
	C6636	C	0.520184	0.280957	0.422238
	C6637	C	0.573803	0.160733	0.422908
	C6638	C	0.551388	0.214371	0.076476
	C6639	C	0.604796	0.093939	0.075803
	C6640	C	0.551256	0.214248	0.422895
	C6641	C	0.604865	0.093983	0.421448
	C6642	C	0.520153	0.280858	0.077494
	C6643	C	0.573717	0.160609	0.077132
	C6644	C	0.549593	0.171911	0.174190
	C6645	C	0.612148	0.234187	0.174946
	C6646	C	0.513056	0.140252	0.325128
	C6647	C	0.575394	0.203093	0.326380
	C6648	C	0.512954	0.140519	0.173415
	C6649	C	0.575411	0.203002	0.174594
	C6650	C	0.549634	0.171779	0.325583
	C6651	C	0.612102	0.234258	0.326521
	C6652	C	0.523821	0.273257	0.499135
	C6653	C	0.577231	0.152779	0.000555
	C6654	C	0.547774	0.222190	0.499641
	C6655	C	0.601097	0.101481	-0.000722
	C6656	C	0.545466	0.167911	0.249913
	C6657	C	0.607972	0.230332	0.250610
	C6658	C	0.517166	0.144218	0.249251
	C6659	C	0.579528	0.206922	0.250634
	C6660	C	0.529927	0.260420	0.498863
	C6661	C	0.583263	0.139790	0.000415
	C6662	C	0.541751	0.235200	0.499857
	C6663	C	0.595020	0.114410	-0.000257
	C6664	C	0.538305	0.161852	0.249581
	C6665	C	0.600781	0.224294	0.251156
	C6666	C	0.524313	0.150284	0.249209
	C6667	C	0.586726	0.212869	0.250878
	C6668	C	0.533178	0.254363	0.444735
	C6669	C	0.586111	0.132816	0.438562
	C6670	C	0.538684	0.241458	0.008957
	C6671	C	0.591758	0.120541	0.033852
	C6672	C	0.538932	0.242098	0.445324
	C6673	C	0.591835	0.120515	0.438287
	C6674	C	0.532915	0.253687	0.009033
	C6675	C	0.586044	0.132862	0.034297
	C6676	C	0.534872	0.158288	0.244095
	C6677	C	0.597082	0.221777	0.232976
	C6678	C	0.527764	0.153825	0.254666
	C6679	C	0.590443	0.215400	0.269400
	C6680	C	0.528017	0.152645	0.243881
	C6681	C	0.590197	0.216216	0.232497
	C6682	C	0.534605	0.159516	0.254901
	C6683	C	0.597307	0.220994	0.269430
	N6684	N	0.514790	0.291987	0.451735
	N6685	N	0.568629	0.172197	0.452203
	N6686	N	0.556499	0.202828	0.047130
	N6687	N	0.610209	0.082947	0.046652
	N6688	N	0.556421	0.202728	0.451983
	N6689	N	0.610248	0.082902	0.450611
	N6690	N	0.514731	0.291840	0.048070
	N6691	N	0.568525	0.172101	0.048304
	N6692	N	0.555726	0.177713	0.202611
	N6693	N	0.618295	0.239971	0.203845
	N6694	N	0.506872	0.134587	0.296575
	N6695	N	0.569225	0.197344	0.297453
	N6696	N	0.506811	0.134715	0.202174
	N6697	N	0.569243	0.197297	0.202922
	N6698	N	0.555756	0.177632	0.296727
	N6699	N	0.618269	0.239983	0.298001
	H6700	H	0.521093	0.278709	0.849672
	H6701	H	0.574600	0.158473	0.851201
	H6702	H	0.550325	0.216415	0.649051
	H6703	H	0.603851	0.095819	0.649794
	H6704	H	0.550330	0.216519	0.850481
	H6705	H	0.603857	0.096179	0.849193
	H6706	H	0.520996	0.278285	0.650167
	H6707	H	0.574666	0.158221	0.648658
	H6708	H	0.548543	0.170419	0.600978
	H6709	H	0.610920	0.233182	0.602654
	H6710	H	0.514109	0.141472	0.897524
	H6711	H	0.576608	0.203958	0.898448
	H6712	H	0.514045	0.141632	0.601775
	H6713	H	0.576468	0.204435	0.601230
	H6714	H	0.548432	0.170859	0.898004
	H6715	H	0.611031	0.233194	0.899350
	H6716	H	0.531095	0.259393	0.986532
	H6717	H	0.584572	0.138723	0.939803
	H6718	H	0.540547	0.236245	0.596647
	H6719	H	0.594486	0.116482	0.607363
	H6720	H	0.541272	0.237819	0.986073
	H6721	H	0.594627	0.116924	0.939559
	H6722	H	0.530421	0.257883	0.596109
	H6723	H	0.584399	0.138273	0.607853
	H6724	H	0.536858	0.163193	0.748283
	H6725	H	0.599895	0.223598	0.757874
	H6726	H	0.525680	0.148969	0.750031
	H6727	H	0.587692	0.213534	0.742891
	H6728	H	0.524636	0.153430	0.748379
	H6729	H	0.587722	0.213639	0.757190
	H6730	H	0.537838	0.158938	0.749926
	H6731	H	0.599907	0.223365	0.743191
	Co6732	Co	0.625045	0.249965	0.625236
	Co6733	Co	0.562509	0.187448	0.624170
	Co6734	Co	0.499984	0.124925	0.875154
	Co6735	Co	0.562499	0.187431	0.875697
	C6736	C	0.520130	0.280754	0.923473
	C6737	C	0.573676	0.160579	0.924214
	C6738	C	0.551301	0.214309	0.576293
	C6739	C	0.604809	0.093837	0.575668
	C6740	C	0.551325	0.214413	0.923765
	C6741	C	0.604801	0.094039	0.922407
	C6742	C	0.520080	0.280588	0.576516
	C6743	C	0.573715	0.160462	0.575906
	C6744	C	0.549646	0.171675	0.673556
	C6745	C	0.612114	0.234296	0.674998
	C6746	C	0.512933	0.140471	0.825254
	C6747	C	0.575456	0.202920	0.825947
	C6748	C	0.512898	0.140568	0.673991
	C6749	C	0.575395	0.203126	0.673573
	C6750	C	0.549591	0.171857	0.825685
	C6751	C	0.612158	0.234312	0.826967
	C6752	C	0.523831	0.273276	1.000578
	C6753	C	0.577272	0.152710	0.499314
	C6754	C	0.547866	0.222264	1.000290
	C6755	C	0.601133	0.101409	0.498591
	C6756	C	0.545436	0.167893	0.749553
	C6757	C	0.607976	0.230408	0.750999
	C6758	C	0.517065	0.144419	0.749700
	C6759	C	0.579612	0.206792	0.749832
	C6760	C	0.529979	0.260497	1.000706
	C6761	C	0.583274	0.139652	0.499271
	C6762	C	0.541855	0.235309	1.000717
	C6763	C	0.595043	0.114301	0.499069
	C6764	C	0.538277	0.161796	0.749095
	C6765	C	0.600812	0.224269	0.750868
	C6766	C	0.524238	0.150456	0.749371
	C6767	C	0.586784	0.212855	0.750206
	C6768	C	0.533191	0.254419	0.992658
	C6769	C	0.586533	0.133666	0.966451
	C6770	C	0.538526	0.241276	0.554028
	C6771	C	0.592169	0.121067	0.559933
	C6772	C	0.538955	0.242198	0.992495
	C6773	C	0.592233	0.121332	0.966333
	C6774	C	0.532777	0.253521	0.553863
	C6775	C	0.586437	0.133363	0.560176
	C6776	C	0.534422	0.160095	0.748676
	C6777	C	0.597237	0.221393	0.754775
	C6778	C	0.528104	0.152173	0.749633
	C6779	C	0.590364	0.215707	0.746381
	C6780	C	0.527556	0.154521	0.748650
	C6781	C	0.590386	0.215767	0.754269
	C6782	C	0.534991	0.157667	0.749593
	C6783	C	0.597231	0.221303	0.746628
	N6784	N	0.514738	0.291779	0.952615
	N6785	N	0.568511	0.172084	0.953239
	N6786	N	0.556440	0.202777	0.547169
	N6787	N	0.610203	0.082788	0.546303
	N6788	N	0.556466	0.202842	0.952251
	N6789	N	0.610203	0.082989	0.951225
	N6790	N	0.514747	0.291776	0.547584
	N6791	N	0.568568	0.172044	0.547403
	N6792	N	0.555784	0.177476	0.702397
	N6793	N	0.618244	0.240155	0.703688
	N6794	N	0.506775	0.134711	0.796382
	N6795	N	0.569289	0.197182	0.797134
	N6796	N	0.506751	0.134785	0.702465
	N6797	N	0.569245	0.197333	0.702555
	N6798	N	0.555748	0.177586	0.796780
	N6799	N	0.618282	0.240146	0.797875
	H6800	H	0.516479	0.362022	0.348571
	H6801	H	0.583623	0.341313	0.349173
	H6802	H	0.553775	0.379218	0.151827
	H6803	H	0.612862	0.278830	0.150193
	H6804	H	0.553783	0.379229	0.347924
	H6805	H	0.612823	0.278876	0.351512
	H6806	H	0.516532	0.361434	0.152253
	H6807	H	0.583662	0.341354	0.151660
	H6808	H	0.558343	0.345219	0.099156
	H6809	H	0.620917	0.407668	0.098819
	H6810	H	0.521941	0.322401	0.400821
	H6811	H	0.584585	0.384396	0.401178
	H6812	H	0.522093	0.321672	0.098794
	H6813	H	0.584531	0.384511	0.099223
	H6814	H	0.558375	0.345183	0.401855
	H6815	H	0.620824	0.407825	0.402908
	H6816	H	0.528993	0.365498	0.350733
	H6817	H	0.594035	0.322308	0.496670
	H6818	H	0.541559	0.373254	0.150059
	H6819	H	0.603595	0.299745	-0.023519
	H6820	H	0.541530	0.373162	0.350358
	H6821	H	0.604212	0.300728	0.496854
	H6822	H	0.529024	0.365716	0.150037
	H6823	H	0.593379	0.321308	-0.022980
	H6824	H	0.546980	0.334862	0.397204
	H6825	H	0.609370	0.398148	0.397850
	H6826	H	0.534219	0.328288	0.102741
	H6827	H	0.596872	0.390195	0.103092
	H6828	H	0.534326	0.327651	0.397251
	H6829	H	0.596711	0.390831	0.397790
	H6830	H	0.546873	0.335681	0.103236
	H6831	H	0.609566	0.397325	0.103654
	Co6832	Co	0.632855	0.430903	0.124809
	Co6833	Co	0.570341	0.368391	0.125112
	Co6834	Co	0.507804	0.306205	0.375736
	Co6835	Co	0.570299	0.368454	0.375798
	C6836	C	0.515092	0.362667	0.422929
	C6837	C	0.582666	0.343297	0.423152
	C6838	C	0.555166	0.378897	0.077675
	C6839	C	0.613872	0.276802	0.077117
	C6840	C	0.555131	0.379000	0.422398
	C6841	C	0.613803	0.276723	0.424356
	C6842	C	0.515174	0.362198	0.077714
	C6843	C	0.582693	0.343284	0.078124
	C6844	C	0.559317	0.346846	0.173036
	C6845	C	0.621844	0.409308	0.173072
	C6846	C	0.520758	0.321480	0.326969
	C6847	C	0.583345	0.383654	0.327403
	C6848	C	0.520827	0.321120	0.172638
	C6849	C	0.583329	0.383683	0.173036
	C6850	C	0.559317	0.346852	0.327487
	C6851	C	0.621814	0.409356	0.328251
	C6852	C	0.519938	0.362204	0.500664
	C6853	C	0.586320	0.335611	0.001312
	C6854	C	0.550335	0.378317	0.500020
	C6855	C	0.610432	0.284781	0.000855
	C6856	C	0.555303	0.342058	0.250225
	C6857	C	0.617850	0.404501	0.250678
	C6858	C	0.525330	0.323932	0.249721
	C6859	C	0.587862	0.386283	0.250157
	C6860	C	0.527831	0.365116	0.500684
	C6861	C	0.592461	0.322809	0.001495
	C6862	C	0.542639	0.374282	0.500280
	C6863	C	0.604382	0.297788	0.000706
	C6864	C	0.547962	0.336229	0.250075
	C6865	C	0.610535	0.398608	0.250701
	C6866	C	0.533067	0.327767	0.249915
	C6867	C	0.595583	0.390151	0.250331
	C6868	C	0.531679	0.367262	0.417116
	C6869	C	0.595936	0.317097	0.498081
	C6870	C	0.538869	0.371751	0.083485
	C6871	C	0.601361	0.304354	-0.012826
	C6872	C	0.538860	0.371632	0.417035
	C6873	C	0.601687	0.304856	0.498125
	C6874	C	0.531699	0.367309	0.083454
	C6875	C	0.595575	0.316532	-0.012551
	C6876	C	0.544203	0.333593	0.332046
	C6877	C	0.606679	0.396346	0.332660
	C6878	C	0.536926	0.329847	0.167945
	C6879	C	0.599533	0.391918	0.168608
	C6880	C	0.536970	0.329513	0.332103
	C6881	C	0.599439	0.392282	0.332311
	C6882	C	0.544158	0.333952	0.167965
	C6883	C	0.606770	0.396014	0.168693
	N6884	N	0.507834	0.363921	0.451275
	N6885	N	0.577283	0.354348	0.452613
	N6886	N	0.562373	0.379021	0.049412
	N6887	N	0.619025	0.265265	0.048158
	N6888	N	0.562353	0.379140	0.450876
	N6889	N	0.618974	0.265169	0.453125
	N6890	N	0.507926	0.363505	0.049090
	N6891	N	0.577310	0.354341	0.048546
	N6892	N	0.565018	0.354350	0.202313
	N6893	N	0.627520	0.416851	0.202435
	N6894	N	0.514116	0.317422	0.298234
	N6895	N	0.576708	0.379639	0.298824
	N6896	N	0.514145	0.317228	0.201484
	N6897	N	0.576686	0.379698	0.201792
	N6898	N	0.565018	0.354336	0.298365
	N6899	N	0.627497	0.416875	0.298710
	H6900	H	0.516523	0.361802	0.848156
	H6901	H	0.583560	0.340951	0.850720
	H6902	H	0.553790	0.379248	0.652260
	H6903	H	0.612856	0.278933	0.649469
	H6904	H	0.553761	0.379153	0.847880
	H6905	H	0.613045	0.279260	0.851647
	H6906	H	0.516421	0.361649	0.652264
	H6907	H	0.583709	0.341372	0.651470
	H6908	H	0.558317	0.345338	0.598331
	H6909	H	0.620747	0.407767	0.598716
	H6910	H	0.521988	0.321923	0.901250
	H6911	H	0.584554	0.384198	0.901961
	H6912	H	0.521957	0.321941	0.598864
	H6913	H	0.584465	0.384680	0.599809
	H6914	H	0.558269	0.345138	0.902342
	H6915	H	0.620782	0.407682	0.902499
	H6916	H	0.529087	0.365256	0.850340
	H6917	H	0.593261	0.320904	1.025751
	H6918	H	0.541567	0.373236	0.650288
	H6919	H	0.602711	0.298258	0.503174
	H6920	H	0.541635	0.372888	0.850355
	H6921	H	0.603469	0.299322	1.024992
	H6922	H	0.528980	0.365668	0.650217
	H6923	H	0.592579	0.319958	0.502714
	H6924	H	0.546831	0.335596	0.602065
	H6925	H	0.609389	0.397760	0.603222
	H6926	H	0.534240	0.328018	0.897794
	H6927	H	0.596740	0.390212	0.898562
	H6928	H	0.534205	0.328176	0.601931
	H6929	H	0.596694	0.390533	0.603175
	H6930	H	0.546884	0.335231	0.897693
	H6931	H	0.609382	0.397618	0.898881
	Co6932	Co	0.632815	0.430758	0.624862
	Co6933	Co	0.570316	0.368450	0.625330
	Co6934	Co	0.507789	0.305814	0.875707
	Co6935	Co	0.570291	0.368245	0.876147
	C6936	C	0.515165	0.362361	0.922667
	C6937	C	0.582616	0.343055	0.924160
	C6938	C	0.555152	0.378962	0.577398
	C6939	C	0.613837	0.276798	0.576718
	C6940	C	0.555152	0.378876	0.922771
	C6941	C	0.613958	0.277011	0.924338
	C6942	C	0.515064	0.362363	0.577858
	C6943	C	0.582715	0.343363	0.577366
	C6944	C	0.559262	0.346981	0.673131
	C6945	C	0.621764	0.409308	0.673401
	C6946	C	0.520800	0.321141	0.827254
	C6947	C	0.583321	0.383530	0.827828
	C6948	C	0.520764	0.321199	0.672980
	C6949	C	0.583274	0.383747	0.673627
	C6950	C	0.559249	0.346816	0.827860
	C6951	C	0.621754	0.409367	0.828416
	C6952	C	0.520059	0.361931	1.000164
	C6953	C	0.586342	0.335737	0.500162
	C6954	C	0.550343	0.378201	1.000096
	C6955	C	0.610333	0.284591	0.500525
	C6956	C	0.555280	0.342135	0.750142
	C6957	C	0.617761	0.404563	0.750847
	C6958	C	0.525288	0.323860	0.749894
	C6959	C	0.587814	0.386257	0.750596
	C6960	C	0.527900	0.364958	1.000037
	C6961	C	0.592476	0.322883	0.499843
	C6962	C	0.542658	0.374197	1.000110
	C6963	C	0.604321	0.297650	0.500304
	C6964	C	0.547967	0.336231	0.749836
	C6965	C	0.610437	0.398669	0.750883
	C6966	C	0.533029	0.327728	0.749759
	C6967	C	0.595537	0.390166	0.750654
	C6968	C	0.531749	0.367075	0.916896
	C6969	C	0.595496	0.316289	1.014883
	C6970	C	0.538856	0.371803	0.583580
	C6971	C	0.600854	0.303455	0.501819
	C6972	C	0.538910	0.371558	0.916780
	C6973	C	0.601276	0.304102	1.014754
	C6974	C	0.531674	0.367410	0.583905
	C6975	C	0.595122	0.315734	0.501449
	C6976	C	0.544140	0.333905	0.667511
	C6977	C	0.606660	0.396224	0.668629
	C6978	C	0.536937	0.329613	0.832130
	C6979	C	0.599440	0.392018	0.833284
	C6980	C	0.536918	0.329772	0.667455
	C6981	C	0.599436	0.392122	0.668386
	C6982	C	0.544164	0.333744	0.832054
	C6983	C	0.606665	0.396141	0.833373
	N6984	N	0.507927	0.363635	0.951426
	N6985	N	0.577257	0.354218	0.953133
	N6986	N	0.562362	0.379095	0.549156
	N6987	N	0.619004	0.265248	0.548038
	N6988	N	0.562359	0.378988	0.951176
	N6989	N	0.619053	0.265357	0.953100
	N6990	N	0.507815	0.363719	0.548815
	N6991	N	0.577320	0.354424	0.548152
	N6992	N	0.564988	0.354375	0.702477
	N6993	N	0.627461	0.416815	0.702472
	N6994	N	0.514148	0.317113	0.798676
	N6995	N	0.576668	0.379524	0.799116
	N6996	N	0.514136	0.317116	0.701867
	N6997	N	0.576644	0.379675	0.702284
	N6998	N	0.565000	0.354243	0.798870
	N6999	N	0.627484	0.416812	0.798946
	H7000	H	0.508718	0.433032	0.347736
	H7001	H	0.579030	0.424609	0.348314
	H7002	H	0.546023	0.450557	0.151931
	H7003	H	0.616303	0.441627	0.152500
	H7004	H	0.545938	0.450683	0.347691
	H7005	H	0.616304	0.441797	0.347698
	H7006	H	0.508767	0.432973	0.152641
	H7007	H	0.579086	0.424488	0.152293
	H7008	H	0.549822	0.416533	0.098494
	H7009	H	0.612222	0.479150	0.098174
	H7010	H	0.512603	0.396332	0.401441
	H7011	H	0.575206	0.458362	0.401809
	H7012	H	0.512883	0.395460	0.097572
	H7013	H	0.575177	0.458489	0.098115
	H7014	H	0.549770	0.416687	0.402358
	H7015	H	0.612315	0.478936	0.402021
	H7016	H	0.520799	0.439499	0.649932
	H7017	H	0.591488	0.428155	0.350551
	H7018	H	0.533462	0.447274	0.150325
	H7019	H	0.604146	0.435615	0.150078
	H7020	H	0.533350	0.447006	0.650462
	H7021	H	0.604110	0.435562	0.350345
	H7022	H	0.520902	0.439583	0.150739
	H7023	H	0.591601	0.427983	0.149516
	H7024	H	0.537710	0.409360	0.100505
	H7025	H	0.600124	0.471842	0.100187
	H7026	H	0.524799	0.403206	0.400081
	H7027	H	0.587321	0.465596	0.400247
	H7028	H	0.524867	0.403297	0.100031
	H7029	H	0.587292	0.465594	0.100670
	H7030	H	0.537682	0.409211	0.400492
	H7031	H	0.600119	0.471914	0.400411
	Co7032	Co	0.624982	0.499929	0.124343
	Co7033	Co	0.562533	0.437410	0.124537
	Co7034	Co	0.499923	0.375286	0.375942
	Co7035	Co	0.562468	0.437555	0.375837
	C7036	C	0.507320	0.433251	0.422365
	C7037	C	0.577624	0.425030	0.422871
	C7038	C	0.547395	0.450015	0.077775
	C7039	C	0.617701	0.441369	0.077708
	C7040	C	0.547316	0.450069	0.422677
	C7041	C	0.617665	0.441442	0.422547
	C7042	C	0.507349	0.433440	0.078226
	C7043	C	0.577690	0.424926	0.077718
	C7044	C	0.550910	0.417807	0.173350
	C7045	C	0.613302	0.480395	0.172961
	C7046	C	0.511622	0.394756	0.327156
	C7047	C	0.574125	0.457098	0.327619
	C7048	C	0.511740	0.394382	0.172198
	C7049	C	0.574103	0.457159	0.173037
	C7050	C	0.550865	0.417963	0.327947
	C7051	C	0.613363	0.480266	0.327382
	C7052	C	0.512137	0.433970	0.499957
	C7053	C	0.582568	0.424483	-0.000047
	C7054	C	0.542423	0.450393	0.500178
	C7055	C	0.612888	0.440726	0.000098
	C7056	C	0.546578	0.414162	0.250806
	C7057	C	0.609004	0.476606	0.250129
	C7058	C	0.515982	0.398275	0.249888
	C7059	C	0.578422	0.460883	0.250193
	C7060	C	0.519838	0.438031	0.500019
	C7061	C	0.590428	0.427456	-0.000156
	C7062	C	0.534592	0.447350	0.500037
	C7063	C	0.605211	0.436694	0.000138
	C7064	C	0.538912	0.409781	0.250700
	C7065	C	0.601339	0.472279	0.250283
	C7066	C	0.523637	0.402682	0.250119
	C7067	C	0.586102	0.465235	0.250203
	C7068	C	0.523553	0.440832	0.583424
	C7069	C	0.594171	0.429889	0.416856
	C7070	C	0.530782	0.445486	0.083804
	C7071	C	0.601451	0.434061	0.083420
	C7072	C	0.530720	0.445314	0.583495
	C7073	C	0.601372	0.434164	0.416772
	C7074	C	0.523605	0.441118	0.084086
	C7075	C	0.594271	0.429653	0.083148
	C7076	C	0.534966	0.408005	0.167338
	C7077	C	0.597411	0.470431	0.167157
	C7078	C	0.527584	0.404465	0.333382
	C7079	C	0.590060	0.466999	0.333686
	C7080	C	0.527617	0.404517	0.166930
	C7081	C	0.590050	0.467001	0.166944
	C7082	C	0.534959	0.407901	0.333613
	C7083	C	0.597415	0.470481	0.333684
	N7084	N	0.500121	0.433140	0.450899
	N7085	N	0.570390	0.426312	0.451566
	N7086	N	0.554661	0.448689	0.048974
	N7087	N	0.624891	0.441601	0.049073
	N7088	N	0.554561	0.448670	0.451482
	N7089	N	0.624878	0.441520	0.451177
	N7090	N	0.500141	0.433293	0.049571
	N7091	N	0.570453	0.426232	0.049274
	N7092	N	0.557080	0.423861	0.202163
	N7093	N	0.619490	0.486383	0.201506
	N7094	N	0.505443	0.388692	0.298211
	N7095	N	0.567917	0.451093	0.298755
	N7096	N	0.505526	0.388449	0.201142
	N7097	N	0.567947	0.451022	0.201788
	N7098	N	0.557072	0.423890	0.299059
	N7099	N	0.619554	0.486298	0.298542
	H7100	H	0.508767	0.433274	0.848708
	H7101	H	0.579027	0.424184	0.847927
	H7102	H	0.545929	0.450475	0.652328
	H7103	H	0.616323	0.441450	0.652234
	H7104	H	0.546071	0.450781	0.848627
	H7105	H	0.616239	0.441948	0.847745
	H7106	H	0.508711	0.433007	0.652003
	H7107	H	0.578993	0.424283	0.652216
	H7108	H	0.549774	0.416539	0.599206
	H7109	H	0.612283	0.478918	0.598388
	H7110	H	0.512746	0.395775	0.902310
	H7111	H	0.575180	0.458340	0.902086
	H7112	H	0.512727	0.395835	0.598528
	H7113	H	0.575186	0.458485	0.598636
	H7114	H	0.549768	0.416632	0.903029
	H7115	H	0.612219	0.479018	0.902035
	H7116	H	0.520997	0.438896	0.850473
	H7117	H	0.591543	0.428278	0.849972
	H7118	H	0.533486	0.446332	0.349628
	H7119	H	0.604079	0.435624	0.650180
	H7120	H	0.533514	0.446631	0.850445
	H7121	H	0.604127	0.435807	0.850063
	H7122	H	0.520939	0.438752	0.350006
	H7123	H	0.591530	0.428184	0.650135
	H7124	H	0.537659	0.409501	0.600038
	H7125	H	0.600180	0.471647	0.600498
	H7126	H	0.524818	0.403038	0.900654
	H7127	H	0.587281	0.465714	0.900859
	H7128	H	0.524813	0.403276	0.599928
	H7129	H	0.587349	0.465610	0.600305
	H7130	H	0.537652	0.409166	0.900848
	H7131	H	0.600110	0.471761	0.900734
	Co7132	Co	0.625013	0.499977	0.624408
	Co7133	Co	0.562478	0.437404	0.624758
	Co7134	Co	0.500007	0.374913	0.876313
	Co7135	Co	0.562537	0.437405	0.876419
	C7136	C	0.507371	0.433533	0.923134
	C7137	C	0.577665	0.424760	0.922509
	C7138	C	0.547308	0.449990	0.577779
	C7139	C	0.617663	0.441340	0.577703
	C7140	C	0.547414	0.450152	0.922719
	C7141	C	0.617682	0.441512	0.922290
	C7142	C	0.507306	0.433303	0.577587
	C7143	C	0.577616	0.424990	0.577920
	C7144	C	0.550868	0.417788	0.673494
	C7145	C	0.613341	0.480244	0.672531
	C7146	C	0.511661	0.394482	0.827717
	C7147	C	0.574129	0.457050	0.827295
	C7148	C	0.511650	0.394482	0.672963
	C7149	C	0.574131	0.457065	0.672667
	C7150	C	0.550861	0.417832	0.828266
	C7151	C	0.613316	0.480405	0.827682
	C7152	C	0.512152	0.434198	1.000786
	C7153	C	0.582489	0.424709	0.500272
	C7154	C	0.542522	0.450453	1.000146
	C7155	C	0.612868	0.440731	0.499976
	C7156	C	0.546550	0.414045	0.750786
	C7157	C	0.609038	0.476514	0.750091
	C7158	C	0.515961	0.398273	0.750275
	C7159	C	0.578439	0.460772	0.750088
	C7160	C	0.519853	0.438296	1.000759
	C7161	C	0.590357	0.427665	0.500212
	C7162	C	0.534642	0.447540	1.000332
	C7163	C	0.605165	0.436723	0.500060
	C7164	C	0.538868	0.409705	0.750502
	C7165	C	0.601374	0.472147	0.750540
	C7166	C	0.523619	0.402689	0.750297
	C7167	C	0.586096	0.465145	0.750502
	C7168	C	0.523658	0.440677	0.917193
	C7169	C	0.594236	0.429854	0.916625
	C7170	C	0.530795	0.444895	0.416541
	C7171	C	0.601388	0.434104	0.583594
	C7172	C	0.530835	0.445068	0.917163
	C7173	C	0.601420	0.434264	0.916627
	C7174	C	0.523638	0.440398	0.416497
	C7175	C	0.594212	0.429755	0.583540
	C7176	C	0.534920	0.408032	0.666805
	C7177	C	0.597437	0.470319	0.667196
	C7178	C	0.527566	0.404370	0.833823
	C7179	C	0.590032	0.466946	0.833965
	C7180	C	0.527555	0.404560	0.666755
	C7181	C	0.590068	0.466935	0.667253
	C7182	C	0.534925	0.407826	0.833870
	C7183	C	0.597403	0.470368	0.833841
	N7184	N	0.500169	0.433358	0.951388
	N7185	N	0.570433	0.426181	0.951735
	N7186	N	0.554564	0.448618	0.549251
	N7187	N	0.624885	0.441471	0.549356
	N7188	N	0.554670	0.448750	0.951713
	N7189	N	0.624893	0.441707	0.950876
	N7190	N	0.500114	0.433138	0.548994
	N7191	N	0.570377	0.426206	0.549048
	N7192	N	0.557054	0.423803	0.702460
	N7193	N	0.619476	0.486448	0.701563
	N7194	N	0.505477	0.388434	0.798975
	N7195	N	0.567947	0.451018	0.798509
	N7196	N	0.505463	0.388449	0.701993
	N7197	N	0.567950	0.451029	0.701411
	N7198	N	0.557046	0.423842	0.799415
	N7199	N	0.619514	0.486447	0.798554
	H7200	H	0.511957	0.595932	0.351468
	H7201	H	0.571250	0.495708	0.348337
	H7202	H	0.541439	0.533925	0.151151
	H7203	H	0.608468	0.513215	0.151951
	H7204	H	0.541531	0.534168	0.350332
	H7205	H	0.608527	0.513066	0.348172
	H7206	H	0.512076	0.595912	0.149673
	H7207	H	0.571171	0.495804	0.152319
	H7208	H	0.540529	0.490420	0.099753
	H7209	H	0.602963	0.553113	0.100140
	H7210	H	0.504249	0.466759	0.401348
	H7211	H	0.566645	0.529786	0.402517
	H7212	H	0.504082	0.467298	0.098787
	H7213	H	0.566744	0.529621	0.099083
	H7214	H	0.540457	0.490789	0.400470
	H7215	H	0.602926	0.553043	0.400743
	H7216	H	0.521422	0.575336	0.616709
	H7217	H	0.583349	0.501974	0.350236
	H7218	H	0.531690	0.553677	0.085722
	H7219	H	0.595966	0.509133	0.150392
	H7220	H	0.531599	0.553732	0.617000
	H7221	H	0.595936	0.509524	0.350070
	H7222	H	0.521463	0.575192	0.085699
	H7223	H	0.583400	0.501651	0.150488
	H7224	H	0.528122	0.485152	0.101818
	H7225	H	0.590714	0.547311	0.397771
	H7226	H	0.515837	0.476163	0.398189
	H7227	H	0.578202	0.539323	0.102730
	H7228	H	0.515466	0.477906	0.101671
	H7229	H	0.578091	0.539953	0.398180
	H7230	H	0.528438	0.483507	0.398306
	H7231	H	0.590887	0.546449	0.102995
	Co7232	Co	0.617173	0.569190	0.125379
	Co7233	Co	0.554664	0.506577	0.125088
	Co7234	Co	0.492192	0.443994	0.375538
	Co7235	Co	0.554669	0.506708	0.375947
	C7236	C	0.511106	0.598108	0.424371
	C7237	C	0.569804	0.496019	0.422718
	C7238	C	0.542380	0.531842	0.077414
	C7239	C	0.609811	0.512606	0.077441
	C7240	C	0.542418	0.531925	0.423580
	C7241	C	0.609864	0.512507	0.422683
	C7242	C	0.511112	0.597998	0.076676
	C7243	C	0.569812	0.496023	0.078004
	C7244	C	0.541692	0.491250	0.173408
	C7245	C	0.604165	0.553894	0.173743
	C7246	C	0.503263	0.465367	0.327308
	C7247	C	0.565731	0.528156	0.327993
	C7248	C	0.503156	0.465640	0.172800
	C7249	C	0.565708	0.528156	0.173636
	C7250	C	0.541640	0.491461	0.326994
	C7251	C	0.604169	0.553793	0.327374
	C7252	C	0.514668	0.590328	0.500543
	C7253	C	0.574597	0.496697	0.000237
	C7254	C	0.538661	0.539327	0.500358
	C7255	C	0.604943	0.512833	-0.000153
	C7256	C	0.537159	0.488630	0.249999
	C7257	C	0.599656	0.551160	0.250481
	C7258	C	0.507224	0.470258	0.249921
	C7259	C	0.569741	0.532930	0.250721
	C7260	C	0.520660	0.577268	0.500265
	C7261	C	0.582298	0.500711	0.000126
	C7262	C	0.532496	0.552075	0.500233
	C7263	C	0.597070	0.509873	0.000107
	C7264	C	0.529450	0.484649	0.249945
	C7265	C	0.591946	0.547248	0.250384
	C7266	C	0.514538	0.476132	0.249675
	C7267	C	0.577053	0.538800	0.250514
	C7268	C	0.523651	0.570650	0.565535
	C7269	C	0.586075	0.503372	0.416740
	C7270	C	0.529475	0.558432	0.048417
	C7271	C	0.593258	0.507636	0.083770
	C7272	C	0.529409	0.558413	0.565470
	C7273	C	0.593265	0.507724	0.416671
	C7274	C	0.523704	0.570639	0.048190
	C7275	C	0.586088	0.503238	0.083711
	C7276	C	0.525462	0.483189	0.167295
	C7277	C	0.588045	0.545427	0.332693
	C7278	C	0.518450	0.478061	0.332301
	C7279	C	0.580869	0.541029	0.168205
	C7280	C	0.518234	0.479053	0.167099
	C7281	C	0.580822	0.541345	0.332673
	C7282	C	0.525675	0.482182	0.332610
	C7283	C	0.588092	0.545148	0.168111
	N7284	N	0.506008	0.609717	0.453228
	N7285	N	0.562591	0.495893	0.451279
	N7286	N	0.547750	0.520729	0.048359
	N7287	N	0.617066	0.511258	0.048562
	N7288	N	0.547754	0.520776	0.452737
	N7289	N	0.617106	0.511231	0.451199
	N7290	N	0.505978	0.609580	0.047879
	N7291	N	0.562591	0.495916	0.049402
	N7292	N	0.548303	0.495448	0.202233
	N7293	N	0.610796	0.557966	0.202446
	N7294	N	0.497513	0.458022	0.298499
	N7295	N	0.560028	0.520678	0.298940
	N7296	N	0.497448	0.458182	0.201740
	N7297	N	0.560012	0.520664	0.202611
	N7298	N	0.548262	0.495600	0.298664
	N7299	N	0.610808	0.557912	0.298878
	H7300	H	0.511990	0.595783	0.850826
	H7301	H	0.571168	0.495649	0.848280
	H7302	H	0.541233	0.533660	0.650653
	H7303	H	0.608532	0.513002	0.652393
	H7304	H	0.541259	0.533703	0.850140
	H7305	H	0.608430	0.513003	0.847834
	H7306	H	0.512206	0.596227	0.649686
	H7307	H	0.571232	0.495754	0.652602
	H7308	H	0.540441	0.490694	0.599039
	H7309	H	0.602963	0.552867	0.599827
	H7310	H	0.504183	0.467140	0.901000
	H7311	H	0.566534	0.529934	0.902097
	H7312	H	0.504211	0.466991	0.597667
	H7313	H	0.566705	0.529520	0.599541
	H7314	H	0.540443	0.490635	0.901100
	H7315	H	0.602989	0.552793	0.901140
	H7316	H	0.521494	0.575603	0.915991
	H7317	H	0.583295	0.502017	0.850144
	H7318	H	0.531678	0.553982	0.383716
	H7319	H	0.595979	0.509234	0.649910
	H7320	H	0.531714	0.554046	0.916102
	H7321	H	0.595870	0.509547	0.850244
	H7322	H	0.521521	0.575618	0.383540
	H7323	H	0.583421	0.501768	0.650452
	H7324	H	0.528163	0.484792	0.602199
	H7325	H	0.590717	0.547164	0.898202
	H7326	H	0.515628	0.476773	0.897629
	H7327	H	0.578175	0.539304	0.602946
	H7328	H	0.515551	0.477392	0.602053
	H7329	H	0.578007	0.540116	0.898367
	H7330	H	0.528282	0.484129	0.897543
	H7331	H	0.590805	0.546668	0.603104
	Co7332	Co	0.617151	0.569077	0.625098
	Co7333	Co	0.554657	0.506607	0.625063
	Co7334	Co	0.492176	0.443894	0.875519
	Co7335	Co	0.554665	0.506681	0.875988
	C7336	C	0.511069	0.597937	0.923867
	C7337	C	0.569805	0.496087	0.922864
	C7338	C	0.542279	0.531664	0.577256
	C7339	C	0.609841	0.512559	0.577594
	C7340	C	0.542302	0.531720	0.923598
	C7341	C	0.609801	0.512419	0.922355
	C7342	C	0.511226	0.598303	0.576943
	C7343	C	0.569801	0.496091	0.577778
	C7344	C	0.541673	0.491321	0.672855
	C7345	C	0.604200	0.553702	0.673669
	C7346	C	0.503184	0.465499	0.826719
	C7347	C	0.565652	0.528286	0.827770
	C7348	C	0.503241	0.465365	0.672102
	C7349	C	0.565735	0.528067	0.673480
	C7350	C	0.541671	0.491351	0.827105
	C7351	C	0.604197	0.553674	0.827321
	C7352	C	0.514609	0.590106	1.000368
	C7353	C	0.574619	0.496708	0.500139
	C7354	C	0.538686	0.539326	1.000643
	C7355	C	0.604977	0.512829	0.500000
	C7356	C	0.537149	0.488662	0.750050
	C7357	C	0.599667	0.551097	0.750442
	C7358	C	0.507194	0.470267	0.749657
	C7359	C	0.569686	0.532985	0.750686
	C7360	C	0.520658	0.577184	1.000613
	C7361	C	0.582340	0.500690	0.500111
	C7362	C	0.532549	0.552092	1.000942
	C7363	C	0.597120	0.509846	0.499985
	C7364	C	0.529437	0.484764	0.750022
	C7365	C	0.591946	0.547124	0.750654
	C7366	C	0.514507	0.476216	0.749950
	C7367	C	0.577015	0.538766	0.750699
	C7368	C	0.523692	0.570814	0.953136
	C7369	C	0.586043	0.503352	0.916709
	C7370	C	0.529459	0.558608	0.435078
	C7371	C	0.593289	0.507591	0.583503
	C7372	C	0.529487	0.558632	0.953350
	C7373	C	0.593215	0.507723	0.916636
	C7374	C	0.523709	0.570869	0.434979
	C7375	C	0.586116	0.503190	0.583569
	C7376	C	0.525511	0.483025	0.667711
	C7377	C	0.588007	0.545481	0.832831
	C7378	C	0.518342	0.478451	0.832206
	C7379	C	0.580854	0.540981	0.668452
	C7380	C	0.518288	0.478864	0.667623
	C7381	C	0.580774	0.541383	0.832930
	C7382	C	0.525560	0.482650	0.832091
	C7383	C	0.588093	0.545010	0.668389
	N7384	N	0.505943	0.609527	0.952849
	N7385	N	0.562604	0.495925	0.951179
	N7386	N	0.547681	0.520627	0.547989
	N7387	N	0.617097	0.511258	0.548819
	N7388	N	0.547691	0.520674	0.952731
	N7389	N	0.617046	0.511183	0.950968
	N7390	N	0.506065	0.609830	0.547933
	N7391	N	0.562592	0.495897	0.549374
	N7392	N	0.548322	0.495357	0.701863
	N7393	N	0.610847	0.557733	0.702191
	N7394	N	0.497511	0.457930	0.797564
	N7395	N	0.559980	0.520719	0.798809
	N7396	N	0.497540	0.457863	0.701333
	N7397	N	0.560037	0.520579	0.702322
	N7398	N	0.548309	0.495398	0.798632
	N7399	N	0.610842	0.557698	0.798769
	H7400	H	0.521152	0.779111	0.349431
	H7401	H	0.574597	0.658479	0.351724
	H7402	H	0.550333	0.716483	0.149473
	H7403	H	0.603784	0.596198	0.150814
	H7404	H	0.550220	0.716485	0.350795
	H7405	H	0.603865	0.596273	0.350126
	H7406	H	0.521040	0.779112	0.150967
	H7407	H	0.574479	0.658271	0.149755
	H7408	H	0.548443	0.670629	0.102434
	H7409	H	0.610936	0.733067	0.101525
	H7410	H	0.514163	0.641510	0.397575
	H7411	H	0.576500	0.704231	0.399011
	H7412	H	0.514096	0.641749	0.102652
	H7413	H	0.576510	0.704366	0.102597
	H7414	H	0.548438	0.671004	0.398140
	H7415	H	0.610843	0.733795	0.397942
	H7416	H	0.530770	0.759047	0.568036
	H7417	H	0.584066	0.638061	0.421802
	H7418	H	0.541052	0.737360	0.048984
	H7419	H	0.594628	0.617321	0.009501
	H7420	H	0.540934	0.737408	0.568202
	H7421	H	0.594194	0.616371	0.421642
	H7422	H	0.530874	0.759003	0.048616
	H7423	H	0.584516	0.638973	0.008839
	H7424	H	0.537848	0.659274	0.258175
	H7425	H	0.600347	0.721845	0.307334
	H7426	H	0.524729	0.653102	0.241883
	H7427	H	0.587024	0.716167	0.194112
	H7428	H	0.525658	0.649292	0.257559
	H7429	H	0.588120	0.711978	0.306972
	H7430	H	0.536915	0.663095	0.242714
	H7431	H	0.599232	0.726030	0.194159
	Co7432	Co	0.624954	0.750049	0.124183
	Co7433	Co	0.562461	0.687483	0.124824
	Co7434	Co	0.500016	0.625153	0.376024
	Co7435	Co	0.562452	0.687579	0.375901
	C7436	C	0.520167	0.781069	0.422798
	C7437	C	0.573645	0.660659	0.424148
	C7438	C	0.551300	0.714446	0.076618
	C7439	C	0.604788	0.594165	0.077377
	C7440	C	0.551231	0.714406	0.423839
	C7441	C	0.604790	0.594143	0.423665
	C7442	C	0.520115	0.781049	0.077204
	C7443	C	0.573629	0.660554	0.077043
	C7444	C	0.549582	0.671840	0.174644
	C7445	C	0.612038	0.734410	0.174232
	C7446	C	0.512990	0.640418	0.325803
	C7447	C	0.575349	0.703267	0.326471
	C7448	C	0.512949	0.640585	0.174677
	C7449	C	0.575341	0.703289	0.174550
	C7450	C	0.549585	0.671990	0.325930
	C7451	C	0.612003	0.734771	0.325744
	C7452	C	0.523803	0.773501	0.499837
	C7453	C	0.577186	0.652849	0.000618
	C7454	C	0.547767	0.722399	0.500125
	C7455	C	0.601138	0.601761	0.000493
	C7456	C	0.545440	0.668025	0.250340
	C7457	C	0.607868	0.730781	0.250191
	C7458	C	0.517127	0.644339	0.250031
	C7459	C	0.579476	0.707222	0.250547
	C7460	C	0.529938	0.760675	0.500241
	C7461	C	0.583166	0.639775	0.000756
	C7462	C	0.541762	0.735462	0.500209
	C7463	C	0.595028	0.614563	0.000644
	C7464	C	0.538275	0.661937	0.250368
	C7465	C	0.600711	0.724608	0.250387
	C7466	C	0.524278	0.650469	0.250024
	C7467	C	0.586683	0.713237	0.251001
	C7468	C	0.533000	0.754242	0.538303
	C7469	C	0.586243	0.633354	0.456448
	C7470	C	0.538800	0.741979	0.027686
	C7471	C	0.592237	0.621530	0.005601
	C7472	C	0.538748	0.741988	0.538137
	C7473	C	0.591976	0.621059	0.456267
	C7474	C	0.533039	0.754204	0.027643
	C7475	C	0.586474	0.633785	0.005387
	C7476	C	0.534956	0.657952	0.254650
	C7477	C	0.597424	0.720612	0.282617
	C7478	C	0.527586	0.654463	0.245764
	C7479	C	0.589959	0.717309	0.219166
	C7480	C	0.528115	0.652294	0.254676
	C7481	C	0.590559	0.715049	0.282496
	C7482	C	0.534443	0.660080	0.246088
	C7483	C	0.596815	0.722882	0.218736
	N7484	N	0.514759	0.792104	0.452100
	N7485	N	0.568503	0.672183	0.453096
	N7486	N	0.556448	0.702913	0.047660
	N7487	N	0.610174	0.583136	0.048069
	N7488	N	0.556403	0.702893	0.452997
	N7489	N	0.610169	0.583040	0.452966
	N7490	N	0.514742	0.792129	0.047516
	N7491	N	0.568501	0.672126	0.048124
	N7492	N	0.555735	0.677665	0.203356
	N7493	N	0.618175	0.740304	0.202609
	N7494	N	0.506819	0.634691	0.297308
	N7495	N	0.569212	0.697368	0.297681
	N7496	N	0.506802	0.634760	0.203489
	N7497	N	0.569192	0.697405	0.203402
	N7498	N	0.555728	0.677765	0.297256
	N7499	N	0.618152	0.740546	0.296700
	H7500	H	0.521071	0.778766	0.849142
	H7501	H	0.574658	0.658675	0.851290
	H7502	H	0.550344	0.716978	0.649476
	H7503	H	0.603761	0.596005	0.651265
	H7504	H	0.550371	0.716788	0.850895
	H7505	H	0.603780	0.596274	0.849736
	H7506	H	0.521043	0.778856	0.650610
	H7507	H	0.574737	0.658737	0.650298
	H7508	H	0.548455	0.670886	0.603236
	H7509	H	0.610904	0.733720	0.601483
	H7510	H	0.514126	0.641323	0.897776
	H7511	H	0.576584	0.704399	0.898263
	H7512	H	0.514143	0.641618	0.602813
	H7513	H	0.576609	0.704267	0.601526
	H7514	H	0.548434	0.670964	0.899166
	H7515	H	0.611014	0.733643	0.896971
	H7516	H	0.530665	0.758762	0.952680
	H7517	H	0.583614	0.637251	0.992473
	H7518	H	0.540873	0.737170	0.432538
	H7519	H	0.594171	0.616229	0.579511
	H7520	H	0.540833	0.737182	0.953105
	H7521	H	0.593732	0.615555	0.992514
	H7522	H	0.530734	0.758809	0.432451
	H7523	H	0.584041	0.637859	0.579999
	H7524	H	0.537874	0.659346	0.752610
	H7525	H	0.599641	0.725060	0.752731
	H7526	H	0.524644	0.653302	0.749022
	H7527	H	0.587929	0.712994	0.746306
	H7528	H	0.525739	0.649187	0.751847
	H7529	H	0.587415	0.715082	0.753100
	H7530	H	0.536786	0.663408	0.750376
	H7531	H	0.600139	0.722859	0.746293
	Co7532	Co	0.625020	0.750304	0.623858
	Co7533	Co	0.562445	0.687624	0.624948
	Co7534	Co	0.500017	0.625029	0.875740
	Co7535	Co	0.562510	0.687634	0.875751
	C7536	C	0.520125	0.780913	0.923184
	C7537	C	0.573699	0.660752	0.924227
	C7538	C	0.551310	0.714647	0.576756
	C7539	C	0.604713	0.594005	0.577581
	C7540	C	0.551327	0.714622	0.923893
	C7541	C	0.604795	0.594172	0.923308
	C7542	C	0.520100	0.780937	0.576773
	C7543	C	0.573715	0.660821	0.577146
	C7544	C	0.549592	0.672028	0.675010
	C7545	C	0.612090	0.734695	0.673519
	C7546	C	0.512967	0.640381	0.825827
	C7547	C	0.575434	0.703222	0.826025
	C7548	C	0.512972	0.640527	0.674821
	C7549	C	0.575432	0.703190	0.674120
	C7550	C	0.549598	0.672062	0.826603
	C7551	C	0.612128	0.734659	0.824940
	C7552	C	0.523799	0.773447	1.000481
	C7553	C	0.577205	0.652882	0.500748
	C7554	C	0.547806	0.722401	1.000386
	C7555	C	0.601080	0.601580	0.500543
	C7556	C	0.545434	0.668169	0.750975
	C7557	C	0.607955	0.730718	0.749279
	C7558	C	0.517119	0.644365	0.750252
	C7559	C	0.579596	0.707131	0.749946
	C7560	C	0.529929	0.760621	1.000589
	C7561	C	0.583217	0.639801	0.500693
	C7562	C	0.541772	0.735442	1.000661
	C7563	C	0.595012	0.614512	0.500447
	C7564	C	0.538278	0.662065	0.751578
	C7565	C	0.600771	0.724719	0.749506
	C7566	C	0.524284	0.650442	0.750445
	C7567	C	0.586737	0.713294	0.749513
	C7568	C	0.532933	0.754157	0.973677
	C7569	C	0.585981	0.632846	0.996199
	C7570	C	0.538716	0.741914	0.462575
	C7571	C	0.591959	0.620984	0.544926
	C7572	C	0.538675	0.741900	0.973683
	C7573	C	0.591739	0.620584	0.996097
	C7574	C	0.532968	0.754167	0.462427
	C7575	C	0.586215	0.633254	0.545047
	C7576	C	0.534990	0.658027	0.752218
	C7577	C	0.597051	0.722439	0.751201
	C7578	C	0.527554	0.654574	0.750067
	C7579	C	0.590464	0.715610	0.747960
	C7580	C	0.528161	0.652288	0.751547
	C7581	C	0.590177	0.716829	0.751248
	C7582	C	0.534390	0.660276	0.750744
	C7583	C	0.597324	0.721240	0.747873
	N7584	N	0.514758	0.792050	0.952241
	N7585	N	0.568544	0.672272	0.953253
	N7586	N	0.556420	0.703008	0.548287
	N7587	N	0.610119	0.582962	0.548423
	N7588	N	0.556471	0.703057	0.952618
	N7589	N	0.610149	0.583117	0.952455
	N7590	N	0.514734	0.792023	0.547485
	N7591	N	0.568545	0.672292	0.547990
	N7592	N	0.555724	0.677871	0.703676
	N7593	N	0.618237	0.740496	0.702338
	N7594	N	0.506817	0.634630	0.797055
	N7595	N	0.569319	0.697318	0.797437
	N7596	N	0.506811	0.634741	0.703504
	N7597	N	0.569312	0.697309	0.703060
	N7598	N	0.555724	0.677906	0.797646
	N7599	N	0.618249	0.740489	0.796019
	H7600	H	0.516525	0.861938	0.347238
	H7601	H	0.583482	0.841183	0.348929
	H7602	H	0.553731	0.879255	0.152010
	H7603	H	0.612568	0.778676	0.149125
	H7604	H	0.553830	0.879548	0.347407
	H7605	H	0.612990	0.779469	0.349740
	H7606	H	0.516420	0.862025	0.151233
	H7607	H	0.583556	0.841169	0.149282
	H7608	H	0.558352	0.845279	0.098887
	H7609	H	0.620839	0.907849	0.098083
	H7610	H	0.521989	0.822284	0.400646
	H7611	H	0.584500	0.884634	0.400962
	H7612	H	0.522082	0.821908	0.098560
	H7613	H	0.584567	0.884338	0.098252
	H7614	H	0.558222	0.845571	0.401704
	H7615	H	0.620833	0.907995	0.401465
	H7616	H	0.529121	0.865680	0.349168
	H7617	H	0.593144	0.820983	0.405248
	H7618	H	0.541493	0.873463	0.149901
	H7619	H	0.603571	0.799870	-0.087887
	H7620	H	0.541687	0.873210	0.348787
	H7621	H	0.603330	0.799503	0.404307
	H7622	H	0.528926	0.865981	0.149711
	H7623	H	0.593429	0.821516	-0.088090
	H7624	H	0.546913	0.835352	0.102563
	H7625	H	0.609480	0.897586	0.396855
	H7626	H	0.534190	0.828079	0.397537
	H7627	H	0.596711	0.890756	0.102112
	H7628	H	0.534224	0.828106	0.102078
	H7629	H	0.596798	0.890428	0.396702
	H7630	H	0.546839	0.835537	0.397295
	H7631	H	0.609420	0.897928	0.102184
	Co7632	Co	0.632841	0.930997	0.124033
	Co7633	Co	0.570311	0.868438	0.124667
	Co7634	Co	0.507790	0.806133	0.375013
	Co7635	Co	0.570292	0.868539	0.375020
	C7636	C	0.515187	0.862525	0.421826
	C7637	C	0.582597	0.843348	0.422643
	C7638	C	0.555123	0.878914	0.077395
	C7639	C	0.613674	0.776887	0.075980
	C7640	C	0.555208	0.879195	0.421836
	C7641	C	0.613895	0.777185	0.422846
	C7642	C	0.515073	0.862525	0.076867
	C7643	C	0.582616	0.843386	0.075955
	C7644	C	0.559282	0.846910	0.173106
	C7645	C	0.621810	0.909430	0.172296
	C7646	C	0.520784	0.821435	0.326834
	C7647	C	0.583312	0.883849	0.326989
	C7648	C	0.520821	0.821214	0.172532
	C7649	C	0.583330	0.883676	0.172676
	C7650	C	0.559232	0.847059	0.327411
	C7651	C	0.621806	0.909516	0.327034
	C7652	C	0.520057	0.862318	0.499189
	C7653	C	0.586343	0.836019	-0.000905
	C7654	C	0.550406	0.878478	0.499162
	C7655	C	0.610346	0.784997	-0.000576
	C7656	C	0.555264	0.842208	0.250184
	C7657	C	0.617834	0.904626	0.249725
	C7658	C	0.525301	0.824042	0.249697
	C7659	C	0.587828	0.886449	0.249744
	C7660	C	0.527914	0.865317	0.499160
	C7661	C	0.592468	0.823174	-0.000801
	C7662	C	0.542698	0.874473	0.498939
	C7663	C	0.604315	0.798015	-0.000895
	C7664	C	0.547934	0.836334	0.250112
	C7665	C	0.610522	0.898691	0.249691
	C7666	C	0.533031	0.827855	0.249714
	C7667	C	0.595560	0.890318	0.249544
	C7668	C	0.531772	0.867496	0.415554
	C7669	C	0.595432	0.816480	0.446192
	C7670	C	0.538808	0.871911	0.083035
	C7671	C	0.601315	0.804543	-0.049674
	C7672	C	0.538948	0.871852	0.415435
	C7673	C	0.601184	0.804235	0.446018
	C7674	C	0.531631	0.867518	0.082991
	C7675	C	0.595568	0.816806	-0.049728
	C7676	C	0.544145	0.833882	0.167629
	C7677	C	0.606739	0.896167	0.331530
	C7678	C	0.536906	0.829765	0.332183
	C7679	C	0.599460	0.892297	0.167426
	C7680	C	0.536919	0.829738	0.167431
	C7681	C	0.599501	0.892115	0.331570
	C7682	C	0.544131	0.833861	0.332178
	C7683	C	0.606695	0.896367	0.167496
	N7684	N	0.507935	0.863726	0.450437
	N7685	N	0.577233	0.854450	0.451977
	N7686	N	0.562346	0.879115	0.048991
	N7687	N	0.618882	0.765393	0.047056
	N7688	N	0.562400	0.879345	0.450284
	N7689	N	0.619045	0.765676	0.451655
	N7690	N	0.507832	0.863903	0.048513
	N7691	N	0.577227	0.854453	0.047025
	N7692	N	0.564998	0.854367	0.202002
	N7693	N	0.627466	0.917044	0.201588
	N7694	N	0.514154	0.817342	0.297969
	N7695	N	0.576665	0.879788	0.298306
	N7696	N	0.514160	0.817242	0.201503
	N7697	N	0.576666	0.879695	0.201446
	N7698	N	0.564962	0.854486	0.298174
	N7699	N	0.627486	0.917070	0.297699
	H7700	H	0.516375	0.861813	0.847545
	H7701	H	0.583776	0.841810	0.849351
	H7702	H	0.553793	0.879514	0.650954
	H7703	H	0.612717	0.779043	0.648551
	H7704	H	0.553738	0.879433	0.847530
	H7705	H	0.613156	0.779712	0.850267
	H7706	H	0.516531	0.862025	0.651507
	H7707	H	0.583801	0.841544	0.650141
	H7708	H	0.558343	0.845560	0.598294
	H7709	H	0.620745	0.908168	0.597755
	H7710	H	0.521975	0.822524	0.900361
	H7711	H	0.584399	0.884728	0.900699
	H7712	H	0.522048	0.822324	0.598973
	H7713	H	0.584407	0.884930	0.599554
	H7714	H	0.558409	0.845181	0.901384
	H7715	H	0.620841	0.907947	0.901166
	H7716	H	0.529008	0.865641	0.849049
	H7717	H	0.593217	0.821318	1.086189
	H7718	H	0.541555	0.873581	0.649592
	H7719	H	0.603554	0.799985	0.593247
	H7720	H	0.541519	0.873270	0.849173
	H7721	H	0.603403	0.799751	1.086455
	H7722	H	0.529041	0.866072	0.649282
	H7723	H	0.593417	0.821553	0.593251
	H7724	H	0.546864	0.835640	0.602164
	H7725	H	0.609215	0.898382	0.601657
	H7726	H	0.534285	0.828130	0.897373
	H7727	H	0.596775	0.890544	0.897873
	H7728	H	0.534160	0.828709	0.601879
	H7729	H	0.596574	0.891225	0.601897
	H7730	H	0.546975	0.835249	0.897355
	H7731	H	0.609436	0.897662	0.897545
	Co7732	Co	0.632776	0.931090	0.623823
	Co7733	Co	0.570366	0.868597	0.624286
	Co7734	Co	0.507842	0.806168	0.875153
	Co7735	Co	0.570259	0.868606	0.874977
	C7736	C	0.515056	0.862442	0.922113
	C7737	C	0.582712	0.843681	0.922416
	C7738	C	0.555198	0.879188	0.576736
	C7739	C	0.613752	0.776977	0.575584
	C7740	C	0.555129	0.879014	0.922191
	C7741	C	0.613979	0.777397	0.923176
	C7742	C	0.515212	0.862551	0.576757
	C7743	C	0.582760	0.843540	0.576459
	C7744	C	0.559264	0.847100	0.672680
	C7745	C	0.621731	0.909651	0.672084
	C7746	C	0.520753	0.821625	0.826616
	C7747	C	0.583232	0.883965	0.826691
	C7748	C	0.520785	0.821489	0.672601
	C7749	C	0.583251	0.884045	0.672893
	C7750	C	0.559284	0.847007	0.827290
	C7751	C	0.621773	0.909574	0.826641
	C7752	C	0.519948	0.862123	0.999350
	C7753	C	0.586350	0.835939	0.499311
	C7754	C	0.550322	0.878295	0.999661
	C7755	C	0.610269	0.784848	0.499079
	C7756	C	0.555282	0.842237	0.750018
	C7757	C	0.617730	0.904864	0.749199
	C7758	C	0.525279	0.824281	0.749792
	C7759	C	0.587764	0.886671	0.749787
	C7760	C	0.527809	0.865139	0.999340
	C7761	C	0.592451	0.823133	0.499150
	C7762	C	0.542614	0.874337	0.999574
	C7763	C	0.604272	0.797888	0.498792
	C7764	C	0.547965	0.836421	0.749939
	C7765	C	0.610411	0.899016	0.749438
	C7766	C	0.533019	0.828131	0.749954
	C7767	C	0.595458	0.890621	0.749782
	C7768	C	0.531677	0.867319	0.915952
	C7769	C	0.595477	0.816694	1.048079
	C7770	C	0.538907	0.871983	0.582563
	C7771	C	0.601326	0.804541	0.551687
	C7772	C	0.538840	0.871766	0.916035
	C7773	C	0.601220	0.804441	1.048107
	C7774	C	0.531745	0.867577	0.582612
	C7775	C	0.595561	0.816767	0.551724
	C7776	C	0.544133	0.834153	0.667478
	C7777	C	0.606545	0.896787	0.667358
	C7778	C	0.536952	0.829890	0.832173
	C7779	C	0.599425	0.892325	0.832219
	C7780	C	0.536897	0.830114	0.667563
	C7781	C	0.599302	0.892743	0.667467
	C7782	C	0.544195	0.833901	0.832111
	C7783	C	0.606667	0.896393	0.832040
	N7784	N	0.507826	0.863859	0.950793
	N7785	N	0.577265	0.854600	0.951849
	N7786	N	0.562419	0.879306	0.548498
	N7787	N	0.618955	0.765566	0.546739
	N7788	N	0.562345	0.879210	0.950799
	N7789	N	0.619058	0.765707	0.952219
	N7790	N	0.507943	0.863759	0.548177
	N7791	N	0.577322	0.854541	0.547684
	N7792	N	0.564949	0.854643	0.701914
	N7793	N	0.627456	0.917030	0.700967
	N7794	N	0.514134	0.817512	0.798068
	N7795	N	0.576607	0.879866	0.797842
	N7796	N	0.514142	0.817433	0.701228
	N7797	N	0.576628	0.879962	0.701155
	N7798	N	0.564996	0.854484	0.798010
	N7799	N	0.627485	0.917016	0.797418
	H7800	H	0.508671	0.933100	0.347929
	H7801	H	0.578995	0.924499	0.347148
	H7802	H	0.546021	0.950427	0.151607
	H7803	H	0.616274	0.941825	0.151947
	H7804	H	0.545908	0.950754	0.347329
	H7805	H	0.616270	0.942065	0.347150
	H7806	H	0.508709	0.933068	0.151621
	H7807	H	0.579028	0.924121	0.151398
	H7808	H	0.549839	0.916385	0.097293
	H7809	H	0.612241	0.979292	0.097730
	H7810	H	0.512727	0.895817	0.401323
	H7811	H	0.575227	0.958467	0.400644
	H7812	H	0.512695	0.896077	0.097523
	H7813	H	0.575263	0.958251	0.096929
	H7814	H	0.549686	0.916825	0.401631
	H7815	H	0.612269	0.979348	0.401326
	H7816	H	0.520860	0.939104	0.349108
	H7817	H	0.591569	0.927963	0.349410
	H7818	H	0.533429	0.946775	-0.150858
	H7819	H	0.604105	0.935789	0.149805
	H7820	H	0.533363	0.946841	0.348933
	H7821	H	0.604133	0.935518	0.348785
	H7822	H	0.520930	0.939115	-0.150649
	H7823	H	0.591573	0.928231	0.149443
	H7824	H	0.537613	0.909470	0.099106
	H7825	H	0.600103	0.972274	0.099115
	H7826	H	0.524794	0.903251	0.399340
	H7827	H	0.587343	0.965472	0.398877
	H7828	H	0.524815	0.903152	0.099090
	H7829	H	0.587263	0.966067	0.098478
	H7830	H	0.537615	0.909586	0.399248
	H7831	H	0.600126	0.971739	0.399794
	Co7832	Co	0.625016	1.000012	0.123203
	Co7833	Co	0.562561	0.937281	0.123250
	Co7834	Co	0.500022	0.874887	0.375065
	Co7835	Co	0.562516	0.937528	0.375148
	C7836	C	0.507307	0.933364	0.422413
	C7837	C	0.577623	0.924943	0.421698
	C7838	C	0.547364	0.949979	0.077015
	C7839	C	0.617702	0.941576	0.077044
	C7840	C	0.547306	0.950145	0.421885
	C7841	C	0.617637	0.941740	0.421812
	C7842	C	0.507311	0.933357	0.076831
	C7843	C	0.577709	0.924747	0.077048
	C7844	C	0.550860	0.917895	0.172083
	C7845	C	0.613305	0.980597	0.171964
	C7846	C	0.511621	0.894604	0.326900
	C7847	C	0.574169	0.957091	0.326282
	C7848	C	0.511626	0.894641	0.172032
	C7849	C	0.574157	0.957015	0.171599
	C7850	C	0.550795	0.918055	0.326885
	C7851	C	0.613323	0.980523	0.326745
	C7852	C	0.512111	0.933973	0.499969
	C7853	C	0.582581	0.924485	-0.000522
	C7854	C	0.542428	0.950424	0.499432
	C7855	C	0.612895	0.940914	-0.000618
	C7856	C	0.546510	0.914234	0.249453
	C7857	C	0.608994	0.976865	0.249265
	C7858	C	0.515933	0.898321	0.249618
	C7859	C	0.578456	0.960832	0.248648
	C7860	C	0.519804	0.938018	0.499753
	C7861	C	0.590416	0.927610	-0.000585
	C7862	C	0.534557	0.947389	0.499335
	C7863	C	0.605169	0.936949	-0.000622
	C7864	C	0.538839	0.909911	0.249261
	C7865	C	0.601340	0.972471	0.249283
	C7866	C	0.523590	0.902771	0.249621
	C7867	C	0.586096	0.965283	0.248503
	C7868	C	0.523546	0.940649	0.415988
	C7869	C	0.594252	0.929790	0.415683
	C7870	C	0.530776	0.945109	-0.083983
	C7871	C	0.601412	0.934383	0.082950
	C7872	C	0.530712	0.945107	0.415752
	C7873	C	0.601421	0.934210	0.415636
	C7874	C	0.523621	0.940647	-0.083853
	C7875	C	0.594250	0.929924	0.082917
	C7876	C	0.534890	0.908044	0.165907
	C7877	C	0.597379	0.970733	0.165910
	C7878	C	0.527541	0.904614	0.332765
	C7879	C	0.590060	0.966990	0.332184
	C7880	C	0.527525	0.904614	0.166102
	C7881	C	0.590034	0.967213	0.165250
	C7882	C	0.534894	0.908118	0.332550
	C7883	C	0.597413	0.970497	0.332724
	N7884	N	0.500104	0.933295	0.450944
	N7885	N	0.570374	0.926154	0.450587
	N7886	N	0.554610	0.948555	0.048164
	N7887	N	0.624914	0.941754	0.048582
	N7888	N	0.554576	0.948720	0.450972
	N7889	N	0.624853	0.941805	0.450492
	N7890	N	0.500100	0.933252	0.047959
	N7891	N	0.570459	0.926012	0.048193
	N7892	N	0.557040	0.923906	0.201249
	N7893	N	0.619500	0.986544	0.200656
	N7894	N	0.505416	0.888632	0.298031
	N7895	N	0.567985	0.950998	0.297433
	N7896	N	0.505428	0.888631	0.201120
	N7897	N	0.567994	0.950960	0.200311
	N7898	N	0.557008	0.923990	0.298114
	N7899	N	0.619514	0.986546	0.297655
	H7900	H	0.508780	0.933369	0.847185
	H7901	H	0.579070	0.924218	0.847563
	H7902	H	0.545921	0.950580	0.651570
	H7903	H	0.616262	0.941870	0.651380
	H7904	H	0.545970	0.950541	0.847628
	H7905	H	0.616272	0.941863	0.847577
	H7906	H	0.508701	0.932984	0.651676
	H7907	H	0.579065	0.924312	0.651609
	H7908	H	0.549779	0.916396	0.597588
	H7909	H	0.612195	0.979122	0.597242
	H7910	H	0.512685	0.895926	0.901426
	H7911	H	0.575180	0.958184	0.901439
	H7912	H	0.512663	0.895896	0.597707
	H7913	H	0.575203	0.958296	0.597667
	H7914	H	0.549716	0.916698	0.901365
	H7915	H	0.612250	0.978987	0.901285
	H7916	H	0.520918	0.939294	1.150311
	H7917	H	0.591549	0.928140	0.849635
	H7918	H	0.533388	0.946750	0.649661
	H7919	H	0.603956	0.936199	0.649376
	H7920	H	0.533404	0.946956	1.150395
	H7921	H	0.604102	0.935714	0.849149
	H7922	H	0.520905	0.939082	0.650061
	H7923	H	0.591463	0.928534	0.649235
	H7924	H	0.537585	0.909559	0.598997
	H7925	H	0.600181	0.971930	0.599249
	H7926	H	0.524816	0.903056	0.900044
	H7927	H	0.587409	0.965400	0.900249
	H7928	H	0.524799	0.903330	0.599085
	H7929	H	0.587325	0.965792	0.599047
	H7930	H	0.537669	0.909181	0.900183
	H7931	H	0.600210	0.971696	0.899971
	Co7932	Co	0.625026	0.999928	0.623223
	Co7933	Co	0.562492	0.937388	0.623713
	Co7934	Co	0.499905	0.875180	0.875561
	Co7935	Co	0.562518	0.937339	0.875295
	C7936	C	0.507343	0.933513	0.921721
	C7937	C	0.577712	0.924780	0.922058
	C7938	C	0.547308	0.950020	0.577091
	C7939	C	0.617622	0.941630	0.577072
	C7940	C	0.547339	0.949998	0.922141
	C7941	C	0.617689	0.941667	0.921877
	C7942	C	0.507307	0.933327	0.577451
	C7943	C	0.577658	0.924946	0.576847
	C7944	C	0.550817	0.917795	0.672108
	C7945	C	0.613338	0.980433	0.671666
	C7946	C	0.511592	0.894615	0.827018
	C7947	C	0.574173	0.956882	0.826574
	C7948	C	0.511593	0.894606	0.672196
	C7949	C	0.574178	0.956943	0.671960
	C7950	C	0.550800	0.917907	0.826824
	C7951	C	0.613357	0.980367	0.826614
	C7952	C	0.512139	0.934126	0.999463
	C7953	C	0.582500	0.924682	0.499260
	C7954	C	0.542460	0.950346	0.999627
	C7955	C	0.612819	0.941056	0.499281
	C7956	C	0.546499	0.914148	0.749614
	C7957	C	0.609049	0.976657	0.749100
	C7958	C	0.515924	0.898308	0.749797
	C7959	C	0.578490	0.960655	0.749118
	C7960	C	0.519851	0.938134	0.999769
	C7961	C	0.590371	0.927719	0.499194
	C7962	C	0.534602	0.947431	0.999646
	C7963	C	0.605137	0.936971	0.499072
	C7964	C	0.538844	0.909784	0.749659
	C7965	C	0.601377	0.972218	0.749438
	C7966	C	0.523584	0.902738	0.749699
	C7967	C	0.586142	0.965014	0.749468
	C7968	C	0.523603	0.940793	1.083328
	C7969	C	0.594241	0.929840	0.916009
	C7970	C	0.530727	0.945094	0.582866
	C7971	C	0.601336	0.934495	0.582484
	C7972	C	0.530759	0.945280	1.083364
	C7973	C	0.601408	0.934281	0.915926
	C7974	C	0.523581	0.940628	0.583013
	C7975	C	0.594169	0.930071	0.582736
	C7976	C	0.534887	0.908060	0.666021
	C7977	C	0.597429	0.970466	0.665935
	C7978	C	0.527556	0.904415	0.833198
	C7979	C	0.590102	0.966817	0.833169
	C7980	C	0.527526	0.904611	0.666050
	C7981	C	0.590069	0.967003	0.666024
	C7982	C	0.534928	0.907863	0.833233
	C7983	C	0.597445	0.970403	0.833178
	N7984	N	0.500123	0.933331	0.949850
	N7985	N	0.570456	0.926064	0.950693
	N7986	N	0.554558	0.948664	0.548413
	N7987	N	0.624834	0.941747	0.548807
	N7988	N	0.554584	0.948579	0.950603
	N7989	N	0.624909	0.941794	0.950445
	N7990	N	0.500115	0.933250	0.549078
	N7991	N	0.570391	0.926165	0.548167
	N7992	N	0.557018	0.923816	0.700978
	N7993	N	0.619525	0.986465	0.700736
	N7994	N	0.505376	0.888687	0.798289
	N7995	N	0.567986	0.950856	0.797763
	N7996	N	0.505411	0.888600	0.701127
	N7997	N	0.567982	0.950951	0.700393
	N7998	N	0.557021	0.923809	0.797982
	N7999	N	0.619553	0.986408	0.797423
	H8000	H	0.633746	0.058192	0.346629
	H8001	H	0.704010	0.049529	0.348309
	H8002	H	0.670999	0.075401	0.152135
	H8003	H	0.741400	0.066834	0.152200
	H8004	H	0.670976	0.075684	0.347875
	H8005	H	0.741244	0.066737	0.348509
	H8006	H	0.633763	0.058020	0.151780
	H8007	H	0.704166	0.049439	0.152884
	H8008	H	0.674868	0.041283	0.098338
	H8009	H	0.737404	0.103797	0.098668
	H8010	H	0.637663	0.021096	0.401205
	H8011	H	0.700294	0.083366	0.401835
	H8012	H	0.637868	0.020641	0.097476
	H8013	H	0.700323	0.083298	0.098394
	H8014	H	0.674729	0.041799	0.402158
	H8015	H	0.737246	0.104438	0.402219
	H8016	H	0.646078	0.063781	0.348689
	H8017	H	0.716622	0.052691	0.350808
	H8018	H	0.658442	0.072115	0.148765
	H8019	H	0.729223	0.060855	0.150151
	H8020	H	0.658584	0.071399	0.350008
	H8021	H	0.729141	0.060286	0.350414
	H8022	H	0.645902	0.064567	0.149390
	H8023	H	0.716665	0.053257	0.150238
	H8024	H	0.662621	0.034732	0.099809
	H8025	H	0.725166	0.096955	0.100004
	H8026	H	0.649946	0.027495	0.400198
	H8027	H	0.712444	0.090274	0.400504
	H8028	H	0.649821	0.028517	0.099834
	H8029	H	0.712385	0.090495	0.099983
	H8030	H	0.662768	0.033641	0.400392
	H8031	H	0.725222	0.096606	0.400652
	Co8032	Co	0.750032	0.124923	0.124173
	Co8033	Co	0.687578	0.062307	0.124998
	Co8034	Co	0.624991	0.000084	0.375244
	Co8035	Co	0.687517	0.062535	0.375762
	C8036	C	0.632383	0.058347	0.421141
	C8037	C	0.702682	0.049890	0.422995
	C8038	C	0.672396	0.074880	0.077430
	C8039	C	0.742767	0.066555	0.077662
	C8040	C	0.672364	0.075052	0.422458
	C8041	C	0.742639	0.066415	0.422763
	C8042	C	0.632377	0.058349	0.077010
	C8043	C	0.702771	0.049964	0.077391
	C8044	C	0.675908	0.042739	0.172999
	C8045	C	0.738422	0.105227	0.173143
	C8046	C	0.636636	0.019723	0.326723
	C8047	C	0.699210	0.081933	0.327643
	C8048	C	0.636758	0.019421	0.171984
	C8049	C	0.699201	0.081963	0.172993
	C8050	C	0.675803	0.043044	0.327783
	C8051	C	0.738324	0.105541	0.327656
	C8052	C	0.637202	0.058964	0.498965
	C8053	C	0.707629	0.049659	-0.000058
	C8054	C	0.667490	0.075285	0.500269
	C8055	C	0.737980	0.065906	0.000043
	C8056	C	0.671559	0.039118	0.250369
	C8057	C	0.734073	0.101607	0.250168
	C8058	C	0.641011	0.023259	0.249639
	C8059	C	0.703524	0.085660	0.250189
	C8060	C	0.644887	0.062984	0.499130
	C8061	C	0.715506	0.052686	0.000061
	C8062	C	0.659637	0.072285	0.500262
	C8063	C	0.730274	0.061880	0.000250
	C8064	C	0.663917	0.034685	0.250200
	C8065	C	0.726425	0.097188	0.250093
	C8066	C	0.648681	0.027583	0.250129
	C8067	C	0.711203	0.089989	0.250173
	C8068	C	0.648710	0.065396	0.415906
	C8069	C	0.719270	0.054474	0.417557
	C8070	C	0.655786	0.070347	0.082322
	C8071	C	0.726505	0.059279	0.083788
	C8072	C	0.655869	0.069850	0.416532
	C8073	C	0.726429	0.058873	0.417295
	C8074	C	0.648613	0.065909	0.082543
	C8075	C	0.719323	0.054951	0.083694
	C8076	C	0.659942	0.033157	0.166760
	C8077	C	0.722464	0.095364	0.166799
	C8078	C	0.652673	0.029045	0.333575
	C8079	C	0.715146	0.091784	0.333682
	C8080	C	0.652586	0.029685	0.166671
	C8081	C	0.715115	0.091852	0.166684
	C8082	C	0.660035	0.032474	0.333401
	C8083	C	0.722496	0.095270	0.333728
	N8084	N	0.625175	0.058214	0.449693
	N8085	N	0.695406	0.051271	0.451321
	N8086	N	0.679631	0.073596	0.049149
	N8087	N	0.749975	0.066664	0.049164
	N8088	N	0.679602	0.073720	0.451266
	N8089	N	0.749842	0.066526	0.451068
	N8090	N	0.625163	0.058239	0.048553
	N8091	N	0.695506	0.051227	0.048945
	N8092	N	0.682065	0.048857	0.201953
	N8093	N	0.744590	0.111372	0.202001
	N8094	N	0.630462	0.013652	0.297724
	N8095	N	0.692997	0.076020	0.298704
	N8096	N	0.630544	0.013481	0.200727
	N8097	N	0.693019	0.075949	0.201910
	N8098	N	0.681991	0.049032	0.299102
	N8099	N	0.744519	0.111564	0.299009
	H8100	H	0.633751	0.058371	0.847223
	H8101	H	0.704077	0.049258	0.848114
	H8102	H	0.670977	0.075508	0.652031
	H8103	H	0.741289	0.066411	0.652819
	H8104	H	0.671077	0.075720	0.847807
	H8105	H	0.741401	0.066953	0.847498
	H8106	H	0.633780	0.057863	0.650683
	H8107	H	0.703908	0.049033	0.651802
	H8108	H	0.674833	0.041593	0.597953
	H8109	H	0.737312	0.103925	0.598530
	H8110	H	0.637758	0.020854	0.901736
	H8111	H	0.700236	0.083514	0.902264
	H8112	H	0.637786	0.020784	0.597620
	H8113	H	0.700278	0.083215	0.598451
	H8114	H	0.674763	0.041633	0.901808
	H8115	H	0.737284	0.104156	0.902501
	H8116	H	0.646037	0.063873	0.848916
	H8117	H	0.716709	0.053241	0.849739
	H8118	H	0.658395	0.072163	0.650097
	H8119	H	0.728998	0.061014	0.651123
	H8120	H	0.658591	0.071347	0.848937
	H8121	H	0.729242	0.060825	0.849896
	H8122	H	0.645784	0.064616	0.648837
	H8123	H	0.716483	0.053516	0.651205
	H8124	H	0.662603	0.034865	0.599154
	H8125	H	0.725072	0.097329	0.599947
	H8126	H	0.650004	0.027418	0.899589
	H8127	H	0.712386	0.090529	0.900792
	H8128	H	0.649774	0.028820	0.599070
	H8129	H	0.712305	0.090928	0.599967
	H8130	H	0.662842	0.033593	0.899984
	H8131	H	0.725195	0.096540	0.900801
	Co8132	Co	0.750016	0.124962	0.624885
	Co8133	Co	0.687550	0.062468	0.624218
	Co8134	Co	0.625043	-0.000076	0.874896
	Co8135	Co	0.687580	0.062466	0.876286
	C8136	C	0.632371	0.058572	0.921739
	C8137	C	0.702741	0.049938	0.922460
	C8138	C	0.672384	0.074970	0.577687
	C8139	C	0.742657	0.066213	0.578052
	C8140	C	0.672446	0.075061	0.922282
	C8141	C	0.742757	0.066631	0.922411
	C8142	C	0.632381	0.058231	0.576339
	C8143	C	0.702644	0.049655	0.578032
	C8144	C	0.675883	0.042901	0.672700
	C8145	C	0.738346	0.105366	0.672982
	C8146	C	0.636699	0.019542	0.827041
	C8147	C	0.699162	0.082200	0.827479
	C8148	C	0.636743	0.019425	0.672197
	C8149	C	0.699182	0.082061	0.672879
	C8150	C	0.675857	0.042982	0.827204
	C8151	C	0.738358	0.105381	0.827757
	C8152	C	0.637173	0.059159	0.999479
	C8153	C	0.707519	0.049407	0.500787
	C8154	C	0.667528	0.075297	0.999643
	C8155	C	0.737885	0.065587	0.500536
	C8156	C	0.671572	0.039181	0.749832
	C8157	C	0.734041	0.101616	0.750277
	C8158	C	0.641032	0.023254	0.749647
	C8159	C	0.703471	0.085923	0.750118
	C8160	C	0.644871	0.063108	0.999416
	C8161	C	0.715404	0.052336	0.501160
	C8162	C	0.659679	0.072299	0.999169
	C8163	C	0.730185	0.061530	0.500750
	C8164	C	0.663945	0.034720	0.749623
	C8165	C	0.726369	0.097341	0.750052
	C8166	C	0.648680	0.027669	0.749454
	C8167	C	0.711110	0.090354	0.750048
	C8168	C	0.648709	0.065438	0.915901
	C8169	C	0.719352	0.054897	0.916492
	C8170	C	0.655757	0.070295	0.583545
	C8171	C	0.726376	0.059213	0.584412
	C8172	C	0.655900	0.069847	0.915706
	C8173	C	0.726519	0.059309	0.916575
	C8174	C	0.648575	0.065860	0.582700
	C8175	C	0.719211	0.054858	0.584550
	C8176	C	0.659932	0.033234	0.666183
	C8177	C	0.722394	0.095751	0.666713
	C8178	C	0.652704	0.029059	0.832771
	C8179	C	0.715068	0.092051	0.833701
	C8180	C	0.652562	0.029836	0.666009
	C8181	C	0.715045	0.092260	0.666724
	C8182	C	0.660065	0.032510	0.833076
	C8183	C	0.722444	0.095412	0.833695
	N8184	N	0.625154	0.058389	0.950308
	N8185	N	0.695477	0.051210	0.951297
	N8186	N	0.679616	0.073692	0.548820
	N8187	N	0.749853	0.066428	0.549290
	N8188	N	0.679666	0.073716	0.951562
	N8189	N	0.749974	0.066692	0.951009
	N8190	N	0.625170	0.058167	0.547817
	N8191	N	0.695387	0.051135	0.548755
	N8192	N	0.682041	0.048965	0.701636
	N8193	N	0.744513	0.111422	0.701795
	N8194	N	0.630535	0.013456	0.797969
	N8195	N	0.692999	0.076047	0.798616
	N8196	N	0.630539	0.013421	0.700896
	N8197	N	0.693021	0.076014	0.701559
	N8198	N	0.682050	0.048977	0.798774
	N8199	N	0.744528	0.111448	0.798911
	H8200	H	0.637157	0.220782	0.352584
	H8201	H	0.696221	0.120573	0.347777
	H8202	H	0.666360	0.158618	0.150746
	H8203	H	0.733558	0.137734	0.152565
	H8204	H	0.666401	0.158753	0.350147
	H8205	H	0.733424	0.138452	0.348890
	H8206	H	0.637181	0.221123	0.150386
	H8207	H	0.696269	0.120333	0.151620
	H8208	H	0.665548	0.115363	0.099274
	H8209	H	0.728103	0.177709	0.099158
	H8210	H	0.629206	0.091789	0.401279
	H8211	H	0.691588	0.154725	0.401564
	H8212	H	0.629282	0.091894	0.098096
	H8213	H	0.691766	0.154579	0.098226
	H8214	H	0.665542	0.115435	0.400634
	H8215	H	0.727811	0.178535	0.400492
	H8216	H	0.646865	0.200858	0.454595
	H8217	H	0.708454	0.126455	0.350462
	H8218	H	0.656946	0.179295	-0.114721
	H8219	H	0.720953	0.134273	0.149699
	H8220	H	0.657027	0.179260	0.454446
	H8221	H	0.720971	0.134296	0.350295
	H8222	H	0.646810	0.201016	-0.113440
	H8223	H	0.708425	0.126620	0.149655
	H8224	H	0.653282	0.109486	0.102222
	H8225	H	0.715691	0.172083	0.102567
	H8226	H	0.640710	0.101667	0.397662
	H8227	H	0.703160	0.164325	0.397483
	H8228	H	0.640599	0.102300	0.102238
	H8229	H	0.703060	0.164762	0.102665
	H8230	H	0.653336	0.108889	0.397624
	H8231	H	0.715808	0.171597	0.397298
	Co8232	Co	0.742189	0.194112	0.124705
	Co8233	Co	0.679689	0.131516	0.124726
	Co8234	Co	0.617238	0.068819	0.374249
	Co8235	Co	0.679689	0.131405	0.375209
	C8236	C	0.636218	0.223018	0.425178
	C8237	C	0.694853	0.120909	0.422435
	C8238	C	0.667340	0.156529	0.077236
	C8239	C	0.734879	0.137383	0.077763
	C8240	C	0.667351	0.156576	0.423484
	C8241	C	0.734832	0.137700	0.422962
	C8242	C	0.636232	0.223126	0.077198
	C8243	C	0.694896	0.120768	0.077207
	C8244	C	0.666746	0.116040	0.172875
	C8245	C	0.729233	0.178654	0.172910
	C8246	C	0.628243	0.090424	0.326685
	C8247	C	0.690698	0.153090	0.327145
	C8248	C	0.628264	0.090436	0.172394
	C8249	C	0.690755	0.152990	0.172518
	C8250	C	0.666758	0.116057	0.326593
	C8251	C	0.729107	0.179132	0.326776
	C8252	C	0.639768	0.215261	0.501642
	C8253	C	0.699665	0.121509	-0.000383
	C8254	C	0.663657	0.164037	0.500718
	C8255	C	0.729996	0.137826	0.000116
	C8256	C	0.662237	0.113351	0.249819
	C8257	C	0.724658	0.176193	0.249797
	C8258	C	0.632241	0.095220	0.249631
	C8259	C	0.694684	0.157921	0.249838
	C8260	C	0.645766	0.202185	0.501641
	C8261	C	0.707376	0.125532	-0.000265
	C8262	C	0.657535	0.176909	0.501186
	C8263	C	0.722120	0.134846	-0.000240
	C8264	C	0.654521	0.109445	0.249929
	C8265	C	0.716931	0.172303	0.249861
	C8266	C	0.639566	0.101071	0.249927
	C8267	C	0.702006	0.163814	0.249890
	C8268	C	0.648946	0.195984	0.475163
	C8269	C	0.711142	0.128146	0.417058
	C8270	C	0.654683	0.183763	-0.063856
	C8271	C	0.718275	0.132622	0.083147
	C8272	C	0.654667	0.183675	0.474856
	C8273	C	0.718283	0.132698	0.416901
	C8274	C	0.648911	0.195982	-0.063444
	C8275	C	0.711130	0.128140	0.083233
	C8276	C	0.650591	0.107738	0.167524
	C8277	C	0.713006	0.170419	0.167946
	C8278	C	0.643412	0.103311	0.332282
	C8279	C	0.705851	0.166031	0.332117
	C8280	C	0.643358	0.103651	0.167574
	C8281	C	0.705783	0.166288	0.167850
	C8282	C	0.650648	0.107383	0.332066
	C8283	C	0.713078	0.170130	0.332026
	N8284	N	0.631058	0.234522	0.453837
	N8285	N	0.687656	0.120715	0.450889
	N8286	N	0.672705	0.145422	0.047909
	N8287	N	0.742131	0.136135	0.048932
	N8288	N	0.672720	0.145410	0.452405
	N8289	N	0.742089	0.136294	0.451730
	N8290	N	0.631076	0.234669	0.048121
	N8291	N	0.687666	0.120786	0.048817
	N8292	N	0.673376	0.120148	0.201287
	N8293	N	0.735859	0.182795	0.201642
	N8294	N	0.622558	0.082898	0.297459
	N8295	N	0.685037	0.145533	0.298048
	N8296	N	0.622546	0.082962	0.200971
	N8297	N	0.685076	0.145452	0.201660
	N8298	N	0.673389	0.120173	0.297834
	N8299	N	0.735801	0.183041	0.298185
	H8300	H	0.637065	0.220658	0.851705
	H8301	H	0.696257	0.120774	0.847855
	H8302	H	0.666297	0.158322	0.651465
	H8303	H	0.733466	0.138186	0.652324
	H8304	H	0.666384	0.158846	0.849487
	H8305	H	0.733542	0.138187	0.848161
	H8306	H	0.637229	0.221175	0.650737
	H8307	H	0.696216	0.120573	0.652275
	H8308	H	0.665575	0.115011	0.598826
	H8309	H	0.727956	0.177917	0.598631
	H8310	H	0.629001	0.092517	0.900065
	H8311	H	0.691573	0.154684	0.901580
	H8312	H	0.629248	0.091996	0.597074
	H8313	H	0.691744	0.154382	0.598201
	H8314	H	0.665402	0.115691	0.900178
	H8315	H	0.727844	0.178122	0.900689
	H8316	H	0.646333	0.199862	1.115942
	H8317	H	0.708483	0.126260	0.849763
	H8318	H	0.656373	0.178144	0.548109
	H8319	H	0.720878	0.134675	0.650807
	H8320	H	0.656484	0.178257	1.115631
	H8321	H	0.721039	0.133913	0.849583
	H8322	H	0.646273	0.199949	0.548377
	H8323	H	0.708379	0.126975	0.650676
	H8324	H	0.653135	0.109909	0.601209
	H8325	H	0.715857	0.171225	0.897082
	H8326	H	0.640622	0.101537	0.896761
	H8327	H	0.702893	0.165431	0.602253
	H8328	H	0.640408	0.102858	0.600497
	H8329	H	0.703173	0.164024	0.897473
	H8330	H	0.653308	0.108583	0.897359
	H8331	H	0.715566	0.172574	0.601841
	Co8332	Co	0.742191	0.193933	0.624665
	Co8333	Co	0.679687	0.131294	0.624670
	Co8334	Co	0.617190	0.069022	0.874494
	Co8335	Co	0.679666	0.131427	0.874913
	C8336	C	0.636162	0.222935	0.924731
	C8337	C	0.694876	0.120968	0.922227
	C8338	C	0.667306	0.156338	0.577528
	C8339	C	0.734834	0.137649	0.578181
	C8340	C	0.667359	0.156616	0.923212
	C8341	C	0.734876	0.137626	0.922797
	C8342	C	0.636257	0.223181	0.577914
	C8343	C	0.694858	0.120903	0.577699
	C8344	C	0.666744	0.115953	0.672809
	C8345	C	0.729155	0.178661	0.672579
	C8346	C	0.628102	0.090778	0.825914
	C8347	C	0.690643	0.153056	0.827238
	C8348	C	0.628217	0.090425	0.671420
	C8349	C	0.690698	0.152928	0.672468
	C8350	C	0.666660	0.116201	0.826561
	C8351	C	0.729128	0.178725	0.826999
	C8352	C	0.639705	0.215159	1.001144
	C8353	C	0.699659	0.121605	0.500008
	C8354	C	0.663683	0.164111	1.000320
	C8355	C	0.729963	0.138068	0.500452
	C8356	C	0.662147	0.113453	0.749397
	C8357	C	0.724615	0.176010	0.749837
	C8358	C	0.632127	0.095477	0.748432
	C8359	C	0.694671	0.157812	0.749907
	C8360	C	0.645743	0.202143	1.001240
	C8361	C	0.707354	0.125668	0.500376
	C8362	C	0.657579	0.176990	1.000454
	C8363	C	0.722095	0.135089	0.500471
	C8364	C	0.654428	0.109575	0.749037
	C8365	C	0.716898	0.172146	0.749673
	C8366	C	0.639468	0.101322	0.748309
	C8367	C	0.701982	0.163735	0.750127
	C8368	C	0.648645	0.195370	1.065403
	C8369	C	0.711171	0.127995	0.916215
	C8370	C	0.654337	0.183131	0.527720
	C8371	C	0.718245	0.132897	0.584073
	C8372	C	0.654412	0.183155	1.065217
	C8373	C	0.718324	0.132458	0.916315
	C8374	C	0.648599	0.195427	0.527862
	C8375	C	0.711088	0.128404	0.583994
	C8376	C	0.650480	0.108035	0.666559
	C8377	C	0.713089	0.169896	0.832034
	C8378	C	0.643331	0.103308	0.831322
	C8379	C	0.705692	0.166575	0.667725
	C8380	C	0.643223	0.104032	0.666103
	C8381	C	0.705850	0.165833	0.832299
	C8382	C	0.650577	0.107315	0.831496
	C8383	C	0.712927	0.170680	0.667377
	N8384	N	0.631036	0.234557	0.953257
	N8385	N	0.687670	0.120850	0.950555
	N8386	N	0.672699	0.145296	0.547963
	N8387	N	0.742097	0.136238	0.549397
	N8388	N	0.672727	0.145480	0.952184
	N8389	N	0.742140	0.136263	0.951526
	N8390	N	0.631079	0.234621	0.548638
	N8391	N	0.687657	0.120707	0.549013
	N8392	N	0.673382	0.119915	0.701467
	N8393	N	0.735814	0.182659	0.701392
	N8394	N	0.622462	0.083069	0.796726
	N8395	N	0.684992	0.145445	0.798024
	N8396	N	0.622540	0.082865	0.700583
	N8397	N	0.685009	0.145393	0.701733
	N8398	N	0.673345	0.120090	0.798142
	N8399	N	0.735794	0.182691	0.798295
	H8400	H	0.646191	0.403918	0.349396
	H8401	H	0.699650	0.283390	0.351234
	H8402	H	0.675447	0.341512	0.149178
	H8403	H	0.728961	0.221327	0.150762
	H8404	H	0.675602	0.341744	0.351705
	H8405	H	0.729003	0.221423	0.349976
	H8406	H	0.646181	0.403794	0.151091
	H8407	H	0.699626	0.283448	0.149948
	H8408	H	0.673388	0.295799	0.103200
	H8409	H	0.735944	0.358287	0.102564
	H8410	H	0.639080	0.266574	0.398171
	H8411	H	0.701466	0.329419	0.397986
	H8412	H	0.638913	0.267034	0.102413
	H8413	H	0.701609	0.328902	0.102732
	H8414	H	0.673497	0.295850	0.398095
	H8415	H	0.735881	0.358358	0.398149
	H8416	H	0.656142	0.384053	0.502109
	H8417	H	0.709098	0.262654	0.507660
	H8418	H	0.665964	0.361930	0.108012
	H8419	H	0.718923	0.240786	-0.082020
	H8420	H	0.666314	0.362458	0.503258
	H8421	H	0.719279	0.241108	0.507820
	H8422	H	0.655815	0.383687	0.108148
	H8423	H	0.708729	0.262328	-0.082577
	H8424	H	0.662698	0.284638	0.172647
	H8425	H	0.724644	0.349622	0.278869
	H8426	H	0.649665	0.278062	0.328325
	H8427	H	0.712871	0.337800	0.222334
	H8428	H	0.650461	0.274826	0.172613
	H8429	H	0.712468	0.339589	0.278925
	H8430	H	0.661920	0.287889	0.328835
	H8431	H	0.725053	0.347682	0.221680
	Co8432	Co	0.750011	0.374872	0.125196
	Co8433	Co	0.687468	0.312476	0.124949
	Co8434	Co	0.625033	0.249838	0.376269
	Co8435	Co	0.687511	0.312462	0.375880
	C8436	C	0.645233	0.405899	0.423080
	C8437	C	0.698679	0.285552	0.424254
	C8438	C	0.676358	0.339434	0.076601
	C8439	C	0.729895	0.219268	0.077201
	C8440	C	0.676465	0.339501	0.424161
	C8441	C	0.729866	0.219251	0.423578
	C8442	C	0.645203	0.405849	0.077342
	C8443	C	0.698631	0.285570	0.077019
	C8444	C	0.674559	0.296879	0.175217
	C8445	C	0.737072	0.359333	0.174432
	C8446	C	0.637933	0.265500	0.326156
	C8447	C	0.700375	0.328204	0.326041
	C8448	C	0.637847	0.265770	0.174426
	C8449	C	0.700437	0.327995	0.174583
	C8450	C	0.674604	0.296882	0.326289
	C8451	C	0.737053	0.359351	0.325999
	C8452	C	0.648918	0.398273	0.499922
	C8453	C	0.702146	0.277731	0.000417
	C8454	C	0.672879	0.347225	0.500322
	C8455	C	0.726163	0.226782	0.000474
	C8456	C	0.670411	0.293018	0.250765
	C8457	C	0.732931	0.355459	0.250083
	C8458	C	0.642039	0.269529	0.250126
	C8459	C	0.704524	0.332036	0.250384
	C8460	C	0.655052	0.385457	0.499693
	C8461	C	0.708166	0.264745	0.000312
	C8462	C	0.666879	0.360294	0.500105
	C8463	C	0.720047	0.239546	0.000673
	C8464	C	0.663209	0.287040	0.250724
	C8465	C	0.725760	0.349382	0.250239
	C8466	C	0.649196	0.275661	0.250237
	C8467	C	0.711717	0.338050	0.250583
	C8468	C	0.658221	0.379205	0.501187
	C8469	C	0.711243	0.258066	0.504442
	C8470	C	0.663760	0.366734	0.061184
	C8471	C	0.716830	0.245653	-0.045811
	C8472	C	0.663988	0.366968	0.501649
	C8473	C	0.716995	0.245831	0.504926
	C8474	C	0.658012	0.378987	0.060986
	C8475	C	0.711058	0.257914	-0.046045
	C8476	C	0.659853	0.283251	0.206587
	C8477	C	0.722061	0.346986	0.266427
	C8478	C	0.652538	0.279489	0.294165
	C8479	C	0.715425	0.340396	0.234588
	C8480	C	0.652987	0.277688	0.206564
	C8481	C	0.715200	0.341399	0.266424
	C8482	C	0.659414	0.285064	0.294507
	C8483	C	0.722292	0.345936	0.234234
	N8484	N	0.639813	0.416885	0.452582
	N8485	N	0.693530	0.297111	0.453027
	N8486	N	0.681498	0.327877	0.047466
	N8487	N	0.735228	0.208147	0.047712
	N8488	N	0.681558	0.327868	0.453549
	N8489	N	0.735230	0.208164	0.452780
	N8490	N	0.639801	0.416883	0.048020
	N8491	N	0.693457	0.297049	0.048264
	N8492	N	0.680711	0.302714	0.203585
	N8493	N	0.743202	0.365167	0.203305
	N8494	N	0.631799	0.259633	0.297721
	N8495	N	0.694258	0.322296	0.297411
	N8496	N	0.631752	0.259774	0.203559
	N8497	N	0.694302	0.322170	0.203254
	N8498	N	0.680731	0.302721	0.297397
	N8499	N	0.743208	0.365150	0.297238
	H8500	H	0.646124	0.403756	0.850145
	H8501	H	0.699579	0.283433	0.851288
	H8502	H	0.675271	0.341102	0.649850
	H8503	H	0.728806	0.220856	0.651044
	H8504	H	0.675303	0.341477	0.851438
	H8505	H	0.728686	0.221005	0.849836
	H8506	H	0.646146	0.403468	0.650728
	H8507	H	0.699498	0.283107	0.649204
	H8508	H	0.673444	0.295801	0.601373
	H8509	H	0.736098	0.357686	0.603262
	H8510	H	0.639104	0.266608	0.898255
	H8511	H	0.701544	0.329044	0.898754
	H8512	H	0.639036	0.266971	0.602131
	H8513	H	0.701732	0.328834	0.603689
	H8514	H	0.673413	0.295533	0.898650
	H8515	H	0.735843	0.358567	0.898692
	H8516	H	0.655816	0.383810	0.892824
	H8517	H	0.709309	0.263480	1.083169
	H8518	H	0.665847	0.361694	0.497328
	H8519	H	0.719096	0.241213	0.493636
	H8520	H	0.665964	0.362198	0.893605
	H8521	H	0.719420	0.241920	1.083403
	H8522	H	0.655643	0.383319	0.497392
	H8523	H	0.708934	0.262833	0.492610
	H8524	H	0.662077	0.287359	0.780349
	H8525	H	0.724836	0.348533	0.703059
	H8526	H	0.650449	0.275209	0.720236
	H8527	H	0.712704	0.338791	0.799085
	H8528	H	0.649901	0.277439	0.780184
	H8529	H	0.712624	0.338821	0.703119
	H8530	H	0.662619	0.285212	0.720040
	H8531	H	0.724846	0.348718	0.799286
	Co8532	Co	0.749978	0.374837	0.624866
	Co8533	Co	0.687553	0.312413	0.625326
	Co8534	Co	0.625067	0.249943	0.876086
	Co8535	Co	0.687522	0.312472	0.875959
	C8536	C	0.645176	0.405852	0.923546
	C8537	C	0.698602	0.285566	0.924078
	C8538	C	0.676287	0.339173	0.576777
	C8539	C	0.729786	0.218978	0.577326
	C8540	C	0.676290	0.339399	0.924145
	C8541	C	0.729747	0.219074	0.923403
	C8542	C	0.645194	0.405664	0.577079
	C8543	C	0.698593	0.285378	0.576752
	C8544	C	0.674599	0.296876	0.673762
	C8545	C	0.737191	0.359081	0.675520
	C8546	C	0.637935	0.265591	0.826275
	C8547	C	0.700399	0.328000	0.826892
	C8548	C	0.637904	0.265758	0.674482
	C8549	C	0.700499	0.327917	0.675604
	C8550	C	0.674588	0.296779	0.826385
	C8551	C	0.737062	0.359478	0.826591
	C8552	C	0.648875	0.398369	1.000524
	C8553	C	0.702150	0.277628	0.500500
	C8554	C	0.672812	0.347265	1.000509
	C8555	C	0.726131	0.226640	0.500592
	C8556	C	0.670442	0.292973	0.749988
	C8557	C	0.732961	0.355390	0.750996
	C8558	C	0.642076	0.269598	0.750271
	C8559	C	0.704590	0.331933	0.751460
	C8560	C	0.654992	0.385508	1.000570
	C8561	C	0.708163	0.264568	0.500490
	C8562	C	0.666783	0.360315	1.000935
	C8563	C	0.720000	0.239417	0.500770
	C8564	C	0.663270	0.286926	0.750160
	C8565	C	0.725796	0.349371	0.751206
	C8566	C	0.649256	0.275570	0.750186
	C8567	C	0.711747	0.338034	0.751475
	C8568	C	0.658041	0.379082	0.940291
	C8569	C	0.711360	0.258579	1.046743
	C8570	C	0.663745	0.366576	0.498605
	C8571	C	0.716925	0.245880	0.496531
	C8572	C	0.663763	0.366821	0.940712
	C8573	C	0.717132	0.246341	1.046982
	C8574	C	0.657976	0.378807	0.498719
	C8575	C	0.711160	0.258112	0.496310
	C8576	C	0.659532	0.284664	0.767082
	C8577	C	0.722198	0.346459	0.724271
	C8578	C	0.652968	0.277887	0.733131
	C8579	C	0.715333	0.341007	0.778243
	C8580	C	0.652674	0.279081	0.767187
	C8581	C	0.715325	0.340898	0.724191
	C8582	C	0.659837	0.283462	0.733472
	C8583	C	0.722216	0.346541	0.778200
	N8584	N	0.639759	0.416864	0.952648
	N8585	N	0.693430	0.297035	0.953233
	N8586	N	0.681462	0.327700	0.548158
	N8587	N	0.735185	0.207972	0.547888
	N8588	N	0.681475	0.327888	0.952811
	N8589	N	0.735133	0.208014	0.952223
	N8590	N	0.639805	0.416756	0.548185
	N8591	N	0.693479	0.297025	0.547940
	N8592	N	0.680721	0.302724	0.703155
	N8593	N	0.743297	0.365012	0.704106
	N8594	N	0.631788	0.259826	0.797482
	N8595	N	0.694286	0.322167	0.797654
	N8596	N	0.631771	0.259946	0.703207
	N8597	N	0.694352	0.322104	0.703558
	N8598	N	0.680722	0.302630	0.797747
	N8599	N	0.743213	0.365284	0.798077
	H8600	H	0.641511	0.486842	0.348131
	H8601	H	0.708786	0.466556	0.349934
	H8602	H	0.678671	0.504328	0.152499
	H8603	H	0.737734	0.403778	0.149998
	H8604	H	0.678740	0.504120	0.347875
	H8605	H	0.737950	0.404270	0.351409
	H8606	H	0.641517	0.486877	0.151453
	H8607	H	0.708583	0.466438	0.151219
	H8608	H	0.683289	0.470369	0.099013
	H8609	H	0.745800	0.532657	0.098596
	H8610	H	0.647010	0.447067	0.400708
	H8611	H	0.709446	0.509786	0.402104
	H8612	H	0.647048	0.446767	0.098816
	H8613	H	0.709571	0.509352	0.099872
	H8614	H	0.683352	0.470308	0.401573
	H8615	H	0.745841	0.532980	0.402124
	H8616	H	0.654045	0.490610	0.350899
	H8617	H	0.717849	0.445380	0.448143
	H8618	H	0.666515	0.498424	0.149351
	H8619	H	0.728560	0.424950	0.104378
	H8620	H	0.666567	0.498186	0.350790
	H8621	H	0.727982	0.423629	0.447508
	H8622	H	0.653974	0.490941	0.149876
	H8623	H	0.718377	0.446535	0.104498
	H8624	H	0.671948	0.460399	0.102176
	H8625	H	0.734228	0.523713	0.399458
	H8626	H	0.659262	0.453294	0.397848
	H8627	H	0.721880	0.514826	0.103188
	H8628	H	0.659306	0.453230	0.102169
	H8629	H	0.721558	0.516504	0.399074
	H8630	H	0.671903	0.460625	0.398185
	H8631	H	0.734540	0.521991	0.103434
	Co8632	Co	0.757820	0.555911	0.124517
	Co8633	Co	0.695267	0.493467	0.125073
	Co8634	Co	0.632843	0.430927	0.375614
	Co8635	Co	0.695301	0.493572	0.375746
	C8636	C	0.640166	0.487472	0.422828
	C8637	C	0.707726	0.468552	0.423277
	C8638	C	0.680109	0.503914	0.077554
	C8639	C	0.738741	0.401796	0.077266
	C8640	C	0.680146	0.503921	0.422986
	C8641	C	0.738829	0.401950	0.424179
	C8642	C	0.640106	0.487368	0.077337
	C8643	C	0.707681	0.468511	0.077682
	C8644	C	0.684293	0.471961	0.173337
	C8645	C	0.746809	0.534351	0.173137
	C8646	C	0.645848	0.446187	0.326780
	C8647	C	0.708245	0.508982	0.328046
	C8648	C	0.645863	0.446087	0.173020
	C8649	C	0.708303	0.508781	0.173585
	C8650	C	0.684301	0.471974	0.327860
	C8651	C	0.746816	0.534494	0.327953
	C8652	C	0.645018	0.487089	0.500678
	C8653	C	0.711413	0.461066	0.000904
	C8654	C	0.675355	0.503339	0.500754
	C8655	C	0.735285	0.409792	0.000973
	C8656	C	0.680321	0.467169	0.250572
	C8657	C	0.742787	0.529647	0.250796
	C8658	C	0.650392	0.448806	0.249907
	C8659	C	0.712800	0.511514	0.251067
	C8660	C	0.652895	0.490045	0.500881
	C8661	C	0.717499	0.448135	0.000640
	C8662	C	0.667661	0.499273	0.500969
	C8663	C	0.729285	0.422892	0.000761
	C8664	C	0.673011	0.461305	0.250392
	C8665	C	0.735484	0.523725	0.251194
	C8666	C	0.658090	0.452779	0.250095
	C8667	C	0.720539	0.515296	0.251241
	C8668	C	0.656737	0.492257	0.417397
	C8669	C	0.720252	0.441079	0.471220
	C8670	C	0.663827	0.496864	0.082705
	C8671	C	0.726304	0.429498	0.058866
	C8672	C	0.663902	0.496662	0.417480
	C8673	C	0.725986	0.428757	0.470719
	C8674	C	0.656649	0.492425	0.082995
	C8675	C	0.720572	0.441777	0.058664
	C8676	C	0.669222	0.458863	0.167857
	C8677	C	0.731595	0.521830	0.333725
	C8678	C	0.661953	0.454876	0.332338
	C8679	C	0.724526	0.516725	0.168863
	C8680	C	0.661995	0.454719	0.167835
	C8681	C	0.724356	0.517736	0.333652
	C8682	C	0.669191	0.458965	0.332811
	C8683	C	0.731770	0.520782	0.168947
	N8684	N	0.632913	0.488654	0.451489
	N8685	N	0.702333	0.479554	0.452455
	N8686	N	0.687320	0.504130	0.049387
	N8687	N	0.743911	0.390269	0.048310
	N8688	N	0.687350	0.504113	0.451214
	N8689	N	0.743939	0.390333	0.453231
	N8690	N	0.632867	0.488681	0.048481
	N8691	N	0.702295	0.479564	0.048232
	N8692	N	0.689981	0.479479	0.202565
	N8693	N	0.752523	0.541821	0.201979
	N8694	N	0.639214	0.442131	0.298556
	N8695	N	0.701603	0.504929	0.299048
	N8696	N	0.639219	0.442105	0.201574
	N8697	N	0.701640	0.504802	0.202086
	N8698	N	0.690009	0.479449	0.298714
	N8699	N	0.752522	0.541925	0.298319
	H8700	H	0.641521	0.486935	0.847506
	H8701	H	0.708723	0.466458	0.850154
	H8702	H	0.678796	0.504501	0.652243
	H8703	H	0.737613	0.403748	0.650008
	H8704	H	0.678752	0.504327	0.848407
	H8705	H	0.738035	0.404391	0.851762
	H8706	H	0.641489	0.486809	0.652915
	H8707	H	0.708512	0.466194	0.650959
	H8708	H	0.683375	0.470261	0.599479
	H8709	H	0.745843	0.532702	0.598593
	H8710	H	0.647091	0.446777	0.901315
	H8711	H	0.709455	0.509600	0.900958
	H8712	H	0.647071	0.446806	0.599542
	H8713	H	0.709470	0.509388	0.599259
	H8714	H	0.683266	0.470521	0.902601
	H8715	H	0.745874	0.532769	0.901770
	H8716	H	0.653996	0.490551	0.849446
	H8717	H	0.718270	0.446240	0.896668
	H8718	H	0.666595	0.498204	0.650894
	H8719	H	0.728810	0.425417	0.552889
	H8720	H	0.666601	0.497946	0.849521
	H8721	H	0.728380	0.424495	0.896890
	H8722	H	0.654035	0.490492	0.650732
	H8723	H	0.718732	0.447163	0.552482
	H8724	H	0.671807	0.460734	0.602462
	H8725	H	0.734364	0.522777	0.602584
	H8726	H	0.659393	0.452432	0.897772
	H8727	H	0.721763	0.515468	0.898059
	H8728	H	0.659149	0.453495	0.602629
	H8729	H	0.721783	0.515422	0.602987
	H8730	H	0.672030	0.459845	0.897189
	H8731	H	0.734444	0.522595	0.897945
	Co8732	Co	0.757826	0.555938	0.624722
	Co8733	Co	0.695293	0.493440	0.624884
	Co8734	Co	0.632805	0.430940	0.875433
	Co8735	Co	0.695312	0.493523	0.875953
	C8736	C	0.640090	0.487350	0.921949
	C8737	C	0.707739	0.468564	0.923783
	C8738	C	0.680172	0.504122	0.578070
	C8739	C	0.738674	0.401688	0.576961
	C8740	C	0.680142	0.503970	0.922389
	C8741	C	0.738880	0.402087	0.924621
	C8742	C	0.640140	0.487289	0.578046
	C8743	C	0.707604	0.468367	0.577348
	C8744	C	0.684310	0.471892	0.673444
	C8745	C	0.746785	0.534355	0.672651
	C8746	C	0.645844	0.446046	0.827245
	C8747	C	0.708291	0.508796	0.827063
	C8748	C	0.645863	0.446026	0.673371
	C8749	C	0.708310	0.508722	0.673347
	C8750	C	0.684265	0.471964	0.827767
	C8751	C	0.746802	0.534393	0.827174
	C8752	C	0.644989	0.487095	0.999488
	C8753	C	0.711360	0.460854	0.500482
	C8754	C	0.675303	0.503222	0.999603
	C8755	C	0.735255	0.409717	0.500414
	C8756	C	0.680309	0.467058	0.750525
	C8757	C	0.742824	0.529518	0.750118
	C8758	C	0.650378	0.448707	0.750395
	C8759	C	0.712809	0.511402	0.750312
	C8760	C	0.652838	0.490079	0.999523
	C8761	C	0.717462	0.448000	0.500804
	C8762	C	0.667618	0.499270	0.999207
	C8763	C	0.729264	0.422763	0.500168
	C8764	C	0.673010	0.461148	0.750113
	C8765	C	0.735510	0.523583	0.750316
	C8766	C	0.658103	0.452603	0.750253
	C8767	C	0.720559	0.515155	0.750541
	C8768	C	0.656681	0.492190	0.916066
	C8769	C	0.720484	0.441568	0.942478
	C8770	C	0.663895	0.496727	0.584169
	C8771	C	0.726465	0.429741	0.529759
	C8772	C	0.663871	0.496559	0.916040
	C8773	C	0.726235	0.429326	0.942510
	C8774	C	0.656721	0.492292	0.584421
	C8775	C	0.720735	0.442054	0.529953
	C8776	C	0.669157	0.458987	0.667826
	C8777	C	0.731701	0.521120	0.668283
	C8778	C	0.662038	0.454321	0.832338
	C8779	C	0.724477	0.517047	0.832629
	C8780	C	0.661923	0.454866	0.667926
	C8781	C	0.724470	0.517072	0.668303
	C8782	C	0.669267	0.458440	0.832097
	C8783	C	0.731705	0.521176	0.832474
	N8784	N	0.632868	0.488713	0.951008
	N8785	N	0.702320	0.479583	0.953009
	N8786	N	0.687369	0.504214	0.549431
	N8787	N	0.743847	0.390162	0.548183
	N8788	N	0.687337	0.504138	0.951396
	N8789	N	0.743996	0.390460	0.953430
	N8790	N	0.632901	0.488642	0.549058
	N8791	N	0.702267	0.479466	0.547790
	N8792	N	0.689985	0.479447	0.702639
	N8793	N	0.752491	0.541845	0.701617
	N8794	N	0.639204	0.442004	0.798501
	N8795	N	0.701635	0.504764	0.798368
	N8796	N	0.639231	0.441927	0.701814
	N8797	N	0.701655	0.504709	0.701628
	N8798	N	0.689966	0.479455	0.799025
	N8799	N	0.752489	0.541908	0.797987
	H8800	H	0.633668	0.558000	0.348324
	H8801	H	0.704030	0.549498	0.348837
	H8802	H	0.671004	0.575754	0.152297
	H8803	H	0.741247	0.566430	0.152295
	H8804	H	0.670932	0.575604	0.348203
	H8805	H	0.741255	0.566998	0.348660
	H8806	H	0.633706	0.558465	0.152402
	H8807	H	0.703972	0.549377	0.151917
	H8808	H	0.674733	0.541680	0.098317
	H8809	H	0.737188	0.604356	0.098713
	H8810	H	0.637684	0.521004	0.401880
	H8811	H	0.700231	0.583375	0.402354
	H8812	H	0.637728	0.520796	0.098199
	H8813	H	0.700122	0.583552	0.098896
	H8814	H	0.674817	0.541492	0.402330
	H8815	H	0.737301	0.603858	0.401745
	H8816	H	0.645897	0.564041	0.650554
	H8817	H	0.716547	0.553356	0.351100
	H8818	H	0.658459	0.571769	0.150536
	H8819	H	0.729087	0.560563	0.150195
	H8820	H	0.658459	0.571600	0.649991
	H8821	H	0.729098	0.560932	0.350761
	H8822	H	0.645909	0.564169	0.150456
	H8823	H	0.716562	0.552861	0.149803
	H8824	H	0.662629	0.534476	0.100450
	H8825	H	0.725201	0.596611	0.099778
	H8826	H	0.649843	0.527937	0.400502
	H8827	H	0.712330	0.590757	0.400695
	H8828	H	0.649777	0.528464	0.100448
	H8829	H	0.712318	0.590624	0.099645
	H8830	H	0.662741	0.534021	0.400363
	H8831	H	0.725155	0.596949	0.400240
	Co8832	Co	0.749960	0.625098	0.124003
	Co8833	Co	0.687458	0.562553	0.124565
	Co8834	Co	0.625005	0.499894	0.375849
	Co8835	Co	0.687512	0.562555	0.376024
	C8836	C	0.632284	0.558415	0.422952
	C8837	C	0.702693	0.550012	0.423183
	C8838	C	0.672348	0.575162	0.077698
	C8839	C	0.742670	0.566252	0.077712
	C8840	C	0.672307	0.574909	0.422859
	C8841	C	0.742667	0.566543	0.423133
	C8842	C	0.632325	0.558652	0.077917
	C8843	C	0.702609	0.549824	0.077274
	C8844	C	0.675823	0.542912	0.172930
	C8845	C	0.738288	0.605516	0.172589
	C8846	C	0.636622	0.519591	0.327574
	C8847	C	0.699187	0.582059	0.327748
	C8848	C	0.636639	0.519565	0.172890
	C8849	C	0.699112	0.582208	0.173191
	C8850	C	0.675860	0.542882	0.327728
	C8851	C	0.738330	0.605334	0.327304
	C8852	C	0.637089	0.559092	0.500443
	C8853	C	0.707510	0.549412	-0.000217
	C8854	C	0.667428	0.575301	0.500416
	C8855	C	0.737850	0.565643	0.000097
	C8856	C	0.671542	0.539170	0.250537
	C8857	C	0.734015	0.601622	0.249975
	C8858	C	0.640931	0.523335	0.250461
	C8859	C	0.703453	0.585935	0.250369
	C8860	C	0.644800	0.563011	0.500735
	C8861	C	0.715380	0.552361	-0.000117
	C8862	C	0.659577	0.572237	0.500463
	C8863	C	0.730160	0.561640	0.000270
	C8864	C	0.663883	0.534742	0.250554
	C8865	C	0.726359	0.597199	0.249965
	C8866	C	0.648612	0.527702	0.250773
	C8867	C	0.711104	0.590239	0.250120
	C8868	C	0.648600	0.565475	0.583924
	C8869	C	0.719232	0.555030	0.417519
	C8870	C	0.655764	0.570166	0.083676
	C8871	C	0.726397	0.559002	0.083448
	C8872	C	0.655761	0.569932	0.583699
	C8873	C	0.726406	0.559389	0.417394
	C8874	C	0.648595	0.565756	0.083820
	C8875	C	0.719229	0.554555	0.083294
	C8876	C	0.659905	0.533092	0.167258
	C8877	C	0.722434	0.595289	0.166400
	C8878	C	0.652589	0.529363	0.333960
	C8879	C	0.715064	0.592025	0.333707
	C8880	C	0.652552	0.529631	0.167321
	C8881	C	0.715047	0.592006	0.166566
	C8882	C	0.659957	0.532794	0.333768
	C8883	C	0.722422	0.595473	0.333492
	N8884	N	0.625069	0.558301	0.451420
	N8885	N	0.695433	0.551343	0.451885
	N8886	N	0.679594	0.573785	0.049237
	N8887	N	0.749860	0.566572	0.049003
	N8888	N	0.679548	0.573669	0.451622
	N8889	N	0.749892	0.566693	0.451210
	N8890	N	0.625123	0.558422	0.049788
	N8891	N	0.695366	0.551203	0.048858
	N8892	N	0.682018	0.548953	0.201919
	N8893	N	0.744457	0.611575	0.201493
	N8894	N	0.630457	0.513498	0.298621
	N8895	N	0.693001	0.576043	0.299187
	N8896	N	0.630451	0.513510	0.201622
	N8897	N	0.692959	0.576064	0.201940
	N8898	N	0.682049	0.548927	0.298894
	N8899	N	0.744495	0.611437	0.298406
	H8900	H	0.633649	0.558262	0.847988
	H8901	H	0.703981	0.548959	0.847863
	H8902	H	0.670956	0.575670	0.651999
	H8903	H	0.741327	0.566768	0.652378
	H8904	H	0.671034	0.575640	0.848264
	H8905	H	0.741215	0.566903	0.848094
	H8906	H	0.633671	0.558205	0.652347
	H8907	H	0.704033	0.549497	0.652460
	H8908	H	0.674734	0.541621	0.598520
	H8909	H	0.737159	0.604382	0.598017
	H8910	H	0.637673	0.521023	0.902536
	H8911	H	0.700243	0.583222	0.902990
	H8912	H	0.637766	0.520783	0.598712
	H8913	H	0.700171	0.583592	0.598896
	H8914	H	0.674743	0.541550	0.902282
	H8915	H	0.737284	0.604100	0.902232
	H8916	H	0.645807	0.564662	0.850186
	H8917	H	0.716511	0.553185	0.850141
	H8918	H	0.658419	0.571674	0.350698
	H8919	H	0.729126	0.560805	0.651301
	H8920	H	0.658374	0.572232	0.850272
	H8921	H	0.729083	0.560773	0.850551
	H8922	H	0.645850	0.564123	0.350796
	H8923	H	0.716561	0.553087	0.651208
	H8924	H	0.662704	0.534032	0.600583
	H8925	H	0.725116	0.596631	0.600235
	H8926	H	0.649777	0.528432	0.900635
	H8927	H	0.712247	0.590809	0.900666
	H8928	H	0.649823	0.528157	0.600771
	H8929	H	0.712309	0.590379	0.600402
	H8930	H	0.662642	0.534577	0.900514
	H8931	H	0.725086	0.596893	0.900734
	Co8932	Co	0.749947	0.625125	0.624432
	Co8933	Co	0.687488	0.562504	0.624734
	Co8934	Co	0.624967	0.500012	0.875741
	Co8935	Co	0.687479	0.562413	0.876159
	C8936	C	0.632317	0.558457	0.922677
	C8937	C	0.702622	0.549686	0.922466
	C8938	C	0.672306	0.575019	0.577807
	C8939	C	0.742694	0.566489	0.578217
	C8940	C	0.672359	0.575012	0.922777
	C8941	C	0.742646	0.566534	0.922463
	C8942	C	0.632279	0.558519	0.577775
	C8943	C	0.702669	0.550099	0.578303
	C8944	C	0.675829	0.542882	0.672993
	C8945	C	0.738253	0.605586	0.673113
	C8946	C	0.636640	0.519595	0.827787
	C8947	C	0.699161	0.581908	0.828431
	C8948	C	0.636682	0.519538	0.673183
	C8949	C	0.699079	0.582186	0.673601
	C8950	C	0.675841	0.542817	0.827688
	C8951	C	0.738290	0.605476	0.827529
	C8952	C	0.637103	0.559320	1.000231
	C8953	C	0.707549	0.549750	0.500901
	C8954	C	0.667473	0.575464	1.000366
	C8955	C	0.737898	0.565823	0.500805
	C8956	C	0.671537	0.539127	0.750438
	C8957	C	0.733958	0.601783	0.750315
	C8958	C	0.640948	0.523364	0.750727
	C8959	C	0.703418	0.585784	0.750874
	C8960	C	0.644790	0.563397	1.000318
	C8961	C	0.715425	0.552689	0.501069
	C8962	C	0.659579	0.572577	1.000374
	C8963	C	0.730185	0.561851	0.501023
	C8964	C	0.663869	0.534770	0.750646
	C8965	C	0.726320	0.597320	0.750513
	C8966	C	0.648620	0.527748	0.750785
	C8967	C	0.711082	0.590151	0.750789
	C8968	C	0.648524	0.566142	0.916730
	C8969	C	0.719188	0.554757	0.916694
	C8970	C	0.655724	0.570071	0.417155
	C8971	C	0.726423	0.559250	0.584700
	C8972	C	0.655696	0.570527	0.916795
	C8973	C	0.726376	0.559173	0.916981
	C8974	C	0.648552	0.565639	0.417363
	C8975	C	0.719261	0.554797	0.584775
	C8976	C	0.659944	0.532790	0.667319
	C8977	C	0.722369	0.595376	0.667159
	C8978	C	0.652559	0.529584	0.834079
	C8979	C	0.715013	0.592042	0.834151
	C8980	C	0.652581	0.529409	0.667268
	C8981	C	0.715028	0.591823	0.667204
	C8982	C	0.659906	0.533089	0.834038
	C8983	C	0.722369	0.595528	0.833965
	N8984	N	0.625099	0.558309	0.951587
	N8985	N	0.695378	0.551130	0.951277
	N8986	N	0.679543	0.573674	0.549073
	N8987	N	0.749897	0.566681	0.549571
	N8988	N	0.679609	0.573679	0.951537
	N8989	N	0.749852	0.566684	0.950916
	N8990	N	0.625069	0.558359	0.549500
	N8991	N	0.695420	0.551371	0.549226
	N8992	N	0.682044	0.548850	0.701712
	N8993	N	0.744433	0.611621	0.701538
	N8994	N	0.630469	0.513534	0.798761
	N8995	N	0.692955	0.575946	0.799313
	N8996	N	0.630503	0.513488	0.701802
	N8997	N	0.692930	0.576060	0.702548
	N8998	N	0.682030	0.548849	0.798843
	N8999	N	0.744471	0.611547	0.798674
	H9000	H	0.637055	0.720981	0.350727
	H9001	H	0.696198	0.620589	0.348422
	H9002	H	0.666254	0.658911	0.150384
	H9003	H	0.733417	0.638476	0.152513
	H9004	H	0.666162	0.658677	0.349756
	H9005	H	0.733450	0.637858	0.347660
	H9006	H	0.636792	0.720531	0.147937
	H9007	H	0.696157	0.621132	0.152715
	H9008	H	0.665407	0.615739	0.099440
	H9009	H	0.727929	0.678104	0.099294
	H9010	H	0.629139	0.592212	0.402056
	H9011	H	0.691710	0.654511	0.402379
	H9012	H	0.629140	0.592187	0.099471
	H9013	H	0.691520	0.655047	0.099337
	H9014	H	0.665458	0.615365	0.401069
	H9015	H	0.728024	0.677709	0.400749
	H9016	H	0.646658	0.700908	0.520552
	H9017	H	0.708421	0.626704	0.650718
	H9018	H	0.657158	0.679720	0.030836
	H9019	H	0.720850	0.634800	-0.149811
	H9020	H	0.656749	0.679167	0.521113
	H9021	H	0.720954	0.634123	0.649898
	H9022	H	0.646993	0.701298	0.030920
	H9023	H	0.708315	0.627221	-0.149623
	H9024	H	0.653315	0.608985	0.102757
	H9025	H	0.715662	0.671962	0.103495
	H9026	H	0.640512	0.602510	0.397686
	H9027	H	0.703066	0.664796	0.398504
	H9028	H	0.640634	0.601827	0.103385
	H9029	H	0.702972	0.665005	0.103544
	H9030	H	0.653158	0.609666	0.397788
	H9031	H	0.715769	0.671778	0.398364
	Co9032	Co	0.742165	0.694007	0.124987
	Co9033	Co	0.679643	0.631740	0.125353
	Co9034	Co	0.617150	0.569094	0.375908
	Co9035	Co	0.679622	0.631659	0.375712
	C9036	C	0.636114	0.723166	0.423452
	C9037	C	0.694783	0.620960	0.423171
	C9038	C	0.667230	0.656748	0.076659
	C9039	C	0.734807	0.637745	0.077964
	C9040	C	0.667215	0.656676	0.423581
	C9041	C	0.734807	0.637398	0.422204
	C9042	C	0.635964	0.722914	0.075480
	C9043	C	0.694779	0.621277	0.078150
	C9044	C	0.666659	0.616373	0.173251
	C9045	C	0.729168	0.678697	0.173380
	C9046	C	0.628208	0.590599	0.327894
	C9047	C	0.690678	0.653183	0.327888
	C9048	C	0.628163	0.590697	0.173446
	C9049	C	0.690607	0.653425	0.173407
	C9050	C	0.666686	0.616231	0.327347
	C9051	C	0.729223	0.678506	0.327114
	C9052	C	0.639643	0.715392	0.499927
	C9053	C	0.699592	0.621898	0.000591
	C9054	C	0.663607	0.664257	0.500503
	C9055	C	0.729920	0.638034	0.000546
	C9056	C	0.662162	0.613581	0.250233
	C9057	C	0.724652	0.675938	0.250313
	C9058	C	0.632181	0.595429	0.250484
	C9059	C	0.694630	0.658161	0.250714
	C9060	C	0.645666	0.702341	0.500148
	C9061	C	0.707298	0.625866	0.000376
	C9062	C	0.657454	0.677063	0.500263
	C9063	C	0.722067	0.635100	0.000370
	C9064	C	0.654442	0.609673	0.250141
	C9065	C	0.716907	0.672185	0.250524
	C9066	C	0.639492	0.601295	0.250407
	C9067	C	0.701940	0.664010	0.250696
	C9068	C	0.648761	0.696048	0.511814
	C9069	C	0.711091	0.628180	0.583680
	C9070	C	0.654693	0.684000	0.016851
	C9071	C	0.718220	0.632942	-0.083087
	C9072	C	0.654482	0.683765	0.511868
	C9073	C	0.718242	0.632604	0.583501
	C9074	C	0.648952	0.696237	0.016863
	C9075	C	0.711040	0.628565	-0.082913
	C9076	C	0.650584	0.607617	0.168248
	C9077	C	0.712967	0.670391	0.168690
	C9078	C	0.643269	0.603862	0.332501
	C9079	C	0.705780	0.666286	0.332880
	C9080	C	0.643351	0.603522	0.168360
	C9081	C	0.705719	0.666412	0.168576
	C9082	C	0.650510	0.607930	0.332256
	C9083	C	0.713041	0.670269	0.332932
	N9084	N	0.631015	0.734806	0.452320
	N9085	N	0.687556	0.620986	0.451561
	N9086	N	0.672626	0.645657	0.047900
	N9087	N	0.742062	0.636370	0.049066
	N9088	N	0.672609	0.645563	0.452612
	N9089	N	0.742069	0.636248	0.450789
	N9090	N	0.630868	0.734599	0.046726
	N9091	N	0.687581	0.621064	0.049873
	N9092	N	0.673292	0.620406	0.201834
	N9093	N	0.735828	0.682657	0.201745
	N9094	N	0.622488	0.583154	0.298753
	N9095	N	0.684960	0.645741	0.298799
	N9096	N	0.622450	0.583237	0.202703
	N9097	N	0.684933	0.645854	0.202312
	N9098	N	0.673310	0.620369	0.298661
	N9099	N	0.735865	0.682569	0.298503
	H9100	H	0.637357	0.721627	0.850825
	H9101	H	0.696180	0.620768	0.848890
	H9102	H	0.666349	0.658950	0.650707
	H9103	H	0.733508	0.638426	0.651241
	H9104	H	0.666266	0.658692	0.849646
	H9105	H	0.733365	0.638015	0.848759
	H9106	H	0.637248	0.721387	0.649606
	H9107	H	0.696161	0.620713	0.653077
	H9108	H	0.665492	0.615328	0.599702
	H9109	H	0.727969	0.678143	0.599371
	H9110	H	0.629139	0.592091	0.902127
	H9111	H	0.691687	0.654769	0.901729
	H9112	H	0.629131	0.592262	0.599134
	H9113	H	0.691558	0.654987	0.598530
	H9114	H	0.665486	0.615619	0.901120
	H9115	H	0.727871	0.678229	0.900701
	H9116	H	0.645872	0.699616	0.967548
	H9117	H	0.708424	0.626753	1.150783
	H9118	H	0.656481	0.678435	0.479793
	H9119	H	0.720888	0.634289	0.350024
	H9120	H	0.656043	0.677960	0.967946
	H9121	H	0.720924	0.634257	1.150865
	H9122	H	0.646345	0.700105	0.479522
	H9123	H	0.708333	0.626792	0.350670
	H9124	H	0.653338	0.608953	0.603411
	H9125	H	0.715752	0.671829	0.602114
	H9126	H	0.640441	0.602957	0.897866
	H9127	H	0.702989	0.665154	0.897842
	H9128	H	0.640621	0.601858	0.603541
	H9129	H	0.703097	0.664548	0.601982
	H9130	H	0.653103	0.610299	0.897481
	H9131	H	0.715654	0.672425	0.897641
	Co9132	Co	0.742188	0.694033	0.625086
	Co9133	Co	0.679616	0.631646	0.625188
	Co9134	Co	0.617148	0.569023	0.875878
	Co9135	Co	0.679623	0.631670	0.876026
	C9136	C	0.636243	0.723456	0.923478
	C9137	C	0.694774	0.621093	0.923191
	C9138	C	0.667299	0.656791	0.577336
	C9139	C	0.734840	0.637698	0.577051
	C9140	C	0.667247	0.656686	0.923069
	C9141	C	0.734780	0.637627	0.922980
	C9142	C	0.636220	0.723418	0.576367
	C9143	C	0.694779	0.621020	0.578275
	C9144	C	0.666665	0.616241	0.673443
	C9145	C	0.729174	0.678833	0.673015
	C9146	C	0.628176	0.590565	0.827891
	C9147	C	0.690646	0.653300	0.827709
	C9148	C	0.628188	0.590567	0.673617
	C9149	C	0.690632	0.653262	0.673143
	C9150	C	0.666637	0.616422	0.827273
	C9151	C	0.729142	0.678881	0.827019
	C9152	C	0.639602	0.715302	0.999510
	C9153	C	0.699592	0.621556	0.500752
	C9154	C	0.663557	0.664252	0.999596
	C9155	C	0.729957	0.637817	0.499784
	C9156	C	0.662116	0.613789	0.750333
	C9157	C	0.724626	0.676250	0.749988
	C9158	C	0.632166	0.595404	0.750891
	C9159	C	0.694638	0.658106	0.750194
	C9160	C	0.645625	0.702251	0.999291
	C9161	C	0.707295	0.625590	0.500619
	C9162	C	0.657441	0.677096	0.999273
	C9163	C	0.722086	0.634784	0.499944
	C9164	C	0.654388	0.609856	0.750441
	C9165	C	0.716889	0.672439	0.749864
	C9166	C	0.639449	0.601416	0.750985
	C9167	C	0.701949	0.664044	0.750023
	C9168	C	0.648353	0.695295	0.981497
	C9169	C	0.711091	0.628319	1.083821
	C9170	C	0.654306	0.683315	0.488877
	C9171	C	0.718228	0.632565	0.416620
	C9172	C	0.654105	0.683061	0.981476
	C9173	C	0.718251	0.632768	1.083919
	C9174	C	0.648607	0.695647	0.488609
	C9175	C	0.711052	0.628197	0.417181
	C9176	C	0.650560	0.607583	0.668412
	C9177	C	0.713018	0.670348	0.667471
	C9178	C	0.643180	0.604285	0.832783
	C9179	C	0.705726	0.666612	0.832299
	C9180	C	0.643322	0.603524	0.668743
	C9181	C	0.705780	0.666273	0.667662
	C9182	C	0.650418	0.608354	0.832463
	C9183	C	0.712961	0.670684	0.832308
	N9184	N	0.631049	0.734916	0.951997
	N9185	N	0.687564	0.621013	0.951784
	N9186	N	0.672674	0.645676	0.548055
	N9187	N	0.742091	0.636391	0.548267
	N9188	N	0.672649	0.645642	0.952598
	N9189	N	0.742040	0.636286	0.951620
	N9190	N	0.631055	0.734932	0.547456
	N9191	N	0.687564	0.620983	0.549863
	N9192	N	0.673297	0.620374	0.702231
	N9193	N	0.735835	0.682817	0.701954
	N9194	N	0.622503	0.582992	0.798771
	N9195	N	0.684967	0.645726	0.798759
	N9196	N	0.622516	0.583004	0.702363
	N9197	N	0.684978	0.645662	0.702555
	N9198	N	0.673282	0.620441	0.798686
	N9199	N	0.735825	0.682826	0.798461
	H9200	H	0.646237	0.904178	0.348183
	H9201	H	0.699382	0.782922	0.350489
	H9202	H	0.675499	0.841885	0.148678
	H9203	H	0.728871	0.721244	0.150674
	H9204	H	0.675258	0.841387	0.349473
	H9205	H	0.728729	0.720833	0.349739
	H9206	H	0.646060	0.903514	0.148615
	H9207	H	0.699655	0.783545	0.149763
	H9208	H	0.673460	0.796218	0.101578
	H9209	H	0.736015	0.858025	0.101945
	H9210	H	0.639241	0.766385	0.397229
	H9211	H	0.701643	0.829112	0.397076
	H9212	H	0.638941	0.766953	0.100013
	H9213	H	0.701567	0.829417	0.102125
	H9214	H	0.673444	0.795768	0.396978
	H9215	H	0.735879	0.858748	0.397133
	H9216	H	0.656195	0.884576	0.523194
	H9217	H	0.709326	0.763531	0.462428
	H9218	H	0.665366	0.860723	-0.085929
	H9219	H	0.719426	0.741804	0.052425
	H9220	H	0.666331	0.862993	0.522255
	H9221	H	0.719527	0.741962	0.462908
	H9222	H	0.655206	0.882289	-0.086200
	H9223	H	0.709296	0.763456	0.052589
	H9224	H	0.662039	0.787541	0.283858
	H9225	H	0.725143	0.847779	0.254046
	H9226	H	0.650512	0.774952	0.213253
	H9227	H	0.712449	0.839692	0.244050
	H9228	H	0.649900	0.777417	0.283538
	H9229	H	0.712909	0.837928	0.254558
	H9230	H	0.662634	0.785159	0.213912
	H9231	H	0.724608	0.849694	0.244310
	Co9232	Co	0.749997	0.875043	0.124306
	Co9233	Co	0.687550	0.812637	0.124312
	Co9234	Co	0.625006	0.750111	0.374985
	Co9235	Co	0.687503	0.812444	0.375088
	C9236	C	0.645227	0.906208	0.421673
	C9237	C	0.698563	0.785349	0.423483
	C9238	C	0.676395	0.839606	0.075683
	C9239	C	0.729852	0.719167	0.077085
	C9240	C	0.676270	0.839370	0.422553
	C9241	C	0.729750	0.718896	0.423197
	C9242	C	0.645136	0.905780	0.075312
	C9243	C	0.698658	0.785629	0.076842
	C9244	C	0.674595	0.797108	0.173692
	C9245	C	0.737133	0.859249	0.173865
	C9246	C	0.638010	0.765401	0.324898
	C9247	C	0.700440	0.828070	0.325142
	C9248	C	0.637857	0.765713	0.172648
	C9249	C	0.700412	0.828230	0.173981
	C9250	C	0.674586	0.796870	0.324957
	C9251	C	0.737069	0.859586	0.325330
	C9252	C	0.648867	0.898537	0.498601
	C9253	C	0.702166	0.777726	0.000620
	C9254	C	0.672831	0.847394	0.499007
	C9255	C	0.726128	0.726652	0.000228
	C9256	C	0.670453	0.793023	0.249030
	C9257	C	0.732945	0.855530	0.249548
	C9258	C	0.642096	0.769429	0.248701
	C9259	C	0.704571	0.832035	0.249500
	C9260	C	0.654975	0.885664	0.498500
	C9261	C	0.708177	0.764680	0.000791
	C9262	C	0.666819	0.860427	0.498953
	C9263	C	0.720013	0.739470	0.000599
	C9264	C	0.663262	0.787020	0.248772
	C9265	C	0.725764	0.849490	0.249370
	C9266	C	0.649245	0.775507	0.248584
	C9267	C	0.711752	0.838066	0.249653
	C9268	C	0.658225	0.879596	0.512139
	C9269	C	0.711385	0.758534	0.479104
	C9270	C	0.663460	0.866090	-0.048857
	C9271	C	0.717116	0.746254	0.029648
	C9272	C	0.663971	0.867332	0.512105
	C9273	C	0.717135	0.746284	0.479050
	C9274	C	0.657723	0.878358	-0.049021
	C9275	C	0.711362	0.758524	0.029756
	C9276	C	0.659515	0.784773	0.268531
	C9277	C	0.722328	0.846081	0.252124
	C9278	C	0.652994	0.777757	0.228830
	C9279	C	0.715189	0.841495	0.246744
	C9280	C	0.652654	0.779127	0.268427
	C9281	C	0.715464	0.840486	0.252333
	C9282	C	0.659844	0.783411	0.228965
	C9283	C	0.722048	0.847098	0.246629
	N9284	N	0.639854	0.917262	0.451209
	N9285	N	0.693498	0.797034	0.452233
	N9286	N	0.681505	0.827961	0.046798
	N9287	N	0.735226	0.708084	0.047949
	N9288	N	0.681426	0.827837	0.451753
	N9289	N	0.735167	0.707891	0.452526
	N9290	N	0.639764	0.916897	0.046715
	N9291	N	0.693519	0.797167	0.047582
	N9292	N	0.680744	0.802833	0.202657
	N9293	N	0.743284	0.865113	0.202601
	N9294	N	0.631844	0.759624	0.296110
	N9295	N	0.694301	0.822232	0.296899
	N9296	N	0.631751	0.759847	0.201686
	N9297	N	0.694290	0.822341	0.202837
	N9298	N	0.680746	0.802644	0.296535
	N9299	N	0.743253	0.865278	0.296644
	H9300	H	0.646287	0.904229	0.848120
	H9301	H	0.699605	0.783402	0.850647
	H9302	H	0.675522	0.841853	0.648965
	H9303	H	0.729014	0.721497	0.650453
	H9304	H	0.675302	0.841407	0.849217
	H9305	H	0.728705	0.721125	0.850282
	H9306	H	0.646102	0.903664	0.649167
	H9307	H	0.699922	0.784011	0.649022
	H9308	H	0.673540	0.796016	0.600972
	H9309	H	0.735852	0.858756	0.602797
	H9310	H	0.639193	0.766778	0.896950
	H9311	H	0.701818	0.828405	0.898105
	H9312	H	0.638984	0.767153	0.601051
	H9313	H	0.701500	0.829754	0.603034
	H9314	H	0.673567	0.795487	0.896859
	H9315	H	0.736054	0.858069	0.896961
	H9316	H	0.656510	0.885339	1.082196
	H9317	H	0.708750	0.762300	0.949105
	H9318	H	0.665627	0.861496	0.475519
	H9319	H	0.718865	0.740438	0.536860
	H9320	H	0.666663	0.863695	1.082767
	H9321	H	0.718906	0.740706	0.948830
	H9322	H	0.655473	0.883120	0.474226
	H9323	H	0.708669	0.762063	0.536961
	H9324	H	0.662110	0.787711	0.765782
	H9325	H	0.724978	0.848154	0.753991
	H9326	H	0.650553	0.774987	0.730604
	H9327	H	0.712555	0.839481	0.746633
	H9328	H	0.649834	0.778043	0.765047
	H9329	H	0.712776	0.838239	0.754206
	H9330	H	0.662780	0.784760	0.731187
	H9331	H	0.724765	0.849395	0.746611
	Co9332	Co	0.750027	0.874945	0.624665
	Co9333	Co	0.687575	0.812664	0.623904
	Co9334	Co	0.625022	0.750312	0.874579
	Co9335	Co	0.687505	0.812475	0.875175
	C9336	C	0.645247	0.906143	0.921619
	C9337	C	0.698657	0.785569	0.923937
	C9338	C	0.676404	0.839654	0.575543
	C9339	C	0.729904	0.719233	0.576939
	C9340	C	0.676290	0.839342	0.922788
	C9341	C	0.729775	0.719067	0.923338
	C9342	C	0.645162	0.905957	0.575801
	C9343	C	0.698807	0.785848	0.576153
	C9344	C	0.674659	0.797015	0.673218
	C9345	C	0.737058	0.859640	0.674301
	C9346	C	0.637967	0.765841	0.824722
	C9347	C	0.700527	0.827759	0.826172
	C9348	C	0.637872	0.766027	0.673107
	C9349	C	0.700355	0.828459	0.674774
	C9350	C	0.674674	0.796775	0.824741
	C9351	C	0.737185	0.859271	0.825392
	C9352	C	0.648868	0.898442	0.998269
	C9353	C	0.702180	0.777691	0.499883
	C9354	C	0.672833	0.847318	0.999010
	C9355	C	0.726145	0.726578	0.500016
	C9356	C	0.670510	0.793069	0.748845
	C9357	C	0.732978	0.855532	0.749964
	C9358	C	0.642060	0.769817	0.748672
	C9359	C	0.704570	0.832077	0.750518
	C9360	C	0.655012	0.885657	0.998080
	C9361	C	0.708171	0.764588	0.499788
	C9362	C	0.666853	0.860417	0.998703
	C9363	C	0.720012	0.739415	0.499888
	C9364	C	0.663347	0.786951	0.748418
	C9365	C	0.725789	0.849485	0.750314
	C9366	C	0.649262	0.775788	0.748310
	C9367	C	0.711767	0.838096	0.750489
	C9368	C	0.658426	0.880029	1.045363
	C9369	C	0.711066	0.757888	0.971590
	C9370	C	0.663588	0.866509	0.485563
	C9371	C	0.716772	0.745448	0.520782
	C9372	C	0.664175	0.867777	1.045601
	C9373	C	0.716813	0.745596	0.971689
	C9374	C	0.657837	0.878756	0.485267
	C9375	C	0.711017	0.757710	0.520493
	C9376	C	0.659572	0.784906	0.758056
	C9377	C	0.722264	0.846207	0.752696
	C9378	C	0.653062	0.777791	0.738437
	C9379	C	0.715276	0.841382	0.748065
	C9380	C	0.652678	0.779462	0.758084
	C9381	C	0.715393	0.840665	0.752690
	C9382	C	0.659946	0.783256	0.738327
	C9383	C	0.722150	0.846925	0.748043
	N9384	N	0.639834	0.917098	0.951264
	N9385	N	0.693503	0.797116	0.952686
	N9386	N	0.681518	0.828036	0.546662
	N9387	N	0.735266	0.708089	0.547748
	N9388	N	0.681456	0.827847	0.951915
	N9389	N	0.735184	0.708046	0.952552
	N9390	N	0.639807	0.917112	0.546947
	N9391	N	0.693637	0.797342	0.546977
	N9392	N	0.680807	0.802801	0.702208
	N9393	N	0.743215	0.865412	0.703059
	N9394	N	0.631787	0.760122	0.796270
	N9395	N	0.694338	0.822138	0.797157
	N9396	N	0.631736	0.760232	0.702231
	N9397	N	0.694248	0.822527	0.703237
	N9398	N	0.680820	0.802633	0.796002
	N9399	N	0.743300	0.865189	0.796695
	H9400	H	0.641579	0.987151	0.347255
	H9401	H	0.708551	0.965972	0.350061
	H9402	H	0.678719	1.004114	0.151954
	H9403	H	0.738015	0.904183	0.148762
	H9404	H	0.678860	1.004520	0.348252
	H9405	H	0.737961	0.903947	0.351111
	H9406	H	0.641494	0.986843	0.151786
	H9407	H	0.708737	0.966582	0.150587
	H9408	H	0.683378	0.970099	0.098904
	H9409	H	0.745906	1.032765	0.098095
	H9410	H	0.646884	0.947544	0.399417
	H9411	H	0.709621	1.009257	0.401133
	H9412	H	0.647052	0.947004	0.099008
	H9413	H	0.709524	1.009451	0.099528
	H9414	H	0.683187	0.970507	0.401814
	H9415	H	0.745952	1.032668	0.401158
	H9416	H	0.654196	0.990315	0.349495
	H9417	H	0.718037	0.945606	0.512685
	H9418	H	0.666496	0.998940	0.149600
	H9419	H	0.728519	0.924458	0.045775
	H9420	H	0.666803	0.997659	0.350203
	H9421	H	0.728215	0.923986	0.512082
	H9422	H	0.653938	0.991427	0.149741
	H9423	H	0.718282	0.946033	0.046276
	H9424	H	0.671721	0.961173	0.102554
	H9425	H	0.734434	1.022780	0.102287
	H9426	H	0.659262	0.952731	0.397398
	H9427	H	0.721877	1.015346	0.397775
	H9428	H	0.659033	0.954102	0.102341
	H9429	H	0.721731	1.015649	0.102850
	H9430	H	0.672001	0.959661	0.397686
	H9431	H	0.734572	1.022459	0.397397
	Co9432	Co	0.757900	1.055999	0.124856
	Co9433	Co	0.695316	0.993441	0.125050
	Co9434	Co	0.632828	0.931251	0.374792
	Co9435	Co	0.695327	0.993412	0.375647
	C9436	C	0.640206	0.987636	0.421730
	C9437	C	0.707628	0.968162	0.423381
	C9438	C	0.680152	1.003935	0.077577
	C9439	C	0.738905	0.902056	0.076136
	C9440	C	0.680226	1.004114	0.423107
	C9441	C	0.738906	0.901885	0.424029
	C9442	C	0.640160	0.987336	0.077414
	C9443	C	0.707759	0.968518	0.077013
	C9444	C	0.684288	0.971852	0.172936
	C9445	C	0.746861	1.034357	0.172303
	C9446	C	0.645709	0.946645	0.326306
	C9447	C	0.708417	1.008545	0.327324
	C9448	C	0.645781	0.946380	0.172558
	C9449	C	0.708385	1.008636	0.173593
	C9450	C	0.684223	0.972005	0.327728
	C9451	C	0.746861	1.034304	0.326830
	C9452	C	0.645064	0.987235	0.499528
	C9453	C	0.711407	0.960919	-0.000184
	C9454	C	0.675430	1.003351	0.500783
	C9455	C	0.735400	0.909853	-0.000291
	C9456	C	0.680264	0.967113	0.250354
	C9457	C	0.742884	1.029480	0.249603
	C9458	C	0.650261	0.949194	0.249594
	C9459	C	0.712907	1.011253	0.250599
	C9460	C	0.652925	0.990260	0.499962
	C9461	C	0.717545	0.948113	-0.000047
	C9462	C	0.667707	0.999357	0.500466
	C9463	C	0.729407	0.922994	-0.000214
	C9464	C	0.672940	0.961297	0.250263
	C9465	C	0.735554	1.023594	0.249940
	C9466	C	0.657964	0.953113	0.249893
	C9467	C	0.720620	1.015213	0.250422
	C9468	C	0.656839	0.992117	0.416356
	C9469	C	0.720410	0.941228	0.507181
	C9470	C	0.663835	0.997137	0.082947
	C9471	C	0.726317	0.929351	0.025628
	C9472	C	0.664013	0.996486	0.416695
	C9473	C	0.726169	0.928959	0.506860
	C9474	C	0.656669	0.992693	0.083048
	C9475	C	0.720545	0.941529	0.025754
	C9476	C	0.669049	0.959353	0.167999
	C9477	C	0.731718	1.021284	0.167788
	C9478	C	0.661933	0.954562	0.332102
	C9479	C	0.724555	1.017035	0.332520
	C9480	C	0.661785	0.955381	0.167760
	C9481	C	0.724491	1.017185	0.167909
	C9482	C	0.669195	0.958535	0.332391
	C9483	C	0.731792	1.021083	0.332244
	N9484	N	0.632944	0.988836	0.450336
	N9485	N	0.702237	0.979234	0.452536
	N9486	N	0.687349	1.004087	0.049490
	N9487	N	0.744023	0.890442	0.047427
	N9488	N	0.687467	1.004215	0.451793
	N9489	N	0.744050	0.890367	0.453117
	N9490	N	0.632913	0.988623	0.048245
	N9491	N	0.702316	0.979497	0.047792
	N9492	N	0.689958	0.979412	0.202253
	N9493	N	0.752535	1.041905	0.201571
	N9494	N	0.639088	0.942511	0.297390
	N9495	N	0.701780	1.004438	0.298663
	N9496	N	0.639132	0.942373	0.200967
	N9497	N	0.701740	1.004584	0.202091
	N9498	N	0.689924	0.979483	0.298593
	N9499	N	0.752518	1.041857	0.297854
	H9500	H	0.641588	0.986768	0.847257
	H9501	H	0.708618	0.966355	0.849022
	H9502	H	0.678841	1.004185	0.653197
	H9503	H	0.737953	0.904153	0.649171
	H9504	H	0.678790	1.004584	0.847748
	H9505	H	0.737964	0.903989	0.851111
	H9506	H	0.641555	0.986717	0.651632
	H9507	H	0.708790	0.966421	0.650400
	H9508	H	0.683419	0.970101	0.598332
	H9509	H	0.745870	1.032541	0.599094
	H9510	H	0.646980	0.947124	0.900354
	H9511	H	0.709568	1.009511	0.900697
	H9512	H	0.647111	0.946706	0.599232
	H9513	H	0.709540	1.009385	0.599726
	H9514	H	0.683246	0.970409	0.901867
	H9515	H	0.745808	1.032961	0.902472
	H9516	H	0.654216	0.989713	0.850176
	H9517	H	0.718470	0.946580	0.954104
	H9518	H	0.666543	0.998789	0.650463
	H9519	H	0.728910	0.925290	0.487854
	H9520	H	0.666751	0.997380	0.849592
	H9521	H	0.728665	0.925097	0.953528
	H9522	H	0.653969	0.991252	0.649821
	H9523	H	0.718787	0.946905	0.488361
	H9524	H	0.671834	0.960919	0.602220
	H9525	H	0.734468	1.022774	0.603332
	H9526	H	0.659396	0.952243	0.896612
	H9527	H	0.721691	1.015834	0.898143
	H9528	H	0.659151	0.953609	0.602257
	H9529	H	0.721788	1.015527	0.602540
	H9530	H	0.672055	0.959598	0.896892
	H9531	H	0.734342	1.023114	0.898315
	Co9532	Co	0.757802	1.055731	0.624460
	Co9533	Co	0.695344	0.993374	0.625116
	Co9534	Co	0.632828	0.931079	0.874701
	Co9535	Co	0.695296	0.993439	0.875777
	C9536	C	0.640203	0.987305	0.921901
	C9537	C	0.707689	0.968373	0.922689
	C9538	C	0.680231	1.003910	0.578272
	C9539	C	0.738899	0.901937	0.576349
	C9540	C	0.680193	1.004120	0.922259
	C9541	C	0.738889	0.901974	0.923662
	C9542	C	0.640186	0.987408	0.576570
	C9543	C	0.707731	0.968376	0.577042
	C9544	C	0.684343	0.971787	0.672889
	C9545	C	0.746831	1.034187	0.673276
	C9546	C	0.645807	0.946294	0.826415
	C9547	C	0.708311	1.008741	0.827144
	C9548	C	0.645865	0.946111	0.672784
	C9549	C	0.708321	1.008662	0.673390
	C9550	C	0.684282	0.971851	0.827332
	C9551	C	0.746773	1.034487	0.828051
	C9552	C	0.645054	0.987049	0.999871
	C9553	C	0.711380	0.960741	0.500157
	C9554	C	0.675364	1.003345	0.999680
	C9555	C	0.735384	0.909810	0.499869
	C9556	C	0.680324	0.967006	0.749975
	C9557	C	0.742792	1.029568	0.750764
	C9558	C	0.650368	0.948786	0.749594
	C9559	C	0.712832	1.011440	0.750312
	C9560	C	0.652901	0.990036	0.999887
	C9561	C	0.717547	0.948023	0.500350
	C9562	C	0.667666	0.999312	0.999486
	C9563	C	0.729373	0.922832	0.499774
	C9564	C	0.673013	0.961091	0.749469
	C9565	C	0.735474	1.023757	0.750741
	C9566	C	0.658108	0.952641	0.749554
	C9567	C	0.720538	1.015357	0.750302
	C9568	C	0.656803	0.991797	0.916506
	C9569	C	0.720655	0.941805	0.974130
	C9570	C	0.663870	0.997159	0.583805
	C9571	C	0.726547	0.929671	0.493211
	C9572	C	0.663976	0.996269	0.916283
	C9573	C	0.726426	0.929619	0.973822
	C9574	C	0.656701	0.992772	0.583329
	C9575	C	0.720808	0.941950	0.493638
	C9576	C	0.669158	0.959053	0.667176
	C9577	C	0.731694	1.021292	0.668257
	C9578	C	0.662046	0.954242	0.831626
	C9579	C	0.724403	1.017353	0.832758
	C9580	C	0.661932	0.954940	0.667326
	C9581	C	0.724455	1.017213	0.668183
	C9582	C	0.669277	0.958286	0.831603
	C9583	C	0.731648	1.021416	0.832933
	N9584	N	0.632933	0.988617	0.950669
	N9585	N	0.702288	0.979444	0.952300
	N9586	N	0.687436	1.004125	0.549862
	N9587	N	0.744031	0.890360	0.547580
	N9588	N	0.687379	1.004240	0.951158
	N9589	N	0.744028	0.890391	0.952810
	N9590	N	0.632952	0.988735	0.547933
	N9591	N	0.702316	0.979356	0.547958
	N9592	N	0.690033	0.979302	0.702106
	N9593	N	0.752539	1.041677	0.702271
	N9594	N	0.639140	0.942340	0.797658
	N9595	N	0.701693	1.004613	0.798658
	N9596	N	0.639191	0.942152	0.701296
	N9597	N	0.701695	1.004574	0.702060
	N9598	N	0.689977	0.979384	0.798408
	N9599	N	0.752522	1.041796	0.798722
	H9600	H	0.766547	0.112134	0.348260
	H9601	H	0.833744	0.091365	0.350590
	H9602	H	0.803790	0.129234	0.153445
	H9603	H	0.862899	0.028966	0.149686
	H9604	H	0.803810	0.129216	0.348429
	H9605	H	0.862952	0.029092	0.350595
	H9606	H	0.766516	0.111727	0.151578
	H9607	H	0.833674	0.091178	0.151597
	H9608	H	0.808381	0.095117	0.099781
	H9609	H	0.870746	0.158002	0.099174
	H9610	H	0.772036	0.072069	0.401652
	H9611	H	0.834576	0.134454	0.401074
	H9612	H	0.772103	0.071908	0.099943
	H9613	H	0.834360	0.134735	0.099293
	H9614	H	0.808416	0.095427	0.403426
	H9615	H	0.870858	0.157786	0.402337
	H9616	H	0.779047	0.115566	0.650865
	H9617	H	0.843175	0.070847	0.462525
	H9618	H	0.791573	0.123318	0.150381
	H9619	H	0.853019	0.048558	0.038385
	H9620	H	0.791608	0.123063	0.650754
	H9621	H	0.853385	0.049350	0.461521
	H9622	H	0.778945	0.115869	0.150176
	H9623	H	0.842861	0.070147	0.038481
	H9624	H	0.796934	0.085473	0.104355
	H9625	H	0.859247	0.148483	0.397950
	H9626	H	0.784309	0.077975	0.398969
	H9627	H	0.846814	0.140264	0.102196
	H9628	H	0.784276	0.078311	0.104015
	H9629	H	0.846612	0.141151	0.397421
	H9630	H	0.797008	0.085117	0.399349
	H9631	H	0.859497	0.147454	0.103104
	Co9632	Co	0.882833	0.181018	0.125250
	Co9633	Co	0.820336	0.118405	0.125564
	Co9634	Co	0.757825	0.055954	0.374944
	Co9635	Co	0.820353	0.118511	0.376315
	C9636	C	0.765161	0.112558	0.422947
	C9637	C	0.832700	0.093453	0.424238
	C9638	C	0.805176	0.128984	0.078674
	C9639	C	0.863874	0.026985	0.076854
	C9640	C	0.805187	0.128922	0.423032
	C9641	C	0.863870	0.026865	0.424069
	C9642	C	0.765124	0.112344	0.077308
	C9643	C	0.832700	0.093328	0.077775
	C9644	C	0.809375	0.096749	0.174167
	C9645	C	0.871759	0.159545	0.173327
	C9646	C	0.770832	0.071350	0.327664
	C9647	C	0.833334	0.133754	0.327225
	C9648	C	0.770887	0.071281	0.173395
	C9649	C	0.833246	0.133884	0.173172
	C9650	C	0.809385	0.096819	0.328951
	C9651	C	0.871796	0.159404	0.328068
	C9652	C	0.770032	0.112099	0.500493
	C9653	C	0.836376	0.085896	0.000565
	C9654	C	0.800364	0.128261	0.500486
	C9655	C	0.860395	0.034887	0.000461
	C9656	C	0.805397	0.092001	0.251715
	C9657	C	0.867787	0.154633	0.250482
	C9658	C	0.775374	0.073991	0.250869
	C9659	C	0.837825	0.136479	0.249882
	C9660	C	0.777894	0.114999	0.500574
	C9661	C	0.842491	0.072993	0.000365
	C9662	C	0.792673	0.124232	0.500526
	C9663	C	0.854350	0.047852	0.000271
	C9664	C	0.798071	0.086111	0.251997
	C9665	C	0.860467	0.148753	0.250420
	C9666	C	0.783109	0.077813	0.251506
	C9667	C	0.845536	0.140380	0.249743
	C9668	C	0.781726	0.117216	0.584109
	C9669	C	0.845453	0.066370	0.479219
	C9670	C	0.788859	0.121833	0.083961
	C9671	C	0.851030	0.053739	0.021756
	C9672	C	0.788909	0.121627	0.583994
	C9673	C	0.851227	0.054128	0.478598
	C9674	C	0.781666	0.117486	0.083942
	C9675	C	0.845282	0.065968	0.021820
	C9676	C	0.794247	0.083824	0.169715
	C9677	C	0.856589	0.146649	0.332613
	C9678	C	0.787013	0.079628	0.333675
	C9679	C	0.849474	0.142043	0.167669
	C9680	C	0.787001	0.079808	0.169479
	C9681	C	0.849349	0.142584	0.332124
	C9682	C	0.794261	0.083629	0.333964
	C9683	C	0.856719	0.146125	0.168047
	N9684	N	0.757918	0.113885	0.451579
	N9685	N	0.827324	0.104511	0.453374
	N9686	N	0.812399	0.129149	0.049981
	N9687	N	0.869035	0.015449	0.047961
	N9688	N	0.812376	0.129111	0.451742
	N9689	N	0.869001	0.015296	0.453278
	N9690	N	0.757902	0.113620	0.048297
	N9691	N	0.827310	0.104408	0.048847
	N9692	N	0.815075	0.104277	0.203041
	N9693	N	0.877454	0.167054	0.202661
	N9694	N	0.764174	0.067322	0.298663
	N9695	N	0.826692	0.129735	0.298913
	N9696	N	0.764242	0.067229	0.201920
	N9697	N	0.826639	0.129826	0.202292
	N9698	N	0.815072	0.104292	0.299609
	N9699	N	0.877482	0.166931	0.298816
	H9700	H	0.766515	0.112111	0.847970
	H9701	H	0.833704	0.091387	0.850634
	H9702	H	0.803736	0.129331	0.652877
	H9703	H	0.862932	0.029089	0.650111
	H9704	H	0.803760	0.129554	0.848937
	H9705	H	0.863054	0.029145	0.851688
	H9706	H	0.766531	0.111585	0.652568
	H9707	H	0.833564	0.090948	0.651393
	H9708	H	0.808340	0.095454	0.599554
	H9709	H	0.870779	0.158024	0.598538
	H9710	H	0.772017	0.072144	0.900797
	H9711	H	0.834527	0.134695	0.900628
	H9712	H	0.772124	0.071459	0.598431
	H9713	H	0.834466	0.134563	0.600252
	H9714	H	0.808301	0.095652	0.902726
	H9715	H	0.870913	0.157705	0.901860
	H9716	H	0.779057	0.115835	0.851124
	H9717	H	0.843834	0.072186	0.962242
	H9718	H	0.791617	0.123100	0.350599
	H9719	H	0.853683	0.049918	0.539210
	H9720	H	0.791563	0.123486	0.850988
	H9721	H	0.853987	0.050642	0.962087
	H9722	H	0.779077	0.115478	0.350362
	H9723	H	0.843510	0.071546	0.539147
	H9724	H	0.796822	0.085631	0.898487
	H9725	H	0.859405	0.147960	0.897736
	H9726	H	0.784359	0.077763	0.602381
	H9727	H	0.846796	0.140524	0.602380
	H9728	H	0.784188	0.078211	0.898378
	H9729	H	0.846715	0.140750	0.897440
	H9730	H	0.796948	0.085145	0.603431
	H9731	H	0.859462	0.147783	0.602678
	Co9732	Co	0.882845	0.181111	0.624863
	Co9733	Co	0.820319	0.118516	0.625705
	Co9734	Co	0.757884	0.055846	0.875627
	Co9735	Co	0.820337	0.118631	0.876301
	C9736	C	0.765141	0.112497	0.922062
	C9737	C	0.832721	0.093485	0.923889
	C9738	C	0.805152	0.128942	0.578352
	C9739	C	0.863864	0.026905	0.577181
	C9740	C	0.805155	0.129129	0.923408
	C9741	C	0.863948	0.027094	0.924106
	C9742	C	0.765163	0.112292	0.578114
	C9743	C	0.832611	0.093229	0.578308
	C9744	C	0.809276	0.097005	0.673791
	C9745	C	0.871808	0.159438	0.672997
	C9746	C	0.770800	0.071269	0.826960
	C9747	C	0.833312	0.133977	0.827181
	C9748	C	0.770864	0.070953	0.672745
	C9749	C	0.833281	0.133884	0.673760
	C9750	C	0.809258	0.097124	0.828263
	C9751	C	0.871864	0.159309	0.827582
	C9752	C	0.770004	0.112218	0.999962
	C9753	C	0.836341	0.085780	0.501262
	C9754	C	0.800355	0.128388	1.001082
	C9755	C	0.860333	0.034764	0.500548
	C9756	C	0.805256	0.092292	0.751153
	C9757	C	0.867848	0.154532	0.750307
	C9758	C	0.775340	0.073771	0.750029
	C9759	C	0.837828	0.136544	0.750206
	C9760	C	0.777866	0.115277	1.000428
	C9761	C	0.842466	0.072971	0.501086
	C9762	C	0.792644	0.124467	1.000948
	C9763	C	0.854332	0.047804	0.500240
	C9764	C	0.797972	0.086297	0.751218
	C9765	C	0.860508	0.148661	0.750317
	C9766	C	0.783044	0.077725	0.750298
	C9767	C	0.845571	0.140388	0.749920
	C9768	C	0.781711	0.117521	0.917285
	C9769	C	0.845816	0.067089	0.979168
	C9770	C	0.788900	0.121660	0.417206
	C9771	C	0.851399	0.054452	0.522230
	C9772	C	0.788871	0.122003	0.917525
	C9773	C	0.851563	0.054849	0.979031
	C9774	C	0.781752	0.117157	0.417146
	C9775	C	0.845620	0.066688	0.522437
	C9776	C	0.794132	0.083949	0.833210
	C9777	C	0.856681	0.146389	0.832504
	C9778	C	0.786989	0.079518	0.668111
	C9779	C	0.849484	0.142201	0.667660
	C9780	C	0.786908	0.079806	0.832838
	C9781	C	0.849448	0.142326	0.832292
	C9782	C	0.794203	0.083720	0.668841
	C9783	C	0.856733	0.146202	0.667869
	N9784	N	0.757916	0.113682	0.950694
	N9785	N	0.827306	0.104492	0.953108
	N9786	N	0.812366	0.129097	0.550028
	N9787	N	0.869003	0.015346	0.548287
	N9788	N	0.812380	0.129220	0.951855
	N9789	N	0.869092	0.015555	0.953126
	N9790	N	0.757913	0.113702	0.549286
	N9791	N	0.827258	0.104385	0.549068
	N9792	N	0.814961	0.104508	0.702913
	N9793	N	0.877497	0.166990	0.702167
	N9794	N	0.764176	0.067090	0.798205
	N9795	N	0.826657	0.129885	0.799019
	N9796	N	0.764206	0.066967	0.701276
	N9797	N	0.826643	0.129854	0.702472
	N9798	N	0.814964	0.104565	0.799163
	N9799	N	0.877539	0.166891	0.798363
	H9800	H	0.758682	0.183347	0.347337
	H9801	H	0.829055	0.174401	0.347860
	H9802	H	0.795956	0.200371	0.152715
	H9803	H	0.866312	0.191869	0.152359
	H9804	H	0.795995	0.200634	0.348392
	H9805	H	0.866323	0.191890	0.347754
	H9806	H	0.758742	0.182936	0.152186
	H9807	H	0.829089	0.174237	0.151805
	H9808	H	0.799842	0.166432	0.098414
	H9809	H	0.862230	0.229313	0.098313
	H9810	H	0.762724	0.145953	0.401500
	H9811	H	0.825272	0.208438	0.401688
	H9812	H	0.762821	0.145702	0.097851
	H9813	H	0.825197	0.208466	0.098067
	H9814	H	0.799815	0.166700	0.402040
	H9815	H	0.862308	0.229018	0.401745
	H9816	H	0.770883	0.189405	0.650078
	H9817	H	0.841638	0.178154	0.649791
	H9818	H	0.783415	0.197140	0.149955
	H9819	H	0.854168	0.185580	0.150167
	H9820	H	0.783399	0.196898	0.650496
	H9821	H	0.854141	0.185770	0.649587
	H9822	H	0.770853	0.189556	0.150071
	H9823	H	0.841604	0.177989	0.149971
	H9824	H	0.787718	0.159621	0.100710
	H9825	H	0.850259	0.221607	0.099655
	H9826	H	0.774838	0.153248	0.400516
	H9827	H	0.837293	0.216135	0.400132
	H9828	H	0.774939	0.153225	0.100653
	H9829	H	0.837438	0.215372	0.099828
	H9830	H	0.787696	0.159312	0.400361
	H9831	H	0.850125	0.222290	0.399399
	Co9832	Co	0.875023	0.249996	0.124095
	Co9833	Co	0.812567	0.187378	0.125145
	Co9834	Co	0.750008	0.125194	0.375978
	Co9835	Co	0.812545	0.187557	0.376201
	C9836	C	0.757306	0.183643	0.421854
	C9837	C	0.827679	0.174906	0.422555
	C9838	C	0.797332	0.199941	0.078312
	C9839	C	0.867700	0.191533	0.077651
	C9840	C	0.797381	0.200114	0.422747
	C9841	C	0.867667	0.191682	0.422331
	C9842	C	0.757353	0.183380	0.077226
	C9843	C	0.827733	0.174936	0.077422
	C9844	C	0.800898	0.167879	0.173258
	C9845	C	0.863334	0.230506	0.172586
	C9846	C	0.761699	0.144576	0.327122
	C9847	C	0.824211	0.207079	0.327612
	C9848	C	0.761727	0.144516	0.172493
	C9849	C	0.824191	0.207032	0.172892
	C9850	C	0.800907	0.167936	0.327980
	C9851	C	0.863356	0.230417	0.327442
	C9852	C	0.762144	0.184186	0.499420
	C9853	C	0.832573	0.174591	-0.000119
	C9854	C	0.792489	0.200404	0.500332
	C9855	C	0.862927	0.190780	0.000266
	C9856	C	0.796588	0.164241	0.250818
	C9857	C	0.859032	0.226771	0.250003
	C9858	C	0.766032	0.148293	0.249994
	C9859	C	0.828500	0.210839	0.250150
	C9860	C	0.769855	0.188176	0.499731
	C9861	C	0.840448	0.177570	0.000037
	C9862	C	0.784638	0.197381	0.500153
	C9863	C	0.855213	0.186725	0.000240
	C9864	C	0.788916	0.159921	0.250713
	C9865	C	0.851369	0.222375	0.249686
	C9866	C	0.773681	0.152771	0.250501
	C9867	C	0.836149	0.215213	0.250159
	C9868	C	0.773589	0.190870	0.583370
	C9869	C	0.844287	0.179849	0.583306
	C9870	C	0.780741	0.195446	0.083385
	C9871	C	0.851430	0.184172	0.083610
	C9872	C	0.780772	0.195178	0.583520
	C9873	C	0.851444	0.184249	0.583104
	C9874	C	0.773575	0.190967	0.083321
	C9875	C	0.844277	0.179731	0.083407
	C9876	C	0.784989	0.158202	0.167353
	C9877	C	0.847452	0.220457	0.166161
	C9878	C	0.777591	0.154632	0.333925
	C9879	C	0.840045	0.217193	0.333372
	C9880	C	0.777645	0.154673	0.167347
	C9881	C	0.840114	0.216918	0.166745
	C9882	C	0.784965	0.158023	0.333824
	C9883	C	0.847399	0.220653	0.332960
	N9884	N	0.750104	0.183469	0.450822
	N9885	N	0.820420	0.176215	0.451363
	N9886	N	0.804588	0.198547	0.049828
	N9887	N	0.874912	0.191731	0.049298
	N9888	N	0.804632	0.198729	0.451626
	N9889	N	0.874889	0.191807	0.450554
	N9890	N	0.750115	0.183375	0.048907
	N9891	N	0.820465	0.176241	0.049095
	N9892	N	0.807106	0.173871	0.201978
	N9893	N	0.869554	0.236443	0.201639
	N9894	N	0.755512	0.138564	0.298360
	N9895	N	0.818043	0.201007	0.299048
	N9896	N	0.755543	0.138488	0.201252
	N9897	N	0.818013	0.201023	0.201989
	N9898	N	0.807116	0.173888	0.299050
	N9899	N	0.869577	0.236315	0.298564
	H9900	H	0.758700	0.183449	0.847842
	H9901	H	0.829015	0.174378	0.848312
	H9902	H	0.796009	0.200579	0.652338
	H9903	H	0.866368	0.191768	0.651833
	H9904	H	0.796011	0.201017	0.848775
	H9905	H	0.866333	0.191734	0.848276
	H9906	H	0.758748	0.183016	0.651286
	H9907	H	0.829076	0.174402	0.652028
	H9908	H	0.799890	0.166365	0.599128
	H9909	H	0.862229	0.229464	0.598101
	H9910	H	0.762748	0.145805	0.902285
	H9911	H	0.825346	0.208177	0.902711
	H9912	H	0.762746	0.145845	0.598531
	H9913	H	0.825217	0.208556	0.599088
	H9914	H	0.799669	0.166980	0.902264
	H9915	H	0.862426	0.228865	0.902370
	H9916	H	0.770945	0.189172	0.849734
	H9917	H	0.841599	0.178275	0.849924
	H9918	H	0.783535	0.196644	0.350037
	H9919	H	0.854079	0.186096	0.349819
	H9920	H	0.783464	0.196972	0.850443
	H9921	H	0.854128	0.185814	0.849890
	H9922	H	0.770982	0.188933	0.349735
	H9923	H	0.841497	0.178548	0.350463
	H9924	H	0.787690	0.159183	0.901060
	H9925	H	0.850272	0.221521	0.600700
	H9926	H	0.774880	0.152752	0.599884
	H9927	H	0.837400	0.215833	0.900660
	H9928	H	0.774817	0.153263	0.900343
	H9929	H	0.837445	0.215344	0.599992
	H9930	H	0.787621	0.159272	0.600281
	H9931	H	0.850214	0.222217	0.900520
	Co9932	Co	0.875018	0.250151	0.624070
	Co9933	Co	0.812530	0.187532	0.624609
	Co9934	Co	0.750002	0.125024	0.875674
	Co9935	Co	0.812500	0.187586	0.876876
	C9936	C	0.757332	0.183607	0.922309
	C9937	C	0.827697	0.174964	0.922489
	C9938	C	0.797372	0.200074	0.577842
	C9939	C	0.867676	0.191643	0.577290
	C9940	C	0.797358	0.200351	0.923427
	C9941	C	0.867696	0.191462	0.922586
	C9942	C	0.757357	0.183387	0.577048
	C9943	C	0.827696	0.175008	0.577340
	C9944	C	0.800878	0.167847	0.673249
	C9945	C	0.863328	0.230696	0.672793
	C9946	C	0.761645	0.144604	0.827633
	C9947	C	0.824223	0.206985	0.827946
	C9948	C	0.761679	0.144539	0.672747
	C9949	C	0.824174	0.207145	0.673246
	C9950	C	0.800788	0.168127	0.827535
	C9951	C	0.863420	0.230435	0.827538
	C9952	C	0.762145	0.184127	0.999783
	C9953	C	0.832549	0.174665	0.499726
	C9954	C	0.792461	0.200582	1.000632
	C9955	C	0.862914	0.190895	0.499726
	C9956	C	0.796523	0.164169	0.750406
	C9957	C	0.859087	0.226778	0.750359
	C9958	C	0.765972	0.148293	0.750423
	C9959	C	0.828529	0.210794	0.750609
	C9960	C	0.769832	0.188219	0.999813
	C9961	C	0.840443	0.177643	0.499893
	C9962	C	0.784579	0.197615	1.000156
	C9963	C	0.855208	0.186913	0.499715
	C9964	C	0.788886	0.159739	0.750624
	C9965	C	0.851419	0.222395	0.750612
	C9966	C	0.773636	0.152649	0.750268
	C9967	C	0.836194	0.215167	0.750445
	C9968	C	0.773639	0.190729	0.916548
	C9969	C	0.844277	0.179864	0.916688
	C9970	C	0.780844	0.195068	0.416419
	C9971	C	0.851397	0.184476	0.416430
	C9972	C	0.780769	0.195310	0.916775
	C9973	C	0.851430	0.184242	0.916570
	C9974	C	0.773676	0.190603	0.416334
	C9975	C	0.844227	0.180088	0.416721
	C9976	C	0.784982	0.157845	0.834035
	C9977	C	0.847486	0.220338	0.667123
	C9978	C	0.777576	0.154340	0.666588
	C9979	C	0.840132	0.217077	0.833657
	C9980	C	0.777592	0.154521	0.833634
	C9981	C	0.840122	0.216839	0.667029
	C9982	C	0.784915	0.157928	0.667161
	C9983	C	0.847481	0.220630	0.834137
	N9984	N	0.750125	0.183474	0.950608
	N9985	N	0.820433	0.176281	0.951485
	N9986	N	0.804619	0.198701	0.549166
	N9987	N	0.874896	0.191798	0.548833
	N9988	N	0.804593	0.198773	0.952614
	N9989	N	0.874910	0.191675	0.951015
	N9990	N	0.750136	0.183328	0.548828
	N9991	N	0.820429	0.176267	0.548779
	N9992	N	0.807017	0.174003	0.702114
	N9993	N	0.869523	0.236689	0.701449
	N9994	N	0.755450	0.138622	0.798612
	N9995	N	0.818026	0.201039	0.799271
	N9996	N	0.755482	0.138538	0.701723
	N9997	N	0.818010	0.201079	0.702233
	N9998	N	0.806967	0.174096	0.799301
	N9999	N	0.869577	0.236584	0.798418
	H10000	H	0.762038	0.345735	0.350067
	H10001	H	0.821260	0.245607	0.348306
	H10002	H	0.791349	0.283562	0.152281
	H10003	H	0.858508	0.263226	0.152053
	H10004	H	0.791398	0.283654	0.349919
	H10005	H	0.858487	0.263069	0.347678
	H10006	H	0.762057	0.345871	0.149044
	H10007	H	0.821241	0.245515	0.152611
	H10008	H	0.790613	0.240117	0.100649
	H10009	H	0.853029	0.303127	0.098917
	H10010	H	0.754168	0.217290	0.401752
	H10011	H	0.816757	0.279770	0.401071
	H10012	H	0.754243	0.217023	0.098569
	H10013	H	0.816640	0.279676	0.098209
	H10014	H	0.790505	0.240743	0.401822
	H10015	H	0.852964	0.303127	0.399856
	H10016	H	0.771176	0.324730	0.525563
	H10017	H	0.833504	0.251389	0.650344
	H10018	H	0.781453	0.303331	0.042317
	H10019	H	0.845944	0.259377	-0.148987
	H10020	H	0.781352	0.303134	0.526166
	H10021	H	0.846084	0.258791	0.650353
	H10022	H	0.771307	0.324897	0.041989
	H10023	H	0.833393	0.251686	-0.149422
	H10024	H	0.778259	0.234802	0.102581
	H10025	H	0.840826	0.296448	0.101143
	H10026	H	0.765709	0.226890	0.398114
	H10027	H	0.828015	0.290426	0.397076
	H10028	H	0.765630	0.227522	0.102016
	H10029	H	0.828162	0.289293	0.101711
	H10030	H	0.778368	0.233937	0.398529
	H10031	H	0.840636	0.297770	0.396463
	Co10032	Co	0.867227	0.319079	0.125091
	Co10033	Co	0.804735	0.256484	0.125210
	Co10034	Co	0.742159	0.194161	0.375625
	Co10035	Co	0.804761	0.256589	0.376151
	C10036	C	0.761130	0.347895	0.423542
	C10037	C	0.819880	0.245925	0.422849
	C10038	C	0.792327	0.281577	0.078286
	C10039	C	0.859877	0.262587	0.077768
	C10040	C	0.792366	0.281594	0.423571
	C10041	C	0.859842	0.262516	0.422448
	C10042	C	0.761149	0.348102	0.076379
	C10043	C	0.819850	0.245822	0.078077
	C10044	C	0.791817	0.240960	0.174113
	C10045	C	0.854217	0.303864	0.172599
	C10046	C	0.753200	0.215708	0.327384
	C10047	C	0.815746	0.278216	0.327387
	C10048	C	0.753249	0.215594	0.172864
	C10049	C	0.815707	0.278155	0.173028
	C10050	C	0.791754	0.241244	0.327802
	C10051	C	0.854154	0.303864	0.326291
	C10052	C	0.764670	0.340126	0.499830
	C10053	C	0.824674	0.246532	0.000539
	C10054	C	0.788639	0.289078	0.500614
	C10055	C	0.854973	0.262899	0.000341
	C10056	C	0.787276	0.238388	0.250921
	C10057	C	0.849650	0.301302	0.248988
	C10058	C	0.757238	0.220436	0.250203
	C10059	C	0.819688	0.283050	0.249814
	C10060	C	0.770695	0.327111	0.500188
	C10061	C	0.832359	0.250590	0.000642
	C10062	C	0.782517	0.301870	0.500422
	C10063	C	0.847115	0.259889	0.000985
	C10064	C	0.779535	0.234571	0.250544
	C10065	C	0.841925	0.297480	0.248820
	C10066	C	0.764558	0.226309	0.250223
	C10067	C	0.826986	0.289041	0.249450
	C10068	C	0.773538	0.320302	0.514386
	C10069	C	0.836196	0.253027	0.583744
	C10070	C	0.779337	0.308191	0.024400
	C10071	C	0.843267	0.257645	-0.082429
	C10072	C	0.779283	0.308045	0.514503
	C10073	C	0.843351	0.257484	0.583682
	C10074	C	0.773575	0.320436	0.023925
	C10075	C	0.836107	0.253179	-0.082767
	C10076	C	0.775585	0.232951	0.167998
	C10077	C	0.838084	0.295192	0.166679
	C10078	C	0.768395	0.228531	0.332587
	C10079	C	0.830736	0.291816	0.331567
	C10080	C	0.768342	0.228907	0.167849
	C10081	C	0.830851	0.291096	0.167014
	C10082	C	0.775639	0.232548	0.332900
	C10083	C	0.837973	0.295891	0.331189
	N10084	N	0.755991	0.359451	0.452438
	N10085	N	0.812662	0.245796	0.451279
	N10086	N	0.797715	0.270506	0.048758
	N10087	N	0.867111	0.261305	0.048961
	N10088	N	0.797755	0.270581	0.452944
	N10089	N	0.867091	0.261219	0.450784
	N10090	N	0.756021	0.359656	0.047402
	N10091	N	0.812645	0.245787	0.049237
	N10092	N	0.798447	0.245112	0.202524
	N10093	N	0.860851	0.307860	0.201574
	N10094	N	0.747532	0.208133	0.298257
	N10095	N	0.810066	0.270616	0.298594
	N10096	N	0.747552	0.208095	0.201760
	N10097	N	0.810030	0.270642	0.202337
	N10098	N	0.798390	0.245313	0.299355
	N10099	N	0.860821	0.307852	0.298238
	H10100	H	0.762185	0.346096	0.851408
	H10101	H	0.821261	0.245756	0.848069
	H10102	H	0.791262	0.283506	0.651214
	H10103	H	0.858550	0.263393	0.652143
	H10104	H	0.791372	0.283693	0.850534
	H10105	H	0.858412	0.263154	0.848630
	H10106	H	0.762220	0.346109	0.649824
	H10107	H	0.821272	0.245728	0.652419
	H10108	H	0.790497	0.240234	0.599849
	H10109	H	0.852982	0.303139	0.599557
	H10110	H	0.754069	0.217316	0.901544
	H10111	H	0.816771	0.279597	0.902100
	H10112	H	0.754216	0.217049	0.598175
	H10113	H	0.816619	0.279593	0.598862
	H10114	H	0.790332	0.241161	0.901490
	H10115	H	0.853106	0.302856	0.901061
	H10116	H	0.771731	0.325729	0.959211
	H10117	H	0.833435	0.251532	1.150669
	H10118	H	0.781967	0.304170	0.475200
	H10119	H	0.845774	0.260129	0.350220
	H10120	H	0.781880	0.304215	0.959605
	H10121	H	0.845987	0.259126	1.151036
	H10122	H	0.771827	0.325800	0.474816
	H10123	H	0.833281	0.252443	0.350187
	H10124	H	0.778212	0.234166	0.898055
	H10125	H	0.840977	0.296192	0.602021
	H10126	H	0.765526	0.227493	0.602767
	H10127	H	0.828064	0.289821	0.897923
	H10128	H	0.765614	0.226797	0.897537
	H10129	H	0.828325	0.288948	0.601756
	H10130	H	0.778187	0.234897	0.603115
	H10131	H	0.840751	0.297092	0.898075
	Co10132	Co	0.867220	0.319085	0.624647
	Co10133	Co	0.804677	0.256498	0.625047
	Co10134	Co	0.742116	0.194042	0.875062
	Co10135	Co	0.804699	0.256615	0.875750
	C10136	C	0.761210	0.348200	0.924234
	C10137	C	0.819862	0.245991	0.922814
	C10138	C	0.792287	0.281539	0.577863
	C10139	C	0.859865	0.262757	0.577200
	C10140	C	0.792336	0.281651	0.924238
	C10141	C	0.859845	0.262547	0.922675
	C10142	C	0.761206	0.348065	0.576244
	C10143	C	0.819877	0.245912	0.577864
	C10144	C	0.791661	0.241209	0.673669
	C10145	C	0.854237	0.303751	0.673332
	C10146	C	0.753174	0.215573	0.827413
	C10147	C	0.815731	0.278127	0.827315
	C10148	C	0.753181	0.215583	0.672797
	C10149	C	0.815696	0.278101	0.672891
	C10150	C	0.791568	0.241631	0.827741
	C10151	C	0.854287	0.303602	0.827179
	C10152	C	0.764687	0.340279	1.000351
	C10153	C	0.824669	0.246543	0.500413
	C10154	C	0.788653	0.289146	1.001409
	C10155	C	0.854982	0.262936	0.499877
	C10156	C	0.787104	0.238734	0.750532
	C10157	C	0.849755	0.300943	0.750458
	C10158	C	0.757177	0.220390	0.750051
	C10159	C	0.819717	0.282889	0.750108
	C10160	C	0.770657	0.327188	1.000578
	C10161	C	0.832380	0.250616	0.500303
	C10162	C	0.782518	0.301945	1.001477
	C10163	C	0.847119	0.259972	0.500215
	C10164	C	0.779389	0.234833	0.750441
	C10165	C	0.842032	0.297001	0.750367
	C10166	C	0.764475	0.226332	0.750086
	C10167	C	0.827064	0.288655	0.749909
	C10168	C	0.773804	0.320920	0.977624
	C10169	C	0.836127	0.253159	1.084058
	C10170	C	0.779641	0.308579	0.486538
	C10171	C	0.843200	0.258124	0.416886
	C10172	C	0.779564	0.308684	0.977969
	C10173	C	0.843302	0.257604	1.084407
	C10174	C	0.773904	0.320863	0.486300
	C10175	C	0.836069	0.253577	0.416797
	C10176	C	0.775511	0.232732	0.832764
	C10177	C	0.838215	0.294771	0.667736
	C10178	C	0.768262	0.228886	0.668061
	C10179	C	0.830834	0.291250	0.832415
	C10180	C	0.768291	0.228594	0.832389
	C10181	C	0.830974	0.290716	0.667490
	C10182	C	0.775488	0.233043	0.668265
	C10183	C	0.838070	0.295316	0.832629
	N10184	N	0.756047	0.359702	0.952803
	N10185	N	0.812648	0.245876	0.951239
	N10186	N	0.797704	0.270548	0.548695
	N10187	N	0.867109	0.261401	0.548412
	N10188	N	0.797729	0.270580	0.953360
	N10189	N	0.867100	0.261247	0.951337
	N10190	N	0.756027	0.359553	0.547617
	N10191	N	0.812647	0.245864	0.549331
	N10192	N	0.798290	0.245324	0.702228
	N10193	N	0.860889	0.307820	0.701999
	N10194	N	0.747480	0.208076	0.798130
	N10195	N	0.810012	0.270672	0.798628
	N10196	N	0.747493	0.208071	0.701716
	N10197	N	0.809997	0.270612	0.702122
	N10198	N	0.798227	0.245628	0.798867
	N10199	N	0.860920	0.307694	0.798554
	H10200	H	0.771321	0.529167	0.349351
	H10201	H	0.824570	0.408299	0.350829
	H10202	H	0.800303	0.466573	0.149171
	H10203	H	0.853833	0.346147	0.150760
	H10204	H	0.800438	0.466840	0.350820
	H10205	H	0.853940	0.346319	0.349156
	H10206	H	0.771131	0.528636	0.150441
	H10207	H	0.824740	0.408812	0.149725
	H10208	H	0.798428	0.420792	0.102179
	H10209	H	0.860992	0.483372	0.101492
	H10210	H	0.764128	0.391259	0.397921
	H10211	H	0.826593	0.454053	0.397149
	H10212	H	0.763978	0.391970	0.101513
	H10213	H	0.826520	0.454224	0.101540
	H10214	H	0.798433	0.420658	0.397910
	H10215	H	0.860879	0.483490	0.398040
	H10216	H	0.780522	0.508336	0.453327
	H10217	H	0.833820	0.387255	0.529658
	H10218	H	0.791373	0.487915	-0.127935
	H10219	H	0.844529	0.366960	-0.053277
	H10220	H	0.790647	0.486645	0.452409
	H10221	H	0.843987	0.365667	0.528956
	H10222	H	0.781254	0.509612	-0.127440
	H10223	H	0.834356	0.388577	-0.053036
	H10224	H	0.786810	0.413330	0.244985
	H10225	H	0.849780	0.473864	0.236907
	H10226	H	0.775683	0.399032	0.255176
	H10227	H	0.837687	0.463893	0.261556
	H10228	H	0.774694	0.403097	0.245621
	H10229	H	0.837618	0.463875	0.236790
	H10230	H	0.787857	0.409065	0.254773
	H10231	H	0.849851	0.473844	0.261605
	Co10232	Co	0.874996	0.500141	0.124459
	Co10233	Co	0.812450	0.437463	0.124698
	Co10234	Co	0.749963	0.374963	0.376032
	Co10235	Co	0.812489	0.437586	0.375730
	C10236	C	0.770265	0.531026	0.422809
	C10237	C	0.823657	0.410514	0.423870
	C10238	C	0.801268	0.464385	0.075991
	C10239	C	0.854846	0.344145	0.077276
	C10240	C	0.801360	0.464482	0.423513
	C10241	C	0.854880	0.344203	0.422946
	C10242	C	0.770162	0.530839	0.076638
	C10243	C	0.823750	0.410738	0.076802
	C10244	C	0.799584	0.421832	0.174258
	C10245	C	0.862067	0.484531	0.173828
	C10246	C	0.762949	0.390283	0.325990
	C10247	C	0.825382	0.453121	0.325080
	C10248	C	0.762872	0.390614	0.174002
	C10249	C	0.825350	0.453188	0.173526
	C10250	C	0.799594	0.421803	0.325778
	C10251	C	0.862011	0.484556	0.325875
	C10252	C	0.773832	0.523290	0.499858
	C10253	C	0.827214	0.402771	0.000650
	C10254	C	0.797753	0.472173	0.499976
	C10255	C	0.851201	0.351733	0.000460
	C10256	C	0.795451	0.417817	0.250021
	C10257	C	0.857875	0.480684	0.249554
	C10258	C	0.767087	0.394284	0.249958
	C10259	C	0.829517	0.457137	0.249021
	C10260	C	0.779952	0.510520	0.500186
	C10261	C	0.833215	0.389684	0.000528
	C10262	C	0.791764	0.485224	0.499983
	C10263	C	0.845040	0.364486	0.000428
	C10264	C	0.788262	0.411857	0.249892
	C10265	C	0.850734	0.474530	0.249066
	C10266	C	0.774239	0.400431	0.250161
	C10267	C	0.836693	0.463138	0.248866
	C10268	C	0.782856	0.503778	0.473649
	C10269	C	0.836102	0.382835	0.516489
	C10270	C	0.789008	0.492260	-0.071974
	C10271	C	0.842152	0.371293	-0.029383
	C10272	C	0.788599	0.491470	0.473528
	C10273	C	0.841861	0.370620	0.516156
	C10274	C	0.783291	0.504573	-0.071881
	C10275	C	0.836428	0.383578	-0.029444
	C10276	C	0.784402	0.410113	0.247409
	C10277	C	0.847130	0.471610	0.242127
	C10278	C	0.778101	0.402174	0.252661
	C10279	C	0.840291	0.466029	0.255978
	C10280	C	0.777527	0.404545	0.247750
	C10281	C	0.840262	0.466026	0.242280
	C10282	C	0.784965	0.407810	0.252491
	C10283	C	0.847147	0.471648	0.255995
	N10284	N	0.764863	0.542036	0.451897
	N10285	N	0.818517	0.422111	0.452422
	N10286	N	0.806435	0.452843	0.047276
	N10287	N	0.860241	0.333076	0.048218
	N10288	N	0.806491	0.452929	0.452441
	N10289	N	0.860264	0.333162	0.452281
	N10290	N	0.764780	0.541919	0.047465
	N10291	N	0.818549	0.422178	0.047635
	N10292	N	0.805717	0.427668	0.203106
	N10293	N	0.868193	0.490392	0.202908
	N10294	N	0.756792	0.384548	0.297456
	N10295	N	0.819229	0.447357	0.296689
	N10296	N	0.756741	0.384742	0.203051
	N10297	N	0.819213	0.447407	0.202503
	N10298	N	0.805717	0.427693	0.297259
	N10299	N	0.868161	0.490394	0.297258
	H10300	H	0.771220	0.529175	0.848769
	H10301	H	0.824433	0.408189	0.851479
	H10302	H	0.800169	0.466313	0.648867
	H10303	H	0.853870	0.346436	0.650561
	H10304	H	0.800341	0.466378	0.850020
	H10305	H	0.853892	0.346304	0.850185
	H10306	H	0.771024	0.528676	0.650203
	H10307	H	0.824661	0.408599	0.649685
	H10308	H	0.798523	0.420504	0.601272
	H10309	H	0.860893	0.483577	0.601043
	H10310	H	0.763989	0.392059	0.897735
	H10311	H	0.826629	0.453870	0.897410
	H10312	H	0.764068	0.391562	0.601714
	H10313	H	0.826532	0.454078	0.601816
	H10314	H	0.798295	0.421192	0.897966
	H10315	H	0.860834	0.483294	0.897649
	H10316	H	0.780530	0.508189	1.126446
	H10317	H	0.833714	0.387322	1.054222
	H10318	H	0.791116	0.487489	0.547953
	H10319	H	0.844373	0.366822	0.470178
	H10320	H	0.790603	0.486407	1.125967
	H10321	H	0.843864	0.365613	1.054453
	H10322	H	0.781015	0.509208	0.547962
	H10323	H	0.834197	0.388438	0.470299
	H10324	H	0.787684	0.409783	0.684964
	H10325	H	0.849895	0.473579	0.813383
	H10326	H	0.774714	0.402955	0.814091
	H10327	H	0.837508	0.464130	0.684886
	H10328	H	0.775475	0.399867	0.685304
	H10329	H	0.837720	0.463664	0.813868
	H10330	H	0.786943	0.412771	0.813455
	H10331	H	0.849667	0.474168	0.685353
	Co10332	Co	0.875037	0.500066	0.624067
	Co10333	Co	0.812472	0.437460	0.624506
	Co10334	Co	0.749983	0.375104	0.876012
	Co10335	Co	0.812521	0.437395	0.875421
	C10336	C	0.770219	0.531068	0.922324
	C10337	C	0.823601	0.410426	0.924223
	C10338	C	0.801221	0.464225	0.576395
	C10339	C	0.854847	0.344233	0.577105
	C10340	C	0.801299	0.464288	0.922884
	C10341	C	0.854865	0.344213	0.923574
	C10342	C	0.770104	0.530767	0.576634
	C10343	C	0.823715	0.410640	0.576430
	C10344	C	0.799631	0.421713	0.673703
	C10345	C	0.862054	0.484572	0.673544
	C10346	C	0.762830	0.390843	0.825609
	C10347	C	0.825446	0.452938	0.825724
	C10348	C	0.762885	0.390612	0.673719
	C10349	C	0.825389	0.453072	0.673792
	C10350	C	0.799498	0.422015	0.825711
	C10351	C	0.862042	0.484397	0.825783
	C10352	C	0.773874	0.523402	0.999426
	C10353	C	0.827195	0.402759	0.500307
	C10354	C	0.797781	0.472201	0.999251
	C10355	C	0.851165	0.351694	0.499874
	C10356	C	0.795410	0.418011	0.749435
	C10357	C	0.857895	0.480635	0.749455
	C10358	C	0.766985	0.394634	0.749845
	C10359	C	0.829542	0.456957	0.749574
	C10360	C	0.780021	0.510614	0.999346
	C10361	C	0.833195	0.389669	0.500134
	C10362	C	0.791804	0.485330	0.999130
	C10363	C	0.845037	0.364531	0.499709
	C10364	C	0.788204	0.412068	0.749174
	C10365	C	0.850710	0.474626	0.749035
	C10366	C	0.774174	0.400673	0.749611
	C10367	C	0.836704	0.463082	0.749324
	C10368	C	0.782877	0.503808	1.070512
	C10369	C	0.836053	0.382816	1.030705
	C10370	C	0.788879	0.492010	0.526782
	C10371	C	0.842087	0.371217	0.483296
	C10372	C	0.788587	0.491484	1.070555
	C10373	C	0.841808	0.370572	1.030634
	C10374	C	0.783129	0.504305	0.526965
	C10375	C	0.836330	0.383449	0.483584
	C10376	C	0.784839	0.408286	0.713029
	C10377	C	0.847186	0.471530	0.785431
	C10378	C	0.777555	0.404425	0.785667
	C10379	C	0.840216	0.466222	0.713102
	C10380	C	0.777979	0.402727	0.713141
	C10381	C	0.840332	0.465897	0.785562
	C10382	C	0.784412	0.410006	0.785519
	C10383	C	0.847068	0.471836	0.712980
	N10384	N	0.764834	0.542096	0.951936
	N10385	N	0.818461	0.421981	0.952927
	N10386	N	0.806430	0.452831	0.547574
	N10387	N	0.860247	0.333171	0.547990
	N10388	N	0.806458	0.452778	0.952259
	N10389	N	0.860241	0.333117	0.952719
	N10390	N	0.764763	0.541892	0.547106
	N10391	N	0.818555	0.422190	0.547329
	N10392	N	0.805774	0.427548	0.702800
	N10393	N	0.868214	0.490288	0.702539
	N10394	N	0.756700	0.384913	0.796966
	N10395	N	0.819285	0.447184	0.797129
	N10396	N	0.756757	0.384754	0.702262
	N10397	N	0.819255	0.447233	0.702750
	N10398	N	0.805698	0.427711	0.797203
	N10399	N	0.868205	0.490168	0.797109
	H10400	H	0.766452	0.611841	0.348579
	H10401	H	0.833543	0.591264	0.351040
	H10402	H	0.803761	0.629073	0.152308
	H10403	H	0.863024	0.529291	0.149235
	H10404	H	0.803708	0.629271	0.348777
	H10405	H	0.862773	0.528992	0.351645
	H10406	H	0.766467	0.611764	0.151791
	H10407	H	0.833766	0.591639	0.150781
	H10408	H	0.808450	0.595062	0.098916
	H10409	H	0.870824	0.657883	0.099055
	H10410	H	0.771833	0.572721	0.400389
	H10411	H	0.834445	0.634732	0.401297
	H10412	H	0.772032	0.571857	0.099138
	H10413	H	0.834585	0.634359	0.100331
	H10414	H	0.808205	0.595509	0.401875
	H10415	H	0.870727	0.658012	0.402098
	H10416	H	0.779015	0.615599	0.650721
	H10417	H	0.843433	0.571598	0.395358
	H10418	H	0.791451	0.623668	0.150247
	H10419	H	0.853560	0.549900	0.011146
	H10420	H	0.791536	0.623226	0.651105
	H10421	H	0.853618	0.549978	0.395697
	H10422	H	0.778904	0.616104	0.149918
	H10423	H	0.843427	0.571597	0.010845
	H10424	H	0.796836	0.585608	0.102767
	H10425	H	0.859370	0.647927	0.398864
	H10426	H	0.784207	0.577963	0.396880
	H10427	H	0.846669	0.640860	0.102859
	H10428	H	0.784104	0.578701	0.103107
	H10429	H	0.846732	0.640573	0.399159
	H10430	H	0.796852	0.585243	0.396953
	H10431	H	0.859351	0.648087	0.102598
	Co10432	Co	0.882763	0.680952	0.125166
	Co10433	Co	0.820320	0.618432	0.125234
	Co10434	Co	0.757857	0.555997	0.375514
	Co10435	Co	0.820303	0.618546	0.375745
	C10436	C	0.765112	0.612396	0.423260
	C10437	C	0.832567	0.593334	0.424268
	C10438	C	0.805131	0.628815	0.077873
	C10439	C	0.863928	0.527122	0.076013
	C10440	C	0.805127	0.629053	0.423032
	C10441	C	0.863754	0.526926	0.424368
	C10442	C	0.765111	0.612377	0.077444
	C10443	C	0.832761	0.593575	0.077376
	C10444	C	0.809354	0.596751	0.173194
	C10445	C	0.871766	0.659469	0.173436
	C10446	C	0.770702	0.571669	0.326929
	C10447	C	0.833277	0.633908	0.327637
	C10448	C	0.770777	0.571284	0.172947
	C10449	C	0.833326	0.633689	0.173687
	C10450	C	0.809219	0.596991	0.327865
	C10451	C	0.871727	0.659574	0.328035
	C10452	C	0.769984	0.612118	0.500757
	C10453	C	0.836412	0.585977	0.000668
	C10454	C	0.800327	0.628404	0.500718
	C10455	C	0.860393	0.534936	-0.000278
	C10456	C	0.805281	0.592125	0.250242
	C10457	C	0.867767	0.654707	0.250686
	C10458	C	0.775247	0.574166	0.249892
	C10459	C	0.837791	0.636520	0.250745
	C10460	C	0.777834	0.615173	0.500737
	C10461	C	0.842515	0.573091	0.000379
	C10462	C	0.792615	0.624396	0.500967
	C10463	C	0.854346	0.547922	0.000014
	C10464	C	0.797938	0.586336	0.249764
	C10465	C	0.860468	0.648791	0.250631
	C10466	C	0.782969	0.578073	0.249833
	C10467	C	0.845525	0.640402	0.250863
	C10468	C	0.781693	0.617310	0.584212
	C10469	C	0.845577	0.566765	0.441842
	C10470	C	0.788796	0.621908	0.083506
	C10471	C	0.851331	0.554545	0.006318
	C10472	C	0.788855	0.621756	0.584244
	C10473	C	0.851339	0.554520	0.442047
	C10474	C	0.781638	0.617426	0.083605
	C10475	C	0.845592	0.566787	0.006304
	C10476	C	0.794101	0.584121	0.167900
	C10477	C	0.856670	0.646374	0.333139
	C10478	C	0.786889	0.579813	0.331796
	C10479	C	0.849424	0.642346	0.168286
	C10480	C	0.786846	0.580117	0.167874
	C10481	C	0.849433	0.642285	0.333519
	C10482	C	0.794138	0.583794	0.331667
	C10483	C	0.856658	0.646456	0.168248
	N10484	N	0.757851	0.613726	0.451807
	N10485	N	0.827207	0.604450	0.453365
	N10486	N	0.812342	0.629012	0.049592
	N10487	N	0.869036	0.515480	0.047000
	N10488	N	0.812340	0.629197	0.451378
	N10489	N	0.868944	0.515429	0.452784
	N10490	N	0.757866	0.613835	0.048622
	N10491	N	0.827331	0.604551	0.047968
	N10492	N	0.815025	0.604311	0.202465
	N10493	N	0.877455	0.666939	0.202586
	N10494	N	0.764111	0.567395	0.298330
	N10495	N	0.826652	0.629765	0.298895
	N10496	N	0.764148	0.567194	0.201715
	N10497	N	0.826672	0.629646	0.202358
	N10498	N	0.814950	0.604446	0.299037
	N10499	N	0.877438	0.667029	0.298797
	H10500	H	0.766479	0.611867	0.847844
	H10501	H	0.833585	0.591232	0.850566
	H10502	H	0.803762	0.629428	0.652678
	H10503	H	0.863082	0.529273	0.649595
	H10504	H	0.803767	0.629418	0.848314
	H10505	H	0.862739	0.528943	0.849900
	H10506	H	0.766429	0.611917	0.653058
	H10507	H	0.833626	0.591520	0.651318
	H10508	H	0.808385	0.595246	0.598080
	H10509	H	0.870794	0.657889	0.598638
	H10510	H	0.771948	0.572181	0.900653
	H10511	H	0.834477	0.634737	0.901783
	H10512	H	0.772160	0.571274	0.599627
	H10513	H	0.834529	0.634564	0.599478
	H10514	H	0.808264	0.595329	0.901946
	H10515	H	0.870783	0.657832	0.902027
	H10516	H	0.779168	0.614809	0.850080
	H10517	H	0.843279	0.571188	0.990049
	H10518	H	0.791549	0.623447	0.350833
	H10519	H	0.853190	0.549235	0.606585
	H10520	H	0.791706	0.622425	0.849885
	H10521	H	0.853433	0.549490	0.989342
	H10522	H	0.778929	0.615920	0.351011
	H10523	H	0.843066	0.570870	0.606268
	H10524	H	0.796884	0.585496	0.601975
	H10525	H	0.859407	0.647733	0.602791
	H10526	H	0.784414	0.577220	0.897538
	H10527	H	0.846665	0.640853	0.898707
	H10528	H	0.784204	0.578238	0.602168
	H10529	H	0.846730	0.640560	0.602933
	H10530	H	0.797088	0.584448	0.897293
	H10531	H	0.859380	0.647939	0.898620
	Co10532	Co	0.882788	0.681024	0.624990
	Co10533	Co	0.820271	0.618586	0.624881
	Co10534	Co	0.757802	0.555983	0.875092
	Co10535	Co	0.820298	0.618470	0.876095
	C10536	C	0.765114	0.612396	0.922437
	C10537	C	0.832673	0.593392	0.923824
	C10538	C	0.805149	0.629115	0.578041
	C10539	C	0.863914	0.527046	0.576805
	C10540	C	0.805132	0.628994	0.922890
	C10541	C	0.863784	0.526955	0.923144
	C10542	C	0.765115	0.612417	0.578232
	C10543	C	0.832636	0.593470	0.577880
	C10544	C	0.809323	0.596800	0.672806
	C10545	C	0.871773	0.659419	0.672892
	C10546	C	0.770785	0.571273	0.826886
	C10547	C	0.833252	0.633933	0.827899
	C10548	C	0.770892	0.570835	0.673392
	C10549	C	0.833269	0.633871	0.673600
	C10550	C	0.809295	0.596830	0.827388
	C10551	C	0.871782	0.659445	0.827652
	C10552	C	0.769994	0.611952	1.000021
	C10553	C	0.836263	0.585796	0.501049
	C10554	C	0.800322	0.628242	1.000253
	C10555	C	0.860284	0.534808	0.500873
	C10556	C	0.805341	0.591883	0.749936
	C10557	C	0.867799	0.654621	0.750349
	C10558	C	0.775398	0.573590	0.750172
	C10559	C	0.837772	0.636578	0.750721
	C10560	C	0.777878	0.614885	1.000091
	C10561	C	0.842409	0.573035	0.500949
	C10562	C	0.792642	0.624167	1.000111
	C10563	C	0.854266	0.547850	0.501205
	C10564	C	0.798028	0.585893	0.749659
	C10565	C	0.860475	0.648733	0.750484
	C10566	C	0.783133	0.577450	0.749925
	C10567	C	0.845505	0.640445	0.750732
	C10568	C	0.781791	0.616749	0.916601
	C10569	C	0.845522	0.566536	0.994291
	C10570	C	0.788838	0.621939	0.417499
	C10571	C	0.851112	0.554150	0.560198
	C10572	C	0.788955	0.621197	0.916602
	C10573	C	0.851264	0.554280	0.994096
	C10574	C	0.781645	0.617569	0.417399
	C10575	C	0.845355	0.566391	0.560060
	C10576	C	0.794197	0.583713	0.667324
	C10577	C	0.856672	0.646222	0.668303
	C10578	C	0.787067	0.579082	0.832222
	C10579	C	0.849383	0.642406	0.833056
	C10580	C	0.786967	0.579611	0.667452
	C10581	C	0.849423	0.642215	0.668407
	C10582	C	0.794294	0.583158	0.832086
	C10583	C	0.856633	0.646418	0.832984
	N10584	N	0.757868	0.613865	0.951148
	N10585	N	0.827296	0.604477	0.952820
	N10586	N	0.812342	0.629289	0.549516
	N10587	N	0.869051	0.515530	0.547470
	N10588	N	0.812348	0.629111	0.951527
	N10589	N	0.868954	0.515390	0.951759
	N10590	N	0.757863	0.613770	0.549499
	N10591	N	0.827253	0.604510	0.548459
	N10592	N	0.814958	0.604488	0.702088
	N10593	N	0.877440	0.667028	0.702167
	N10594	N	0.764126	0.567301	0.798254
	N10595	N	0.826624	0.629850	0.798974
	N10596	N	0.764188	0.567029	0.701761
	N10597	N	0.826628	0.629830	0.702345
	N10598	N	0.814947	0.604503	0.798353
	N10599	N	0.877460	0.667008	0.798525
	H10600	H	0.758696	0.682937	0.348720
	H10601	H	0.829034	0.674127	0.348255
	H10602	H	0.795976	0.700621	0.152668
	H10603	H	0.866184	0.691701	0.152914
	H10604	H	0.795954	0.700719	0.348094
	H10605	H	0.866275	0.691963	0.348625
	H10606	H	0.758715	0.683192	0.152722
	H10607	H	0.828978	0.674031	0.152538
	H10608	H	0.799774	0.666400	0.098704
	H10609	H	0.862147	0.729431	0.099575
	H10610	H	0.762642	0.645986	0.402384
	H10611	H	0.825193	0.708209	0.402687
	H10612	H	0.762809	0.645855	0.098739
	H10613	H	0.825229	0.708135	0.099201
	H10614	H	0.799833	0.666511	0.402811
	H10615	H	0.862343	0.729000	0.402870
	H10616	H	0.770909	0.689174	0.350534
	H10617	H	0.841580	0.677943	0.350294
	H10618	H	0.783494	0.696645	-0.149185
	H10619	H	0.853968	0.685974	0.150591
	H10620	H	0.783428	0.696866	0.350411
	H10621	H	0.854065	0.685557	0.350434
	H10622	H	0.770951	0.688978	-0.149100
	H10623	H	0.841504	0.678259	0.150515
	H10624	H	0.787669	0.659373	0.100804
	H10625	H	0.850173	0.721530	0.401337
	H10626	H	0.774856	0.652918	0.401190
	H10627	H	0.837355	0.715520	0.100752
	H10628	H	0.774790	0.653440	0.101091
	H10629	H	0.837409	0.715355	0.401632
	H10630	H	0.787648	0.659163	0.401041
	H10631	H	0.850155	0.721861	0.100209
	Co10632	Co	0.874986	0.750080	0.124338
	Co10633	Co	0.812474	0.687331	0.124699
	Co10634	Co	0.749958	0.624972	0.375921
	Co10635	Co	0.812518	0.687329	0.375921
	C10636	C	0.757353	0.683324	0.423202
	C10637	C	0.827662	0.674722	0.422916
	C10638	C	0.797327	0.700078	0.078225
	C10639	C	0.867587	0.691439	0.078238
	C10640	C	0.797353	0.700075	0.422292
	C10641	C	0.867642	0.691670	0.423111
	C10642	C	0.757334	0.683513	0.078106
	C10643	C	0.827628	0.674694	0.077944
	C10644	C	0.800814	0.667815	0.173234
	C10645	C	0.863272	0.730613	0.173574
	C10646	C	0.761616	0.644610	0.327937
	C10647	C	0.824171	0.706897	0.327999
	C10648	C	0.761659	0.644608	0.172918
	C10649	C	0.824178	0.706812	0.173727
	C10650	C	0.800844	0.667847	0.327917
	C10651	C	0.863352	0.730390	0.328311
	C10652	C	0.762145	0.684083	0.500705
	C10653	C	0.832515	0.674406	0.000356
	C10654	C	0.792485	0.700473	0.499886
	C10655	C	0.862792	0.690856	0.000397
	C10656	C	0.796525	0.664108	0.250764
	C10657	C	0.859016	0.726704	0.250833
	C10658	C	0.765940	0.648404	0.250577
	C10659	C	0.828486	0.710587	0.250713
	C10660	C	0.769840	0.688099	0.500425
	C10661	C	0.840357	0.677448	0.000350
	C10662	C	0.784594	0.697445	0.500185
	C10663	C	0.855103	0.686835	0.000260
	C10664	C	0.788868	0.659785	0.250809
	C10665	C	0.851386	0.722205	0.250755
	C10666	C	0.773619	0.652746	0.251045
	C10667	C	0.836154	0.714979	0.250821
	C10668	C	0.773593	0.690720	0.417149
	C10669	C	0.844228	0.679614	0.417137
	C10670	C	0.780818	0.695012	-0.082704
	C10671	C	0.851322	0.684312	0.083668
	C10672	C	0.780756	0.695183	0.416815
	C10673	C	0.851393	0.684056	0.417281
	C10674	C	0.773664	0.690565	-0.082562
	C10675	C	0.844162	0.679845	0.083689
	C10676	C	0.784930	0.658029	0.167469
	C10677	C	0.847450	0.720259	0.334185
	C10678	C	0.777552	0.654441	0.334476
	C10679	C	0.840104	0.716906	0.167449
	C10680	C	0.777557	0.654658	0.167737
	C10681	C	0.840108	0.716768	0.334498
	C10682	C	0.784899	0.657971	0.334169
	C10683	C	0.847449	0.720460	0.167322
	N10684	N	0.750122	0.683255	0.451377
	N10685	N	0.820391	0.676029	0.451835
	N10686	N	0.804584	0.698745	0.049598
	N10687	N	0.874795	0.691589	0.049857
	N10688	N	0.804598	0.698700	0.450911
	N10689	N	0.874846	0.691850	0.451523
	N10690	N	0.750120	0.683383	0.049526
	N10691	N	0.820402	0.676123	0.049387
	N10692	N	0.807031	0.673745	0.201814
	N10693	N	0.869441	0.736700	0.202187
	N10694	N	0.755460	0.638533	0.298717
	N10695	N	0.817984	0.700867	0.299221
	N10696	N	0.755469	0.638574	0.201767
	N10697	N	0.817981	0.700858	0.202221
	N10698	N	0.807053	0.673759	0.298840
	N10699	N	0.869511	0.736520	0.299145
	H10700	H	0.758787	0.683135	0.848432
	H10701	H	0.828979	0.674476	0.848468
	H10702	H	0.795972	0.700710	0.651481
	H10703	H	0.866270	0.691831	0.652676
	H10704	H	0.795961	0.700852	0.848467
	H10705	H	0.866212	0.691907	0.848161
	H10706	H	0.758652	0.683264	0.652762
	H10707	H	0.829039	0.674152	0.652953
	H10708	H	0.799750	0.666688	0.598555
	H10709	H	0.862247	0.729079	0.598870
	H10710	H	0.762728	0.645821	0.902503
	H10711	H	0.825257	0.708204	0.902282
	H10712	H	0.762775	0.645912	0.598614
	H10713	H	0.825174	0.708543	0.598630
	H10714	H	0.799734	0.666739	0.901935
	H10715	H	0.862354	0.728816	0.902816
	H10716	H	0.770854	0.689482	1.150566
	H10717	H	0.841521	0.677908	0.850362
	H10718	H	0.783490	0.696755	0.650683
	H10719	H	0.854054	0.685802	0.651147
	H10720	H	0.783373	0.697245	1.150417
	H10721	H	0.854026	0.685797	0.850386
	H10722	H	0.770994	0.689147	0.650669
	H10723	H	0.841524	0.678106	0.651048
	H10724	H	0.787744	0.659079	0.900512
	H10725	H	0.850159	0.721843	0.600261
	H10726	H	0.774817	0.653285	0.600322
	H10727	H	0.837445	0.715267	0.900713
	H10728	H	0.774901	0.652881	0.900943
	H10729	H	0.837307	0.715716	0.599832
	H10730	H	0.787614	0.659634	0.600585
	H10731	H	0.850200	0.721516	0.901266
	Co10732	Co	0.875029	0.749714	0.624311
	Co10733	Co	0.812524	0.687429	0.624264
	Co10734	Co	0.749944	0.625084	0.875943
	Co10735	Co	0.812496	0.687533	0.876340
	C10736	C	0.757349	0.683474	0.922990
	C10737	C	0.827630	0.674929	0.922891
	C10738	C	0.797369	0.700061	0.577327
	C10739	C	0.867657	0.691630	0.578172
	C10740	C	0.797323	0.700136	0.923149
	C10741	C	0.867610	0.691612	0.922921
	C10742	C	0.757333	0.683480	0.578145
	C10743	C	0.827650	0.674798	0.578289
	C10744	C	0.800826	0.667945	0.672820
	C10745	C	0.863349	0.730294	0.673412
	C10746	C	0.761638	0.644584	0.827733
	C10747	C	0.824180	0.707017	0.827722
	C10748	C	0.761674	0.644564	0.673032
	C10749	C	0.824145	0.707100	0.673060
	C10750	C	0.800811	0.668007	0.827581
	C10751	C	0.863360	0.730272	0.828057
	C10752	C	0.762140	0.684074	1.000548
	C10753	C	0.832528	0.674448	0.500839
	C10754	C	0.792457	0.700450	1.000640
	C10755	C	0.862847	0.690905	0.500891
	C10756	C	0.796528	0.664252	0.750174
	C10757	C	0.859054	0.726570	0.750710
	C10758	C	0.765963	0.648304	0.750509
	C10759	C	0.828469	0.710800	0.750300
	C10760	C	0.769870	0.688082	1.000733
	C10761	C	0.840376	0.677445	0.500754
	C10762	C	0.784611	0.697417	1.000670
	C10763	C	0.855152	0.686805	0.500968
	C10764	C	0.788868	0.659823	0.750474
	C10765	C	0.851394	0.722171	0.750525
	C10766	C	0.773631	0.652676	0.750686
	C10767	C	0.836135	0.715132	0.750210
	C10768	C	0.773597	0.690884	1.084172
	C10769	C	0.844183	0.679696	0.916850
	C10770	C	0.780795	0.695166	0.583895
	C10771	C	0.851363	0.684260	0.584340
	C10772	C	0.780740	0.695401	1.083841
	C10773	C	0.851342	0.684197	0.916902
	C10774	C	0.773654	0.690652	0.583688
	C10775	C	0.844201	0.679771	0.584192
	C10776	C	0.784947	0.657869	0.833985
	C10777	C	0.847411	0.720477	0.667027
	C10778	C	0.777536	0.654650	0.667264
	C10779	C	0.840128	0.716751	0.833722
	C10780	C	0.777596	0.654384	0.833998
	C10781	C	0.840046	0.717087	0.666742
	C10782	C	0.784890	0.658130	0.667215
	C10783	C	0.847481	0.720216	0.834004
	N10784	N	0.750121	0.683414	0.951429
	N10785	N	0.820413	0.676286	0.951723
	N10786	N	0.804614	0.698692	0.548391
	N10787	N	0.874836	0.691821	0.549822
	N10788	N	0.804579	0.698758	0.951922
	N10789	N	0.874827	0.691677	0.951768
	N10790	N	0.750109	0.683333	0.549683
	N10791	N	0.820394	0.676095	0.549371
	N10792	N	0.807007	0.673992	0.701823
	N10793	N	0.869565	0.736252	0.702112
	N10794	N	0.755447	0.638600	0.798692
	N10795	N	0.817981	0.701033	0.798903
	N10796	N	0.755480	0.638558	0.701710
	N10797	N	0.817960	0.701064	0.701804
	N10798	N	0.806998	0.674041	0.798714
	N10799	N	0.869557	0.736271	0.799221
	H10800	H	0.762088	0.845857	0.350995
	H10801	H	0.821204	0.745703	0.348085
	H10802	H	0.791234	0.783467	0.150944
	H10803	H	0.858495	0.763305	0.152423
	H10804	H	0.791345	0.783700	0.349507
	H10805	H	0.858550	0.763292	0.348648
	H10806	H	0.762142	0.846200	0.150215
	H10807	H	0.821219	0.745450	0.152629
	H10808	H	0.790395	0.740679	0.100705
	H10809	H	0.853018	0.802706	0.099359
	H10810	H	0.754149	0.717007	0.401939
	H10811	H	0.816684	0.779598	0.401403
	H10812	H	0.754150	0.717025	0.099323
	H10813	H	0.816564	0.779651	0.098933
	H10814	H	0.790472	0.740610	0.402136
	H10815	H	0.852914	0.802957	0.400623
	H10816	H	0.771733	0.825794	0.547390
	H10817	H	0.833472	0.751614	0.349757
	H10818	H	0.781875	0.804127	0.024179
	H10819	H	0.845890	0.759489	0.150426
	H10820	H	0.781883	0.804180	0.547953
	H10821	H	0.845998	0.759165	0.350245
	H10822	H	0.771709	0.825678	0.024389
	H10823	H	0.833339	0.751940	0.150551
	H10824	H	0.778209	0.734679	0.104018
	H10825	H	0.840758	0.796685	0.397703
	H10826	H	0.765550	0.727137	0.398554
	H10827	H	0.828010	0.789891	0.101537
	H10828	H	0.765584	0.727430	0.103550
	H10829	H	0.828106	0.789527	0.397712
	H10830	H	0.778219	0.734356	0.398608
	H10831	H	0.840686	0.797044	0.101427
	Co10832	Co	0.867205	0.818762	0.125007
	Co10833	Co	0.804665	0.756455	0.124958
	Co10834	Co	0.742169	0.693871	0.375704
	Co10835	Co	0.804677	0.756602	0.375653
	C10836	C	0.761116	0.847967	0.423898
	C10837	C	0.819842	0.746062	0.422643
	C10838	C	0.792285	0.781532	0.077368
	C10839	C	0.859856	0.762749	0.077519
	C10840	C	0.792335	0.781672	0.423471
	C10841	C	0.859871	0.762578	0.423151
	C10842	C	0.761201	0.848181	0.077063
	C10843	C	0.819804	0.745882	0.078110
	C10844	C	0.791640	0.741318	0.174224
	C10845	C	0.854218	0.803452	0.173061
	C10846	C	0.753185	0.715473	0.327873
	C10847	C	0.815697	0.778088	0.327161
	C10848	C	0.753179	0.715576	0.173667
	C10849	C	0.815627	0.778165	0.172990
	C10850	C	0.791671	0.741277	0.328229
	C10851	C	0.854167	0.803563	0.326804
	C10852	C	0.764615	0.840091	0.500312
	C10853	C	0.824618	0.746677	0.001013
	C10854	C	0.788677	0.789251	0.500740
	C10855	C	0.854970	0.762861	0.000417
	C10856	C	0.787140	0.738615	0.251462
	C10857	C	0.849667	0.800896	0.249730
	C10858	C	0.757157	0.720421	0.250808
	C10859	C	0.819654	0.782954	0.249922
	C10860	C	0.770670	0.827140	0.500509
	C10861	C	0.832312	0.750724	0.001030
	C10862	C	0.782533	0.801994	0.500618
	C10863	C	0.847089	0.759902	0.000661
	C10864	C	0.779406	0.734808	0.251274
	C10865	C	0.841928	0.797085	0.249586
	C10866	C	0.764447	0.726389	0.250884
	C10867	C	0.826955	0.788845	0.249769
	C10868	C	0.773822	0.820891	0.526852
	C10869	C	0.836156	0.753125	0.416839
	C10870	C	0.779574	0.808637	0.013757
	C10871	C	0.843222	0.757786	0.083673
	C10872	C	0.779594	0.808658	0.526921
	C10873	C	0.843325	0.757505	0.416999
	C10874	C	0.773836	0.820883	0.014079
	C10875	C	0.836056	0.753399	0.083990
	C10876	C	0.775503	0.732991	0.169167
	C10877	C	0.838034	0.795140	0.332040
	C10878	C	0.768259	0.728716	0.333238
	C10879	C	0.830744	0.791312	0.167097
	C10880	C	0.768270	0.728894	0.168961
	C10881	C	0.830796	0.791118	0.332044
	C10882	C	0.775489	0.732856	0.333470
	C10883	C	0.837989	0.795355	0.167016
	N10884	N	0.755974	0.859526	0.452659
	N10885	N	0.812616	0.745939	0.451026
	N10886	N	0.797707	0.770546	0.048084
	N10887	N	0.867108	0.761408	0.048831
	N10888	N	0.797706	0.770608	0.452837
	N10889	N	0.867134	0.761090	0.452066
	N10890	N	0.756022	0.859663	0.047739
	N10891	N	0.812615	0.745721	0.049650
	N10892	N	0.798303	0.745270	0.202490
	N10893	N	0.860868	0.807508	0.202015
	N10894	N	0.747525	0.707889	0.298794
	N10895	N	0.810010	0.770590	0.298454
	N10896	N	0.747509	0.708013	0.202469
	N10897	N	0.809964	0.770618	0.202156
	N10898	N	0.798321	0.745267	0.299242
	N10899	N	0.860816	0.807576	0.298647
	H10900	H	0.762077	0.845857	0.851048
	H10901	H	0.821274	0.745683	0.848428
	H10902	H	0.791352	0.783701	0.651631
	H10903	H	0.858528	0.762843	0.652228
	H10904	H	0.791474	0.784026	0.849974
	H10905	H	0.858479	0.762859	0.847739
	H10906	H	0.762097	0.845777	0.649393
	H10907	H	0.821219	0.745745	0.652142
	H10908	H	0.790509	0.740413	0.599456
	H10909	H	0.852927	0.802964	0.600363
	H10910	H	0.754182	0.717251	0.901495
	H10911	H	0.816697	0.779653	0.902012
	H10912	H	0.754175	0.717027	0.598618
	H10913	H	0.816637	0.779818	0.598891
	H10914	H	0.790449	0.740751	0.901472
	H10915	H	0.853072	0.802544	0.902013
	H10916	H	0.771409	0.825216	0.977902
	H10917	H	0.833462	0.751292	0.850669
	H10918	H	0.781477	0.803266	0.452872
	H10919	H	0.845984	0.759373	0.650788
	H10920	H	0.781504	0.803553	0.977205
	H10921	H	0.845990	0.758870	0.850214
	H10922	H	0.771284	0.824859	0.453265
	H10923	H	0.833382	0.751867	0.650566
	H10924	H	0.778303	0.734102	0.897298
	H10925	H	0.840778	0.796829	0.603305
	H10926	H	0.765593	0.727330	0.603161
	H10927	H	0.828113	0.789506	0.898186
	H10928	H	0.765622	0.726842	0.897089
	H10929	H	0.828158	0.789573	0.603299
	H10930	H	0.778271	0.734589	0.603244
	H10931	H	0.840795	0.796500	0.898344
	Co10932	Co	0.867170	0.818878	0.625346
	Co10933	Co	0.804722	0.756621	0.624959
	Co10934	Co	0.742179	0.694099	0.875565
	Co10935	Co	0.804715	0.756660	0.875905
	C10936	C	0.761169	0.848027	0.924366
	C10937	C	0.819835	0.746008	0.923079
	C10938	C	0.792341	0.781664	0.577880
	C10939	C	0.859877	0.762412	0.578149
	C10940	C	0.792378	0.781831	0.923539
	C10941	C	0.859835	0.762413	0.922476
	C10942	C	0.761114	0.847953	0.576507
	C10943	C	0.819830	0.746022	0.577518
	C10944	C	0.791716	0.741303	0.673337
	C10945	C	0.854203	0.803610	0.673967
	C10946	C	0.753190	0.715656	0.827277
	C10947	C	0.815737	0.778141	0.827676
	C10948	C	0.753224	0.715522	0.672593
	C10949	C	0.815683	0.778311	0.673333
	C10950	C	0.791676	0.741443	0.827470
	C10951	C	0.854263	0.803425	0.828089
	C10952	C	0.764710	0.840294	1.001041
	C10953	C	0.824628	0.746688	0.500261
	C10954	C	0.788638	0.789160	1.000605
	C10955	C	0.854998	0.762898	0.500789
	C10956	C	0.787184	0.738727	0.750379
	C10957	C	0.849719	0.800901	0.751103
	C10958	C	0.757203	0.720402	0.749839
	C10959	C	0.819695	0.783027	0.750521
	C10960	C	0.770715	0.827231	1.001097
	C10961	C	0.832353	0.750639	0.500335
	C10962	C	0.782533	0.802003	1.000609
	C10963	C	0.847139	0.759889	0.500588
	C10964	C	0.779459	0.734764	0.750095
	C10965	C	0.841996	0.797037	0.750957
	C10966	C	0.764527	0.726301	0.749934
	C10967	C	0.827025	0.788750	0.750778
	C10968	C	0.773656	0.820568	0.988083
	C10969	C	0.836121	0.753041	0.917342
	C10970	C	0.779357	0.808165	0.473974
	C10971	C	0.843292	0.757701	0.584041
	C10972	C	0.779410	0.808348	0.987618
	C10973	C	0.843285	0.757460	0.917033
	C10974	C	0.773592	0.820397	0.473965
	C10975	C	0.836119	0.753317	0.583852
	C10976	C	0.775567	0.732676	0.832270
	C10977	C	0.838110	0.795149	0.668739
	C10978	C	0.768332	0.728802	0.668177
	C10979	C	0.830842	0.791025	0.832907
	C10980	C	0.768337	0.728543	0.831972
	C10981	C	0.830862	0.791143	0.668786
	C10982	C	0.775561	0.732886	0.668237
	C10983	C	0.838084	0.795062	0.832948
	N10984	N	0.755999	0.859563	0.952799
	N10985	N	0.812615	0.745822	0.951466
	N10986	N	0.797727	0.770624	0.548324
	N10987	N	0.867135	0.761026	0.549377
	N10988	N	0.797749	0.770724	0.952524
	N10989	N	0.867115	0.761214	0.951266
	N10990	N	0.755990	0.859555	0.547477
	N10991	N	0.812621	0.745896	0.549305
	N10992	N	0.798349	0.745418	0.701940
	N10993	N	0.860862	0.807602	0.702356
	N10994	N	0.747478	0.708143	0.798122
	N10995	N	0.810024	0.770723	0.798587
	N10996	N	0.747541	0.708023	0.702025
	N10997	N	0.809998	0.770793	0.702274
	N10998	N	0.798324	0.745495	0.798771
	N10999	N	0.860888	0.807510	0.799238
	H11000	H	0.771307	1.029141	0.348863
	H11001	H	0.824841	0.908574	0.351829
	H11002	H	0.800240	0.966120	0.149814
	H11003	H	0.853924	0.845791	0.150022
	H11004	H	0.800633	0.966631	0.349749
	H11005	H	0.853941	0.846167	0.349983
	H11006	H	0.771191	1.028689	0.151188
	H11007	H	0.824809	0.908479	0.149940
	H11008	H	0.798578	0.920446	0.102297
	H11009	H	0.860899	0.983233	0.102832
	H11010	H	0.764232	0.891341	0.396957
	H11011	H	0.826718	0.953818	0.399152
	H11012	H	0.764002	0.891905	0.102501
	H11013	H	0.826548	0.954360	0.102428
	H11014	H	0.798379	0.920911	0.397657
	H11015	H	0.860960	0.983307	0.398960
	H11016	H	0.780865	1.008579	0.538108
	H11017	H	0.834409	0.888120	0.512219
	H11018	H	0.791542	0.987800	0.078436
	H11019	H	0.843912	0.865394	0.071095
	H11020	H	0.791026	0.987035	0.537375
	H11021	H	0.844520	0.866537	0.512874
	H11022	H	0.781281	1.009313	0.079483
	H11023	H	0.833793	0.887091	0.070954
	H11024	H	0.787504	0.910573	0.284599
	H11025	H	0.849400	0.975814	0.307528
	H11026	H	0.775122	0.901709	0.214375
	H11027	H	0.838059	0.961894	0.194670
	H11028	H	0.775334	0.900445	0.284671
	H11029	H	0.837243	0.965759	0.308305
	H11030	H	0.787284	0.911660	0.214051
	H11031	H	0.850220	0.971907	0.194951
	Co11032	Co	0.875008	1.000038	0.125297
	Co11033	Co	0.812548	0.937349	0.124904
	Co11034	Co	0.750018	0.874974	0.375670
	Co11035	Co	0.812522	0.937367	0.376067
	C11036	C	0.770270	1.031050	0.422440
	C11037	C	0.823756	0.910579	0.424577
	C11038	C	0.801306	0.964200	0.076939
	C11039	C	0.854843	0.843809	0.076751
	C11040	C	0.801477	0.964430	0.423116
	C11041	C	0.854860	0.844033	0.423611
	C11042	C	0.770187	1.030719	0.077779
	C11043	C	0.823818	0.910494	0.076703
	C11044	C	0.799698	0.921574	0.174138
	C11045	C	0.862085	0.984336	0.174748
	C11046	C	0.763009	0.890323	0.325204
	C11047	C	0.825501	0.952842	0.326746
	C11048	C	0.762910	0.890582	0.174143
	C11049	C	0.825407	0.953120	0.174533
	C11050	C	0.799624	0.921789	0.325840
	C11051	C	0.862105	0.984404	0.326966
	C11052	C	0.773927	1.023362	0.499374
	C11053	C	0.827255	0.902557	0.000150
	C11054	C	0.797872	0.972218	0.499347
	C11055	C	0.851160	0.851319	0.000203
	C11056	C	0.795524	0.917707	0.249974
	C11057	C	0.857925	0.980510	0.250869
	C11058	C	0.767110	0.894337	0.249784
	C11059	C	0.829590	0.956937	0.250825
	C11060	C	0.780043	1.010566	0.499436
	C11061	C	0.833257	0.889496	-0.000236
	C11062	C	0.791893	0.985283	0.499279
	C11063	C	0.845055	0.864197	0.000204
	C11064	C	0.788325	0.911800	0.249633
	C11065	C	0.850755	0.974501	0.250941
	C11066	C	0.774271	0.900415	0.249779
	C11067	C	0.836747	0.963017	0.251291
	C11068	C	0.783085	1.004052	0.520890
	C11069	C	0.836432	0.883384	0.507261
	C11070	C	0.789076	0.992142	0.044204
	C11071	C	0.841860	0.870374	0.040079
	C11072	C	0.788826	0.991755	0.520686
	C11073	C	0.842191	0.871119	0.507412
	C11074	C	0.783295	1.004353	0.044767
	C11075	C	0.836116	0.882619	0.039926
	C11076	C	0.784803	0.908571	0.269482
	C11077	C	0.846928	0.972745	0.282705
	C11078	C	0.777796	0.903682	0.229845
	C11079	C	0.840547	0.964896	0.219502
	C11080	C	0.777926	0.902962	0.269685
	C11081	C	0.840085	0.967057	0.283007
	C11082	C	0.784673	0.909254	0.229667
	C11083	C	0.847407	0.970514	0.219524
	N11084	N	0.764837	1.041954	0.451765
	N11085	N	0.818557	0.921995	0.453220
	N11086	N	0.806489	0.952701	0.048040
	N11087	N	0.860228	0.832766	0.047668
	N11088	N	0.806569	0.952831	0.452643
	N11089	N	0.860200	0.832867	0.452818
	N11090	N	0.764800	1.041811	0.048308
	N11091	N	0.818659	0.922074	0.047910
	N11092	N	0.805813	0.927462	0.203011
	N11093	N	0.868227	0.990176	0.203574
	N11094	N	0.756861	0.884538	0.296951
	N11095	N	0.819357	0.947036	0.297872
	N11096	N	0.756805	0.884685	0.202772
	N11097	N	0.819295	0.947206	0.203345
	N11098	N	0.805780	0.927581	0.297086
	N11099	N	0.868248	0.990190	0.297819
	H11100	H	0.771174	1.028614	0.850292
	H11101	H	0.824540	0.908106	0.850222
	H11102	H	0.800296	0.966173	0.649220
	H11103	H	0.853911	0.846043	0.651835
	H11104	H	0.800644	0.966647	0.851498
	H11105	H	0.853865	0.845742	0.850003
	H11106	H	0.771075	1.028333	0.649877
	H11107	H	0.824506	0.907993	0.649735
	H11108	H	0.798483	0.920563	0.603882
	H11109	H	0.861031	0.983252	0.602914
	H11110	H	0.764170	0.891661	0.896901
	H11111	H	0.826628	0.953914	0.898428
	H11112	H	0.764061	0.891767	0.602312
	H11113	H	0.826708	0.953877	0.602763
	H11114	H	0.798425	0.920932	0.898294
	H11115	H	0.860895	0.983643	0.898187
	H11116	H	0.780298	1.007680	0.922801
	H11117	H	0.834370	0.888109	0.928205
	H11118	H	0.791077	0.987237	0.461411
	H11119	H	0.843946	0.865800	0.488949
	H11120	H	0.790529	0.986213	0.923010
	H11121	H	0.844517	0.866524	0.929374
	H11122	H	0.780961	1.008872	0.461008
	H11123	H	0.833763	0.887286	0.488932
	H11124	H	0.787658	0.910116	0.754074
	H11125	H	0.850376	0.971750	0.771322
	H11126	H	0.774783	0.902732	0.747463
	H11127	H	0.837256	0.965580	0.729036
	H11128	H	0.775450	0.900428	0.752833
	H11129	H	0.838254	0.961464	0.772003
	H11130	H	0.787001	0.912569	0.748011
	H11131	H	0.849393	0.975667	0.728984
	Co11132	Co	0.875036	1.000002	0.625507
	Co11133	Co	0.812520	0.937294	0.625168
	Co11134	Co	0.750034	0.874998	0.875619
	Co11135	Co	0.812551	0.937396	0.876242
	C11136	C	0.770173	1.030673	0.923745
	C11137	C	0.823690	0.910286	0.923595
	C11138	C	0.801305	0.964232	0.576190
	C11139	C	0.854858	0.843996	0.577682
	C11140	C	0.801486	0.964463	0.924465
	C11141	C	0.854818	0.843783	0.923601
	C11142	C	0.770145	1.030649	0.576459
	C11143	C	0.823584	0.910280	0.577136
	C11144	C	0.799603	0.921795	0.675966
	C11145	C	0.862156	0.984330	0.674706
	C11146	C	0.762909	0.890655	0.825451
	C11147	C	0.825460	0.952839	0.826377
	C11148	C	0.762867	0.890657	0.674050
	C11149	C	0.825506	0.952799	0.674722
	C11150	C	0.799580	0.921937	0.826786
	C11151	C	0.862093	0.984557	0.826261
	C11152	C	0.773834	1.023149	1.000843
	C11153	C	0.827198	0.902550	0.500836
	C11154	C	0.797899	0.972214	1.000599
	C11155	C	0.851183	0.851602	0.500638
	C11156	C	0.795401	0.918080	0.751370
	C11157	C	0.857963	0.980520	0.750369
	C11158	C	0.767025	0.894632	0.749799
	C11159	C	0.829669	0.956702	0.750632
	C11160	C	0.779964	1.010329	1.001009
	C11161	C	0.833219	0.889585	0.500810
	C11162	C	0.791866	0.985250	1.000444
	C11163	C	0.845089	0.864443	0.500718
	C11164	C	0.788227	0.912058	0.751261
	C11165	C	0.850804	0.974464	0.750221
	C11166	C	0.774209	0.900632	0.750301
	C11167	C	0.836824	0.962780	0.750881
	C11168	C	0.782750	1.003436	0.957420
	C11169	C	0.836440	0.883259	0.959916
	C11170	C	0.788888	0.991893	0.478038
	C11171	C	0.841857	0.870607	0.494100
	C11172	C	0.788527	0.991243	0.957079
	C11173	C	0.842160	0.870967	0.960193
	C11174	C	0.783117	1.004161	0.478022
	C11175	C	0.836091	0.882867	0.494381
	C11176	C	0.784827	0.908487	0.752546
	C11177	C	0.847513	0.970308	0.762552
	C11178	C	0.777589	0.904232	0.748845
	C11179	C	0.840114	0.966850	0.738538
	C11180	C	0.777956	0.902931	0.752137
	C11181	C	0.840657	0.964617	0.762767
	C11182	C	0.784476	0.909754	0.749111
	C11183	C	0.846960	0.972577	0.738334
	N11184	N	0.764797	1.041750	0.952816
	N11185	N	0.818576	0.921942	0.952698
	N11186	N	0.806482	0.952731	0.547845
	N11187	N	0.860194	0.832866	0.548228
	N11188	N	0.806589	0.952862	0.953400
	N11189	N	0.860200	0.832755	0.952714
	N11190	N	0.764755	1.041734	0.547335
	N11191	N	0.818462	0.921843	0.548164
	N11192	N	0.805751	0.927613	0.704536
	N11193	N	0.868301	0.990158	0.703741
	N11194	N	0.756764	0.884822	0.797068
	N11195	N	0.819340	0.947047	0.797366
	N11196	N	0.756747	0.884779	0.702929
	N11197	N	0.819364	0.947016	0.703179
	N11198	N	0.805751	0.927656	0.798200
	N11199	N	0.868254	0.990305	0.797797
	H11200	H	0.896027	0.153566	0.350654
	H11201	H	0.949633	0.033868	0.352129
	H11202	H	0.925523	0.091454	0.150680
	H11203	H	0.978921	-0.028823	0.150636
	H11204	H	0.925523	0.091871	0.351990
	H11205	H	0.978812	-0.028791	0.350031
	H11206	H	0.896203	0.153990	0.151691
	H11207	H	0.949514	0.033221	0.150208
	H11208	H	0.923419	0.045497	0.103721
	H11209	H	0.985811	0.108582	0.102267
	H11210	H	0.889075	0.016642	0.399184
	H11211	H	0.951543	0.079599	0.397585
	H11212	H	0.889051	0.016879	0.103142
	H11213	H	0.951594	0.078861	0.103150
	H11214	H	0.923216	0.046524	0.399843
	H11215	H	0.986053	0.107719	0.398053
	H11216	H	0.905860	0.134015	0.502108
	H11217	H	0.958645	0.012425	0.460774
	H11218	H	0.916042	0.112352	-0.004618
	H11219	H	0.969300	-0.008488	-0.123438
	H11220	H	0.916030	0.112336	0.502441
	H11221	H	0.968788	-0.009275	0.461061
	H11222	H	0.905861	0.133842	-0.005361
	H11223	H	0.959131	0.013092	-0.123870
	H11224	H	0.912350	0.036077	0.342330
	H11225	H	0.974661	0.099263	0.235696
	H11226	H	0.900035	0.026563	0.162187
	H11227	H	0.962864	0.087903	0.264774
	H11228	H	0.900235	0.026020	0.343073
	H11229	H	0.962451	0.089471	0.235291
	H11230	H	0.912198	0.036596	0.161515
	H11231	H	0.975098	0.097739	0.264400
	Co11232	Co	1.000002	0.125048	0.124534
	Co11233	Co	0.937491	0.062449	0.125289
	Co11234	Co	0.875044	-0.000113	0.376089
	Co11235	Co	0.937481	0.062717	0.376477
	C11236	C	0.895128	0.155820	0.423935
	C11237	C	0.948689	0.035846	0.424795
	C11238	C	0.926432	0.089436	0.077921
	C11239	C	0.979841	-0.030864	0.077344
	C11240	C	0.926404	0.089734	0.424980
	C11241	C	0.979775	-0.030847	0.423360
	C11242	C	0.895200	0.155951	0.077972
	C11243	C	0.948603	0.035478	0.077063
	C11244	C	0.924598	0.046823	0.175698
	C11245	C	0.987053	0.109470	0.173987
	C11246	C	0.887899	0.015618	0.326881
	C11247	C	0.950378	0.078261	0.326239
	C11248	C	0.887892	0.015724	0.175105
	C11249	C	0.950408	0.077926	0.174601
	C11250	C	0.924485	0.047353	0.327653
	C11251	C	0.987177	0.109032	0.325753
	C11252	C	0.898902	0.148506	0.500959
	C11253	C	0.952145	0.027697	0.000683
	C11254	C	0.922867	0.097470	0.501560
	C11255	C	0.976142	-0.023297	0.000286
	C11256	C	0.920377	0.043156	0.251784
	C11257	C	0.982976	0.105304	0.250125
	C11258	C	0.892040	0.019558	0.251101
	C11259	C	0.954556	0.081931	0.250169
	C11260	C	0.905023	0.135666	0.501194
	C11261	C	0.958167	0.014653	0.000704
	C11262	C	0.916836	0.110520	0.501456
	C11263	C	0.970037	-0.010457	0.000440
	C11264	C	0.913225	0.037060	0.251775
	C11265	C	0.975786	0.099309	0.250458
	C11266	C	0.899218	0.025536	0.251874
	C11267	C	0.961737	0.087962	0.250171
	C11268	C	0.908063	0.129277	0.501665
	C11269	C	0.961032	0.007968	0.477979
	C11270	C	0.913842	0.116901	-0.001914
	C11271	C	0.967044	-0.003877	-0.069288
	C11272	C	0.913800	0.117029	0.501739
	C11273	C	0.966759	-0.004321	0.478330
	C11274	C	0.908069	0.129121	-0.002419
	C11275	C	0.961263	0.008326	-0.068920
	C11276	C	0.909710	0.034002	0.302890
	C11277	C	0.972080	0.096824	0.242089
	C11278	C	0.902751	0.028643	0.201272
	C11279	C	0.965435	0.090427	0.258503
	C11280	C	0.902857	0.028350	0.303025
	C11281	C	0.965198	0.091298	0.241872
	C11282	C	0.909613	0.034265	0.201026
	C11283	C	0.972317	0.095955	0.258532
	N11284	N	0.889749	0.166933	0.453048
	N11285	N	0.943533	0.047388	0.453739
	N11286	N	0.931562	0.077886	0.048458
	N11287	N	0.985223	-0.041931	0.047833
	N11288	N	0.931578	0.078199	0.453832
	N11289	N	0.985145	-0.041925	0.452825
	N11290	N	0.889786	0.166948	0.048443
	N11291	N	0.943486	0.047069	0.048221
	N11292	N	0.930732	0.052684	0.204116
	N11293	N	0.993212	0.115262	0.202443
	N11294	N	0.881734	0.009882	0.298337
	N11295	N	0.944251	0.072350	0.297635
	N11296	N	0.881742	0.009890	0.203808
	N11297	N	0.944280	0.072123	0.203552
	N11298	N	0.930653	0.053001	0.298738
	N11299	N	0.993282	0.115011	0.296709
	H11300	H	0.896077	0.153529	0.850305
	H11301	H	0.949646	0.033529	0.851294
	H11302	H	0.925452	0.091568	0.650843
	H11303	H	0.978780	-0.028840	0.651092
	H11304	H	0.925257	0.091540	0.853045
	H11305	H	0.978890	-0.028720	0.849160
	H11306	H	0.896381	0.154319	0.651535
	H11307	H	0.949554	0.033466	0.649380
	H11308	H	0.923335	0.046188	0.602033
	H11309	H	0.986024	0.107874	0.602852
	H11310	H	0.889226	0.016341	0.897749
	H11311	H	0.951507	0.079632	0.899653
	H11312	H	0.889050	0.016866	0.602711
	H11313	H	0.951688	0.078867	0.603668
	H11314	H	0.923573	0.045602	0.899574
	H11315	H	0.986070	0.107960	0.898292
	H11316	H	0.905871	0.133709	1.007494
	H11317	H	0.958838	0.012536	1.124975
	H11318	H	0.916050	0.112087	0.500889
	H11319	H	0.969525	-0.007873	0.539966
	H11320	H	0.916072	0.112162	1.008293
	H11321	H	0.969040	-0.009004	1.124897
	H11322	H	0.905869	0.133763	0.501156
	H11323	H	0.959409	0.013799	0.540166
	H11324	H	0.912119	0.037419	0.776977
	H11325	H	0.974733	0.099333	0.691049
	H11326	H	0.900495	0.024976	0.724672
	H11327	H	0.962942	0.087765	0.812420
	H11328	H	0.899935	0.027432	0.777054
	H11329	H	0.962532	0.089560	0.691424
	H11330	H	0.912662	0.034998	0.724698
	H11331	H	0.975158	0.097474	0.812122
	Co11332	Co	1.000027	0.124920	0.624103
	Co11333	Co	0.937569	0.062612	0.625419
	Co11334	Co	0.875061	0.000069	0.876287
	Co11335	Co	0.937530	0.062604	0.876409
	C11336	C	0.895140	0.155727	0.923867
	C11337	C	0.948670	0.035642	0.924313
	C11338	C	0.926386	0.089556	0.577832
	C11339	C	0.979769	-0.030864	0.577387
	C11340	C	0.926316	0.089439	0.925311
	C11341	C	0.979824	-0.030800	0.923241
	C11342	C	0.895308	0.156200	0.578086
	C11343	C	0.948641	0.035645	0.576830
	C11344	C	0.924571	0.047102	0.674444
	C11345	C	0.987195	0.109085	0.674781
	C11346	C	0.888004	0.015476	0.826333
	C11347	C	0.950392	0.078372	0.827512
	C11348	C	0.887942	0.015712	0.674834
	C11349	C	0.950497	0.077999	0.675680
	C11350	C	0.924693	0.046792	0.826937
	C11351	C	0.987218	0.109138	0.826406
	C11352	C	0.898866	0.148346	1.001092
	C11353	C	0.952179	0.027928	0.500716
	C11354	C	0.922893	0.097359	1.001864
	C11355	C	0.976099	-0.023281	0.500489
	C11356	C	0.920494	0.042947	0.750766
	C11357	C	0.983095	0.105153	0.750817
	C11358	C	0.892129	0.019490	0.750478
	C11359	C	0.954597	0.082052	0.751645
	C11360	C	0.905003	0.135556	1.001273
	C11361	C	0.958193	0.014890	0.500216
	C11362	C	0.916887	0.110382	1.001838
	C11363	C	0.969998	-0.010414	0.500499
	C11364	C	0.913329	0.036917	0.750774
	C11365	C	0.975917	0.099124	0.751562
	C11366	C	0.899285	0.025534	0.750620
	C11367	C	0.961800	0.087971	0.751863
	C11368	C	0.908096	0.129095	1.005016
	C11369	C	0.961135	0.008012	1.070359
	C11370	C	0.913816	0.116922	0.501275
	C11371	C	0.967160	-0.003530	0.522689
	C11372	C	0.913842	0.116830	1.005236
	C11373	C	0.966909	-0.004214	1.070286
	C11374	C	0.908072	0.129156	0.501074
	C11375	C	0.961430	0.008757	0.522521
	C11376	C	0.909578	0.034720	0.765565
	C11377	C	0.972177	0.096782	0.717719
	C11378	C	0.903035	0.027717	0.735884
	C11379	C	0.965525	0.090305	0.786231
	C11380	C	0.902725	0.029081	0.765603
	C11381	C	0.965285	0.091292	0.717810
	C11382	C	0.909901	0.033323	0.736398
	C11383	C	0.972423	0.095788	0.786147
	N11384	N	0.889767	0.166849	0.952793
	N11385	N	0.943531	0.047166	0.953174
	N11386	N	0.931544	0.078055	0.548394
	N11387	N	0.985149	-0.041908	0.548342
	N11388	N	0.931476	0.077871	0.953581
	N11389	N	0.985189	-0.041928	0.952385
	N11390	N	0.889864	0.167131	0.548665
	N11391	N	0.943519	0.047257	0.548073
	N11392	N	0.930725	0.052855	0.703129
	N11393	N	0.993296	0.115043	0.703063
	N11394	N	0.881869	0.009707	0.797649
	N11395	N	0.944269	0.072523	0.798566
	N11396	N	0.881812	0.009862	0.703744
	N11397	N	0.944334	0.072301	0.704259
	N11398	N	0.930802	0.052680	0.797860
	N11399	N	0.993293	0.115103	0.797493
	H11400	H	0.891515	0.237029	0.348142
	H11401	H	0.958718	0.216511	0.349150
	H11402	H	0.928800	0.254445	0.152173
	H11403	H	0.987922	0.154243	0.149054
	H11404	H	0.928810	0.254500	0.347760
	H11405	H	0.987905	0.154037	0.350267
	H11406	H	0.891492	0.236913	0.151725
	H11407	H	0.958553	0.216124	0.150743
	H11408	H	0.933336	0.220371	0.098331
	H11409	H	0.995800	0.283229	0.097193
	H11410	H	0.897106	0.196798	0.401341
	H11411	H	0.959576	0.259742	0.399422
	H11412	H	0.897043	0.197072	0.099283
	H11413	H	0.959561	0.259396	0.098419
	H11414	H	0.933331	0.220446	0.401977
	H11415	H	0.995926	0.282719	0.400665
	H11416	H	0.904172	0.240170	0.350265
	H11417	H	0.968580	0.196662	0.539809
	H11418	H	0.916599	0.248410	0.149884
	H11419	H	0.977484	0.172731	-0.056131
	H11420	H	0.916693	0.247711	0.349803
	H11421	H	0.978701	0.174954	0.540630
	H11422	H	0.904073	0.240862	0.149914
	H11423	H	0.967323	0.194435	-0.054963
	H11424	H	0.921837	0.210775	0.102615
	H11425	H	0.984384	0.273311	0.395982
	H11426	H	0.909342	0.202729	0.397516
	H11427	H	0.971844	0.265100	0.101217
	H11428	H	0.909163	0.203517	0.103240
	H11429	H	0.971679	0.266109	0.396419
	H11430	H	0.922026	0.209941	0.397248
	H11431	H	0.984504	0.272418	0.101283
	Co11432	Co	1.007816	0.306270	0.124075
	Co11433	Co	0.945332	0.243460	0.124380
	Co11434	Co	0.882806	0.180975	0.375627
	Co11435	Co	0.945367	0.243628	0.375208
	C11436	C	0.890201	0.237504	0.422831
	C11437	C	0.957737	0.218520	0.422544
	C11438	C	0.930153	0.254130	0.077401
	C11439	C	0.988866	0.152074	0.076170
	C11440	C	0.930207	0.254109	0.422210
	C11441	C	0.988849	0.151793	0.423143
	C11442	C	0.890177	0.237518	0.077466
	C11443	C	0.957601	0.218337	0.077079
	C11444	C	0.934336	0.221900	0.172416
	C11445	C	0.996796	0.284545	0.171358
	C11446	C	0.895848	0.196192	0.327418
	C11447	C	0.958323	0.258931	0.325747
	C11448	C	0.895834	0.196289	0.173161
	C11449	C	0.958340	0.258711	0.172080
	C11450	C	0.934337	0.221991	0.327397
	C11451	C	0.996832	0.284379	0.326024
	C11452	C	0.895053	0.237118	0.500513
	C11453	C	0.961355	0.210847	-0.000047
	C11454	C	0.925413	0.253344	0.499789
	C11455	C	0.985331	0.159920	-0.000524
	C11456	C	0.930324	0.217152	0.250027
	C11457	C	0.992847	0.279592	0.248584
	C11458	C	0.900366	0.198924	0.250284
	C11459	C	0.962845	0.261491	0.248832
	C11460	C	0.902929	0.240114	0.500445
	C11461	C	0.967500	0.198134	-0.000062
	C11462	C	0.917711	0.249273	0.499954
	C11463	C	0.979315	0.172925	-0.000560
	C11464	C	0.923015	0.211269	0.249933
	C11465	C	0.985541	0.273687	0.248549
	C11466	C	0.908075	0.202846	0.250217
	C11467	C	0.970597	0.265299	0.248677
	C11468	C	0.906809	0.242067	0.416726
	C11469	C	0.970665	0.191800	0.522458
	C11470	C	0.913896	0.246894	0.083162
	C11471	C	0.975724	0.178358	-0.031261
	C11472	C	0.913976	0.246458	0.416624
	C11473	C	0.976393	0.179486	0.522434
	C11474	C	0.906738	0.242476	0.083255
	C11475	C	0.969983	0.190663	-0.031063
	C11476	C	0.919173	0.209038	0.167966
	C11477	C	0.981689	0.271553	0.330822
	C11478	C	0.912020	0.204545	0.332309
	C11479	C	0.974523	0.266984	0.166438
	C11480	C	0.911930	0.204966	0.168156
	C11481	C	0.974457	0.267448	0.330921
	C11482	C	0.919258	0.208657	0.332025
	C11483	C	0.981760	0.271055	0.166465
	N11484	N	0.882950	0.238814	0.451407
	N11485	N	0.952336	0.229543	0.451942
	N11486	N	0.937372	0.254210	0.048887
	N11487	N	0.993984	0.140455	0.047136
	N11488	N	0.937415	0.254273	0.450798
	N11489	N	0.994002	0.140247	0.451826
	N11490	N	0.882915	0.238750	0.048797
	N11491	N	0.952248	0.229393	0.047427
	N11492	N	0.940017	0.229456	0.201664
	N11493	N	1.002475	0.292104	0.200681
	N11494	N	0.889215	0.192122	0.298649
	N11495	N	0.951673	0.254878	0.297463
	N11496	N	0.889195	0.192225	0.201984
	N11497	N	0.951700	0.254694	0.200963
	N11498	N	0.940007	0.229518	0.298100
	N11499	N	1.002515	0.291958	0.297135
	H11500	H	0.891473	0.236938	0.847591
	H11501	H	0.958815	0.216711	0.849120
	H11502	H	0.928790	0.254359	0.651773
	H11503	H	0.987865	0.153920	0.648354
	H11504	H	0.928790	0.254330	0.847738
	H11505	H	0.987821	0.154047	0.850286
	H11506	H	0.891521	0.236881	0.652628
	H11507	H	0.958517	0.215897	0.650054
	H11508	H	0.933282	0.220431	0.598712
	H11509	H	0.995779	0.283102	0.597237
	H11510	H	0.897104	0.196876	0.900963
	H11511	H	0.959555	0.259696	0.900203
	H11512	H	0.896968	0.197194	0.599701
	H11513	H	0.959520	0.259569	0.598303
	H11514	H	0.933367	0.220518	0.901968
	H11515	H	0.995848	0.283012	0.900283
	H11516	H	0.904023	0.240822	0.850030
	H11517	H	0.969413	0.198358	1.054352
	H11518	H	0.916554	0.248790	0.649977
	H11519	H	0.978242	0.173970	0.457720
	H11520	H	0.916598	0.248301	0.849746
	H11521	H	0.979510	0.176636	1.054044
	H11522	H	0.903989	0.241213	0.650501
	H11523	H	0.968118	0.195629	0.458279
	H11524	H	0.921770	0.211159	0.602947
	H11525	H	0.984502	0.272597	0.601720
	H11526	H	0.909395	0.202671	0.897444
	H11527	H	0.971683	0.266361	0.896700
	H11528	H	0.909150	0.203801	0.602904
	H11529	H	0.971810	0.265402	0.602413
	H11530	H	0.922070	0.210005	0.897382
	H11531	H	0.984405	0.273442	0.896525
	Co11532	Co	1.007827	0.306205	0.623864
	Co11533	Co	0.945314	0.243457	0.624576
	Co11534	Co	0.882838	0.180969	0.875620
	Co11535	Co	0.945370	0.243584	0.875019
	C11536	C	0.890166	0.237552	0.922294
	C11537	C	0.957730	0.218594	0.922841
	C11538	C	0.930201	0.254011	0.577423
	C11539	C	0.988827	0.151766	0.575550
	C11540	C	0.930156	0.254085	0.922264
	C11541	C	0.988805	0.151939	0.923112
	C11542	C	0.890183	0.237398	0.577853
	C11543	C	0.957642	0.218230	0.576652
	C11544	C	0.934296	0.222020	0.673141
	C11545	C	0.996806	0.284632	0.671611
	C11546	C	0.895885	0.196163	0.827477
	C11547	C	0.958321	0.258947	0.826360
	C11548	C	0.895814	0.196467	0.673612
	C11549	C	0.958309	0.258893	0.672274
	C11550	C	0.934364	0.221914	0.827834
	C11551	C	0.996819	0.284561	0.826135
	C11552	C	0.895016	0.237242	0.999759
	C11553	C	0.961398	0.210885	0.499407
	C11554	C	0.925376	0.253467	0.999708
	C11555	C	0.985307	0.159601	0.499357
	C11556	C	0.930343	0.217196	0.750522
	C11557	C	0.992817	0.279834	0.748960
	C11558	C	0.900364	0.198924	0.750550
	C11559	C	0.962838	0.261624	0.749342
	C11560	C	0.902900	0.240210	0.999731
	C11561	C	0.967509	0.198028	0.499332
	C11562	C	0.917665	0.249428	0.999724
	C11563	C	0.979299	0.172683	0.499236
	C11564	C	0.923021	0.211284	0.750296
	C11565	C	0.985505	0.273927	0.749104
	C11566	C	0.908080	0.202879	0.750372
	C11567	C	0.970577	0.265484	0.749463
	C11568	C	0.906742	0.242414	0.916312
	C11569	C	0.971106	0.192772	1.030630
	C11570	C	0.913903	0.246985	0.583561
	C11571	C	0.976155	0.178912	0.476184
	C11572	C	0.913889	0.246859	0.916375
	C11573	C	0.976867	0.180512	1.030270
	C11574	C	0.906730	0.242630	0.583923
	C11575	C	0.970418	0.191209	0.476120
	C11576	C	0.919129	0.209299	0.668348
	C11577	C	0.981730	0.271287	0.667096
	C11578	C	0.912068	0.204442	0.832278
	C11579	C	0.974433	0.267684	0.831448
	C11580	C	0.911901	0.205214	0.668152
	C11581	C	0.974500	0.267172	0.667382
	C11582	C	0.919287	0.208573	0.832292
	C11583	C	0.981668	0.271765	0.831419
	N11584	N	0.882913	0.238848	0.950976
	N11585	N	0.952333	0.229581	0.952119
	N11586	N	0.937414	0.254232	0.548968
	N11587	N	0.993996	0.140240	0.546644
	N11588	N	0.937369	0.254171	0.950702
	N11589	N	0.993931	0.140352	0.952313
	N11590	N	0.882930	0.238811	0.548990
	N11591	N	0.952270	0.229378	0.547646
	N11592	N	0.940006	0.229491	0.702268
	N11593	N	1.002501	0.292137	0.700865
	N11594	N	0.889217	0.192179	0.798858
	N11595	N	0.951682	0.254850	0.797513
	N11596	N	0.889188	0.192360	0.702075
	N11597	N	0.951680	0.254856	0.700991
	N11598	N	0.940055	0.229432	0.798372
	N11599	N	1.002508	0.292076	0.797127
	H11600	H	0.883749	0.308100	0.346855
	H11601	H	0.954027	0.299201	0.348167
	H11602	H	0.920971	0.325891	0.152139
	H11603	H	0.991315	0.317236	0.151626
	H11604	H	0.921016	0.325891	0.347836
	H11605	H	0.991311	0.316708	0.347008
	H11606	H	0.883750	0.308176	0.152413
	H11607	H	0.954019	0.299546	0.152312
	H11608	H	0.924771	0.291641	0.098447
	H11609	H	0.987165	0.354502	0.097565
	H11610	H	0.887742	0.270827	0.401711
	H11611	H	0.950267	0.333265	0.401939
	H11612	H	0.887784	0.270826	0.097898
	H11613	H	0.950135	0.333599	0.097995
	H11614	H	0.924673	0.291881	0.402480
	H11615	H	0.987289	0.354243	0.401844
	H11616	H	0.895984	0.313930	0.349309
	H11617	H	0.966672	0.302707	0.649872
	H11618	H	0.908474	0.321936	0.150541
	H11619	H	0.978952	0.311658	-0.150233
	H11620	H	0.908472	0.321602	0.349064
	H11621	H	0.979243	0.310424	0.649507
	H11622	H	0.895958	0.314351	0.150739
	H11623	H	0.966403	0.303898	-0.149509
	H11624	H	0.912637	0.284393	0.100184
	H11625	H	0.975087	0.347512	0.400000
	H11626	H	0.899894	0.277820	0.399597
	H11627	H	0.962421	0.340299	0.099386
	H11628	H	0.899803	0.278128	0.099154
	H11629	H	0.962269	0.341055	0.399661
	H11630	H	0.912664	0.284192	0.400556
	H11631	H	0.975235	0.346451	0.100132
	Co11632	Co	1.000043	0.374965	0.123838
	Co11633	Co	0.937494	0.312543	0.124502
	Co11634	Co	0.875017	0.249907	0.375628
	Co11635	Co	0.937479	0.312622	0.376137
	C11636	C	0.882358	0.308338	0.422034
	C11637	C	0.952645	0.299916	0.422526
	C11638	C	0.922367	0.325200	0.077619
	C11639	C	0.992670	0.316840	0.077091
	C11640	C	0.922357	0.325262	0.422453
	C11641	C	0.992674	0.316552	0.421675
	C11642	C	0.882341	0.308547	0.077750
	C11643	C	0.952667	0.300043	0.077859
	C11644	C	0.925833	0.292975	0.172912
	C11645	C	0.988294	0.355633	0.172475
	C11646	C	0.886652	0.269562	0.327336
	C11647	C	0.949165	0.332087	0.327143
	C11648	C	0.886677	0.269496	0.172307
	C11649	C	0.949128	0.332200	0.172441
	C11650	C	0.925770	0.293093	0.327805
	C11651	C	0.988366	0.355505	0.327340
	C11652	C	0.887156	0.309007	0.499822
	C11653	C	0.957544	0.299618	0.000406
	C11654	C	0.917474	0.325434	0.499826
	C11655	C	0.987873	0.316003	-0.000226
	C11656	C	0.921506	0.289294	0.250090
	C11657	C	0.984019	0.351870	0.250202
	C11658	C	0.890979	0.273212	0.249765
	C11659	C	0.953456	0.335897	0.249937
	C11660	C	0.894861	0.313024	0.499943
	C11661	C	0.965411	0.302639	0.000207
	C11662	C	0.909616	0.322405	0.499657
	C11663	C	0.980168	0.311983	-0.000123
	C11664	C	0.913863	0.284821	0.250013
	C11665	C	0.976369	0.347430	0.250231
	C11666	C	0.898647	0.277584	0.249439
	C11667	C	0.961118	0.340270	0.249715
	C11668	C	0.898646	0.315548	0.416253
	C11669	C	0.969304	0.304636	0.583258
	C11670	C	0.905842	0.320200	0.083760
	C11671	C	0.976326	0.309751	-0.083550
	C11672	C	0.905791	0.320063	0.415986
	C11673	C	0.976468	0.309097	0.583091
	C11674	C	0.898670	0.315782	0.083885
	C11675	C	0.969166	0.305262	-0.083369
	C11676	C	0.909882	0.283004	0.166746
	C11677	C	0.972388	0.345880	0.333503
	C11678	C	0.902614	0.279328	0.332884
	C11679	C	0.965090	0.341883	0.166353
	C11680	C	0.902544	0.279461	0.166045
	C11681	C	0.965037	0.342328	0.333018
	C11682	C	0.909950	0.282878	0.333628
	C11683	C	0.972459	0.345329	0.166860
	N11684	N	0.875125	0.308272	0.450712
	N11685	N	0.945393	0.301338	0.451608
	N11686	N	0.929623	0.323755	0.048743
	N11687	N	0.999886	0.316932	0.048354
	N11688	N	0.929595	0.323956	0.451361
	N11689	N	0.999881	0.316698	0.450169
	N11690	N	0.875137	0.308422	0.049001
	N11691	N	0.945436	0.301269	0.049470
	N11692	N	0.931993	0.299068	0.201967
	N11693	N	0.994506	0.361565	0.201087
	N11694	N	0.880449	0.263567	0.298106
	N11695	N	0.942986	0.326076	0.298507
	N11696	N	0.880470	0.263569	0.201225
	N11697	N	0.942952	0.326134	0.201460
	N11698	N	0.931963	0.299121	0.298990
	N11699	N	0.994530	0.361535	0.298325
	H11700	H	0.883734	0.308485	0.848561
	H11701	H	0.954027	0.299118	0.848256
	H11702	H	0.920956	0.325470	0.651724
	H11703	H	0.991290	0.316977	0.651444
	H11704	H	0.921025	0.325636	0.847915
	H11705	H	0.991309	0.316690	0.847616
	H11706	H	0.883745	0.307949	0.651721
	H11707	H	0.954061	0.299747	0.652024
	H11708	H	0.924743	0.291824	0.597996
	H11709	H	0.987143	0.354561	0.597801
	H11710	H	0.887712	0.271040	0.902760
	H11711	H	0.950441	0.333138	0.902027
	H11712	H	0.887746	0.270977	0.598728
	H11713	H	0.950146	0.333673	0.598479
	H11714	H	0.924847	0.291422	0.901764
	H11715	H	0.987372	0.353862	0.901676
	H11716	H	0.895965	0.314133	0.849871
	H11717	H	0.966679	0.302637	1.149744
	H11718	H	0.908406	0.322043	0.649832
	H11719	H	0.979010	0.311369	0.349430
	H11720	H	0.908462	0.321791	0.849679
	H11721	H	0.979241	0.310243	1.149624
	H11722	H	0.895909	0.314300	0.650148
	H11723	H	0.966446	0.303723	0.349775
	H11724	H	0.912775	0.284196	0.900062
	H11725	H	0.975308	0.346263	0.599202
	H11726	H	0.899874	0.278228	0.600299
	H11727	H	0.962245	0.341338	0.899744
	H11728	H	0.899918	0.278211	0.901454
	H11729	H	0.962483	0.339997	0.599867
	H11730	H	0.912679	0.284519	0.599710
	H11731	H	0.975072	0.347680	0.899191
	Co11732	Co	0.999929	0.375319	0.623612
	Co11733	Co	0.937495	0.312647	0.624697
	Co11734	Co	0.875042	0.250139	0.875609
	Co11735	Co	0.937567	0.312452	0.876581
	C11736	C	0.882360	0.308665	0.922663
	C11737	C	0.952672	0.299768	0.922867
	C11738	C	0.922341	0.325092	0.577372
	C11739	C	0.992666	0.316636	0.576861
	C11740	C	0.922381	0.325098	0.922200
	C11741	C	0.992666	0.316553	0.921863
	C11742	C	0.882344	0.308350	0.577438
	C11743	C	0.952670	0.300166	0.577413
	C11744	C	0.925846	0.293029	0.672630
	C11745	C	0.988297	0.355712	0.672027
	C11746	C	0.886661	0.269697	0.828014
	C11747	C	0.949269	0.331919	0.827649
	C11748	C	0.886695	0.269640	0.673192
	C11749	C	0.949123	0.332236	0.673113
	C11750	C	0.925899	0.292875	0.827488
	C11751	C	0.988412	0.355348	0.826942
	C11752	C	0.887152	0.309254	1.000362
	C11753	C	0.957538	0.299704	0.499863
	C11754	C	0.917490	0.325548	0.999838
	C11755	C	0.987876	0.315915	0.499288
	C11756	C	0.921574	0.289227	0.750110
	C11757	C	0.984056	0.351729	0.749549
	C11758	C	0.890994	0.273404	0.750747
	C11759	C	0.953512	0.335808	0.750130
	C11760	C	0.894869	0.313241	1.000357
	C11761	C	0.965416	0.302629	0.499874
	C11762	C	0.909643	0.322512	1.000044
	C11763	C	0.980184	0.311901	0.499510
	C11764	C	0.913916	0.284797	0.750060
	C11765	C	0.976391	0.347312	0.749433
	C11766	C	0.898662	0.277715	0.750898
	C11767	C	0.961164	0.340196	0.749763
	C11768	C	0.898634	0.315767	0.916572
	C11769	C	0.969314	0.304546	1.083406
	C11770	C	0.905762	0.320239	0.583178
	C11771	C	0.976357	0.309552	0.416104
	C11772	C	0.905802	0.320231	0.916595
	C11773	C	0.976483	0.308981	1.083168
	C11774	C	0.898607	0.315735	0.583383
	C11775	C	0.969178	0.305156	0.416323
	C11776	C	0.909979	0.282935	0.833616
	C11777	C	0.972530	0.345124	0.665968
	C11778	C	0.902616	0.279526	0.667277
	C11779	C	0.965015	0.342513	0.833038
	C11780	C	0.902612	0.279544	0.834216
	C11781	C	0.965168	0.341669	0.666328
	C11782	C	0.909968	0.283047	0.666591
	C11783	C	0.972367	0.345987	0.832716
	N11784	N	0.875151	0.308519	0.950965
	N11785	N	0.945431	0.301107	0.951735
	N11786	N	0.929577	0.323855	0.548921
	N11787	N	0.999869	0.316761	0.548322
	N11788	N	0.929631	0.323728	0.951275
	N11789	N	0.999887	0.316757	0.950233
	N11790	N	0.875120	0.308280	0.548956
	N11791	N	0.945413	0.301414	0.549110
	N11792	N	0.932048	0.299024	0.701670
	N11793	N	0.994500	0.361702	0.700966
	N11794	N	0.880475	0.263733	0.798950
	N11795	N	0.943046	0.325992	0.799338
	N11796	N	0.880488	0.263688	0.701694
	N11797	N	0.942954	0.326199	0.702225
	N11798	N	0.932082	0.298933	0.798426
	N11799	N	0.994564	0.361491	0.797862
	H11800	H	0.887184	0.471352	0.349431
	H11801	H	0.946128	0.370353	0.347750
	H11802	H	0.916318	0.408742	0.151038
	H11803	H	0.983473	0.388366	0.151188
	H11804	H	0.916212	0.408404	0.349410
	H11805	H	0.983384	0.388222	0.347090
	H11806	H	0.887205	0.471295	0.149163
	H11807	H	0.946221	0.371028	0.152318
	H11808	H	0.915492	0.365603	0.099153
	H11809	H	0.978014	0.427958	0.098793
	H11810	H	0.879203	0.341868	0.401812
	H11811	H	0.941656	0.404762	0.402538
	H11812	H	0.879107	0.342305	0.098795
	H11813	H	0.941604	0.404985	0.099368
	H11814	H	0.915548	0.365306	0.400329
	H11815	H	0.977994	0.427967	0.399630
	H11816	H	0.896859	0.451391	0.588233
	H11817	H	0.958509	0.375922	0.649918
	H11818	H	0.906846	0.429220	0.050376
	H11819	H	0.971081	0.384077	0.148957
	H11820	H	0.907033	0.429844	0.587719
	H11821	H	0.971038	0.383617	0.649778
	H11822	H	0.896702	0.450908	0.049863
	H11823	H	0.958519	0.376440	0.149458
	H11824	H	0.903240	0.359548	0.102138
	H11825	H	0.965910	0.420857	0.102239
	H11826	H	0.890598	0.352182	0.397964
	H11827	H	0.953009	0.415525	0.398404
	H11828	H	0.890552	0.352424	0.101911
	H11829	H	0.953158	0.413935	0.102985
	H11830	H	0.903302	0.359375	0.398114
	H11831	H	0.965701	0.422628	0.397248
	Co11832	Co	0.992226	0.443990	0.124449
	Co11833	Co	0.929654	0.381728	0.125125
	Co11834	Co	0.867195	0.319041	0.375282
	Co11835	Co	0.929654	0.381608	0.375726
	C11836	C	0.886217	0.473290	0.422842
	C11837	C	0.944776	0.370834	0.422664
	C11838	C	0.917294	0.406722	0.077246
	C11839	C	0.984868	0.387668	0.076641
	C11840	C	0.917244	0.406582	0.423098
	C11841	C	0.984765	0.387691	0.421639
	C11842	C	0.886189	0.473279	0.076341
	C11843	C	0.944813	0.371263	0.077812
	C11844	C	0.916698	0.366315	0.172929
	C11845	C	0.979235	0.428619	0.172406
	C11846	C	0.878240	0.340497	0.327398
	C11847	C	0.940698	0.403153	0.328104
	C11848	C	0.878165	0.340738	0.172804
	C11849	C	0.940668	0.403262	0.173408
	C11850	C	0.916730	0.366184	0.326869
	C11851	C	0.979218	0.428599	0.326126
	C11852	C	0.889639	0.465299	0.499102
	C11853	C	0.949625	0.371802	0.000274
	C11854	C	0.913631	0.414296	0.499676
	C11855	C	0.979989	0.387885	-0.000910
	C11856	C	0.912201	0.363620	0.249964
	C11857	C	0.974735	0.425838	0.249112
	C11858	C	0.882212	0.345437	0.250234
	C11859	C	0.944657	0.408045	0.250765
	C11860	C	0.895649	0.452233	0.499172
	C11861	C	0.957339	0.375734	-0.000235
	C11862	C	0.907469	0.427056	0.499609
	C11863	C	0.972139	0.384886	-0.000795
	C11864	C	0.904470	0.359750	0.250258
	C11865	C	0.966964	0.422112	0.249547
	C11866	C	0.889513	0.351395	0.250134
	C11867	C	0.952000	0.413864	0.250553
	C11868	C	0.898913	0.446270	0.549269
	C11869	C	0.961144	0.377748	0.583176
	C11870	C	0.904541	0.433707	0.028067
	C11871	C	0.968359	0.382481	0.082632
	C11872	C	0.904647	0.434032	0.549239
	C11873	C	0.968296	0.382199	0.583289
	C11874	C	0.898796	0.445965	0.027998
	C11875	C	0.961178	0.378102	0.082878
	C11876	C	0.900529	0.357965	0.167563
	C11877	C	0.963107	0.419761	0.167630
	C11878	C	0.893333	0.353740	0.332516
	C11879	C	0.955762	0.416660	0.332648
	C11880	C	0.893294	0.353872	0.167553
	C11881	C	0.955867	0.415752	0.168194
	C11882	C	0.900577	0.357792	0.332606
	C11883	C	0.963014	0.420663	0.332133
	N11884	N	0.881069	0.484837	0.452002
	N11885	N	0.937544	0.370801	0.451377
	N11886	N	0.922728	0.395771	0.048052
	N11887	N	0.992128	0.386258	0.047985
	N11888	N	0.922658	0.395605	0.452462
	N11889	N	0.992027	0.386515	0.450215
	N11890	N	0.881015	0.484801	0.047547
	N11891	N	0.937605	0.371124	0.049647
	N11892	N	0.923348	0.370356	0.201470
	N11893	N	0.985884	0.432623	0.201066
	N11894	N	0.872528	0.333084	0.298142
	N11895	N	0.934984	0.395661	0.298686
	N11896	N	0.872489	0.333217	0.202073
	N11897	N	0.934977	0.395740	0.202469
	N11898	N	0.923353	0.370341	0.298264
	N11899	N	0.985874	0.432644	0.297566
	H11900	H	0.887015	0.470910	0.851173
	H11901	H	0.946146	0.370623	0.848284
	H11902	H	0.916505	0.409132	0.650028
	H11903	H	0.983446	0.388460	0.651492
	H11904	H	0.916439	0.409022	0.849827
	H11905	H	0.983544	0.388024	0.846696
	H11906	H	0.886972	0.470697	0.649124
	H11907	H	0.946158	0.370846	0.652227
	H11908	H	0.915452	0.365683	0.599636
	H11909	H	0.978057	0.427881	0.599343
	H11910	H	0.879166	0.342325	0.901898
	H11911	H	0.941705	0.404908	0.902156
	H11912	H	0.879358	0.341819	0.598114
	H11913	H	0.941731	0.404694	0.598710
	H11914	H	0.915537	0.365598	0.901058
	H11915	H	0.978068	0.428084	0.900148
	H11916	H	0.896162	0.449907	0.949432
	H11917	H	0.958333	0.377296	0.849512
	H11918	H	0.906206	0.427782	0.410423
	H11919	H	0.970740	0.385145	0.350202
	H11920	H	0.906346	0.428266	0.949841
	H11921	H	0.970822	0.384853	0.848999
	H11922	H	0.896048	0.449409	0.410767
	H11923	H	0.958177	0.377526	0.349809
	H11924	H	0.903322	0.359448	0.602443
	H11925	H	0.965935	0.421045	0.602520
	H11926	H	0.890648	0.352189	0.897987
	H11927	H	0.953051	0.415315	0.897531
	H11928	H	0.890685	0.352167	0.602555
	H11929	H	0.953274	0.413888	0.602690
	H11930	H	0.903300	0.359505	0.898035
	H11931	H	0.965697	0.422603	0.897412
	Co11932	Co	0.992273	0.444057	0.623983
	Co11933	Co	0.929652	0.381711	0.625069
	Co11934	Co	0.867176	0.319162	0.875264
	Co11935	Co	0.929715	0.381738	0.875476
	C11936	C	0.886104	0.473087	0.923913
	C11937	C	0.944804	0.371077	0.922687
	C11938	C	0.917389	0.406944	0.576701
	C11939	C	0.984789	0.387756	0.576810
	C11940	C	0.917360	0.406825	0.923091
	C11941	C	0.984866	0.387474	0.921324
	C11942	C	0.886097	0.472967	0.575785
	C11943	C	0.944798	0.371080	0.577719
	C11944	C	0.916717	0.366353	0.673238
	C11945	C	0.979292	0.428671	0.672795
	C11946	C	0.878211	0.340736	0.827272
	C11947	C	0.940766	0.403200	0.827821
	C11948	C	0.878326	0.340459	0.672716
	C11949	C	0.940775	0.403096	0.673039
	C11950	C	0.916748	0.366351	0.827159
	C11951	C	0.979264	0.428788	0.826335
	C11952	C	0.889616	0.465322	1.000088
	C11953	C	0.949583	0.371583	0.500061
	C11954	C	0.913602	0.414195	1.000067
	C11955	C	0.979920	0.387943	0.499417
	C11956	C	0.912235	0.363603	0.750401
	C11957	C	0.974757	0.425999	0.749610
	C11958	C	0.882258	0.345368	0.750217
	C11959	C	0.944763	0.407923	0.750321
	C11960	C	0.895613	0.452224	0.999854
	C11961	C	0.957283	0.375611	0.499813
	C11962	C	0.907450	0.427003	0.999930
	C11963	C	0.972043	0.384869	0.499891
	C11964	C	0.904516	0.359722	0.750401
	C11965	C	0.967041	0.422059	0.749906
	C11966	C	0.889567	0.351302	0.750414
	C11967	C	0.952092	0.413707	0.750154
	C11968	C	0.898515	0.445434	0.971601
	C11969	C	0.961056	0.378594	0.916212
	C11970	C	0.904182	0.432906	0.449914
	C11971	C	0.968121	0.383072	0.416476
	C11972	C	0.904251	0.433163	0.971639
	C11973	C	0.968223	0.382942	0.915872
	C11974	C	0.898451	0.445161	0.449468
	C11975	C	0.960944	0.378697	0.416558
	C11976	C	0.900625	0.357826	0.668063
	C11977	C	0.963196	0.419767	0.667836
	C11978	C	0.893370	0.353747	0.832684
	C11979	C	0.955835	0.416536	0.832479
	C11980	C	0.893394	0.353732	0.668038
	C11981	C	0.955963	0.415688	0.667898
	C11982	C	0.900596	0.357842	0.832616
	C11983	C	0.963077	0.420600	0.832268
	N11984	N	0.880964	0.484674	0.952698
	N11985	N	0.937600	0.370996	0.951381
	N11986	N	0.922753	0.395848	0.547702
	N11987	N	0.992026	0.386582	0.547953
	N11988	N	0.922766	0.395811	0.952579
	N11989	N	0.992106	0.386133	0.950500
	N11990	N	0.880982	0.484634	0.547086
	N11991	N	0.937577	0.370969	0.549600
	N11992	N	0.923346	0.370471	0.701984
	N11993	N	0.985926	0.432725	0.701154
	N11994	N	0.872538	0.333149	0.798099
	N11995	N	0.935039	0.395732	0.798511
	N11996	N	0.872580	0.333082	0.701652
	N11997	N	0.935051	0.395669	0.702283
	N11998	N	0.923370	0.370463	0.798622
	N11999	N	0.985901	0.432791	0.797684
	H12000	H	0.896038	0.653932	0.349373
	H12001	H	0.949876	0.533850	0.350424
	H12002	H	0.925294	0.591420	0.148409
	H12003	H	0.978819	0.471111	0.150040
	H12004	H	0.925339	0.591538	0.350058
	H12005	H	0.978773	0.470986	0.348467
	H12006	H	0.895957	0.653597	0.150926
	H12007	H	0.949599	0.533355	0.148541
	H12008	H	0.923428	0.545914	0.101393
	H12009	H	0.985821	0.608201	0.102475
	H12010	H	0.889031	0.516876	0.397806
	H12011	H	0.951463	0.579248	0.397896
	H12012	H	0.889021	0.516870	0.101355
	H12013	H	0.951530	0.579306	0.102066
	H12014	H	0.923601	0.545131	0.396539
	H12015	H	0.985868	0.608226	0.399235
	H12016	H	0.906053	0.634313	0.492284
	H12017	H	0.959247	0.513219	0.516075
	H12018	H	0.916419	0.613240	-0.046101
	H12019	H	0.969194	0.491109	-0.055376
	H12020	H	0.916213	0.612696	0.492278
	H12021	H	0.969329	0.491427	0.516082
	H12022	H	0.906241	0.634863	-0.045939
	H12023	H	0.959078	0.512807	-0.055288
	H12024	H	0.912800	0.534253	0.239768
	H12025	H	0.974424	0.600060	0.254411
	H12026	H	0.899776	0.528119	0.258142
	H12027	H	0.963046	0.587168	0.246544
	H12028	H	0.900572	0.524475	0.239346
	H12029	H	0.962201	0.590263	0.254816
	H12030	H	0.912021	0.537903	0.257933
	H12031	H	0.975246	0.597093	0.247236
	Co12032	Co	0.999994	0.624897	0.124456
	Co12033	Co	0.937487	0.562399	0.123928
	Co12034	Co	0.874981	0.500172	0.375278
	Co12035	Co	0.937453	0.562459	0.374836
	C12036	C	0.895132	0.655967	0.423240
	C12037	C	0.948793	0.535753	0.423211
	C12038	C	0.926298	0.589316	0.075912
	C12039	C	0.979799	0.468983	0.076208
	C12040	C	0.926305	0.589431	0.423100
	C12041	C	0.979778	0.468997	0.422230
	C12042	C	0.895095	0.655772	0.077061
	C12043	C	0.948690	0.535507	0.075758
	C12044	C	0.924598	0.546834	0.173430
	C12045	C	0.987064	0.609317	0.174674
	C12046	C	0.887880	0.515838	0.325593
	C12047	C	0.950330	0.578151	0.325788
	C12048	C	0.887863	0.515815	0.173708
	C12049	C	0.950355	0.578226	0.174088
	C12050	C	0.924675	0.546515	0.324906
	C12051	C	0.987081	0.609313	0.326977
	C12052	C	0.898841	0.648460	0.500256
	C12053	C	0.952215	0.527702	-0.000462
	C12054	C	0.922802	0.597291	0.499985
	C12055	C	0.976143	0.476529	-0.000588
	C12056	C	0.920477	0.542845	0.249069
	C12057	C	0.982929	0.605385	0.250917
	C12058	C	0.892021	0.519692	0.249427
	C12059	C	0.954530	0.581985	0.250358
	C12060	C	0.904932	0.635578	0.500208
	C12061	C	0.958204	0.514613	-0.000321
	C12062	C	0.916765	0.610308	0.500254
	C12063	C	0.970012	0.489362	-0.000394
	C12064	C	0.913303	0.536828	0.249102
	C12065	C	0.975745	0.599373	0.250918
	C12066	C	0.899218	0.525598	0.249239
	C12067	C	0.961709	0.587988	0.250706
	C12068	C	0.908133	0.629324	0.495686
	C12069	C	0.961369	0.508400	0.508924
	C12070	C	0.914012	0.617399	-0.025956
	C12071	C	0.966995	0.495822	-0.031143
	C12072	C	0.913896	0.617091	0.495903
	C12073	C	0.967101	0.496107	0.508871
	C12074	C	0.908250	0.629651	-0.025681
	C12075	C	0.961253	0.508086	-0.031124
	C12076	C	0.909935	0.532932	0.243708
	C12077	C	0.971934	0.597323	0.253103
	C12078	C	0.902600	0.529478	0.254021
	C12079	C	0.965536	0.590059	0.248423
	C12080	C	0.903051	0.527429	0.243787
	C12081	C	0.965058	0.591756	0.253061
	C12082	C	0.909495	0.534961	0.254129
	C12083	C	0.972413	0.595623	0.248656
	N12084	N	0.889737	0.667030	0.452198
	N12085	N	0.943588	0.547172	0.452078
	N12086	N	0.931431	0.577737	0.047057
	N12087	N	0.985186	0.457903	0.047336
	N12088	N	0.931420	0.577827	0.451937
	N12089	N	0.985193	0.457964	0.451248
	N12090	N	0.889721	0.666874	0.048037
	N12091	N	0.943537	0.547076	0.046759
	N12092	N	0.930749	0.552567	0.202408
	N12093	N	0.993215	0.615106	0.203219
	N12094	N	0.881718	0.510069	0.297047
	N12095	N	0.944174	0.572389	0.296608
	N12096	N	0.881729	0.510008	0.202800
	N12097	N	0.944185	0.572426	0.202447
	N12098	N	0.930790	0.552389	0.296309
	N12099	N	0.993215	0.615135	0.297735
	H12100	H	0.896121	0.653986	0.849470
	H12101	H	0.949626	0.533365	0.850207
	H12102	H	0.925372	0.591442	0.649608
	H12103	H	0.978960	0.471321	0.650269
	H12104	H	0.925486	0.591796	0.850498
	H12105	H	0.978876	0.471262	0.848716
	H12106	H	0.896173	0.654061	0.650913
	H12107	H	0.949540	0.533333	0.649086
	H12108	H	0.923301	0.546150	0.602636
	H12109	H	0.985961	0.608314	0.602240
	H12110	H	0.889149	0.516414	0.898454
	H12111	H	0.951533	0.579420	0.897747
	H12112	H	0.889017	0.517045	0.602520
	H12113	H	0.951658	0.578965	0.601291
	H12114	H	0.923601	0.545533	0.898919
	H12115	H	0.986054	0.607973	0.898474
	H12116	H	0.905381	0.632691	1.045910
	H12117	H	0.959009	0.512925	1.054460
	H12118	H	0.915666	0.611621	0.507947
	H12119	H	0.969084	0.491001	0.483417
	H12120	H	0.915499	0.611038	1.045254
	H12121	H	0.969119	0.491196	1.055048
	H12122	H	0.905444	0.633123	0.507927
	H12123	H	0.958988	0.512719	0.482839
	H12124	H	0.911698	0.538907	0.824963
	H12125	H	0.974682	0.599378	0.846761
	H12126	H	0.900887	0.523472	0.676656
	H12127	H	0.962827	0.588264	0.652703
	H12128	H	0.899491	0.529043	0.824748
	H12129	H	0.962476	0.589586	0.846706
	H12130	H	0.913051	0.533358	0.677350
	H12131	H	0.975088	0.597945	0.653105
	Co12132	Co	1.000035	0.624977	0.624797
	Co12133	Co	0.937526	0.562404	0.623835
	Co12134	Co	0.874984	0.500028	0.875121
	Co12135	Co	0.937516	0.562407	0.875051
	C12136	C	0.895152	0.655973	0.923105
	C12137	C	0.948708	0.535510	0.923217
	C12138	C	0.926307	0.589353	0.576315
	C12139	C	0.979886	0.469157	0.576261
	C12140	C	0.926395	0.589464	0.923342
	C12141	C	0.979835	0.469086	0.922384
	C12142	C	0.895194	0.656034	0.577125
	C12143	C	0.948650	0.535488	0.575990
	C12144	C	0.924543	0.546991	0.674503
	C12145	C	0.987147	0.609296	0.674316
	C12146	C	0.887941	0.515538	0.826049
	C12147	C	0.950393	0.578244	0.825441
	C12148	C	0.887874	0.515823	0.674476
	C12149	C	0.950445	0.578008	0.673536
	C12150	C	0.924666	0.546723	0.826359
	C12151	C	0.987200	0.609115	0.826372
	C12152	C	0.898833	0.648358	1.000047
	C12153	C	0.952243	0.527737	0.499487
	C12154	C	0.922843	0.597281	0.999752
	C12155	C	0.976146	0.476577	0.499378
	C12156	C	0.920452	0.542942	0.750607
	C12157	C	0.982998	0.605311	0.750307
	C12158	C	0.892051	0.519574	0.750450
	C12159	C	0.954577	0.582091	0.749642
	C12160	C	0.904957	0.635533	1.000109
	C12161	C	0.958290	0.514754	0.499466
	C12162	C	0.916817	0.610300	0.999739
	C12163	C	0.970067	0.489493	0.499621
	C12164	C	0.913276	0.536917	0.750964
	C12165	C	0.975817	0.599381	0.750386
	C12166	C	0.899250	0.525480	0.750701
	C12167	C	0.961742	0.588135	0.749777
	C12168	C	0.907761	0.628466	1.025503
	C12169	C	0.961206	0.508121	1.030418
	C12170	C	0.913571	0.616523	0.504664
	C12171	C	0.966938	0.495815	0.490109
	C12172	C	0.913522	0.616226	1.025389
	C12173	C	0.966942	0.495857	1.030508
	C12174	C	0.907813	0.628779	0.504668
	C12175	C	0.961231	0.508155	0.490256
	C12176	C	0.909323	0.535503	0.792668
	C12177	C	0.972118	0.596909	0.804697
	C12178	C	0.903231	0.526850	0.709179
	C12179	C	0.965426	0.590647	0.695547
	C12180	C	0.902452	0.529913	0.792556
	C12181	C	0.965219	0.591432	0.804341
	C12182	C	0.910090	0.532436	0.709421
	C12183	C	0.972340	0.596106	0.695656
	N12184	N	0.889766	0.666987	0.952449
	N12185	N	0.943556	0.547061	0.951830
	N12186	N	0.931426	0.577777	0.547150
	N12187	N	0.985260	0.458051	0.546931
	N12188	N	0.931480	0.577802	0.951922
	N12189	N	0.985223	0.457997	0.951585
	N12190	N	0.889770	0.667069	0.547726
	N12191	N	0.943514	0.547011	0.546961
	N12192	N	0.930708	0.552719	0.702640
	N12193	N	0.993320	0.614999	0.703215
	N12194	N	0.881782	0.509757	0.797087
	N12195	N	0.944275	0.572350	0.796390
	N12196	N	0.881749	0.509919	0.703028
	N12197	N	0.944316	0.572201	0.702221
	N12198	N	0.930766	0.552623	0.796896
	N12199	N	0.993347	0.614893	0.797476
	H12200	H	0.891542	0.737077	0.347857
	H12201	H	0.958624	0.716396	0.349875
	H12202	H	0.928811	0.754309	0.153482
	H12203	H	0.987821	0.654023	0.149002
	H12204	H	0.928754	0.754375	0.348713
	H12205	H	0.988016	0.654142	0.350746
	H12206	H	0.891493	0.736903	0.153237
	H12207	H	0.958596	0.716112	0.150658
	H12208	H	0.933409	0.719911	0.099346
	H12209	H	0.995728	0.782801	0.099875
	H12210	H	0.896921	0.697202	0.401319
	H12211	H	0.959453	0.759615	0.401391
	H12212	H	0.896991	0.696965	0.098990
	H12213	H	0.959653	0.758958	0.099842
	H12214	H	0.933164	0.720617	0.402163
	H12215	H	0.995830	0.782831	0.402528
	H12216	H	0.903992	0.740888	0.350181
	H12217	H	0.968541	0.696707	0.575905
	H12218	H	0.916638	0.748060	0.151342
	H12219	H	0.978586	0.674914	0.000751
	H12220	H	0.916562	0.748370	0.349965
	H12221	H	0.978720	0.675117	0.575417
	H12222	H	0.904127	0.740457	0.151853
	H12223	H	0.968375	0.696508	-0.000121
	H12224	H	0.921921	0.709993	0.103299
	H12225	H	0.984418	0.772686	0.103882
	H12226	H	0.909097	0.703607	0.398415
	H12227	H	0.971623	0.765781	0.398499
	H12228	H	0.909243	0.702810	0.102854
	H12229	H	0.971761	0.765378	0.103368
	H12230	H	0.921767	0.710675	0.398683
	H12231	H	0.984260	0.773160	0.398895
	Co12232	Co	1.007780	0.805808	0.125347
	Co12233	Co	0.945277	0.743246	0.125127
	Co12234	Co	0.882762	0.681158	0.375540
	Co12235	Co	0.945274	0.743491	0.375985
	C12236	C	0.890175	0.737379	0.422506
	C12237	C	0.957640	0.718391	0.423597
	C12238	C	0.930186	0.753978	0.078688
	C12239	C	0.988804	0.651860	0.076467
	C12240	C	0.930121	0.754031	0.423004
	C12241	C	0.988886	0.651984	0.423924
	C12242	C	0.890159	0.737451	0.078700
	C12243	C	0.957662	0.718219	0.076869
	C12244	C	0.934310	0.721625	0.173342
	C12245	C	0.996719	0.784399	0.174118
	C12246	C	0.895713	0.696515	0.327348
	C12247	C	0.958247	0.758776	0.327494
	C12248	C	0.895738	0.696378	0.173230
	C12249	C	0.958326	0.758448	0.173351
	C12250	C	0.934257	0.721844	0.327898
	C12251	C	0.996803	0.784351	0.328584
	C12252	C	0.895025	0.736934	0.500363
	C12253	C	0.961339	0.710789	-0.000451
	C12254	C	0.925351	0.753310	0.500712
	C12255	C	0.985312	0.659705	0.000059
	C12256	C	0.930294	0.716933	0.250736
	C12257	C	0.992757	0.779608	0.251625
	C12258	C	0.900241	0.699058	0.250317
	C12259	C	0.962788	0.761324	0.250451
	C12260	C	0.902897	0.739981	0.500682
	C12261	C	0.967466	0.697957	-0.000673
	C12262	C	0.917668	0.749239	0.500720
	C12263	C	0.979289	0.672739	-0.000022
	C12264	C	0.922970	0.711085	0.250824
	C12265	C	0.985428	0.773759	0.251655
	C12266	C	0.907993	0.702871	0.250584
	C12267	C	0.970511	0.765267	0.250817
	C12268	C	0.906700	0.742393	0.416904
	C12269	C	0.970647	0.691868	0.542622
	C12270	C	0.913918	0.746625	0.084651
	C12271	C	0.976321	0.679420	0.000558
	C12272	C	0.913872	0.746765	0.417022
	C12273	C	0.976414	0.679625	0.542528
	C12274	C	0.906751	0.742234	0.084928
	C12275	C	0.970572	0.691662	-0.000257
	C12276	C	0.919172	0.708588	0.168555
	C12277	C	0.981671	0.771190	0.169367
	C12278	C	0.911874	0.704885	0.333042
	C12279	C	0.974354	0.767346	0.333303
	C12280	C	0.911918	0.704607	0.168336
	C12281	C	0.974442	0.767102	0.168911
	C12282	C	0.919114	0.708922	0.333057
	C12283	C	0.981578	0.771474	0.333532
	N12284	N	0.882932	0.738633	0.451021
	N12285	N	0.952231	0.729346	0.453071
	N12286	N	0.937407	0.754128	0.049852
	N12287	N	0.993922	0.640252	0.047679
	N12288	N	0.937347	0.754122	0.451498
	N12289	N	0.993975	0.640369	0.452917
	N12290	N	0.882915	0.738733	0.049828
	N12291	N	0.952271	0.729319	0.047827
	N12292	N	0.939989	0.729208	0.202456
	N12293	N	1.002435	0.791881	0.202808
	N12294	N	0.889073	0.692470	0.298624
	N12295	N	0.951627	0.754656	0.298589
	N12296	N	0.889097	0.692338	0.201808
	N12297	N	0.951665	0.754457	0.201944
	N12298	N	0.939940	0.729385	0.298799
	N12299	N	1.002508	0.791845	0.299047
	H12300	H	0.891532	0.736774	0.849507
	H12301	H	0.958615	0.716474	0.848909
	H12302	H	0.928781	0.754235	0.652613
	H12303	H	0.987898	0.653894	0.649997
	H12304	H	0.928734	0.754406	0.848635
	H12305	H	0.987785	0.654023	0.850861
	H12306	H	0.891477	0.736252	0.651930
	H12307	H	0.958673	0.716305	0.650834
	H12308	H	0.933273	0.720182	0.599671
	H12309	H	0.995831	0.782619	0.598969
	H12310	H	0.896944	0.697115	0.900930
	H12311	H	0.959325	0.759923	0.901495
	H12312	H	0.896987	0.696814	0.599654
	H12313	H	0.959572	0.759035	0.599790
	H12314	H	0.933283	0.720218	0.902278
	H12315	H	0.995749	0.782917	0.902722
	H12316	H	0.904013	0.740837	0.851144
	H12317	H	0.968201	0.695950	0.998217
	H12318	H	0.916600	0.748115	0.651558
	H12319	H	0.978327	0.674158	0.424639
	H12320	H	0.916615	0.748455	0.851094
	H12321	H	0.978367	0.674281	0.999895
	H12322	H	0.904006	0.740531	0.651283
	H12323	H	0.968151	0.695787	0.424685
	H12324	H	0.921897	0.710209	0.603087
	H12325	H	0.984324	0.772766	0.603165
	H12326	H	0.909141	0.703109	0.898074
	H12327	H	0.971625	0.765431	0.898863
	H12328	H	0.909202	0.703049	0.602576
	H12329	H	0.971698	0.765562	0.603333
	H12330	H	0.921821	0.710308	0.898691
	H12331	H	0.984325	0.772577	0.899182
	Co12332	Co	1.007837	0.805669	0.625093
	Co12333	Co	0.945307	0.743215	0.625500
	Co12334	Co	0.882792	0.681065	0.875760
	Co12335	Co	0.945289	0.743483	0.875889
	C12336	C	0.890161	0.737437	0.923677
	C12337	C	0.957665	0.718387	0.922592
	C12338	C	0.930151	0.753937	0.578252
	C12339	C	0.988814	0.651850	0.576786
	C12340	C	0.930169	0.753915	0.923570
	C12341	C	0.988784	0.651851	0.923640
	C12342	C	0.890126	0.737071	0.577495
	C12343	C	0.957663	0.718318	0.577394
	C12344	C	0.934291	0.721719	0.673842
	C12345	C	0.996767	0.784164	0.673478
	C12346	C	0.895747	0.696369	0.827079
	C12347	C	0.958167	0.758929	0.827666
	C12348	C	0.895758	0.696259	0.673219
	C12349	C	0.958282	0.758515	0.673779
	C12350	C	0.934259	0.721812	0.828348
	C12351	C	0.996735	0.784357	0.828012
	C12352	C	0.895041	0.737159	1.001149
	C12353	C	0.961357	0.710815	0.500326
	C12354	C	0.925373	0.753276	1.001138
	C12355	C	0.985330	0.659801	0.500300
	C12356	C	0.930292	0.716934	0.751112
	C12357	C	0.992745	0.779498	0.750943
	C12358	C	0.900261	0.699048	0.750126
	C12359	C	0.962750	0.761355	0.750989
	C12360	C	0.902899	0.740123	1.001356
	C12361	C	0.967492	0.698047	0.500436
	C12362	C	0.917675	0.749260	1.001163
	C12363	C	0.979348	0.672867	0.500080
	C12364	C	0.922955	0.711078	0.750973
	C12365	C	0.985441	0.773588	0.751206
	C12366	C	0.907998	0.702850	0.750278
	C12367	C	0.970492	0.765191	0.751241
	C12368	C	0.906716	0.742432	0.917812
	C12369	C	0.970460	0.691343	0.999048
	C12370	C	0.913895	0.746650	0.584499
	C12371	C	0.976210	0.679104	0.457677
	C12372	C	0.913902	0.746800	0.917711
	C12373	C	0.976206	0.679096	0.999394
	C12374	C	0.906728	0.742193	0.584396
	C12375	C	0.970443	0.691347	0.457924
	C12376	C	0.919181	0.708656	0.668360
	C12377	C	0.981629	0.771214	0.668764
	C12378	C	0.911876	0.704737	0.832900
	C12379	C	0.974369	0.767047	0.833528
	C12380	C	0.911933	0.704647	0.667965
	C12381	C	0.974395	0.767155	0.668844
	C12382	C	0.919109	0.708785	0.833143
	C12383	C	0.981611	0.771136	0.833585
	N12384	N	0.882925	0.738707	0.952078
	N12385	N	0.952277	0.729399	0.952390
	N12386	N	0.937375	0.754045	0.549798
	N12387	N	0.993934	0.640269	0.547625
	N12388	N	0.937382	0.754122	0.951714
	N12389	N	0.993913	0.640250	0.952720
	N12390	N	0.882891	0.738424	0.548526
	N12391	N	0.952262	0.729314	0.548307
	N12392	N	0.939974	0.729268	0.702879
	N12393	N	1.002459	0.791702	0.702125
	N12394	N	0.889106	0.692341	0.798574
	N12395	N	0.951556	0.754795	0.798608
	N12396	N	0.889113	0.692298	0.701877
	N12397	N	0.951639	0.754507	0.702138
	N12398	N	0.939983	0.729312	0.799176
	N12399	N	1.002440	0.791839	0.798878
	H12400	H	0.883733	0.807696	0.348877
	H12401	H	0.954008	0.799266	0.348791
	H12402	H	0.921021	0.825288	0.152868
	H12403	H	0.991247	0.816898	0.152390
	H12404	H	0.920944	0.825550	0.348397
	H12405	H	0.991343	0.816930	0.348441
	H12406	H	0.883786	0.807871	0.153249
	H12407	H	0.954085	0.798943	0.152903
	H12408	H	0.924792	0.791484	0.098228
	H12409	H	0.987387	0.853693	0.098374
	H12410	H	0.887824	0.770532	0.401509
	H12411	H	0.950242	0.833378	0.402650
	H12412	H	0.887731	0.770933	0.098080
	H12413	H	0.950314	0.833087	0.098431
	H12414	H	0.924794	0.791596	0.402236
	H12415	H	0.987246	0.854223	0.402717
	H12416	H	0.895929	0.813541	0.350555
	H12417	H	0.966689	0.803055	0.651352
	H12418	H	0.908519	0.821762	0.150092
	H12419	H	0.979033	0.811050	-0.148533
	H12420	H	0.908533	0.821183	0.350020
	H12421	H	0.979187	0.810558	0.650836
	H12422	H	0.895964	0.813992	0.150635
	H12423	H	0.966554	0.803340	-0.149204
	H12424	H	0.912696	0.784231	0.100027
	H12425	H	0.975203	0.846707	0.400799
	H12426	H	0.899828	0.778065	0.401001
	H12427	H	0.962392	0.840524	0.100331
	H12428	H	0.899887	0.778078	0.100467
	H12429	H	0.962384	0.840515	0.400847
	H12430	H	0.912650	0.784425	0.400401
	H12431	H	0.975191	0.846700	0.100244
	Co12432	Co	1.000025	0.874797	0.124282
	Co12433	Co	0.937542	0.812340	0.124880
	Co12434	Co	0.875035	0.749927	0.376163
	Co12435	Co	0.937503	0.812479	0.375837
	C12436	C	0.882364	0.808182	0.423236
	C12437	C	0.952674	0.799823	0.423340
	C12438	C	0.922383	0.824741	0.078243
	C12439	C	0.992655	0.816541	0.078040
	C12440	C	0.922333	0.824842	0.422731
	C12441	C	0.992700	0.816642	0.423270
	C12442	C	0.882399	0.808230	0.078200
	C12443	C	0.952708	0.799551	0.078266
	C12444	C	0.925866	0.792745	0.172775
	C12445	C	0.988408	0.855174	0.173216
	C12446	C	0.886711	0.769410	0.327344
	C12447	C	0.949184	0.832036	0.327840
	C12448	C	0.886686	0.769523	0.172817
	C12449	C	0.949218	0.831967	0.173296
	C12450	C	0.925835	0.792904	0.327591
	C12451	C	0.988336	0.855440	0.327966
	C12452	C	0.887147	0.808872	0.500865
	C12453	C	0.957574	0.799330	0.000672
	C12454	C	0.917469	0.825250	0.500290
	C12455	C	0.987841	0.815906	0.000726
	C12456	C	0.921548	0.789092	0.250279
	C12457	C	0.984080	0.851548	0.250581
	C12458	C	0.891022	0.773110	0.250069
	C12459	C	0.953495	0.835793	0.250654
	C12460	C	0.894840	0.812937	0.500905
	C12461	C	0.965406	0.802381	0.000727
	C12462	C	0.909596	0.822187	0.500479
	C12463	C	0.980131	0.811863	0.000838
	C12464	C	0.913899	0.784706	0.250290
	C12465	C	0.976417	0.847171	0.250501
	C12466	C	0.898687	0.777529	0.250566
	C12467	C	0.961149	0.840188	0.250627
	C12468	C	0.898642	0.815266	0.417185
	C12469	C	0.969299	0.804765	0.584322
	C12470	C	0.905803	0.820018	0.084186
	C12471	C	0.976340	0.809405	-0.082457
	C12472	C	0.905800	0.819753	0.416831
	C12473	C	0.976455	0.809175	0.584102
	C12474	C	0.898630	0.815611	0.084060
	C12475	C	0.969205	0.804861	-0.082530
	C12476	C	0.909985	0.782888	0.166847
	C12477	C	0.972465	0.845393	0.333911
	C12478	C	0.902591	0.779348	0.334305
	C12479	C	0.965090	0.841995	0.167092
	C12480	C	0.902626	0.779425	0.167186
	C12481	C	0.965098	0.841973	0.333923
	C12482	C	0.909929	0.782939	0.333755
	C12483	C	0.972460	0.845391	0.167034
	N12484	N	0.875126	0.808089	0.451622
	N12485	N	0.945423	0.801193	0.451901
	N12486	N	0.929612	0.823502	0.049642
	N12487	N	0.999848	0.816546	0.049515
	N12488	N	0.929588	0.823629	0.451310
	N12489	N	0.999914	0.816691	0.451669
	N12490	N	0.875176	0.808137	0.049354
	N12491	N	0.945440	0.800930	0.049592
	N12492	N	0.932042	0.798810	0.201653
	N12493	N	0.994569	0.861299	0.202159
	N12494	N	0.880500	0.763493	0.298643
	N12495	N	0.943048	0.825889	0.298843
	N12496	N	0.880489	0.763585	0.201646
	N12497	N	0.943050	0.825864	0.201894
	N12498	N	0.932053	0.798845	0.298783
	N12499	N	0.994522	0.861442	0.299156
	H12500	H	0.883783	0.808238	0.848083
	H12501	H	0.954048	0.799230	0.848212
	H12502	H	0.920984	0.825452	0.652084
	H12503	H	0.991338	0.816803	0.653078
	H12504	H	0.921032	0.825644	0.849095
	H12505	H	0.991233	0.816793	0.848703
	H12506	H	0.883663	0.807985	0.652418
	H12507	H	0.954011	0.799477	0.652541
	H12508	H	0.924764	0.791493	0.599241
	H12509	H	0.987241	0.854027	0.598386
	H12510	H	0.887602	0.771066	0.902414
	H12511	H	0.950304	0.833099	0.902582
	H12512	H	0.887880	0.770357	0.599157
	H12513	H	0.950154	0.833381	0.599405
	H12514	H	0.924850	0.791277	0.902506
	H12515	H	0.987295	0.854083	0.901506
	H12516	H	0.895970	0.813981	0.850441
	H12517	H	0.966679	0.802714	1.150739
	H12518	H	0.908437	0.821833	0.650672
	H12519	H	0.979059	0.811208	0.350284
	H12520	H	0.908512	0.821705	0.851218
	H12521	H	0.979145	0.810478	1.150278
	H12522	H	0.895858	0.814395	0.651007
	H12523	H	0.966525	0.803659	0.350222
	H12524	H	0.912640	0.784416	0.601116
	H12525	H	0.975133	0.847020	0.900921
	H12526	H	0.899881	0.777840	0.901255
	H12527	H	0.962406	0.840112	0.600282
	H12528	H	0.899836	0.778234	0.600631
	H12529	H	0.962319	0.840701	0.900716
	H12530	H	0.912714	0.784030	0.901427
	H12531	H	0.975150	0.846472	0.600181
	Co12532	Co	0.999942	0.875010	0.624238
	Co12533	Co	0.937513	0.812463	0.624589
	Co12534	Co	0.874987	0.749903	0.876152
	Co12535	Co	0.937532	0.812314	0.876780
	C12536	C	0.882403	0.808449	0.922882
	C12537	C	0.952705	0.799696	0.922906
	C12538	C	0.922354	0.824946	0.577705
	C12539	C	0.992704	0.816498	0.578155
	C12540	C	0.922397	0.824883	0.923436
	C12541	C	0.992642	0.816455	0.923033
	C12542	C	0.882340	0.808286	0.578300
	C12543	C	0.952673	0.799942	0.578200
	C12544	C	0.925827	0.792809	0.673431
	C12545	C	0.988304	0.855328	0.672373
	C12546	C	0.886599	0.769531	0.827751
	C12547	C	0.949204	0.831853	0.828478
	C12548	C	0.886747	0.769219	0.673246
	C12549	C	0.949145	0.832019	0.673802
	C12550	C	0.925871	0.792714	0.828281
	C12551	C	0.988342	0.855346	0.827200
	C12552	C	0.887189	0.809065	1.000582
	C12553	C	0.957546	0.799623	0.500732
	C12554	C	0.917515	0.825181	1.000671
	C12555	C	0.987912	0.815904	0.500636
	C12556	C	0.921553	0.788978	0.751151
	C12557	C	0.984005	0.851610	0.750053
	C12558	C	0.890977	0.773136	0.750827
	C12559	C	0.953485	0.835645	0.751090
	C12560	C	0.894873	0.813104	1.000597
	C12561	C	0.965418	0.802661	0.500775
	C12562	C	0.909622	0.822286	1.000712
	C12563	C	0.980199	0.811895	0.500473
	C12564	C	0.913885	0.784641	0.751380
	C12565	C	0.976359	0.847182	0.750565
	C12566	C	0.898622	0.777575	0.750997
	C12567	C	0.961147	0.840000	0.750776
	C12568	C	0.898623	0.815640	0.917182
	C12569	C	0.969274	0.804468	1.083946
	C12570	C	0.905736	0.820126	0.584023
	C12571	C	0.976379	0.809505	0.417053
	C12572	C	0.905785	0.820043	0.917266
	C12573	C	0.976416	0.809028	1.083788
	C12574	C	0.898582	0.815719	0.584337
	C12575	C	0.969214	0.805115	0.417160
	C12576	C	0.909923	0.782948	0.667857
	C12577	C	0.972430	0.845475	0.834228
	C12578	C	0.902597	0.779313	0.834443
	C12579	C	0.965093	0.841674	0.666976
	C12580	C	0.902559	0.779499	0.667616
	C12581	C	0.965082	0.841968	0.834196
	C12582	C	0.909963	0.782733	0.834654
	C12583	C	0.972439	0.845191	0.667130
	N12584	N	0.875187	0.808288	0.951451
	N12585	N	0.945436	0.800951	0.951787
	N12586	N	0.929593	0.823637	0.548948
	N12587	N	0.999925	0.816602	0.549806
	N12588	N	0.929625	0.823573	0.952066
	N12589	N	0.999843	0.816511	0.951524
	N12590	N	0.875124	0.808169	0.549739
	N12591	N	0.945417	0.801201	0.549658
	N12592	N	0.932002	0.798895	0.702195
	N12593	N	0.994490	0.861382	0.701217
	N12594	N	0.880462	0.763402	0.798857
	N12595	N	0.943005	0.825879	0.799715
	N12596	N	0.880540	0.763233	0.701649
	N12597	N	0.942966	0.825951	0.702728
	N12598	N	0.932005	0.798860	0.799072
	N12599	N	0.994491	0.861417	0.798113
	H12600	H	0.887277	0.970927	0.352286
	H12601	H	0.946198	0.870459	0.348676
	H12602	H	0.916384	0.908578	0.149709
	H12603	H	0.983533	0.887838	0.152044
	H12604	H	0.916346	0.908524	0.350288
	H12605	H	0.983441	0.888148	0.347684
	H12606	H	0.887162	0.970941	0.150010
	H12607	H	0.946157	0.870748	0.152219
	H12608	H	0.915492	0.865109	0.099997
	H12609	H	0.978033	0.927915	0.099000
	H12610	H	0.879288	0.841725	0.402071
	H12611	H	0.941686	0.904583	0.401856
	H12612	H	0.879239	0.841938	0.098625
	H12613	H	0.941587	0.904644	0.098445
	H12614	H	0.915472	0.865430	0.400799
	H12615	H	0.977912	0.927972	0.400939
	H12616	H	0.896436	0.949764	0.488445
	H12617	H	0.958375	0.876686	0.350318
	H12618	H	0.906550	0.928304	0.017012
	H12619	H	0.970975	0.884250	-0.149810
	H12620	H	0.906554	0.928123	0.487599
	H12621	H	0.970843	0.884338	0.349989
	H12622	H	0.896397	0.949942	0.017369
	H12623	H	0.958383	0.876883	-0.149827
	H12624	H	0.903180	0.859870	0.102877
	H12625	H	0.965689	0.922202	0.101870
	H12626	H	0.890783	0.851300	0.399152
	H12627	H	0.953123	0.914456	0.398127
	H12628	H	0.890481	0.852657	0.102512
	H12629	H	0.952999	0.915116	0.101671
	H12630	H	0.903450	0.858498	0.399043
	H12631	H	0.965792	0.921641	0.398231
	Co12632	Co	0.992192	0.943980	0.125021
	Co12633	Co	0.929656	0.881487	0.125266
	Co12634	Co	0.867195	0.818743	0.375917
	Co12635	Co	0.929688	0.881545	0.376079
	C12636	C	0.886279	0.973087	0.425057
	C12637	C	0.944805	0.870793	0.423217
	C12638	C	0.917351	0.906510	0.076580
	C12639	C	0.984862	0.887382	0.077848
	C12640	C	0.917309	0.906573	0.423671
	C12641	C	0.984781	0.887636	0.422327
	C12642	C	0.886203	0.973117	0.077063
	C12643	C	0.944828	0.870963	0.077934
	C12644	C	0.916752	0.865898	0.173721
	C12645	C	0.979196	0.928703	0.173181
	C12646	C	0.878262	0.840272	0.327509
	C12647	C	0.940738	0.903058	0.327744
	C12648	C	0.878254	0.840334	0.172901
	C12649	C	0.940652	0.903157	0.173147
	C12650	C	0.916719	0.866104	0.327600
	C12651	C	0.979151	0.928719	0.327132
	C12652	C	0.889717	0.965235	0.501349
	C12653	C	0.949640	0.871612	0.000485
	C12654	C	0.913649	0.914110	0.500592
	C12655	C	0.979995	0.887764	0.000426
	C12656	C	0.912242	0.863250	0.250709
	C12657	C	0.974664	0.926059	0.250052
	C12658	C	0.882259	0.845109	0.250255
	C12659	C	0.944690	0.907926	0.250329
	C12660	C	0.895719	0.952159	0.501308
	C12661	C	0.957326	0.875666	0.000608
	C12662	C	0.907519	0.926939	0.500471
	C12663	C	0.972115	0.884802	0.000365
	C12664	C	0.904526	0.859290	0.250940
	C12665	C	0.966934	0.922185	0.249929
	C12666	C	0.889577	0.851013	0.250665
	C12667	C	0.951990	0.913849	0.249869
	C12668	C	0.898663	0.945359	0.493819
	C12669	C	0.961075	0.878110	0.417231
	C12670	C	0.904399	0.933147	0.009298
	C12671	C	0.968272	0.882627	-0.083233
	C12672	C	0.904383	0.933096	0.493395
	C12673	C	0.968228	0.882575	0.416829
	C12674	C	0.898651	0.945429	0.009595
	C12675	C	0.961103	0.878271	-0.082966
	C12676	C	0.900538	0.857862	0.168338
	C12677	C	0.962989	0.920491	0.167312
	C12678	C	0.893447	0.853094	0.333351
	C12679	C	0.955830	0.916074	0.332441
	C12680	C	0.893301	0.853796	0.168166
	C12681	C	0.955758	0.916406	0.167124
	C12682	C	0.900691	0.857115	0.333551
	C12683	C	0.963065	0.920151	0.332495
	N12684	N	0.881137	0.984698	0.453547
	N12685	N	0.937584	0.870718	0.451638
	N12686	N	0.922704	0.895417	0.047490
	N12687	N	0.992098	0.885986	0.048833
	N12688	N	0.922693	0.895512	0.453143
	N12689	N	0.992023	0.886243	0.451068
	N12690	N	0.881069	0.984683	0.048157
	N12691	N	0.937610	0.870821	0.049641
	N12692	N	0.923371	0.870104	0.202364
	N12693	N	0.985828	0.932777	0.201920
	N12694	N	0.872580	0.832702	0.298315
	N12695	N	0.935047	0.895541	0.298947
	N12696	N	0.872577	0.832759	0.202101
	N12697	N	0.934990	0.895580	0.202449
	N12698	N	0.923330	0.870279	0.298973
	N12699	N	0.985797	0.932788	0.298894
	H12700	H	0.887143	0.971037	0.851117
	H12701	H	0.946210	0.870604	0.848597
	H12702	H	0.916311	0.908605	0.651103
	H12703	H	0.983373	0.888106	0.651812
	H12704	H	0.916322	0.908437	0.849561
	H12705	H	0.983434	0.888177	0.848388
	H12706	H	0.887087	0.970897	0.649983
	H12707	H	0.946205	0.870574	0.652800
	H12708	H	0.915412	0.865426	0.599750
	H12709	H	0.977925	0.927920	0.599829
	H12710	H	0.879102	0.842216	0.901910
	H12711	H	0.941600	0.904583	0.902640
	H12712	H	0.879208	0.841905	0.599271
	H12713	H	0.941652	0.904523	0.599756
	H12714	H	0.915437	0.865418	0.900893
	H12715	H	0.977941	0.927954	0.900712
	H12716	H	0.896678	0.950632	0.983244
	H12717	H	0.958434	0.876728	1.150655
	H12718	H	0.906837	0.929223	0.514061
	H12719	H	0.970986	0.884021	0.650262
	H12720	H	0.906812	0.929038	0.982807
	H12721	H	0.970987	0.884143	1.150114
	H12722	H	0.896699	0.950928	0.514453
	H12723	H	0.958441	0.876243	0.650795
	H12724	H	0.903258	0.859338	0.897914
	H12725	H	0.965731	0.922090	0.897807
	H12726	H	0.890526	0.852140	0.603608
	H12727	H	0.953119	0.914212	0.602970
	H12728	H	0.890528	0.852251	0.898000
	H12729	H	0.953049	0.914810	0.898347
	H12730	H	0.903187	0.859479	0.603070
	H12731	H	0.965807	0.921351	0.603022
	Co12732	Co	0.992131	0.943998	0.624927
	Co12733	Co	0.929648	0.881440	0.625248
	Co12734	Co	0.867210	0.818881	0.875651
	Co12735	Co	0.929654	0.881380	0.875420
	C12736	C	0.886204	0.973130	0.924025
	C12737	C	0.944845	0.870867	0.922970
	C12738	C	0.917289	0.906578	0.577483
	C12739	C	0.984792	0.887555	0.577299
	C12740	C	0.917321	0.906464	0.923111
	C12741	C	0.984838	0.887443	0.922773
	C12742	C	0.886192	0.973063	0.577477
	C12743	C	0.944793	0.870865	0.578126
	C12744	C	0.916628	0.866197	0.673237
	C12745	C	0.979156	0.928655	0.673437
	C12746	C	0.878159	0.840594	0.827870
	C12747	C	0.940650	0.903070	0.828066
	C12748	C	0.878201	0.840524	0.673221
	C12749	C	0.940683	0.903003	0.673639
	C12750	C	0.916645	0.866212	0.827047
	C12751	C	0.979155	0.928686	0.827317
	C12752	C	0.889732	0.965255	1.000491
	C12753	C	0.949613	0.871438	0.500876
	C12754	C	0.913651	0.914092	0.999802
	C12755	C	0.979916	0.887904	0.499979
	C12756	C	0.912116	0.863637	0.750202
	C12757	C	0.974642	0.926019	0.750419
	C12758	C	0.882151	0.845395	0.750657
	C12759	C	0.944662	0.907809	0.751001
	C12760	C	0.895705	0.952154	1.000170
	C12761	C	0.957325	0.875410	0.500743
	C12762	C	0.907524	0.926870	0.999723
	C12763	C	0.972089	0.884736	0.500295
	C12764	C	0.904382	0.859756	0.750508
	C12765	C	0.966921	0.922066	0.750406
	C12766	C	0.889456	0.851387	0.750730
	C12767	C	0.951991	0.913632	0.750704
	C12768	C	0.898808	0.945807	0.990460
	C12769	C	0.961109	0.878179	1.083772
	C12770	C	0.904565	0.933691	0.508275
	C12771	C	0.968289	0.882369	0.583837
	C12772	C	0.904545	0.933505	0.990255
	C12773	C	0.968283	0.882558	1.083680
	C12774	C	0.898827	0.945935	0.508427
	C12775	C	0.961118	0.877906	0.584107
	C12776	C	0.900492	0.857834	0.832807
	C12777	C	0.963023	0.920313	0.832690
	C12778	C	0.893247	0.853788	0.668550
	C12779	C	0.955823	0.915813	0.668245
	C12780	C	0.893262	0.853770	0.832855
	C12781	C	0.955788	0.916232	0.832762
	C12782	C	0.900476	0.857844	0.668471
	C12783	C	0.963050	0.919919	0.668238
	N12784	N	0.881060	0.984684	0.953107
	N12785	N	0.937614	0.870769	0.951411
	N12786	N	0.922673	0.895489	0.548434
	N12787	N	0.992032	0.886223	0.548644
	N12788	N	0.922704	0.895405	0.952394
	N12789	N	0.992094	0.886114	0.951230
	N12790	N	0.881080	0.984679	0.548407
	N12791	N	0.937581	0.870757	0.549524
	N12792	N	0.923277	0.870247	0.701829
	N12793	N	0.985799	0.932706	0.702065
	N12794	N	0.872471	0.833046	0.798469
	N12795	N	0.934963	0.895523	0.799018
	N12796	N	0.872507	0.832971	0.702392
	N12797	N	0.935005	0.895429	0.702569
	N12798	N	0.923301	0.870179	0.798412
	N12799	N	0.985790	0.932712	0.798577
