data_Molecule from HDF5

_cell_length_a		165.707588
_cell_length_b		108.124116
_cell_length_c		14.091108
_cell_angle_alpha	89.999660
_cell_angle_beta	90.004250
_cell_angle_gamma	98.630332
_symmetry_space_group_name_H-M	'P 1'
_symmetry_Int_Tables_number		1

loop_
	_symmetry_equiv_pos_as_xyz
	x,y,z

loop_
	_atom_site_label
	_atom_site_type_symbol
	_atom_site_fract_x
	_atom_site_fract_y
	_atom_site_fract_z
	H0	H	0.020114	0.087903	0.352737
	H1	H	0.082766	0.025635	0.352249
	H2	H	0.053267	0.054916	0.147825
	H3	H	0.115897	-0.007622	0.148830
	H4	H	0.053394	0.055046	0.352496
	H5	H	0.115902	-0.007707	0.351629
	H6	H	0.020187	0.088102	0.148573
	H7	H	0.082649	0.025650	0.148926
	H8	H	0.055871	0.015154	0.100161
	H9	H	0.107405	0.122145	0.101659
	H10	H	0.028290	-0.041346	0.399620
	H11	H	0.080012	0.065396	0.399146
	H12	H	0.028153	-0.041226	0.100969
	H13	H	0.080217	0.065279	0.101378
	H14	H	0.055813	0.015215	0.398642
	H15	H	0.107273	0.122303	0.398674
	H16	H	0.031459	0.078407	0.504065
	H17	H	0.093590	0.014890	0.515632
	H18	H	0.042295	0.065121	0.002566
	H19	H	0.104970	0.002960	0.013483
	H20	H	0.043228	0.067034	0.504881
	H21	H	0.105215	0.003256	0.516225
	H22	H	0.030630	0.076620	0.002666
	H23	H	0.093422	0.014690	0.013683
	H24	H	0.047220	-0.003657	0.207058
	H25	H	0.097654	0.104433	0.219110
	H26	H	0.037012	-0.022610	0.292567
	H27	H	0.089786	0.083213	0.280726
	H28	H	0.037590	-0.023199	0.207538
	H29	H	0.088218	0.084704	0.219359
	H30	H	0.046587	-0.003033	0.291556
	H31	H	0.099235	0.102936	0.280403
	Co32	Co	0.119364	0.147432	0.126048
	Co33	Co	0.067996	0.040293	0.125380
	Co34	Co	0.015803	-0.065991	0.375093
	Co35	Co	0.068004	0.040191	0.374860
	C36	C	0.019018	0.089025	0.424864
	C37	C	0.081600	0.026696	0.424577
	C38	C	0.054451	0.053805	0.075903
	C39	C	0.117025	-0.008666	0.076145
	C40	C	0.054512	0.053880	0.424891
	C41	C	0.117006	-0.008692	0.424588
	C42	C	0.019044	0.089215	0.076115
	C43	C	0.081558	0.026811	0.076641
	C44	C	0.056809	0.017060	0.173188
	C45	C	0.108274	0.124112	0.173919
	C46	C	0.027302	-0.043171	0.326755
	C47	C	0.079138	0.063509	0.326510
	C48	C	0.027264	-0.043115	0.173985
	C49	C	0.079242	0.063460	0.173885
	C50	C	0.056758	0.017092	0.325709
	C51	C	0.108201	0.124188	0.326265
	C52	C	0.023127	0.085014	0.500719
	C53	C	0.085724	0.022736	0.000991
	C54	C	0.050446	0.057940	0.500822
	C55	C	0.112899	-0.004551	0.000566
	C56	C	0.053377	0.010099	0.249394
	C57	C	0.104917	0.117111	0.250030
	C58	C	0.030737	-0.036212	0.250468
	C59	C	0.082539	0.070504	0.250164
	C60	C	0.030035	0.078144	0.500688
	C61	C	0.092607	0.015838	0.001087
	C62	C	0.043531	0.064821	0.500902
	C63	C	0.105995	0.002312	0.000892
	C64	C	0.047672	-0.001628	0.249435
	C65	C	0.099262	0.105295	0.249992
	C66	C	0.036496	-0.024522	0.250349
	C67	C	0.088206	0.082320	0.250304
	C68	C	0.033797	0.075443	0.502758
	C69	C	0.096065	0.012330	0.508921
	C70	C	0.039861	0.067869	0.001554
	C71	C	0.102524	0.005688	0.008079
	C72	C	0.040381	0.068917	0.503026
	C73	C	0.102618	0.005790	0.509129
	C74	C	0.033282	0.074409	0.001316
	C75	C	0.095969	0.012250	0.008316
	C76	C	0.044971	-0.007718	0.225811
	C77	C	0.095987	0.099806	0.232751
	C78	C	0.039214	-0.018468	0.273861
	C79	C	0.091489	0.087813	0.267368
	C80	C	0.039533	-0.018828	0.226196
	C81	C	0.090622	0.088648	0.232745
	C82	C	0.044643	-0.007349	0.273316
	C83	C	0.096841	0.098989	0.267147
	N84	N	0.012980	0.095069	0.453543
	N85	N	0.075523	0.032673	0.453196
	N86	N	0.060517	0.047835	0.047086
	N87	N	0.123063	-0.014626	0.047082
	N88	N	0.060536	0.047780	0.453204
	N89	N	0.123068	-0.014640	0.453268
	N90	N	0.012985	0.095220	0.047361
	N91	N	0.075528	0.032815	0.047429
	N92	N	0.061810	0.027254	0.202061
	N93	N	0.113157	0.134455	0.202725
	N94	N	0.022236	-0.053305	0.297622
	N95	N	0.074219	0.053212	0.297717
	N96	N	0.022222	-0.053263	0.202709
	N97	N	0.074274	0.053199	0.202739
	N98	N	0.061773	0.027296	0.297094
	N99	N	0.113106	0.134497	0.297519
	H100	H	0.019952	0.087866	0.851336
	H101	H	0.082742	0.025467	0.852569
	H102	H	0.053486	0.055145	0.648505
	H103	H	0.115920	-0.007541	0.648839
	H104	H	0.053372	0.054889	0.851472
	H105	H	0.115865	-0.007456	0.851885
	H106	H	0.020120	0.088048	0.648980
	H107	H	0.082697	0.025587	0.648637
	H108	H	0.055946	0.015336	0.599898
	H109	H	0.107537	0.121986	0.600750
	H110	H	0.028218	-0.041041	0.899155
	H111	H	0.080049	0.065473	0.900379
	H112	H	0.028281	-0.041244	0.600564
	H113	H	0.080210	0.065473	0.601888
	H114	H	0.055803	0.015341	0.898858
	H115	H	0.107200	0.122470	0.899536
	H116	H	0.031222	0.077947	0.996496
	H117	H	0.093626	0.015089	0.988211
	H118	H	0.042003	0.064429	0.497401
	H119	H	0.105090	0.003176	0.483934
	H120	H	0.042839	0.066268	0.996826
	H121	H	0.105232	0.003497	0.987821
	H122	H	0.030350	0.075963	0.497103
	H123	H	0.093450	0.014721	0.484829
	H124	H	0.046094	-0.002267	0.828078
	H125	H	0.099161	0.102996	0.802073
	H126	H	0.038103	-0.023634	0.671115
	H127	H	0.088286	0.084721	0.699504
	H128	H	0.036505	-0.021834	0.829026
	H129	H	0.089769	0.083216	0.802184
	H130	H	0.047678	-0.004016	0.670859
	H131	H	0.097760	0.104398	0.699084
	Co132	Co	0.119429	0.147365	0.625491
	Co133	Co	0.068098	0.040318	0.625894
	Co134	Co	0.015854	-0.066031	0.874475
	Co135	Co	0.068039	0.040220	0.874882
	C136	C	0.018922	0.089063	0.923888
	C137	C	0.081609	0.026705	0.924770
	C138	C	0.054563	0.053909	0.576380
	C139	C	0.117026	-0.008593	0.576373
	C140	C	0.054485	0.053787	0.923776
	C141	C	0.117007	-0.008575	0.924477
	C142	C	0.019013	0.089131	0.576522
	C143	C	0.081578	0.026665	0.576241
	C144	C	0.056836	0.017121	0.673153
	C145	C	0.108335	0.124022	0.673818
	C146	C	0.027294	-0.042987	0.826216
	C147	C	0.079159	0.063555	0.827425
	C148	C	0.027342	-0.043074	0.673530
	C149	C	0.079242	0.063560	0.674691
	C150	C	0.056760	0.017142	0.825680
	C151	C	0.108193	0.124265	0.826768
	C152	C	0.023101	0.085040	0.999786
	C153	C	0.085665	0.022594	0.500287
	C154	C	0.050346	0.057852	0.999767
	C155	C	0.112966	-0.004532	0.500486
	C156	C	0.053406	0.010185	0.749217
	C157	C	0.104911	0.117143	0.750443
	C158	C	0.030720	-0.036090	0.749834
	C159	C	0.082556	0.070568	0.751158
	C160	C	0.029999	0.078169	0.999509
	C161	C	0.092584	0.015724	0.499857
	C162	C	0.043464	0.064791	0.999739
	C163	C	0.106049	0.002369	0.500251
	C164	C	0.047669	-0.001521	0.749260
	C165	C	0.099265	0.105347	0.750694
	C166	C	0.036487	-0.024376	0.749714
	C167	C	0.088226	0.082324	0.751049
	C168	C	0.033608	0.075100	0.997870
	C169	C	0.096100	0.012499	0.993679
	C170	C	0.039739	0.067515	0.498791
	C171	C	0.102558	0.005751	0.491401
	C172	C	0.040195	0.068579	0.998010
	C173	C	0.102638	0.005910	0.993665
	C174	C	0.033156	0.074031	0.498616
	C175	C	0.096009	0.012298	0.491450
	C176	C	0.044349	-0.006914	0.793593
	C177	C	0.096824	0.099013	0.779533
	C178	C	0.039813	-0.018982	0.705445
	C179	C	0.090656	0.088647	0.722076
	C180	C	0.038933	-0.018022	0.793869
	C181	C	0.091468	0.087812	0.779691
	C182	C	0.045216	-0.007870	0.705265
	C183	C	0.096017	0.099835	0.722109
	N184	N	0.012930	0.095131	0.952980
	N185	N	0.075556	0.032737	0.953120
	N186	N	0.060570	0.047856	0.547701
	N187	N	0.123091	-0.014581	0.547528
	N188	N	0.060529	0.047813	0.952819
	N189	N	0.123059	-0.014584	0.953034
	N190	N	0.012979	0.095117	0.547686
	N191	N	0.075531	0.032675	0.547642
	N192	N	0.061838	0.027326	0.702284
	N193	N	0.113209	0.134372	0.702633
	N194	N	0.022281	-0.053199	0.797581
	N195	N	0.074239	0.053301	0.798266
	N196	N	0.022327	-0.053253	0.702529
	N197	N	0.074289	0.053285	0.703375
	N198	N	0.061785	0.027325	0.797201
	N199	N	0.113126	0.134515	0.797746
	H200	H	0.009154	0.257860	0.351710
	H201	H	0.071575	0.195052	0.352962
	H202	H	0.042070	0.224260	0.148269
	H203	H	0.104642	0.162070	0.147919
	H204	H	0.042314	0.224663	0.351256
	H205	H	0.104752	0.162204	0.352763
	H206	H	0.008880	0.257240	0.147776
	H207	H	0.071795	0.195678	0.148302
	H208	H	0.044886	0.184600	0.101659
	H209	H	0.096823	0.291188	0.100523
	H210	H	0.017669	0.127820	0.399083
	H211	H	0.069052	0.234829	0.398547
	H212	H	0.017458	0.127947	0.101605
	H213	H	0.068916	0.235022	0.100776
	H214	H	0.044798	0.184780	0.400332
	H215	H	0.096782	0.291232	0.398686
	H216	H	0.018705	0.244517	0.462683
	H217	H	0.082279	0.184311	0.459814
	H218	H	0.031191	0.234684	0.056935
	H219	H	0.094270	0.173525	-0.039035
	H220	H	0.030312	0.232902	0.462935
	H221	H	0.093935	0.172765	0.459486
	H222	H	0.019562	0.246351	0.058014
	H223	H	0.082610	0.185102	-0.038987
	H224	H	0.035086	0.167026	0.138581
	H225	H	0.087302	0.273276	0.222688
	H226	H	0.027251	0.145599	0.364324
	H227	H	0.078526	0.252779	0.276746
	H228	H	0.025639	0.147303	0.137818
	H229	H	0.077680	0.253763	0.222534
	H230	H	0.036701	0.165359	0.364848
	H231	H	0.088141	0.272329	0.277167
	Co232	Co	0.109168	0.315999	0.125166
	Co233	Co	0.056841	0.209833	0.126075
	Co234	Co	0.005526	0.102611	0.375257
	Co235	Co	0.056940	0.209836	0.374420
	C236	C	0.007932	0.258814	0.423926
	C237	C	0.070389	0.196176	0.424885
	C238	C	0.043292	0.223306	0.075844
	C239	C	0.105810	0.160914	0.075752
	C240	C	0.043394	0.223453	0.423495
	C241	C	0.105879	0.160980	0.425153
	C242	C	0.007807	0.258586	0.075691
	C243	C	0.070518	0.196540	0.076301
	C244	C	0.045710	0.186549	0.174733
	C245	C	0.097737	0.293060	0.173412
	C246	C	0.016699	0.125918	0.326482
	C247	C	0.068142	0.232965	0.325970
	C248	C	0.016573	0.126011	0.174322
	C249	C	0.068059	0.233051	0.173487
	C250	C	0.045690	0.186632	0.327111
	C251	C	0.097750	0.293083	0.325965
	C252	C	0.011981	0.254626	0.500165
	C253	C	0.074451	0.192152	0.000422
	C254	C	0.039252	0.227474	0.499487
	C255	C	0.101725	0.165004	-0.000355
	C256	C	0.042297	0.179628	0.251090
	C257	C	0.094302	0.286114	0.249825
	C258	C	0.020005	0.132957	0.250441
	C259	C	0.071522	0.239982	0.249755
	C260	C	0.018888	0.247751	0.500204
	C261	C	0.081364	0.185281	0.000194
	C262	C	0.032345	0.234324	0.499794
	C263	C	0.094830	0.171948	-0.000265
	C264	C	0.036680	0.167790	0.251512
	C265	C	0.088511	0.274465	0.250013
	C266	C	0.025698	0.144750	0.251033
	C267	C	0.077271	0.251673	0.249853
	C268	C	0.021710	0.243042	0.479291
	C269	C	0.084846	0.181873	0.477805
	C270	C	0.028746	0.237427	0.032037
	C271	C	0.091578	0.175736	-0.022088
	C272	C	0.028285	0.236484	0.479258
	C273	C	0.091414	0.175312	0.477797
	C274	C	0.022173	0.243993	0.032418
	C275	C	0.085002	0.182265	-0.021775
	C276	C	0.033413	0.162333	0.187987
	C277	C	0.085402	0.268841	0.234946
	C278	C	0.028957	0.150241	0.314590
	C279	C	0.080396	0.257273	0.265192
	C280	C	0.028062	0.151154	0.187741
	C281	C	0.079929	0.257771	0.234634
	C282	C	0.034299	0.161431	0.314900
	C283	C	0.085861	0.268351	0.265106
	N284	N	0.001867	0.264773	0.452717
	N285	N	0.064362	0.202234	0.453023
	N286	N	0.049343	0.217347	0.047443
	N287	N	0.111884	0.154966	0.047309
	N288	N	0.049425	0.217463	0.452414
	N289	N	0.111925	0.154949	0.453552
	N290	N	0.001812	0.264677	0.047049
	N291	N	0.064410	0.202455	0.047456
	N292	N	0.050656	0.196836	0.203318
	N293	N	0.102795	0.303212	0.202243
	N294	N	0.011727	0.115650	0.297881
	N295	N	0.063176	0.222742	0.297126
	N296	N	0.011633	0.115722	0.203265
	N297	N	0.063115	0.222801	0.202519
	N298	N	0.050626	0.196906	0.297782
	N299	N	0.102802	0.303221	0.297046
	H300	H	0.009039	0.257723	0.852300
	H301	H	0.071280	0.194728	0.852367
	H302	H	0.042195	0.224412	0.647772
	H303	H	0.104660	0.161885	0.648813
	H304	H	0.042251	0.224627	0.851503
	H305	H	0.104826	0.162278	0.851539
	H306	H	0.008967	0.257303	0.648584
	H307	H	0.071550	0.195348	0.648681
	H308	H	0.044581	0.184913	0.601414
	H309	H	0.096832	0.291035	0.600394
	H310	H	0.017564	0.128000	0.898760
	H311	H	0.069061	0.234930	0.899081
	H312	H	0.017596	0.127840	0.600983
	H313	H	0.069132	0.234781	0.600592
	H314	H	0.044907	0.184640	0.899127
	H315	H	0.096629	0.291260	0.898536
	H316	H	0.019975	0.247286	0.942830
	H317	H	0.081872	0.183580	1.038498
	H318	H	0.032535	0.237534	0.537134
	H319	H	0.094023	0.172929	0.542657
	H320	H	0.031610	0.235692	0.942220
	H321	H	0.093559	0.172087	1.039161
	H322	H	0.020954	0.249078	0.536754
	H323	H	0.082399	0.184598	0.543181
	H324	H	0.035462	0.166672	0.635767
	H325	H	0.088142	0.272491	0.871851
	H326	H	0.027032	0.145827	0.864124
	H327	H	0.077700	0.253546	0.627775
	H328	H	0.026034	0.146935	0.635462
	H329	H	0.078509	0.252933	0.872347
	H330	H	0.036465	0.165577	0.864146
	H331	H	0.087216	0.273192	0.626936
	Co332	Co	0.109097	0.316078	0.624803
	Co333	Co	0.056846	0.209857	0.625341
	Co334	Co	0.005481	0.102828	0.874690
	Co335	Co	0.056862	0.209854	0.874660
	C336	C	0.007894	0.258801	0.924452
	C337	C	0.070250	0.196038	0.924361
	C338	C	0.043329	0.223357	0.575413
	C339	C	0.105836	0.160794	0.576605
	C340	C	0.043388	0.223467	0.923964
	C341	C	0.105909	0.161026	0.923783
	C342	C	0.007846	0.258565	0.576294
	C343	C	0.070399	0.196363	0.576811
	C344	C	0.045613	0.186663	0.674031
	C345	C	0.097750	0.293047	0.673075
	C346	C	0.016664	0.126021	0.826211
	C347	C	0.068133	0.233019	0.826185
	C348	C	0.016694	0.125936	0.673676
	C349	C	0.068175	0.232936	0.673527
	C350	C	0.045772	0.186538	0.826460
	C351	C	0.097640	0.293147	0.825837
	C352	C	0.011973	0.254617	1.000158
	C353	C	0.074481	0.192131	0.501208
	C354	C	0.039251	0.227539	0.999587
	C355	C	0.101737	0.164943	0.501032
	C356	C	0.042380	0.179564	0.750234
	C357	C	0.094273	0.286142	0.749445
	C358	C	0.020057	0.132968	0.749874
	C359	C	0.071574	0.239932	0.749701
	C360	C	0.018842	0.247692	1.000291
	C361	C	0.081432	0.185334	0.501363
	C362	C	0.032321	0.234331	0.999665
	C363	C	0.094848	0.171864	0.501213
	C364	C	0.036749	0.167749	0.750058
	C365	C	0.088512	0.274459	0.749370
	C366	C	0.025732	0.144746	0.749790
	C367	C	0.077321	0.251629	0.749686
	C368	C	0.022406	0.244555	0.968085
	C369	C	0.084605	0.181473	1.021598
	C370	C	0.029538	0.239037	0.520878
	C371	C	0.091471	0.175424	0.524670
	C372	C	0.028981	0.237985	0.967723
	C373	C	0.091187	0.174954	1.021631
	C374	C	0.022963	0.245569	0.520828
	C375	C	0.084889	0.181958	0.524973
	C376	C	0.033630	0.162139	0.685827
	C377	C	0.085862	0.268404	0.817891
	C378	C	0.028838	0.150357	0.813755
	C379	C	0.079961	0.257702	0.681103
	C380	C	0.028286	0.150955	0.685664
	C381	C	0.080440	0.257284	0.818287
	C382	C	0.034198	0.161531	0.813934
	C383	C	0.085391	0.268815	0.680962
	N384	N	0.001868	0.264824	0.952924
	N385	N	0.064267	0.202167	0.953276
	N386	N	0.049377	0.217407	0.546981
	N387	N	0.111900	0.154828	0.547632
	N388	N	0.049410	0.217437	0.953080
	N389	N	0.111945	0.155025	0.952867
	N390	N	0.001811	0.264622	0.547628
	N391	N	0.064370	0.202346	0.547331
	N392	N	0.050577	0.196940	0.702639
	N393	N	0.102769	0.303247	0.702031
	N394	N	0.011740	0.115716	0.797417
	N395	N	0.063117	0.222797	0.797442
	N396	N	0.011750	0.115662	0.702458
	N397	N	0.063135	0.222781	0.702447
	N398	N	0.050668	0.196874	0.797505
	N399	N	0.102697	0.303275	0.796997
	H400	H	-0.001383	0.425942	0.352313
	H401	H	0.060941	0.363113	0.351177
	H402	H	0.032066	0.393307	0.147965
	H403	H	0.094663	0.330875	0.148833
	H404	H	0.032218	0.393609	0.350455
	H405	H	0.094673	0.331081	0.350650
	H406	H	-0.001405	0.425837	0.148811
	H407	H	0.061157	0.363642	0.148005
	H408	H	0.034188	0.353605	0.100829
	H409	H	0.091342	0.453941	0.098635
	H410	H	0.006591	0.297268	0.399308
	H411	H	0.059750	0.402351	0.398956
	H412	H	0.006532	0.297317	0.100678
	H413	H	0.059664	0.402367	0.100914
	H414	H	0.034077	0.353677	0.399426
	H415	H	0.091356	0.454043	0.398263
	H416	H	0.009188	0.414815	0.548503
	H417	H	0.072680	0.354387	0.497070
	H418	H	0.021342	0.404336	0.041750
	H419	H	0.083632	0.341111	-0.031501
	H420	H	0.020953	0.403517	0.548139
	H421	H	0.084431	0.343103	0.496963
	H422	H	0.009617	0.415711	0.042251
	H423	H	0.071880	0.352409	-0.031330
	H424	H	0.024613	0.335852	0.344317
	H425	H	0.080896	0.437237	0.203073
	H426	H	0.016130	0.315063	0.155295
	H427	H	0.069841	0.419551	0.296250
	H428	H	0.015038	0.316186	0.343923
	H429	H	0.069893	0.419389	0.203632
	H430	H	0.025718	0.334614	0.155637
	H431	H	0.080841	0.437423	0.295093
	Co432	Co	0.106208	0.475862	0.124321
	Co433	Co	0.046607	0.378459	0.125555
	Co434	Co	-0.005662	0.272259	0.374505
	Co435	Co	0.046576	0.378453	0.374779
	C436	C	-0.002483	0.427110	0.424631
	C437	C	0.059881	0.364363	0.423499
	C438	C	0.033231	0.392318	0.075531
	C439	C	0.095751	0.329806	0.075872
	C440	C	0.033279	0.392409	0.423665
	C441	C	0.095762	0.329897	0.422815
	C442	C	-0.002509	0.427040	0.076501
	C443	C	0.060021	0.364613	0.075730
	C444	C	0.035110	0.355518	0.173525
	C445	C	0.092410	0.455618	0.172102
	C446	C	0.005624	0.295385	0.326200
	C447	C	0.058733	0.400596	0.326185
	C448	C	0.005598	0.295403	0.173475
	C449	C	0.058703	0.400597	0.173891
	C450	C	0.035070	0.355571	0.326577
	C451	C	0.092402	0.455655	0.325230
	C452	C	0.001650	0.423123	0.500329
	C453	C	0.064112	0.360492	-0.000036
	C454	C	0.029106	0.396356	0.499581
	C455	C	0.091654	0.333886	0.000229
	C456	C	0.031664	0.348595	0.250162
	C457	C	0.088408	0.449458	0.248670
	C458	C	0.009016	0.302376	0.249748
	C459	C	0.062481	0.407125	0.250055
	C460	C	0.008586	0.416280	0.499861
	C461	C	0.071107	0.353734	0.000071
	C462	C	0.022145	0.403141	0.499219
	C463	C	0.084668	0.340654	0.000284
	C464	C	0.025952	0.336905	0.250031
	C465	C	0.081766	0.438852	0.249000
	C466	C	0.014775	0.314027	0.249729
	C467	C	0.068935	0.418007	0.249776
	C468	C	0.011893	0.412603	0.526958
	C469	C	0.074918	0.351219	0.497805
	C470	C	0.018772	0.406751	0.023408
	C471	C	0.081114	0.343760	-0.017658
	C472	C	0.018520	0.406213	0.526755
	C473	C	0.081568	0.344851	0.497947
	C474	C	0.012139	0.413128	0.023878
	C475	C	0.074497	0.350137	-0.017606
	C476	C	0.022786	0.331315	0.302662
	C477	C	0.078473	0.433401	0.223638
	C478	C	0.017962	0.319580	0.196929
	C479	C	0.072213	0.423450	0.275570
	C480	C	0.017352	0.320192	0.302540
	C481	C	0.072251	0.423291	0.223928
	C482	C	0.023379	0.330721	0.197031
	C483	C	0.078447	0.433547	0.275116
	N484	N	-0.008541	0.433093	0.453516
	N485	N	0.053909	0.370470	0.452584
	N486	N	0.039300	0.386334	0.046914
	N487	N	0.101833	0.323849	0.046930
	N488	N	0.039328	0.386422	0.453113
	N489	N	0.101781	0.323848	0.451846
	N490	N	-0.008524	0.433141	0.047507
	N491	N	0.053943	0.370548	0.047037
	N492	N	0.040150	0.365676	0.202327
	N493	N	0.098340	0.464697	0.200907
	N494	N	0.000626	0.285210	0.297509
	N495	N	0.053192	0.390994	0.297644
	N496	N	0.000618	0.285220	0.202441
	N497	N	0.053171	0.391013	0.202630
	N498	N	0.040115	0.365715	0.297634
	N499	N	0.098317	0.464717	0.296262
	H500	H	-0.001149	0.426332	0.852021
	H501	H	0.061101	0.363371	0.851731
	H502	H	0.032018	0.393206	0.649085
	H503	H	0.094664	0.331123	0.646785
	H504	H	0.032399	0.393992	0.852018
	H505	H	0.094666	0.331021	0.851714
	H506	H	-0.001270	0.426039	0.648650
	H507	H	0.061187	0.363433	0.647577
	H508	H	0.034290	0.353540	0.600477
	H509	H	0.091502	0.453799	0.599920
	H510	H	0.006373	0.297449	0.898665
	H511	H	0.059798	0.402488	0.899087
	H512	H	0.006683	0.297223	0.601388
	H513	H	0.059812	0.402401	0.600882
	H514	H	0.034108	0.353736	0.899285
	H515	H	0.091189	0.454293	0.899019
	H516	H	0.009530	0.415201	0.958905
	H517	H	0.072102	0.353257	1.030770
	H518	H	0.021593	0.404658	0.450799
	H519	H	0.083015	0.339990	0.500111
	H520	H	0.021367	0.404044	0.958374
	H521	H	0.083891	0.341899	1.031773
	H522	H	0.009811	0.415915	0.450375
	H523	H	0.071228	0.351288	0.500566
	H524	H	0.024934	0.335463	0.700058
	H525	H	0.081224	0.437156	0.823438
	H526	H	0.015686	0.315655	0.799363
	H527	H	0.069512	0.419898	0.676040
	H528	H	0.015367	0.315859	0.700963
	H529	H	0.070363	0.419123	0.823883
	H530	H	0.025335	0.335156	0.798943
	H531	H	0.080441	0.437835	0.675199
	Co532	Co	0.106219	0.475778	0.624813
	Co533	Co	0.046656	0.378421	0.625936
	Co534	Co	-0.005661	0.272353	0.874536
	Co535	Co	0.046629	0.378473	0.874630
	C536	C	-0.002370	0.427259	0.924376
	C537	C	0.060000	0.364479	0.923953
	C538	C	0.033175	0.392249	0.576205
	C539	C	0.095752	0.329935	0.574933
	C540	C	0.033399	0.392657	0.923906
	C541	C	0.095753	0.329890	0.924064
	C542	C	-0.002421	0.427184	0.576318
	C543	C	0.060003	0.364492	0.575479
	C544	C	0.035220	0.355495	0.673682
	C545	C	0.092484	0.455702	0.672929
	C546	C	0.005538	0.295565	0.826434
	C547	C	0.058765	0.400652	0.826347
	C548	C	0.005685	0.295423	0.674035
	C549	C	0.058777	0.400598	0.673640
	C550	C	0.035119	0.355584	0.826243
	C551	C	0.092335	0.455952	0.825866
	C552	C	0.001638	0.423069	1.000646
	C553	C	0.064053	0.360383	0.499352
	C554	C	0.029220	0.396499	0.999750
	C555	C	0.091627	0.333936	0.498709
	C556	C	0.031726	0.348596	0.750054
	C557	C	0.088400	0.449593	0.749335
	C558	C	0.009017	0.302440	0.750361
	C559	C	0.062549	0.407160	0.749922
	C560	C	0.008636	0.416334	1.000612
	C561	C	0.071036	0.353683	0.498736
	C562	C	0.022228	0.403260	0.999953
	C563	C	0.084669	0.340670	0.498740
	C564	C	0.025922	0.336940	0.749865
	C565	C	0.081783	0.438977	0.749445
	C566	C	0.014726	0.314149	0.750266
	C567	C	0.069021	0.417966	0.749827
	C568	C	0.012113	0.412882	0.977018
	C569	C	0.074633	0.350601	1.017772
	C570	C	0.018862	0.406843	0.471976
	C571	C	0.080796	0.343157	0.499562
	C572	C	0.018740	0.406502	0.976659
	C573	C	0.081267	0.344227	1.017914
	C574	C	0.012229	0.413233	0.472034
	C575	C	0.074132	0.349494	0.499562
	C576	C	0.022964	0.331165	0.722221
	C577	C	0.078699	0.433391	0.791249
	C578	C	0.017699	0.319947	0.777920
	C579	C	0.072074	0.423597	0.708247
	C580	C	0.017515	0.320090	0.722443
	C581	C	0.072504	0.423195	0.791313
	C582	C	0.023135	0.331020	0.777654
	C583	C	0.078270	0.433801	0.708062
	N584	N	-0.008439	0.433251	0.952977
	N585	N	0.053911	0.370472	0.952769
	N586	N	0.039281	0.386333	0.547740
	N587	N	0.101788	0.323893	0.546384
	N588	N	0.039404	0.386517	0.952639
	N589	N	0.101825	0.323889	0.952427
	N590	N	-0.008511	0.433124	0.547715
	N591	N	0.053969	0.370534	0.546962
	N592	N	0.040242	0.365652	0.702597
	N593	N	0.098315	0.464853	0.701789
	N594	N	0.000550	0.285318	0.797616
	N595	N	0.053250	0.391009	0.797608
	N596	N	0.000644	0.285250	0.702741
	N597	N	0.053247	0.391002	0.702611
	N598	N	0.040174	0.365734	0.797492
	N599	N	0.098224	0.465028	0.796931
	H600	H	-0.006879	0.580751	0.347917
	H601	H	0.055744	0.518393	0.348059
	H602	H	0.029691	0.553975	0.149041
	H603	H	0.092145	0.491505	0.149921
	H604	H	0.029745	0.554154	0.348885
	H605	H	0.092208	0.491611	0.349604
	H606	H	-0.006792	0.580953	0.150362
	H607	H	0.055638	0.518218	0.150633
	H608	H	0.028864	0.516485	0.099988
	H609	H	0.100180	0.524561	0.097951
	H610	H	-0.002612	0.464862	0.399343
	H611	H	0.061933	0.545525	0.399922
	H612	H	-0.002795	0.465097	0.101524
	H613	H	0.061871	0.545646	0.097475
	H614	H	0.028872	0.516831	0.400077
	H615	H	0.100138	0.524551	0.400281
	H616	H	0.004743	0.570978	0.645032
	H617	H	0.067280	0.508503	0.646413
	H618	H	0.017422	0.562179	0.145241
	H619	H	0.080007	0.499971	0.146235
	H620	H	0.017533	0.562560	0.645622
	H621	H	0.080037	0.499868	0.646190
	H622	H	0.004647	0.570733	0.145175
	H623	H	0.067247	0.508592	0.146588
	H624	H	0.017618	0.501128	0.334621
	H625	H	0.087295	0.530514	0.099098
	H626	H	0.008125	0.481037	0.166744
	H627	H	0.074389	0.538394	0.397955
	H628	H	0.006664	0.483147	0.334809
	H629	H	0.074638	0.539054	0.099124
	H630	H	0.019070	0.499007	0.166426
	H631	H	0.087072	0.529772	0.398096
	Co632	Co	0.118460	0.532490	0.125433
	Co633	Co	0.043753	0.538346	0.124762
	Co634	Co	-0.015853	0.441066	0.375176
	Co635	Co	0.043790	0.538428	0.373518
	C636	C	-0.007808	0.582172	0.422040
	C637	C	0.054771	0.519737	0.422143
	C638	C	0.030902	0.553129	0.075758
	C639	C	0.093351	0.490632	0.076412
	C640	C	0.030936	0.553270	0.422412
	C641	C	0.093374	0.490576	0.422749
	C642	C	-0.007794	0.582212	0.076082
	C643	C	0.054649	0.519633	0.076399
	C644	C	0.029957	0.518287	0.173352
	C645	C	0.101626	0.524749	0.172026
	C646	C	-0.003663	0.463137	0.326584
	C647	C	0.060425	0.545449	0.325932
	C648	C	-0.003776	0.463258	0.174318
	C649	C	0.060426	0.545499	0.171418
	C650	C	0.029947	0.518454	0.326671
	C651	C	0.101618	0.524818	0.326124
	C652	C	-0.003826	0.577640	0.498779
	C653	C	0.058649	0.515147	-0.000549
	C654	C	0.026441	0.556553	0.499127
	C655	C	0.088845	0.493933	-0.000060
	C656	C	0.025916	0.512169	0.250333
	C657	C	0.096468	0.525427	0.249057
	C658	C	0.000042	0.469749	0.250493
	C659	C	0.065501	0.544355	0.248837
	C660	C	0.003515	0.571493	0.498868
	C661	C	0.066003	0.509028	-0.000144
	C662	C	0.018658	0.561522	0.499285
	C663	C	0.081051	0.498892	-0.000017
	C664	C	0.019260	0.501569	0.251046
	C665	C	0.088358	0.529399	0.248781
	C666	C	0.006507	0.480621	0.250684
	C667	C	0.073419	0.539778	0.248754
	C668	C	0.007446	0.568999	0.580309
	C669	C	0.069968	0.506490	0.581243
	C670	C	0.014692	0.563984	0.080363
	C671	C	0.077190	0.501617	0.081479
	C672	C	0.014753	0.564157	0.580455
	C673	C	0.077243	0.501580	0.581108
	C674	C	0.007388	0.568861	0.080363
	C675	C	0.069914	0.506540	0.081604
	C676	C	0.015565	0.496802	0.298117
	C677	C	0.084527	0.532188	0.165521
	C678	C	0.010173	0.485466	0.203571
	C679	C	0.077152	0.536781	0.331691
	C680	C	0.009366	0.486615	0.297994
	C681	C	0.077297	0.537183	0.165635
	C682	C	0.016374	0.495634	0.203693
	C683	C	0.084406	0.531820	0.331798
	N684	N	-0.013492	0.589017	0.451380
	N685	N	0.049100	0.526654	0.451263
	N686	N	0.037519	0.548273	0.047193
	N687	N	0.099928	0.485713	0.047478
	N688	N	0.037508	0.548303	0.450935
	N689	N	0.099959	0.485607	0.451168
	N690	N	-0.013460	0.589090	0.047219
	N691	N	0.048979	0.526500	0.047080
	N692	N	0.035847	0.527372	0.201893
	N693	N	0.109413	0.524482	0.200542
	N694	N	-0.009215	0.453537	0.297823
	N695	N	0.052713	0.546384	0.297660
	N696	N	-0.009292	0.453631	0.203083
	N697	N	0.052712	0.546400	0.199853
	N698	N	0.035842	0.527479	0.297077
	N699	N	0.109393	0.524521	0.297900
	H700	H	-0.006952	0.580714	0.848273
	H701	H	0.055649	0.518191	0.848372
	H702	H	0.029714	0.554034	0.649539
	H703	H	0.092061	0.491285	0.648714
	H704	H	0.029679	0.554025	0.848966
	H705	H	0.092144	0.491678	0.849786
	H706	H	-0.006892	0.580632	0.650007
	H707	H	0.055585	0.518168	0.650045
	H708	H	0.028905	0.516847	0.599679
	H709	H	0.100246	0.524658	0.597744
	H710	H	-0.002717	0.465024	0.900414
	H711	H	0.061953	0.545610	0.900828
	H712	H	-0.002685	0.465050	0.601451
	H713	H	0.062000	0.545401	0.597538
	H714	H	0.029015	0.516603	0.899416
	H715	H	0.100210	0.524528	0.900787
	H716	H	0.004583	0.570510	0.852812
	H717	H	0.066984	0.507751	0.853660
	H718	H	0.017282	0.561580	0.353470
	H719	H	0.079677	0.498874	0.352226
	H720	H	0.017370	0.562045	0.852588
	H721	H	0.079728	0.499133	0.853696
	H722	H	0.004496	0.570131	0.352926
	H723	H	0.066991	0.507671	0.352140
	H724	H	0.019317	0.498815	0.865988
	H725	H	0.087388	0.530625	0.599512
	H726	H	0.006516	0.483448	0.635773
	H727	H	0.074437	0.538385	0.898758
	H728	H	0.008340	0.480893	0.866056
	H729	H	0.074668	0.539125	0.599542
	H730	H	0.017547	0.501354	0.634800
	H731	H	0.087112	0.529979	0.898733
	Co732	Co	0.118505	0.532607	0.625317
	Co733	Co	0.043780	0.538352	0.624631
	Co734	Co	-0.015834	0.441077	0.874994
	Co735	Co	0.043835	0.538428	0.873627
	C736	C	-0.007838	0.582158	0.922268
	C737	C	0.054688	0.519666	0.922266
	C738	C	0.030913	0.553196	0.575828
	C739	C	0.093317	0.490414	0.575654
	C740	C	0.030912	0.553154	0.922469
	C741	C	0.093345	0.490696	0.923247
	C742	C	-0.007863	0.582002	0.575944
	C743	C	0.054732	0.519679	0.576097
	C744	C	0.029931	0.518495	0.672972
	C745	C	0.101700	0.524845	0.672208
	C746	C	-0.003710	0.463331	0.827285
	C747	C	0.060454	0.545442	0.826522
	C748	C	-0.003703	0.463325	0.674337
	C749	C	0.060453	0.545404	0.671873
	C750	C	0.030012	0.518356	0.826301
	C751	C	0.101692	0.524814	0.826537
	C752	C	-0.003832	0.577696	0.999144
	C753	C	0.058720	0.515175	0.499250
	C754	C	0.026391	0.556427	0.999093
	C755	C	0.088836	0.493785	0.499436
	C756	C	0.025950	0.512293	0.749660
	C757	C	0.096530	0.525528	0.749327
	C758	C	0.000051	0.469829	0.750838
	C759	C	0.065526	0.544292	0.749171
	C760	C	0.003526	0.571573	0.998907
	C761	C	0.066043	0.508981	0.499313
	C762	C	0.018627	0.561462	0.999008
	C763	C	0.081069	0.498834	0.499351
	C764	C	0.019342	0.501616	0.749876
	C765	C	0.088445	0.529525	0.749078
	C766	C	0.006546	0.480676	0.750806
	C767	C	0.073458	0.539820	0.749196
	C768	C	0.007376	0.568799	0.917492
	C769	C	0.069773	0.506105	0.918527
	C770	C	0.014612	0.563686	0.418016
	C771	C	0.077060	0.501040	0.417303
	C772	C	0.014676	0.563903	0.917611
	C773	C	0.077062	0.501191	0.918613
	C774	C	0.007293	0.568510	0.417727
	C775	C	0.069781	0.505953	0.417185
	C776	C	0.016540	0.495528	0.815148
	C777	C	0.084628	0.532326	0.665960
	C778	C	0.009326	0.486797	0.685616
	C779	C	0.077218	0.536864	0.832174
	C780	C	0.010336	0.485374	0.815329
	C781	C	0.077357	0.537263	0.666065
	C782	C	0.015538	0.496932	0.685287
	C783	C	0.084489	0.531963	0.832143
	N784	N	-0.013475	0.589070	0.951389
	N785	N	0.049001	0.526499	0.951240
	N786	N	0.037492	0.548243	0.547220
	N787	N	0.099905	0.485518	0.547009
	N788	N	0.037518	0.548269	0.950978
	N789	N	0.099932	0.485746	0.951557
	N790	N	-0.013537	0.588889	0.547231
	N791	N	0.049096	0.526612	0.547082
	N792	N	0.035842	0.527530	0.702014
	N793	N	0.109464	0.524576	0.700751
	N794	N	-0.009239	0.453730	0.798282
	N795	N	0.052740	0.546363	0.797927
	N796	N	-0.009229	0.453712	0.703284
	N797	N	0.052736	0.546322	0.700114
	N798	N	0.035897	0.527453	0.797206
	N799	N	0.109457	0.524564	0.798149
	H800	H	0.006016	0.638647	0.347708
	H801	H	0.068567	0.576241	0.348752
	H802	H	0.043746	0.614458	0.150179
	H803	H	0.106288	0.552030	0.150273
	H804	H	0.043698	0.614382	0.348610
	H805	H	0.106019	0.551550	0.348646
	H806	H	0.005972	0.638581	0.150109
	H807	H	0.068575	0.576321	0.150904
	H808	H	0.037655	0.587021	0.097954
	H809	H	0.113288	0.584604	0.097703
	H810	H	-0.000654	0.607984	0.400675
	H811	H	0.074240	0.603185	0.401227
	H812	H	-0.000628	0.608134	0.097646
	H813	H	0.074224	0.603418	0.098166
	H814	H	0.037704	0.587194	0.400929
	H815	H	0.113222	0.584617	0.400355
	H816	H	0.018306	0.630153	0.350197
	H817	H	0.080741	0.567679	0.350118
	H818	H	0.031643	0.623244	0.148822
	H819	H	0.094107	0.560736	0.148435
	H820	H	0.031373	0.622605	0.350616
	H821	H	0.093838	0.560132	0.349731
	H822	H	0.018529	0.630840	0.149024
	H823	H	0.080975	0.568133	0.148972
	H824	H	0.024790	0.592941	0.100401
	H825	H	0.100301	0.590248	0.098667
	H826	H	0.011913	0.601143	0.398939
	H827	H	0.087229	0.597567	0.399484
	H828	H	0.012076	0.601526	0.100555
	H829	H	0.087340	0.598021	0.099323
	H830	H	0.024581	0.592534	0.398836
	H831	H	0.100196	0.589672	0.398896
	Co832	Co	0.131620	0.592628	0.125242
	Co833	Co	0.055993	0.595108	0.125571
	Co834	Co	-0.018761	0.600873	0.374284
	Co835	Co	0.055970	0.595141	0.373782
	C836	C	0.004942	0.639892	0.422143
	C837	C	0.067465	0.577492	0.422818
	C838	C	0.044762	0.613062	0.076142
	C839	C	0.107261	0.550556	0.076356
	C840	C	0.044740	0.613122	0.422775
	C841	C	0.107132	0.550394	0.422769
	C842	C	0.004944	0.639869	0.076251
	C843	C	0.067476	0.577495	0.076766
	C844	C	0.039157	0.587320	0.172472
	C845	C	0.114753	0.584797	0.172065
	C846	C	-0.002097	0.607968	0.326616
	C847	C	0.072795	0.602996	0.326835
	C848	C	-0.002106	0.607992	0.171969
	C849	C	0.072804	0.603064	0.172401
	C850	C	0.039157	0.587393	0.326666
	C851	C	0.114734	0.584828	0.326331
	C852	C	0.009294	0.636128	0.499349
	C853	C	0.071791	0.573645	-0.000174
	C854	C	0.040500	0.617080	0.499914
	C855	C	0.102991	0.554501	-0.000720
	C856	C	0.033965	0.587940	0.249480
	C857	C	0.109576	0.585421	0.249122
	C858	C	0.002968	0.606835	0.249203
	C859	C	0.077986	0.602412	0.249600
	C860	C	0.017108	0.631100	0.499632
	C861	C	0.079619	0.568651	-0.000245
	C862	C	0.032746	0.622298	0.499974
	C863	C	0.095250	0.559746	-0.000878
	C864	C	0.025847	0.591879	0.249540
	C865	C	0.101391	0.589163	0.248828
	C866	C	0.010884	0.602297	0.249671
	C867	C	0.086130	0.598620	0.249315
	C868	C	0.021122	0.628709	0.416809
	C869	C	0.083581	0.566156	0.416646
	C870	C	0.028783	0.624739	0.082243
	C871	C	0.091260	0.562239	0.082055
	C872	C	0.028627	0.624401	0.416997
	C873	C	0.091092	0.561829	0.416467
	C874	C	0.021261	0.629029	0.082383
	C875	C	0.083719	0.566468	0.082444
	C876	C	0.022037	0.594637	0.166655
	C877	C	0.097481	0.591754	0.165373
	C878	C	0.014659	0.599404	0.332692
	C879	C	0.090012	0.595994	0.332656
	C880	C	0.014777	0.599633	0.166756
	C881	C	0.090080	0.596274	0.165796
	C882	C	0.021914	0.594406	0.332410
	C883	C	0.097423	0.591447	0.332535
	N884	N	-0.001265	0.645790	0.450853
	N885	N	0.061289	0.583465	0.451434
	N886	N	0.050822	0.606853	0.047410
	N887	N	0.113322	0.544328	0.047795
	N888	N	0.050815	0.606917	0.451410
	N889	N	0.113191	0.544167	0.451526
	N890	N	-0.001236	0.645833	0.047716
	N891	N	0.061302	0.583435	0.048320
	N892	N	0.046917	0.587146	0.200750
	N893	N	0.122521	0.584664	0.200610
	N894	N	-0.009831	0.608848	0.298278
	N895	N	0.065012	0.603158	0.298195
	N896	N	-0.009835	0.608845	0.200461
	N897	N	0.065017	0.603202	0.200991
	N898	N	0.046915	0.587229	0.298243
	N899	N	0.122513	0.584679	0.297781
	H900	H	0.005971	0.638661	0.848602
	H901	H	0.068411	0.576042	0.848563
	H902	H	0.043781	0.614465	0.651077
	H903	H	0.106272	0.552074	0.650571
	H904	H	0.043744	0.614411	0.847780
	H905	H	0.106158	0.551713	0.848309
	H906	H	0.005931	0.638567	0.650509
	H907	H	0.068444	0.576106	0.651104
	H908	H	0.037689	0.587185	0.598308
	H909	H	0.113258	0.584468	0.598052
	H910	H	-0.000590	0.607942	0.901134
	H911	H	0.074268	0.603100	0.901109
	H912	H	-0.000617	0.607945	0.598185
	H913	H	0.074283	0.603302	0.598268
	H914	H	0.037660	0.587047	0.900847
	H915	H	0.113271	0.584244	0.900991
	H916	H	0.018246	0.629978	0.849646
	H917	H	0.080875	0.567884	0.850177
	H918	H	0.031583	0.623278	0.649039
	H919	H	0.094063	0.560718	0.649462
	H920	H	0.031376	0.622556	0.849442
	H921	H	0.093855	0.560079	0.849593
	H922	H	0.018461	0.630746	0.648756
	H923	H	0.080975	0.568268	0.649532
	H924	H	0.024699	0.592570	0.898907
	H925	H	0.100259	0.590099	0.599745
	H926	H	0.012080	0.601546	0.600071
	H927	H	0.087254	0.597669	0.900222
	H928	H	0.011923	0.601083	0.898847
	H929	H	0.087349	0.598113	0.599792
	H930	H	0.024775	0.593000	0.600223
	H931	H	0.100204	0.589774	0.899706
	Co932	Co	0.131535	0.592504	0.625364
	Co933	Co	0.055959	0.594981	0.625232
	Co934	Co	-0.018769	0.600890	0.874054
	Co935	Co	0.055963	0.594982	0.873795
	C936	C	0.004963	0.639902	0.922326
	C937	C	0.067392	0.577351	0.922878
	C938	C	0.044766	0.613099	0.576594
	C939	C	0.107242	0.550594	0.576451
	C940	C	0.044745	0.612999	0.922023
	C941	C	0.107236	0.550471	0.922371
	C942	C	0.004910	0.639858	0.576146
	C943	C	0.067440	0.577430	0.576791
	C944	C	0.039135	0.587359	0.672355
	C945	C	0.114677	0.584684	0.672332
	C946	C	-0.002141	0.607864	0.826824
	C947	C	0.072776	0.602910	0.826974
	C948	C	-0.002142	0.607838	0.672312
	C949	C	0.072788	0.603038	0.672526
	C950	C	0.039136	0.587272	0.826577
	C951	C	0.114688	0.584600	0.826619
	C952	C	0.009303	0.636082	0.999561
	C953	C	0.071798	0.573641	0.499918
	C954	C	0.040510	0.617047	0.999187
	C955	C	0.102928	0.554465	0.499637
	C956	C	0.033961	0.587984	0.749607
	C957	C	0.109513	0.585261	0.749547
	C958	C	0.002951	0.606728	0.749759
	C959	C	0.077961	0.602398	0.749846
	C960	C	0.017119	0.631039	0.999584
	C961	C	0.079597	0.568568	0.499841
	C962	C	0.032743	0.622231	0.999297
	C963	C	0.095191	0.559690	0.499629
	C964	C	0.025886	0.591979	0.749628
	C965	C	0.101363	0.589083	0.749638
	C966	C	0.010910	0.602299	0.749530
	C967	C	0.086126	0.598630	0.749859
	C968	C	0.021108	0.628565	0.916337
	C969	C	0.083656	0.566285	0.916807
	C970	C	0.028771	0.624852	0.582554
	C971	C	0.091217	0.562156	0.582793
	C972	C	0.028667	0.624415	0.916086
	C973	C	0.091152	0.561866	0.916128
	C974	C	0.021230	0.629091	0.582401
	C975	C	0.083705	0.566462	0.582843
	C976	C	0.021996	0.594530	0.832598
	C977	C	0.097461	0.591693	0.666277
	C978	C	0.014763	0.599674	0.666510
	C979	C	0.090031	0.596095	0.833347
	C980	C	0.014708	0.599455	0.832496
	C981	C	0.090070	0.596274	0.666326
	C982	C	0.022023	0.594702	0.666560
	C983	C	0.097430	0.591542	0.833211
	N984	N	-0.001228	0.645837	0.951126
	N985	N	0.061230	0.583327	0.951636
	N986	N	0.050818	0.606880	0.548015
	N987	N	0.113260	0.544308	0.547864
	N988	N	0.050823	0.606804	0.951023
	N989	N	0.113298	0.544265	0.951342
	N990	N	-0.001275	0.645768	0.547492
	N991	N	0.061272	0.583387	0.547833
	N992	N	0.046901	0.587092	0.700949
	N993	N	0.122468	0.584520	0.700649
	N994	N	-0.009838	0.608817	0.798384
	N995	N	0.064994	0.602991	0.798244
	N996	N	-0.009847	0.608796	0.700599
	N997	N	0.064984	0.603051	0.701003
	N998	N	0.046906	0.587008	0.798212
	N999	N	0.122481	0.584461	0.797955
	H1000	H	0.018882	0.698382	0.348592
	H1001	H	0.081330	0.635738	0.349005
	H1002	H	0.056761	0.674227	0.150812
	H1003	H	0.119251	0.611672	0.150307
	H1004	H	0.056680	0.674035	0.348384
	H1005	H	0.119081	0.611452	0.349001
	H1006	H	0.018843	0.698196	0.150433
	H1007	H	0.081447	0.635844	0.151153
	H1008	H	0.050903	0.647024	0.097461
	H1009	H	0.125638	0.641889	0.098190
	H1010	H	0.011841	0.665491	0.400931
	H1011	H	0.087418	0.662984	0.401373
	H1012	H	0.011856	0.665699	0.098011
	H1013	H	0.087440	0.663164	0.098687
	H1014	H	0.050819	0.646979	0.400917
	H1015	H	0.125667	0.641773	0.401767
	H1016	H	0.031157	0.689659	0.349640
	H1017	H	0.093760	0.627592	0.649195
	H1018	H	0.044335	0.682453	0.149652
	H1019	H	0.106807	0.619779	0.149000
	H1020	H	0.044124	0.681847	0.350074
	H1021	H	0.106821	0.619924	0.649451
	H1022	H	0.031172	0.689895	0.149941
	H1023	H	0.093731	0.627277	0.149514
	H1024	H	0.037870	0.652459	0.098825
	H1025	H	0.113030	0.648614	0.399600
	H1026	H	0.024835	0.660137	0.399490
	H1027	H	0.100433	0.657514	0.100405
	H1028	H	0.024906	0.660420	0.098551
	H1029	H	0.100349	0.657153	0.399608
	H1030	H	0.037778	0.652148	0.399754
	H1031	H	0.113129	0.648870	0.100641
	Co1032	Co	0.143790	0.649067	0.125081
	Co1033	Co	0.069139	0.655108	0.125777
	Co1034	Co	-0.006494	0.657537	0.373593
	Co1035	Co	0.069128	0.655091	0.374204
	C1036	C	0.017865	0.699660	0.422709
	C1037	C	0.080355	0.637077	0.423109
	C1038	C	0.057771	0.672841	0.076590
	C1039	C	0.120230	0.610414	0.076215
	C1040	C	0.057707	0.672776	0.422976
	C1041	C	0.120184	0.610221	0.422662
	C1042	C	0.017803	0.699503	0.076437
	C1043	C	0.080365	0.637096	0.077123
	C1044	C	0.052331	0.647224	0.172007
	C1045	C	0.127147	0.641990	0.172683
	C1046	C	0.010359	0.665392	0.326420
	C1047	C	0.085958	0.662820	0.327179
	C1048	C	0.010343	0.665427	0.172139
	C1049	C	0.085956	0.662880	0.172784
	C1050	C	0.052298	0.647278	0.326594
	C1051	C	0.127148	0.641954	0.327065
	C1052	C	0.022152	0.695704	0.499655
	C1053	C	0.084632	0.633131	0.000120
	C1054	C	0.053342	0.676548	0.499863
	C1055	C	0.115846	0.614095	-0.000975
	C1056	C	0.047156	0.647875	0.249092
	C1057	C	0.122053	0.643073	0.249872
	C1058	C	0.015533	0.664830	0.249193
	C1059	C	0.091126	0.662193	0.249944
	C1060	C	0.029906	0.690508	0.499708
	C1061	C	0.092384	0.627903	-0.000226
	C1062	C	0.045536	0.681602	0.500057
	C1063	C	0.108025	0.619092	-0.000775
	C1064	C	0.039003	0.651650	0.249226
	C1065	C	0.114118	0.647625	0.250093
	C1066	C	0.023742	0.661113	0.248940
	C1067	C	0.099196	0.658101	0.249958
	C1068	C	0.033911	0.688043	0.416522
	C1069	C	0.096517	0.625803	0.582638
	C1070	C	0.041495	0.683979	0.083149
	C1071	C	0.103986	0.621334	0.082615
	C1072	C	0.041424	0.683730	0.416846
	C1073	C	0.104024	0.621492	0.582653
	C1074	C	0.033949	0.688222	0.083083
	C1075	C	0.096462	0.625629	0.082641
	C1076	C	0.035102	0.654222	0.165613
	C1077	C	0.110287	0.650400	0.333134
	C1078	C	0.027632	0.658493	0.332581
	C1079	C	0.103105	0.655571	0.166860
	C1080	C	0.027678	0.658707	0.165319
	C1081	C	0.103058	0.655418	0.333142
	C1082	C	0.035034	0.653963	0.332908
	C1083	C	0.110338	0.650529	0.166917
	N1084	N	0.011768	0.705779	0.451186
	N1085	N	0.074295	0.643293	0.451869
	N1086	N	0.063906	0.666821	0.048038
	N1087	N	0.126362	0.604332	0.047356
	N1088	N	0.063893	0.666814	0.451509
	N1089	N	0.126316	0.604162	0.451522
	N1090	N	0.011760	0.705726	0.047889
	N1091	N	0.074283	0.643266	0.048407
	N1092	N	0.060111	0.647069	0.201087
	N1093	N	0.134873	0.641069	0.200983
	N1094	N	0.002576	0.665540	0.298039
	N1095	N	0.078191	0.663022	0.298649
	N1096	N	0.002556	0.665539	0.200760
	N1097	N	0.078181	0.663056	0.201237
	N1098	N	0.060096	0.647060	0.298367
	N1099	N	0.134875	0.641051	0.298732
	H1100	H	0.018844	0.698333	0.848410
	H1101	H	0.081356	0.635684	0.849473
	H1102	H	0.056650	0.673935	0.650709
	H1103	H	0.119180	0.611718	0.650760
	H1104	H	0.056632	0.673995	0.849218
	H1105	H	0.119044	0.611351	0.847577
	H1106	H	0.018843	0.698323	0.650472
	H1107	H	0.081401	0.635817	0.651125
	H1108	H	0.050796	0.647120	0.598322
	H1109	H	0.125662	0.642092	0.598799
	H1110	H	0.011822	0.665940	0.900198
	H1111	H	0.087359	0.662854	0.901402
	H1112	H	0.011737	0.665600	0.597485
	H1113	H	0.087398	0.662996	0.599036
	H1114	H	0.050707	0.646801	0.900846
	H1115	H	0.125662	0.641929	0.900655
	H1116	H	0.031093	0.689544	0.850144
	H1117	H	0.093562	0.627147	0.850371
	H1118	H	0.044347	0.682531	0.649768
	H1119	H	0.106628	0.619469	0.350066
	H1120	H	0.044186	0.682132	0.850162
	H1121	H	0.106714	0.619663	0.849906
	H1122	H	0.031258	0.690099	0.649521
	H1123	H	0.093502	0.626891	0.350382
	H1124	H	0.037856	0.652692	0.599541
	H1125	H	0.113026	0.648740	0.899443
	H1126	H	0.024735	0.660191	0.899326
	H1127	H	0.100393	0.657454	0.600319
	H1128	H	0.024923	0.660729	0.599460
	H1129	H	0.100333	0.657309	0.899903
	H1130	H	0.037679	0.652102	0.899063
	H1131	H	0.113101	0.648936	0.600189
	Co1132	Co	0.143813	0.649083	0.625376
	Co1133	Co	0.069126	0.655066	0.625600
	Co1134	Co	-0.006530	0.657498	0.873814
	Co1135	Co	0.069082	0.654972	0.874328
	C1136	C	0.017826	0.699556	0.922762
	C1137	C	0.080314	0.636996	0.923500
	C1138	C	0.057676	0.672724	0.576615
	C1139	C	0.120189	0.610264	0.576626
	C1140	C	0.057675	0.672725	0.922833
	C1141	C	0.120127	0.610202	0.922305
	C1142	C	0.017819	0.699591	0.576283
	C1143	C	0.080378	0.637085	0.576968
	C1144	C	0.052245	0.647314	0.672500
	C1145	C	0.127160	0.642219	0.672727
	C1146	C	0.010300	0.665464	0.826390
	C1147	C	0.085881	0.662709	0.827363
	C1148	C	0.010291	0.665373	0.671869
	C1149	C	0.085885	0.662753	0.673066
	C1150	C	0.052213	0.647189	0.826894
	C1151	C	0.127149	0.642100	0.826927
	C1152	C	0.022099	0.695587	0.999836
	C1153	C	0.084639	0.633149	0.499953
	C1154	C	0.053390	0.676634	0.999982
	C1155	C	0.115853	0.614083	0.499607
	C1156	C	0.047052	0.647845	0.749665
	C1157	C	0.122086	0.643358	0.749696
	C1158	C	0.015497	0.664926	0.749157
	C1159	C	0.091069	0.662089	0.750149
	C1160	C	0.029867	0.690434	1.000117
	C1161	C	0.092399	0.627959	0.499769
	C1162	C	0.045565	0.681703	1.000167
	C1163	C	0.108023	0.619107	0.499710
	C1164	C	0.038899	0.651656	0.749403
	C1165	C	0.114155	0.647865	0.749764
	C1166	C	0.023662	0.661200	0.749252
	C1167	C	0.099161	0.658120	0.750063
	C1168	C	0.033893	0.688044	0.916949
	C1169	C	0.096400	0.625618	0.916704
	C1170	C	0.041542	0.684080	0.583020
	C1171	C	0.103914	0.621234	0.416902
	C1172	C	0.041453	0.683853	0.917008
	C1173	C	0.103926	0.621347	0.916449
	C1174	C	0.033983	0.688301	0.582797
	C1175	C	0.096384	0.625495	0.416751
	C1176	C	0.035040	0.654295	0.665893
	C1177	C	0.110293	0.650577	0.832975
	C1178	C	0.027532	0.658607	0.832808
	C1179	C	0.103066	0.655600	0.666991
	C1180	C	0.027640	0.658860	0.665901
	C1181	C	0.103017	0.655492	0.833259
	C1182	C	0.034933	0.654016	0.832708
	C1183	C	0.110348	0.650682	0.666666
	N1184	N	0.011790	0.705801	0.951455
	N1185	N	0.074247	0.643162	0.951796
	N1186	N	0.063865	0.666775	0.548159
	N1187	N	0.126339	0.604247	0.547986
	N1188	N	0.063867	0.666732	0.951614
	N1189	N	0.126280	0.604198	0.950740
	N1190	N	0.011744	0.705741	0.547889
	N1191	N	0.074291	0.643270	0.548433
	N1192	N	0.060012	0.647123	0.701126
	N1193	N	0.134853	0.641154	0.700971
	N1194	N	0.002499	0.665498	0.797802
	N1195	N	0.078110	0.662964	0.798780
	N1196	N	0.002501	0.665468	0.700574
	N1197	N	0.078121	0.663006	0.701638
	N1198	N	0.060000	0.647068	0.798290
	N1199	N	0.134858	0.641109	0.798909
	H1200	H	0.032749	0.758442	0.349086
	H1201	H	0.095427	0.696194	0.350269
	H1202	H	0.069367	0.731757	0.151558
	H1203	H	0.131811	0.669115	0.150758
	H1204	H	0.069429	0.731728	0.348720
	H1205	H	0.131934	0.669214	0.348582
	H1206	H	0.032833	0.758436	0.149926
	H1207	H	0.095548	0.696300	0.149320
	H1208	H	0.063239	0.704646	0.097812
	H1209	H	0.127753	0.785065	0.100387
	H1210	H	0.024944	0.725635	0.400593
	H1211	H	0.096233	0.733201	0.399797
	H1212	H	0.024918	0.725319	0.098285
	H1213	H	0.096061	0.733624	0.100153
	H1214	H	0.063183	0.704399	0.400386
	H1215	H	0.127765	0.785210	0.398899
	H1216	H	0.044983	0.750150	0.352120
	H1217	H	0.107843	0.688359	0.646827
	H1218	H	0.057734	0.741489	-0.147070
	H1219	H	0.120390	0.679321	0.145369
	H1220	H	0.057747	0.741542	0.352025
	H1221	H	0.120572	0.679635	0.646197
	H1222	H	0.045002	0.750186	-0.146887
	H1223	H	0.107588	0.687965	0.145503
	H1224	H	0.050498	0.710802	0.398939
	H1225	H	0.117796	0.767668	0.286153
	H1226	H	0.038086	0.720343	0.099320
	H1227	H	0.106538	0.750285	0.214538
	H1228	H	0.037793	0.719511	0.399309
	H1229	H	0.106865	0.749695	0.286444
	H1230	H	0.050696	0.711646	0.099099
	H1231	H	0.117450	0.768233	0.213747
	Co1232	Co	0.140892	0.809023	0.125053
	Co1233	Co	0.081290	0.711739	0.125421
	Co1234	Co	0.006646	0.717634	0.373979
	Co1235	Co	0.081290	0.711655	0.374166
	C1236	C	0.031611	0.759366	0.422774
	C1237	C	0.094227	0.696999	0.423477
	C1238	C	0.070339	0.730405	0.077290
	C1239	C	0.132806	0.667761	0.076564
	C1240	C	0.070343	0.730319	0.422923
	C1241	C	0.132908	0.667853	0.422471
	C1242	C	0.031648	0.759431	0.076761
	C1243	C	0.094237	0.697083	0.076278
	C1244	C	0.064700	0.704661	0.172107
	C1245	C	0.128779	0.786835	0.173479
	C1246	C	0.023458	0.725373	0.326506
	C1247	C	0.095171	0.731611	0.326826
	C1248	C	0.023470	0.725230	0.172334
	C1249	C	0.095089	0.731841	0.173666
	C1250	C	0.064685	0.704514	0.326335
	C1251	C	0.128776	0.786910	0.325989
	C1252	C	0.036168	0.756176	0.499199
	C1253	C	0.098652	0.693636	-0.000443
	C1254	C	0.066339	0.734828	0.499461
	C1255	C	0.128851	0.672283	-0.000326
	C1256	C	0.059610	0.705721	0.249383
	C1257	C	0.125002	0.780317	0.249699
	C1258	C	0.028641	0.724637	0.249668
	C1259	C	0.099150	0.737866	0.250448
	C1260	C	0.043932	0.751107	0.499009
	C1261	C	0.106431	0.688573	-0.000642
	C1262	C	0.059003	0.741024	0.499221
	C1263	C	0.121479	0.678396	-0.000474
	C1264	C	0.051657	0.710217	0.249174
	C1265	C	0.118527	0.769468	0.249855
	C1266	C	0.036737	0.720657	0.249570
	C1267	C	0.105754	0.748510	0.250548
	C1268	C	0.047785	0.748413	0.417240
	C1269	C	0.110469	0.686259	0.581588
	C1270	C	0.055108	0.743603	-0.081834
	C1271	C	0.117614	0.681134	0.080834
	C1272	C	0.055071	0.743537	0.417323
	C1273	C	0.117764	0.681357	0.581279
	C1274	C	0.047801	0.748471	-0.081843
	C1275	C	0.110335	0.686056	0.080804
	C1276	C	0.047793	0.712843	0.332606
	C1277	C	0.115364	0.763921	0.270498
	C1278	C	0.040671	0.718244	0.165996
	C1279	C	0.108970	0.754064	0.230009
	C1280	C	0.040534	0.717836	0.332707
	C1281	C	0.109165	0.753744	0.270691
	C1282	C	0.047904	0.713241	0.165684
	C1283	C	0.115169	0.764232	0.229779
	N1284	N	0.025038	0.764326	0.451590
	N1285	N	0.087638	0.701901	0.451902
	N1286	N	0.076026	0.723543	0.048235
	N1287	N	0.138503	0.660924	0.047563
	N1288	N	0.076011	0.723446	0.451923
	N1289	N	0.138559	0.660933	0.451718
	N1290	N	0.025081	0.764390	0.048007
	N1291	N	0.087600	0.701939	0.047789
	N1292	N	0.072402	0.703696	0.200445
	N1293	N	0.134289	0.796432	0.202195
	N1294	N	0.015684	0.725580	0.298053
	N1295	N	0.089246	0.722579	0.297575
	N1296	N	0.015678	0.725479	0.200801
	N1297	N	0.089183	0.722725	0.202405
	N1298	N	0.072400	0.703634	0.298283
	N1299	N	0.134287	0.796488	0.296965
	H1300	H	0.032987	0.758809	0.850569
	H1301	H	0.095220	0.695737	0.849306
	H1302	H	0.069355	0.731654	0.650677
	H1303	H	0.131951	0.669177	0.650219
	H1304	H	0.069473	0.731931	0.849049
	H1305	H	0.131938	0.669429	0.848926
	H1306	H	0.032869	0.758543	0.649844
	H1307	H	0.095347	0.695765	0.649436
	H1308	H	0.063194	0.704538	0.598536
	H1309	H	0.127691	0.785046	0.600084
	H1310	H	0.024904	0.725647	0.901188
	H1311	H	0.096212	0.733364	0.899684
	H1312	H	0.024853	0.725404	0.598445
	H1313	H	0.096225	0.733295	0.600056
	H1314	H	0.063165	0.704660	0.901697
	H1315	H	0.127766	0.785039	0.899096
	H1316	H	0.045326	0.751030	1.147638
	H1317	H	0.107682	0.688067	0.853453
	H1318	H	0.057991	0.742258	0.646261
	H1319	H	0.120321	0.679093	0.352261
	H1320	H	0.058085	0.742325	1.147286
	H1321	H	0.120444	0.679376	0.853224
	H1322	H	0.045248	0.750796	0.646020
	H1323	H	0.107544	0.687675	0.353010
	H1324	H	0.050596	0.711497	0.600654
	H1325	H	0.117493	0.768158	0.752719
	H1326	H	0.037767	0.719783	0.899294
	H1327	H	0.106861	0.749724	0.747914
	H1328	H	0.037881	0.719954	0.600802
	H1329	H	0.106529	0.750185	0.752375
	H1330	H	0.050561	0.711293	0.899552
	H1331	H	0.117790	0.767753	0.747638
	Co1332	Co	0.140837	0.809045	0.624692
	Co1333	Co	0.081299	0.711634	0.625372
	Co1334	Co	0.006566	0.717628	0.874523
	Co1335	Co	0.081334	0.711733	0.874599
	C1336	C	0.031743	0.759608	0.923660
	C1337	C	0.094092	0.696773	0.922863
	C1338	C	0.070322	0.730312	0.576519
	C1339	C	0.132872	0.667809	0.576558
	C1340	C	0.070405	0.730489	0.923147
	C1341	C	0.132869	0.667862	0.922798
	C1342	C	0.031701	0.759495	0.576241
	C1343	C	0.094159	0.696820	0.576368
	C1344	C	0.064670	0.704692	0.672942
	C1345	C	0.128755	0.786807	0.673014
	C1346	C	0.023396	0.725337	0.826954
	C1347	C	0.095137	0.731688	0.826472
	C1348	C	0.023396	0.725187	0.672684
	C1349	C	0.095157	0.731648	0.673047
	C1350	C	0.064692	0.704749	0.827519
	C1351	C	0.128774	0.786840	0.825735
	C1352	C	0.036194	0.756215	1.000209
	C1353	C	0.098724	0.693683	0.499943
	C1354	C	0.066367	0.734919	1.000172
	C1355	C	0.128872	0.672272	0.499380
	C1356	C	0.059614	0.705893	0.750487
	C1357	C	0.125005	0.780327	0.749591
	C1358	C	0.028563	0.724620	0.750002
	C1359	C	0.099151	0.737863	0.749751
	C1360	C	0.043962	0.751193	1.000236
	C1361	C	0.106454	0.688547	0.499885
	C1362	C	0.059027	0.741079	1.000230
	C1363	C	0.121534	0.678417	0.499412
	C1364	C	0.051700	0.710425	0.750398
	C1365	C	0.118543	0.769436	0.749972
	C1366	C	0.036683	0.720661	0.750265
	C1367	C	0.105774	0.748509	0.749779
	C1368	C	0.047964	0.748915	1.082380
	C1369	C	0.110397	0.686107	0.918182
	C1370	C	0.055218	0.743943	0.581027
	C1371	C	0.117624	0.680997	0.417483
	C1372	C	0.055271	0.744028	1.082123
	C1373	C	0.117666	0.681177	0.918125
	C1374	C	0.047939	0.748833	0.581033
	C1375	C	0.110337	0.685915	0.417900
	C1376	C	0.047866	0.713179	0.667248
	C1377	C	0.115187	0.764153	0.751239
	C1378	C	0.040553	0.718007	0.833285
	C1379	C	0.109159	0.753745	0.748894
	C1380	C	0.040597	0.718125	0.667154
	C1381	C	0.108991	0.753986	0.751320
	C1382	C	0.047842	0.713131	0.833229
	C1383	C	0.115365	0.763898	0.748782
	N1384	N	0.025139	0.764474	0.952012
	N1385	N	0.087519	0.701749	0.951781
	N1386	N	0.075979	0.723413	0.547769
	N1387	N	0.138519	0.660907	0.547622
	N1388	N	0.076060	0.723575	0.952307
	N1389	N	0.138547	0.660974	0.951877
	N1390	N	0.025084	0.764419	0.547868
	N1391	N	0.087566	0.701788	0.547790
	N1392	N	0.072387	0.703705	0.701180
	N1393	N	0.134297	0.796416	0.701713
	N1394	N	0.015622	0.725573	0.798565
	N1395	N	0.089224	0.722650	0.797367
	N1396	N	0.015622	0.725465	0.701353
	N1397	N	0.089245	0.722616	0.702029
	N1398	N	0.072394	0.703726	0.799202
	N1399	N	0.134299	0.796452	0.796744
	H1400	H	0.030440	0.919363	0.351652
	H1401	H	0.092827	0.856685	0.352098
	H1402	H	0.063633	0.885940	0.149132
	H1403	H	0.126268	0.823909	0.147461
	H1404	H	0.063751	0.886419	0.352362
	H1405	H	0.126421	0.824181	0.351023
	H1406	H	0.030205	0.918710	0.149225
	H1407	H	0.093055	0.856793	0.148385
	H1408	H	0.065497	0.847372	0.101293
	H1409	H	0.118323	0.952824	0.101049
	H1410	H	0.033655	0.796242	0.399615
	H1411	H	0.090893	0.896293	0.400118
	H1412	H	0.033765	0.795829	0.099375
	H1413	H	0.090573	0.896692	0.101039
	H1414	H	0.065204	0.847684	0.399813
	H1415	H	0.118375	0.952855	0.399764
	H1416	H	0.041481	0.909128	0.499381
	H1417	H	0.103753	0.846036	0.509969
	H1418	H	0.052791	0.896598	-0.039260
	H1419	H	0.115530	0.834692	0.036008
	H1420	H	0.053148	0.897559	0.499730
	H1421	H	0.115463	0.834650	0.509576
	H1422	H	0.040980	0.907831	-0.038700
	H1423	H	0.103790	0.846088	0.036485
	H1424	H	0.054550	0.831491	0.149764
	H1425	H	0.109011	0.934788	0.362017
	H1426	H	0.044839	0.811550	0.348246
	H1427	H	0.100192	0.914357	0.139823
	H1428	H	0.043627	0.813571	0.149505
	H1429	H	0.099440	0.915177	0.362423
	H1430	H	0.055769	0.829534	0.349177
	H1431	H	0.109723	0.934038	0.139461
	Co1432	Co	0.130588	0.977924	0.125891
	Co1433	Co	0.078418	0.871570	0.126161
	Co1434	Co	0.018862	0.774327	0.374467
	Co1435	Co	0.078354	0.871595	0.375092
	C1436	C	0.029297	0.920395	0.423759
	C1437	C	0.091713	0.857800	0.424507
	C1438	C	0.064899	0.885159	0.076669
	C1439	C	0.127473	0.822826	0.075115
	C1440	C	0.064869	0.885277	0.424501
	C1441	C	0.127486	0.822995	0.423619
	C1442	C	0.029127	0.919910	0.076748
	C1443	C	0.091849	0.857805	0.076127
	C1444	C	0.066456	0.849237	0.174092
	C1445	C	0.119267	0.954717	0.174136
	C1446	C	0.032631	0.794396	0.326534
	C1447	C	0.089881	0.894472	0.327223
	C1448	C	0.032680	0.794206	0.172844
	C1449	C	0.089740	0.894651	0.174292
	C1450	C	0.066307	0.849404	0.326910
	C1451	C	0.119276	0.954713	0.326762
	C1452	C	0.033375	0.916274	0.499408
	C1453	C	0.095891	0.853650	-0.000342
	C1454	C	0.060729	0.889236	0.500277
	C1455	C	0.123373	0.826884	-0.001027
	C1456	C	0.062597	0.842791	0.250392
	C1457	C	0.115913	0.947739	0.250579
	C1458	C	0.036700	0.800450	0.249460
	C1459	C	0.093240	0.901459	0.250935
	C1460	C	0.040312	0.909438	0.499261
	C1461	C	0.102840	0.846830	-0.000759
	C1462	C	0.053799	0.896119	0.500437
	C1463	C	0.116395	0.833615	-0.001230
	C1464	C	0.056101	0.832015	0.249816
	C1465	C	0.110175	0.936041	0.251129
	C1466	C	0.043315	0.811067	0.249176
	C1467	C	0.099019	0.913139	0.251122
	C1468	C	0.043900	0.906376	0.499393
	C1469	C	0.106294	0.843605	0.505567
	C1470	C	0.050309	0.899248	-0.021486
	C1471	C	0.112973	0.837077	0.019816
	C1472	C	0.050485	0.899874	0.499882
	C1473	C	0.112910	0.837145	0.505207
	C1474	C	0.043651	0.905581	-0.021288
	C1475	C	0.106350	0.843524	0.020033
	C1476	C	0.052484	0.827180	0.193759
	C1477	C	0.107089	0.930357	0.313480
	C1478	C	0.046955	0.815905	0.304950
	C1479	C	0.102089	0.918818	0.188704
	C1480	C	0.046285	0.816986	0.193395
	C1481	C	0.101688	0.919238	0.313494
	C1482	C	0.053160	0.826089	0.305310
	C1483	C	0.107501	0.929940	0.188840
	N1484	N	0.023232	0.926341	0.452861
	N1485	N	0.085657	0.863735	0.453695
	N1486	N	0.071015	0.879293	0.047925
	N1487	N	0.133582	0.816935	0.046382
	N1488	N	0.070976	0.879417	0.453323
	N1489	N	0.133508	0.816977	0.452262
	N1490	N	0.023098	0.925955	0.047664
	N1491	N	0.085797	0.863802	0.047586
	N1492	N	0.071951	0.858839	0.203124
	N1493	N	0.124255	0.964967	0.202914
	N1494	N	0.026708	0.785335	0.297697
	N1495	N	0.084830	0.884327	0.298165
	N1496	N	0.026745	0.785212	0.202286
	N1497	N	0.084751	0.884452	0.202963
	N1498	N	0.071852	0.858958	0.298162
	N1499	N	0.124241	0.964957	0.297931
	H1500	H	0.030402	0.919132	0.851815
	H1501	H	0.092850	0.856569	0.851250
	H1502	H	0.063762	0.886367	0.647829
	H1503	H	0.126293	0.823911	0.647741
	H1504	H	0.064131	0.887105	0.853135
	H1505	H	0.126323	0.824062	0.850675
	H1506	H	0.030425	0.919121	0.647846
	H1507	H	0.093007	0.856945	0.648750
	H1508	H	0.065519	0.847307	0.601314
	H1509	H	0.118520	0.952786	0.601478
	H1510	H	0.033731	0.795853	0.899783
	H1511	H	0.090822	0.896448	0.899433
	H1512	H	0.033777	0.795823	0.600128
	H1513	H	0.090793	0.896505	0.600515
	H1514	H	0.065004	0.848141	0.899388
	H1515	H	0.118402	0.952714	0.899040
	H1516	H	0.041369	0.908780	1.041548
	H1517	H	0.103627	0.845749	0.962301
	H1518	H	0.052628	0.896374	0.500634
	H1519	H	0.115460	0.834715	0.489811
	H1520	H	0.053169	0.897583	1.041782
	H1521	H	0.115400	0.834412	0.961923
	H1522	H	0.040948	0.907828	0.499687
	H1523	H	0.103740	0.846110	0.490008
	H1524	H	0.054696	0.831088	0.704430
	H1525	H	0.109268	0.934581	0.783412
	H1526	H	0.044647	0.812000	0.795889
	H1527	H	0.100054	0.914600	0.715891
	H1528	H	0.043798	0.813088	0.704498
	H1529	H	0.099656	0.915018	0.783842
	H1530	H	0.055617	0.829919	0.796336
	H1531	H	0.109660	0.934135	0.716847
	Co1532	Co	0.130606	0.977894	0.625929
	Co1533	Co	0.078357	0.871680	0.625804
	Co1534	Co	0.018822	0.774259	0.874578
	Co1535	Co	0.078401	0.871680	0.874593
	C1536	C	0.029241	0.920117	0.924790
	C1537	C	0.091746	0.857691	0.923762
	C1538	C	0.064867	0.885279	0.575885
	C1539	C	0.127431	0.822875	0.575337
	C1540	C	0.065138	0.885725	0.925285
	C1541	C	0.127517	0.822892	0.922805
	C1542	C	0.029284	0.920232	0.575374
	C1543	C	0.091825	0.857930	0.576331
	C1544	C	0.066429	0.849244	0.674065
	C1545	C	0.119409	0.954693	0.674211
	C1546	C	0.032699	0.794234	0.826497
	C1547	C	0.089891	0.894544	0.826158
	C1548	C	0.032725	0.794241	0.673248
	C1549	C	0.089863	0.894570	0.673311
	C1550	C	0.066171	0.849684	0.826633
	C1551	C	0.119346	0.954691	0.826459
	C1552	C	0.033274	0.915947	1.001035
	C1553	C	0.095893	0.853808	0.500181
	C1554	C	0.060915	0.889456	1.001126
	C1555	C	0.123322	0.826993	0.499551
	C1556	C	0.062564	0.842935	0.750470
	C1557	C	0.115985	0.947692	0.750270
	C1558	C	0.036676	0.800447	0.749869
	C1559	C	0.093342	0.901500	0.749699
	C1560	C	0.040261	0.909167	1.001427
	C1561	C	0.102834	0.847005	0.499968
	C1562	C	0.053917	0.896180	1.001232
	C1563	C	0.116378	0.833799	0.499604
	C1564	C	0.056102	0.832033	0.750382
	C1565	C	0.110268	0.935984	0.750124
	C1566	C	0.043326	0.811084	0.750062
	C1567	C	0.099088	0.913168	0.749868
	C1568	C	0.043868	0.906112	1.024123
	C1569	C	0.106264	0.843341	0.978281
	C1570	C	0.050195	0.899171	0.500237
	C1571	C	0.112906	0.837173	0.494222
	C1572	C	0.050523	0.899780	1.024023
	C1573	C	0.112887	0.836894	0.978106
	C1574	C	0.043613	0.905646	0.499770
	C1575	C	0.106298	0.843664	0.494320
	C1576	C	0.052580	0.826948	0.724584
	C1577	C	0.107267	0.930234	0.768850
	C1578	C	0.046876	0.816157	0.775750
	C1579	C	0.102061	0.918910	0.731120
	C1580	C	0.046390	0.816789	0.724475
	C1581	C	0.101822	0.919133	0.768777
	C1582	C	0.053056	0.826327	0.775965
	C1583	C	0.107507	0.930012	0.731565
	N1584	N	0.023166	0.926082	0.953114
	N1585	N	0.085734	0.863740	0.952889
	N1586	N	0.070980	0.879416	0.547169
	N1587	N	0.133471	0.816894	0.546336
	N1588	N	0.071171	0.879649	0.953677
	N1589	N	0.133604	0.816991	0.951667
	N1590	N	0.023217	0.926266	0.546856
	N1591	N	0.085712	0.863814	0.547759
	N1592	N	0.071888	0.858957	0.702613
	N1593	N	0.124332	0.964949	0.702931
	N1594	N	0.026795	0.785132	0.797352
	N1595	N	0.084840	0.884418	0.797237
	N1596	N	0.026813	0.785147	0.702223
	N1597	N	0.084834	0.884446	0.702290
	N1598	N	0.071761	0.859193	0.797712
	N1599	N	0.124306	0.964945	0.797839
	H1600	H	0.134199	0.133082	0.351123
	H1601	H	0.196587	0.070360	0.352398
	H1602	H	0.167088	0.099329	0.149087
	H1603	H	0.229953	0.037450	0.149090
	H1604	H	0.167290	0.099715	0.352449
	H1605	H	0.229688	0.037047	0.351933
	H1606	H	0.134033	0.132838	0.149699
	H1607	H	0.196657	0.070345	0.148997
	H1608	H	0.169927	0.059817	0.101646
	H1609	H	0.221640	0.166583	0.100531
	H1610	H	0.142467	0.003111	0.399644
	H1611	H	0.194245	0.109876	0.398434
	H1612	H	0.142830	0.002908	0.101826
	H1613	H	0.194044	0.109954	0.101137
	H1614	H	0.169874	0.060090	0.399647
	H1615	H	0.221860	0.166184	0.398455
	H1616	H	0.144875	0.121949	0.465809
	H1617	H	0.208083	0.060975	0.565613
	H1618	H	0.156106	0.109401	-0.010033
	H1619	H	0.218807	0.047552	-0.042658
	H1620	H	0.156524	0.110380	0.466071
	H1621	H	0.219690	0.049289	0.565830
	H1622	H	0.144435	0.120979	-0.009947
	H1623	H	0.207166	0.059186	-0.042141
	H1624	H	0.160964	0.041279	0.247488
	H1625	H	0.212846	0.147870	0.183917
	H1626	H	0.151604	0.021589	0.253885
	H1627	H	0.203024	0.128568	0.314487
	H1628	H	0.151489	0.021567	0.247431
	H1629	H	0.203252	0.128201	0.183856
	H1630	H	0.161046	0.041346	0.254474
	H1631	H	0.212597	0.148164	0.314848
	Co1632	Co	0.234246	0.191109	0.125476
	Co1633	Co	0.181901	0.084860	0.125902
	Co1634	Co	0.130589	-0.022165	0.374831
	Co1635	Co	0.181954	0.084989	0.374842
	C1636	C	0.133043	0.134015	0.423779
	C1637	C	0.195471	0.071429	0.424737
	C1638	C	0.168344	0.098395	0.076725
	C1639	C	0.230981	0.036184	0.076487
	C1640	C	0.168446	0.098595	0.424303
	C1641	C	0.230852	0.035948	0.424638
	C1642	C	0.132935	0.133944	0.077126
	C1643	C	0.195524	0.071446	0.076244
	C1644	C	0.170781	0.061686	0.174468
	C1645	C	0.222645	0.168380	0.173335
	C1646	C	0.141679	0.001176	0.326608
	C1647	C	0.193270	0.108028	0.325688
	C1648	C	0.141848	0.001069	0.174322
	C1649	C	0.193163	0.108061	0.173673
	C1650	C	0.170769	0.061806	0.326652
	C1651	C	0.222748	0.168181	0.325535
	C1652	C	0.137066	0.129801	0.499514
	C1653	C	0.199575	0.067359	0.000584
	C1654	C	0.164382	0.102697	0.500218
	C1655	C	0.226845	0.040125	0.000637
	C1656	C	0.167409	0.054773	0.250939
	C1657	C	0.219248	0.161362	0.249332
	C1658	C	0.145108	0.008101	0.250473
	C1659	C	0.196618	0.115021	0.249421
	C1660	C	0.143986	0.122929	0.499741
	C1661	C	0.206474	0.060373	0.001035
	C1662	C	0.157442	0.109554	0.500108
	C1663	C	0.219900	0.047003	0.000608
	C1664	C	0.161742	0.042966	0.250836
	C1665	C	0.213500	0.149660	0.249494
	C1666	C	0.150732	0.019956	0.250512
	C1667	C	0.202328	0.126770	0.249274
	C1668	C	0.147432	0.119476	0.480661
	C1669	C	0.210272	0.057754	0.537092
	C1670	C	0.153726	0.112365	-0.004844
	C1671	C	0.216341	0.050226	-0.023709
	C1672	C	0.153998	0.112939	0.480682
	C1673	C	0.216825	0.051191	0.537246
	C1674	C	0.147132	0.118896	-0.004801
	C1675	C	0.209793	0.056773	-0.023320
	C1676	C	0.158903	0.037039	0.248791
	C1677	C	0.210697	0.143679	0.212795
	C1678	C	0.153598	0.025856	0.252577
	C1679	C	0.205157	0.132758	0.285852
	C1680	C	0.153556	0.025862	0.248700
	C1681	C	0.205277	0.132548	0.212542
	C1682	C	0.158955	0.037025	0.252747
	C1683	C	0.210575	0.143882	0.286006
	N1684	N	0.126956	0.139941	0.452788
	N1685	N	0.189408	0.077423	0.453571
	N1686	N	0.174406	0.092476	0.047773
	N1687	N	0.236988	0.030068	0.047613
	N1688	N	0.174488	0.092553	0.453238
	N1689	N	0.236896	0.029920	0.453315
	N1690	N	0.126943	0.140033	0.047790
	N1691	N	0.189471	0.077474	0.047244
	N1692	N	0.175717	0.071960	0.202996
	N1693	N	0.227738	0.178485	0.202417
	N1694	N	0.136787	-0.009147	0.297818
	N1695	N	0.188255	0.097816	0.297476
	N1696	N	0.136880	-0.009203	0.203012
	N1697	N	0.188191	0.097824	0.202652
	N1698	N	0.175703	0.072068	0.297529
	N1699	N	0.227795	0.178376	0.297215
	H1700	H	0.134082	0.132775	0.852742
	H1701	H	0.196540	0.070107	0.851983
	H1702	H	0.167297	0.099739	0.648247
	H1703	H	0.229808	0.037181	0.648880
	H1704	H	0.167371	0.099926	0.852455
	H1705	H	0.229663	0.036837	0.852073
	H1706	H	0.133964	0.132362	0.647844
	H1707	H	0.196686	0.070480	0.648844
	H1708	H	0.169832	0.059912	0.600696
	H1709	H	0.221886	0.166212	0.601340
	H1710	H	0.142715	0.002936	0.899262
	H1711	H	0.194031	0.110156	0.899293
	H1712	H	0.142552	0.003083	0.601076
	H1713	H	0.194255	0.109920	0.601443
	H1714	H	0.170003	0.059651	0.898720
	H1715	H	0.221838	0.166420	0.899369
	H1716	H	0.145209	0.122998	1.013294
	H1717	H	0.207554	0.059789	1.044058
	H1718	H	0.156548	0.110470	0.533730
	H1719	H	0.218217	0.046461	0.435048
	H1720	H	0.156838	0.111447	1.013341
	H1721	H	0.219186	0.048148	1.043859
	H1722	H	0.144854	0.122006	0.533581
	H1723	H	0.206582	0.058067	0.435325
	H1724	H	0.161149	0.041068	0.747269
	H1725	H	0.213426	0.147321	0.638120
	H1726	H	0.151430	0.021727	0.752732
	H1727	H	0.202484	0.129145	0.863855
	H1728	H	0.151699	0.021345	0.746951
	H1729	H	0.203735	0.127746	0.637852
	H1730	H	0.160893	0.041473	0.752741
	H1731	H	0.212110	0.148720	0.863563
	Co1732	Co	0.234259	0.191076	0.625460
	Co1733	Co	0.181971	0.085038	0.626207
	Co1734	Co	0.130567	-0.022106	0.874947
	Co1735	Co	0.181909	0.084955	0.874772
	C1736	C	0.132967	0.133924	0.924927
	C1737	C	0.195455	0.071334	0.924247
	C1738	C	0.168453	0.098619	0.576310
	C1739	C	0.230917	0.036061	0.576561
	C1740	C	0.168473	0.098691	0.924943
	C1741	C	0.230839	0.035896	0.924548
	C1742	C	0.132900	0.133655	0.575370
	C1743	C	0.195510	0.071495	0.576740
	C1744	C	0.170764	0.061815	0.673621
	C1745	C	0.222819	0.168124	0.674122
	C1746	C	0.141793	0.001106	0.826448
	C1747	C	0.193121	0.108173	0.826681
	C1748	C	0.141699	0.001197	0.674013
	C1749	C	0.193264	0.108067	0.674294
	C1750	C	0.170845	0.061681	0.826333
	C1751	C	0.222782	0.168214	0.826514
	C1752	C	0.137055	0.129837	1.001160
	C1753	C	0.199535	0.067352	0.500703
	C1754	C	0.164319	0.102656	1.001055
	C1755	C	0.226816	0.040096	0.500655
	C1756	C	0.167441	0.054734	0.749863
	C1757	C	0.219332	0.161257	0.750433
	C1758	C	0.145118	0.008156	0.750129
	C1759	C	0.196589	0.115105	0.750552
	C1760	C	0.143917	0.122913	1.001585
	C1761	C	0.206436	0.060407	0.500724
	C1762	C	0.157391	0.109470	1.001557
	C1763	C	0.219879	0.046979	0.500615
	C1764	C	0.161799	0.042943	0.749870
	C1765	C	0.213509	0.149600	0.750746
	C1766	C	0.150799	0.019917	0.749727
	C1767	C	0.202297	0.126844	0.750600
	C1768	C	0.147587	0.120044	1.008207
	C1769	C	0.210000	0.057086	1.025407
	C1770	C	0.153987	0.112964	0.519057
	C1771	C	0.216031	0.049608	0.463853
	C1772	C	0.154145	0.113463	1.008235
	C1773	C	0.216567	0.050570	1.025119
	C1774	C	0.147409	0.119477	0.519135
	C1775	C	0.209477	0.056171	0.463898
	C1776	C	0.159065	0.036903	0.748000
	C1777	C	0.210992	0.143365	0.687538
	C1778	C	0.153561	0.025942	0.751330
	C1779	C	0.204817	0.133081	0.814143
	C1780	C	0.153701	0.025726	0.748135
	C1781	C	0.205529	0.132284	0.687604
	C1782	C	0.158908	0.037119	0.751586
	C1783	C	0.210284	0.144139	0.814275
	N1784	N	0.126956	0.140023	0.953580
	N1785	N	0.189428	0.077409	0.952786
	N1786	N	0.174496	0.092580	0.547642
	N1787	N	0.236947	0.029993	0.547777
	N1788	N	0.174488	0.092635	0.953382
	N1789	N	0.236889	0.029911	0.953215
	N1790	N	0.126860	0.139689	0.547123
	N1791	N	0.189453	0.077505	0.547917
	N1792	N	0.175660	0.072106	0.702626
	N1793	N	0.227885	0.178279	0.702845
	N1794	N	0.136837	-0.009143	0.797812
	N1795	N	0.188158	0.097927	0.797813
	N1796	N	0.136796	-0.009100	0.702986
	N1797	N	0.188253	0.097867	0.703034
	N1798	N	0.175715	0.072028	0.797638
	N1799	N	0.227854	0.178342	0.797513
	H1800	H	0.123779	0.301118	0.351947
	H1801	H	0.186281	0.238551	0.351883
	H1802	H	0.157143	0.268338	0.148407
	H1803	H	0.219654	0.205825	0.148702
	H1804	H	0.157271	0.268835	0.352058
	H1805	H	0.219704	0.206072	0.352400
	H1806	H	0.123652	0.300960	0.147831
	H1807	H	0.186324	0.238854	0.148278
	H1808	H	0.159253	0.228770	0.101055
	H1809	H	0.216303	0.329227	0.099550
	H1810	H	0.131695	0.172313	0.399689
	H1811	H	0.184643	0.277654	0.398648
	H1812	H	0.131374	0.172677	0.101335
	H1813	H	0.184860	0.277356	0.100050
	H1814	H	0.159415	0.228552	0.398742
	H1815	H	0.216422	0.329058	0.398996
	H1816	H	0.134433	0.290142	0.550092
	H1817	H	0.196811	0.227437	0.528629
	H1818	H	0.146336	0.279065	0.032575
	H1819	H	0.209100	0.217254	0.018355
	H1820	H	0.146154	0.278795	0.550203
	H1821	H	0.208512	0.216026	0.528488
	H1822	H	0.134622	0.290551	0.032927
	H1823	H	0.197266	0.228411	0.018682
	H1824	H	0.150325	0.210324	0.221924
	H1825	H	0.206304	0.311862	0.190553
	H1826	H	0.140432	0.190926	0.278235
	H1827	H	0.194444	0.295299	0.306873
	H1828	H	0.140701	0.190779	0.222473
	H1829	H	0.195418	0.293838	0.191550
	H1830	H	0.150141	0.210424	0.277649
	H1831	H	0.205416	0.313261	0.306910
	Co1832	Co	0.231221	0.350871	0.124651
	Co1833	Co	0.171670	0.253516	0.125391
	Co1834	Co	0.119378	0.147425	0.374693
	Co1835	Co	0.171670	0.253540	0.374454
	C1836	C	0.122629	0.302284	0.424221
	C1837	C	0.185117	0.239678	0.423989
	C1838	C	0.158269	0.267316	0.075650
	C1839	C	0.220842	0.204873	0.076210
	C1840	C	0.158396	0.267575	0.424612
	C1841	C	0.220841	0.204944	0.424340
	C1842	C	0.122572	0.302128	0.075289
	C1843	C	0.185167	0.239803	0.075929
	C1844	C	0.160206	0.230620	0.173625
	C1845	C	0.217401	0.330906	0.172503
	C1846	C	0.130666	0.170528	0.326789
	C1847	C	0.183718	0.275788	0.325826
	C1848	C	0.130504	0.170694	0.174196
	C1849	C	0.183831	0.275632	0.173169
	C1850	C	0.160279	0.230518	0.326100
	C1851	C	0.217457	0.330817	0.325678
	C1852	C	0.126770	0.298281	0.500556
	C1853	C	0.189205	0.235635	0.000029
	C1854	C	0.154233	0.271572	0.500667
	C1855	C	0.216787	0.209062	0.000195
	C1856	C	0.156802	0.223689	0.249833
	C1857	C	0.213398	0.324676	0.249145
	C1858	C	0.133995	0.177559	0.250521
	C1859	C	0.187580	0.282236	0.249466
	C1860	C	0.133704	0.291478	0.500750
	C1861	C	0.196189	0.228888	0.000140
	C1862	C	0.147290	0.278312	0.500869
	C1863	C	0.209795	0.215818	0.000269
	C1864	C	0.151032	0.212017	0.249960
	C1865	C	0.206784	0.314060	0.249137
	C1866	C	0.139767	0.189240	0.250538
	C1867	C	0.194026	0.293105	0.249062
	C1868	C	0.137075	0.287863	0.528245
	C1869	C	0.199475	0.225155	0.516073
	C1870	C	0.143779	0.281606	0.018194
	C1871	C	0.206421	0.219414	0.010702
	C1872	C	0.143712	0.281417	0.528380
	C1873	C	0.206104	0.218722	0.516553
	C1874	C	0.137176	0.288050	0.018239
	C1875	C	0.199777	0.225776	0.010484
	C1876	C	0.148202	0.206109	0.234249
	C1877	C	0.203754	0.308286	0.216559
	C1878	C	0.142581	0.195131	0.266016
	C1879	C	0.197035	0.298889	0.281228
	C1880	C	0.142737	0.195059	0.234401
	C1881	C	0.197548	0.298121	0.216752
	C1882	C	0.148066	0.206182	0.265628
	C1883	C	0.203221	0.309107	0.281438
	N1884	N	0.116562	0.308224	0.452479
	N1885	N	0.179080	0.245705	0.452549
	N1886	N	0.164348	0.261353	0.046852
	N1887	N	0.226928	0.198958	0.047157
	N1888	N	0.164407	0.261509	0.453281
	N1889	N	0.226910	0.198965	0.453081
	N1890	N	0.116476	0.308098	0.046760
	N1891	N	0.179073	0.245743	0.047199
	N1892	N	0.165264	0.240770	0.202404
	N1893	N	0.223315	0.339930	0.201642
	N1894	N	0.125606	0.160373	0.297806
	N1895	N	0.178214	0.266148	0.296995
	N1896	N	0.125502	0.160490	0.202906
	N1897	N	0.178274	0.266084	0.202195
	N1898	N	0.165298	0.240726	0.297498
	N1899	N	0.223359	0.339862	0.296840
	H1900	H	0.123699	0.301096	0.851017
	H1901	H	0.186015	0.238206	0.851418
	H1902	H	0.156931	0.268156	0.649277
	H1903	H	0.219664	0.205884	0.648300
	H1904	H	0.157242	0.268639	0.850978
	H1905	H	0.219793	0.206362	0.851846
	H1906	H	0.123688	0.301189	0.648618
	H1907	H	0.186222	0.238653	0.648001
	H1908	H	0.159224	0.228860	0.600296
	H1909	H	0.216249	0.329250	0.599655
	H1910	H	0.131579	0.172391	0.899119
	H1911	H	0.184664	0.277582	0.898645
	H1912	H	0.131581	0.172412	0.601731
	H1913	H	0.184775	0.277444	0.600002
	H1914	H	0.159301	0.228760	0.899159
	H1915	H	0.216369	0.329003	0.898247
	H1916	H	0.134572	0.290575	0.966068
	H1917	H	0.196986	0.227656	0.982076
	H1918	H	0.146566	0.279714	0.452186
	H1919	H	0.209000	0.216849	0.472886
	H1920	H	0.146285	0.279097	0.966695
	H1921	H	0.208712	0.216238	0.981744
	H1922	H	0.134811	0.291090	0.451867
	H1923	H	0.197264	0.228215	0.472179
	H1924	H	0.150407	0.210221	0.734946
	H1925	H	0.205652	0.312789	0.775791
	H1926	H	0.140272	0.191116	0.764367
	H1927	H	0.195133	0.294146	0.722083
	H1928	H	0.140907	0.190601	0.734952
	H1929	H	0.194697	0.294859	0.775907
	H1930	H	0.149922	0.210642	0.764101
	H1931	H	0.206051	0.312140	0.721924
	Co1932	Co	0.231248	0.350851	0.624836
	Co1933	Co	0.171684	0.253501	0.625613
	Co1934	Co	0.119433	0.147442	0.874624
	Co1935	Co	0.171681	0.253539	0.874186
	C1936	C	0.122600	0.302196	0.923434
	C1937	C	0.185011	0.239498	0.924173
	C1938	C	0.158224	0.267226	0.576684
	C1939	C	0.220819	0.204828	0.576245
	C1940	C	0.158328	0.267478	0.923760
	C1941	C	0.220918	0.205127	0.924126
	C1942	C	0.122568	0.302314	0.576333
	C1943	C	0.185084	0.239731	0.575889
	C1944	C	0.160133	0.230691	0.673635
	C1945	C	0.217363	0.330927	0.672608
	C1946	C	0.130658	0.170527	0.826411
	C1947	C	0.183723	0.275795	0.825489
	C1948	C	0.130649	0.170508	0.674105
	C1949	C	0.183772	0.275717	0.672852
	C1950	C	0.160164	0.230637	0.826215
	C1951	C	0.217404	0.330799	0.825636
	C1952	C	0.126702	0.298218	0.999437
	C1953	C	0.189205	0.235603	0.500166
	C1954	C	0.154225	0.271447	0.999743
	C1955	C	0.216706	0.208924	0.500402
	C1956	C	0.156687	0.223786	0.749832
	C1957	C	0.213362	0.324679	0.749112
	C1958	C	0.134029	0.177505	0.750108
	C1959	C	0.187535	0.282229	0.749214
	C1960	C	0.133695	0.291455	0.999597
	C1961	C	0.196154	0.228795	0.500253
	C1962	C	0.147226	0.278228	0.999658
	C1963	C	0.209723	0.215621	0.500592
	C1964	C	0.150951	0.212078	0.749654
	C1965	C	0.206750	0.314010	0.748998
	C1966	C	0.139762	0.189206	0.749746
	C1967	C	0.194006	0.293060	0.748843
	C1968	C	0.137148	0.288054	0.980826
	C1969	C	0.199598	0.225318	0.989834
	C1970	C	0.143924	0.281926	0.473320
	C1971	C	0.206368	0.219190	0.484713
	C1972	C	0.143746	0.281603	0.981043
	C1973	C	0.206240	0.218950	0.990000
	C1974	C	0.137282	0.288359	0.473549
	C1975	C	0.199734	0.225606	0.484806
	C1976	C	0.148237	0.206044	0.741539
	C1977	C	0.203350	0.308825	0.764037
	C1978	C	0.142506	0.195205	0.758012
	C1979	C	0.197390	0.298255	0.733681
	C1980	C	0.142800	0.194961	0.741455
	C1981	C	0.197161	0.298643	0.763851
	C1982	C	0.147925	0.206313	0.757865
	C1983	C	0.203589	0.308435	0.733643
	N1984	N	0.116502	0.308153	0.952197
	N1985	N	0.178972	0.245551	0.952665
	N1986	N	0.164303	0.261319	0.547801
	N1987	N	0.226894	0.198907	0.547343
	N1988	N	0.164366	0.261449	0.952343
	N1989	N	0.226966	0.199099	0.952735
	N1990	N	0.116518	0.308222	0.546908
	N1991	N	0.179058	0.245710	0.546789
	N1992	N	0.165212	0.240790	0.702713
	N1993	N	0.223285	0.339939	0.701547
	N1994	N	0.125683	0.160304	0.797443
	N1995	N	0.178198	0.266175	0.796797
	N1996	N	0.125673	0.160280	0.702831
	N1997	N	0.178227	0.266147	0.702045
	N1998	N	0.165222	0.240778	0.797278
	N1999	N	0.223312	0.339858	0.796597
	H2000	H	0.117985	0.455540	0.347900
	H2001	H	0.180599	0.393344	0.347254
	H2002	H	0.154537	0.428959	0.148898
	H2003	H	0.217151	0.366552	0.149710
	H2004	H	0.154767	0.429259	0.348778
	H2005	H	0.217075	0.366292	0.349300
	H2006	H	0.118138	0.455753	0.149461
	H2007	H	0.180595	0.393351	0.150969
	H2008	H	0.153836	0.391706	0.098578
	H2009	H	0.225207	0.399624	0.097551
	H2010	H	0.122191	0.340047	0.398632
	H2011	H	0.186898	0.420443	0.400620
	H2012	H	0.122362	0.339865	0.099828
	H2013	H	0.186817	0.420461	0.098048
	H2014	H	0.153846	0.391720	0.398698
	H2015	H	0.225124	0.399558	0.399944
	H2016	H	0.129560	0.445581	0.352605
	H2017	H	0.192069	0.382857	0.351676
	H2018	H	0.142444	0.437331	0.145960
	H2019	H	0.204800	0.374334	-0.147033
	H2020	H	0.142316	0.437016	0.352470
	H2021	H	0.204872	0.374290	0.352338
	H2022	H	0.129626	0.445818	0.145667
	H2023	H	0.192074	0.383110	-0.147373
	H2024	H	0.142648	0.376147	0.324885
	H2025	H	0.212146	0.404917	0.398092
	H2026	H	0.133064	0.356218	0.174672
	H2027	H	0.199579	0.413957	0.099499
	H2028	H	0.131672	0.358188	0.325157
	H2029	H	0.199409	0.413402	0.398503
	H2030	H	0.144042	0.374193	0.173996
	H2031	H	0.212297	0.405476	0.098904
	Co2032	Co	0.243519	0.407533	0.125112
	Co2033	Co	0.168698	0.413472	0.124777
	Co2034	Co	0.109197	0.316056	0.373847
	Co2035	Co	0.168751	0.413401	0.373488
	C2036	C	0.117097	0.456973	0.422228
	C2037	C	0.179633	0.394629	0.421556
	C2038	C	0.155779	0.428101	0.075826
	C2039	C	0.218304	0.365558	0.076060
	C2040	C	0.155930	0.428257	0.422270
	C2041	C	0.218306	0.365456	0.422809
	C2042	C	0.117130	0.457105	0.075675
	C2043	C	0.179650	0.394743	0.076454
	C2044	C	0.154914	0.393402	0.171984
	C2045	C	0.226691	0.399824	0.171957
	C2046	C	0.121241	0.338265	0.325706
	C2047	C	0.185425	0.420378	0.326498
	C2048	C	0.121345	0.338168	0.172902
	C2049	C	0.185399	0.420399	0.172071
	C2050	C	0.154903	0.393408	0.325224
	C2051	C	0.226658	0.399804	0.326090
	C2052	C	0.121107	0.452537	0.499158
	C2053	C	0.183630	0.390212	-0.000562
	C2054	C	0.151369	0.431425	0.498689
	C2055	C	0.213759	0.368742	-0.000547
	C2056	C	0.150899	0.387257	0.248453
	C2057	C	0.221495	0.400447	0.248896
	C2058	C	0.125067	0.344740	0.249481
	C2059	C	0.190472	0.419166	0.249191
	C2060	C	0.128467	0.446427	0.498953
	C2061	C	0.190986	0.384072	-0.000401
	C2062	C	0.143588	0.436423	0.498838
	C2063	C	0.206019	0.373866	-0.000361
	C2064	C	0.144257	0.376638	0.248808
	C2065	C	0.213368	0.404350	0.248579
	C2066	C	0.131489	0.355684	0.249623
	C2067	C	0.198396	0.414626	0.248947
	C2068	C	0.132301	0.443722	0.417354
	C2069	C	0.194806	0.381094	0.416830
	C2070	C	0.139632	0.438998	0.080844
	C2071	C	0.202088	0.376343	-0.082154
	C2072	C	0.139608	0.438872	0.417322
	C2073	C	0.202101	0.376191	0.417148
	C2074	C	0.132323	0.443856	0.080714
	C2075	C	0.194810	0.381278	-0.082202
	C2076	C	0.140557	0.371818	0.291564
	C2077	C	0.209461	0.406841	0.331775
	C2078	C	0.135124	0.360564	0.207409
	C2079	C	0.202272	0.412035	0.165733
	C2080	C	0.134361	0.361642	0.291829
	C2081	C	0.202186	0.411743	0.332076
	C2082	C	0.141322	0.370733	0.207010
	C2083	C	0.209559	0.407163	0.165517
	N2084	N	0.111477	0.463950	0.451284
	N2085	N	0.173988	0.401555	0.450745
	N2086	N	0.162422	0.423287	0.047255
	N2087	N	0.224899	0.360625	0.047385
	N2088	N	0.162498	0.423282	0.450981
	N2089	N	0.224915	0.360585	0.451563
	N2090	N	0.111509	0.464098	0.046674
	N2091	N	0.174003	0.401667	0.047552
	N2092	N	0.160818	0.402470	0.201137
	N2093	N	0.234452	0.399620	0.200446
	N2094	N	0.115763	0.328610	0.296647
	N2095	N	0.177706	0.421410	0.298272
	N2096	N	0.115819	0.328558	0.201610
	N2097	N	0.177691	0.421374	0.200578
	N2098	N	0.160823	0.402485	0.296473
	N2099	N	0.234432	0.399554	0.297792
	H2100	H	0.117972	0.455645	0.847497
	H2101	H	0.180547	0.393174	0.848664
	H2102	H	0.154563	0.428869	0.648881
	H2103	H	0.217010	0.366275	0.648909
	H2104	H	0.154502	0.428868	0.849370
	H2105	H	0.217061	0.366292	0.849437
	H2106	H	0.118148	0.455701	0.650341
	H2107	H	0.180587	0.393116	0.649182
	H2108	H	0.153969	0.391492	0.599172
	H2109	H	0.225133	0.399550	0.597878
	H2110	H	0.122237	0.340014	0.898770
	H2111	H	0.186820	0.420603	0.900611
	H2112	H	0.122292	0.339975	0.600780
	H2113	H	0.186875	0.420435	0.597562
	H2114	H	0.153874	0.391625	0.899589
	H2115	H	0.225116	0.399321	0.900301
	H2116	H	0.129401	0.445123	0.852189
	H2117	H	0.192102	0.383239	1.146671
	H2118	H	0.142385	0.436992	0.645282
	H2119	H	0.204819	0.374448	0.645700
	H2120	H	0.142161	0.436514	0.852714
	H2121	H	0.204860	0.374589	1.146592
	H2122	H	0.129606	0.445561	0.645230
	H2123	H	0.192060	0.383155	0.645434
	H2124	H	0.143596	0.374688	0.677834
	H2125	H	0.212126	0.404968	0.898340
	H2126	H	0.132128	0.357374	0.822367
	H2127	H	0.199403	0.413686	0.599743
	H2128	H	0.132621	0.356789	0.678040
	H2129	H	0.199406	0.413565	0.898299
	H2130	H	0.143088	0.375318	0.822681
	H2131	H	0.212151	0.405209	0.599915
	Co2132	Co	0.243432	0.407449	0.624911
	Co2133	Co	0.168713	0.413279	0.624607
	Co2134	Co	0.109145	0.315991	0.873830
	Co2135	Co	0.168697	0.413363	0.873860
	C2136	C	0.117073	0.457042	0.921619
	C2137	C	0.179614	0.394661	0.922554
	C2138	C	0.155848	0.428064	0.575368
	C2139	C	0.218278	0.365425	0.575843
	C2140	C	0.155787	0.428079	0.922524
	C2141	C	0.218257	0.365441	0.922935
	C2142	C	0.117111	0.457013	0.576008
	C2143	C	0.179644	0.394594	0.575570
	C2144	C	0.154970	0.393192	0.672857
	C2145	C	0.226590	0.399795	0.671858
	C2146	C	0.121198	0.338253	0.825924
	C2147	C	0.185328	0.420441	0.826243
	C2148	C	0.121234	0.338234	0.673479
	C2149	C	0.185345	0.420338	0.672008
	C2150	C	0.154917	0.393280	0.826120
	C2151	C	0.226590	0.399656	0.826075
	C2152	C	0.121076	0.452574	0.998612
	C2153	C	0.183622	0.390099	0.498422
	C2154	C	0.151285	0.431370	0.999116
	C2155	C	0.213802	0.368771	0.499157
	C2156	C	0.150907	0.387031	0.749496
	C2157	C	0.221416	0.400348	0.749040
	C2158	C	0.124959	0.344767	0.749864
	C2159	C	0.190412	0.419221	0.749256
	C2160	C	0.128425	0.446427	0.998719
	C2161	C	0.190977	0.383955	0.498639
	C2162	C	0.143513	0.436365	0.999230
	C2163	C	0.206016	0.373785	0.499018
	C2164	C	0.144279	0.376443	0.749714
	C2165	C	0.213318	0.404342	0.749129
	C2166	C	0.131469	0.355562	0.750107
	C2167	C	0.198336	0.414655	0.749197
	C2168	C	0.132206	0.443438	0.917257
	C2169	C	0.194839	0.381381	1.081501
	C2170	C	0.139648	0.438862	0.580329
	C2171	C	0.202090	0.376326	0.580777
	C2172	C	0.139507	0.438586	0.917563
	C2173	C	0.202120	0.376437	1.081621
	C2174	C	0.132331	0.443685	0.580478
	C2175	C	0.194791	0.381235	0.580536
	C2176	C	0.141112	0.370954	0.709474
	C2177	C	0.209434	0.406910	0.832143
	C2178	C	0.134632	0.361118	0.790435
	C2179	C	0.202161	0.411942	0.666082
	C2180	C	0.134905	0.360802	0.709703
	C2181	C	0.202178	0.411863	0.832110
	C2182	C	0.140840	0.371283	0.790351
	C2183	C	0.209420	0.406980	0.666117
	N2184	N	0.111456	0.464001	0.950763
	N2185	N	0.173965	0.401580	0.951533
	N2186	N	0.162437	0.423190	0.547266
	N2187	N	0.224909	0.360610	0.547354
	N2188	N	0.162412	0.423246	0.951221
	N2189	N	0.224879	0.360602	0.951285
	N2190	N	0.111453	0.463928	0.547070
	N2191	N	0.174004	0.401545	0.546769
	N2192	N	0.160842	0.402267	0.701878
	N2193	N	0.234379	0.399532	0.700340
	N2194	N	0.115676	0.328642	0.797017
	N2195	N	0.177627	0.421364	0.797827
	N2196	N	0.115677	0.328640	0.701978
	N2197	N	0.177632	0.421327	0.699997
	N2198	N	0.160812	0.402340	0.796990
	N2199	N	0.234381	0.399439	0.797574
	H2200	H	0.130799	0.513289	0.348668
	H2201	H	0.193276	0.450691	0.349169
	H2202	H	0.168826	0.489514	0.150428
	H2203	H	0.231196	0.426836	0.150138
	H2204	H	0.168642	0.489160	0.347337
	H2205	H	0.231175	0.426693	0.348238
	H2206	H	0.131039	0.513779	0.150769
	H2207	H	0.193410	0.451141	0.151004
	H2208	H	0.162663	0.462242	0.097527
	H2209	H	0.238353	0.459422	0.098247
	H2210	H	0.124329	0.482967	0.400374
	H2211	H	0.199319	0.477824	0.401485
	H2212	H	0.124351	0.482768	0.098157
	H2213	H	0.199374	0.478080	0.099020
	H2214	H	0.162617	0.461929	0.399731
	H2215	H	0.238333	0.459264	0.400529
	H2216	H	0.143476	0.505468	0.648470
	H2217	H	0.205935	0.442961	0.649768
	H2218	H	0.156608	0.498170	0.149553
	H2219	H	0.218940	0.435296	0.149220
	H2220	H	0.156510	0.497881	0.648902
	H2221	H	0.218974	0.435326	0.649384
	H2222	H	0.143501	0.505745	0.149309
	H2223	H	0.205818	0.442772	0.149442
	H2224	H	0.149680	0.467413	0.397659
	H2225	H	0.225366	0.464698	0.399821
	H2226	H	0.136987	0.476283	0.100371
	H2227	H	0.212278	0.472504	0.099692
	H2228	H	0.136897	0.475888	0.398518
	H2229	H	0.212341	0.472393	0.400033
	H2230	H	0.149697	0.467920	0.099591
	H2231	H	0.225267	0.464724	0.099207
	Co2232	Co	0.256643	0.467627	0.125004
	Co2233	Co	0.181019	0.470156	0.125153
	Co2234	Co	0.106163	0.475677	0.373015
	Co2235	Co	0.180963	0.469870	0.373643
	C2236	C	0.129917	0.514841	0.422714
	C2237	C	0.192327	0.452145	0.423554
	C2238	C	0.169800	0.488137	0.076310
	C2239	C	0.232225	0.425470	0.075762
	C2240	C	0.169695	0.487857	0.421396
	C2241	C	0.232224	0.425389	0.422399
	C2242	C	0.129944	0.514927	0.076715
	C2243	C	0.192392	0.452363	0.076655
	C2244	C	0.164176	0.462452	0.171505
	C2245	C	0.239826	0.459682	0.172111
	C2246	C	0.122833	0.482863	0.326186
	C2247	C	0.197842	0.477692	0.327287
	C2248	C	0.122859	0.482789	0.172035
	C2249	C	0.197882	0.477774	0.173103
	C2250	C	0.164142	0.462235	0.325616
	C2251	C	0.239807	0.459529	0.326407
	C2252	C	0.134306	0.511145	0.499667
	C2253	C	0.196699	0.448442	-0.000222
	C2254	C	0.165489	0.491949	0.498461
	C2255	C	0.227924	0.429381	-0.000848
	C2256	C	0.158966	0.462978	0.248529
	C2257	C	0.234624	0.460167	0.249410
	C2258	C	0.127940	0.481653	0.249502
	C2259	C	0.203032	0.477069	0.250410
	C2260	C	0.142117	0.506094	0.499020
	C2261	C	0.204521	0.443448	-0.000417
	C2262	C	0.157741	0.497195	0.499076
	C2263	C	0.220174	0.434609	-0.000523
	C2264	C	0.150866	0.466909	0.248867
	C2265	C	0.226452	0.463853	0.249579
	C2266	C	0.135871	0.477131	0.249676
	C2267	C	0.211182	0.473282	0.250120
	C2268	C	0.146240	0.503826	0.581764
	C2269	C	0.208646	0.441192	0.582880
	C2270	C	0.153782	0.499707	0.082981
	C2271	C	0.216137	0.436912	0.082508
	C2272	C	0.153752	0.499509	0.582235
	C2273	C	0.216159	0.436874	0.582822
	C2274	C	0.146255	0.504000	0.082776
	C2275	C	0.208587	0.441138	0.082481
	C2276	C	0.146963	0.469349	0.331839
	C2277	C	0.222557	0.466306	0.333202
	C2278	C	0.139715	0.474477	0.166592
	C2279	C	0.215094	0.470861	0.166238
	C2280	C	0.139686	0.474272	0.332311
	C2281	C	0.215142	0.470829	0.333475
	C2282	C	0.146992	0.469581	0.166098
	C2283	C	0.222500	0.466327	0.166131
	N2284	N	0.123718	0.520786	0.451269
	N2285	N	0.186198	0.458200	0.451646
	N2286	N	0.175823	0.481879	0.047673
	N2287	N	0.238285	0.419249	0.047162
	N2288	N	0.175815	0.481767	0.450395
	N2289	N	0.238298	0.419242	0.451027
	N2290	N	0.123768	0.520878	0.047891
	N2291	N	0.186214	0.458303	0.048284
	N2292	N	0.171949	0.462155	0.200156
	N2293	N	0.247616	0.459586	0.200585
	N2294	N	0.115126	0.483788	0.297830
	N2295	N	0.190063	0.477886	0.298593
	N2296	N	0.115155	0.483762	0.200133
	N2297	N	0.190083	0.477956	0.201475
	N2298	N	0.171926	0.462029	0.297486
	N2299	N	0.247596	0.459473	0.297890
	H2300	H	0.130974	0.513584	0.848844
	H2301	H	0.193267	0.450839	0.848697
	H2302	H	0.168803	0.489565	0.649784
	H2303	H	0.231171	0.426714	0.650249
	H2304	H	0.168572	0.488935	0.848325
	H2305	H	0.231105	0.426638	0.848129
	H2306	H	0.131107	0.513973	0.651093
	H2307	H	0.193533	0.451337	0.651787
	H2308	H	0.162708	0.462367	0.597343
	H2309	H	0.238143	0.459379	0.597355
	H2310	H	0.124446	0.482948	0.900251
	H2311	H	0.199176	0.477861	0.901138
	H2312	H	0.124374	0.483008	0.597524
	H2313	H	0.199262	0.478567	0.598957
	H2314	H	0.162585	0.461781	0.899695
	H2315	H	0.238179	0.459223	0.901040
	H2316	H	0.143305	0.505260	0.849772
	H2317	H	0.205818	0.442860	0.849530
	H2318	H	0.156459	0.497903	0.350129
	H2319	H	0.218814	0.435083	0.350001
	H2320	H	0.156321	0.497594	0.850117
	H2321	H	0.218858	0.435226	0.849890
	H2322	H	0.143296	0.505340	0.349880
	H2323	H	0.205708	0.442614	0.350126
	H2324	H	0.149696	0.467603	0.897750
	H2325	H	0.225226	0.464866	0.899377
	H2326	H	0.137017	0.476240	0.599118
	H2327	H	0.212290	0.472923	0.599882
	H2328	H	0.136945	0.476161	0.897817
	H2329	H	0.212216	0.472630	0.899998
	H2330	H	0.149666	0.467692	0.599623
	H2331	H	0.225172	0.464967	0.599687
	Co2332	Co	0.256528	0.467385	0.624622
	Co2333	Co	0.180997	0.470142	0.625276
	Co2334	Co	0.106206	0.475881	0.873707
	Co2335	Co	0.180870	0.469783	0.873546
	C2336	C	0.129937	0.514861	0.922790
	C2337	C	0.192307	0.452193	0.922844
	C2338	C	0.169813	0.488112	0.575525
	C2339	C	0.232218	0.425483	0.576309
	C2340	C	0.169653	0.487798	0.922602
	C2341	C	0.232169	0.425383	0.922009
	C2342	C	0.130006	0.515009	0.576652
	C2343	C	0.192460	0.452456	0.577255
	C2344	C	0.164152	0.462420	0.671580
	C2345	C	0.239639	0.459615	0.671845
	C2346	C	0.122875	0.482825	0.826169
	C2347	C	0.197708	0.477696	0.827088
	C2348	C	0.122857	0.482832	0.672008
	C2349	C	0.197765	0.478105	0.672993
	C2350	C	0.164100	0.462086	0.825671
	C2351	C	0.239665	0.459523	0.826232
	C2352	C	0.134290	0.511119	0.999976
	C2353	C	0.196720	0.448427	0.500399
	C2354	C	0.165460	0.491959	0.999623
	C2355	C	0.227922	0.429356	0.499197
	C2356	C	0.158946	0.462923	0.748746
	C2357	C	0.234490	0.460228	0.749219
	C2358	C	0.127950	0.481680	0.749061
	C2359	C	0.202917	0.477324	0.750070
	C2360	C	0.142111	0.506109	0.999845
	C2361	C	0.204514	0.443372	0.499927
	C2362	C	0.157723	0.497193	0.999859
	C2363	C	0.220157	0.434538	0.499503
	C2364	C	0.150848	0.466885	0.748864
	C2365	C	0.226348	0.464073	0.749579
	C2366	C	0.135879	0.477174	0.748770
	C2367	C	0.211081	0.473537	0.750041
	C2368	C	0.146097	0.503732	0.916493
	C2369	C	0.208579	0.441218	0.916278
	C2370	C	0.153657	0.499521	0.416646
	C2371	C	0.216061	0.436774	0.416773
	C2372	C	0.153612	0.499408	0.916875
	C2373	C	0.216084	0.436874	0.916416
	C2374	C	0.146126	0.503784	0.416094
	C2375	C	0.208522	0.441033	0.416721
	C2376	C	0.146979	0.469466	0.831682
	C2377	C	0.222419	0.466512	0.833039
	C2378	C	0.139696	0.474433	0.665809
	C2379	C	0.215043	0.471203	0.666649
	C2380	C	0.139696	0.474359	0.831501
	C2381	C	0.215012	0.471043	0.833287
	C2382	C	0.146957	0.469487	0.665978
	C2383	C	0.222437	0.466648	0.666402
	N2384	N	0.123750	0.520815	0.951291
	N2385	N	0.186137	0.458162	0.951552
	N2386	N	0.175862	0.481874	0.546707
	N2387	N	0.238284	0.419260	0.547592
	N2388	N	0.175731	0.481673	0.951010
	N2389	N	0.238252	0.419178	0.950667
	N2390	N	0.123800	0.520899	0.547982
	N2391	N	0.186266	0.458370	0.548603
	N2392	N	0.171915	0.462131	0.700300
	N2393	N	0.247430	0.459405	0.700131
	N2394	N	0.115163	0.483820	0.798159
	N2395	N	0.189938	0.477914	0.798480
	N2396	N	0.115141	0.483807	0.700318
	N2397	N	0.189971	0.478173	0.701284
	N2398	N	0.171881	0.461898	0.797444
	N2399	N	0.247446	0.459278	0.797371
	H2400	H	0.143818	0.573097	0.348457
	H2401	H	0.206128	0.510314	0.348322
	H2402	H	0.181662	0.549178	0.149581
	H2403	H	0.244197	0.486613	0.150624
	H2404	H	0.181437	0.548717	0.347929
	H2405	H	0.244089	0.486414	0.348276
	H2406	H	0.143839	0.573212	0.150727
	H2407	H	0.206334	0.510925	0.151520
	H2408	H	0.175768	0.522176	0.096830
	H2409	H	0.250634	0.516837	0.098957
	H2410	H	0.136763	0.540755	0.401423
	H2411	H	0.212273	0.537461	0.401701
	H2412	H	0.136772	0.540790	0.098775
	H2413	H	0.212353	0.538166	0.099108
	H2414	H	0.175717	0.521642	0.399483
	H2415	H	0.250619	0.516872	0.401766
	H2416	H	0.156102	0.564741	0.350348
	H2417	H	0.218681	0.502241	0.649528
	H2418	H	0.169064	0.556933	-0.150835
	H2419	H	0.231630	0.494552	0.150327
	H2420	H	0.169232	0.557224	0.349705
	H2421	H	0.231749	0.494722	0.649336
	H2422	H	0.155969	0.564341	-0.150091
	H2423	H	0.218542	0.502041	0.150276
	H2424	H	0.162838	0.527856	0.098719
	H2425	H	0.237967	0.523630	0.099949
	H2426	H	0.149826	0.535054	0.399848
	H2427	H	0.225275	0.532232	0.399834
	H2428	H	0.149825	0.535593	0.099519
	H2429	H	0.225275	0.532150	0.100277
	H2430	H	0.162769	0.527296	0.398854
	H2431	H	0.238035	0.523768	0.399739
	Co2432	Co	0.268759	0.524050	0.125496
	Co2433	Co	0.194075	0.530164	0.125261
	Co2434	Co	0.118420	0.532451	0.373638
	Co2435	Co	0.193980	0.529785	0.373634
	C2436	C	0.142820	0.574501	0.422849
	C2437	C	0.205199	0.511803	0.423036
	C2438	C	0.182692	0.547804	0.075526
	C2439	C	0.245173	0.485225	0.076315
	C2440	C	0.182539	0.547479	0.422137
	C2441	C	0.245137	0.485107	0.422350
	C2442	C	0.142826	0.574562	0.076501
	C2443	C	0.205307	0.512117	0.077137
	C2444	C	0.177259	0.522396	0.170914
	C2445	C	0.252090	0.516995	0.173003
	C2446	C	0.135284	0.540418	0.327025
	C2447	C	0.210827	0.537458	0.327460
	C2448	C	0.135297	0.540488	0.172786
	C2449	C	0.210888	0.537811	0.173322
	C2450	C	0.177226	0.522138	0.325081
	C2451	C	0.252094	0.516955	0.327385
	C2452	C	0.147090	0.570534	0.499788
	C2453	C	0.209510	0.507956	0.000347
	C2454	C	0.178261	0.551414	0.499119
	C2455	C	0.240736	0.488891	-0.000300
	C2456	C	0.172081	0.522908	0.248093
	C2457	C	0.247004	0.518084	0.250309
	C2458	C	0.140486	0.539900	0.249972
	C2459	C	0.216008	0.536968	0.250556
	C2460	C	0.154858	0.565380	0.499969
	C2461	C	0.217256	0.502739	0.000237
	C2462	C	0.170474	0.556532	0.499368
	C2463	C	0.232917	0.493934	-0.000107
	C2464	C	0.163921	0.526700	0.248477
	C2465	C	0.239074	0.522608	0.250173
	C2466	C	0.148641	0.536133	0.249632
	C2467	C	0.224116	0.532967	0.250362
	C2468	C	0.158903	0.563091	0.416865
	C2469	C	0.221416	0.500544	0.582497
	C2470	C	0.166344	0.558644	-0.083928
	C2471	C	0.228843	0.496136	0.083380
	C2472	C	0.166440	0.558855	0.416456
	C2473	C	0.228937	0.496274	0.582553
	C2474	C	0.158810	0.562891	-0.083619
	C2475	C	0.221297	0.500356	0.083370
	C2476	C	0.159981	0.529295	0.165324
	C2477	C	0.235256	0.525364	0.166735
	C2478	C	0.152588	0.533588	0.332670
	C2479	C	0.228014	0.530407	0.333654
	C2480	C	0.152572	0.533821	0.166076
	C2481	C	0.228007	0.530362	0.166819
	C2482	C	0.159981	0.529038	0.332297
	C2483	C	0.235263	0.525449	0.333294
	N2484	N	0.136750	0.580685	0.451345
	N2485	N	0.199150	0.518011	0.451644
	N2486	N	0.188816	0.541733	0.046794
	N2487	N	0.251351	0.479262	0.047410
	N2488	N	0.188707	0.541512	0.450672
	N2489	N	0.251310	0.479148	0.450915
	N2490	N	0.136742	0.580744	0.047789
	N2491	N	0.199232	0.518280	0.048411
	N2492	N	0.185030	0.522062	0.199531
	N2493	N	0.259812	0.516093	0.201383
	N2494	N	0.127493	0.540511	0.298401
	N2495	N	0.203067	0.537764	0.298950
	N2496	N	0.127502	0.540559	0.201287
	N2497	N	0.203086	0.538001	0.201668
	N2498	N	0.185015	0.521905	0.296649
	N2499	N	0.259803	0.516042	0.299126
	H2500	H	0.143781	0.573089	0.849007
	H2501	H	0.206194	0.510449	0.849890
	H2502	H	0.181655	0.548980	0.650324
	H2503	H	0.244151	0.486432	0.650255
	H2504	H	0.181422	0.548601	0.847397
	H2505	H	0.243905	0.486141	0.848726
	H2506	H	0.143822	0.573225	0.651267
	H2507	H	0.206496	0.511024	0.651070
	H2508	H	0.175792	0.522020	0.597113
	H2509	H	0.250650	0.517014	0.597581
	H2510	H	0.136796	0.540705	0.900500
	H2511	H	0.212312	0.537824	0.901578
	H2512	H	0.136768	0.540739	0.597566
	H2513	H	0.212415	0.537998	0.598824
	H2514	H	0.175686	0.521459	0.899784
	H2515	H	0.250593	0.516683	0.900820
	H2516	H	0.156221	0.564850	1.149173
	H2517	H	0.218564	0.502206	0.850368
	H2518	H	0.169187	0.557153	0.649333
	H2519	H	0.231659	0.494441	0.349622
	H2520	H	0.169346	0.557398	1.148573
	H2521	H	0.231670	0.494690	0.850081
	H2522	H	0.156144	0.564725	0.649962
	H2523	H	0.218557	0.502069	0.349447
	H2524	H	0.162722	0.527510	0.598494
	H2525	H	0.238049	0.523834	0.600103
	H2526	H	0.149750	0.535130	0.899777
	H2527	H	0.225370	0.532336	0.899740
	H2528	H	0.149830	0.535369	0.599049
	H2529	H	0.225338	0.532421	0.600323
	H2530	H	0.162704	0.527224	0.899169
	H2531	H	0.238047	0.523724	0.899669
	Co2532	Co	0.268808	0.524052	0.625505
	Co2533	Co	0.194128	0.530079	0.625076
	Co2534	Co	0.118517	0.532481	0.873846
	Co2535	Co	0.194008	0.529811	0.873598
	C2536	C	0.142798	0.574466	0.922961
	C2537	C	0.205185	0.511803	0.923618
	C2538	C	0.182675	0.547704	0.575944
	C2539	C	0.245155	0.485143	0.576270
	C2540	C	0.182568	0.547518	0.921610
	C2541	C	0.245012	0.484996	0.922865
	C2542	C	0.142821	0.574518	0.576672
	C2543	C	0.205430	0.512176	0.576730
	C2544	C	0.177261	0.522281	0.671592
	C2545	C	0.252144	0.517055	0.672154
	C2546	C	0.135314	0.540482	0.826489
	C2547	C	0.210856	0.537647	0.827400
	C2548	C	0.135316	0.540438	0.672034
	C2549	C	0.210911	0.537812	0.673153
	C2550	C	0.177212	0.521906	0.825854
	C2551	C	0.252115	0.516929	0.826761
	C2552	C	0.147068	0.570518	0.999799
	C2553	C	0.209608	0.508057	0.499653
	C2554	C	0.178290	0.551446	0.998454
	C2555	C	0.240791	0.488916	0.499221
	C2556	C	0.172036	0.522675	0.748774
	C2557	C	0.247027	0.518126	0.749484
	C2558	C	0.140465	0.539806	0.749316
	C2559	C	0.216068	0.537064	0.750444
	C2560	C	0.154826	0.565302	0.999634
	C2561	C	0.217360	0.502860	0.499283
	C2562	C	0.170477	0.556502	0.998838
	C2563	C	0.232969	0.493960	0.499294
	C2564	C	0.163868	0.526461	0.748849
	C2565	C	0.239120	0.522720	0.749865
	C2566	C	0.148596	0.535967	0.749398
	C2567	C	0.224166	0.533076	0.750236
	C2568	C	0.158955	0.563151	1.082393
	C2569	C	0.221323	0.500509	0.917136
	C2570	C	0.166406	0.558766	0.582542
	C2571	C	0.228877	0.496147	0.416174
	C2572	C	0.166490	0.558891	1.082090
	C2573	C	0.228849	0.496224	0.916901
	C2574	C	0.158887	0.563068	0.583052
	C2575	C	0.221359	0.500458	0.416113
	C2576	C	0.159958	0.529039	0.665590
	C2577	C	0.235317	0.525591	0.666666
	C2578	C	0.152541	0.533525	0.832873
	C2579	C	0.228069	0.530473	0.833281
	C2580	C	0.152562	0.533587	0.665796
	C2581	C	0.228060	0.530575	0.666692
	C2582	C	0.159937	0.528930	0.832366
	C2583	C	0.235328	0.525489	0.833219
	N2584	N	0.136725	0.580679	0.951419
	N2585	N	0.199168	0.518109	0.951920
	N2586	N	0.188824	0.541697	0.547256
	N2587	N	0.251324	0.479158	0.547462
	N2588	N	0.188743	0.541567	0.950390
	N2589	N	0.251208	0.479069	0.950898
	N2590	N	0.136776	0.580758	0.547827
	N2591	N	0.199287	0.518231	0.548130
	N2592	N	0.185029	0.522055	0.699984
	N2593	N	0.259851	0.516084	0.700803
	N2594	N	0.127519	0.540647	0.797840
	N2595	N	0.203094	0.537864	0.798715
	N2596	N	0.127535	0.540645	0.700511
	N2597	N	0.203116	0.538009	0.701494
	N2598	N	0.185022	0.521842	0.797304
	N2599	N	0.259812	0.516005	0.798602
	H2600	H	0.157912	0.633495	0.350136
	H2601	H	0.220281	0.570646	0.350613
	H2602	H	0.194479	0.606865	0.150234
	H2603	H	0.256957	0.544280	0.151280
	H2604	H	0.194415	0.606531	0.348016
	H2605	H	0.256852	0.544163	0.348922
	H2606	H	0.157842	0.633477	0.150045
	H2607	H	0.220425	0.571131	0.150119
	H2608	H	0.188245	0.579479	0.098336
	H2609	H	0.252671	0.659955	0.101413
	H2610	H	0.149854	0.600349	0.401079
	H2611	H	0.221334	0.608053	0.399873
	H2612	H	0.149905	0.600433	0.098525
	H2613	H	0.221069	0.608453	0.100058
	H2614	H	0.188169	0.579262	0.400694
	H2615	H	0.252829	0.659927	0.399495
	H2616	H	0.170292	0.625599	0.646786
	H2617	H	0.232718	0.562982	0.647229
	H2618	H	0.182854	0.616762	-0.146880
	H2619	H	0.245328	0.554150	0.146886
	H2620	H	0.183052	0.617040	0.646429
	H2621	H	0.245514	0.554374	0.646932
	H2622	H	0.170091	0.625352	-0.146764
	H2623	H	0.232613	0.562878	0.146385
	H2624	H	0.175636	0.586484	0.100203
	H2625	H	0.243025	0.642257	0.228896
	H2626	H	0.162839	0.594676	0.399645
	H2627	H	0.231229	0.625423	0.271868
	H2628	H	0.162940	0.594994	0.100170
	H2629	H	0.232052	0.624371	0.227550
	H2630	H	0.175568	0.586105	0.399670
	H2631	H	0.242171	0.643404	0.271601
	Co2632	Co	0.265839	0.683891	0.125314
	Co2633	Co	0.206318	0.586649	0.125548
	Co2634	Co	0.131580	0.592492	0.373759
	Co2635	Co	0.206316	0.586445	0.374102
	C2636	C	0.156683	0.634317	0.423525
	C2637	C	0.219154	0.571714	0.423841
	C2638	C	0.195378	0.605342	0.076479
	C2639	C	0.257833	0.542754	0.076713
	C2640	C	0.195361	0.605226	0.422144
	C2641	C	0.257851	0.542769	0.423138
	C2642	C	0.156656	0.634359	0.076335
	C2643	C	0.219179	0.571948	0.076458
	C2644	C	0.189692	0.579586	0.172309
	C2645	C	0.253744	0.661698	0.174029
	C2646	C	0.148418	0.600143	0.326916
	C2647	C	0.220167	0.606531	0.326680
	C2648	C	0.148448	0.600172	0.172406
	C2649	C	0.220088	0.606670	0.173111
	C2650	C	0.189670	0.579471	0.326705
	C2651	C	0.253823	0.661671	0.326671
	C2652	C	0.161198	0.631024	0.500112
	C2653	C	0.223669	0.568644	0.000028
	C2654	C	0.191374	0.609725	0.499145
	C2655	C	0.253812	0.547200	-0.000194
	C2656	C	0.184607	0.580682	0.249599
	C2657	C	0.250014	0.655122	0.250491
	C2658	C	0.153596	0.599498	0.249801
	C2659	C	0.224099	0.612821	0.249750
	C2660	C	0.168946	0.625971	0.499882
	C2661	C	0.231448	0.563635	-0.000328
	C2662	C	0.184031	0.615865	0.499216
	C2663	C	0.246506	0.553386	-0.000124
	C2664	C	0.176668	0.585213	0.249866
	C2665	C	0.243499	0.644354	0.250626
	C2666	C	0.161706	0.595542	0.249951
	C2667	C	0.230735	0.623407	0.249954
	C2668	C	0.172946	0.623638	0.581466
	C2669	C	0.235436	0.561062	0.582000
	C2670	C	0.180148	0.618680	-0.081875
	C2671	C	0.242640	0.556080	0.081634
	C2672	C	0.180240	0.618728	0.581184
	C2673	C	0.242733	0.556181	0.582009
	C2674	C	0.172859	0.623592	-0.081585
	C2675	C	0.235366	0.561031	0.081441
	C2676	C	0.172865	0.588110	0.166735
	C2677	C	0.240467	0.638662	0.238145
	C2678	C	0.165583	0.592923	0.333159
	C2679	C	0.233797	0.629097	0.262375
	C2680	C	0.165608	0.593056	0.166625
	C2681	C	0.234264	0.628497	0.237626
	C2682	C	0.172837	0.587945	0.333229
	C2683	C	0.240012	0.639258	0.262638
	N2684	N	0.150099	0.639257	0.452008
	N2685	N	0.212567	0.576655	0.452342
	N2686	N	0.201021	0.598403	0.047718
	N2687	N	0.263459	0.535808	0.047834
	N2688	N	0.201034	0.598340	0.451079
	N2689	N	0.263516	0.535874	0.452010
	N2690	N	0.150049	0.639198	0.047640
	N2691	N	0.212545	0.576760	0.047960
	N2692	N	0.197389	0.578596	0.200625
	N2693	N	0.259273	0.671278	0.202574
	N2694	N	0.140648	0.600408	0.298143
	N2695	N	0.214298	0.597416	0.297664
	N2696	N	0.140673	0.600441	0.200870
	N2697	N	0.214236	0.597517	0.202382
	N2698	N	0.197388	0.578531	0.298501
	N2699	N	0.259326	0.671274	0.297523
	H2700	H	0.157947	0.633593	0.849877
	H2701	H	0.220306	0.570849	0.850062
	H2702	H	0.194501	0.606766	0.650032
	H2703	H	0.257014	0.544438	0.650516
	H2704	H	0.194356	0.606585	0.848629
	H2705	H	0.256778	0.543970	0.848911
	H2706	H	0.157847	0.633308	0.650144
	H2707	H	0.220425	0.571169	0.650131
	H2708	H	0.188172	0.579482	0.597104
	H2709	H	0.252683	0.660055	0.600720
	H2710	H	0.149855	0.600477	0.900563
	H2711	H	0.221262	0.608245	0.900030
	H2712	H	0.149913	0.600575	0.598304
	H2713	H	0.221168	0.608559	0.600462
	H2714	H	0.188169	0.579485	0.900390
	H2715	H	0.252977	0.659906	0.899342
	H2716	H	0.170234	0.625653	1.146793
	H2717	H	0.232727	0.563201	0.853094
	H2718	H	0.182823	0.616622	0.352091
	H2719	H	0.245416	0.554281	0.352796
	H2720	H	0.182959	0.616996	1.146488
	H2721	H	0.245419	0.554405	0.853138
	H2722	H	0.170065	0.625215	0.352688
	H2723	H	0.232652	0.562964	0.353437
	H2724	H	0.175570	0.586487	0.599116
	H2725	H	0.242897	0.642657	0.685906
	H2726	H	0.162767	0.594536	0.898882
	H2727	H	0.231386	0.625377	0.814316
	H2728	H	0.162847	0.594981	0.599750
	H2729	H	0.231896	0.624813	0.686817
	H2730	H	0.175488	0.585974	0.898482
	H2731	H	0.242396	0.643203	0.814659
	Co2732	Co	0.265885	0.683897	0.624923
	Co2733	Co	0.206350	0.586737	0.625398
	Co2734	Co	0.131522	0.592429	0.873615
	Co2735	Co	0.206288	0.586569	0.874401
	C2736	C	0.156694	0.634406	0.923226
	C2737	C	0.219123	0.571826	0.923577
	C2738	C	0.195408	0.605332	0.576053
	C2739	C	0.257908	0.542863	0.577092
	C2740	C	0.195342	0.605278	0.922788
	C2741	C	0.257750	0.542639	0.922852
	C2742	C	0.156675	0.634267	0.576683
	C2743	C	0.219229	0.571967	0.576830
	C2744	C	0.189672	0.579671	0.671607
	C2745	C	0.253720	0.661779	0.673550
	C2746	C	0.148354	0.600217	0.826473
	C2747	C	0.220151	0.606587	0.826935
	C2748	C	0.148369	0.600202	0.672360
	C2749	C	0.220104	0.606760	0.673710
	C2750	C	0.189669	0.579603	0.826156
	C2751	C	0.253854	0.661716	0.826172
	C2752	C	0.161183	0.631101	0.999807
	C2753	C	0.223714	0.568564	0.500265
	C2754	C	0.191382	0.609821	0.999602
	C2755	C	0.253912	0.547336	0.500095
	C2756	C	0.184580	0.580781	0.748832
	C2757	C	0.249999	0.655254	0.750046
	C2758	C	0.153538	0.599566	0.749605
	C2759	C	0.224122	0.612869	0.750411
	C2760	C	0.168950	0.626116	1.000069
	C2761	C	0.231492	0.563527	0.500147
	C2762	C	0.184052	0.616006	0.999690
	C2763	C	0.246548	0.553427	0.499817
	C2764	C	0.176645	0.585276	0.748905
	C2765	C	0.243548	0.644401	0.750380
	C2766	C	0.161640	0.595521	0.749578
	C2767	C	0.230734	0.623502	0.750591
	C2768	C	0.172920	0.623697	1.081695
	C2769	C	0.235413	0.561211	0.918081
	C2770	C	0.180141	0.618551	0.417344
	C2771	C	0.242697	0.556152	0.417911
	C2772	C	0.180221	0.618797	1.081287
	C2773	C	0.242684	0.556246	0.918211
	C2774	C	0.172842	0.623451	0.417780
	C2775	C	0.235397	0.561040	0.418153
	C2776	C	0.172833	0.588133	0.665887
	C2777	C	0.240385	0.638859	0.714426
	C2778	C	0.165510	0.592812	0.832611
	C2779	C	0.233893	0.629064	0.786446
	C2780	C	0.165541	0.593031	0.666181
	C2781	C	0.234161	0.628719	0.714679
	C2782	C	0.172782	0.587881	0.832135
	C2783	C	0.240120	0.639201	0.786252
	N2784	N	0.150070	0.639251	0.951606
	N2785	N	0.212506	0.576660	0.952045
	N2786	N	0.201057	0.598430	0.547113
	N2787	N	0.263538	0.535912	0.548102
	N2788	N	0.200976	0.598351	0.951685
	N2789	N	0.263388	0.535710	0.951772
	N2790	N	0.150100	0.639197	0.548239
	N2791	N	0.212624	0.576835	0.548209
	N2792	N	0.197397	0.578698	0.700187
	N2793	N	0.259287	0.671374	0.702229
	N2794	N	0.140592	0.600422	0.797976
	N2795	N	0.214247	0.597564	0.797910
	N2796	N	0.140597	0.600423	0.700723
	N2797	N	0.214225	0.597659	0.702468
	N2798	N	0.197382	0.578674	0.797859
	N2799	N	0.259349	0.671327	0.796921
	H2800	H	0.155256	0.793833	0.350794
	H2801	H	0.217828	0.731466	0.350394
	H2802	H	0.188624	0.761058	0.147000
	H2803	H	0.251393	0.699048	0.148006
	H2804	H	0.188831	0.761466	0.351070
	H2805	H	0.251500	0.699099	0.351573
	H2806	H	0.155473	0.794060	0.147859
	H2807	H	0.218007	0.731576	0.147960
	H2808	H	0.190406	0.722276	0.099693
	H2809	H	0.243345	0.827631	0.100389
	H2810	H	0.158675	0.670849	0.399706
	H2811	H	0.215926	0.771088	0.399134
	H2812	H	0.158610	0.670907	0.099344
	H2813	H	0.215527	0.771418	0.100384
	H2814	H	0.190134	0.722662	0.399149
	H2815	H	0.243563	0.827570	0.398424
	H2816	H	0.165747	0.782289	0.542814
	H2817	H	0.228965	0.721254	0.474502
	H2818	H	0.178120	0.772421	0.058308
	H2819	H	0.240410	0.709369	-0.080920
	H2820	H	0.177464	0.770928	0.543578
	H2821	H	0.240707	0.709858	0.475308
	H2822	H	0.166411	0.783794	0.058684
	H2823	H	0.228681	0.720765	-0.080854
	H2824	H	0.180433	0.704889	0.257431
	H2825	H	0.234421	0.809263	0.241540
	H2826	H	0.168967	0.687802	0.242218
	H2827	H	0.224861	0.789520	0.256465
	H2828	H	0.169483	0.686953	0.257403
	H2829	H	0.224774	0.789735	0.241831
	H2830	H	0.179887	0.705785	0.241923
	H2831	H	0.234532	0.808996	0.256948
	Co2832	Co	0.255494	0.852730	0.124893
	Co2833	Co	0.203368	0.746431	0.124976
	Co2834	Co	0.143774	0.649067	0.374287
	Co2835	Co	0.203351	0.746454	0.373920
	C2836	C	0.154176	0.795019	0.423316
	C2837	C	0.216774	0.732604	0.422870
	C2838	C	0.189893	0.760093	0.074763
	C2839	C	0.252516	0.697865	0.075455
	C2840	C	0.189964	0.760353	0.423625
	C2841	C	0.252567	0.697897	0.423511
	C2842	C	0.154302	0.795239	0.075631
	C2843	C	0.216803	0.732600	0.075303
	C2844	C	0.191323	0.724121	0.173106
	C2845	C	0.244277	0.829489	0.173237
	C2846	C	0.157595	0.669191	0.326178
	C2847	C	0.214857	0.769314	0.325872
	C2848	C	0.157576	0.669204	0.172594
	C2849	C	0.214664	0.769470	0.173306
	C2850	C	0.191191	0.724313	0.326143
	C2851	C	0.244366	0.829476	0.325630
	C2852	C	0.158299	0.791036	0.499383
	C2853	C	0.220830	0.728425	-0.000596
	C2854	C	0.185838	0.764327	0.499465
	C2855	C	0.248382	0.701871	-0.000171
	C2856	C	0.187516	0.717705	0.249743
	C2857	C	0.240940	0.822512	0.249402
	C2858	C	0.161585	0.675333	0.249460
	C2859	C	0.218185	0.776342	0.249476
	C2860	C	0.165286	0.784243	0.499631
	C2861	C	0.227797	0.721668	-0.000311
	C2862	C	0.178865	0.771094	0.499627
	C2863	C	0.241391	0.708598	-0.000082
	C2864	C	0.181053	0.706822	0.249816
	C2865	C	0.235262	0.810741	0.249329
	C2866	C	0.168269	0.685905	0.249795
	C2867	C	0.223994	0.787975	0.249193
	C2868	C	0.168517	0.780292	0.524274
	C2869	C	0.231425	0.718563	0.485204
	C2870	C	0.175527	0.774708	0.032211
	C2871	C	0.237888	0.711893	-0.045614
	C2872	C	0.175124	0.773854	0.524546
	C2873	C	0.238048	0.712148	0.485356
	C2874	C	0.168875	0.781142	0.032309
	C2875	C	0.231256	0.718293	-0.045771
	C2876	C	0.177938	0.701175	0.254072
	C2877	C	0.232371	0.804926	0.244997
	C2878	C	0.171440	0.691495	0.245284
	C2879	C	0.226925	0.793739	0.253170
	C2880	C	0.171739	0.691034	0.254240
	C2881	C	0.226874	0.793892	0.245055
	C2882	C	0.177646	0.701635	0.245328
	C2883	C	0.232398	0.804780	0.253547
	N2884	N	0.148119	0.801045	0.451866
	N2885	N	0.210736	0.738626	0.451850
	N2886	N	0.195942	0.754129	0.046046
	N2887	N	0.258551	0.691839	0.046535
	N2888	N	0.196052	0.754386	0.452304
	N2889	N	0.258602	0.691861	0.452695
	N2890	N	0.148273	0.801254	0.046774
	N2891	N	0.210715	0.738548	0.046529
	N2892	N	0.196829	0.733767	0.201969
	N2893	N	0.249226	0.839768	0.201848
	N2894	N	0.151698	0.660076	0.297288
	N2895	N	0.209749	0.759228	0.297140
	N2896	N	0.151681	0.660086	0.201672
	N2897	N	0.209623	0.759329	0.202036
	N2898	N	0.196750	0.733885	0.297132
	N2899	N	0.249293	0.839737	0.296718
	H2900	H	0.155256	0.793804	0.851145
	H2901	H	0.217829	0.731240	0.850772
	H2902	H	0.188801	0.761344	0.647727
	H2903	H	0.251319	0.698980	0.647389
	H2904	H	0.188992	0.761807	0.850155
	H2905	H	0.251248	0.698791	0.851465
	H2906	H	0.155338	0.794018	0.648064
	H2907	H	0.217990	0.731685	0.646985
	H2908	H	0.190459	0.722129	0.599864
	H2909	H	0.243490	0.827581	0.600591
	H2910	H	0.158577	0.671012	0.899883
	H2911	H	0.215826	0.771113	0.897872
	H2912	H	0.158767	0.670677	0.599904
	H2913	H	0.215512	0.771452	0.600450
	H2914	H	0.190011	0.722919	0.898527
	H2915	H	0.243415	0.827856	0.898933
	H2916	H	0.166081	0.783079	0.938875
	H2917	H	0.228767	0.720869	1.080613
	H2918	H	0.178399	0.773056	0.456358
	H2919	H	0.240240	0.709049	0.522914
	H2920	H	0.177817	0.771711	0.938571
	H2921	H	0.240475	0.709446	1.080781
	H2922	H	0.166671	0.784495	0.456464
	H2923	H	0.228504	0.720350	0.522773
	H2924	H	0.179630	0.705878	0.651669
	H2925	H	0.233906	0.809826	0.674471
	H2926	H	0.169666	0.686948	0.848576
	H2927	H	0.225144	0.789217	0.825074
	H2928	H	0.168650	0.687944	0.651814
	H2929	H	0.224260	0.790256	0.673282
	H2930	H	0.180573	0.704950	0.847720
	H2931	H	0.234744	0.808809	0.825727
	Co2932	Co	0.255549	0.852689	0.624977
	Co2933	Co	0.203395	0.746410	0.624472
	Co2934	Co	0.143797	0.649168	0.874277
	Co2935	Co	0.203385	0.746427	0.873843
	C2936	C	0.154172	0.795098	0.923142
	C2937	C	0.216710	0.732454	0.923177
	C2938	C	0.189941	0.760273	0.575441
	C2939	C	0.252490	0.697848	0.575324
	C2940	C	0.190070	0.760448	0.922554
	C2941	C	0.252437	0.697738	0.923694
	C2942	C	0.154209	0.795092	0.575302
	C2943	C	0.216844	0.732697	0.574689
	C2944	C	0.191381	0.724043	0.672991
	C2945	C	0.244338	0.829488	0.673619
	C2946	C	0.157563	0.669242	0.826646
	C2947	C	0.214859	0.769293	0.825444
	C2948	C	0.157672	0.669061	0.673149
	C2949	C	0.214709	0.769470	0.673316
	C2950	C	0.191163	0.724424	0.825559
	C2951	C	0.244288	0.829604	0.826077
	C2952	C	0.158390	0.791104	0.999051
	C2953	C	0.220931	0.728585	0.498687
	C2954	C	0.185836	0.764391	0.998656
	C2955	C	0.248410	0.701888	0.499136
	C2956	C	0.187499	0.717690	0.749413
	C2957	C	0.240899	0.822590	0.749931
	C2958	C	0.161620	0.675319	0.749958
	C2959	C	0.218193	0.776314	0.749439
	C2960	C	0.165317	0.784313	0.998720
	C2961	C	0.227874	0.721744	0.498742
	C2962	C	0.178913	0.771142	0.998734
	C2963	C	0.241413	0.708591	0.498974
	C2964	C	0.181004	0.706905	0.749587
	C2965	C	0.235130	0.810889	0.749954
	C2966	C	0.168254	0.685933	0.750101
	C2967	C	0.223917	0.788082	0.749447
	C2968	C	0.168692	0.780748	0.964909
	C2969	C	0.231292	0.718347	1.045259
	C2970	C	0.175638	0.775051	0.474979
	C2971	C	0.237798	0.711696	0.512305
	C2972	C	0.175348	0.774318	0.965078
	C2973	C	0.237911	0.711926	1.045234
	C2974	C	0.169018	0.781471	0.475042
	C2975	C	0.231175	0.718098	0.512168
	C2976	C	0.177461	0.701806	0.694875
	C2977	C	0.231979	0.805325	0.707212
	C2978	C	0.171813	0.691043	0.805274
	C2979	C	0.227033	0.793676	0.792095
	C2980	C	0.171275	0.691607	0.694923
	C2981	C	0.226534	0.794242	0.706689
	C2982	C	0.178000	0.701235	0.804985
	C2983	C	0.232481	0.804752	0.792404
	N2984	N	0.148198	0.801185	0.952339
	N2985	N	0.210671	0.738475	0.951986
	N2986	N	0.196038	0.754346	0.546661
	N2987	N	0.258548	0.691820	0.546894
	N2988	N	0.196044	0.754338	0.951707
	N2989	N	0.258502	0.691779	0.952220
	N2990	N	0.148124	0.801071	0.546325
	N2991	N	0.210772	0.738660	0.545896
	N2992	N	0.196873	0.733703	0.701462
	N2993	N	0.249348	0.839694	0.702320
	N2994	N	0.151701	0.660120	0.797488
	N2995	N	0.209832	0.759097	0.796647
	N2996	N	0.151756	0.660021	0.702080
	N2997	N	0.209736	0.759225	0.701891
	N2998	N	0.196732	0.733929	0.796392
	N2999	N	0.249302	0.839776	0.797109
	H3000	H	0.145305	0.963307	0.351794
	H3001	H	0.207755	0.900663	0.352326
	H3002	H	0.178430	0.930027	0.148525
	H3003	H	0.240763	0.867222	0.147736
	H3004	H	0.178278	0.929713	0.351758
	H3005	H	0.240653	0.867014	0.352096
	H3006	H	0.145265	0.963217	0.148735
	H3007	H	0.207692	0.900520	0.148155
	H3008	H	0.181039	0.890187	0.100768
	H3009	H	0.232388	0.997324	0.100930
	H3010	H	0.153307	0.833870	0.397979
	H3011	H	0.204933	0.940696	0.398712
	H3012	H	0.153072	0.834053	0.100398
	H3013	H	0.205195	0.940286	0.100600
	H3014	H	0.180982	0.890222	0.399553
	H3015	H	0.232422	0.997304	0.398946
	H3016	H	0.156499	0.953367	0.424187
	H3017	H	0.218358	0.889442	0.448958
	H3018	H	0.167692	0.940807	0.046658
	H3019	H	0.231325	0.880686	-0.036998
	H3020	H	0.168146	0.941801	0.425072
	H3021	H	0.230009	0.877868	0.448778
	H3022	H	0.156135	0.952566	0.047117
	H3023	H	0.219710	0.892273	-0.036581
	H3024	H	0.171585	0.872183	0.280147
	H3025	H	0.223415	0.978770	0.194071
	H3026	H	0.162721	0.851784	0.219815
	H3027	H	0.213994	0.959082	0.306926
	H3028	H	0.161909	0.852712	0.279339
	H3029	H	0.213943	0.959073	0.193669
	H3030	H	0.172373	0.871252	0.219909
	H3031	H	0.223479	0.978793	0.306960
	Co3032	Co	0.244491	1.022487	0.125643
	Co3033	Co	0.193092	0.915235	0.125361
	Co3034	Co	0.140897	0.809147	0.373840
	Co3035	Co	0.193048	0.915309	0.374658
	C3036	C	0.144136	0.964352	0.424316
	C3037	C	0.206629	0.901790	0.424429
	C3038	C	0.179551	0.928878	0.076117
	C3039	C	0.241935	0.866285	0.075297
	C3040	C	0.179448	0.928697	0.424105
	C3041	C	0.241914	0.866077	0.424199
	C3042	C	0.144144	0.964321	0.076213
	C3043	C	0.206566	0.901628	0.075592
	C3044	C	0.181893	0.892035	0.173928
	C3045	C	0.233300	0.999155	0.173655
	C3046	C	0.152320	0.832009	0.325323
	C3047	C	0.204139	0.938697	0.326083
	C3048	C	0.152210	0.832076	0.173126
	C3049	C	0.204277	0.938496	0.173534
	C3050	C	0.181867	0.892062	0.326558
	C3051	C	0.233298	0.999156	0.325976
	C3052	C	0.148155	0.960125	0.500152
	C3053	C	0.210660	0.897629	-0.000466
	C3054	C	0.175421	0.932915	0.499905
	C3055	C	0.237956	0.870493	-0.000735
	C3056	C	0.178493	0.885050	0.250234
	C3057	C	0.229960	0.992128	0.249893
	C3058	C	0.155686	0.838947	0.249205
	C3059	C	0.207555	0.945604	0.249708
	C3060	C	0.155050	0.953193	0.500238
	C3061	C	0.217606	0.890798	-0.000480
	C3062	C	0.168510	0.939819	0.499773
	C3063	C	0.231051	0.877454	-0.000922
	C3064	C	0.172764	0.873313	0.250231
	C3065	C	0.224255	0.980392	0.250230
	C3066	C	0.161492	0.850586	0.249624
	C3067	C	0.213184	0.957438	0.249939
	C3068	C	0.158801	0.950391	0.457651
	C3069	C	0.220952	0.887069	0.471540
	C3070	C	0.165137	0.943330	0.026182
	C3071	C	0.228257	0.882177	-0.021041
	C3072	C	0.165373	0.943869	0.457586
	C3073	C	0.227523	0.880545	0.471585
	C3074	C	0.158614	0.949950	0.026341
	C3075	C	0.221703	0.888704	-0.020728
	C3076	C	0.169654	0.867726	0.266916
	C3077	C	0.221391	0.974507	0.218821
	C3078	C	0.164632	0.856185	0.233082
	C3079	C	0.216030	0.963366	0.281797
	C3080	C	0.164182	0.856694	0.266468
	C3081	C	0.216004	0.963369	0.218401
	C3082	C	0.170113	0.867204	0.233327
	C3083	C	0.221407	0.974508	0.281875
	N3084	N	0.138096	0.970392	0.453080
	N3085	N	0.200599	0.907861	0.453184
	N3086	N	0.185576	0.922834	0.047423
	N3087	N	0.247984	0.860245	0.046536
	N3088	N	0.185523	0.922750	0.452879
	N3089	N	0.247997	0.860109	0.452615
	N3090	N	0.138062	0.970274	0.047788
	N3091	N	0.200513	0.907627	0.046837
	N3092	N	0.186848	0.902288	0.202885
	N3093	N	0.238234	1.009454	0.202448
	N3094	N	0.147275	0.821815	0.296787
	N3095	N	0.199277	0.928319	0.297507
	N3096	N	0.147201	0.821863	0.201866
	N3097	N	0.199370	0.928189	0.202539
	N3098	N	0.186832	0.902303	0.297684
	N3099	N	0.238211	1.009454	0.297171
	H3100	H	0.145220	0.963172	0.851758
	H3101	H	0.207783	0.900798	0.851186
	H3102	H	0.178608	0.930309	0.647660
	H3103	H	0.240978	0.867604	0.647826
	H3104	H	0.178348	0.929745	0.851494
	H3105	H	0.241013	0.867569	0.851249
	H3106	H	0.145187	0.962951	0.648255
	H3107	H	0.207699	0.900565	0.648178
	H3108	H	0.180826	0.890313	0.600609
	H3109	H	0.232254	0.997350	0.601308
	H3110	H	0.153392	0.833701	0.899061
	H3111	H	0.205029	0.940496	0.899549
	H3112	H	0.153096	0.833959	0.599150
	H3113	H	0.205241	0.940366	0.600993
	H3114	H	0.181016	0.890121	0.898412
	H3115	H	0.232413	0.997190	0.899246
	H3116	H	0.155964	0.952312	0.952776
	H3117	H	0.217346	0.887554	1.035494
	H3118	H	0.167054	0.939535	0.574793
	H3119	H	0.230269	0.878584	0.552591
	H3120	H	0.167515	0.940575	0.952965
	H3121	H	0.228978	0.875926	1.035227
	H3122	H	0.155467	0.951182	0.575924
	H3123	H	0.218609	0.890190	0.551701
	H3124	H	0.171955	0.871787	0.632709
	H3125	H	0.223311	0.978847	0.717378
	H3126	H	0.162271	0.852200	0.866351
	H3127	H	0.214171	0.958805	0.784207
	H3128	H	0.162393	0.852194	0.632167
	H3129	H	0.213834	0.959125	0.717294
	H3130	H	0.171869	0.871772	0.866743
	H3131	H	0.223600	0.978595	0.784741
	Co3132	Co	0.244454	1.022445	0.625544
	Co3133	Co	0.193063	0.915339	0.625495
	Co3134	Co	0.140902	0.809045	0.873547
	Co3135	Co	0.193032	0.915241	0.874372
	C3136	C	0.144126	0.964298	0.924153
	C3137	C	0.206635	0.901799	0.923470
	C3138	C	0.179604	0.929009	0.575661
	C3139	C	0.242060	0.866386	0.575593
	C3140	C	0.179474	0.928743	0.924083
	C3141	C	0.242061	0.866453	0.923501
	C3142	C	0.144062	0.964165	0.576053
	C3143	C	0.206585	0.901685	0.575938
	C3144	C	0.181787	0.892144	0.673255
	C3145	C	0.233224	0.999274	0.673937
	C3146	C	0.152391	0.831900	0.825552
	C3147	C	0.204174	0.938543	0.826654
	C3148	C	0.152260	0.832038	0.672760
	C3149	C	0.204283	0.938487	0.674124
	C3150	C	0.181873	0.892019	0.825939
	C3151	C	0.233293	0.999195	0.826763
	C3152	C	0.148231	0.960272	0.999967
	C3153	C	0.210663	0.897614	0.500098
	C3154	C	0.175431	0.932915	1.000012
	C3155	C	0.237951	0.870378	0.500020
	C3156	C	0.178453	0.885134	0.749547
	C3157	C	0.229856	0.992224	0.750418
	C3158	C	0.155755	0.838903	0.749217
	C3159	C	0.207589	0.945550	0.750524
	C3160	C	0.155116	0.953314	0.999853
	C3161	C	0.217569	0.890682	0.500366
	C3162	C	0.168530	0.939819	0.999857
	C3163	C	0.231037	0.877283	0.500470
	C3164	C	0.172713	0.873430	0.749548
	C3165	C	0.224216	0.980431	0.750937
	C3166	C	0.161515	0.850589	0.749009
	C3167	C	0.213242	0.957339	0.750739
	C3168	C	0.158512	0.949760	0.973579
	C3169	C	0.220394	0.886079	1.019726
	C3170	C	0.164771	0.942618	0.542032
	C3171	C	0.227661	0.880921	0.529340
	C3172	C	0.165042	0.943162	0.973495
	C3173	C	0.226945	0.879553	1.019567
	C3174	C	0.158199	0.949129	0.542482
	C3175	C	0.221082	0.887441	0.529179
	C3176	C	0.169864	0.867510	0.683842
	C3177	C	0.221319	0.974588	0.732244
	C3178	C	0.164377	0.856451	0.814599
	C3179	C	0.216166	0.963174	0.769686
	C3180	C	0.164437	0.856420	0.683703
	C3181	C	0.215978	0.963355	0.732102
	C3182	C	0.169812	0.867539	0.814914
	C3183	C	0.221507	0.974397	0.769821
	N3184	N	0.138059	0.970286	0.952989
	N3185	N	0.200550	0.907722	0.952306
	N3186	N	0.185604	0.922899	0.546910
	N3187	N	0.248075	0.860274	0.546922
	N3188	N	0.185537	0.922760	0.952996
	N3189	N	0.248053	0.860330	0.952315
	N3190	N	0.138054	0.970273	0.547606
	N3191	N	0.200578	0.907823	0.547390
	N3192	N	0.186784	0.902365	0.702123
	N3193	N	0.238185	1.009510	0.702579
	N3194	N	0.147343	0.821775	0.796492
	N3195	N	0.199256	0.928273	0.797798
	N3196	N	0.147261	0.821864	0.701533
	N3197	N	0.199317	0.928231	0.702793
	N3198	N	0.186846	0.902279	0.797104
	N3199	N	0.238226	1.009466	0.797731
	H3200	H	0.248765	0.176038	0.351538
	H3201	H	0.311272	0.113588	0.351498
	H3202	H	0.282131	0.143215	0.148446
	H3203	H	0.344455	0.080664	0.147765
	H3204	H	0.282386	0.143841	0.350863
	H3205	H	0.344636	0.080820	0.351294
	H3206	H	0.248882	0.176493	0.147217
	H3207	H	0.311153	0.113546	0.148452
	H3208	H	0.284400	0.103847	0.100775
	H3209	H	0.341288	0.204261	0.100256
	H3210	H	0.256496	0.047594	0.399973
	H3211	H	0.309846	0.152593	0.398606
	H3212	H	0.256644	0.047431	0.101186
	H3213	H	0.309839	0.152556	0.100131
	H3214	H	0.284138	0.104033	0.398690
	H3215	H	0.341363	0.204363	0.400155
	H3216	H	0.260063	0.166277	0.484794
	H3217	H	0.322605	0.103964	0.498230
	H3218	H	0.271896	0.155310	-0.016392
	H3219	H	0.333255	0.090437	-0.000759
	H3220	H	0.271777	0.154915	0.484390
	H3221	H	0.334325	0.092579	0.498373
	H3222	H	0.260193	0.166818	-0.016132
	H3223	H	0.321572	0.101916	-0.001003
	H3224	H	0.275416	0.085356	0.165867
	H3225	H	0.330911	0.187677	0.220005
	H3226	H	0.265429	0.066103	0.334142
	H3227	H	0.319926	0.169706	0.280933
	H3228	H	0.265816	0.065780	0.166197
	H3229	H	0.319975	0.169633	0.218590
	H3230	H	0.274935	0.085713	0.333729
	H3231	H	0.330855	0.187786	0.280935
	Co3232	Co	0.356305	0.225873	0.125357
	Co3233	Co	0.296709	0.128603	0.125369
	Co3234	Co	0.244413	0.022459	0.374377
	Co3235	Co	0.296716	0.128576	0.374403
	C3236	C	0.247623	0.177171	0.423839
	C3237	C	0.310122	0.114732	0.423522
	C3238	C	0.283287	0.142246	0.076147
	C3239	C	0.345655	0.079707	0.075690
	C3240	C	0.283425	0.142574	0.423158
	C3241	C	0.345785	0.079769	0.423893
	C3242	C	0.247710	0.177431	0.075480
	C3243	C	0.310055	0.114661	0.075921
	C3244	C	0.285264	0.105708	0.173449
	C3245	C	0.342400	0.206049	0.173309
	C3246	C	0.255643	0.045693	0.326911
	C3247	C	0.308847	0.150777	0.326104
	C3248	C	0.255709	0.045608	0.174116
	C3249	C	0.308838	0.150772	0.173507
	C3250	C	0.285136	0.105806	0.325913
	C3251	C	0.342422	0.206059	0.326801
	C3252	C	0.251757	0.173188	0.499594
	C3253	C	0.314173	0.110610	-0.000185
	C3254	C	0.279238	0.146447	0.498980
	C3255	C	0.341620	0.083829	-0.000120
	C3256	C	0.281748	0.098852	0.249447
	C3257	C	0.338413	0.199842	0.250185
	C3258	C	0.259080	0.052578	0.250564
	C3259	C	0.312635	0.157326	0.249747
	C3260	C	0.258739	0.166447	0.499389
	C3261	C	0.321121	0.103782	-0.000102
	C3262	C	0.272295	0.153252	0.498868
	C3263	C	0.334652	0.090612	-0.000090
	C3264	C	0.275993	0.087167	0.249753
	C3265	C	0.331809	0.189179	0.250579
	C3266	C	0.264840	0.064287	0.250416
	C3267	C	0.319070	0.168226	0.249971
	C3268	C	0.262426	0.163463	0.490968
	C3269	C	0.324936	0.101054	0.498760
	C3270	C	0.269099	0.157295	-0.008857
	C3271	C	0.330930	0.093430	-0.000787
	C3272	C	0.269040	0.157027	0.490807
	C3273	C	0.331544	0.094586	0.498802
	C3274	C	0.262506	0.163782	-0.009037
	C3275	C	0.324319	0.099867	-0.000563
	C3276	C	0.273236	0.081196	0.202865
	C3277	C	0.328537	0.183787	0.233097
	C3278	C	0.267573	0.070282	0.297253
	C3279	C	0.322300	0.173639	0.267373
	C3280	C	0.267823	0.070085	0.203161
	C3281	C	0.322320	0.173619	0.232777
	C3282	C	0.273000	0.081386	0.296736
	C3283	C	0.328509	0.183815	0.267606
	N3284	N	0.241561	0.183131	0.452679
	N3285	N	0.304081	0.120758	0.452277
	N3286	N	0.289366	0.136338	0.046916
	N3287	N	0.351767	0.073820	0.047076
	N3288	N	0.289431	0.136521	0.452207
	N3289	N	0.351872	0.073856	0.452619
	N3290	N	0.241628	0.183377	0.046942
	N3291	N	0.304025	0.120679	0.046879
	N3292	N	0.290320	0.115857	0.202673
	N3293	N	0.348313	0.215116	0.202260
	N3294	N	0.250675	0.035455	0.298136
	N3295	N	0.303290	0.141200	0.297380
	N3296	N	0.250717	0.035401	0.203055
	N3297	N	0.303300	0.141211	0.202424
	N3298	N	0.290236	0.115912	0.297463
	N3299	N	0.348316	0.215147	0.297729
	H3300	H	0.248655	0.175973	0.852332
	H3301	H	0.311260	0.113629	0.851266
	H3302	H	0.281936	0.142935	0.647394
	H3303	H	0.344761	0.081066	0.648723
	H3304	H	0.282206	0.143699	0.852038
	H3305	H	0.344712	0.081223	0.851859
	H3306	H	0.248842	0.176111	0.647859
	H3307	H	0.311290	0.113607	0.647366
	H3308	H	0.284436	0.103614	0.600807
	H3309	H	0.341410	0.204248	0.600250
	H3310	H	0.256682	0.047453	0.898917
	H3311	H	0.309840	0.152584	0.898634
	H3312	H	0.256498	0.047553	0.600613
	H3313	H	0.309894	0.152362	0.599996
	H3314	H	0.284334	0.103870	0.899765
	H3315	H	0.341317	0.204142	0.898947
	H3316	H	0.259067	0.164402	1.016633
	H3317	H	0.322474	0.103875	1.000337
	H3318	H	0.270994	0.153391	0.514061
	H3319	H	0.333254	0.090390	0.501058
	H3320	H	0.270729	0.152829	1.016994
	H3321	H	0.334226	0.092509	1.000776
	H3322	H	0.259265	0.164788	0.514314
	H3323	H	0.321532	0.101841	0.500800
	H3324	H	0.275290	0.085361	0.820827
	H3325	H	0.331200	0.187196	0.804895
	H3326	H	0.265575	0.065903	0.678907
	H3327	H	0.319647	0.170065	0.692684
	H3328	H	0.265616	0.065786	0.820215
	H3329	H	0.320245	0.169228	0.804750
	H3330	H	0.275178	0.085499	0.679289
	H3331	H	0.330586	0.188001	0.692344
	Co3332	Co	0.356288	0.225933	0.625986
	Co3333	Co	0.296678	0.128524	0.625404
	Co3334	Co	0.244403	0.022472	0.874727
	Co3335	Co	0.296725	0.128602	0.874252
	C3336	C	0.247589	0.177176	0.924212
	C3337	C	0.310110	0.114714	0.923627
	C3338	C	0.283201	0.142142	0.575172
	C3339	C	0.345839	0.079866	0.576147
	C3340	C	0.283329	0.142489	0.924427
	C3341	C	0.345777	0.079987	0.924044
	C3342	C	0.247663	0.177217	0.575628
	C3343	C	0.310136	0.114729	0.575338
	C3344	C	0.285299	0.105545	0.673862
	C3345	C	0.342447	0.205907	0.673150
	C3346	C	0.255727	0.045533	0.826122
	C3347	C	0.308803	0.150807	0.825730
	C3348	C	0.255633	0.045613	0.673465
	C3349	C	0.308844	0.150699	0.672948
	C3350	C	0.285241	0.105641	0.826712
	C3351	C	0.342416	0.205853	0.826163
	C3352	C	0.251739	0.173231	0.999966
	C3353	C	0.314210	0.110652	0.499490
	C3354	C	0.279205	0.146434	1.000555
	C3355	C	0.341664	0.083815	0.500016
	C3356	C	0.281824	0.098688	0.750395
	C3357	C	0.338418	0.199698	0.749378
	C3358	C	0.259082	0.052500	0.749752
	C3359	C	0.312603	0.157299	0.749045
	C3360	C	0.258709	0.166458	1.000172
	C3361	C	0.321149	0.103817	0.499537
	C3362	C	0.272231	0.153205	1.000581
	C3363	C	0.334703	0.090599	0.499702
	C3364	C	0.276041	0.087013	0.750341
	C3365	C	0.331787	0.189066	0.749135
	C3366	C	0.264810	0.064220	0.749962
	C3367	C	0.319054	0.168146	0.749005
	C3368	C	0.261848	0.162357	1.009432
	C3369	C	0.324821	0.100970	1.000260
	C3370	C	0.268611	0.156218	0.507354
	C3371	C	0.330934	0.093378	0.500407
	C3372	C	0.268448	0.155882	1.009630
	C3373	C	0.331429	0.094524	1.000441
	C3374	C	0.261997	0.162654	0.507630
	C3375	C	0.324308	0.099832	0.500302
	C3376	C	0.273165	0.081134	0.789829
	C3377	C	0.328662	0.183501	0.780502
	C3378	C	0.267664	0.070121	0.710367
	C3379	C	0.322140	0.173741	0.717505
	C3380	C	0.267705	0.070064	0.789506
	C3381	C	0.322470	0.173334	0.780493
	C3382	C	0.273121	0.081191	0.710542
	C3383	C	0.328333	0.183909	0.717478
	N3384	N	0.241544	0.183193	0.953024
	N3385	N	0.304055	0.120693	0.952291
	N3386	N	0.289281	0.136231	0.546518
	N3387	N	0.351908	0.073931	0.547266
	N3388	N	0.289402	0.136490	0.952807
	N3389	N	0.351830	0.073956	0.952802
	N3390	N	0.241590	0.183190	0.547031
	N3391	N	0.304085	0.120763	0.546823
	N3392	N	0.290332	0.115726	0.702673
	N3393	N	0.348345	0.214951	0.702407
	N3394	N	0.250708	0.035328	0.797450
	N3395	N	0.303263	0.141216	0.797117
	N3396	N	0.250657	0.035396	0.702479
	N3397	N	0.303285	0.141140	0.702032
	N3398	N	0.290298	0.115779	0.797615
	N3399	N	0.348303	0.214949	0.797592
	H3400	H	0.243173	0.330812	0.348331
	H3401	H	0.305557	0.268040	0.349172
	H3402	H	0.279795	0.304108	0.149835
	H3403	H	0.342269	0.241731	0.149039
	H3404	H	0.279730	0.303968	0.349356
	H3405	H	0.342234	0.241711	0.351084
	H3406	H	0.243149	0.330773	0.150836
	H3407	H	0.305713	0.268396	0.149618
	H3408	H	0.278924	0.266781	0.099168
	H3409	H	0.350181	0.274266	0.099153
	H3410	H	0.247444	0.215078	0.399071
	H3411	H	0.311968	0.295484	0.401908
	H3412	H	0.247424	0.214884	0.100193
	H3413	H	0.312020	0.295564	0.098501
	H3414	H	0.278892	0.266685	0.398303
	H3415	H	0.350261	0.274587	0.401597
	H3416	H	0.254583	0.320419	0.352054
	H3417	H	0.317108	0.258067	0.353981
	H3418	H	0.267457	0.312066	0.146495
	H3419	H	0.329954	0.249572	-0.146529
	H3420	H	0.267376	0.311950	0.351728
	H3421	H	0.329891	0.249487	0.354130
	H3422	H	0.254664	0.320647	0.146578
	H3423	H	0.317203	0.258143	-0.147131
	H3424	H	0.268173	0.250514	0.331197
	H3425	H	0.337268	0.280128	0.400105
	H3426	H	0.257642	0.231902	0.166442
	H3427	H	0.324640	0.288835	0.100698
	H3428	H	0.257261	0.232474	0.331693
	H3429	H	0.324515	0.288671	0.400102
	H3430	H	0.268588	0.249878	0.165990
	H3431	H	0.337306	0.280285	0.100765
	Co3432	Co	0.368479	0.282336	0.125995
	Co3433	Co	0.293864	0.288490	0.124880
	Co3434	Co	0.234260	0.191123	0.374518
	Co3435	Co	0.293785	0.288368	0.373961
	C3436	C	0.242227	0.332205	0.422373
	C3437	C	0.304643	0.269551	0.423105
	C3438	C	0.280971	0.303209	0.076187
	C3439	C	0.343460	0.240764	0.075929
	C3440	C	0.280908	0.303107	0.422604
	C3441	C	0.343412	0.240704	0.424448
	C3442	C	0.242194	0.332177	0.076824
	C3443	C	0.304736	0.269749	0.075856
	C3444	C	0.279984	0.268466	0.172057
	C3445	C	0.351681	0.274602	0.173497
	C3446	C	0.246376	0.213333	0.325955
	C3447	C	0.310457	0.295363	0.327218
	C3448	C	0.246370	0.213247	0.173298
	C3449	C	0.310498	0.295391	0.173001
	C3450	C	0.279956	0.268413	0.325132
	C3451	C	0.351734	0.274811	0.327561
	C3452	C	0.246177	0.327661	0.499291
	C3453	C	0.308753	0.265318	-0.001229
	C3454	C	0.276426	0.306463	0.498856
	C3455	C	0.338934	0.243977	-0.000564
	C3456	C	0.275964	0.262282	0.248444
	C3457	C	0.346520	0.275332	0.250667
	C3458	C	0.250110	0.219840	0.249442
	C3459	C	0.315551	0.294235	0.250352
	C3460	C	0.253550	0.321567	0.499075
	C3461	C	0.316095	0.259160	-0.000960
	C3462	C	0.268655	0.311492	0.498939
	C3463	C	0.331187	0.249070	-0.000742
	C3464	C	0.269327	0.251660	0.248360
	C3465	C	0.338435	0.279385	0.250522
	C3466	C	0.256576	0.230695	0.248869
	C3467	C	0.323485	0.289711	0.250501
	C3468	C	0.257359	0.318733	0.417162
	C3469	C	0.319844	0.256183	0.418821
	C3470	C	0.264706	0.313896	0.081590
	C3471	C	0.327224	0.251502	-0.082138
	C3472	C	0.264660	0.313871	0.417017
	C3473	C	0.327142	0.251295	0.418892
	C3474	C	0.257406	0.318780	0.081872
	C3475	C	0.319937	0.256410	-0.082131
	C3476	C	0.265914	0.246459	0.294711
	C3477	C	0.334552	0.281980	0.333594
	C3478	C	0.259935	0.235934	0.202221
	C3479	C	0.327344	0.287012	0.167191
	C3480	C	0.259743	0.236264	0.295155
	C3481	C	0.327286	0.286935	0.333834
	C3482	C	0.266122	0.246122	0.202090
	C3483	C	0.334589	0.282048	0.167303
	N3484	N	0.236564	0.339085	0.451292
	N3485	N	0.299046	0.276581	0.452039
	N3486	N	0.287568	0.298337	0.047724
	N3487	N	0.350065	0.235843	0.047690
	N3488	N	0.287542	0.298278	0.451308
	N3489	N	0.350034	0.235855	0.452700
	N3490	N	0.236519	0.339049	0.047705
	N3491	N	0.299092	0.276663	0.047022
	N3492	N	0.285920	0.277486	0.201255
	N3493	N	0.359468	0.274398	0.201789
	N3494	N	0.240852	0.203710	0.297463
	N3495	N	0.302751	0.296338	0.298624
	N3496	N	0.240859	0.203650	0.202527
	N3497	N	0.302783	0.296355	0.200756
	N3498	N	0.285890	0.277460	0.296557
	N3499	N	0.359503	0.274540	0.299064
	H3500	H	0.243174	0.330829	0.848915
	H3501	H	0.305668	0.268400	0.847522
	H3502	H	0.279839	0.304296	0.648513
	H3503	H	0.342180	0.241391	0.650352
	H3504	H	0.279678	0.303996	0.849792
	H3505	H	0.342192	0.241388	0.849716
	H3506	H	0.243040	0.330536	0.650278
	H3507	H	0.305713	0.268453	0.651186
	H3508	H	0.278782	0.266912	0.599826
	H3509	H	0.350112	0.274408	0.598683
	H3510	H	0.247453	0.215070	0.899293
	H3511	H	0.311972	0.295741	0.900684
	H3512	H	0.247318	0.215249	0.600571
	H3513	H	0.311894	0.295805	0.598399
	H3514	H	0.278976	0.266801	0.898964
	H3515	H	0.350121	0.274491	0.901708
	H3516	H	0.254670	0.320717	0.853233
	H3517	H	0.317160	0.258187	1.145584
	H3518	H	0.267541	0.312263	0.646046
	H3519	H	0.329811	0.249407	0.646832
	H3520	H	0.267425	0.312125	0.853027
	H3521	H	0.329950	0.249597	1.145084
	H3522	H	0.254751	0.320783	0.646149
	H3523	H	0.317058	0.258028	0.646483
	H3524	H	0.268376	0.250310	0.700908
	H3525	H	0.337139	0.280271	0.899410
	H3526	H	0.257531	0.232159	0.799451
	H3527	H	0.324486	0.288824	0.599962
	H3528	H	0.257473	0.232211	0.700846
	H3529	H	0.324527	0.289062	0.899325
	H3530	H	0.268460	0.250189	0.799886
	H3531	H	0.337183	0.280100	0.599970
	Co3532	Co	0.368443	0.282383	0.625458
	Co3533	Co	0.293765	0.288517	0.624971
	Co3534	Co	0.234257	0.191152	0.874558
	Co3535	Co	0.293809	0.288513	0.874164
	C3536	C	0.242200	0.332160	0.923154
	C3537	C	0.304773	0.269848	0.921750
	C3538	C	0.280963	0.303300	0.575436
	C3539	C	0.343377	0.240585	0.577203
	C3540	C	0.280927	0.303182	0.923215
	C3541	C	0.343400	0.240602	0.923041
	C3542	C	0.242162	0.332100	0.576200
	C3543	C	0.304723	0.269756	0.576993
	C3544	C	0.279897	0.268590	0.672897
	C3545	C	0.351600	0.274667	0.672801
	C3546	C	0.246374	0.213286	0.826456
	C3547	C	0.310476	0.295582	0.826861
	C3548	C	0.246326	0.213356	0.673350
	C3549	C	0.310445	0.295615	0.672279
	C3550	C	0.280003	0.268538	0.825668
	C3551	C	0.351619	0.274773	0.827176
	C3552	C	0.246206	0.327704	1.000195
	C3553	C	0.308644	0.265102	0.500212
	C3554	C	0.276419	0.306474	0.999846
	C3555	C	0.338854	0.243863	0.500789
	C3556	C	0.275927	0.262339	0.749429
	C3557	C	0.346423	0.275374	0.749928
	C3558	C	0.250122	0.219899	0.749927
	C3559	C	0.315540	0.294508	0.749446
	C3560	C	0.253544	0.321529	1.000293
	C3561	C	0.315975	0.258910	0.500308
	C3562	C	0.268640	0.311432	0.999872
	C3563	C	0.331072	0.248840	0.500564
	C3564	C	0.269319	0.251699	0.749737
	C3565	C	0.338327	0.279427	0.749628
	C3566	C	0.256589	0.230733	0.750100
	C3567	C	0.323449	0.289951	0.749478
	C3568	C	0.257406	0.318829	0.918298
	C3569	C	0.319919	0.256406	1.080486
	C3570	C	0.264772	0.314082	0.580888
	C3571	C	0.327118	0.251314	0.581815
	C3572	C	0.264711	0.313940	0.918089
	C3573	C	0.327217	0.251516	1.080618
	C3574	C	0.257465	0.318937	0.580776
	C3575	C	0.319816	0.256188	0.581664
	C3576	C	0.266016	0.246336	0.722038
	C3577	C	0.334459	0.282113	0.832791
	C3578	C	0.259884	0.236092	0.777882
	C3579	C	0.327257	0.287084	0.666282
	C3580	C	0.259812	0.236149	0.722472
	C3581	C	0.327238	0.287175	0.832830
	C3582	C	0.266070	0.246302	0.777954
	C3583	C	0.334487	0.282038	0.666367
	N3584	N	0.236505	0.339012	0.951804
	N3585	N	0.299128	0.276756	0.951190
	N3586	N	0.287569	0.298415	0.547163
	N3587	N	0.350001	0.235770	0.548727
	N3588	N	0.287537	0.298287	0.951805
	N3589	N	0.350020	0.235743	0.951596
	N3590	N	0.236506	0.339024	0.547334
	N3591	N	0.299113	0.276704	0.547948
	N3592	N	0.285811	0.277629	0.701476
	N3593	N	0.359372	0.274454	0.701274
	N3594	N	0.240857	0.203679	0.797342
	N3595	N	0.302746	0.296477	0.798717
	N3596	N	0.240828	0.203716	0.702168
	N3597	N	0.302718	0.296470	0.700837
	N3598	N	0.285888	0.277612	0.796540
	N3599	N	0.359385	0.274477	0.798515
	H3600	H	0.255876	0.388465	0.348144
	H3601	H	0.318394	0.326055	0.349214
	H3602	H	0.293840	0.364524	0.150550
	H3603	H	0.356217	0.301695	0.151394
	H3604	H	0.293553	0.364063	0.348321
	H3605	H	0.356324	0.301973	0.348970
	H3606	H	0.256052	0.388688	0.150684
	H3607	H	0.318568	0.326195	0.150597
	H3608	H	0.287674	0.337191	0.097858
	H3609	H	0.363183	0.334276	0.098948
	H3610	H	0.249409	0.358110	0.401127
	H3611	H	0.324173	0.353177	0.401027
	H3612	H	0.249382	0.357902	0.097975
	H3613	H	0.324244	0.353259	0.098672
	H3614	H	0.287602	0.336929	0.400030
	H3615	H	0.363266	0.334537	0.401665
	H3616	H	0.268453	0.380860	0.649011
	H3617	H	0.330775	0.317775	0.349857
	H3618	H	0.281455	0.372884	0.149352
	H3619	H	0.343942	0.310278	0.149918
	H3620	H	0.281567	0.373232	0.649724
	H3621	H	0.343880	0.310275	0.349802
	H3622	H	0.268381	0.380382	0.148684
	H3623	H	0.330823	0.317739	0.150129
	H3624	H	0.274766	0.342850	0.099572
	H3625	H	0.350170	0.339692	0.100071
	H3626	H	0.261939	0.351087	0.398548
	H3627	H	0.337241	0.347679	0.400288
	H3628	H	0.262027	0.351407	0.100067
	H3629	H	0.337186	0.347531	0.099901
	H3630	H	0.274658	0.342501	0.398141
	H3631	H	0.350180	0.339858	0.400542
	Co3632	Co	0.381540	0.342478	0.125153
	Co3633	Co	0.305999	0.345046	0.125105
	Co3634	Co	0.231269	0.350859	0.373825
	Co3635	Co	0.305895	0.344932	0.373868
	C3636	C	0.254817	0.389726	0.422695
	C3637	C	0.317368	0.327320	0.423077
	C3638	C	0.294763	0.363081	0.076279
	C3639	C	0.357231	0.300398	0.077007
	C3640	C	0.294669	0.362922	0.422578
	C3641	C	0.357287	0.300552	0.423094
	C3642	C	0.254977	0.389912	0.076327
	C3643	C	0.317473	0.327398	0.076868
	C3644	C	0.289188	0.337372	0.171918
	C3645	C	0.364695	0.334640	0.172956
	C3646	C	0.247916	0.357919	0.326625
	C3647	C	0.322740	0.352891	0.326723
	C3648	C	0.247898	0.357864	0.172223
	C3649	C	0.322790	0.353013	0.172596
	C3650	C	0.289125	0.337209	0.326382
	C3651	C	0.364740	0.334779	0.327241
	C3652	C	0.259229	0.386054	0.499665
	C3653	C	0.321772	0.323515	-0.000013
	C3654	C	0.290455	0.367035	0.499487
	C3655	C	0.352991	0.304477	0.000168
	C3656	C	0.283976	0.337952	0.248969
	C3657	C	0.359528	0.335259	0.250283
	C3658	C	0.252984	0.356732	0.249383
	C3659	C	0.327941	0.352373	0.249938
	C3660	C	0.267079	0.381079	0.499524
	C3661	C	0.329579	0.318478	-0.000043
	C3662	C	0.282693	0.372251	0.499737
	C3663	C	0.345230	0.309676	-0.000148
	C3664	C	0.275879	0.341939	0.248952
	C3665	C	0.351343	0.339010	0.250406
	C3666	C	0.260903	0.352192	0.249327
	C3667	C	0.336086	0.348535	0.250106
	C3668	C	0.271209	0.379003	0.582625
	C3669	C	0.333582	0.316223	0.416633
	C3670	C	0.278681	0.374416	0.082484
	C3671	C	0.341150	0.311910	0.083074
	C3672	C	0.278729	0.374710	0.582911
	C3673	C	0.341112	0.311941	0.416676
	C3674	C	0.271146	0.378670	0.082075
	C3675	C	0.333607	0.316150	0.083185
	C3676	C	0.272046	0.344611	0.165949
	C3677	C	0.347406	0.341392	0.166754
	C3678	C	0.264711	0.349371	0.332345
	C3679	C	0.340011	0.346019	0.333605
	C3680	C	0.264766	0.349542	0.166214
	C3681	C	0.340006	0.345971	0.166611
	C3682	C	0.271980	0.344450	0.331963
	C3683	C	0.347405	0.341480	0.333784
	N3684	N	0.248616	0.395657	0.451141
	N3685	N	0.311218	0.333292	0.451694
	N3686	N	0.300819	0.356827	0.047660
	N3687	N	0.363290	0.294172	0.048414
	N3688	N	0.300755	0.356761	0.451263
	N3689	N	0.363342	0.294355	0.451675
	N3690	N	0.248754	0.395820	0.047712
	N3691	N	0.311243	0.333263	0.048396
	N3692	N	0.296952	0.337071	0.200787
	N3693	N	0.372495	0.334588	0.201504
	N3694	N	0.240206	0.358845	0.298438
	N3695	N	0.314952	0.353003	0.298237
	N3696	N	0.240190	0.358799	0.200481
	N3697	N	0.314974	0.353071	0.200971
	N3698	N	0.296918	0.336932	0.298051
	N3699	N	0.372512	0.334639	0.298646
	H3700	H	0.255859	0.388312	0.848692
	H3701	H	0.318410	0.325886	0.849149
	H3702	H	0.293837	0.364669	0.650066
	H3703	H	0.356150	0.301618	0.651028
	H3704	H	0.293544	0.363919	0.848532
	H3705	H	0.356338	0.302009	0.849437
	H3706	H	0.255942	0.388590	0.650409
	H3707	H	0.318384	0.326004	0.651248
	H3708	H	0.287689	0.337251	0.597469
	H3709	H	0.363303	0.334419	0.599015
	H3710	H	0.249332	0.357983	0.900606
	H3711	H	0.324212	0.352810	0.901448
	H3712	H	0.249293	0.357966	0.597676
	H3713	H	0.324294	0.353245	0.599207
	H3714	H	0.287540	0.336832	0.900406
	H3715	H	0.363285	0.334508	0.901450
	H3716	H	0.268296	0.380383	0.849929
	H3717	H	0.330895	0.317990	0.850028
	H3718	H	0.281349	0.372618	0.350186
	H3719	H	0.343907	0.310335	0.649710
	H3720	H	0.281381	0.372694	0.850291
	H3721	H	0.344031	0.310455	0.850330
	H3722	H	0.268245	0.380218	0.349647
	H3723	H	0.330861	0.317891	0.649689
	H3724	H	0.274671	0.342644	0.599173
	H3725	H	0.350258	0.339902	0.600166
	H3726	H	0.261929	0.351064	0.898568
	H3727	H	0.337279	0.347649	0.900661
	H3728	H	0.261946	0.351158	0.598679
	H3729	H	0.337280	0.347711	0.600017
	H3730	H	0.274645	0.342484	0.898228
	H3731	H	0.350316	0.339947	0.900442
	Co3732	Co	0.381615	0.342532	0.625708
	Co3733	Co	0.305983	0.345100	0.625570
	Co3734	Co	0.231185	0.350764	0.873859
	Co3735	Co	0.305924	0.344752	0.873995
	C3736	C	0.254853	0.389670	0.922724
	C3737	C	0.317342	0.327137	0.923264
	C3738	C	0.294791	0.363184	0.576332
	C3739	C	0.357169	0.300373	0.576857
	C3740	C	0.294629	0.362747	0.922514
	C3741	C	0.357300	0.300582	0.923511
	C3742	C	0.254896	0.389884	0.576393
	C3743	C	0.317390	0.327333	0.576923
	C3744	C	0.289128	0.337295	0.671730
	C3745	C	0.364800	0.334709	0.673306
	C3746	C	0.247837	0.357862	0.826475
	C3747	C	0.322764	0.352653	0.827566
	C3748	C	0.247843	0.357897	0.672078
	C3749	C	0.322811	0.352943	0.673303
	C3750	C	0.289075	0.337134	0.826130
	C3751	C	0.364793	0.334755	0.827441
	C3752	C	0.259242	0.385959	0.999379
	C3753	C	0.321734	0.323539	0.499824
	C3754	C	0.290420	0.366873	0.999189
	C3755	C	0.352935	0.304402	0.499696
	C3756	C	0.283948	0.337909	0.748933
	C3757	C	0.359602	0.335364	0.750282
	C3758	C	0.252933	0.356748	0.749365
	C3759	C	0.327962	0.352188	0.750438
	C3760	C	0.267057	0.380934	0.999169
	C3761	C	0.329541	0.318508	0.499760
	C3762	C	0.282684	0.372079	0.999423
	C3763	C	0.345183	0.309617	0.499652
	C3764	C	0.275852	0.341922	0.748811
	C3765	C	0.351423	0.339110	0.750312
	C3766	C	0.260872	0.352244	0.748955
	C3767	C	0.336137	0.348501	0.750415
	C3768	C	0.271098	0.378705	0.916416
	C3769	C	0.333665	0.316295	0.916883
	C3770	C	0.278599	0.374408	0.416681
	C3771	C	0.341150	0.311987	0.582888
	C3772	C	0.278615	0.374406	0.916810
	C3773	C	0.341201	0.312039	0.916766
	C3774	C	0.271075	0.378699	0.416310
	C3775	C	0.333626	0.316271	0.582922
	C3776	C	0.271960	0.344531	0.665364
	C3777	C	0.347497	0.341578	0.667005
	C3778	C	0.264689	0.349373	0.831800
	C3779	C	0.340080	0.346013	0.834020
	C3780	C	0.264695	0.349473	0.665554
	C3781	C	0.340074	0.346095	0.666824
	C3782	C	0.271950	0.344438	0.831880
	C3783	C	0.347503	0.341527	0.833928
	N3784	N	0.248712	0.395697	0.951223
	N3785	N	0.311183	0.333109	0.951850
	N3786	N	0.300814	0.356894	0.547746
	N3787	N	0.363261	0.294217	0.548381
	N3788	N	0.300700	0.356584	0.951021
	N3789	N	0.363343	0.294310	0.951968
	N3790	N	0.248670	0.395741	0.547627
	N3791	N	0.311217	0.333319	0.548317
	N3792	N	0.296901	0.337040	0.700771
	N3793	N	0.372577	0.334567	0.701805
	N3794	N	0.240123	0.358773	0.798515
	N3795	N	0.314971	0.352847	0.798863
	N3796	N	0.240115	0.358817	0.700639
	N3797	N	0.315004	0.353020	0.701704
	N3798	N	0.296845	0.336894	0.798028
	N3799	N	0.372571	0.334565	0.798909
	H3800	H	0.268802	0.448172	0.348182
	H3801	H	0.331242	0.385616	0.348459
	H3802	H	0.306697	0.424166	0.150102
	H3803	H	0.369069	0.361405	0.150611
	H3804	H	0.306570	0.423825	0.347880
	H3805	H	0.369157	0.361523	0.349067
	H3806	H	0.268968	0.448498	0.150232
	H3807	H	0.331550	0.385960	0.150119
	H3808	H	0.300825	0.397033	0.097460
	H3809	H	0.375617	0.392030	0.097805
	H3810	H	0.261737	0.415338	0.400814
	H3811	H	0.337316	0.412872	0.401105
	H3812	H	0.261857	0.415672	0.098313
	H3813	H	0.337368	0.413243	0.098584
	H3814	H	0.300732	0.396649	0.400641
	H3815	H	0.375515	0.391792	0.400565
	H3816	H	0.281004	0.439355	0.349553
	H3817	H	0.343639	0.377155	0.350192
	H3818	H	0.294204	0.432095	-0.150040
	H3819	H	0.356686	0.369517	0.148085
	H3820	H	0.294067	0.431784	0.349092
	H3821	H	0.356732	0.369691	0.349332
	H3822	H	0.281105	0.439657	-0.150009
	H3823	H	0.343525	0.376967	0.148771
	H3824	H	0.287732	0.402250	0.099066
	H3825	H	0.362936	0.398719	0.100006
	H3826	H	0.274789	0.409809	0.399810
	H3827	H	0.350353	0.407354	0.398785
	H3828	H	0.274792	0.410102	0.099889
	H3829	H	0.350249	0.407239	0.100342
	H3830	H	0.287715	0.401906	0.399758
	H3831	H	0.363033	0.398735	0.398779
	Co3832	Co	0.393795	0.398948	0.125468
	Co3833	Co	0.319158	0.405098	0.125110
	Co3834	Co	0.243437	0.407386	0.373574
	Co3835	Co	0.319061	0.405011	0.374027
	C3836	C	0.267763	0.449398	0.422419
	C3837	C	0.330315	0.387038	0.423116
	C3838	C	0.307706	0.422769	0.076224
	C3839	C	0.370155	0.360166	0.076536
	C3840	C	0.307604	0.422595	0.422405
	C3841	C	0.370200	0.360264	0.423107
	C3842	C	0.267855	0.449633	0.076135
	C3843	C	0.330426	0.387139	0.076316
	C3844	C	0.302309	0.397178	0.171956
	C3845	C	0.377119	0.392053	0.171973
	C3846	C	0.260314	0.415171	0.326939
	C3847	C	0.335857	0.412701	0.326919
	C3848	C	0.260365	0.415348	0.172702
	C3849	C	0.335895	0.412899	0.172723
	C3850	C	0.302257	0.396940	0.326352
	C3851	C	0.377095	0.391991	0.326321
	C3852	C	0.272067	0.445493	0.499361
	C3853	C	0.334615	0.383054	-0.000370
	C3854	C	0.303288	0.426472	0.499298
	C3855	C	0.365824	0.363967	-0.000262
	C3856	C	0.297085	0.397609	0.249110
	C3857	C	0.372026	0.393233	0.249078
	C3858	C	0.265510	0.414623	0.249853
	C3859	C	0.341063	0.412130	0.249852
	C3860	C	0.279843	0.440369	0.499565
	C3861	C	0.342367	0.377856	-0.000391
	C3862	C	0.295466	0.431500	0.499272
	C3863	C	0.358010	0.368986	-0.000715
	C3864	C	0.288910	0.401287	0.249221
	C3865	C	0.364072	0.397729	0.249313
	C3866	C	0.273652	0.410804	0.249741
	C3867	C	0.349136	0.408111	0.249676
	C3868	C	0.283835	0.437883	0.416386
	C3869	C	0.346409	0.375462	0.417002
	C3870	C	0.291418	0.433739	-0.083352
	C3871	C	0.353901	0.371235	0.081690
	C3872	C	0.291357	0.433581	0.416010
	C3873	C	0.353948	0.371208	0.416330
	C3874	C	0.283887	0.437995	-0.083412
	C3875	C	0.346348	0.375453	0.082212
	C3876	C	0.284982	0.403807	0.165954
	C3877	C	0.360230	0.400498	0.166472
	C3878	C	0.277591	0.408226	0.333219
	C3879	C	0.353023	0.405449	0.332543
	C3880	C	0.277580	0.408364	0.166202
	C3881	C	0.352983	0.405508	0.166643
	C3882	C	0.284987	0.403652	0.332908
	C3883	C	0.360262	0.400452	0.332498
	N3884	N	0.261683	0.455549	0.451079
	N3885	N	0.324229	0.393204	0.451661
	N3886	N	0.313856	0.416743	0.047283
	N3887	N	0.376349	0.354232	0.048090
	N3888	N	0.313805	0.416698	0.451086
	N3889	N	0.376369	0.354290	0.451740
	N3890	N	0.261736	0.455713	0.047563
	N3891	N	0.324350	0.393286	0.047920
	N3892	N	0.310069	0.397049	0.200421
	N3893	N	0.384811	0.391038	0.200439
	N3894	N	0.252536	0.415401	0.298141
	N3895	N	0.328083	0.412999	0.298390
	N3896	N	0.252571	0.415522	0.200841
	N3897	N	0.328103	0.413105	0.201295
	N3898	N	0.310055	0.396926	0.297723
	N3899	N	0.384802	0.391003	0.298302
	H3900	H	0.268684	0.447879	0.848635
	H3901	H	0.331228	0.385448	0.848688
	H3902	H	0.306661	0.424028	0.650474
	H3903	H	0.369138	0.361413	0.651055
	H3904	H	0.306494	0.423757	0.848435
	H3905	H	0.369189	0.361521	0.848307
	H3906	H	0.268807	0.448127	0.650307
	H3907	H	0.331330	0.385655	0.650978
	H3908	H	0.300780	0.397052	0.597833
	H3909	H	0.375549	0.391856	0.599133
	H3910	H	0.261687	0.415302	0.901304
	H3911	H	0.337343	0.412859	0.901149
	H3912	H	0.261742	0.415660	0.598266
	H3913	H	0.337376	0.412926	0.598208
	H3914	H	0.300709	0.396754	0.900649
	H3915	H	0.375655	0.391816	0.901159
	H3916	H	0.281188	0.439830	1.149167
	H3917	H	0.343724	0.377310	0.849821
	H3918	H	0.294297	0.432520	0.649006
	H3919	H	0.356694	0.369604	0.649197
	H3920	H	0.294237	0.432144	1.149243
	H3921	H	0.356720	0.369644	0.849505
	H3922	H	0.281212	0.440071	0.649552
	H3923	H	0.343601	0.377104	0.650016
	H3924	H	0.287861	0.402764	0.598906
	H3925	H	0.363055	0.398946	0.899789
	H3926	H	0.274693	0.409887	0.899159
	H3927	H	0.350262	0.407026	0.600086
	H3928	H	0.274888	0.410576	0.598786
	H3929	H	0.350347	0.407414	0.899405
	H3930	H	0.287662	0.402061	0.899379
	H3931	H	0.362948	0.398549	0.600453
	Co3932	Co	0.393708	0.398969	0.625182
	Co3933	Co	0.319069	0.405008	0.625167
	Co3934	Co	0.243412	0.407320	0.873744
	Co3935	Co	0.319010	0.404830	0.873610
	C3936	C	0.267705	0.449303	0.922520
	C3937	C	0.330257	0.386857	0.922599
	C3938	C	0.307688	0.422784	0.576131
	C3939	C	0.370170	0.360149	0.576854
	C3940	C	0.307589	0.422576	0.922319
	C3941	C	0.370180	0.360182	0.922669
	C3942	C	0.267772	0.449421	0.576160
	C3943	C	0.330312	0.387017	0.576615
	C3944	C	0.302220	0.397171	0.671917
	C3945	C	0.377097	0.392014	0.672879
	C3946	C	0.260246	0.415161	0.826532
	C3947	C	0.335835	0.412575	0.826837
	C3948	C	0.260259	0.415278	0.672394
	C3949	C	0.335865	0.412667	0.672531
	C3950	C	0.302186	0.397040	0.826376
	C3951	C	0.377128	0.391979	0.827254
	C3952	C	0.272070	0.445530	0.999426
	C3953	C	0.334598	0.383048	0.499993
	C3954	C	0.303290	0.426420	0.999488
	C3955	C	0.365825	0.363992	0.499977
	C3956	C	0.297044	0.397746	0.749101
	C3957	C	0.372004	0.393151	0.750222
	C3958	C	0.265436	0.414656	0.749463
	C3959	C	0.341031	0.411977	0.749737
	C3960	C	0.279844	0.440331	0.999451
	C3961	C	0.342356	0.377848	0.500168
	C3962	C	0.295465	0.431437	0.999714
	C3963	C	0.358007	0.369009	0.499621
	C3964	C	0.288905	0.401575	0.749151
	C3965	C	0.364103	0.397701	0.750200
	C3966	C	0.273623	0.410943	0.749195
	C3967	C	0.349117	0.408002	0.749792
	C3968	C	0.283918	0.438069	1.082410
	C3969	C	0.346455	0.375588	0.916679
	C3970	C	0.291443	0.433944	0.582366
	C3971	C	0.353925	0.371300	0.582550
	C3972	C	0.291431	0.433753	1.082612
	C3973	C	0.353962	0.371261	0.916187
	C3974	C	0.283925	0.438265	0.582739
	C3975	C	0.346397	0.375588	0.583198
	C3976	C	0.285027	0.404257	0.665506
	C3977	C	0.360312	0.400574	0.833032
	C3978	C	0.277511	0.408356	0.832625
	C3979	C	0.352984	0.405322	0.666742
	C3980	C	0.277602	0.408726	0.665481
	C3981	C	0.353040	0.405527	0.833074
	C3982	C	0.284930	0.403874	0.832809
	C3983	C	0.360250	0.400358	0.667104
	N3984	N	0.261647	0.455533	0.951110
	N3985	N	0.324219	0.393103	0.951545
	N3986	N	0.313853	0.416787	0.547870
	N3987	N	0.376367	0.354275	0.548424
	N3988	N	0.313784	0.416630	0.950973
	N3989	N	0.376395	0.354272	0.951560
	N3990	N	0.261693	0.455556	0.547581
	N3991	N	0.324256	0.393225	0.548141
	N3992	N	0.310011	0.397013	0.700492
	N3993	N	0.384793	0.391015	0.700885
	N3994	N	0.252474	0.415250	0.797861
	N3995	N	0.328068	0.412840	0.798170
	N3996	N	0.252481	0.415373	0.700834
	N3997	N	0.328094	0.412904	0.700867
	N3998	N	0.309995	0.396923	0.797744
	N3999	N	0.384820	0.391004	0.798670
	H4000	H	0.282998	0.508695	0.349472
	H4001	H	0.345393	0.445921	0.349959
	H4002	H	0.319381	0.481487	0.150897
	H4003	H	0.381859	0.419012	0.150489
	H4004	H	0.319242	0.481525	0.348437
	H4005	H	0.381805	0.418877	0.348954
	H4006	H	0.282987	0.508710	0.149812
	H4007	H	0.345530	0.446033	0.150097
	H4008	H	0.313150	0.454362	0.098679
	H4009	H	0.377670	0.534911	0.100611
	H4010	H	0.274878	0.475457	0.400640
	H4011	H	0.346244	0.483178	0.399324
	H4012	H	0.274950	0.475537	0.098720
	H4013	H	0.346118	0.483270	0.100369
	H4014	H	0.313131	0.454332	0.400991
	H4015	H	0.377689	0.534974	0.398803
	H4016	H	0.295077	0.500294	0.353349
	H4017	H	0.357759	0.438224	0.353321
	H4018	H	0.307933	0.491762	-0.147314
	H4019	H	0.370458	0.429505	0.146864
	H4020	H	0.307835	0.491651	0.353314
	H4021	H	0.370477	0.429413	0.353554
	H4022	H	0.295138	0.500348	-0.146904
	H4023	H	0.357696	0.438103	0.146272
	H4024	H	0.300446	0.461012	0.399532
	H4025	H	0.367819	0.517541	0.180403
	H4026	H	0.287911	0.469973	0.100137
	H4027	H	0.356457	0.500017	0.319401
	H4028	H	0.287754	0.469596	0.399488
	H4029	H	0.356875	0.499538	0.180131
	H4030	H	0.300641	0.461407	0.100113
	H4031	H	0.367388	0.518018	0.319471
	Co4032	Co	0.390804	0.558819	0.125243
	Co4033	Co	0.331306	0.461449	0.125443
	Co4034	Co	0.256571	0.467462	0.373716
	Co4035	Co	0.331227	0.461518	0.374087
	C4036	C	0.281687	0.509371	0.422889
	C4037	C	0.344135	0.446785	0.423186
	C4038	C	0.320393	0.480226	0.076851
	C4039	C	0.382878	0.417656	0.076693
	C4040	C	0.320285	0.480233	0.422482
	C4041	C	0.382773	0.417603	0.422774
	C4042	C	0.281690	0.509383	0.076652
	C4043	C	0.344251	0.446850	0.076422
	C4044	C	0.314646	0.454477	0.172840
	C4045	C	0.378696	0.536636	0.173599
	C4046	C	0.273399	0.475218	0.326699
	C4047	C	0.345105	0.481487	0.326475
	C4048	C	0.273439	0.475284	0.172673
	C4049	C	0.345055	0.481523	0.173084
	C4050	C	0.314630	0.454458	0.327005
	C4051	C	0.378715	0.536641	0.326182
	C4052	C	0.286140	0.506005	0.499450
	C4053	C	0.348726	0.443560	-0.000600
	C4054	C	0.316332	0.484738	0.499599
	C4055	C	0.378927	0.422274	-0.000142
	C4056	C	0.309527	0.455589	0.249803
	C4057	C	0.374951	0.530098	0.250036
	C4058	C	0.278597	0.474559	0.249682
	C4059	C	0.349096	0.487702	0.249556
	C4060	C	0.293912	0.500974	0.499681
	C4061	C	0.356503	0.438577	-0.000371
	C4062	C	0.308954	0.490839	0.499889
	C4063	C	0.371554	0.428403	-0.000274
	C4064	C	0.301618	0.460145	0.249678
	C4065	C	0.368480	0.519267	0.250091
	C4066	C	0.286664	0.470500	0.249769
	C4067	C	0.355734	0.498314	0.249476
	C4068	C	0.297833	0.498470	0.418176
	C4069	C	0.360412	0.436165	0.418250
	C4070	C	0.305192	0.493630	-0.082187
	C4071	C	0.367719	0.431245	0.081506
	C4072	C	0.305103	0.493547	0.418238
	C4073	C	0.367699	0.431241	0.418264
	C4074	C	0.297889	0.498541	-0.081975
	C4075	C	0.360433	0.436161	0.081474
	C4076	C	0.297743	0.462809	0.332962
	C4077	C	0.365334	0.513719	0.210820
	C4078	C	0.290603	0.468037	0.166718
	C4079	C	0.358901	0.503795	0.288659
	C4080	C	0.290498	0.467828	0.333023
	C4081	C	0.359132	0.503544	0.210570
	C4082	C	0.297876	0.463081	0.166659
	C4083	C	0.365099	0.513973	0.288917
	N4084	N	0.275043	0.514160	0.451538
	N4085	N	0.337522	0.451665	0.451553
	N4086	N	0.326016	0.473269	0.047731
	N4087	N	0.388543	0.410779	0.047653
	N4088	N	0.325952	0.473317	0.451491
	N4089	N	0.388419	0.410681	0.451866
	N4090	N	0.275025	0.514146	0.048330
	N4091	N	0.337577	0.451618	0.047736
	N4092	N	0.322334	0.453528	0.200928
	N4093	N	0.384227	0.546256	0.202276
	N4094	N	0.265619	0.475498	0.298170
	N4095	N	0.339204	0.472431	0.297533
	N4096	N	0.265656	0.475576	0.200890
	N4097	N	0.339176	0.472458	0.202377
	N4098	N	0.322333	0.453507	0.298860
	N4099	N	0.384234	0.546247	0.297132
	H4100	H	0.282748	0.508234	0.850006
	H4101	H	0.345333	0.445814	0.849283
	H4102	H	0.319437	0.481744	0.650733
	H4103	H	0.381896	0.419083	0.650023
	H4104	H	0.319451	0.481728	0.849279
	H4105	H	0.382026	0.419340	0.849182
	H4106	H	0.282922	0.508466	0.649322
	H4107	H	0.345386	0.445958	0.649073
	H4108	H	0.313068	0.454485	0.598430
	H4109	H	0.377559	0.534951	0.601161
	H4110	H	0.274717	0.475131	0.901058
	H4111	H	0.346247	0.482949	0.900044
	H4112	H	0.274853	0.475565	0.598813
	H4113	H	0.345966	0.483501	0.599801
	H4114	H	0.313109	0.454536	0.901211
	H4115	H	0.377678	0.534893	0.899416
	H4116	H	0.295244	0.500629	1.146569
	H4117	H	0.357704	0.437926	0.852920
	H4118	H	0.307878	0.491791	0.646076
	H4119	H	0.370293	0.428976	0.646230
	H4120	H	0.307955	0.491928	1.146586
	H4121	H	0.370443	0.429230	0.852718
	H4122	H	0.295143	0.500470	0.646256
	H4123	H	0.357492	0.437544	0.646047
	H4124	H	0.300486	0.461288	0.899610
	H4125	H	0.367849	0.517259	0.667785
	H4126	H	0.287783	0.469933	0.600367
	H4127	H	0.356298	0.500385	0.833305
	H4128	H	0.287744	0.469795	0.899218
	H4129	H	0.356995	0.499190	0.667688
	H4130	H	0.300558	0.461556	0.600239
	H4131	H	0.367189	0.518316	0.833411
	Co4132	Co	0.390783	0.558845	0.625187
	Co4133	Co	0.331223	0.461503	0.624884
	Co4134	Co	0.256433	0.467243	0.873369
	Co4135	Co	0.331262	0.461512	0.874027
	C4136	C	0.281571	0.509153	0.923361
	C4137	C	0.344157	0.446728	0.922604
	C4138	C	0.320343	0.480279	0.576552
	C4139	C	0.382836	0.417728	0.576459
	C4140	C	0.320384	0.480248	0.922966
	C4141	C	0.382949	0.417809	0.923056
	C4142	C	0.281659	0.509293	0.576099
	C4143	C	0.344129	0.446786	0.576088
	C4144	C	0.314571	0.454559	0.672675
	C4145	C	0.378647	0.536664	0.673905
	C4146	C	0.273279	0.475091	0.826818
	C4147	C	0.345153	0.481348	0.826538
	C4148	C	0.273341	0.475252	0.672755
	C4149	C	0.344992	0.481628	0.673218
	C4150	C	0.314586	0.454598	0.826802
	C4151	C	0.378694	0.536647	0.826349
	C4152	C	0.286149	0.505975	0.999897
	C4153	C	0.348645	0.443484	0.499750
	C4154	C	0.316382	0.484698	0.999819
	C4155	C	0.378826	0.422166	0.499614
	C4156	C	0.309507	0.455779	0.749919
	C4157	C	0.374900	0.530138	0.750152
	C4158	C	0.278490	0.474559	0.750018
	C4159	C	0.349106	0.487673	0.750057
	C4160	C	0.293938	0.500995	0.999695
	C4161	C	0.356427	0.438460	0.499747
	C4162	C	0.309031	0.490884	0.999748
	C4163	C	0.371486	0.428338	0.499943
	C4164	C	0.301578	0.460299	0.750114
	C4165	C	0.368433	0.519315	0.750451
	C4166	C	0.286609	0.470627	0.750018
	C4167	C	0.355721	0.498315	0.750309
	C4168	C	0.297916	0.498625	1.081349
	C4169	C	0.360427	0.436009	0.917930
	C4170	C	0.305124	0.493601	0.581500
	C4171	C	0.367574	0.430893	0.581527
	C4172	C	0.305211	0.493738	1.081404
	C4173	C	0.367725	0.431117	0.917978
	C4174	C	0.297848	0.498524	0.581359
	C4175	C	0.360305	0.435849	0.581292
	C4176	C	0.297755	0.463045	0.833166
	C4177	C	0.365361	0.513577	0.704013
	C4178	C	0.290511	0.468115	0.666762
	C4179	C	0.358812	0.504021	0.796920
	C4180	C	0.290506	0.468020	0.833023
	C4181	C	0.359174	0.503375	0.704054
	C4182	C	0.297769	0.463138	0.666879
	C4183	C	0.364988	0.514220	0.797001
	N4184	N	0.274973	0.514051	0.952143
	N4185	N	0.337529	0.451563	0.951543
	N4186	N	0.326010	0.473370	0.547207
	N4187	N	0.388473	0.410781	0.547576
	N4188	N	0.326040	0.473333	0.951842
	N4189	N	0.388594	0.410883	0.951877
	N4190	N	0.275033	0.514147	0.547621
	N4191	N	0.337522	0.451682	0.547457
	N4192	N	0.322288	0.453585	0.700904
	N4193	N	0.384189	0.546275	0.702394
	N4194	N	0.265505	0.475235	0.797928
	N4195	N	0.339260	0.472325	0.797240
	N4196	N	0.265530	0.475332	0.700868
	N4197	N	0.339154	0.472506	0.701916
	N4198	N	0.322283	0.453603	0.798724
	N4199	N	0.384212	0.546254	0.797457
	H4200	H	0.280497	0.669022	0.351119
	H4201	H	0.342927	0.606476	0.351865
	H4202	H	0.313889	0.636803	0.148359
	H4203	H	0.376140	0.573508	0.147967
	H4204	H	0.313842	0.636236	0.350681
	H4205	H	0.376409	0.574098	0.351674
	H4206	H	0.280207	0.668791	0.147695
	H4207	H	0.342785	0.606329	0.148348
	H4208	H	0.315214	0.597572	0.100623
	H4209	H	0.368567	0.702424	0.100844
	H4210	H	0.283628	0.545680	0.399964
	H4211	H	0.340813	0.646066	0.399174
	H4212	H	0.283596	0.545715	0.100009
	H4213	H	0.340654	0.646401	0.101183
	H4214	H	0.315200	0.597381	0.399112
	H4215	H	0.368117	0.702776	0.399693
	H4216	H	0.291001	0.657596	0.481587
	H4217	H	0.353403	0.595160	0.553760
	H4218	H	0.303034	0.647363	-0.060339
	H4219	H	0.365451	0.584636	-0.070750
	H4220	H	0.302752	0.646192	0.481463
	H4221	H	0.365090	0.583746	0.553026
	H4222	H	0.291323	0.658718	-0.060083
	H4223	H	0.353748	0.596006	-0.070417
	H4224	H	0.305107	0.580329	0.287533
	H4225	H	0.358903	0.684634	0.238290
	H4226	H	0.294177	0.562273	0.212388
	H4227	H	0.350044	0.664375	0.260966
	H4228	H	0.294137	0.562432	0.287322
	H4229	H	0.349366	0.664974	0.238374
	H4230	H	0.305107	0.580285	0.211548
	H4231	H	0.359614	0.683966	0.261358
	Co4232	Co	0.380517	0.727788	0.126177
	Co4233	Co	0.328324	0.621455	0.126000
	Co4234	Co	0.268742	0.524018	0.374358
	Co4235	Co	0.328386	0.621320	0.375146
	C4236	C	0.279303	0.670070	0.423444
	C4237	C	0.341750	0.607557	0.424380
	C4238	C	0.314953	0.635449	0.075960
	C4239	C	0.377344	0.572585	0.075288
	C4240	C	0.314957	0.635176	0.423418
	C4241	C	0.377448	0.572834	0.424165
	C4242	C	0.279126	0.669978	0.075148
	C4243	C	0.341670	0.607519	0.076432
	C4244	C	0.316221	0.599268	0.173756
	C4245	C	0.369367	0.704411	0.173861
	C4246	C	0.282581	0.544004	0.326659
	C4247	C	0.339832	0.644247	0.326687
	C4248	C	0.282593	0.544029	0.173056
	C4249	C	0.339749	0.644403	0.174023
	C4250	C	0.316200	0.599175	0.326077
	C4251	C	0.369117	0.704597	0.326689
	C4252	C	0.283380	0.665989	0.499417
	C4253	C	0.345791	0.603523	0.000426
	C4254	C	0.310864	0.639319	0.498957
	C4255	C	0.373271	0.576732	-0.000438
	C4256	C	0.312449	0.592675	0.249608
	C4257	C	0.365809	0.697558	0.250192
	C4258	C	0.286638	0.550177	0.249876
	C4259	C	0.343215	0.651293	0.250428
	C4260	C	0.290346	0.659185	0.499301
	C4261	C	0.352757	0.596748	0.000311
	C4262	C	0.303922	0.646107	0.498582
	C4263	C	0.366310	0.583494	-0.000088
	C4264	C	0.305978	0.581792	0.249480
	C4265	C	0.360067	0.685877	0.250162
	C4266	C	0.293241	0.560872	0.249905
	C4267	C	0.348916	0.663014	0.250201
	C4268	C	0.293690	0.655462	0.489359
	C4269	C	0.356088	0.593029	0.530279
	C4270	C	0.300430	0.649666	-0.034029
	C4271	C	0.362867	0.586987	-0.039554
	C4272	C	0.300326	0.649051	0.488910
	C4273	C	0.362707	0.586612	0.530236
	C4274	C	0.293796	0.656063	-0.034129
	C4275	C	0.356257	0.593446	-0.039581
	C4276	C	0.302702	0.576440	0.270849
	C4277	C	0.356992	0.680203	0.243631
	C4278	C	0.296523	0.566207	0.228646
	C4279	C	0.351946	0.668740	0.256279
	C4280	C	0.296511	0.566271	0.271050
	C4281	C	0.351585	0.669065	0.243525
	C4282	C	0.302715	0.576378	0.228478
	C4283	C	0.357384	0.679842	0.256413
	N4284	N	0.273203	0.675979	0.452202
	N4285	N	0.335685	0.613546	0.453286
	N4286	N	0.320991	0.629425	0.047565
	N4287	N	0.383424	0.566676	0.046411
	N4288	N	0.321022	0.629227	0.452786
	N4289	N	0.383468	0.566758	0.452835
	N4290	N	0.273137	0.676110	0.046367
	N4291	N	0.335623	0.613532	0.047626
	N4292	N	0.321728	0.608879	0.202920
	N4293	N	0.374307	0.714649	0.202970
	N4294	N	0.276654	0.534978	0.297358
	N4295	N	0.334793	0.634105	0.297793
	N4296	N	0.276682	0.534978	0.202276
	N4297	N	0.334733	0.634216	0.202841
	N4298	N	0.321733	0.608823	0.297542
	N4299	N	0.374160	0.714767	0.297812
	H4300	H	0.280392	0.669155	0.851526
	H4301	H	0.342854	0.606466	0.852526
	H4302	H	0.313838	0.636567	0.647764
	H4303	H	0.376254	0.573735	0.648134
	H4304	H	0.313615	0.636024	0.851519
	H4305	H	0.376337	0.573989	0.851221
	H4306	H	0.280434	0.668903	0.647575
	H4307	H	0.342908	0.606579	0.649224
	H4308	H	0.315154	0.597611	0.600165
	H4309	H	0.368455	0.702632	0.601106
	H4310	H	0.283572	0.545631	0.900589
	H4311	H	0.340662	0.646186	0.900306
	H4312	H	0.283647	0.545669	0.600385
	H4313	H	0.340542	0.646447	0.601064
	H4314	H	0.315251	0.597328	0.899176
	H4315	H	0.368392	0.702543	0.898491
	H4316	H	0.291017	0.657993	1.059819
	H4317	H	0.353670	0.595676	1.070879
	H4318	H	0.303276	0.647680	0.515803
	H4319	H	0.365787	0.585176	0.446713
	H4320	H	0.302762	0.646664	1.060164
	H4321	H	0.365323	0.584129	1.070648
	H4322	H	0.291521	0.658972	0.516012
	H4323	H	0.354050	0.596576	0.447285
	H4324	H	0.305586	0.579561	0.678951
	H4325	H	0.359806	0.683632	0.637198
	H4326	H	0.293684	0.563090	0.820296
	H4327	H	0.349200	0.665230	0.864026
	H4328	H	0.294659	0.561537	0.680152
	H4329	H	0.350122	0.664171	0.636924
	H4330	H	0.304569	0.581076	0.819959
	H4331	H	0.358866	0.684747	0.863935
	Co4332	Co	0.380509	0.727735	0.625981
	Co4333	Co	0.328325	0.621440	0.625791
	Co4334	Co	0.268727	0.523971	0.874566
	Co4335	Co	0.328301	0.621421	0.874876
	C4336	C	0.279226	0.670165	0.923600
	C4337	C	0.341694	0.607563	0.924424
	C4338	C	0.314975	0.635363	0.575375
	C4339	C	0.377385	0.572690	0.575929
	C4340	C	0.314822	0.635078	0.923865
	C4341	C	0.377420	0.572781	0.923466
	C4342	C	0.279259	0.670015	0.575534
	C4343	C	0.341754	0.607614	0.576556
	C4344	C	0.316163	0.599318	0.673656
	C4345	C	0.369306	0.704523	0.673909
	C4346	C	0.282579	0.543969	0.827246
	C4347	C	0.339763	0.644370	0.827083
	C4348	C	0.282603	0.543978	0.674003
	C4349	C	0.339700	0.644499	0.674249
	C4350	C	0.316202	0.599190	0.826449
	C4351	C	0.369289	0.704483	0.826038
	C4352	C	0.283271	0.665983	0.999520
	C4353	C	0.345820	0.603517	0.500510
	C4354	C	0.310747	0.639274	0.999704
	C4355	C	0.373302	0.576771	0.500175
	C4356	C	0.312417	0.592755	0.749819
	C4357	C	0.365879	0.697528	0.749947
	C4358	C	0.286618	0.550187	0.750628
	C4359	C	0.343144	0.651401	0.750908
	C4360	C	0.290239	0.659229	0.999478
	C4361	C	0.352795	0.596785	0.500410
	C4362	C	0.303810	0.646090	0.999603
	C4363	C	0.366366	0.583635	0.500413
	C4364	C	0.306006	0.581817	0.749757
	C4365	C	0.360146	0.685818	0.750270
	C4366	C	0.293249	0.560824	0.750393
	C4367	C	0.348888	0.663086	0.750995
	C4368	C	0.293643	0.655663	1.033474
	C4369	C	0.356209	0.593253	1.039870
	C4370	C	0.300587	0.649826	0.508434
	C4371	C	0.363082	0.587385	0.470607
	C4372	C	0.300267	0.649248	1.033605
	C4373	C	0.362822	0.586794	1.039424
	C4374	C	0.293954	0.656209	0.508545
	C4375	C	0.356467	0.593819	0.470608
	C4376	C	0.302991	0.575997	0.710292
	C4377	C	0.357496	0.679665	0.687010
	C4378	C	0.296259	0.566593	0.789506
	C4379	C	0.351507	0.669261	0.814424
	C4380	C	0.296809	0.565796	0.710780
	C4381	C	0.352025	0.668614	0.687232
	C4382	C	0.302443	0.576778	0.789266
	C4383	C	0.357002	0.680302	0.814220
	N4384	N	0.273182	0.676184	0.952308
	N4385	N	0.335640	0.613568	0.953193
	N4386	N	0.321038	0.629375	0.547212
	N4387	N	0.383457	0.566710	0.547023
	N4388	N	0.320910	0.629185	0.953220
	N4389	N	0.383473	0.566793	0.952262
	N4390	N	0.273198	0.675991	0.546940
	N4391	N	0.335689	0.613588	0.547803
	N4392	N	0.321734	0.608871	0.702647
	N4393	N	0.374266	0.714729	0.702735
	N4394	N	0.276691	0.534905	0.798000
	N4395	N	0.334765	0.634170	0.798064
	N4396	N	0.276703	0.534920	0.702891
	N4397	N	0.334747	0.634233	0.702946
	N4398	N	0.321739	0.608817	0.797855
	N4399	N	0.374274	0.714704	0.797526
	H4400	H	0.270208	0.837974	0.351558
	H4401	H	0.332942	0.775930	0.352693
	H4402	H	0.303354	0.804978	0.147521
	H4403	H	0.365876	0.742543	0.148774
	H4404	H	0.303407	0.805008	0.351056
	H4405	H	0.365809	0.742355	0.353143
	H4406	H	0.270168	0.838010	0.148555
	H4407	H	0.332520	0.775333	0.148400
	H4408	H	0.305710	0.765158	0.101353
	H4409	H	0.357351	0.872191	0.099769
	H4410	H	0.278087	0.708763	0.398596
	H4411	H	0.330133	0.815310	0.398871
	H4412	H	0.278245	0.708681	0.100667
	H4413	H	0.330059	0.815291	0.099794
	H4414	H	0.305919	0.765087	0.400012
	H4415	H	0.357207	0.872290	0.398641
	H4416	H	0.280687	0.826666	0.519246
	H4417	H	0.343468	0.764684	0.548812
	H4418	H	0.293827	0.818422	-0.057019
	H4419	H	0.355449	0.753826	-0.029366
	H4420	H	0.292317	0.815126	0.520043
	H4421	H	0.354999	0.752991	0.548235
	H4422	H	0.282178	0.829998	-0.057626
	H4423	H	0.343808	0.765351	-0.029506
	H4424	H	0.296658	0.746661	0.347002
	H4425	H	0.348242	0.853777	0.299744
	H4426	H	0.287293	0.727108	0.153393
	H4427	H	0.339086	0.833870	0.197974
	H4428	H	0.287072	0.727100	0.345867
	H4429	H	0.338835	0.833995	0.299815
	H4430	H	0.296973	0.746624	0.153324
	H4431	H	0.348469	0.853652	0.198110
	Co4432	Co	0.369370	0.897397	0.125159
	Co4433	Co	0.317928	0.790194	0.125268
	Co4434	Co	0.265892	0.683875	0.374367
	Co4435	Co	0.318079	0.790241	0.374195
	C4436	C	0.269051	0.839114	0.423738
	C4437	C	0.331655	0.776842	0.424762
	C4438	C	0.304488	0.803867	0.075837
	C4439	C	0.366993	0.741354	0.076413
	C4440	C	0.304506	0.803807	0.423699
	C4441	C	0.366928	0.741173	0.425245
	C4442	C	0.269004	0.839095	0.075871
	C4443	C	0.331470	0.776529	0.076259
	C4444	C	0.306716	0.767056	0.174198
	C4445	C	0.358216	0.874106	0.172866
	C4446	C	0.277213	0.706898	0.325587
	C4447	C	0.329219	0.813456	0.325610
	C4448	C	0.277276	0.706852	0.173304
	C4449	C	0.329183	0.813434	0.173050
	C4450	C	0.306806	0.766994	0.326872
	C4451	C	0.358134	0.874156	0.325681
	C4452	C	0.273122	0.834956	0.499443
	C4453	C	0.335599	0.772566	0.000678
	C4454	C	0.300367	0.807811	0.499614
	C4455	C	0.362925	0.745370	0.000454
	C4456	C	0.303358	0.760029	0.250654
	C4457	C	0.354804	0.867159	0.249388
	C4458	C	0.280655	0.713836	0.249342
	C4459	C	0.332531	0.820449	0.249190
	C4460	C	0.280008	0.828030	0.499124
	C4461	C	0.342534	0.765686	0.000714
	C4462	C	0.293448	0.814635	0.499399
	C4463	C	0.355993	0.752287	0.000461
	C4464	C	0.297626	0.748314	0.250491
	C4465	C	0.349156	0.855338	0.249223
	C4466	C	0.286393	0.725525	0.249450
	C4467	C	0.338168	0.832289	0.248983
	C4468	C	0.283311	0.824338	0.510650
	C4469	C	0.345951	0.762168	0.527727
	C4470	C	0.290751	0.819804	-0.032227
	C4471	C	0.352737	0.756066	-0.016288
	C4472	C	0.289869	0.817794	0.510713
	C4473	C	0.352507	0.755579	0.527758
	C4474	C	0.284175	0.826305	-0.032025
	C4475	C	0.346179	0.762576	-0.016324
	C4476	C	0.294677	0.742444	0.304184
	C4477	C	0.346267	0.849482	0.277624
	C4478	C	0.289362	0.731385	0.195342
	C4479	C	0.341064	0.838175	0.220454
	C4480	C	0.289202	0.731381	0.303909
	C4481	C	0.340927	0.838286	0.277458
	C4482	C	0.294820	0.742456	0.196042
	C4483	C	0.346393	0.849374	0.220481
	N4484	N	0.263037	0.845165	0.452544
	N4485	N	0.325569	0.782765	0.453161
	N4486	N	0.310482	0.797768	0.046944
	N4487	N	0.373025	0.735275	0.048049
	N4488	N	0.310539	0.797774	0.452305
	N4489	N	0.372947	0.735146	0.453570
	N4490	N	0.262957	0.845093	0.047044
	N4491	N	0.325440	0.782607	0.047446
	N4492	N	0.311718	0.777277	0.202877
	N4493	N	0.363154	0.884361	0.201746
	N4494	N	0.272217	0.696702	0.296947
	N4495	N	0.324319	0.803148	0.296929
	N4496	N	0.272264	0.696658	0.202329
	N4497	N	0.324262	0.803158	0.201945
	N4498	N	0.311779	0.777222	0.297939
	N4499	N	0.363106	0.884386	0.296606
	H4500	H	0.270240	0.837970	0.851830
	H4501	H	0.332745	0.775641	0.852729
	H4502	H	0.303329	0.804817	0.647681
	H4503	H	0.365884	0.742326	0.649071
	H4504	H	0.303339	0.804946	0.852200
	H4505	H	0.365787	0.742230	0.852370
	H4506	H	0.270265	0.837988	0.647501
	H4507	H	0.332533	0.775113	0.648438
	H4508	H	0.305732	0.765294	0.601070
	H4509	H	0.357250	0.872239	0.600110
	H4510	H	0.278005	0.708933	0.898580
	H4511	H	0.330239	0.815092	0.898143
	H4512	H	0.278476	0.708734	0.600426
	H4513	H	0.329851	0.815510	0.600489
	H4514	H	0.306115	0.765028	0.898338
	H4515	H	0.357401	0.872096	0.898506
	H4516	H	0.279735	0.824703	1.058010
	H4517	H	0.343046	0.764086	1.030665
	H4518	H	0.292769	0.815979	0.479746
	H4519	H	0.355048	0.753031	0.452880
	H4520	H	0.291469	0.813169	1.057257
	H4521	H	0.354715	0.752600	1.030833
	H4522	H	0.281138	0.827549	0.479256
	H4523	H	0.343462	0.764699	0.453188
	H4524	H	0.296440	0.747157	0.628919
	H4525	H	0.348325	0.853685	0.826328
	H4526	H	0.287647	0.726734	0.870237
	H4527	H	0.339054	0.833782	0.672676
	H4528	H	0.286779	0.727644	0.628921
	H4529	H	0.338814	0.834044	0.826268
	H4530	H	0.297238	0.746262	0.870848
	H4531	H	0.348613	0.853385	0.672325
	Co4532	Co	0.369366	0.897357	0.625144
	Co4533	Co	0.317989	0.790156	0.625193
	Co4534	Co	0.265867	0.684013	0.873799
	Co4535	Co	0.318009	0.790235	0.874539
	C4536	C	0.269024	0.839085	0.924181
	C4537	C	0.331579	0.776696	0.924618
	C4538	C	0.304462	0.803714	0.575485
	C4539	C	0.366980	0.741204	0.576616
	C4540	C	0.304483	0.803859	0.923979
	C4541	C	0.366938	0.741220	0.924819
	C4542	C	0.269087	0.839130	0.575365
	C4543	C	0.331438	0.776452	0.576346
	C4544	C	0.306713	0.767103	0.673824
	C4545	C	0.358187	0.874126	0.673034
	C4546	C	0.277178	0.706983	0.825803
	C4547	C	0.329227	0.813344	0.825381
	C4548	C	0.277384	0.706886	0.673101
	C4549	C	0.329028	0.813560	0.673259
	C4550	C	0.306909	0.766968	0.826220
	C4551	C	0.358254	0.874077	0.825697
	C4552	C	0.273092	0.835006	1.000158
	C4553	C	0.335633	0.772471	0.500659
	C4554	C	0.300443	0.808060	1.000024
	C4555	C	0.362854	0.745328	0.501058
	C4556	C	0.303414	0.760033	0.750168
	C4557	C	0.354872	0.867077	0.749352
	C4558	C	0.280642	0.713877	0.749728
	C4559	C	0.332468	0.820479	0.749322
	C4560	C	0.280062	0.828243	1.000430
	C4561	C	0.342522	0.765603	0.500823
	C4562	C	0.293520	0.814935	0.999893
	C4563	C	0.355971	0.752214	0.500792
	C4564	C	0.297663	0.748338	0.750085
	C4565	C	0.349251	0.855222	0.749479
	C4566	C	0.286421	0.725560	0.749759
	C4567	C	0.338188	0.832245	0.749403
	C4568	C	0.282823	0.823356	1.032565
	C4569	C	0.345748	0.761863	1.017538
	C4570	C	0.290131	0.818313	0.488348
	C4571	C	0.352542	0.755644	0.473721
	C4572	C	0.289407	0.816851	1.032339
	C4573	C	0.352316	0.755371	1.017619
	C4574	C	0.283571	0.824863	0.488102
	C4575	C	0.345963	0.762199	0.473763
	C4576	C	0.294559	0.742752	0.682289
	C4577	C	0.346338	0.849396	0.792640
	C4578	C	0.289545	0.731192	0.817569
	C4579	C	0.341105	0.838071	0.706274
	C4580	C	0.289100	0.731677	0.681991
	C4581	C	0.340953	0.838242	0.792495
	C4582	C	0.295007	0.742260	0.817579
	C4583	C	0.346472	0.849246	0.706323
	N4584	N	0.262981	0.845098	0.952742
	N4585	N	0.325501	0.782706	0.952982
	N4586	N	0.310493	0.797696	0.546671
	N4587	N	0.372980	0.735154	0.547706
	N4588	N	0.310476	0.797748	0.952630
	N4589	N	0.372994	0.735162	0.953407
	N4590	N	0.263053	0.845171	0.546721
	N4591	N	0.325452	0.782517	0.547430
	N4592	N	0.311700	0.777313	0.702492
	N4593	N	0.363097	0.884436	0.701991
	N4594	N	0.272209	0.696746	0.796526
	N4595	N	0.324264	0.803099	0.796694
	N4596	N	0.272346	0.696672	0.701545
	N4597	N	0.324142	0.803214	0.701923
	N4598	N	0.311804	0.777256	0.797131
	N4599	N	0.363140	0.884407	0.797085
	H4600	H	0.259090	1.007801	0.351896
	H4601	H	0.321415	0.944906	0.350613
	H4602	H	0.292090	0.974292	0.147326
	H4603	H	0.354807	0.912120	0.148781
	H4604	H	0.292257	0.974688	0.351602
	H4605	H	0.354735	0.911881	0.350081
	H4606	H	0.259002	1.007276	0.147703
	H4607	H	0.321537	0.945049	0.148581
	H4608	H	0.295007	0.934584	0.099956
	H4609	H	0.346802	1.041184	0.100892
	H4610	H	0.267569	0.877801	0.399062
	H4611	H	0.319032	0.984800	0.398775
	H4612	H	0.267674	0.877685	0.100003
	H4613	H	0.318926	0.984923	0.101360
	H4614	H	0.294707	0.934727	0.398108
	H4615	H	0.346906	1.041051	0.398936
	H4616	H	0.270088	0.997451	0.538619
	H4617	H	0.332662	0.935007	0.427158
	H4618	H	0.281517	0.985416	-0.027444
	H4619	H	0.343520	0.922201	-0.059222
	H4620	H	0.281730	0.985896	0.539734
	H4621	H	0.344319	0.923448	0.427589
	H4622	H	0.269897	0.996969	-0.027277
	H4623	H	0.331918	0.933776	-0.058245
	H4624	H	0.285967	0.916175	0.250355
	H4625	H	0.337466	1.023047	0.194513
	H4626	H	0.276528	0.896316	0.247130
	H4627	H	0.328325	1.003037	0.304669
	H4628	H	0.276568	0.896388	0.250444
	H4629	H	0.327792	1.003627	0.195105
	H4630	H	0.285993	0.916010	0.247505
	H4631	H	0.338012	1.022453	0.305200
	Co4632	Co	0.359133	1.066131	0.125246
	Co4633	Co	0.306872	0.959901	0.125233
	Co4634	Co	0.255515	0.852674	0.374047
	Co4635	Co	0.306859	0.959814	0.374074
	C4636	C	0.257959	1.008862	0.423977
	C4637	C	0.320326	0.946091	0.422924
	C4638	C	0.293305	0.973305	0.074850
	C4639	C	0.355872	0.910994	0.075920
	C4640	C	0.293387	0.973483	0.423768
	C4641	C	0.355843	0.910882	0.423054
	C4642	C	0.257888	1.008630	0.075528
	C4643	C	0.320399	0.946218	0.076145
	C4644	C	0.295864	0.936552	0.173164
	C4645	C	0.347751	1.043044	0.173677
	C4646	C	0.266695	0.875953	0.325850
	C4647	C	0.318081	0.983008	0.325970
	C4648	C	0.266765	0.875864	0.173323
	C4649	C	0.318051	0.983063	0.173829
	C4650	C	0.295684	0.936609	0.325330
	C4651	C	0.347793	1.042970	0.326054
	C4652	C	0.261992	1.004623	0.500038
	C4653	C	0.324446	0.942090	0.000413
	C4654	C	0.289324	0.977559	0.499833
	C4655	C	0.351733	0.914963	-0.000124
	C4656	C	0.292412	0.929554	0.248999
	C4657	C	0.344323	1.036103	0.249856
	C4658	C	0.270109	0.882922	0.249480
	C4659	C	0.321473	0.990002	0.249908
	C4660	C	0.268900	0.997733	0.499954
	C4661	C	0.331339	0.935147	0.000349
	C4662	C	0.282433	0.984477	0.500066
	C4663	C	0.344795	0.921806	-0.000043
	C4664	C	0.286757	0.917761	0.248899
	C4665	C	0.338560	1.024422	0.249897
	C4666	C	0.275741	0.894723	0.249013
	C4667	C	0.327254	1.001655	0.249740
	C4668	C	0.272516	0.994676	0.521997
	C4669	C	0.335052	0.932205	0.458592
	C4670	C	0.278931	0.987813	-0.016201
	C4671	C	0.341131	0.924938	-0.032945
	C4672	C	0.279109	0.988170	0.522287
	C4673	C	0.341613	0.925688	0.458841
	C4674	C	0.272373	0.994402	-0.016237
	C4675	C	0.334588	0.931493	-0.032852
	C4676	C	0.283924	0.911873	0.249686
	C4677	C	0.335505	1.018696	0.219045
	C4678	C	0.278587	0.900614	0.248122
	C4679	C	0.330292	1.007369	0.280684
	C4680	C	0.278556	0.900699	0.249668
	C4681	C	0.330008	1.007673	0.219036
	C4682	C	0.283952	0.911795	0.248085
	C4683	C	0.335796	1.018400	0.280812
	N4684	N	0.251934	1.014903	0.452861
	N4685	N	0.314323	0.952179	0.452044
	N4686	N	0.299371	0.967330	0.046502
	N4687	N	0.361915	0.904996	0.047151
	N4688	N	0.299382	0.967342	0.452311
	N4689	N	0.361877	0.904821	0.452061
	N4690	N	0.251898	1.014786	0.047139
	N4691	N	0.314394	0.952334	0.047252
	N4692	N	0.300727	0.946852	0.202191
	N4693	N	0.352794	1.053218	0.202254
	N4694	N	0.261749	0.865651	0.297002
	N4695	N	0.313077	0.972823	0.297169
	N4696	N	0.261792	0.865618	0.202260
	N4697	N	0.313072	0.972843	0.202532
	N4698	N	0.300626	0.946871	0.296901
	N4699	N	0.352804	1.053164	0.297232
	H4700	H	0.259230	1.008167	0.850625
	H4701	H	0.321579	0.945206	0.852195
	H4702	H	0.292283	0.974491	0.647874
	H4703	H	0.354860	0.912246	0.647609
	H4704	H	0.292280	0.974540	0.850430
	H4705	H	0.354663	0.911824	0.851417
	H4706	H	0.258902	1.007307	0.648308
	H4707	H	0.321608	0.945045	0.646343
	H4708	H	0.294971	0.934664	0.600581
	H4709	H	0.346859	1.041224	0.600702
	H4710	H	0.267758	0.877677	0.899421
	H4711	H	0.319285	0.984680	0.898740
	H4712	H	0.267407	0.878115	0.601309
	H4713	H	0.318793	0.985187	0.600410
	H4714	H	0.294675	0.934738	0.899190
	H4715	H	0.346820	1.041224	0.898725
	H4716	H	0.269823	0.996739	1.024119
	H4717	H	0.332661	0.934645	1.058746
	H4718	H	0.281244	0.984835	0.461390
	H4719	H	0.343609	0.922108	0.570048
	H4720	H	0.281405	0.985028	1.023962
	H4721	H	0.344254	0.923062	1.058124
	H4722	H	0.269582	0.996307	0.460710
	H4723	H	0.332004	0.933706	0.569683
	H4724	H	0.286127	0.916116	0.759978
	H4725	H	0.337765	1.022738	0.732389
	H4726	H	0.276395	0.896411	0.740080
	H4727	H	0.327901	1.003602	0.767786
	H4728	H	0.276621	0.896362	0.760196
	H4729	H	0.328133	1.003159	0.732817
	H4730	H	0.285833	0.916190	0.739504
	H4731	H	0.337531	1.023076	0.766950
	Co4732	Co	0.359199	1.066043	0.625837
	Co4733	Co	0.306912	0.959738	0.625022
	Co4734	Co	0.255567	0.852730	0.874335
	Co4735	Co	0.306936	0.959809	0.874002
	C4736	C	0.258020	1.009054	0.923349
	C4737	C	0.320434	0.946270	0.924268
	C4738	C	0.293392	0.973366	0.575683
	C4739	C	0.355903	0.911076	0.575072
	C4740	C	0.293408	0.973380	0.922770
	C4741	C	0.355794	0.910855	0.924082
	C4742	C	0.257857	1.008616	0.576004
	C4743	C	0.320428	0.946150	0.574697
	C4744	C	0.295820	0.936520	0.673255
	C4745	C	0.347724	1.043075	0.673603
	C4746	C	0.266780	0.875859	0.826508
	C4747	C	0.318240	0.982846	0.825915
	C4748	C	0.266609	0.876054	0.673919
	C4749	C	0.317980	0.983108	0.673225
	C4750	C	0.295660	0.936593	0.825899
	C4751	C	0.347687	1.043054	0.825913
	C4752	C	0.262048	1.004693	0.999068
	C4753	C	0.324427	0.942068	0.498567
	C4754	C	0.289265	0.977444	0.998396
	C4755	C	0.351819	0.915044	0.499064
	C4756	C	0.292362	0.929588	0.749408
	C4757	C	0.344253	1.036157	0.749533
	C4758	C	0.270061	0.882945	0.750313
	C4759	C	0.321510	0.989944	0.749625
	C4760	C	0.268921	0.997753	0.998487
	C4761	C	0.331397	0.935240	0.498729
	C4762	C	0.282344	0.984290	0.998146
	C4763	C	0.344886	0.921917	0.499029
	C4764	C	0.286705	0.917766	0.749373
	C4765	C	0.338488	1.024488	0.749743
	C4766	C	0.275713	0.894751	0.750169
	C4767	C	0.327205	1.001691	0.749835
	C4768	C	0.272327	0.994216	1.012846
	C4769	C	0.334997	0.931979	1.033122
	C4770	C	0.278819	0.987558	0.478210
	C4771	C	0.341233	0.924982	0.538968
	C4772	C	0.278886	0.987636	1.012676
	C4773	C	0.341554	0.925446	1.032912
	C4774	C	0.272239	0.994065	0.477957
	C4775	C	0.334680	0.931468	0.538787
	C4776	C	0.283963	0.911806	0.755647
	C4777	C	0.335627	1.018548	0.740223
	C4778	C	0.278475	0.900693	0.744395
	C4779	C	0.330020	1.007639	0.759397
	C4780	C	0.278611	0.900638	0.755738
	C4781	C	0.330149	1.007491	0.740269
	C4782	C	0.283812	0.911881	0.743925
	C4783	C	0.335490	1.018708	0.759282
	N4784	N	0.251975	1.015017	0.952626
	N4785	N	0.314399	0.952331	0.952693
	N4786	N	0.299397	0.967279	0.546817
	N4787	N	0.361918	0.904978	0.546438
	N4788	N	0.299441	0.967395	0.952068
	N4789	N	0.361873	0.904923	0.952978
	N4790	N	0.251861	1.014744	0.547280
	N4791	N	0.314394	0.952235	0.546445
	N4792	N	0.300759	0.946760	0.702401
	N4793	N	0.352771	1.053248	0.702830
	N4794	N	0.261831	0.865601	0.797264
	N4795	N	0.313215	0.972686	0.796831
	N4796	N	0.261730	0.865706	0.702420
	N4797	N	0.313057	0.972825	0.701931
	N4798	N	0.300684	0.946813	0.797030
	N4799	N	0.352737	1.053201	0.797459
	H4800	H	0.368127	0.205918	0.348363
	H4801	H	0.430681	0.143111	0.349235
	H4802	H	0.404636	0.178855	0.149914
	H4803	H	0.466993	0.116154	0.149928
	H4804	H	0.404711	0.179002	0.349732
	H4805	H	0.467357	0.116692	0.350801
	H4806	H	0.368244	0.205868	0.150720
	H4807	H	0.430574	0.143230	0.150968
	H4808	H	0.403702	0.141842	0.100231
	H4809	H	0.475144	0.149604	0.098286
	H4810	H	0.372221	0.089968	0.399251
	H4811	H	0.436823	0.170568	0.400861
	H4812	H	0.372417	0.089829	0.101458
	H4813	H	0.436848	0.170358	0.098530
	H4814	H	0.403942	0.141500	0.399955
	H4815	H	0.475172	0.149690	0.401121
	H4816	H	0.379680	0.195676	0.646650
	H4817	H	0.442150	0.133094	0.646436
	H4818	H	0.392381	0.186851	0.146379
	H4819	H	0.454821	0.124267	0.146074
	H4820	H	0.392403	0.187069	0.646603
	H4821	H	0.454966	0.124548	0.647108
	H4822	H	0.379665	0.195551	0.145843
	H4823	H	0.442072	0.133007	0.146618
	H4824	H	0.392713	0.125974	0.172949
	H4825	H	0.462216	0.155193	0.398907
	H4826	H	0.383039	0.106198	0.327858
	H4827	H	0.449487	0.163800	0.100681
	H4828	H	0.381867	0.107907	0.174052
	H4829	H	0.449456	0.163739	0.398998
	H4830	H	0.393939	0.124186	0.327589
	H4831	H	0.462221	0.155205	0.101100
	Co4832	Co	0.493457	0.157480	0.125222
	Co4833	Co	0.418718	0.163297	0.125151
	Co4834	Co	0.359203	0.065950	0.374122
	Co4835	Co	0.418753	0.163279	0.374174
	C4836	C	0.367193	0.207232	0.422416
	C4837	C	0.429732	0.144582	0.423091
	C4838	C	0.405899	0.178028	0.076426
	C4839	C	0.468291	0.115420	0.076863
	C4840	C	0.405903	0.178095	0.423136
	C4841	C	0.468464	0.115718	0.424264
	C4842	C	0.367218	0.207127	0.076764
	C4843	C	0.429606	0.144547	0.076960
	C4844	C	0.404824	0.143411	0.173507
	C4845	C	0.476633	0.149775	0.172625
	C4846	C	0.371270	0.088191	0.326486
	C4847	C	0.435361	0.170422	0.326681
	C4848	C	0.371356	0.088134	0.174316
	C4849	C	0.435378	0.170354	0.172626
	C4850	C	0.404953	0.143232	0.326681
	C4851	C	0.476637	0.149816	0.326865
	C4852	C	0.371192	0.202708	0.499171
	C4853	C	0.433604	0.140030	0.000468
	C4854	C	0.401374	0.181315	0.499680
	C4855	C	0.463790	0.118703	0.000574
	C4856	C	0.400874	0.137149	0.250236
	C4857	C	0.471471	0.150469	0.249670
	C4858	C	0.375117	0.094676	0.250532
	C4859	C	0.440460	0.169275	0.249705
	C4860	C	0.378551	0.196578	0.499528
	C4861	C	0.440944	0.133897	0.000659
	C4862	C	0.393617	0.186412	0.499679
	C4863	C	0.456000	0.123682	0.000513
	C4864	C	0.394231	0.126585	0.250435
	C4865	C	0.463381	0.154481	0.249918
	C4866	C	0.381561	0.105529	0.250771
	C4867	C	0.448408	0.164815	0.249830
	C4868	C	0.382382	0.193823	0.581407
	C4869	C	0.444927	0.131303	0.581844
	C4870	C	0.389665	0.188743	0.081288
	C4871	C	0.452076	0.126201	0.081603
	C4872	C	0.389674	0.188943	0.581463
	C4873	C	0.452209	0.126401	0.582090
	C4874	C	0.382380	0.193673	0.081188
	C4875	C	0.444794	0.131141	0.081869
	C4876	C	0.390616	0.121663	0.207236
	C4877	C	0.459498	0.157066	0.332803
	C4878	C	0.385125	0.110469	0.293881
	C4879	C	0.452234	0.162048	0.167019
	C4880	C	0.384469	0.111431	0.207529
	C4881	C	0.452237	0.162036	0.332791
	C4882	C	0.391283	0.120708	0.293697
	C4883	C	0.459502	0.157102	0.167185
	N4884	N	0.361558	0.214157	0.451653
	N4885	N	0.424058	0.151510	0.452138
	N4886	N	0.412539	0.173224	0.047799
	N4887	N	0.474966	0.110684	0.048378
	N4888	N	0.412492	0.173124	0.451742
	N4889	N	0.475054	0.110788	0.452905
	N4890	N	0.361538	0.213985	0.048026
	N4891	N	0.423971	0.151444	0.047966
	N4892	N	0.410775	0.152423	0.202355
	N4893	N	0.484411	0.149573	0.201048
	N4894	N	0.365744	0.078611	0.297421
	N4895	N	0.427646	0.171308	0.298269
	N4896	N	0.365786	0.078608	0.202795
	N4897	N	0.427672	0.171262	0.200522
	N4898	N	0.410852	0.152301	0.297568
	N4899	N	0.484420	0.149573	0.298266
	H4900	H	0.368043	0.205614	0.848964
	H4901	H	0.430646	0.143125	0.849598
	H4902	H	0.404719	0.178977	0.649694
	H4903	H	0.467108	0.116281	0.650923
	H4904	H	0.404772	0.179045	0.849728
	H4905	H	0.467159	0.116462	0.850485
	H4906	H	0.368112	0.205808	0.649888
	H4907	H	0.430670	0.143215	0.650909
	H4908	H	0.403804	0.141576	0.600034
	H4909	H	0.475228	0.149607	0.599011
	H4910	H	0.372075	0.090128	0.900061
	H4911	H	0.436993	0.170475	0.901469
	H4912	H	0.372618	0.089552	0.600991
	H4913	H	0.436947	0.170356	0.598635
	H4914	H	0.403827	0.141577	0.900216
	H4915	H	0.475178	0.149725	0.901113
	H4916	H	0.379768	0.195863	0.852930
	H4917	H	0.442101	0.133080	0.854640
	H4918	H	0.392424	0.187059	0.352602
	H4919	H	0.454927	0.124487	0.354017
	H4920	H	0.392494	0.187202	0.852842
	H4921	H	0.454819	0.124420	0.854534
	H4922	H	0.379644	0.195615	0.352654
	H4923	H	0.442171	0.133134	0.354095
	H4924	H	0.393005	0.125505	0.693557
	H4925	H	0.462312	0.155204	0.600155
	H4926	H	0.382784	0.106558	0.807372
	H4927	H	0.449518	0.163582	0.899458
	H4928	H	0.382049	0.107513	0.694411
	H4929	H	0.449580	0.163808	0.600115
	H4930	H	0.393706	0.124495	0.806790
	H4931	H	0.462202	0.154866	0.899009
	Co4932	Co	0.493512	0.157597	0.625698
	Co4933	Co	0.418740	0.163256	0.625577
	Co4934	Co	0.359090	0.066070	0.874410
	Co4935	Co	0.418765	0.163269	0.874715
	C4936	C	0.367137	0.207011	0.923051
	C4937	C	0.429663	0.144553	0.923447
	C4938	C	0.405898	0.178073	0.576230
	C4939	C	0.468378	0.115505	0.577544
	C4940	C	0.405952	0.178123	0.923030
	C4941	C	0.468352	0.115574	0.923938
	C4942	C	0.367216	0.207224	0.576034
	C4943	C	0.429733	0.144615	0.576898
	C4944	C	0.404912	0.143278	0.673459
	C4945	C	0.476728	0.149887	0.672811
	C4946	C	0.371212	0.088260	0.826666
	C4947	C	0.435459	0.170309	0.827325
	C4948	C	0.371463	0.087961	0.673921
	C4949	C	0.435445	0.170282	0.672716
	C4950	C	0.404924	0.143293	0.826949
	C4951	C	0.476709	0.149985	0.827071
	C4952	C	0.371188	0.202595	0.999802
	C4953	C	0.433715	0.140101	0.500260
	C4954	C	0.401384	0.181275	0.999617
	C4955	C	0.463906	0.118896	0.501042
	C4956	C	0.400920	0.137097	0.750133
	C4957	C	0.471517	0.150479	0.749645
	C4958	C	0.375096	0.094669	0.750440
	C4959	C	0.440560	0.169194	0.749887
	C4960	C	0.378556	0.196511	0.999546
	C4961	C	0.441083	0.134024	0.500319
	C4962	C	0.393632	0.186354	0.999587
	C4963	C	0.456149	0.123926	0.500786
	C4964	C	0.394315	0.126439	0.750237
	C4965	C	0.463411	0.154390	0.749491
	C4966	C	0.381533	0.105560	0.750468
	C4967	C	0.448484	0.164691	0.749829
	C4968	C	0.382473	0.193943	0.918046
	C4969	C	0.444814	0.131176	0.919476
	C4970	C	0.389691	0.188929	0.417807
	C4971	C	0.452221	0.126401	0.418882
	C4972	C	0.389766	0.189035	0.918032
	C4973	C	0.452094	0.126238	0.919234
	C4974	C	0.382402	0.193826	0.417876
	C4975	C	0.444916	0.131266	0.418594
	C4976	C	0.390796	0.121389	0.718578
	C4977	C	0.459570	0.157034	0.666400
	C4978	C	0.384991	0.110661	0.782063
	C4979	C	0.452268	0.161878	0.833157
	C4980	C	0.384596	0.111221	0.718950
	C4981	C	0.452299	0.161969	0.666561
	C4982	C	0.391195	0.120827	0.781838
	C4983	C	0.459533	0.156894	0.832962
	N4984	N	0.361523	0.213969	0.952122
	N4985	N	0.423995	0.151441	0.952093
	N4986	N	0.412495	0.173153	0.547893
	N4987	N	0.474986	0.110666	0.549106
	N4988	N	0.412562	0.173273	0.951671
	N4989	N	0.475002	0.110791	0.952579
	N4990	N	0.361559	0.214127	0.547714
	N4991	N	0.424090	0.151502	0.547978
	N4992	N	0.410800	0.152379	0.702421
	N4993	N	0.484477	0.149715	0.701486
	N4994	N	0.365730	0.078614	0.797480
	N4995	N	0.427736	0.171216	0.798850
	N4996	N	0.365883	0.078449	0.702748
	N4997	N	0.427737	0.171170	0.701166
	N4998	N	0.410822	0.152375	0.797903
	N4999	N	0.484490	0.149766	0.798795
	H5000	H	0.381098	0.263764	0.348706
	H5001	H	0.443503	0.201045	0.348605
	H5002	H	0.418759	0.239416	0.150866
	H5003	H	0.481236	0.176817	0.150956
	H5004	H	0.418780	0.239264	0.348597
	H5005	H	0.481236	0.176882	0.349078
	H5006	H	0.380928	0.263464	0.150284
	H5007	H	0.443404	0.201186	0.150840
	H5008	H	0.412793	0.212093	0.098065
	H5009	H	0.488326	0.209552	0.098637
	H5010	H	0.374427	0.233096	0.401411
	H5011	H	0.449332	0.228072	0.401648
	H5012	H	0.374443	0.233048	0.099089
	H5013	H	0.449348	0.228355	0.098763
	H5014	H	0.412791	0.212213	0.400930
	H5015	H	0.488263	0.209361	0.401101
	H5016	H	0.393346	0.255158	0.649258
	H5017	H	0.455870	0.192988	0.649289
	H5018	H	0.406593	0.248174	-0.149386
	H5019	H	0.468940	0.185448	0.149592
	H5020	H	0.406448	0.247652	0.649303
	H5021	H	0.469006	0.185477	0.649593
	H5022	H	0.393458	0.255603	-0.149559
	H5023	H	0.455872	0.192948	0.149913
	H5024	H	0.399837	0.218021	0.398939
	H5025	H	0.475290	0.215022	0.100148
	H5026	H	0.386926	0.226050	0.100925
	H5027	H	0.462298	0.222774	0.400212
	H5028	H	0.387191	0.226557	0.399397
	H5029	H	0.462387	0.222824	0.100096
	H5030	H	0.399647	0.217423	0.100139
	H5031	H	0.475320	0.214903	0.399992
	Co5032	Co	0.506626	0.217548	0.126061
	Co5033	Co	0.431042	0.220083	0.125638
	Co5034	Co	0.356288	0.226022	0.374644
	Co5035	Co	0.431042	0.220087	0.374298
	C5036	C	0.380000	0.264923	0.422857
	C5037	C	0.442428	0.202332	0.422950
	C5038	C	0.419818	0.238077	0.076614
	C5039	C	0.482243	0.175595	0.076957
	C5040	C	0.419780	0.237984	0.422765
	C5041	C	0.482282	0.175616	0.423450
	C5042	C	0.379868	0.264734	0.076352
	C5043	C	0.442397	0.202405	0.076478
	C5044	C	0.414247	0.212252	0.172450
	C5045	C	0.489788	0.209744	0.172853
	C5046	C	0.372958	0.232985	0.327530
	C5047	C	0.447821	0.227894	0.327520
	C5048	C	0.372956	0.232928	0.173272
	C5049	C	0.447837	0.227989	0.173096
	C5050	C	0.414240	0.212375	0.326753
	C5051	C	0.489797	0.209645	0.327236
	C5052	C	0.384294	0.261021	0.499600
	C5053	C	0.446752	0.198576	-0.000437
	C5054	C	0.415474	0.241878	0.499338
	C5055	C	0.478000	0.179608	0.000092
	C5056	C	0.409063	0.212959	0.249374
	C5057	C	0.484608	0.210306	0.250177
	C5058	C	0.378016	0.231782	0.250219
	C5059	C	0.453017	0.227339	0.250447
	C5060	C	0.392079	0.255921	0.499449
	C5061	C	0.454584	0.193585	0.000017
	C5062	C	0.407712	0.247050	0.499500
	C5063	C	0.470246	0.184803	0.000097
	C5064	C	0.400938	0.216867	0.249341
	C5065	C	0.476456	0.214106	0.250241
	C5066	C	0.385956	0.227232	0.250077
	C5067	C	0.461169	0.223563	0.250330
	C5068	C	0.396148	0.253610	0.582433
	C5069	C	0.458654	0.191317	0.582820
	C5070	C	0.403751	0.249656	-0.082711
	C5071	C	0.466167	0.187097	0.083106
	C5072	C	0.403663	0.249299	0.582654
	C5073	C	0.466186	0.187051	0.583089
	C5074	C	0.396211	0.253892	-0.082936
	C5075	C	0.458619	0.191304	0.083088
	C5076	C	0.397100	0.219632	0.332464
	C5077	C	0.472524	0.216617	0.166864
	C5078	C	0.389737	0.224331	0.166905
	C5079	C	0.465097	0.221113	0.333723
	C5080	C	0.389861	0.224620	0.333069
	C5081	C	0.465122	0.221161	0.166940
	C5082	C	0.397003	0.219380	0.166529
	C5083	C	0.472517	0.216552	0.333713
	N5084	N	0.373796	0.270827	0.451333
	N5085	N	0.436295	0.208401	0.451976
	N5086	N	0.425905	0.231936	0.047899
	N5087	N	0.488335	0.169434	0.048442
	N5088	N	0.425891	0.231884	0.451526
	N5089	N	0.488337	0.169417	0.451946
	N5090	N	0.373643	0.270613	0.047718
	N5091	N	0.436224	0.208344	0.047972
	N5092	N	0.422026	0.212063	0.201062
	N5093	N	0.497575	0.209571	0.201430
	N5094	N	0.365240	0.233954	0.299180
	N5095	N	0.440050	0.228062	0.298824
	N5096	N	0.365246	0.233878	0.201372
	N5097	N	0.440056	0.228117	0.201510
	N5098	N	0.422021	0.212106	0.298505
	N5099	N	0.497593	0.209507	0.298728
	H5100	H	0.380981	0.263565	0.848289
	H5101	H	0.443445	0.201125	0.848729
	H5102	H	0.418719	0.239274	0.649977
	H5103	H	0.481260	0.176927	0.651563
	H5104	H	0.418806	0.239476	0.848994
	H5105	H	0.481292	0.177011	0.849499
	H5106	H	0.380869	0.263339	0.650657
	H5107	H	0.443497	0.201058	0.651289
	H5108	H	0.412720	0.212300	0.599007
	H5109	H	0.488356	0.209258	0.598132
	H5110	H	0.374441	0.232784	0.901798
	H5111	H	0.449336	0.228116	0.901430
	H5112	H	0.374417	0.233183	0.598861
	H5113	H	0.449361	0.228243	0.598526
	H5114	H	0.412761	0.212163	0.901443
	H5115	H	0.488355	0.209420	0.901353
	H5116	H	0.393311	0.255328	1.148714
	H5117	H	0.455942	0.193063	0.850583
	H5118	H	0.406487	0.247882	0.349844
	H5119	H	0.469032	0.185409	0.351010
	H5120	H	0.406426	0.247759	1.149469
	H5121	H	0.469028	0.185469	0.850667
	H5122	H	0.393373	0.255371	0.349504
	H5123	H	0.455830	0.192688	0.350579
	H5124	H	0.399858	0.217996	0.899242
	H5125	H	0.475368	0.214865	0.899539
	H5126	H	0.386967	0.226013	0.600908
	H5127	H	0.462358	0.222684	0.599823
	H5128	H	0.387056	0.226473	0.899470
	H5129	H	0.462403	0.222686	0.899731
	H5130	H	0.399706	0.217572	0.601090
	H5131	H	0.475309	0.214865	0.599527
	Co5132	Co	0.506659	0.217562	0.625887
	Co5133	Co	0.431040	0.220069	0.625613
	Co5134	Co	0.356257	0.225802	0.874971
	Co5135	Co	0.431050	0.220127	0.874281
	C5136	C	0.379884	0.264793	0.922546
	C5137	C	0.442387	0.202356	0.922671
	C5138	C	0.419747	0.237956	0.576413
	C5139	C	0.482280	0.175580	0.577229
	C5140	C	0.419832	0.238149	0.922818
	C5141	C	0.482302	0.175726	0.923303
	C5142	C	0.379892	0.264736	0.576567
	C5143	C	0.442469	0.202392	0.577178
	C5144	C	0.414203	0.212413	0.673121
	C5145	C	0.489821	0.209562	0.672397
	C5146	C	0.372924	0.232698	0.827407
	C5147	C	0.447876	0.227826	0.827033
	C5148	C	0.372922	0.232938	0.673105
	C5149	C	0.447878	0.227935	0.672830
	C5150	C	0.414226	0.212367	0.827184
	C5151	C	0.489821	0.209686	0.826940
	C5152	C	0.384250	0.261035	0.999448
	C5153	C	0.446757	0.198506	0.500000
	C5154	C	0.415534	0.242051	0.999860
	C5155	C	0.478014	0.179544	0.500346
	C5156	C	0.409043	0.213026	0.750218
	C5157	C	0.484645	0.210244	0.749548
	C5158	C	0.377991	0.231670	0.750084
	C5159	C	0.453071	0.227288	0.749894
	C5160	C	0.392092	0.256054	0.999709
	C5161	C	0.454571	0.193458	0.499955
	C5162	C	0.407759	0.247231	1.000146
	C5163	C	0.470241	0.184731	0.500327
	C5164	C	0.400915	0.216966	0.750299
	C5165	C	0.476512	0.214082	0.749543
	C5166	C	0.385913	0.227176	0.750126
	C5167	C	0.461248	0.223568	0.749789
	C5168	C	0.396133	0.253724	1.082520
	C5169	C	0.458678	0.191365	0.917355
	C5170	C	0.403663	0.249433	0.416502
	C5171	C	0.466218	0.187050	0.417375
	C5172	C	0.403671	0.249447	1.082829
	C5173	C	0.466222	0.187118	0.917046
	C5174	C	0.396148	0.253746	0.416364
	C5175	C	0.458650	0.191220	0.417234
	C5176	C	0.397056	0.219676	0.833243
	C5177	C	0.472592	0.216526	0.833035
	C5178	C	0.389718	0.224342	0.667341
	C5179	C	0.465161	0.221096	0.666289
	C5180	C	0.389773	0.224564	0.833233
	C5181	C	0.465193	0.221095	0.833114
	C5182	C	0.396993	0.219436	0.667315
	C5183	C	0.472551	0.216526	0.666245
	N5184	N	0.373664	0.270703	0.951346
	N5185	N	0.436214	0.208319	0.951292
	N5186	N	0.425852	0.231827	0.547997
	N5187	N	0.488364	0.169435	0.548282
	N5188	N	0.425901	0.231959	0.951574
	N5189	N	0.488335	0.169475	0.951812
	N5190	N	0.373731	0.270725	0.547982
	N5191	N	0.436293	0.208376	0.548354
	N5192	N	0.421977	0.212198	0.701336
	N5193	N	0.497631	0.209479	0.701182
	N5194	N	0.365205	0.233719	0.799350
	N5195	N	0.440112	0.228035	0.798656
	N5196	N	0.365204	0.233843	0.701635
	N5197	N	0.440107	0.228074	0.701294
	N5198	N	0.421998	0.212143	0.798628
	N5199	N	0.497630	0.209557	0.798382
	H5200	H	0.393919	0.323498	0.348913
	H5201	H	0.456318	0.260622	0.349328
	H5202	H	0.431504	0.298754	0.150624
	H5203	H	0.494157	0.236544	0.151766
	H5204	H	0.431654	0.299072	0.348799
	H5205	H	0.494173	0.236428	0.348657
	H5206	H	0.393784	0.323113	0.150455
	H5207	H	0.456460	0.260945	0.150843
	H5208	H	0.425878	0.271747	0.098862
	H5209	H	0.500622	0.266808	0.098613
	H5210	H	0.386954	0.290861	0.400894
	H5211	H	0.462437	0.288064	0.400885
	H5212	H	0.386731	0.290362	0.098507
	H5213	H	0.462398	0.287974	0.098257
	H5214	H	0.425799	0.271953	0.401781
	H5215	H	0.500647	0.266933	0.401353
	H5216	H	0.406170	0.314941	0.349881
	H5217	H	0.468611	0.252068	0.349985
	H5218	H	0.419185	0.307025	0.149213
	H5219	H	0.481726	0.244748	0.150111
	H5220	H	0.419165	0.307162	0.349893
	H5221	H	0.481701	0.244536	0.350194
	H5222	H	0.406164	0.314657	0.149213
	H5223	H	0.468628	0.252175	0.150074
	H5224	H	0.412838	0.277342	0.099062
	H5225	H	0.488204	0.273984	0.100378
	H5226	H	0.399857	0.285292	0.399536
	H5227	H	0.475236	0.281977	0.399137
	H5228	H	0.399924	0.285130	0.098826
	H5229	H	0.475474	0.282632	0.100094
	H5230	H	0.412836	0.277408	0.399746
	H5231	H	0.487910	0.273382	0.399662
	Co5232	Co	0.518740	0.274027	0.125285
	Co5233	Co	0.444092	0.279981	0.126066
	Co5234	Co	0.368568	0.282579	0.374495
	Co5235	Co	0.444157	0.280090	0.374343
	C5236	C	0.392872	0.324664	0.423163
	C5237	C	0.455352	0.262030	0.422995
	C5238	C	0.432603	0.297562	0.076371
	C5239	C	0.495190	0.235232	0.077397
	C5240	C	0.432683	0.297719	0.422825
	C5241	C	0.495144	0.235135	0.423052
	C5242	C	0.392835	0.324489	0.076115
	C5243	C	0.455380	0.262054	0.076807
	C5244	C	0.427334	0.272091	0.173225
	C5245	C	0.502107	0.266970	0.172688
	C5246	C	0.385397	0.290486	0.326870
	C5247	C	0.460962	0.287777	0.326622
	C5248	C	0.385314	0.290184	0.172603
	C5249	C	0.460930	0.287725	0.172292
	C5250	C	0.427320	0.272194	0.327601
	C5251	C	0.502123	0.266948	0.327201
	C5252	C	0.397128	0.320685	0.500066
	C5253	C	0.459637	0.258082	-0.000186
	C5254	C	0.428289	0.301461	0.499663
	C5255	C	0.490851	0.239072	0.000252
	C5256	C	0.422142	0.272707	0.250263
	C5257	C	0.497051	0.268123	0.249927
	C5258	C	0.390558	0.289766	0.249668
	C5259	C	0.466112	0.287100	0.249292
	C5260	C	0.404868	0.315509	0.499768
	C5261	C	0.467392	0.252891	0.000018
	C5262	C	0.420449	0.306492	0.499671
	C5263	C	0.483044	0.244114	0.000221
	C5264	C	0.413990	0.276494	0.249601
	C5265	C	0.489131	0.272695	0.249921
	C5266	C	0.398704	0.285978	0.249386
	C5267	C	0.474201	0.283099	0.249459
	C5268	C	0.408912	0.313207	0.416610
	C5269	C	0.471404	0.250508	0.416805
	C5270	C	0.416436	0.308720	0.082522
	C5271	C	0.478948	0.246292	0.083319
	C5272	C	0.416415	0.308869	0.416759
	C5273	C	0.478916	0.246180	0.416952
	C5274	C	0.408931	0.313047	0.082525
	C5275	C	0.471425	0.250569	0.083388
	C5276	C	0.410083	0.279003	0.165861
	C5277	C	0.485380	0.275617	0.166661
	C5278	C	0.402635	0.283582	0.332947
	C5279	C	0.478008	0.280315	0.332691
	C5280	C	0.402660	0.283514	0.165942
	C5281	C	0.478126	0.280600	0.166490
	C5282	C	0.410045	0.279022	0.333057
	C5283	C	0.485242	0.275312	0.333055
	N5284	N	0.386780	0.330797	0.451658
	N5285	N	0.449320	0.268274	0.451569
	N5286	N	0.438775	0.291560	0.048116
	N5287	N	0.501362	0.229241	0.048564
	N5288	N	0.438879	0.291812	0.451568
	N5289	N	0.501346	0.229242	0.451455
	N5290	N	0.386777	0.330731	0.047858
	N5291	N	0.449295	0.268217	0.048069
	N5292	N	0.435116	0.272004	0.202128
	N5293	N	0.509813	0.266020	0.200757
	N5294	N	0.377596	0.290518	0.298605
	N5295	N	0.453176	0.288038	0.298246
	N5296	N	0.377555	0.290315	0.201513
	N5297	N	0.453162	0.287985	0.200996
	N5298	N	0.435116	0.272055	0.299390
	N5299	N	0.509828	0.265992	0.298677
	H5300	H	0.393997	0.323524	0.848410
	H5301	H	0.456322	0.260543	0.848706
	H5302	H	0.431547	0.298873	0.650719
	H5303	H	0.494053	0.236210	0.650690
	H5304	H	0.431698	0.298966	0.848412
	H5305	H	0.494179	0.236564	0.849469
	H5306	H	0.393814	0.323175	0.650788
	H5307	H	0.456461	0.260940	0.650974
	H5308	H	0.425739	0.272024	0.598106
	H5309	H	0.500604	0.266846	0.598560
	H5310	H	0.386723	0.290678	0.900951
	H5311	H	0.462341	0.287738	0.900857
	H5312	H	0.386741	0.290589	0.598007
	H5313	H	0.462415	0.288243	0.598720
	H5314	H	0.425762	0.271943	0.900665
	H5315	H	0.500613	0.266976	0.901615
	H5316	H	0.406187	0.314816	0.849478
	H5317	H	0.468657	0.252248	0.850609
	H5318	H	0.419098	0.306913	0.649532
	H5319	H	0.481677	0.244633	0.649821
	H5320	H	0.419275	0.307273	0.849396
	H5321	H	0.481797	0.244781	0.850632
	H5322	H	0.406106	0.314687	0.649767
	H5323	H	0.468660	0.252322	0.649550
	H5324	H	0.412793	0.277634	0.900129
	H5325	H	0.488049	0.273875	0.899598
	H5326	H	0.399645	0.284967	0.599757
	H5327	H	0.475355	0.282332	0.600454
	H5328	H	0.399822	0.285490	0.899840
	H5329	H	0.475382	0.282462	0.899186
	H5330	H	0.412611	0.277092	0.599493
	H5331	H	0.488061	0.273759	0.600610
	Co5332	Co	0.518789	0.273974	0.625690
	Co5333	Co	0.444082	0.280043	0.625410
	Co5334	Co	0.368454	0.282490	0.873907
	Co5335	Co	0.444088	0.279941	0.874276
	C5336	C	0.392931	0.324720	0.922876
	C5337	C	0.455315	0.261928	0.923145
	C5338	C	0.432637	0.297656	0.576762
	C5339	C	0.495124	0.235069	0.576642
	C5340	C	0.432692	0.297667	0.922625
	C5341	C	0.495191	0.235222	0.923451
	C5342	C	0.392834	0.324560	0.576868
	C5343	C	0.455429	0.262215	0.576591
	C5344	C	0.427208	0.272197	0.672328
	C5345	C	0.502121	0.266993	0.672864
	C5346	C	0.385250	0.290413	0.826684
	C5347	C	0.460896	0.287672	0.826781
	C5348	C	0.385266	0.290318	0.672458
	C5349	C	0.460906	0.287908	0.672612
	C5350	C	0.427229	0.272193	0.826745
	C5351	C	0.502119	0.267028	0.827361
	C5352	C	0.397168	0.320625	0.999385
	C5353	C	0.459668	0.258162	0.499631
	C5354	C	0.428303	0.301444	0.999171
	C5355	C	0.490759	0.238855	0.499775
	C5356	C	0.422046	0.272803	0.749815
	C5357	C	0.497055	0.268216	0.749968
	C5358	C	0.390412	0.289747	0.749853
	C5359	C	0.466080	0.287114	0.749539
	C5360	C	0.404909	0.315413	0.999207
	C5361	C	0.467395	0.252931	0.499729
	C5362	C	0.420502	0.306521	0.999078
	C5363	C	0.482978	0.243931	0.499857
	C5364	C	0.413858	0.276524	0.749926
	C5365	C	0.489143	0.272771	0.749933
	C5366	C	0.398587	0.285990	0.749891
	C5367	C	0.474177	0.283122	0.749555
	C5368	C	0.408956	0.313156	0.916094
	C5369	C	0.471451	0.250576	0.917208
	C5370	C	0.416399	0.308708	0.582837
	C5371	C	0.478917	0.246223	0.582888
	C5372	C	0.416478	0.308862	0.916014
	C5373	C	0.478980	0.246304	0.917222
	C5374	C	0.408893	0.313056	0.582887
	C5375	C	0.471433	0.250633	0.582899
	C5376	C	0.409974	0.279133	0.833295
	C5377	C	0.485330	0.275598	0.833016
	C5378	C	0.402474	0.283404	0.666203
	C5379	C	0.478070	0.280521	0.666614
	C5380	C	0.402569	0.283678	0.833272
	C5381	C	0.478072	0.280555	0.832840
	C5382	C	0.409869	0.278831	0.666295
	C5383	C	0.485315	0.275529	0.666911
	N5384	N	0.386858	0.330861	0.951274
	N5385	N	0.449237	0.268082	0.951530
	N5386	N	0.438839	0.291756	0.548122
	N5387	N	0.501348	0.229195	0.548260
	N5388	N	0.438824	0.291630	0.951454
	N5389	N	0.501331	0.229239	0.951929
	N5390	N	0.386755	0.330733	0.548212
	N5391	N	0.449343	0.268333	0.548011
	N5392	N	0.435024	0.272049	0.700899
	N5393	N	0.509824	0.266035	0.701096
	N5394	N	0.377482	0.290528	0.798112
	N5395	N	0.453132	0.287939	0.798313
	N5396	N	0.377482	0.290532	0.700791
	N5397	N	0.453138	0.288074	0.700990
	N5398	N	0.435020	0.272033	0.798073
	N5399	N	0.509834	0.266031	0.798964
	H5400	H	0.407876	0.383489	0.349526
	H5401	H	0.470346	0.320935	0.349340
	H5402	H	0.444502	0.356883	0.150245
	H5403	H	0.506818	0.294109	0.150171
	H5404	H	0.444363	0.356620	0.348309
	H5405	H	0.506868	0.294038	0.348514
	H5406	H	0.408023	0.383556	0.148734
	H5407	H	0.470276	0.320698	0.149461
	H5408	H	0.438147	0.329374	0.098132
	H5409	H	0.502654	0.409962	0.100901
	H5410	H	0.399892	0.350747	0.400312
	H5411	H	0.471209	0.358252	0.398963
	H5412	H	0.399893	0.350420	0.097766
	H5413	H	0.471142	0.358271	0.100107
	H5414	H	0.438190	0.329466	0.400872
	H5415	H	0.502738	0.409839	0.399226
	H5416	H	0.420042	0.375104	0.646829
	H5417	H	0.482744	0.313160	0.646556
	H5418	H	0.432863	0.366670	0.145561
	H5419	H	0.495425	0.304316	-0.147459
	H5420	H	0.432860	0.366556	0.646951
	H5421	H	0.495502	0.304518	0.646871
	H5422	H	0.420125	0.375370	0.144972
	H5423	H	0.482652	0.312841	-0.147492
	H5424	H	0.425489	0.335933	0.100047
	H5425	H	0.491980	0.393696	0.220719
	H5426	H	0.413008	0.345203	0.398366
	H5427	H	0.482314	0.373833	0.279212
	H5428	H	0.412792	0.344663	0.099358
	H5429	H	0.481031	0.375713	0.220634
	H5430	H	0.425612	0.336493	0.398429
	H5431	H	0.493268	0.391799	0.279171
	Co5432	Co	0.515805	0.433917	0.125546
	Co5433	Co	0.456277	0.336579	0.124804
	Co5434	Co	0.381578	0.342602	0.374309
	Co5435	Co	0.456257	0.336551	0.373644
	C5436	C	0.406630	0.384244	0.423029
	C5437	C	0.469145	0.321761	0.422637
	C5438	C	0.445413	0.355370	0.076371
	C5439	C	0.507804	0.292746	0.076628
	C5440	C	0.445377	0.355334	0.422517
	C5441	C	0.507846	0.292667	0.422716
	C5442	C	0.406761	0.384396	0.075569
	C5443	C	0.469117	0.321735	0.075927
	C5444	C	0.439649	0.329576	0.172086
	C5445	C	0.503707	0.411644	0.173632
	C5446	C	0.398409	0.350382	0.326142
	C5447	C	0.470115	0.356550	0.325871
	C5448	C	0.398396	0.350202	0.171929
	C5449	C	0.470084	0.356586	0.172944
	C5450	C	0.439663	0.329571	0.326464
	C5451	C	0.503752	0.411609	0.326185
	C5452	C	0.411135	0.380971	0.499882
	C5453	C	0.473668	0.318594	-0.000807
	C5454	C	0.441404	0.359806	0.499730
	C5455	C	0.503890	0.297349	-0.000439
	C5456	C	0.434584	0.330738	0.249263
	C5457	C	0.499967	0.405078	0.249893
	C5458	C	0.403586	0.349666	0.248992
	C5459	C	0.474126	0.362721	0.249444
	C5460	C	0.418936	0.376001	0.499957
	C5461	C	0.481431	0.313563	-0.000737
	C5462	C	0.434057	0.365988	0.499989
	C5463	C	0.496520	0.303441	-0.000719
	C5464	C	0.426645	0.335296	0.249105
	C5465	C	0.493504	0.394246	0.249697
	C5466	C	0.411683	0.345648	0.248825
	C5467	C	0.480759	0.373328	0.249730
	C5468	C	0.422849	0.373436	0.581682
	C5469	C	0.485424	0.311137	0.581400
	C5470	C	0.430214	0.368677	0.080506
	C5471	C	0.492674	0.306113	-0.082248
	C5472	C	0.430161	0.368576	0.581939
	C5473	C	0.492719	0.306209	0.581605
	C5474	C	0.422903	0.373512	0.080420
	C5475	C	0.485382	0.311022	-0.082356
	C5476	C	0.422767	0.337902	0.165940
	C5477	C	0.489898	0.389358	0.233428
	C5478	C	0.415620	0.343226	0.331953
	C5479	C	0.484404	0.378158	0.266310
	C5480	C	0.415506	0.342866	0.165772
	C5481	C	0.483694	0.379192	0.233261
	C5482	C	0.422865	0.338230	0.332134
	C5483	C	0.490617	0.388309	0.266371
	N5484	N	0.399987	0.389060	0.451510
	N5485	N	0.462563	0.326674	0.451033
	N5486	N	0.451078	0.348479	0.047447
	N5487	N	0.513465	0.285845	0.047769
	N5488	N	0.451043	0.348418	0.451345
	N5489	N	0.513473	0.285709	0.451849
	N5490	N	0.400081	0.389178	0.047266
	N5491	N	0.462485	0.326606	0.047386
	N5492	N	0.447356	0.328574	0.200351
	N5493	N	0.509237	0.421252	0.202318
	N5494	N	0.390617	0.350551	0.297840
	N5495	N	0.464175	0.347547	0.297028
	N5496	N	0.390609	0.350445	0.200511
	N5497	N	0.464171	0.347529	0.201726
	N5498	N	0.447357	0.328571	0.298085
	N5499	N	0.509270	0.421222	0.297288
	H5500	H	0.407783	0.383212	0.849301
	H5501	H	0.470443	0.321142	0.848911
	H5502	H	0.444433	0.356632	0.650382
	H5503	H	0.506890	0.294073	0.650680
	H5504	H	0.444426	0.356704	0.848844
	H5505	H	0.507094	0.294448	0.849062
	H5506	H	0.407861	0.383487	0.649895
	H5507	H	0.470364	0.320853	0.649079
	H5508	H	0.438059	0.329214	0.598109
	H5509	H	0.502764	0.409795	0.600095
	H5510	H	0.399880	0.350455	0.901121
	H5511	H	0.471152	0.358293	0.900013
	H5512	H	0.399918	0.350448	0.597947
	H5513	H	0.471321	0.358011	0.599074
	H5514	H	0.438167	0.329589	0.900826
	H5515	H	0.502622	0.410015	0.898838
	H5516	H	0.420280	0.375753	0.852000
	H5517	H	0.482634	0.313005	1.146134
	H5518	H	0.433029	0.367065	0.353116
	H5519	H	0.495267	0.303863	0.352510
	H5520	H	0.433058	0.367144	0.852166
	H5521	H	0.495428	0.304484	1.146197
	H5522	H	0.420265	0.375658	0.352739
	H5523	H	0.482594	0.312693	0.352538
	H5524	H	0.425555	0.336259	0.899428
	H5525	H	0.492678	0.392742	0.827319
	H5526	H	0.412835	0.344814	0.600375
	H5527	H	0.481599	0.374876	0.672196
	H5528	H	0.412892	0.344816	0.899454
	H5529	H	0.481819	0.374735	0.827170
	H5530	H	0.425647	0.336297	0.600449
	H5531	H	0.492480	0.392926	0.671021
	Co5532	Co	0.515843	0.433958	0.625211
	Co5533	Co	0.456293	0.336559	0.624966
	Co5534	Co	0.381626	0.342598	0.874216
	Co5535	Co	0.456282	0.336622	0.873844
	C5536	C	0.406625	0.384227	0.922555
	C5537	C	0.469208	0.321961	0.922586
	C5538	C	0.445433	0.355339	0.576317
	C5539	C	0.507837	0.292662	0.576605
	C5540	C	0.445411	0.355346	0.922555
	C5541	C	0.507912	0.292868	0.922758
	C5542	C	0.406609	0.384259	0.576387
	C5543	C	0.469125	0.321760	0.575751
	C5544	C	0.439646	0.329452	0.672300
	C5545	C	0.503776	0.411662	0.673222
	C5546	C	0.398444	0.350282	0.826617
	C5547	C	0.470133	0.356613	0.826399
	C5548	C	0.398454	0.350205	0.672136
	C5549	C	0.470208	0.356483	0.672843
	C5550	C	0.439671	0.329574	0.826671
	C5551	C	0.503672	0.411786	0.825867
	C5552	C	0.411228	0.381096	0.998723
	C5553	C	0.473658	0.318497	0.499312
	C5554	C	0.441414	0.359870	0.999318
	C5555	C	0.503841	0.297148	0.499622
	C5556	C	0.434566	0.330636	0.749364
	C5557	C	0.499963	0.405190	0.749477
	C5558	C	0.403615	0.349538	0.749265
	C5559	C	0.474168	0.362746	0.749674
	C5560	C	0.419019	0.376090	0.998517
	C5561	C	0.481420	0.313443	0.499510
	C5562	C	0.434081	0.366024	0.998869
	C5563	C	0.496509	0.303297	0.499691
	C5564	C	0.426628	0.335182	0.749559
	C5565	C	0.493502	0.394345	0.749282
	C5566	C	0.411711	0.345590	0.749643
	C5567	C	0.480799	0.373331	0.749372
	C5568	C	0.423001	0.373745	0.916979
	C5569	C	0.485377	0.311130	1.081024
	C5570	C	0.430235	0.368830	0.418108
	C5571	C	0.492614	0.305924	0.417971
	C5572	C	0.430291	0.368849	0.917188
	C5573	C	0.492658	0.306215	1.081014
	C5574	C	0.422925	0.373688	0.417985
	C5575	C	0.485317	0.310819	0.417685
	C5576	C	0.422819	0.337960	0.832916
	C5577	C	0.490312	0.388891	0.792814
	C5578	C	0.415609	0.343010	0.666673
	C5579	C	0.484024	0.378762	0.705913
	C5580	C	0.415592	0.343006	0.832897
	C5581	C	0.484142	0.378683	0.792839
	C5582	C	0.422844	0.337989	0.666610
	C5583	C	0.490188	0.388976	0.705452
	N5584	N	0.399992	0.389061	0.951596
	N5585	N	0.462541	0.326726	0.951211
	N5586	N	0.451062	0.348403	0.547077
	N5587	N	0.513504	0.285773	0.547769
	N5588	N	0.451066	0.348486	0.951421
	N5589	N	0.513521	0.285907	0.951853
	N5590	N	0.399980	0.389075	0.547787
	N5591	N	0.462539	0.326665	0.547251
	N5592	N	0.447347	0.328608	0.700412
	N5593	N	0.509263	0.421303	0.702100
	N5594	N	0.390651	0.350559	0.798030
	N5595	N	0.464242	0.347519	0.797046
	N5596	N	0.390671	0.350521	0.700791
	N5597	N	0.464287	0.347462	0.701581
	N5598	N	0.447365	0.328639	0.798214
	N5599	N	0.509223	0.421356	0.797201
	H5600	H	0.405364	0.543850	0.351023
	H5601	H	0.467744	0.481433	0.350945
	H5602	H	0.438866	0.511670	0.147745
	H5603	H	0.501219	0.448675	0.147765
	H5604	H	0.438813	0.511468	0.352674
	H5605	H	0.501418	0.448965	0.350435
	H5606	H	0.405429	0.544159	0.147762
	H5607	H	0.467875	0.481586	0.148712
	H5608	H	0.440258	0.472369	0.100067
	H5609	H	0.493402	0.577523	0.102307
	H5610	H	0.408534	0.420764	0.399426
	H5611	H	0.465661	0.521197	0.400038
	H5612	H	0.408660	0.420659	0.099534
	H5613	H	0.465798	0.521262	0.101288
	H5614	H	0.440161	0.472542	0.399250
	H5615	H	0.493306	0.577772	0.400702
	H5616	H	0.416157	0.533333	0.560462
	H5617	H	0.479215	0.471908	0.453991
	H5618	H	0.428645	0.523661	0.070844
	H5619	H	0.490115	0.458883	-0.059804
	H5620	H	0.427925	0.522017	0.561097
	H5621	H	0.490952	0.460487	0.454718
	H5622	H	0.416947	0.535001	0.070183
	H5623	H	0.478388	0.470325	-0.059609
	H5624	H	0.430165	0.455174	0.142491
	H5625	H	0.484332	0.559291	0.228087
	H5626	H	0.419154	0.437361	0.356665
	H5627	H	0.474787	0.539620	0.274420
	H5628	H	0.419157	0.437307	0.142303
	H5629	H	0.474753	0.539646	0.228014
	H5630	H	0.430055	0.455324	0.356571
	H5631	H	0.484412	0.559169	0.275089
	Co5632	Co	0.505498	0.602650	0.125874
	Co5633	Co	0.453329	0.496514	0.125538
	Co5634	Co	0.393737	0.398938	0.374283
	Co5635	Co	0.453268	0.496451	0.374493
	C5636	C	0.404201	0.544996	0.423590
	C5637	C	0.466681	0.482648	0.423728
	C5638	C	0.439982	0.510456	0.075242
	C5639	C	0.502374	0.447703	0.075112
	C5640	C	0.439915	0.510290	0.424703
	C5641	C	0.502467	0.447856	0.423020
	C5642	C	0.404244	0.545173	0.075373
	C5643	C	0.466727	0.482625	0.075979
	C5644	C	0.441259	0.474191	0.173299
	C5645	C	0.494319	0.579469	0.175251
	C5646	C	0.407530	0.419033	0.326255
	C5647	C	0.464741	0.519367	0.327057
	C5648	C	0.407604	0.419003	0.172972
	C5649	C	0.464818	0.519407	0.174434
	C5650	C	0.441205	0.474249	0.326088
	C5651	C	0.494261	0.579611	0.327648
	C5652	C	0.408343	0.541051	0.499585
	C5653	C	0.470749	0.478466	-0.000133
	C5654	C	0.435797	0.514274	0.500722
	C5655	C	0.498333	0.451835	-0.001070
	C5656	C	0.437453	0.467637	0.249789
	C5657	C	0.490895	0.572563	0.251598
	C5658	C	0.411614	0.425234	0.249837
	C5659	C	0.468196	0.526361	0.250835
	C5660	C	0.415305	0.534283	0.499767
	C5661	C	0.477718	0.471658	-0.000469
	C5662	C	0.428865	0.521114	0.500832
	C5663	C	0.491340	0.458604	-0.000739
	C5664	C	0.431011	0.456789	0.249683
	C5665	C	0.485174	0.560860	0.251730
	C5666	C	0.418236	0.435833	0.249606
	C5667	C	0.473951	0.538039	0.251003
	C5668	C	0.418746	0.530905	0.534145
	C5669	C	0.481576	0.469028	0.473609
	C5670	C	0.425767	0.525342	0.039392
	C5671	C	0.487682	0.461650	-0.034264
	C5672	C	0.425376	0.524493	0.534518
	C5673	C	0.488187	0.462586	0.473871
	C5674	C	0.419123	0.531734	0.039215
	C5675	C	0.481039	0.468016	-0.034160
	C5676	C	0.427768	0.451334	0.189631
	C5677	C	0.482274	0.555004	0.238517
	C5678	C	0.421517	0.441231	0.309300
	C5679	C	0.476853	0.543866	0.264310
	C5680	C	0.421551	0.441147	0.189559
	C5681	C	0.476812	0.543924	0.237925
	C5682	C	0.427721	0.451418	0.309334
	C5683	C	0.482304	0.554960	0.264474
	N5684	N	0.398112	0.550912	0.452465
	N5685	N	0.460648	0.488640	0.452841
	N5686	N	0.446025	0.504427	0.046936
	N5687	N	0.508458	0.441733	0.046611
	N5688	N	0.445947	0.504265	0.453287
	N5689	N	0.508496	0.441820	0.452348
	N5690	N	0.398152	0.551065	0.046718
	N5691	N	0.460662	0.488622	0.047378
	N5692	N	0.446742	0.483832	0.202100
	N5693	N	0.499315	0.589701	0.203795
	N5694	N	0.401672	0.409943	0.297122
	N5695	N	0.459709	0.509219	0.297845
	N5696	N	0.401696	0.409959	0.201954
	N5697	N	0.459775	0.509247	0.202754
	N5698	N	0.446711	0.483855	0.297137
	N5699	N	0.499270	0.589783	0.298903
	H5700	H	0.405142	0.543485	0.851069
	H5701	H	0.467693	0.481257	0.851277
	H5702	H	0.438731	0.511180	0.648183
	H5703	H	0.501234	0.448819	0.647762
	H5704	H	0.438756	0.511240	0.851152
	H5705	H	0.501430	0.449037	0.850716
	H5706	H	0.405426	0.544133	0.648075
	H5707	H	0.468062	0.481836	0.648079
	H5708	H	0.440337	0.472321	0.600091
	H5709	H	0.493468	0.577581	0.601223
	H5710	H	0.408687	0.420723	0.899972
	H5711	H	0.465578	0.521334	0.899110
	H5712	H	0.408543	0.420882	0.599445
	H5713	H	0.465725	0.521175	0.600591
	H5714	H	0.439990	0.472539	0.898810
	H5715	H	0.493267	0.577716	0.899418
	H5716	H	0.415410	0.531578	0.927820
	H5717	H	0.478962	0.471318	1.059153
	H5718	H	0.428032	0.522053	0.440229
	H5719	H	0.490020	0.458682	0.543972
	H5720	H	0.427148	0.520310	0.928214
	H5721	H	0.490728	0.459995	1.058774
	H5722	H	0.416317	0.533484	0.438951
	H5723	H	0.478299	0.470095	0.543366
	H5724	H	0.429620	0.455719	0.740457
	H5725	H	0.483989	0.559606	0.763479
	H5726	H	0.419595	0.436895	0.758316
	H5727	H	0.474984	0.539347	0.736468
	H5728	H	0.418662	0.437845	0.740603
	H5729	H	0.474360	0.540059	0.763220
	H5730	H	0.430587	0.454794	0.758067
	H5731	H	0.484612	0.558925	0.737684
	Co5732	Co	0.505587	0.602742	0.625789
	Co5733	Co	0.453344	0.496426	0.625867
	Co5734	Co	0.393769	0.398966	0.874269
	Co5735	Co	0.453310	0.496452	0.874405
	C5736	C	0.404088	0.544797	0.923496
	C5737	C	0.466629	0.482460	0.923734
	C5738	C	0.439874	0.510151	0.576361
	C5739	C	0.502373	0.447767	0.575214
	C5740	C	0.439906	0.510226	0.923623
	C5741	C	0.502472	0.447852	0.923089
	C5742	C	0.404237	0.545124	0.575898
	C5743	C	0.466836	0.482773	0.575670
	C5744	C	0.441302	0.474132	0.673351
	C5745	C	0.494338	0.579536	0.674086
	C5746	C	0.407594	0.419012	0.826491
	C5747	C	0.464710	0.519479	0.826039
	C5748	C	0.407510	0.419078	0.672976
	C5749	C	0.464774	0.519384	0.673545
	C5750	C	0.441133	0.474250	0.825955
	C5751	C	0.494232	0.579616	0.826602
	C5752	C	0.408296	0.540984	0.999345
	C5753	C	0.470863	0.478665	0.499242
	C5754	C	0.435832	0.514362	0.999335
	C5755	C	0.498340	0.451887	0.498887
	C5756	C	0.437445	0.467651	0.749462
	C5757	C	0.490913	0.572581	0.750307
	C5758	C	0.411571	0.425250	0.749667
	C5759	C	0.468162	0.526409	0.749664
	C5760	C	0.415238	0.534194	0.999365
	C5761	C	0.477845	0.471912	0.498616
	C5762	C	0.428840	0.521067	0.999488
	C5763	C	0.491404	0.458738	0.498655
	C5764	C	0.430979	0.456817	0.749181
	C5765	C	0.485169	0.560897	0.750155
	C5766	C	0.418198	0.435884	0.749394
	C5767	C	0.473931	0.538087	0.749823
	C5768	C	0.418288	0.529916	0.959327
	C5769	C	0.481379	0.468623	1.032844
	C5770	C	0.425447	0.524537	0.466645
	C5771	C	0.487676	0.461607	0.523691
	C5772	C	0.424930	0.523514	0.959368
	C5773	C	0.488016	0.462235	1.032756
	C5774	C	0.418828	0.530971	0.465915
	C5775	C	0.481054	0.468026	0.523692
	C5776	C	0.427440	0.451671	0.744139
	C5777	C	0.482088	0.555221	0.757364
	C5778	C	0.421749	0.440986	0.754343
	C5779	C	0.476974	0.543757	0.742491
	C5780	C	0.421238	0.441510	0.744224
	C5781	C	0.476632	0.544138	0.757348
	C5782	C	0.427969	0.451153	0.754132
	C5783	C	0.482425	0.554850	0.742895
	N5784	N	0.398045	0.550833	0.952234
	N5785	N	0.460619	0.488532	0.952375
	N5786	N	0.445940	0.504183	0.547327
	N5787	N	0.508434	0.441743	0.546731
	N5788	N	0.445992	0.504320	0.952497
	N5789	N	0.508536	0.441860	0.952079
	N5790	N	0.398148	0.550996	0.547197
	N5791	N	0.460754	0.488741	0.547353
	N5792	N	0.446812	0.483744	0.702630
	N5793	N	0.499262	0.589825	0.702837
	N5794	N	0.401711	0.409926	0.797659
	N5795	N	0.459724	0.509286	0.797128
	N5796	N	0.401638	0.409978	0.702090
	N5797	N	0.459759	0.509237	0.702666
	N5798	N	0.446699	0.483815	0.797696
	N5799	N	0.499209	0.589855	0.797806
	H5800	H	0.394875	0.712451	0.352145
	H5801	H	0.457464	0.650101	0.351950
	H5802	H	0.428120	0.679685	0.148702
	H5803	H	0.490852	0.617354	0.149254
	H5804	H	0.428369	0.680053	0.353569
	H5805	H	0.490957	0.617469	0.351592
	H5806	H	0.395326	0.713370	0.148623
	H5807	H	0.457561	0.650295	0.149300
	H5808	H	0.430805	0.639984	0.102168
	H5809	H	0.482256	0.747063	0.101633
	H5810	H	0.403208	0.583638	0.399313
	H5811	H	0.454818	0.690375	0.399619
	H5812	H	0.403206	0.583787	0.100527
	H5813	H	0.455209	0.689902	0.102020
	H5814	H	0.430765	0.639996	0.400705
	H5815	H	0.482057	0.747212	0.400079
	H5816	H	0.406031	0.702382	0.438125
	H5817	H	0.468347	0.639464	0.511003
	H5818	H	0.417802	0.691342	0.040227
	H5819	H	0.480162	0.628292	-0.010486
	H5820	H	0.417765	0.690963	0.438822
	H5821	H	0.480007	0.627894	0.510905
	H5822	H	0.406244	0.703077	0.040333
	H5823	H	0.468519	0.639875	-0.010481
	H5824	H	0.421513	0.621951	0.176810
	H5825	H	0.473306	0.728469	0.325880
	H5826	H	0.412477	0.601721	0.324453
	H5827	H	0.463973	0.708735	0.176226
	H5828	H	0.411887	0.602382	0.176078
	H5829	H	0.463916	0.708641	0.326452
	H5830	H	0.422079	0.621292	0.324468
	H5831	H	0.473272	0.728598	0.176353
	Co5832	Co	0.494245	0.772315	0.126828
	Co5833	Co	0.442883	0.665019	0.126734
	Co5834	Co	0.390801	0.558855	0.373988
	Co5835	Co	0.442886	0.665088	0.376172
	C5836	C	0.393886	0.713855	0.424497
	C5837	C	0.456379	0.651385	0.424652
	C5838	C	0.429341	0.678589	0.077021
	C5839	C	0.491937	0.616218	0.076553
	C5840	C	0.429442	0.678821	0.425904
	C5841	C	0.492051	0.616372	0.424298
	C5842	C	0.394115	0.714375	0.076140
	C5843	C	0.456454	0.651498	0.076805
	C5844	C	0.431724	0.641879	0.174962
	C5845	C	0.483118	0.748999	0.174575
	C5846	C	0.402211	0.581794	0.326339
	C5847	C	0.453991	0.688368	0.327025
	C5848	C	0.402204	0.581857	0.173442
	C5849	C	0.454207	0.688130	0.174585
	C5850	C	0.431687	0.641873	0.327809
	C5851	C	0.483016	0.749110	0.327006
	C5852	C	0.398051	0.709961	0.500339
	C5853	C	0.460581	0.647554	0.001146
	C5854	C	0.425346	0.682853	0.501973
	C5855	C	0.487838	0.620244	0.000403
	C5856	C	0.428310	0.634893	0.251226
	C5857	C	0.479711	0.742033	0.250736
	C5858	C	0.405602	0.588793	0.250140
	C5859	C	0.457464	0.695275	0.250856
	C5860	C	0.404961	0.703060	0.500701
	C5861	C	0.467524	0.640691	0.001008
	C5862	C	0.418428	0.689740	0.501615
	C5863	C	0.480958	0.627234	0.000550
	C5864	C	0.422558	0.623241	0.250753
	C5865	C	0.474065	0.730195	0.250993
	C5866	C	0.411381	0.600426	0.250499
	C5867	C	0.463140	0.707086	0.251460
	C5868	C	0.408540	0.699825	0.465823
	C5869	C	0.470889	0.637015	0.506358
	C5870	C	0.415132	0.693531	0.022288
	C5871	C	0.477573	0.630755	-0.005507
	C5872	C	0.415111	0.693315	0.466350
	C5873	C	0.477464	0.630478	0.506044
	C5874	C	0.408615	0.700192	0.022439
	C5875	C	0.471012	0.637290	-0.005373
	C5876	C	0.419535	0.617568	0.209138
	C5877	C	0.471271	0.724216	0.293238
	C5878	C	0.414437	0.606076	0.292050
	C5879	C	0.465962	0.713023	0.209026
	C5880	C	0.414104	0.606453	0.208861
	C5881	C	0.465949	0.712988	0.293409
	C5882	C	0.419862	0.617190	0.292038
	C5883	C	0.471265	0.724259	0.209018
	N5884	N	0.387940	0.720094	0.453063
	N5885	N	0.450379	0.657456	0.453818
	N5886	N	0.435431	0.672690	0.048444
	N5887	N	0.497975	0.610213	0.047952
	N5888	N	0.435452	0.672723	0.454495
	N5889	N	0.498113	0.610424	0.453299
	N5890	N	0.388044	0.720314	0.047460
	N5891	N	0.450351	0.657465	0.048348
	N5892	N	0.436677	0.652092	0.204035
	N5893	N	0.488044	0.759308	0.203306
	N5894	N	0.397191	0.571638	0.297131
	N5895	N	0.449075	0.678063	0.298260
	N5896	N	0.397182	0.571677	0.202082
	N5897	N	0.449219	0.677909	0.203414
	N5898	N	0.436653	0.652103	0.298953
	N5899	N	0.487990	0.759378	0.298342
	H5900	H	0.395056	0.712745	0.851632
	H5901	H	0.457606	0.650450	0.853147
	H5902	H	0.428308	0.679849	0.650230
	H5903	H	0.490822	0.617258	0.649443
	H5904	H	0.428317	0.679944	0.853147
	H5905	H	0.490733	0.617156	0.851644
	H5906	H	0.395361	0.713420	0.648345
	H5907	H	0.457819	0.650634	0.649119
	H5908	H	0.430769	0.640348	0.601844
	H5909	H	0.482201	0.747210	0.602841
	H5910	H	0.403132	0.583737	0.899351
	H5911	H	0.454986	0.690309	0.899823
	H5912	H	0.403083	0.583579	0.599895
	H5913	H	0.455220	0.690120	0.602793
	H5914	H	0.430850	0.639976	0.899174
	H5915	H	0.482226	0.747112	0.900514
	H5916	H	0.405605	0.701542	0.960219
	H5917	H	0.468396	0.639727	1.011802
	H5918	H	0.417325	0.690315	0.563857
	H5919	H	0.480157	0.628191	0.489148
	H5920	H	0.417144	0.689750	0.960421
	H5921	H	0.479989	0.628017	1.011264
	H5922	H	0.405672	0.701913	0.563062
	H5923	H	0.468478	0.639693	0.489460
	H5924	H	0.421658	0.621826	0.763812
	H5925	H	0.472810	0.729170	0.751237
	H5926	H	0.412404	0.601838	0.735958
	H5927	H	0.464447	0.708292	0.751581
	H5928	H	0.412090	0.602178	0.763548
	H5929	H	0.463469	0.709292	0.751327
	H5930	H	0.422002	0.621481	0.736503
	H5931	H	0.473820	0.728102	0.751690
	Co5932	Co	0.494323	0.772337	0.627271
	Co5933	Co	0.443004	0.665228	0.626624
	Co5934	Co	0.390773	0.558877	0.874083
	Co5935	Co	0.442918	0.665138	0.875981
	C5936	C	0.393968	0.714071	0.923921
	C5937	C	0.456491	0.651576	0.925442
	C5938	C	0.429419	0.678751	0.577824
	C5939	C	0.492007	0.616281	0.576426
	C5940	C	0.429432	0.678728	0.925210
	C5941	C	0.491888	0.616100	0.924342
	C5942	C	0.394129	0.714327	0.576114
	C5943	C	0.456582	0.651652	0.576690
	C5944	C	0.431703	0.642127	0.674553
	C5945	C	0.483130	0.749109	0.675233
	C5946	C	0.402261	0.581823	0.826294
	C5947	C	0.454137	0.688391	0.827203
	C5948	C	0.402228	0.581774	0.673339
	C5949	C	0.454247	0.688337	0.675212
	C5950	C	0.431756	0.641936	0.826535
	C5951	C	0.483156	0.749056	0.827809
	C5952	C	0.398149	0.710121	0.999995
	C5953	C	0.460581	0.647393	0.500465
	C5954	C	0.425242	0.682735	1.000914
	C5955	C	0.487902	0.620387	0.500271
	C5956	C	0.428341	0.635067	0.750202
	C5957	C	0.479779	0.742069	0.751475
	C5958	C	0.405692	0.588724	0.749778
	C5959	C	0.457559	0.695396	0.751265
	C5960	C	0.405013	0.703202	0.999875
	C5961	C	0.467487	0.640499	0.500206
	C5962	C	0.418354	0.689639	1.000389
	C5963	C	0.480950	0.627173	0.500151
	C5964	C	0.422615	0.623314	0.749804
	C5965	C	0.474120	0.730279	0.751302
	C5966	C	0.411433	0.600444	0.749792
	C5967	C	0.463196	0.707193	0.751370
	C5968	C	0.408241	0.699297	0.977455
	C5969	C	0.470949	0.637197	1.007039
	C5970	C	0.414882	0.693003	0.536461
	C5971	C	0.477559	0.630642	0.494040
	C5972	C	0.414764	0.692656	0.977929
	C5973	C	0.477500	0.630632	1.006712
	C5974	C	0.408295	0.699493	0.535819
	C5975	C	0.470960	0.637127	0.494132
	C5976	C	0.419647	0.617542	0.757819
	C5977	C	0.471026	0.724606	0.751089
	C5978	C	0.414419	0.606197	0.742369
	C5979	C	0.466266	0.712858	0.751700
	C5980	C	0.414243	0.606417	0.757446
	C5981	C	0.465708	0.713388	0.751021
	C5982	C	0.419836	0.617299	0.742194
	C5983	C	0.471583	0.724086	0.751752
	N5984	N	0.387936	0.720116	0.952858
	N5985	N	0.450390	0.657535	0.954056
	N5986	N	0.435458	0.672704	0.548909
	N5987	N	0.498096	0.610362	0.547590
	N5988	N	0.435473	0.672756	0.954243
	N5989	N	0.497954	0.610131	0.953326
	N5990	N	0.388097	0.720384	0.547676
	N5991	N	0.450504	0.657625	0.548324
	N5992	N	0.436720	0.652300	0.703635
	N5993	N	0.488057	0.759391	0.704332
	N5994	N	0.397224	0.571632	0.797467
	N5995	N	0.449197	0.678135	0.798485
	N5996	N	0.397198	0.571615	0.702415
	N5997	N	0.449274	0.678083	0.704108
	N5998	N	0.436741	0.652204	0.798279
	N5999	N	0.488065	0.759345	0.799260
	H6000	H	0.384019	0.882469	0.351580
	H6001	H	0.446296	0.819637	0.353532
	H6002	H	0.417391	0.849988	0.148852
	H6003	H	0.479686	0.786988	0.149368
	H6004	H	0.417304	0.849585	0.352695
	H6005	H	0.479547	0.786693	0.352648
	H6006	H	0.383978	0.882505	0.147553
	H6007	H	0.446417	0.819986	0.149472
	H6008	H	0.419690	0.809814	0.102460
	H6009	H	0.471695	0.916043	0.102315
	H6010	H	0.392468	0.752730	0.399739
	H6011	H	0.443917	0.859976	0.400060
	H6012	H	0.392619	0.752924	0.102097
	H6013	H	0.444013	0.859876	0.102713
	H6014	H	0.419814	0.809669	0.399986
	H6015	H	0.471697	0.916380	0.400382
	H6016	H	0.394809	0.871817	0.485012
	H6017	H	0.457705	0.810191	0.508924
	H6018	H	0.406722	0.861043	0.031535
	H6019	H	0.469480	0.798861	-0.052314
	H6020	H	0.406427	0.860273	0.485188
	H6021	H	0.469365	0.798641	0.508833
	H6022	H	0.395059	0.872555	0.031385
	H6023	H	0.457836	0.810386	-0.052916
	H6024	H	0.410494	0.791675	0.227823
	H6025	H	0.462670	0.897928	0.208787
	H6026	H	0.401890	0.770842	0.273779
	H6027	H	0.453039	0.878237	0.294182
	H6028	H	0.401034	0.771865	0.227684
	H6029	H	0.452943	0.878511	0.208847
	H6030	H	0.411317	0.790613	0.274480
	H6031	H	0.462679	0.897715	0.295108
	Co6032	Co	0.484088	0.940981	0.125974
	Co6033	Co	0.431836	0.834917	0.126807
	Co6034	Co	0.380450	0.727638	0.374821
	Co6035	Co	0.431881	0.834763	0.375701
	C6036	C	0.382892	0.883612	0.423899
	C6037	C	0.445290	0.820996	0.425177
	C6038	C	0.418397	0.848632	0.076613
	C6039	C	0.480759	0.785886	0.076913
	C6040	C	0.418410	0.848395	0.424985
	C6041	C	0.480747	0.785712	0.425220
	C6042	C	0.382857	0.883709	0.075548
	C6043	C	0.445319	0.821193	0.076886
	C6044	C	0.420658	0.811651	0.175059
	C6045	C	0.472654	0.918001	0.175028
	C6046	C	0.391629	0.750917	0.327311
	C6047	C	0.442996	0.858085	0.327453
	C6048	C	0.391696	0.750984	0.174682
	C6049	C	0.443026	0.858034	0.175313
	C6050	C	0.420733	0.811607	0.327244
	C6051	C	0.472670	0.918146	0.327295
	C6052	C	0.386995	0.879574	0.499828
	C6053	C	0.449404	0.817197	0.001011
	C6054	C	0.414266	0.852447	0.500697
	C6055	C	0.476662	0.789897	0.000879
	C6056	C	0.417373	0.804578	0.251273
	C6057	C	0.469224	0.911134	0.251483
	C6058	C	0.395060	0.757948	0.251017
	C6059	C	0.446412	0.865082	0.251309
	C6060	C	0.393905	0.872716	0.500037
	C6061	C	0.456302	0.810247	0.001019
	C6062	C	0.407370	0.859333	0.500433
	C6063	C	0.469735	0.796779	0.000823
	C6064	C	0.411682	0.792822	0.251192
	C6065	C	0.463455	0.899466	0.251824
	C6066	C	0.400698	0.769767	0.251102
	C6067	C	0.452182	0.876733	0.251260
	C6068	C	0.397361	0.869312	0.491566
	C6069	C	0.460059	0.807273	0.505538
	C6070	C	0.404025	0.863196	0.017841
	C6071	C	0.466643	0.800880	-0.029121
	C6072	C	0.403924	0.862753	0.491776
	C6073	C	0.466639	0.800772	0.505462
	C6074	C	0.397433	0.869701	0.017876
	C6075	C	0.460094	0.807430	-0.029044
	C6076	C	0.408603	0.787159	0.238196
	C6077	C	0.460537	0.893671	0.227546
	C6078	C	0.403754	0.775419	0.264067
	C6079	C	0.455095	0.882487	0.275307
	C6080	C	0.403251	0.775956	0.238050
	C6081	C	0.455057	0.882606	0.227324
	C6082	C	0.409087	0.786630	0.264177
	C6083	C	0.460584	0.893548	0.275947
	N6084	N	0.376848	0.889666	0.452513
	N6085	N	0.439334	0.827214	0.453835
	N6086	N	0.424373	0.842500	0.048070
	N6087	N	0.486809	0.779887	0.048202
	N6088	N	0.424414	0.842342	0.453951
	N6089	N	0.486767	0.779658	0.454238
	N6090	N	0.376866	0.889823	0.046840
	N6091	N	0.439315	0.827332	0.048218
	N6092	N	0.425598	0.821929	0.203509
	N6093	N	0.477720	0.928166	0.203291
	N6094	N	0.386697	0.740681	0.298061
	N6095	N	0.438006	0.847878	0.298772
	N6096	N	0.386741	0.740713	0.203415
	N6097	N	0.438024	0.847856	0.204152
	N6098	N	0.425662	0.821889	0.298412
	N6099	N	0.477725	0.928255	0.298223
	H6100	H	0.383919	0.882391	0.851159
	H6101	H	0.446528	0.820275	0.852107
	H6102	H	0.417229	0.849604	0.648530
	H6103	H	0.479725	0.787088	0.649772
	H6104	H	0.417024	0.849121	0.852665
	H6105	H	0.479677	0.786921	0.852901
	H6106	H	0.384096	0.882738	0.647849
	H6107	H	0.446723	0.820482	0.648520
	H6108	H	0.419832	0.809654	0.601978
	H6109	H	0.471772	0.916174	0.601079
	H6110	H	0.392583	0.752803	0.900199
	H6111	H	0.443915	0.859867	0.900297
	H6112	H	0.392608	0.752910	0.601127
	H6113	H	0.444094	0.859801	0.602432
	H6114	H	0.419805	0.809667	0.899450
	H6115	H	0.471866	0.916048	0.899862
	H6116	H	0.394414	0.871079	0.968256
	H6117	H	0.456625	0.808160	1.053973
	H6118	H	0.406386	0.860091	0.515317
	H6119	H	0.468524	0.796883	0.493593
	H6120	H	0.406068	0.859480	0.968189
	H6121	H	0.468272	0.796668	1.054229
	H6122	H	0.394790	0.871725	0.514794
	H6123	H	0.456843	0.808433	0.494075
	H6124	H	0.411190	0.790945	0.793406
	H6125	H	0.461226	0.899289	0.766873
	H6126	H	0.401144	0.771680	0.708289
	H6127	H	0.454524	0.876802	0.734315
	H6128	H	0.401759	0.771247	0.793045
	H6129	H	0.451553	0.879732	0.767167
	H6130	H	0.410623	0.791370	0.708200
	H6131	H	0.464150	0.896306	0.733873
	Co6132	Co	0.484092	0.940964	0.625931
	Co6133	Co	0.431898	0.834784	0.626718
	Co6134	Co	0.380500	0.727704	0.874643
	Co6135	Co	0.431816	0.834837	0.875377
	C6136	C	0.382830	0.883664	0.923428
	C6137	C	0.445390	0.821376	0.924852
	C6138	C	0.418394	0.848392	0.576610
	C6139	C	0.480820	0.785911	0.577193
	C6140	C	0.418209	0.848210	0.925035
	C6141	C	0.480751	0.785832	0.925185
	C6142	C	0.382913	0.883764	0.575554
	C6143	C	0.445493	0.821418	0.576708
	C6144	C	0.420671	0.811644	0.674576
	C6145	C	0.472674	0.917985	0.674166
	C6146	C	0.391677	0.750942	0.827000
	C6147	C	0.443031	0.858037	0.827459
	C6148	C	0.391690	0.750985	0.674368
	C6149	C	0.443105	0.857993	0.675201
	C6150	C	0.420670	0.811639	0.827085
	C6151	C	0.472725	0.917928	0.826602
	C6152	C	0.386937	0.879568	0.999451
	C6153	C	0.449462	0.817107	0.501019
	C6154	C	0.414185	0.852521	1.000466
	C6155	C	0.476751	0.789956	0.501012
	C6156	C	0.417304	0.804654	0.750855
	C6157	C	0.469257	0.911045	0.750450
	C6158	C	0.395025	0.757999	0.750812
	C6159	C	0.446454	0.864979	0.751187
	C6160	C	0.393813	0.872670	0.999819
	C6161	C	0.456380	0.810209	0.501345
	C6162	C	0.407286	0.859390	1.000270
	C6163	C	0.469842	0.796845	0.501144
	C6164	C	0.411683	0.792833	0.751016
	C6165	C	0.463482	0.899361	0.750422
	C6166	C	0.400653	0.769795	0.750750
	C6167	C	0.452224	0.876648	0.751020
	C6168	C	0.397082	0.868886	0.982079
	C6169	C	0.459424	0.806144	1.030754
	C6170	C	0.403904	0.862682	0.508817
	C6171	C	0.466155	0.799774	0.496919
	C6172	C	0.403676	0.862382	0.982116
	C6173	C	0.465988	0.799630	1.030724
	C6174	C	0.397331	0.869232	0.508506
	C6175	C	0.459574	0.806268	0.497055
	C6176	C	0.409011	0.786766	0.774806
	C6177	C	0.459788	0.894351	0.759746
	C6178	C	0.403336	0.775836	0.727201
	C6179	C	0.455915	0.881672	0.741444
	C6180	C	0.403633	0.775604	0.774278
	C6181	C	0.454324	0.883310	0.760103
	C6182	C	0.408705	0.787016	0.727156
	C6183	C	0.461389	0.892701	0.741275
	N6184	N	0.376858	0.889811	0.952384
	N6185	N	0.439343	0.827415	0.953515
	N6186	N	0.424409	0.842351	0.548135
	N6187	N	0.486828	0.779820	0.548685
	N6188	N	0.424254	0.842229	0.953918
	N6189	N	0.486790	0.779837	0.954202
	N6190	N	0.376864	0.889750	0.546736
	N6191	N	0.439443	0.827454	0.547916
	N6192	N	0.425589	0.821923	0.703375
	N6193	N	0.477724	0.928143	0.703023
	N6194	N	0.386758	0.740663	0.797860
	N6195	N	0.438044	0.847826	0.798705
	N6196	N	0.386766	0.740709	0.703014
	N6197	N	0.438079	0.847794	0.703879
	N6198	N	0.425574	0.821946	0.798223
	N6199	N	0.477746	0.928133	0.797687
	H6200	H	0.373640	1.050818	0.351855
	H6201	H	0.436218	0.988571	0.351696
	H6202	H	0.407054	1.018479	0.148214
	H6203	H	0.469599	0.955994	0.149038
	H6204	H	0.407155	1.018418	0.351628
	H6205	H	0.469625	0.955928	0.352600
	H6206	H	0.373722	1.051310	0.148004
	H6207	H	0.436117	0.988382	0.148143
	H6208	H	0.409244	0.978834	0.100471
	H6209	H	0.466493	1.079046	0.100301
	H6210	H	0.381543	0.922333	0.399957
	H6211	H	0.434791	1.027481	0.399010
	H6212	H	0.381599	0.922457	0.100912
	H6213	H	0.434766	1.027622	0.100984
	H6214	H	0.409234	0.978707	0.399437
	H6215	H	0.466318	1.079278	0.400761
	H6216	H	0.384699	1.040642	0.507687
	H6217	H	0.447330	0.978606	0.459344
	H6218	H	0.395589	1.027706	0.056252
	H6219	H	0.459010	0.967177	-0.004351
	H6220	H	0.396452	1.029385	0.507071
	H6221	H	0.459086	0.967302	0.458621
	H6222	H	0.383798	1.038918	0.057554
	H6223	H	0.447311	0.978664	-0.004778
	H6224	H	0.400207	0.960348	0.231518
	H6225	H	0.456264	1.062031	0.209391
	H6226	H	0.390638	0.940788	0.268720
	H6227	H	0.444428	1.045299	0.291815
	H6228	H	0.390600	0.940720	0.231749
	H6229	H	0.445293	1.044099	0.209209
	H6230	H	0.400296	0.960365	0.268662
	H6231	H	0.455372	1.063234	0.291917
	Co6232	Co	0.481256	1.100826	0.125796
	Co6233	Co	0.421621	1.003574	0.125710
	Co6234	Co	0.369415	0.897269	0.373872
	Co6235	Co	0.421672	1.003498	0.374605
	C6236	C	0.372493	1.051962	0.423748
	C6237	C	0.435062	0.989680	0.424666
	C6238	C	0.408185	1.017399	0.075894
	C6239	C	0.470708	0.954796	0.076486
	C6240	C	0.408263	1.017352	0.423708
	C6241	C	0.470715	0.954848	0.424858
	C6242	C	0.372536	1.052291	0.075634
	C6243	C	0.434985	0.989658	0.075977
	C6244	C	0.410186	0.980620	0.173723
	C6245	C	0.467475	1.080808	0.173789
	C6246	C	0.380621	0.920508	0.326915
	C6247	C	0.433751	1.025770	0.326518
	C6248	C	0.380637	0.920560	0.173969
	C6249	C	0.433759	1.025820	0.173727
	C6250	C	0.410187	0.980570	0.326648
	C6251	C	0.467403	1.080915	0.327237
	C6252	C	0.376580	1.047949	0.499554
	C6253	C	0.439184	0.985736	-0.000156
	C6254	C	0.404146	1.021398	0.499191
	C6255	C	0.466562	0.958853	0.000531
	C6256	C	0.406765	0.973682	0.250138
	C6257	C	0.463398	1.074707	0.250442
	C6258	C	0.384011	0.927473	0.250489
	C6259	C	0.437488	1.032346	0.250212
	C6260	C	0.383575	1.041238	0.499397
	C6261	C	0.446128	0.978971	0.000040
	C6262	C	0.397188	1.028172	0.498900
	C6263	C	0.459641	0.965699	0.000594
	C6264	C	0.400993	0.961986	0.250208
	C6265	C	0.456764	1.064090	0.250577
	C6266	C	0.389792	0.939175	0.250481
	C6267	C	0.443962	1.043197	0.250492
	C6268	C	0.387162	1.038064	0.504121
	C6269	C	0.449728	0.975857	0.477637
	C6270	C	0.393308	1.030815	0.031780
	C6271	C	0.456331	0.969419	-0.002469
	C6272	C	0.393802	1.031703	0.503753
	C6273	C	0.456362	0.969466	0.477236
	C6274	C	0.386657	1.037141	0.031970
	C6275	C	0.449736	0.975937	-0.002645
	C6276	C	0.398123	0.956119	0.239798
	C6277	C	0.453693	1.058414	0.227284
	C6278	C	0.392700	0.945022	0.260826
	C6279	C	0.447007	1.048931	0.273808
	C6280	C	0.392692	0.945033	0.239857
	C6281	C	0.447483	1.048258	0.227346
	C6282	C	0.398142	0.956092	0.260644
	C6283	C	0.453224	1.059085	0.273721
	N6284	N	0.366463	1.058019	0.452414
	N6285	N	0.429020	0.995687	0.453362
	N6286	N	0.414287	1.011489	0.047396
	N6287	N	0.476731	0.948761	0.047517
	N6288	N	0.414362	1.011447	0.452738
	N6289	N	0.476736	0.948811	0.453579
	N6290	N	0.366494	1.058298	0.046870
	N6291	N	0.428948	0.995667	0.047281
	N6292	N	0.415245	0.990748	0.202849
	N6293	N	0.473346	1.089903	0.202907
	N6294	N	0.375615	0.910302	0.297793
	N6295	N	0.428281	1.016095	0.297523
	N6296	N	0.375601	0.910348	0.202563
	N6297	N	0.428261	1.016147	0.202465
	N6298	N	0.415253	0.990722	0.297909
	N6299	N	0.473296	1.089957	0.298206
	H6300	H	0.373459	1.050725	0.851627
	H6301	H	0.436281	0.988826	0.851891
	H6302	H	0.407154	1.018639	0.647966
	H6303	H	0.469588	0.955949	0.649299
	H6304	H	0.407109	1.018552	0.851393
	H6305	H	0.469578	0.955964	0.852172
	H6306	H	0.373705	1.051003	0.647637
	H6307	H	0.435974	0.988359	0.649344
	H6308	H	0.409336	0.978699	0.600963
	H6309	H	0.466614	1.078856	0.601263
	H6310	H	0.381353	0.922599	0.898810
	H6311	H	0.434907	1.027352	0.899678
	H6312	H	0.381519	0.922375	0.600466
	H6313	H	0.434754	1.027713	0.601260
	H6314	H	0.409262	0.978733	0.898458
	H6315	H	0.466302	1.079339	0.900372
	H6316	H	0.385113	1.041962	0.942060
	H6317	H	0.446825	0.977441	1.005314
	H6318	H	0.396124	1.028752	0.490503
	H6319	H	0.458455	0.965884	0.543756
	H6320	H	0.396905	1.030670	0.941548
	H6321	H	0.458483	0.965964	1.005592
	H6322	H	0.384357	1.040083	0.490711
	H6323	H	0.446711	0.977313	0.543358
	H6324	H	0.399397	0.961041	0.782172
	H6325	H	0.455238	1.063596	0.683552
	H6326	H	0.391289	0.940187	0.716796
	H6327	H	0.445548	1.043750	0.817768
	H6328	H	0.389741	0.941562	0.782684
	H6329	H	0.444295	1.045650	0.683100
	H6330	H	0.401013	0.959643	0.717297
	H6331	H	0.456493	1.061740	0.818225
	Co6332	Co	0.481278	1.100777	0.625992
	Co6333	Co	0.421630	1.003628	0.625526
	Co6334	Co	0.369365	0.897359	0.874337
	Co6335	Co	0.421599	1.003621	0.874339
	C6336	C	0.372412	1.052015	0.923884
	C6337	C	0.435086	0.989914	0.923767
	C6338	C	0.408251	1.017479	0.575567
	C6339	C	0.470691	0.954871	0.576600
	C6340	C	0.408226	1.017457	0.924005
	C6341	C	0.470691	0.954780	0.924481
	C6342	C	0.372538	1.052118	0.575329
	C6343	C	0.434941	0.989578	0.576728
	C6344	C	0.410238	0.980602	0.673450
	C6345	C	0.467562	1.080679	0.674323
	C6346	C	0.380512	0.920678	0.825901
	C6347	C	0.433829	1.025634	0.826658
	C6348	C	0.380579	0.920550	0.673392
	C6349	C	0.433724	1.025867	0.674004
	C6350	C	0.410216	0.980607	0.825939
	C6351	C	0.467423	1.080919	0.827357
	C6352	C	0.376543	1.048082	0.999829
	C6353	C	0.439110	0.985560	0.500929
	C6354	C	0.404123	1.021481	0.999736
	C6355	C	0.466623	0.958929	0.500826
	C6356	C	0.406816	0.973649	0.749691
	C6357	C	0.463469	1.074656	0.750938
	C6358	C	0.383927	0.927589	0.749533
	C6359	C	0.437572	1.032276	0.750519
	C6360	C	0.383515	1.041300	0.999836
	C6361	C	0.446072	0.978797	0.501235
	C6362	C	0.397151	1.028279	0.999294
	C6363	C	0.459680	0.965719	0.500978
	C6364	C	0.401029	0.961991	0.749762
	C6365	C	0.456794	1.064085	0.751031
	C6366	C	0.389702	0.939274	0.749562
	C6367	C	0.444016	1.043152	0.750723
	C6368	C	0.387372	1.038806	0.967214
	C6369	C	0.449456	0.975259	1.003139
	C6370	C	0.393604	1.031346	0.494210
	C6371	C	0.456025	0.968704	0.524999
	C6372	C	0.394031	1.032468	0.966907
	C6373	C	0.456065	0.968767	1.003341
	C6374	C	0.386966	1.037729	0.494191
	C6375	C	0.449393	0.975117	0.525155
	C6376	C	0.397684	0.956537	0.767835
	C6377	C	0.453111	1.059249	0.713339
	C6378	C	0.393058	0.944732	0.731202
	C6379	C	0.447607	1.048056	0.788442
	C6380	C	0.392192	0.945500	0.767796
	C6381	C	0.446928	1.049053	0.713179
	C6382	C	0.398547	0.955772	0.731584
	C6383	C	0.453812	1.058227	0.788736
	N6384	N	0.366413	1.058146	0.952465
	N6385	N	0.429008	0.995803	0.952701
	N6386	N	0.414344	1.011511	0.547204
	N6387	N	0.476750	0.948865	0.547901
	N6388	N	0.414316	1.011527	0.952953
	N6389	N	0.476712	0.948744	0.953381
	N6390	N	0.366506	1.058162	0.546836
	N6391	N	0.428955	0.995641	0.547586
	N6392	N	0.415249	0.990803	0.702429
	N6393	N	0.473442	1.089807	0.703095
	N6394	N	0.375563	0.910395	0.797229
	N6395	N	0.428262	1.016114	0.797578
	N6396	N	0.375602	0.910305	0.702422
	N6397	N	0.428197	1.016249	0.702530
	N6398	N	0.415217	0.990814	0.797376
	N6399	N	0.473345	1.089989	0.798401
	H6400	H	0.505913	0.138500	0.349037
	H6401	H	0.568569	0.076280	0.348562
	H6402	H	0.543653	0.114290	0.151001
	H6403	H	0.606221	0.051832	0.151491
	H6404	H	0.543963	0.114650	0.349180
	H6405	H	0.606280	0.051925	0.349259
	H6406	H	0.505905	0.138564	0.150708
	H6407	H	0.568383	0.075989	0.150591
	H6408	H	0.537619	0.086864	0.099902
	H6409	H	0.613269	0.084150	0.099113
	H6410	H	0.499412	0.108032	0.401964
	H6411	H	0.574320	0.103367	0.401558
	H6412	H	0.499465	0.107966	0.099689
	H6413	H	0.574213	0.103038	0.098519
	H6414	H	0.537748	0.087386	0.401661
	H6415	H	0.613233	0.084631	0.401471
	H6416	H	0.518455	0.130633	0.349877
	H6417	H	0.580872	0.068073	0.649698
	H6418	H	0.531360	0.122658	0.150116
	H6419	H	0.593921	0.060382	0.149646
	H6420	H	0.531533	0.123184	0.350709
	H6421	H	0.593935	0.060426	0.648872
	H6422	H	0.518305	0.130386	0.148952
	H6423	H	0.580805	0.067922	0.149393
	H6424	H	0.524632	0.092447	0.101023
	H6425	H	0.600365	0.090142	0.099539
	H6426	H	0.512037	0.101433	0.400237
	H6427	H	0.587182	0.097351	0.399668
	H6428	H	0.511924	0.101054	0.101378
	H6429	H	0.587399	0.097940	0.099616
	H6430	H	0.524755	0.092854	0.400070
	H6431	H	0.600154	0.089484	0.400074
	Co6432	Co	0.631623	0.092454	0.126312
	Co6433	Co	0.555965	0.094982	0.126008
	Co6434	Co	0.481243	0.100867	0.375178
	Co6435	Co	0.556030	0.095126	0.374391
	C6436	C	0.504914	0.139862	0.422921
	C6437	C	0.567461	0.077492	0.422841
	C6438	C	0.544689	0.112938	0.077197
	C6439	C	0.607266	0.050491	0.077678
	C6440	C	0.544843	0.113191	0.423348
	C6441	C	0.607219	0.050469	0.423344
	C6442	C	0.504887	0.139787	0.076301
	C6443	C	0.567357	0.077246	0.076448
	C6444	C	0.539125	0.087233	0.173602
	C6445	C	0.614752	0.084594	0.173251
	C6446	C	0.497907	0.107921	0.327918
	C6447	C	0.572852	0.103041	0.326796
	C6448	C	0.497918	0.107888	0.173641
	C6449	C	0.572813	0.102839	0.172907
	C6450	C	0.539172	0.087418	0.328020
	C6451	C	0.614729	0.084781	0.327434
	C6452	C	0.509256	0.136021	0.499793
	C6453	C	0.571729	0.073541	-0.000399
	C6454	C	0.540538	0.117125	0.500314
	C6455	C	0.602976	0.054452	0.000733
	C6456	C	0.533956	0.087964	0.250792
	C6457	C	0.609566	0.085229	0.250286
	C6458	C	0.503005	0.106782	0.250895
	C6459	C	0.578016	0.102359	0.249969
	C6460	C	0.517090	0.131019	0.499487
	C6461	C	0.579536	0.068478	-0.000061
	C6462	C	0.532765	0.122263	0.500346
	C6463	C	0.595220	0.059670	0.000230
	C6464	C	0.525866	0.091912	0.250772
	C6465	C	0.601400	0.088966	0.250011
	C6466	C	0.510941	0.102265	0.250921
	C6467	C	0.586175	0.098549	0.249920
	C6468	C	0.521165	0.128871	0.416536
	C6469	C	0.583624	0.066362	0.583094
	C6470	C	0.528657	0.124435	0.083264
	C6471	C	0.591147	0.061979	0.082865
	C6472	C	0.528722	0.124650	0.417432
	C6473	C	0.591138	0.062047	0.582483
	C6474	C	0.521129	0.128725	0.082616
	C6475	C	0.583614	0.066266	0.082962
	C6476	C	0.521968	0.094396	0.167593
	C6477	C	0.597538	0.091601	0.166409
	C6478	C	0.514783	0.099610	0.334107
	C6479	C	0.590045	0.095874	0.333179
	C6480	C	0.514710	0.099378	0.167682
	C6481	C	0.590159	0.096207	0.166388
	C6482	C	0.522020	0.094586	0.333757
	C6483	C	0.597407	0.091239	0.333311
	N6484	N	0.498701	0.145764	0.451512
	N6485	N	0.561264	0.083397	0.451563
	N6486	N	0.550760	0.106771	0.048679
	N6487	N	0.613315	0.044255	0.048926
	N6488	N	0.550858	0.106891	0.452006
	N6489	N	0.613286	0.044266	0.451903
	N6490	N	0.498738	0.145788	0.047798
	N6491	N	0.561234	0.083328	0.048021
	N6492	N	0.546930	0.087075	0.202039
	N6493	N	0.622545	0.084555	0.201970
	N6494	N	0.490217	0.108818	0.299471
	N6495	N	0.565051	0.103118	0.298514
	N6496	N	0.490215	0.108796	0.201694
	N6497	N	0.565025	0.102995	0.201415
	N6498	N	0.546956	0.087188	0.299224
	N6499	N	0.622524	0.084672	0.299236
	H6500	H	0.506044	0.138745	0.848176
	H6501	H	0.568533	0.076313	0.849211
	H6502	H	0.543678	0.114192	0.651297
	H6503	H	0.606096	0.051583	0.651355
	H6504	H	0.543801	0.114594	0.849509
	H6505	H	0.606193	0.051779	0.849923
	H6506	H	0.505975	0.138564	0.650479
	H6507	H	0.568403	0.075919	0.650606
	H6508	H	0.537652	0.086665	0.599253
	H6509	H	0.613209	0.084169	0.599064
	H6510	H	0.499428	0.108063	0.901705
	H6511	H	0.574325	0.103419	0.900541
	H6512	H	0.499469	0.108092	0.598829
	H6513	H	0.574248	0.102915	0.598365
	H6514	H	0.537719	0.087539	0.902486
	H6515	H	0.613241	0.084285	0.901247
	H6516	H	0.518497	0.130681	0.849801
	H6517	H	0.580786	0.067641	0.850555
	H6518	H	0.531392	0.122587	0.649840
	H6519	H	0.593882	0.060051	0.350355
	H6520	H	0.531635	0.123304	0.851096
	H6521	H	0.593955	0.060311	0.850544
	H6522	H	0.518259	0.130156	0.648682
	H6523	H	0.580752	0.067561	0.350899
	H6524	H	0.524732	0.092696	0.899544
	H6525	H	0.600305	0.089864	0.600157
	H6526	H	0.511953	0.101058	0.601191
	H6527	H	0.587186	0.097389	0.899473
	H6528	H	0.511996	0.101199	0.899287
	H6529	H	0.587405	0.097757	0.599842
	H6530	H	0.524717	0.092570	0.601157
	H6531	H	0.600126	0.089439	0.899893
	Co6532	Co	0.631508	0.092392	0.626055
	Co6533	Co	0.555951	0.094907	0.625634
	Co6534	Co	0.481275	0.100914	0.875032
	Co6535	Co	0.556052	0.095226	0.874284
	C6536	C	0.504982	0.139954	0.922573
	C6537	C	0.567441	0.077462	0.922877
	C6538	C	0.544748	0.113030	0.577003
	C6539	C	0.607149	0.050353	0.577077
	C6540	C	0.544819	0.113212	0.923538
	C6541	C	0.607250	0.050473	0.923874
	C6542	C	0.504891	0.139789	0.576592
	C6543	C	0.567347	0.077248	0.576561
	C6544	C	0.539170	0.087145	0.673375
	C6545	C	0.614704	0.084561	0.673040
	C6546	C	0.497921	0.107931	0.827464
	C6547	C	0.572821	0.102970	0.826667
	C6548	C	0.497934	0.107942	0.673028
	C6549	C	0.572800	0.102790	0.672461
	C6550	C	0.539222	0.087541	0.827741
	C6551	C	0.614723	0.084628	0.827307
	C6552	C	0.509279	0.136071	0.999621
	C6553	C	0.571748	0.073573	0.499645
	C6554	C	0.540497	0.117057	1.000416
	C6555	C	0.602925	0.054408	0.500040
	C6556	C	0.533998	0.087971	0.750630
	C6557	C	0.609539	0.085162	0.750332
	C6558	C	0.503018	0.106786	0.750305
	C6559	C	0.577993	0.102260	0.749709
	C6560	C	0.517092	0.131080	0.999639
	C6561	C	0.579553	0.068490	0.500105
	C6562	C	0.532746	0.122288	1.000582
	C6563	C	0.595171	0.059601	0.499674
	C6564	C	0.525916	0.091959	0.750484
	C6565	C	0.601401	0.088940	0.750267
	C6566	C	0.510939	0.102236	0.750359
	C6567	C	0.586149	0.098450	0.749772
	C6568	C	0.521186	0.128878	0.916598
	C6569	C	0.583611	0.066139	0.917187
	C6570	C	0.528665	0.124369	0.583094
	C6571	C	0.591127	0.061795	0.416813
	C6572	C	0.528741	0.124677	0.917389
	C6573	C	0.591164	0.061912	0.917351
	C6574	C	0.521124	0.128612	0.582411
	C6575	C	0.583582	0.066045	0.417370
	C6576	C	0.522028	0.094523	0.833260
	C6577	C	0.597519	0.091480	0.666766
	C6578	C	0.514740	0.099404	0.667398
	C6579	C	0.590023	0.095870	0.833122
	C6580	C	0.514773	0.099499	0.833216
	C6581	C	0.590118	0.095998	0.666591
	C6582	C	0.522019	0.094466	0.667465
	C6583	C	0.597417	0.091281	0.833348
	N6584	N	0.498805	0.145935	0.951164
	N6585	N	0.561273	0.083443	0.951467
	N6586	N	0.550771	0.106752	0.548635
	N6587	N	0.613233	0.044184	0.548480
	N6588	N	0.550839	0.106914	0.952345
	N6589	N	0.613315	0.044286	0.952504
	N6590	N	0.498753	0.145838	0.548112
	N6591	N	0.561178	0.083240	0.548155
	N6592	N	0.546957	0.087040	0.702003
	N6593	N	0.622498	0.084436	0.701665
	N6594	N	0.490212	0.108842	0.799130
	N6595	N	0.565040	0.103163	0.798193
	N6596	N	0.490212	0.108851	0.701330
	N6597	N	0.565018	0.103007	0.700818
	N6598	N	0.546978	0.087280	0.799101
	N6599	N	0.622507	0.084480	0.798825
	H6600	H	0.518880	0.198253	0.348796
	H6601	H	0.581434	0.135967	0.348272
	H6602	H	0.556486	0.173748	0.151218
	H6603	H	0.619061	0.111345	0.151686
	H6604	H	0.556767	0.174140	0.349168
	H6605	H	0.619194	0.111521	0.348689
	H6606	H	0.518891	0.198261	0.150556
	H6607	H	0.581318	0.135563	0.150185
	H6608	H	0.550744	0.146860	0.098853
	H6609	H	0.625671	0.141904	0.098463
	H6610	H	0.511738	0.165565	0.401581
	H6611	H	0.587402	0.163056	0.400832
	H6612	H	0.511721	0.165567	0.098902
	H6613	H	0.587422	0.162808	0.098835
	H6614	H	0.550757	0.147103	0.402108
	H6615	H	0.625719	0.142307	0.401382
	H6616	H	0.531335	0.190133	0.350341
	H6617	H	0.593654	0.127400	0.648657
	H6618	H	0.544047	0.181800	0.149653
	H6619	H	0.606749	0.119848	0.149404
	H6620	H	0.544440	0.182620	0.351008
	H6621	H	0.606704	0.119796	0.649140
	H6622	H	0.530938	0.189399	0.149141
	H6623	H	0.593655	0.127334	0.149376
	H6624	H	0.537635	0.152073	0.099817
	H6625	H	0.613191	0.149101	0.100011
	H6626	H	0.524927	0.160667	0.400929
	H6627	H	0.600302	0.157113	0.399232
	H6628	H	0.524665	0.159871	0.099992
	H6629	H	0.600476	0.157666	0.100520
	H6630	H	0.537886	0.152735	0.400815
	H6631	H	0.613002	0.148632	0.399201
	Co6632	Co	0.643861	0.149205	0.125622
	Co6633	Co	0.569071	0.154970	0.125649
	Co6634	Co	0.493429	0.157518	0.374552
	Co6635	Co	0.569125	0.155096	0.374249
	C6636	C	0.517867	0.199612	0.423167
	C6637	C	0.580369	0.137077	0.422284
	C6638	C	0.557590	0.172584	0.077064
	C6639	C	0.620096	0.110081	0.077459
	C6640	C	0.557731	0.172815	0.423615
	C6641	C	0.620164	0.110210	0.423124
	C6642	C	0.517861	0.199591	0.076513
	C6643	C	0.580315	0.136985	0.076543
	C6644	C	0.552220	0.147198	0.173039
	C6645	C	0.627203	0.142127	0.172645
	C6646	C	0.510293	0.165335	0.327561
	C6647	C	0.585930	0.162751	0.326815
	C6648	C	0.510286	0.165303	0.173401
	C6649	C	0.585907	0.162710	0.172669
	C6650	C	0.552248	0.147305	0.327371
	C6651	C	0.627202	0.142288	0.327148
	C6652	C	0.522167	0.195682	0.499833
	C6653	C	0.584588	0.133063	-0.000456
	C6654	C	0.553354	0.176542	0.500564
	C6655	C	0.615807	0.113974	0.000406
	C6656	C	0.547057	0.147838	0.250340
	C6657	C	0.622117	0.143353	0.249661
	C6658	C	0.515464	0.164756	0.250471
	C6659	C	0.591099	0.162065	0.249563
	C6660	C	0.529915	0.190463	0.499681
	C6661	C	0.592359	0.127839	-0.000229
	C6662	C	0.545565	0.181627	0.500324
	C6663	C	0.607999	0.119020	-0.000097
	C6664	C	0.538895	0.151590	0.250328
	C6665	C	0.614171	0.147822	0.249485
	C6666	C	0.523647	0.161077	0.250567
	C6667	C	0.599201	0.158116	0.249585
	C6668	C	0.534052	0.188348	0.417033
	C6669	C	0.596406	0.125605	0.582187
	C6670	C	0.541334	0.183566	0.082775
	C6671	C	0.603916	0.121350	0.082785
	C6672	C	0.541579	0.184051	0.417365
	C6673	C	0.603920	0.121289	0.582464
	C6674	C	0.533811	0.187867	0.082644
	C6675	C	0.596397	0.125619	0.082938
	C6676	C	0.534918	0.153891	0.166713
	C6677	C	0.610390	0.150705	0.166409
	C6678	C	0.527652	0.158828	0.334252
	C6679	C	0.603060	0.155457	0.332695
	C6680	C	0.527517	0.158424	0.166787
	C6681	C	0.603138	0.155677	0.166717
	C6682	C	0.535058	0.154270	0.334030
	C6683	C	0.610309	0.150477	0.332602
	N6684	N	0.511787	0.205755	0.451800
	N6685	N	0.574286	0.143234	0.450971
	N6686	N	0.563806	0.166724	0.048764
	N6687	N	0.626259	0.104091	0.048789
	N6688	N	0.563846	0.166727	0.452316
	N6689	N	0.626339	0.104267	0.451957
	N6690	N	0.511816	0.205817	0.048036
	N6691	N	0.574279	0.143232	0.047801
	N6692	N	0.559989	0.147085	0.201327
	N6693	N	0.634906	0.141225	0.201074
	N6694	N	0.502486	0.165463	0.299019
	N6695	N	0.578147	0.163037	0.298446
	N6696	N	0.502494	0.165432	0.201765
	N6697	N	0.578131	0.162968	0.201118
	N6698	N	0.560020	0.147170	0.298605
	N6699	N	0.634904	0.141295	0.298884
	H6700	H	0.518865	0.198242	0.848850
	H6701	H	0.581506	0.135886	0.848502
	H6702	H	0.556550	0.173757	0.651908
	H6703	H	0.619055	0.111252	0.651181
	H6704	H	0.556778	0.174226	0.849367
	H6705	H	0.619173	0.111546	0.849381
	H6706	H	0.518899	0.198258	0.650854
	H6707	H	0.581119	0.135311	0.650485
	H6708	H	0.550785	0.146715	0.599166
	H6709	H	0.625728	0.142037	0.597908
	H6710	H	0.511884	0.165965	0.901231
	H6711	H	0.587435	0.163232	0.900366
	H6712	H	0.511875	0.165644	0.598311
	H6713	H	0.587347	0.162628	0.597645
	H6714	H	0.550813	0.147208	0.901502
	H6715	H	0.625682	0.142194	0.901019
	H6716	H	0.531218	0.189972	0.849588
	H6717	H	0.593581	0.126949	0.850245
	H6718	H	0.544131	0.181921	0.649571
	H6719	H	0.606634	0.119369	0.350222
	H6720	H	0.544313	0.182439	0.849758
	H6721	H	0.606706	0.119442	0.850218
	H6722	H	0.531014	0.189414	0.649163
	H6723	H	0.593565	0.126905	0.350154
	H6724	H	0.537762	0.152357	0.900232
	H6725	H	0.612992	0.148524	0.898754
	H6726	H	0.524870	0.160250	0.599769
	H6727	H	0.600492	0.157726	0.599746
	H6728	H	0.524852	0.160315	0.900164
	H6729	H	0.600218	0.156988	0.898127
	H6730	H	0.537811	0.152381	0.600282
	H6731	H	0.613192	0.149213	0.599952
	Co6732	Co	0.643880	0.149240	0.625423
	Co6733	Co	0.569052	0.154823	0.625769
	Co6734	Co	0.493550	0.157723	0.874143
	Co6735	Co	0.569110	0.155168	0.874188
	C6736	C	0.517860	0.199593	0.922500
	C6737	C	0.580350	0.137094	0.922609
	C6738	C	0.557637	0.172598	0.577689
	C6739	C	0.620091	0.110058	0.576982
	C6740	C	0.557730	0.172864	0.923393
	C6741	C	0.620150	0.110209	0.923511
	C6742	C	0.517889	0.199607	0.576874
	C6743	C	0.580197	0.136750	0.576012
	C6744	C	0.552241	0.147084	0.673360
	C6745	C	0.627209	0.142237	0.672238
	C6746	C	0.510377	0.165547	0.826882
	C6747	C	0.585927	0.162872	0.825919
	C6748	C	0.510370	0.165417	0.672492
	C6749	C	0.585878	0.162516	0.671951
	C6750	C	0.552262	0.147306	0.827716
	C6751	C	0.627207	0.142282	0.826705
	C6752	C	0.522113	0.195617	0.999527
	C6753	C	0.584568	0.133000	0.499209
	C6754	C	0.553311	0.176515	1.000320
	C6755	C	0.615767	0.113879	0.499984
	C6756	C	0.547071	0.147764	0.750542
	C6757	C	0.622118	0.143390	0.749416
	C6758	C	0.515566	0.164881	0.749809
	C6759	C	0.591092	0.162078	0.748974
	C6760	C	0.529847	0.190342	0.999405
	C6761	C	0.592323	0.127798	0.499443
	C6762	C	0.545479	0.181490	1.000036
	C6763	C	0.607966	0.118902	0.499784
	C6764	C	0.538919	0.151500	0.750337
	C6765	C	0.614184	0.147850	0.749394
	C6766	C	0.523688	0.161041	0.750042
	C6767	C	0.599198	0.158112	0.749000
	C6768	C	0.533959	0.188188	0.916277
	C6769	C	0.596392	0.125414	0.916960
	C6770	C	0.541420	0.183718	0.582884
	C6771	C	0.603881	0.121083	0.416838
	C6772	C	0.541482	0.183901	0.916697
	C6773	C	0.603918	0.121116	0.916819
	C6774	C	0.533877	0.187953	0.582699
	C6775	C	0.596351	0.125351	0.416655
	C6776	C	0.534968	0.153941	0.833682
	C6777	C	0.610301	0.150390	0.832278
	C6778	C	0.527602	0.158590	0.666586
	C6779	C	0.603140	0.155700	0.666088
	C6780	C	0.527593	0.158582	0.833389
	C6781	C	0.603029	0.155325	0.832044
	C6782	C	0.535010	0.154021	0.666674
	C6783	C	0.610406	0.150741	0.666446
	N6784	N	0.511785	0.205808	0.951623
	N6785	N	0.574274	0.143281	0.951493
	N6786	N	0.563795	0.166610	0.548994
	N6787	N	0.626296	0.104178	0.548755
	N6788	N	0.563870	0.166839	0.952056
	N6789	N	0.626279	0.104144	0.952269
	N6790	N	0.511810	0.205762	0.548346
	N6791	N	0.574188	0.143028	0.547588
	N6792	N	0.560042	0.146962	0.701987
	N6793	N	0.634914	0.141301	0.700751
	N6794	N	0.502608	0.165683	0.798482
	N6795	N	0.578147	0.163075	0.797725
	N6796	N	0.502586	0.165594	0.701176
	N6797	N	0.578130	0.162825	0.700462
	N6798	N	0.560039	0.147118	0.799339
	N6799	N	0.634910	0.141323	0.798611
	H6800	H	0.532802	0.258119	0.349660
	H6801	H	0.595517	0.196167	0.350452
	H6802	H	0.569306	0.231513	0.151279
	H6803	H	0.631816	0.169196	0.151109
	H6804	H	0.569542	0.231848	0.348574
	H6805	H	0.632063	0.169299	0.348262
	H6806	H	0.532735	0.258246	0.150207
	H6807	H	0.595405	0.196063	0.150223
	H6808	H	0.563157	0.204442	0.098707
	H6809	H	0.627598	0.285065	0.101179
	H6810	H	0.524901	0.225343	0.401060
	H6811	H	0.596115	0.233422	0.400253
	H6812	H	0.524917	0.225650	0.098486
	H6813	H	0.596163	0.233373	0.100336
	H6814	H	0.563204	0.204547	0.401734
	H6815	H	0.627847	0.284963	0.399342
	H6816	H	0.545088	0.249970	0.646118
	H6817	H	0.607844	0.188279	0.646240
	H6818	H	0.557921	0.241833	-0.146285
	H6819	H	0.620558	0.179744	0.146635
	H6820	H	0.557884	0.241502	0.646423
	H6821	H	0.620586	0.179629	0.645542
	H6822	H	0.545114	0.250459	-0.146242
	H6823	H	0.607796	0.188389	0.146084
	H6824	H	0.550486	0.211026	0.100328
	H6825	H	0.617351	0.268276	0.299541
	H6826	H	0.537951	0.220085	0.399615
	H6827	H	0.606996	0.249476	0.202438
	H6828	H	0.537746	0.219493	0.100309
	H6829	H	0.606434	0.250307	0.298987
	H6830	H	0.550730	0.211702	0.399700
	H6831	H	0.617847	0.267563	0.202470
	Co6832	Co	0.640873	0.308876	0.124738
	Co6833	Co	0.581321	0.211697	0.125230
	Co6834	Co	0.506628	0.217564	0.374284
	Co6835	Co	0.581320	0.211613	0.374113
	C6836	C	0.531651	0.259151	0.423152
	C6837	C	0.594250	0.196972	0.423433
	C6838	C	0.570308	0.230232	0.077009
	C6839	C	0.632846	0.167894	0.077163
	C6840	C	0.570469	0.230394	0.422393
	C6841	C	0.632986	0.167947	0.422306
	C6842	C	0.531581	0.259185	0.076814
	C6843	C	0.594196	0.196991	0.076460
	C6844	C	0.564694	0.204620	0.172850
	C6845	C	0.628719	0.286816	0.174046
	C6846	C	0.523421	0.225159	0.327305
	C6847	C	0.595107	0.231708	0.326638
	C6848	C	0.523423	0.225286	0.172806
	C6849	C	0.595143	0.231674	0.173422
	C6850	C	0.564725	0.204681	0.327140
	C6851	C	0.628834	0.286773	0.326473
	C6852	C	0.536208	0.255962	0.499695
	C6853	C	0.598715	0.193753	-0.000178
	C6854	C	0.566505	0.234972	0.499211
	C6855	C	0.628926	0.172475	0.000067
	C6856	C	0.559632	0.205861	0.250125
	C6857	C	0.624968	0.280271	0.250392
	C6858	C	0.528610	0.224559	0.250084
	C6859	C	0.599176	0.237868	0.250101
	C6860	C	0.544019	0.251043	0.499593
	C6861	C	0.606497	0.188758	-0.000349
	C6862	C	0.559160	0.241114	0.499428
	C6863	C	0.621582	0.178652	-0.000159
	C6864	C	0.551691	0.210371	0.250186
	C6865	C	0.618492	0.269455	0.250791
	C6866	C	0.536687	0.220591	0.249941
	C6867	C	0.605804	0.248449	0.250517
	C6868	C	0.547898	0.248344	0.581298
	C6869	C	0.610505	0.186275	0.581243
	C6870	C	0.555133	0.243607	-0.081473
	C6871	C	0.617773	0.181511	0.081556
	C6872	C	0.555221	0.243520	0.581262
	C6873	C	0.617808	0.181392	0.580911
	C6874	C	0.547840	0.248507	-0.081443
	C6875	C	0.610472	0.186378	0.081153
	C6876	C	0.547772	0.212851	0.166833
	C6877	C	0.615102	0.264257	0.277742
	C6878	C	0.540649	0.218230	0.333062
	C6879	C	0.609231	0.253611	0.223440
	C6880	C	0.540498	0.217815	0.166914
	C6881	C	0.608924	0.254029	0.277743
	C6882	C	0.547938	0.213342	0.333273
	C6883	C	0.615408	0.263832	0.223799
	N6884	N	0.525066	0.264076	0.451692
	N6885	N	0.587625	0.201803	0.451761
	N6886	N	0.576052	0.223487	0.047843
	N6887	N	0.638513	0.161004	0.048215
	N6888	N	0.576104	0.223458	0.451374
	N6889	N	0.638628	0.161038	0.451437
	N6890	N	0.525011	0.264175	0.048040
	N6891	N	0.587596	0.201863	0.047852
	N6892	N	0.572391	0.203645	0.200941
	N6893	N	0.634304	0.296331	0.202557
	N6894	N	0.515650	0.225486	0.298641
	N6895	N	0.589234	0.222637	0.297564
	N6896	N	0.515646	0.225512	0.201376
	N6897	N	0.589242	0.222631	0.202297
	N6898	N	0.572401	0.203634	0.298831
	N6899	N	0.634354	0.296323	0.297576
	H6900	H	0.532860	0.258463	0.850792
	H6901	H	0.595365	0.196113	0.849597
	H6902	H	0.569576	0.231864	0.650050
	H6903	H	0.631996	0.169293	0.650405
	H6904	H	0.569456	0.231892	0.849421
	H6905	H	0.632020	0.169517	0.848838
	H6906	H	0.533042	0.258650	0.649522
	H6907	H	0.595391	0.195822	0.649046
	H6908	H	0.563226	0.204599	0.598100
	H6909	H	0.627711	0.285227	0.600703
	H6910	H	0.524944	0.225460	0.901174
	H6911	H	0.596277	0.233412	0.899886
	H6912	H	0.524916	0.225591	0.598641
	H6913	H	0.596333	0.233415	0.599324
	H6914	H	0.563208	0.204598	0.900629
	H6915	H	0.627934	0.284882	0.898006
	H6916	H	0.544999	0.250057	1.147574
	H6917	H	0.607643	0.187979	0.853309
	H6918	H	0.558169	0.242542	0.352686
	H6919	H	0.620397	0.179095	0.353620
	H6920	H	0.557767	0.241471	1.147426
	H6921	H	0.620418	0.179464	0.852957
	H6922	H	0.545378	0.251113	0.353421
	H6923	H	0.607645	0.187715	0.353995
	H6924	H	0.550553	0.211261	0.600257
	H6925	H	0.617188	0.268739	0.850258
	H6926	H	0.537903	0.220024	0.899028
	H6927	H	0.607161	0.249402	0.648494
	H6928	H	0.537828	0.219679	0.600287
	H6929	H	0.606261	0.250695	0.850434
	H6930	H	0.550635	0.211434	0.899102
	H6931	H	0.618155	0.267299	0.648725
	Co6932	Co	0.640940	0.308968	0.625134
	Co6933	Co	0.581391	0.211666	0.625104
	Co6934	Co	0.506664	0.217665	0.874122
	Co6935	Co	0.581312	0.211796	0.874185
	C6936	C	0.531632	0.259272	0.923643
	C6937	C	0.594192	0.196979	0.923136
	C6938	C	0.570456	0.230362	0.576275
	C6939	C	0.632965	0.167944	0.576123
	C6940	C	0.570408	0.230426	0.923040
	C6941	C	0.632934	0.168020	0.923138
	C6942	C	0.531768	0.259372	0.576405
	C6943	C	0.594213	0.196814	0.576203
	C6944	C	0.564717	0.204725	0.672219
	C6945	C	0.628804	0.286844	0.673290
	C6946	C	0.523432	0.225276	0.826622
	C6947	C	0.595168	0.231737	0.826411
	C6948	C	0.523439	0.225364	0.672585
	C6949	C	0.595196	0.231750	0.673090
	C6950	C	0.564724	0.204716	0.826927
	C6951	C	0.628914	0.286696	0.825583
	C6952	C	0.536123	0.255965	1.000294
	C6953	C	0.598753	0.193647	0.499797
	C6954	C	0.566328	0.234718	1.000089
	C6955	C	0.628972	0.172424	0.499263
	C6956	C	0.559636	0.205957	0.749839
	C6957	C	0.625079	0.280255	0.749433
	C6958	C	0.528617	0.224634	0.749751
	C6959	C	0.599170	0.237959	0.749891
	C6960	C	0.543888	0.250931	1.000330
	C6961	C	0.606527	0.188614	0.499909
	C6962	C	0.558950	0.240823	1.000336
	C6963	C	0.621611	0.178518	0.499537
	C6964	C	0.551718	0.210441	0.749844
	C6965	C	0.618583	0.269465	0.749499
	C6966	C	0.536715	0.220636	0.749688
	C6967	C	0.605814	0.248583	0.749848
	C6968	C	0.547783	0.248335	1.082393
	C6969	C	0.610407	0.186205	0.918115
	C6970	C	0.555381	0.244131	0.417998
	C6971	C	0.617704	0.181074	0.418255
	C6972	C	0.555073	0.243451	1.082379
	C6973	C	0.617698	0.181308	0.917989
	C6974	C	0.548056	0.248938	0.417948
	C6975	C	0.610423	0.185995	0.418548
	C6976	C	0.547851	0.213016	0.666704
	C6977	C	0.615063	0.264477	0.806086
	C6978	C	0.540629	0.218140	0.832890
	C6979	C	0.609362	0.253549	0.693002
	C6980	C	0.540563	0.217918	0.666490
	C6981	C	0.608862	0.254314	0.806359
	C6982	C	0.547922	0.213247	0.832759
	C6983	C	0.615563	0.263710	0.692838
	N6984	N	0.525044	0.264217	0.952034
	N6985	N	0.587596	0.201894	0.951715
	N6986	N	0.576095	0.223440	0.547448
	N6987	N	0.638637	0.161060	0.547324
	N6988	N	0.576114	0.223607	0.951992
	N6989	N	0.638581	0.161092	0.952350
	N6990	N	0.525138	0.264233	0.547631
	N6991	N	0.587622	0.201751	0.547793
	N6992	N	0.572439	0.203744	0.700722
	N6993	N	0.634413	0.296341	0.702042
	N6994	N	0.515696	0.225569	0.798449
	N6995	N	0.589280	0.222699	0.797249
	N6996	N	0.515676	0.225596	0.700955
	N6997	N	0.589301	0.222696	0.701938
	N6998	N	0.572424	0.203730	0.798352
	N6999	N	0.634466	0.296280	0.796663
	H7000	H	0.530293	0.418821	0.351408
	H7001	H	0.592750	0.356255	0.352168
	H7002	H	0.563735	0.386133	0.148751
	H7003	H	0.626489	0.324291	0.148463
	H7004	H	0.563827	0.386119	0.351460
	H7005	H	0.626385	0.324214	0.351851
	H7006	H	0.530303	0.418932	0.149388
	H7007	H	0.592774	0.356210	0.147853
	H7008	H	0.565045	0.347526	0.100952
	H7009	H	0.618217	0.452804	0.100086
	H7010	H	0.533553	0.295839	0.400085
	H7011	H	0.590755	0.396125	0.398279
	H7012	H	0.533643	0.295729	0.099450
	H7013	H	0.590692	0.396232	0.100630
	H7014	H	0.565390	0.347024	0.399332
	H7015	H	0.618424	0.452593	0.398923
	H7016	H	0.541568	0.408896	0.448661
	H7017	H	0.603903	0.346163	0.597380
	H7018	H	0.553150	0.397537	-0.036991
	H7019	H	0.615449	0.334456	-0.034248
	H7020	H	0.553279	0.397484	0.448508
	H7021	H	0.615726	0.335010	0.597320
	H7022	H	0.541453	0.408946	-0.036759
	H7023	H	0.603649	0.345705	-0.033642
	H7024	H	0.555011	0.330271	0.291990
	H7025	H	0.609056	0.434477	0.124309
	H7026	H	0.544192	0.312215	0.208164
	H7027	H	0.600078	0.414296	0.373824
	H7028	H	0.543985	0.312402	0.291565
	H7029	H	0.599477	0.414844	0.124906
	H7030	H	0.555216	0.330078	0.208529
	H7031	H	0.609724	0.433835	0.373769
	Co7032	Co	0.630556	0.477619	0.125448
	Co7033	Co	0.578309	0.371279	0.125412
	Co7034	Co	0.518766	0.273925	0.374117
	Co7035	Co	0.578370	0.371371	0.374572
	C7036	C	0.529215	0.419978	0.423705
	C7037	C	0.591679	0.357389	0.424552
	C7038	C	0.564875	0.385103	0.076135
	C7039	C	0.627568	0.323024	0.075543
	C7040	C	0.564949	0.385171	0.423667
	C7041	C	0.627549	0.323019	0.424246
	C7042	C	0.529215	0.420024	0.076700
	C7043	C	0.591640	0.357383	0.075398
	C7044	C	0.566191	0.349169	0.174047
	C7045	C	0.619209	0.454560	0.173289
	C7046	C	0.532530	0.294097	0.326211
	C7047	C	0.589806	0.394227	0.325546
	C7048	C	0.532581	0.294041	0.172614
	C7049	C	0.589765	0.394277	0.173330
	C7050	C	0.566348	0.348946	0.326687
	C7051	C	0.619311	0.454451	0.326027
	C7052	C	0.533350	0.416028	0.499809
	C7053	C	0.595794	0.353438	-0.000661
	C7054	C	0.560900	0.389337	0.499126
	C7055	C	0.623404	0.326981	-0.000948
	C7056	C	0.562504	0.342496	0.250313
	C7057	C	0.615856	0.447512	0.249548
	C7058	C	0.536575	0.300230	0.249406
	C7059	C	0.593229	0.401194	0.249415
	C7060	C	0.540365	0.409286	0.499655
	C7061	C	0.602812	0.346765	-0.001144
	C7062	C	0.553914	0.396134	0.499009
	C7063	C	0.616442	0.333770	-0.000997
	C7064	C	0.556013	0.331686	0.250299
	C7065	C	0.610143	0.435773	0.249175
	C7066	C	0.543179	0.310869	0.249328
	C7067	C	0.598969	0.412893	0.249309
	C7068	C	0.543991	0.406192	0.470761
	C7069	C	0.606359	0.343483	0.555033
	C7070	C	0.550520	0.399799	-0.020768
	C7071	C	0.612932	0.336989	-0.019813
	C7072	C	0.550590	0.399764	0.470412
	C7073	C	0.613064	0.337225	0.555055
	C7074	C	0.543891	0.406175	-0.020327
	C7075	C	0.606266	0.343310	-0.019788
	C7076	C	0.552663	0.326401	0.273724
	C7077	C	0.607106	0.430045	0.179425
	C7078	C	0.546558	0.316164	0.226122
	C7079	C	0.602047	0.418599	0.319117
	C7080	C	0.546437	0.316252	0.273249
	C7081	C	0.601671	0.418940	0.179398
	C7082	C	0.552808	0.326262	0.226612
	C7083	C	0.607460	0.429717	0.318920
	N7084	N	0.523149	0.425971	0.452571
	N7085	N	0.585692	0.363520	0.453175
	N7086	N	0.570935	0.379116	0.047217
	N7087	N	0.633547	0.316858	0.046692
	N7088	N	0.570990	0.379140	0.452716
	N7089	N	0.633577	0.316938	0.452488
	N7090	N	0.523198	0.426121	0.047455
	N7091	N	0.585579	0.363383	0.046700
	N7092	N	0.571736	0.358695	0.202986
	N7093	N	0.624241	0.464705	0.202371
	N7094	N	0.526651	0.284999	0.297228
	N7095	N	0.584758	0.384057	0.296845
	N7096	N	0.526666	0.284979	0.201908
	N7097	N	0.584721	0.384102	0.202060
	N7098	N	0.571838	0.358570	0.297869
	N7099	N	0.624288	0.464641	0.297123
	H7100	H	0.530392	0.419011	0.851115
	H7101	H	0.592949	0.356608	0.850753
	H7102	H	0.563868	0.386494	0.647380
	H7103	H	0.626471	0.324000	0.648729
	H7104	H	0.563875	0.386641	0.851525
	H7105	H	0.626280	0.323827	0.849625
	H7106	H	0.530473	0.419274	0.648511
	H7107	H	0.592821	0.356529	0.649031
	H7108	H	0.565397	0.347324	0.599951
	H7109	H	0.618435	0.452565	0.600521
	H7110	H	0.533609	0.295821	0.899549
	H7111	H	0.590681	0.396383	0.899222
	H7112	H	0.533757	0.295562	0.599461
	H7113	H	0.590764	0.396357	0.600406
	H7114	H	0.565207	0.347533	0.898716
	H7115	H	0.618282	0.452719	0.898762
	H7116	H	0.540935	0.407842	1.038463
	H7117	H	0.603792	0.346079	1.031456
	H7118	H	0.552705	0.396534	0.549544
	H7119	H	0.615225	0.334088	0.403725
	H7120	H	0.552714	0.396536	1.038391
	H7121	H	0.615565	0.334772	1.031555
	H7122	H	0.541019	0.408020	0.550273
	H7123	H	0.603398	0.345180	0.403514
	H7124	H	0.555057	0.330338	0.874325
	H7125	H	0.609218	0.434564	0.669934
	H7126	H	0.544240	0.312267	0.624651
	H7127	H	0.600019	0.414267	0.829378
	H7128	H	0.544114	0.312418	0.874865
	H7129	H	0.599626	0.414985	0.670405
	H7130	H	0.555234	0.330217	0.623875
	H7131	H	0.609646	0.433819	0.829061
	Co7132	Co	0.630602	0.477657	0.625084
	Co7133	Co	0.578344	0.371430	0.625526
	Co7134	Co	0.518746	0.274014	0.874168
	Co7135	Co	0.578335	0.371493	0.873898
	C7136	C	0.529285	0.420125	0.924134
	C7137	C	0.591727	0.357617	0.923408
	C7138	C	0.564965	0.385314	0.574955
	C7139	C	0.627582	0.322932	0.576230
	C7140	C	0.564936	0.385348	0.924116
	C7141	C	0.627465	0.322779	0.922838
	C7142	C	0.529316	0.420181	0.575822
	C7143	C	0.591716	0.357540	0.576684
	C7144	C	0.566311	0.349133	0.672859
	C7145	C	0.619311	0.454515	0.673213
	C7146	C	0.532578	0.294061	0.826486
	C7147	C	0.589756	0.394474	0.826571
	C7148	C	0.532658	0.293912	0.673215
	C7149	C	0.589809	0.394424	0.673314
	C7150	C	0.566215	0.349247	0.825567
	C7151	C	0.619259	0.454583	0.825989
	C7152	C	0.533306	0.416006	1.000574
	C7153	C	0.595768	0.353332	0.500680
	C7154	C	0.560818	0.389258	1.000225
	C7155	C	0.623445	0.327028	0.500509
	C7156	C	0.562471	0.342651	0.749231
	C7157	C	0.615911	0.447574	0.749616
	C7158	C	0.536640	0.300172	0.749781
	C7159	C	0.593227	0.401360	0.749996
	C7160	C	0.540288	0.409258	1.000910
	C7161	C	0.602729	0.346558	0.500609
	C7162	C	0.553872	0.396131	1.000422
	C7163	C	0.616431	0.333699	0.500538
	C7164	C	0.556030	0.331772	0.749284
	C7165	C	0.610197	0.435845	0.749447
	C7166	C	0.543260	0.310830	0.749670
	C7167	C	0.599020	0.413003	0.750035
	C7168	C	0.543640	0.405599	1.021868
	C7169	C	0.606338	0.343544	1.017306
	C7170	C	0.550303	0.399247	0.527668
	C7171	C	0.612756	0.336669	0.446306
	C7172	C	0.550271	0.399226	1.021828
	C7173	C	0.612996	0.337195	1.017396
	C7174	C	0.543697	0.405665	0.527861
	C7175	C	0.606074	0.342977	0.446122
	C7176	C	0.552737	0.326406	0.819474
	C7177	C	0.607221	0.430148	0.705170
	C7178	C	0.546593	0.316181	0.679235
	C7179	C	0.602032	0.418671	0.794406
	C7180	C	0.546509	0.316265	0.819745
	C7181	C	0.601789	0.419047	0.705449
	C7182	C	0.552810	0.326344	0.679033
	C7183	C	0.607468	0.429759	0.794103
	N7184	N	0.523229	0.426170	0.952606
	N7185	N	0.585636	0.363527	0.952225
	N7186	N	0.571003	0.379222	0.546769
	N7187	N	0.633595	0.316885	0.546879
	N7188	N	0.570954	0.379208	0.952682
	N7189	N	0.633497	0.316772	0.952094
	N7190	N	0.523194	0.426074	0.547010
	N7191	N	0.585701	0.363593	0.547699
	N7192	N	0.571804	0.358782	0.701983
	N7193	N	0.624286	0.464751	0.702073
	N7194	N	0.526682	0.284984	0.797694
	N7195	N	0.584720	0.384315	0.797293
	N7196	N	0.526733	0.284881	0.702208
	N7197	N	0.584743	0.384290	0.702100
	N7198	N	0.571757	0.358829	0.796907
	N7199	N	0.624262	0.464785	0.797010
	H7200	H	0.520245	0.587834	0.352431
	H7201	H	0.582748	0.525409	0.352058
	H7202	H	0.553222	0.554688	0.148610
	H7203	H	0.615875	0.492212	0.148461
	H7204	H	0.553346	0.554776	0.352397
	H7205	H	0.615753	0.492060	0.351292
	H7206	H	0.520261	0.588199	0.148939
	H7207	H	0.582751	0.525580	0.149158
	H7208	H	0.555650	0.515189	0.102203
	H7209	H	0.607628	0.621955	0.102239
	H7210	H	0.528181	0.458614	0.398938
	H7211	H	0.580130	0.565286	0.399042
	H7212	H	0.528137	0.458661	0.101760
	H7213	H	0.580123	0.565250	0.101647
	H7214	H	0.555952	0.514956	0.400760
	H7215	H	0.607015	0.622315	0.399571
	H7216	H	0.531415	0.578041	0.439536
	H7217	H	0.593356	0.514160	0.486172
	H7218	H	0.542589	0.565493	-0.050639
	H7219	H	0.604836	0.502606	0.050467
	H7220	H	0.543028	0.566375	0.439705
	H7221	H	0.604971	0.502639	0.485405
	H7222	H	0.530961	0.577116	-0.050522
	H7223	H	0.593186	0.514215	0.051674
	H7224	H	0.546650	0.496707	0.336954
	H7225	H	0.598475	0.603531	0.298625
	H7226	H	0.537326	0.476944	0.165527
	H7227	H	0.588965	0.583912	0.202624
	H7228	H	0.537052	0.477119	0.336042
	H7229	H	0.588998	0.583839	0.298122
	H7230	H	0.546954	0.496509	0.166863
	H7231	H	0.598433	0.603603	0.202891
	Co7232	Co	0.619397	0.647339	0.127266
	Co7233	Co	0.568005	0.540106	0.125923
	Co7234	Co	0.515828	0.433842	0.374734
	Co7235	Co	0.568058	0.540145	0.374838
	C7236	C	0.519111	0.589102	0.424601
	C7237	C	0.581596	0.526555	0.424002
	C7238	C	0.554408	0.553631	0.076294
	C7239	C	0.616976	0.491112	0.076109
	C7240	C	0.554525	0.553688	0.424618
	C7241	C	0.616951	0.491051	0.423678
	C7242	C	0.519080	0.589192	0.076640
	C7243	C	0.581593	0.526617	0.076572
	C7244	C	0.556688	0.516987	0.174993
	C7245	C	0.608384	0.623948	0.175117
	C7246	C	0.527249	0.456804	0.326313
	C7247	C	0.579190	0.563369	0.326396
	C7248	C	0.527241	0.456836	0.174315
	C7249	C	0.579171	0.563358	0.174210
	C7250	C	0.556843	0.516904	0.327695
	C7251	C	0.608088	0.624129	0.327322
	C7252	C	0.523211	0.585019	0.500644
	C7253	C	0.585620	0.522477	0.000274
	C7254	C	0.550430	0.557796	0.500986
	C7255	C	0.612857	0.495196	0.000221
	C7256	C	0.553392	0.509956	0.251454
	C7257	C	0.604897	0.616994	0.250798
	C7258	C	0.530650	0.463744	0.250383
	C7259	C	0.582539	0.570397	0.250485
	C7260	C	0.530077	0.578065	0.500801
	C7261	C	0.592525	0.515557	0.000429
	C7262	C	0.543499	0.564593	0.501135
	C7263	C	0.605957	0.502116	0.000114
	C7264	C	0.547611	0.498278	0.251585
	C7265	C	0.599249	0.605177	0.250326
	C7266	C	0.536392	0.475476	0.250611
	C7267	C	0.588212	0.582176	0.250387
	C7268	C	0.533723	0.575065	0.466485
	C7269	C	0.595953	0.511907	0.492099
	C7270	C	0.540080	0.568171	-0.028260
	C7271	C	0.602392	0.505321	0.028703
	C7272	C	0.540298	0.568499	0.466558
	C7273	C	0.602495	0.505286	0.491989
	C7274	C	0.533514	0.574727	-0.028110
	C7275	C	0.595840	0.511899	0.029012
	C7276	C	0.544647	0.492473	0.299337
	C7277	C	0.596431	0.599278	0.277213
	C7278	C	0.539360	0.481280	0.203185
	C7279	C	0.591023	0.588099	0.223714
	C7280	C	0.539210	0.481401	0.298994
	C7281	C	0.591065	0.588087	0.277001
	C7282	C	0.544790	0.492376	0.203904
	C7283	C	0.596382	0.599292	0.223648
	N7284	N	0.513122	0.595208	0.453243
	N7285	N	0.575573	0.532562	0.452764
	N7286	N	0.560422	0.547547	0.047684
	N7287	N	0.623031	0.485163	0.047236
	N7288	N	0.560549	0.547643	0.453355
	N7289	N	0.623013	0.485088	0.452475
	N7290	N	0.512992	0.595129	0.047827
	N7291	N	0.575513	0.532584	0.047910
	N7292	N	0.561685	0.527224	0.203367
	N7293	N	0.613233	0.634281	0.204524
	N7294	N	0.522240	0.446607	0.297365
	N7295	N	0.574255	0.553085	0.297612
	N7296	N	0.522224	0.446616	0.202907
	N7297	N	0.574244	0.553062	0.202891
	N7298	N	0.561788	0.527171	0.298524
	N7299	N	0.613048	0.634389	0.299106
	H7300	H	0.520173	0.587911	0.852620
	H7301	H	0.582496	0.525227	0.851568
	H7302	H	0.553415	0.554758	0.649271
	H7303	H	0.615973	0.492430	0.648439
	H7304	H	0.553465	0.555005	0.851889
	H7305	H	0.615849	0.492350	0.852080
	H7306	H	0.520252	0.587813	0.649090
	H7307	H	0.582776	0.525383	0.647469
	H7308	H	0.555932	0.515002	0.601602
	H7309	H	0.607512	0.621786	0.602143
	H7310	H	0.528230	0.458747	0.898667
	H7311	H	0.579770	0.565327	0.899597
	H7312	H	0.528281	0.458700	0.599813
	H7313	H	0.580365	0.564890	0.602612
	H7314	H	0.555865	0.515184	0.899735
	H7315	H	0.607000	0.622286	0.900679
	H7316	H	0.531050	0.577578	1.050942
	H7317	H	0.593677	0.515111	0.950276
	H7318	H	0.542244	0.564716	0.561769
	H7319	H	0.605144	0.503301	0.513098
	H7320	H	0.542680	0.565975	1.051101
	H7321	H	0.605297	0.503411	0.949492
	H7322	H	0.530626	0.576270	0.561963
	H7323	H	0.593622	0.515045	0.513941
	H7324	H	0.546832	0.496630	0.800989
	H7325	H	0.598772	0.603064	0.856411
	H7326	H	0.537307	0.477175	0.699193
	H7327	H	0.588537	0.584177	0.647155
	H7328	H	0.537227	0.477086	0.800069
	H7329	H	0.589303	0.583322	0.855707
	H7330	H	0.546942	0.496731	0.701334
	H7331	H	0.597971	0.603931	0.646546
	Co7332	Co	0.619366	0.647280	0.626898
	Co7333	Co	0.568060	0.540043	0.625784
	Co7334	Co	0.515876	0.433931	0.874104
	Co7335	Co	0.567962	0.540124	0.875296
	C7336	C	0.519040	0.589079	0.924756
	C7337	C	0.581458	0.526428	0.924284
	C7338	C	0.554552	0.553649	0.576903
	C7339	C	0.617061	0.491231	0.576181
	C7340	C	0.554532	0.553818	0.924163
	C7341	C	0.616954	0.491191	0.924212
	C7342	C	0.519098	0.589086	0.576715
	C7343	C	0.581606	0.526535	0.575709
	C7344	C	0.556774	0.516915	0.674573
	C7345	C	0.608323	0.623862	0.674962
	C7346	C	0.527291	0.456870	0.825622
	C7347	C	0.579043	0.563392	0.826876
	C7348	C	0.527296	0.456842	0.672911
	C7349	C	0.579334	0.563164	0.674978
	C7350	C	0.556752	0.516976	0.827034
	C7351	C	0.608082	0.624134	0.827405
	C7352	C	0.523176	0.585103	1.000745
	C7353	C	0.585692	0.522467	0.499773
	C7354	C	0.550410	0.557872	1.000072
	C7355	C	0.612899	0.495222	0.500102
	C7356	C	0.553355	0.510025	0.750868
	C7357	C	0.604876	0.616980	0.751270
	C7358	C	0.530716	0.463783	0.749240
	C7359	C	0.582549	0.570274	0.751271
	C7360	C	0.530109	0.578282	1.000624
	C7361	C	0.592585	0.515582	0.499816
	C7362	C	0.543522	0.564820	1.000234
	C7363	C	0.606004	0.502063	0.499856
	C7364	C	0.547644	0.498277	0.750746
	C7365	C	0.599207	0.605162	0.751390
	C7366	C	0.536475	0.475464	0.749695
	C7367	C	0.588170	0.582139	0.751271
	C7368	C	0.533576	0.574986	1.029040
	C7369	C	0.596094	0.512334	0.972173
	C7370	C	0.539861	0.567565	0.535537
	C7371	C	0.602620	0.505696	0.507462
	C7372	C	0.540128	0.568404	1.028782
	C7373	C	0.602653	0.505784	0.971864
	C7374	C	0.533297	0.574133	0.535184
	C7375	C	0.596072	0.512301	0.507477
	C7376	C	0.544763	0.492359	0.778868
	C7377	C	0.596579	0.599027	0.810037
	C7378	C	0.539370	0.481332	0.721709
	C7379	C	0.590762	0.588320	0.692747
	C7380	C	0.539331	0.481273	0.778220
	C7381	C	0.591208	0.587851	0.809905
	C7382	C	0.544806	0.492418	0.722362
	C7383	C	0.596131	0.599488	0.692804
	N7384	N	0.512968	0.595039	0.953340
	N7385	N	0.575408	0.532436	0.953353
	N7386	N	0.560570	0.547639	0.547581
	N7387	N	0.623079	0.485193	0.547115
	N7388	N	0.560495	0.547658	0.953322
	N7389	N	0.623010	0.485198	0.952886
	N7390	N	0.513093	0.595183	0.547964
	N7391	N	0.575576	0.532551	0.547242
	N7392	N	0.561766	0.527154	0.703210
	N7393	N	0.613156	0.634262	0.703628
	N7394	N	0.522247	0.446715	0.797093
	N7395	N	0.574163	0.553077	0.797869
	N7396	N	0.522256	0.446687	0.701950
	N7397	N	0.574319	0.552940	0.703488
	N7398	N	0.561741	0.527195	0.798065
	N7399	N	0.613011	0.634413	0.798682
	H7400	H	0.508892	0.757406	0.353112
	H7401	H	0.571651	0.695281	0.353307
	H7402	H	0.542272	0.724677	0.149868
	H7403	H	0.604676	0.661896	0.150742
	H7404	H	0.542144	0.724396	0.353654
	H7405	H	0.604620	0.661959	0.353887
	H7406	H	0.508832	0.757406	0.151023
	H7407	H	0.571665	0.695368	0.149753
	H7408	H	0.544966	0.684608	0.102452
	H7409	H	0.596740	0.791197	0.102857
	H7410	H	0.517643	0.627727	0.399316
	H7411	H	0.569035	0.734913	0.400951
	H7412	H	0.517488	0.628003	0.101095
	H7413	H	0.569154	0.734939	0.102688
	H7414	H	0.544538	0.684973	0.399706
	H7415	H	0.596827	0.791119	0.400822
	H7416	H	0.519236	0.745758	0.538962
	H7417	H	0.582026	0.683760	0.570810
	H7418	H	0.531771	0.736101	0.068158
	H7419	H	0.594046	0.673011	0.003364
	H7420	H	0.530800	0.734081	0.538879
	H7421	H	0.593616	0.672037	0.571447
	H7422	H	0.520183	0.747731	0.067827
	H7423	H	0.582539	0.684817	0.002353
	H7424	H	0.535903	0.666343	0.280414
	H7425	H	0.587305	0.773321	0.287254
	H7426	H	0.526565	0.646232	0.221676
	H7427	H	0.578353	0.753013	0.215731
	H7428	H	0.526531	0.646521	0.280271
	H7429	H	0.577686	0.753719	0.286739
	H7430	H	0.535937	0.666123	0.221696
	H7431	H	0.587978	0.772562	0.216072
	Co7432	Co	0.609151	0.815971	0.127500
	Co7433	Co	0.556867	0.709944	0.126584
	Co7434	Co	0.505604	0.602725	0.375356
	Co7435	Co	0.556851	0.709864	0.376192
	C7436	C	0.507789	0.758631	0.425615
	C7437	C	0.570440	0.696308	0.425808
	C7438	C	0.543310	0.723500	0.077399
	C7439	C	0.605778	0.660757	0.078024
	C7440	C	0.543312	0.723410	0.426021
	C7441	C	0.605746	0.660750	0.426096
	C7442	C	0.507772	0.758628	0.078007
	C7443	C	0.570466	0.696453	0.077519
	C7444	C	0.545786	0.686598	0.175298
	C7445	C	0.597634	0.793111	0.175649
	C7446	C	0.516765	0.625886	0.326587
	C7447	C	0.568118	0.733008	0.328103
	C7448	C	0.516668	0.626006	0.173955
	C7449	C	0.568155	0.733011	0.175586
	C7450	C	0.545569	0.686777	0.327251
	C7451	C	0.597665	0.793068	0.328028
	C7452	C	0.511931	0.754644	0.501741
	C7453	C	0.574510	0.692276	0.001512
	C7454	C	0.539262	0.727581	0.501794
	C7455	C	0.601656	0.664832	0.002213
	C7456	C	0.542359	0.679670	0.251190
	C7457	C	0.594144	0.786254	0.251779
	C7458	C	0.520076	0.632974	0.250397
	C7459	C	0.571542	0.739983	0.251912
	C7460	C	0.518857	0.747821	0.501698
	C7461	C	0.581386	0.685334	0.001632
	C7462	C	0.532338	0.734439	0.501300
	C7463	C	0.594745	0.671709	0.002385
	C7464	C	0.536696	0.667855	0.250957
	C7465	C	0.588436	0.774512	0.251854
	C7466	C	0.525707	0.644806	0.250667
	C7467	C	0.577266	0.751703	0.251732
	C7468	C	0.521981	0.743745	0.522481
	C7469	C	0.584718	0.681573	0.540979
	C7470	C	0.529064	0.738296	0.039154
	C7471	C	0.591437	0.675394	0.002884
	C7472	C	0.528548	0.737185	0.522254
	C7473	C	0.591211	0.674873	0.540940
	C7474	C	0.522489	0.744804	0.039392
	C7475	C	0.584918	0.682044	0.002258
	C7476	C	0.533873	0.661986	0.267477
	C7477	C	0.585387	0.768830	0.271593
	C7478	C	0.528547	0.650629	0.234441
	C7479	C	0.580286	0.757375	0.231801
	C7480	C	0.528522	0.650798	0.266889
	C7481	C	0.579937	0.757767	0.271598
	C7482	C	0.533877	0.661842	0.234329
	C7483	C	0.585736	0.768450	0.231754
	N7484	N	0.501757	0.764639	0.454110
	N7485	N	0.564359	0.702302	0.454343
	N7486	N	0.549364	0.717502	0.048492
	N7487	N	0.611809	0.654730	0.049120
	N7488	N	0.549358	0.717406	0.454716
	N7489	N	0.611800	0.654740	0.454659
	N7490	N	0.501757	0.764712	0.049043
	N7491	N	0.564429	0.702483	0.048712
	N7492	N	0.550654	0.696958	0.204033
	N7493	N	0.602734	0.803214	0.204482
	N7494	N	0.511850	0.615574	0.297405
	N7495	N	0.563106	0.722819	0.298910
	N7496	N	0.511788	0.615649	0.202625
	N7497	N	0.563134	0.722834	0.204178
	N7498	N	0.550541	0.697032	0.298830
	N7499	N	0.602734	0.803195	0.299031
	H7500	H	0.508964	0.757698	0.853652
	H7501	H	0.571467	0.694987	0.853172
	H7502	H	0.542361	0.724801	0.650070
	H7503	H	0.604763	0.662128	0.649782
	H7504	H	0.542148	0.724498	0.852617
	H7505	H	0.604523	0.661852	0.854154
	H7506	H	0.509098	0.757923	0.649531
	H7507	H	0.571494	0.695284	0.650889
	H7508	H	0.544909	0.684746	0.602109
	H7509	H	0.596781	0.791116	0.602586
	H7510	H	0.517799	0.627546	0.900324
	H7511	H	0.569128	0.734780	0.901221
	H7512	H	0.517498	0.628036	0.601469
	H7513	H	0.568933	0.735097	0.603117
	H7514	H	0.544771	0.684779	0.901183
	H7515	H	0.596723	0.791372	0.900767
	H7516	H	0.519245	0.746017	0.936296
	H7517	H	0.582074	0.684020	1.001772
	H7518	H	0.532013	0.736444	0.464503
	H7519	H	0.594110	0.673315	0.431428
	H7520	H	0.530928	0.734518	0.935735
	H7521	H	0.593616	0.672263	1.001445
	H7522	H	0.520398	0.748091	0.464273
	H7523	H	0.582642	0.685145	0.432627
	H7524	H	0.536203	0.665851	0.783470
	H7525	H	0.587734	0.772881	0.800182
	H7526	H	0.526188	0.646848	0.719601
	H7527	H	0.578025	0.753348	0.704451
	H7528	H	0.526748	0.646157	0.783670
	H7529	H	0.578070	0.753393	0.800422
	H7530	H	0.535577	0.666629	0.719371
	H7531	H	0.587644	0.772887	0.704452
	Co7532	Co	0.609158	0.816078	0.626800
	Co7533	Co	0.556885	0.709967	0.627438
	Co7534	Co	0.505519	0.602719	0.874971
	Co7535	Co	0.556879	0.709919	0.876280
	C7536	C	0.507833	0.758774	0.926118
	C7537	C	0.570384	0.696267	0.925516
	C7538	C	0.543404	0.723592	0.577807
	C7539	C	0.605833	0.660828	0.577768
	C7540	C	0.543244	0.723408	0.925272
	C7541	C	0.605722	0.660748	0.926182
	C7542	C	0.507889	0.758864	0.577578
	C7543	C	0.570397	0.696359	0.578066
	C7544	C	0.545748	0.686668	0.675188
	C7545	C	0.597710	0.793101	0.675335
	C7546	C	0.516785	0.625898	0.827359
	C7547	C	0.568178	0.732989	0.828344
	C7548	C	0.516626	0.626123	0.674622
	C7549	C	0.568060	0.733144	0.676162
	C7550	C	0.545676	0.686651	0.827852
	C7551	C	0.597678	0.793230	0.828061
	C7552	C	0.511885	0.754647	1.002158
	C7553	C	0.574522	0.692264	0.502024
	C7554	C	0.539167	0.727479	1.001412
	C7555	C	0.601656	0.664812	0.501909
	C7556	C	0.542321	0.679688	0.751302
	C7557	C	0.594283	0.786217	0.751904
	C7558	C	0.520050	0.633063	0.751275
	C7559	C	0.571500	0.740039	0.752414
	C7560	C	0.518801	0.747760	1.002160
	C7561	C	0.581440	0.685407	0.502086
	C7562	C	0.532253	0.734378	1.001755
	C7563	C	0.594788	0.671797	0.501699
	C7564	C	0.536682	0.667877	0.751401
	C7565	C	0.588529	0.774516	0.752239
	C7566	C	0.525729	0.644849	0.751353
	C7567	C	0.577265	0.751711	0.752635
	C7568	C	0.522005	0.743892	0.964912
	C7569	C	0.584675	0.681613	1.001505
	C7570	C	0.529189	0.738477	0.480604
	C7571	C	0.591536	0.675650	0.462577
	C7572	C	0.528574	0.737368	0.964591
	C7573	C	0.591207	0.675001	1.001750
	C7574	C	0.522635	0.745070	0.480684
	C7575	C	0.585013	0.682277	0.462749
	C7576	C	0.534035	0.661765	0.769149
	C7577	C	0.585638	0.768667	0.779356
	C7578	C	0.528368	0.650953	0.733449
	C7579	C	0.580134	0.757581	0.725767
	C7580	C	0.528723	0.650555	0.769253
	C7581	C	0.580166	0.757600	0.779595
	C7582	C	0.533702	0.662132	0.733302
	C7583	C	0.585603	0.768655	0.725424
	N7584	N	0.501792	0.764772	0.954552
	N7585	N	0.564378	0.702351	0.954360
	N7586	N	0.549417	0.717532	0.548993
	N7587	N	0.611853	0.654793	0.548862
	N7588	N	0.549323	0.717448	0.953942
	N7589	N	0.611775	0.654734	0.954629
	N7590	N	0.501814	0.764790	0.548714
	N7591	N	0.564354	0.702359	0.549098
	N7592	N	0.550677	0.696945	0.704521
	N7593	N	0.602740	0.803299	0.703963
	N7594	N	0.511806	0.615676	0.798222
	N7595	N	0.563172	0.722794	0.799341
	N7596	N	0.511723	0.615791	0.703479
	N7597	N	0.563110	0.722871	0.704703
	N7598	N	0.550634	0.696920	0.799448
	N7599	N	0.602711	0.803397	0.798942
	H7600	H	0.498651	0.926127	0.353043
	H7601	H	0.561197	0.863762	0.352463
	H7602	H	0.532153	0.893568	0.149081
	H7603	H	0.594614	0.830838	0.149741
	H7604	H	0.532217	0.893669	0.353535
	H7605	H	0.594586	0.830648	0.352846
	H7606	H	0.498543	0.925736	0.148702
	H7607	H	0.561121	0.863599	0.150162
	H7608	H	0.534298	0.853351	0.103447
	H7609	H	0.591276	0.954117	0.100880
	H7610	H	0.506555	0.797171	0.400877
	H7611	H	0.559729	0.902559	0.400469
	H7612	H	0.506506	0.797277	0.102990
	H7613	H	0.559717	0.902330	0.101063
	H7614	H	0.534060	0.853809	0.401017
	H7615	H	0.591418	0.953983	0.400792
	H7616	H	0.509325	0.914890	0.400502
	H7617	H	0.571450	0.851612	0.497358
	H7618	H	0.521858	0.905415	-0.004814
	H7619	H	0.583575	0.841218	0.081920
	H7620	H	0.521054	0.903537	0.401529
	H7621	H	0.583167	0.840197	0.497156
	H7622	H	0.510165	0.916812	-0.005475
	H7623	H	0.571894	0.852787	0.081991
	H7624	H	0.524700	0.835842	0.276289
	H7625	H	0.580684	0.937676	0.290951
	H7626	H	0.515907	0.815099	0.227183
	H7627	H	0.569926	0.919535	0.210279
	H7628	H	0.515095	0.816269	0.276691
	H7629	H	0.569776	0.919685	0.290693
	H7630	H	0.525507	0.834677	0.227183
	H7631	H	0.580900	0.937441	0.210426
	Co7632	Co	0.606167	0.975782	0.126245
	Co7633	Co	0.546577	0.878409	0.126823
	Co7634	Co	0.494298	0.772200	0.375644
	Co7635	Co	0.546562	0.878555	0.375642
	C7636	C	0.497477	0.927132	0.424781
	C7637	C	0.560079	0.864795	0.424801
	C7638	C	0.533250	0.892354	0.076817
	C7639	C	0.595732	0.829777	0.077314
	C7640	C	0.533252	0.892444	0.425698
	C7641	C	0.595729	0.829718	0.425050
	C7642	C	0.497488	0.927040	0.076354
	C7643	C	0.560041	0.864676	0.077660
	C7644	C	0.535170	0.855358	0.175875
	C7645	C	0.592338	0.955782	0.174091
	C7646	C	0.505587	0.795393	0.327884
	C7647	C	0.558691	0.900727	0.327245
	C7648	C	0.505575	0.795433	0.175630
	C7649	C	0.558679	0.900649	0.174499
	C7650	C	0.535063	0.855614	0.328241
	C7651	C	0.592389	0.955724	0.327434
	C7652	C	0.501561	0.922996	0.500348
	C7653	C	0.564175	0.860670	0.001746
	C7654	C	0.529109	0.896362	0.501710
	C7655	C	0.591661	0.833893	0.001451
	C7656	C	0.531689	0.848565	0.252347
	C7657	C	0.588338	0.949624	0.250638
	C7658	C	0.508986	0.802377	0.251772
	C7659	C	0.562464	0.907225	0.250607
	C7660	C	0.508573	0.916292	0.500771
	C7661	C	0.571164	0.853905	0.001647
	C7662	C	0.522137	0.903148	0.501844
	C7663	C	0.584683	0.840677	0.001772
	C7664	C	0.525940	0.836871	0.252371
	C7665	C	0.581728	0.939004	0.250761
	C7666	C	0.514711	0.814114	0.251927
	C7667	C	0.568949	0.918052	0.250407
	C7668	C	0.511945	0.912651	0.444743
	C7669	C	0.574269	0.849676	0.498766
	C7670	C	0.519056	0.907300	-0.002399
	C7671	C	0.581115	0.843907	0.046936
	C7672	C	0.518576	0.906260	0.445368
	C7673	C	0.580887	0.843261	0.498716
	C7674	C	0.512443	0.913744	-0.002658
	C7675	C	0.574525	0.850378	0.046850
	C7676	C	0.522828	0.831359	0.266162
	C7677	C	0.578374	0.933683	0.273352
	C7678	C	0.517819	0.819614	0.238029
	C7679	C	0.572280	0.923416	0.228026
	C7680	C	0.517374	0.820294	0.266030
	C7681	C	0.572154	0.923533	0.273194
	C7682	C	0.523263	0.830685	0.238239
	C7683	C	0.578473	0.933590	0.228085
	N7684	N	0.491438	0.933157	0.453503
	N7685	N	0.553973	0.870706	0.453692
	N7686	N	0.539259	0.886282	0.048286
	N7687	N	0.601799	0.823794	0.048597
	N7688	N	0.539269	0.886350	0.454348
	N7689	N	0.601805	0.823778	0.454126
	N7690	N	0.491409	0.932996	0.047695
	N7691	N	0.553980	0.870635	0.048854
	N7692	N	0.540184	0.865593	0.204262
	N7693	N	0.598255	0.964833	0.203173
	N7694	N	0.500539	0.785244	0.298909
	N7695	N	0.553143	0.891135	0.298664
	N7696	N	0.500523	0.785267	0.204276
	N7697	N	0.553141	0.891098	0.203546
	N7698	N	0.540129	0.865728	0.299066
	N7699	N	0.598277	0.964796	0.298390
	H7700	H	0.498773	0.926420	0.852280
	H7701	H	0.561222	0.863690	0.853237
	H7702	H	0.532052	0.893189	0.649736
	H7703	H	0.594723	0.831366	0.648913
	H7704	H	0.532125	0.893380	0.852434
	H7705	H	0.594687	0.831030	0.852927
	H7706	H	0.498628	0.925903	0.647994
	H7707	H	0.561067	0.863263	0.648835
	H7708	H	0.534267	0.853527	0.602006
	H7709	H	0.591237	0.954174	0.600178
	H7710	H	0.506528	0.797363	0.900783
	H7711	H	0.559684	0.902499	0.899525
	H7712	H	0.506405	0.797408	0.602764
	H7713	H	0.559695	0.902332	0.601935
	H7714	H	0.534177	0.853625	0.900548
	H7715	H	0.591313	0.954054	0.900261
	H7716	H	0.508953	0.914138	1.005600
	H7717	H	0.572191	0.853165	0.920900
	H7718	H	0.521424	0.904434	0.601532
	H7719	H	0.584370	0.842968	0.502032
	H7720	H	0.520640	0.902691	1.006283
	H7721	H	0.583924	0.841761	0.920724
	H7722	H	0.509691	0.915778	0.601907
	H7723	H	0.572643	0.854337	0.502038
	H7724	H	0.525153	0.835212	0.762704
	H7725	H	0.580949	0.937284	0.780749
	H7726	H	0.515350	0.815928	0.739902
	H7727	H	0.569668	0.919753	0.721006
	H7728	H	0.515463	0.815750	0.763355
	H7729	H	0.570033	0.919355	0.781017
	H7730	H	0.525029	0.835381	0.739104
	H7731	H	0.580554	0.937738	0.721223
	Co7732	Co	0.606215	0.975764	0.625896
	Co7733	Co	0.546611	0.878410	0.626407
	Co7734	Co	0.494309	0.772291	0.876317
	Co7735	Co	0.546643	0.878496	0.875731
	C7736	C	0.497598	0.927381	0.924766
	C7737	C	0.560090	0.864726	0.925850
	C7738	C	0.533177	0.892208	0.577278
	C7739	C	0.595821	0.830043	0.576507
	C7740	C	0.533235	0.892267	0.925070
	C7741	C	0.595762	0.829887	0.925565
	C7742	C	0.497476	0.927041	0.576141
	C7743	C	0.560012	0.864502	0.576279
	C7744	C	0.535209	0.855485	0.675166
	C7745	C	0.592315	0.955798	0.673606
	C7746	C	0.505538	0.795525	0.827874
	C7747	C	0.558697	0.900686	0.826963
	C7748	C	0.505483	0.795544	0.675722
	C7749	C	0.558704	0.900623	0.674472
	C7750	C	0.535166	0.855541	0.827873
	C7751	C	0.592375	0.955729	0.827019
	C7752	C	0.501697	0.923223	1.000462
	C7753	C	0.564154	0.860667	0.500388
	C7754	C	0.529128	0.896398	1.001052
	C7755	C	0.591680	0.833901	0.500618
	C7756	C	0.531757	0.848590	0.751398
	C7757	C	0.588333	0.949603	0.750549
	C7758	C	0.508895	0.802494	0.751569
	C7759	C	0.562459	0.907203	0.750598
	C7760	C	0.508660	0.916441	1.000304
	C7761	C	0.571120	0.853822	0.499990
	C7762	C	0.522177	0.903194	1.000899
	C7763	C	0.584686	0.840663	0.500164
	C7764	C	0.525941	0.836956	0.751322
	C7765	C	0.581697	0.939005	0.750810
	C7766	C	0.514651	0.814190	0.751521
	C7767	C	0.568932	0.918048	0.750944
	C7768	C	0.511776	0.912291	1.003360
	C7769	C	0.574707	0.850633	0.956182
	C7770	C	0.518759	0.906742	0.557970
	C7771	C	0.581560	0.844810	0.501507
	C7772	C	0.518379	0.905826	1.003668
	C7773	C	0.581288	0.844152	0.956362
	C7774	C	0.512129	0.913147	0.557620
	C7775	C	0.574941	0.851227	0.501053
	C7776	C	0.523052	0.831054	0.758160
	C7777	C	0.578480	0.933527	0.767774
	C7778	C	0.517514	0.820106	0.744856
	C7779	C	0.572109	0.923584	0.734249
	C7780	C	0.517572	0.819998	0.758225
	C7781	C	0.572304	0.923321	0.767928
	C7782	C	0.522999	0.831155	0.744390
	C7783	C	0.578299	0.933753	0.734150
	N7784	N	0.491494	0.933234	0.953470
	N7785	N	0.554016	0.870689	0.954607
	N7786	N	0.539226	0.886199	0.548251
	N7787	N	0.601860	0.823959	0.548498
	N7788	N	0.539268	0.886237	0.954185
	N7789	N	0.601810	0.823844	0.954438
	N7790	N	0.491412	0.933050	0.547759
	N7791	N	0.553955	0.870548	0.547893
	N7792	N	0.540255	0.865649	0.703874
	N7793	N	0.598244	0.964841	0.702375
	N7794	N	0.500507	0.785320	0.799377
	N7795	N	0.553192	0.891047	0.798297
	N7796	N	0.500459	0.785354	0.704587
	N7797	N	0.553201	0.890984	0.703485
	N7798	N	0.540220	0.865691	0.799255
	N7799	N	0.598275	0.964791	0.797907
	H7800	H	0.493079	1.080667	0.348786
	H7801	H	0.555586	1.017989	0.349254
	H7802	H	0.529423	1.053513	0.150980
	H7803	H	0.592041	0.991378	0.149319
	H7804	H	0.529690	1.053911	0.350386
	H7805	H	0.592208	0.991447	0.350634
	H7806	H	0.493174	1.080832	0.151056
	H7807	H	0.555564	1.018006	0.150860
	H7808	H	0.528939	1.016327	0.101750
	H7809	H	0.600107	1.024332	0.099195
	H7810	H	0.497040	0.965233	0.399464
	H7811	H	0.561847	1.045359	0.401904
	H7812	H	0.497315	0.964884	0.101598
	H7813	H	0.561790	1.045251	0.099327
	H7814	H	0.528857	1.016793	0.402055
	H7815	H	0.600147	1.024620	0.401959
	H7816	H	0.504546	1.070269	0.647015
	H7817	H	0.567017	1.007724	0.353412
	H7818	H	0.517300	1.061851	-0.145741
	H7819	H	0.579642	0.998924	-0.147691
	H7820	H	0.517251	1.061583	0.647111
	H7821	H	0.579809	0.999269	0.353971
	H7822	H	0.504564	1.070563	-0.146157
	H7823	H	0.566905	1.007583	-0.146913
	H7824	H	0.517294	1.001425	0.248727
	H7825	H	0.587149	1.029847	0.399329
	H7826	H	0.508463	0.980620	0.255067
	H7827	H	0.574564	1.038853	0.100609
	H7828	H	0.506251	0.983561	0.248009
	H7829	H	0.574362	1.038348	0.400022
	H7830	H	0.519521	0.998467	0.255200
	H7831	H	0.587270	1.030394	0.100222
	Co7832	Co	0.618453	1.032377	0.126196
	Co7833	Co	0.543705	1.038227	0.126529
	Co7834	Co	0.484125	0.941071	0.375164
	Co7835	Co	0.543735	1.038264	0.375181
	C7836	C	0.492164	1.082055	0.423002
	C7837	C	0.554615	1.019449	0.423379
	C7838	C	0.530702	1.052811	0.077371
	C7839	C	0.593293	0.990471	0.076267
	C7840	C	0.530890	1.053025	0.424023
	C7841	C	0.593360	0.990580	0.424015
	C7842	C	0.492132	1.082036	0.077070
	C7843	C	0.554595	1.019476	0.077075
	C7844	C	0.529950	1.018106	0.175010
	C7845	C	0.601635	1.024643	0.173304
	C7846	C	0.496085	0.963348	0.326853
	C7847	C	0.560352	1.045270	0.327601
	C7848	C	0.496228	0.963181	0.174408
	C7849	C	0.560327	1.045173	0.173338
	C7850	C	0.529890	1.018342	0.328598
	C7851	C	0.601662	1.024815	0.327596
	C7852	C	0.496175	1.077571	0.499475
	C7853	C	0.558646	1.015093	0.000377
	C7854	C	0.526355	1.056273	0.500302
	C7855	C	0.588786	0.993738	-0.000273
	C7856	C	0.525906	1.012035	0.252030
	C7857	C	0.596470	1.025399	0.250480
	C7858	C	0.499930	0.969795	0.250814
	C7859	C	0.565420	1.044051	0.250499
	C7860	C	0.503528	1.071461	0.499555
	C7861	C	0.566000	1.008945	0.000261
	C7862	C	0.518571	1.061299	0.500101
	C7863	C	0.581031	0.998806	-0.000282
	C7864	C	0.519269	1.001410	0.251946
	C7865	C	0.588395	1.029422	0.250067
	C7866	C	0.506427	0.980621	0.251463
	C7867	C	0.573374	1.039646	0.250503
	C7868	C	0.507319	1.068569	0.581693
	C7869	C	0.569799	1.006023	0.418561
	C7870	C	0.514577	1.063746	-0.081192
	C7871	C	0.577035	1.001070	-0.082315
	C7872	C	0.514583	1.063622	0.582029
	C7873	C	0.577089	1.001170	0.418959
	C7874	C	0.507283	1.068653	-0.081353
	C7875	C	0.569745	1.005969	-0.081978
	C7876	C	0.515355	0.996899	0.249967
	C7877	C	0.584443	1.031818	0.333068
	C7878	C	0.510346	0.985146	0.253573
	C7879	C	0.577255	1.036976	0.167300
	C7880	C	0.509113	0.986797	0.249718
	C7881	C	0.577170	1.036761	0.333610
	C7882	C	0.516600	0.995234	0.253948
	C7883	C	0.584559	1.032111	0.166858
	N7884	N	0.486513	1.088945	0.451895
	N7885	N	0.548965	1.026409	0.452563
	N7886	N	0.537343	1.048007	0.049200
	N7887	N	0.599931	0.985660	0.048079
	N7888	N	0.537461	1.048095	0.452743
	N7889	N	0.599991	0.985715	0.452369
	N7890	N	0.486503	1.088984	0.048387
	N7891	N	0.548922	1.026379	0.048388
	N7892	N	0.535833	1.027223	0.203642
	N7893	N	0.609409	1.024441	0.201967
	N7894	N	0.490597	0.953695	0.298010
	N7895	N	0.552652	1.046251	0.299712
	N7896	N	0.490666	0.953586	0.203021
	N7897	N	0.552634	1.046186	0.201847
	N7898	N	0.535800	1.027360	0.298756
	N7899	N	0.609416	1.024526	0.299240
	H7900	H	0.493021	1.080653	0.849723
	H7901	H	0.555612	1.018186	0.849990
	H7902	H	0.529408	1.053504	0.649962
	H7903	H	0.592219	0.991497	0.650109
	H7904	H	0.529678	1.054043	0.850749
	H7905	H	0.592215	0.991461	0.849681
	H7906	H	0.493110	1.080740	0.650917
	H7907	H	0.555562	1.018107	0.651152
	H7908	H	0.528934	1.016176	0.601596
	H7909	H	0.600104	1.024411	0.599629
	H7910	H	0.497259	0.964848	0.899776
	H7911	H	0.561858	1.045493	0.901280
	H7912	H	0.497239	0.965018	0.602254
	H7913	H	0.561810	1.045462	0.598530
	H7914	H	0.528732	1.016730	0.902158
	H7915	H	0.600128	1.024531	0.901492
	H7916	H	0.504512	1.070325	1.146304
	H7917	H	0.567264	1.008506	1.147621
	H7918	H	0.517455	1.062106	0.353337
	H7919	H	0.579954	0.999647	0.647342
	H7920	H	0.517214	1.061649	1.146298
	H7921	H	0.580023	0.999800	1.146751
	H7922	H	0.504694	1.070715	0.352945
	H7923	H	0.567125	1.008248	0.647315
	H7924	H	0.517794	1.000665	0.797567
	H7925	H	0.587281	1.030319	0.601037
	H7926	H	0.507878	0.981303	0.707143
	H7927	H	0.574398	1.038452	0.898863
	H7928	H	0.506817	0.982726	0.796938
	H7929	H	0.574520	1.038835	0.600310
	H7930	H	0.518843	0.999270	0.706531
	H7931	H	0.587094	1.029871	0.899795
	Co7932	Co	0.618379	1.032362	0.626006
	Co7933	Co	0.543679	1.038185	0.626509
	Co7934	Co	0.484083	0.940962	0.874868
	Co7935	Co	0.543704	1.038302	0.875787
	C7936	C	0.492107	1.082047	0.923450
	C7937	C	0.554705	1.019688	0.923511
	C7938	C	0.530766	1.052828	0.577152
	C7939	C	0.593411	0.990602	0.577023
	C7940	C	0.530840	1.053066	0.924196
	C7941	C	0.593342	0.990490	0.923189
	C7942	C	0.492178	1.082053	0.576547
	C7943	C	0.554631	1.019498	0.577199
	C7944	C	0.529949	1.018045	0.675028
	C7945	C	0.601615	1.024651	0.673551
	C7946	C	0.496209	0.963128	0.827224
	C7947	C	0.560368	1.045332	0.827306
	C7948	C	0.496179	0.963208	0.674821
	C7949	C	0.560337	1.045297	0.673117
	C7950	C	0.529854	1.018312	0.828424
	C7951	C	0.601623	1.024733	0.827823
	C7952	C	0.496098	1.077552	1.000050
	C7953	C	0.558606	1.014964	0.500489
	C7954	C	0.526247	1.056144	1.000504
	C7955	C	0.588858	0.993835	0.500919
	C7956	C	0.525871	1.012016	0.751911
	C7957	C	0.596447	1.025329	0.750763
	C7958	C	0.499956	0.969698	0.751157
	C7959	C	0.565455	1.044232	0.750178
	C7960	C	0.503412	1.071336	0.999999
	C7961	C	0.565985	1.008856	0.500522
	C7962	C	0.518492	1.061190	1.000187
	C7963	C	0.581071	0.998833	0.501153
	C7964	C	0.519237	1.001395	0.752190
	C7965	C	0.588356	1.029375	0.750663
	C7966	C	0.506448	0.980530	0.751660
	C7967	C	0.573395	1.039733	0.749858
	C7968	C	0.507235	1.068494	1.081335
	C7969	C	0.569914	1.006424	1.082369
	C7970	C	0.514678	1.063871	0.418300
	C7971	C	0.577177	1.001465	0.582685
	C7972	C	0.514520	1.063590	1.081546
	C7973	C	0.577209	1.001533	1.081764
	C7974	C	0.507402	1.068814	0.418022
	C7975	C	0.569873	1.006316	0.582349
	C7976	C	0.515654	0.996437	0.777548
	C7977	C	0.584515	1.032093	0.667337
	C7978	C	0.510031	0.985515	0.726651
	C7979	C	0.577176	1.036777	0.832645
	C7980	C	0.509431	0.986294	0.777085
	C7981	C	0.577253	1.037059	0.666723
	C7982	C	0.516235	0.995662	0.726801
	C7983	C	0.584422	1.031800	0.833317
	N7984	N	0.486506	1.089019	0.952428
	N7985	N	0.548994	1.026536	0.952752
	N7986	N	0.537402	1.047985	0.548810
	N7987	N	0.600003	0.985705	0.548526
	N7988	N	0.537415	1.048138	0.952991
	N7989	N	0.599956	0.985647	0.952051
	N7990	N	0.486524	1.088978	0.547855
	N7991	N	0.548972	1.026393	0.548328
	N7992	N	0.535816	1.027178	0.703727
	N7993	N	0.609394	1.024437	0.702215
	N7994	N	0.490652	0.953555	0.798121
	N7995	N	0.552644	1.046246	0.799512
	N7996	N	0.490638	0.953607	0.703229
	N7997	N	0.552613	1.046222	0.701707
	N7998	N	0.535770	1.027341	0.799120
	N7999	N	0.609383	1.024494	0.799487
	H8000	H	0.643952	0.073527	0.349326
	H8001	H	0.706447	0.010829	0.348909
	H8002	H	0.681558	0.048880	0.151154
	H8003	H	0.743985	-0.013672	0.151542
	H8004	H	0.681725	0.049053	0.349049
	H8005	H	0.744064	-0.013739	0.349159
	H8006	H	0.643730	0.072948	0.150949
	H8007	H	0.706410	0.010789	0.150561
	H8008	H	0.675787	0.021681	0.098387
	H8009	H	0.750691	0.016943	0.098910
	H8010	H	0.636860	0.040745	0.400947
	H8011	H	0.712408	0.037887	0.401151
	H8012	H	0.636785	0.040210	0.098297
	H8013	H	0.712418	0.038075	0.098887
	H8014	H	0.675817	0.021823	0.401127
	H8015	H	0.750703	0.016863	0.401746
	H8016	H	0.656102	0.064700	0.349667
	H8017	H	0.718531	0.001815	0.351163
	H8018	H	0.669200	0.057095	0.149702
	H8019	H	0.731653	-0.005428	0.149236
	H8020	H	0.669183	0.057171	0.350104
	H8021	H	0.731638	-0.005675	0.350674
	H8022	H	0.656117	0.064654	0.149015
	H8023	H	0.718586	0.002218	0.149552
	H8024	H	0.662836	0.027288	0.099510
	H8025	H	0.738066	0.023738	0.100505
	H8026	H	0.649855	0.035019	0.399740
	H8027	H	0.725302	0.032145	0.399626
	H8028	H	0.649837	0.035133	0.099596
	H8029	H	0.725323	0.032209	0.100881
	H8030	H	0.662777	0.027093	0.399436
	H8031	H	0.738024	0.023681	0.399902
	Co8032	Co	0.768827	0.024167	0.125797
	Co8033	Co	0.694130	0.030069	0.126277
	Co8034	Co	0.618522	0.032507	0.374511
	Co8035	Co	0.694103	0.030063	0.374350
	C8036	C	0.642888	0.074723	0.422990
	C8037	C	0.705406	0.012092	0.423095
	C8038	C	0.682612	0.047588	0.077076
	C8039	C	0.745055	-0.014991	0.077047
	C8040	C	0.682679	0.047723	0.423078
	C8041	C	0.745099	-0.015010	0.423440
	C8042	C	0.642760	0.074379	0.076904
	C8043	C	0.705358	0.012052	0.076624
	C8044	C	0.677282	0.022002	0.172627
	C8045	C	0.752178	0.017099	0.173113
	C8046	C	0.635353	0.040338	0.327026
	C8047	C	0.710906	0.037679	0.327117
	C8048	C	0.635305	0.040066	0.172571
	C8049	C	0.710920	0.037764	0.172863
	C8050	C	0.677252	0.022041	0.327033
	C8051	C	0.752164	0.016997	0.327470
	C8052	C	0.647117	0.070639	0.499791
	C8053	C	0.709575	0.008026	-0.000395
	C8054	C	0.678262	0.051409	0.499759
	C8055	C	0.740754	-0.011147	0.000062
	C8056	C	0.672083	0.022558	0.249663
	C8057	C	0.747064	0.018177	0.250312
	C8058	C	0.640536	0.039648	0.249719
	C8059	C	0.716089	0.037034	0.250052
	C8060	C	0.654861	0.065407	0.499330
	C8061	C	0.717348	0.002862	-0.000247
	C8062	C	0.670461	0.056469	0.499636
	C8063	C	0.732973	-0.006039	-0.000337
	C8064	C	0.663944	0.026370	0.249488
	C8065	C	0.739152	0.022684	0.250312
	C8066	C	0.648692	0.035884	0.249712
	C8067	C	0.724179	0.032994	0.250093
	C8068	C	0.658880	0.063078	0.416282
	C8069	C	0.721376	0.000338	0.417526
	C8070	C	0.666409	0.058671	0.083092
	C8071	C	0.728888	-0.003766	0.082424
	C8072	C	0.666406	0.058802	0.416767
	C8073	C	0.728889	-0.003982	0.417178
	C8074	C	0.658901	0.062995	0.082589
	C8075	C	0.721388	0.000596	0.082878
	C8076	C	0.660024	0.028875	0.166057
	C8077	C	0.735323	0.025404	0.167070
	C8078	C	0.652615	0.033395	0.332969
	C8079	C	0.728043	0.030381	0.333374
	C8080	C	0.652618	0.033449	0.166314
	C8081	C	0.728052	0.030336	0.167025
	C8082	C	0.660017	0.028830	0.332905
	C8083	C	0.735314	0.025431	0.333328
	N8084	N	0.636785	0.080814	0.451839
	N8085	N	0.699316	0.018277	0.451706
	N8086	N	0.688806	0.041659	0.048534
	N8087	N	0.751226	-0.020961	0.048836
	N8088	N	0.688819	0.041723	0.452024
	N8089	N	0.751232	-0.021039	0.452174
	N8090	N	0.636760	0.080694	0.048340
	N8091	N	0.699261	0.018206	0.048374
	N8092	N	0.685082	0.022013	0.201430
	N8093	N	0.759899	0.016189	0.201247
	N8094	N	0.627562	0.040390	0.298658
	N8095	N	0.703149	0.038015	0.298690
	N8096	N	0.627540	0.040200	0.201427
	N8097	N	0.703165	0.038055	0.201320
	N8098	N	0.685050	0.022039	0.298649
	N8099	N	0.759896	0.016142	0.299040
	H8100	H	0.643993	0.073440	0.848783
	H8101	H	0.706185	0.010447	0.848510
	H8102	H	0.681446	0.048754	0.650885
	H8103	H	0.744038	-0.013768	0.651329
	H8104	H	0.681580	0.048957	0.848744
	H8105	H	0.744109	-0.013629	0.848756
	H8106	H	0.643735	0.072954	0.650538
	H8107	H	0.706337	0.010614	0.650895
	H8108	H	0.675745	0.021670	0.599215
	H8109	H	0.750617	0.017131	0.598512
	H8110	H	0.636755	0.040813	0.901764
	H8111	H	0.712333	0.037909	0.901602
	H8112	H	0.636686	0.040463	0.598978
	H8113	H	0.712347	0.037945	0.598582
	H8114	H	0.675710	0.021887	0.901809
	H8115	H	0.750689	0.017166	0.901624
	H8116	H	0.656088	0.064690	0.850457
	H8117	H	0.718617	0.002118	0.850206
	H8118	H	0.669226	0.057167	0.649237
	H8119	H	0.731790	-0.005241	0.649502
	H8120	H	0.669169	0.057050	0.850937
	H8121	H	0.731739	-0.005302	0.850057
	H8122	H	0.656119	0.064774	0.648483
	H8123	H	0.718671	0.002351	0.649670
	H8124	H	0.662722	0.027290	0.600139
	H8125	H	0.738109	0.023996	0.600699
	H8126	H	0.649738	0.035105	0.899794
	H8127	H	0.725330	0.032205	0.900096
	H8128	H	0.649719	0.035057	0.599839
	H8129	H	0.725378	0.032504	0.601162
	H8130	H	0.662696	0.027233	0.899976
	H8131	H	0.738061	0.023821	0.899783
	Co8132	Co	0.768785	0.024211	0.625752
	Co8133	Co	0.694004	0.029906	0.626145
	Co8134	Co	0.618480	0.032494	0.874719
	Co8135	Co	0.694031	0.029936	0.874548
	C8136	C	0.642850	0.074602	0.923283
	C8137	C	0.705246	0.011917	0.922776
	C8138	C	0.682551	0.047541	0.576798
	C8139	C	0.745085	-0.015063	0.577451
	C8140	C	0.682633	0.047626	0.923169
	C8141	C	0.745108	-0.014969	0.923157
	C8142	C	0.642791	0.074461	0.576655
	C8143	C	0.705312	0.011942	0.576865
	C8144	C	0.677203	0.021948	0.673346
	C8145	C	0.752155	0.017186	0.672691
	C8146	C	0.635250	0.040451	0.827358
	C8147	C	0.710840	0.037683	0.827439
	C8148	C	0.635209	0.040275	0.673071
	C8149	C	0.710845	0.037669	0.673057
	C8150	C	0.677183	0.022091	0.827575
	C8151	C	0.752171	0.017186	0.827328
	C8152	C	0.647082	0.070504	1.000039
	C8153	C	0.709623	0.008049	0.500097
	C8154	C	0.678266	0.051386	1.000048
	C8155	C	0.740772	-0.011194	0.500501
	C8156	C	0.672024	0.022677	0.750204
	C8157	C	0.747087	0.018365	0.750002
	C8158	C	0.640422	0.039783	0.750028
	C8159	C	0.716039	0.037061	0.750260
	C8160	C	0.654831	0.065307	0.999838
	C8161	C	0.717369	0.002798	0.500394
	C8162	C	0.670442	0.056419	1.000169
	C8163	C	0.732977	-0.006093	0.500309
	C8164	C	0.663876	0.026526	0.749981
	C8165	C	0.739159	0.022911	0.750052
	C8166	C	0.648593	0.036009	0.749861
	C8167	C	0.724152	0.033157	0.750394
	C8168	C	0.658852	0.062985	0.916938
	C8169	C	0.721406	0.000483	0.916859
	C8170	C	0.666433	0.058763	0.582568
	C8171	C	0.728942	-0.003730	0.583266
	C8172	C	0.666378	0.058698	0.917336
	C8173	C	0.728932	-0.003805	0.916620
	C8174	C	0.658927	0.063117	0.582051
	C8175	C	0.721427	0.000604	0.583373
	C8176	C	0.659929	0.028966	0.666561
	C8177	C	0.735335	0.025682	0.666998
	C8178	C	0.652515	0.033495	0.833194
	C8179	C	0.728041	0.030537	0.833458
	C8180	C	0.652504	0.033477	0.666606
	C8181	C	0.728058	0.030595	0.667468
	C8182	C	0.659922	0.028940	0.833397
	C8183	C	0.735328	0.025622	0.833395
	N8184	N	0.636782	0.080785	0.951933
	N8185	N	0.699203	0.018159	0.951875
	N8186	N	0.688741	0.041613	0.548660
	N8187	N	0.751234	-0.021057	0.548704
	N8188	N	0.688818	0.041666	0.952084
	N8189	N	0.751242	-0.020966	0.952128
	N8190	N	0.636741	0.080692	0.548163
	N8191	N	0.699262	0.018172	0.548180
	N8192	N	0.684984	0.021809	0.701800
	N8193	N	0.759843	0.016224	0.701132
	N8194	N	0.627453	0.040556	0.798804
	N8195	N	0.703045	0.037894	0.798802
	N8196	N	0.627440	0.040449	0.701566
	N8197	N	0.703063	0.037883	0.701491
	N8198	N	0.684965	0.021887	0.799056
	N8199	N	0.759848	0.016213	0.798858
	H8200	H	0.657893	0.133545	0.349150
	H8201	H	0.720287	0.070781	0.349288
	H8202	H	0.694483	0.106746	0.151097
	H8203	H	0.756873	0.044127	0.151850
	H8204	H	0.694487	0.106887	0.349194
	H8205	H	0.756878	0.044215	0.348972
	H8206	H	0.657873	0.133526	0.149614
	H8207	H	0.720298	0.070887	0.150378
	H8208	H	0.688136	0.079395	0.099353
	H8209	H	0.752878	0.159723	0.100843
	H8210	H	0.649933	0.100390	0.401247
	H8211	H	0.721225	0.108278	0.400216
	H8212	H	0.649883	0.100354	0.098788
	H8213	H	0.721163	0.108246	0.099836
	H8214	H	0.688168	0.079528	0.401515
	H8215	H	0.752488	0.160224	0.399008
	H8216	H	0.670280	0.125742	0.646317
	H8217	H	0.732623	0.062880	0.646843
	H8218	H	0.683123	0.117374	0.146590
	H8219	H	0.745521	0.054591	0.146666
	H8220	H	0.683053	0.117165	0.645912
	H8221	H	0.745425	0.054308	0.646594
	H8222	H	0.670357	0.125937	0.146051
	H8223	H	0.732743	0.063156	0.147119
	H8224	H	0.675631	0.086366	0.101046
	H8225	H	0.742869	0.142391	0.266800
	H8226	H	0.662831	0.094772	0.399453
	H8227	H	0.731507	0.125200	0.232689
	H8228	H	0.662894	0.094798	0.101034
	H8229	H	0.731942	0.124366	0.266618
	H8230	H	0.675579	0.086175	0.399597
	H8231	H	0.742410	0.143164	0.233369
	Co8232	Co	0.765900	0.183918	0.125441
	Co8233	Co	0.706238	0.086593	0.125852
	Co8234	Co	0.631605	0.092638	0.374885
	Co8235	Co	0.706315	0.086608	0.374622
	C8236	C	0.656694	0.134394	0.423488
	C8237	C	0.719138	0.071783	0.422951
	C8238	C	0.695389	0.105384	0.077243
	C8239	C	0.757864	0.042788	0.077505
	C8240	C	0.695418	0.105385	0.422619
	C8241	C	0.757896	0.042856	0.422960
	C8242	C	0.656697	0.134436	0.076365
	C8243	C	0.719107	0.071827	0.076899
	C8244	C	0.689648	0.079543	0.173229
	C8245	C	0.753832	0.161645	0.173762
	C8246	C	0.648415	0.100210	0.327175
	C8247	C	0.720127	0.106606	0.326830
	C8248	C	0.648400	0.100088	0.172927
	C8249	C	0.720124	0.106573	0.173313
	C8250	C	0.689677	0.079539	0.327633
	C8251	C	0.753643	0.161889	0.326217
	C8252	C	0.661191	0.131116	0.500024
	C8253	C	0.723633	0.068556	0.000619
	C8254	C	0.691390	0.109836	0.499450
	C8255	C	0.753873	0.047265	0.000527
	C8256	C	0.684564	0.080673	0.250472
	C8257	C	0.749956	0.155239	0.250008
	C8258	C	0.653596	0.099466	0.250060
	C8259	C	0.724154	0.112783	0.250042
	C8260	C	0.668947	0.126098	0.499855
	C8261	C	0.731411	0.063502	0.000523
	C8262	C	0.684051	0.115993	0.499473
	C8263	C	0.746494	0.053351	0.000589
	C8264	C	0.676644	0.085225	0.250466
	C8265	C	0.743542	0.144325	0.249898
	C8266	C	0.661673	0.095488	0.250276
	C8267	C	0.730815	0.123336	0.250033
	C8268	C	0.672951	0.123722	0.581268
	C8269	C	0.735352	0.061033	0.581600
	C8270	C	0.680321	0.119008	0.081726
	C8271	C	0.742702	0.056260	0.081992
	C8272	C	0.680259	0.118845	0.580995
	C8273	C	0.742680	0.056199	0.581621
	C8274	C	0.673043	0.123943	0.081510
	C8275	C	0.735418	0.061193	0.082073
	C8276	C	0.672869	0.088053	0.167392
	C8277	C	0.740427	0.138666	0.259511
	C8278	C	0.665547	0.092933	0.333370
	C8279	C	0.733977	0.128893	0.240485
	C8280	C	0.665584	0.092964	0.167422
	C8281	C	0.734236	0.128470	0.259481
	C8282	C	0.672814	0.087952	0.333370
	C8283	C	0.740159	0.139102	0.240492
	N8284	N	0.650099	0.139280	0.451938
	N8285	N	0.712544	0.076685	0.451710
	N8286	N	0.701003	0.098440	0.048535
	N8287	N	0.763557	0.035962	0.048488
	N8288	N	0.701047	0.098455	0.451956
	N8289	N	0.763603	0.036002	0.452065
	N8290	N	0.650090	0.139312	0.047609
	N8291	N	0.712506	0.076718	0.048289
	N8292	N	0.697350	0.078583	0.201589
	N8293	N	0.759328	0.171279	0.202297
	N8294	N	0.640640	0.100505	0.299034
	N8295	N	0.714228	0.097553	0.297639
	N8296	N	0.640639	0.100437	0.201531
	N8297	N	0.714226	0.097524	0.202500
	N8298	N	0.697379	0.078570	0.299341
	N8299	N	0.759222	0.171427	0.297349
	H8300	H	0.658031	0.133900	0.851059
	H8301	H	0.720376	0.071116	0.850891
	H8302	H	0.694338	0.106679	0.650502
	H8303	H	0.757150	0.044521	0.650894
	H8304	H	0.694501	0.106853	0.849580
	H8305	H	0.756986	0.044474	0.849704
	H8306	H	0.657910	0.133515	0.650211
	H8307	H	0.720427	0.070853	0.649764
	H8308	H	0.688114	0.079319	0.598849
	H8309	H	0.752788	0.159869	0.601564
	H8310	H	0.649855	0.100630	0.901567
	H8311	H	0.721139	0.108354	0.899378
	H8312	H	0.649814	0.100320	0.598919
	H8313	H	0.721183	0.108231	0.600476
	H8314	H	0.688148	0.079676	0.901527
	H8315	H	0.752684	0.160054	0.899392
	H8316	H	0.670140	0.125335	0.854639
	H8317	H	0.732525	0.062728	0.853977
	H8318	H	0.682859	0.116751	0.352794
	H8319	H	0.745517	0.054537	0.353122
	H8320	H	0.682892	0.116782	0.854357
	H8321	H	0.745294	0.054031	0.853881
	H8322	H	0.670050	0.125227	0.353128
	H8323	H	0.732718	0.063023	0.352916
	H8324	H	0.675557	0.086390	0.899322
	H8325	H	0.742656	0.142872	0.745858
	H8326	H	0.662764	0.094580	0.600940
	H8327	H	0.731848	0.124601	0.754450
	H8328	H	0.662845	0.094931	0.899120
	H8329	H	0.731703	0.124914	0.745366
	H8330	H	0.675497	0.086141	0.600731
	H8331	H	0.742788	0.142557	0.754596
	Co8332	Co	0.765816	0.183935	0.625343
	Co8333	Co	0.706209	0.086578	0.625644
	Co8334	Co	0.631553	0.092525	0.874486
	Co8335	Co	0.706269	0.086633	0.874638
	C8336	C	0.656793	0.134593	0.923445
	C8337	C	0.719148	0.071907	0.924195
	C8338	C	0.695326	0.105296	0.576452
	C8339	C	0.757995	0.043068	0.576672
	C8340	C	0.695413	0.105418	0.923785
	C8341	C	0.757890	0.042859	0.923579
	C8342	C	0.656697	0.134375	0.576818
	C8343	C	0.719152	0.071848	0.576547
	C8344	C	0.689611	0.079513	0.672931
	C8345	C	0.753797	0.161675	0.674100
	C8346	C	0.648360	0.100403	0.827460
	C8347	C	0.720094	0.106606	0.826183
	C8348	C	0.648333	0.100128	0.673252
	C8349	C	0.720119	0.106514	0.673495
	C8350	C	0.689641	0.079637	0.827301
	C8351	C	0.753718	0.161770	0.826437
	C8352	C	0.661259	0.131267	1.000216
	C8353	C	0.723677	0.068576	0.499873
	C8354	C	0.691438	0.109941	1.000513
	C8355	C	0.753936	0.047425	0.499740
	C8356	C	0.684547	0.080750	0.750163
	C8357	C	0.750023	0.155135	0.750278
	C8358	C	0.653536	0.099617	0.750319
	C8359	C	0.724189	0.112690	0.749824
	C8360	C	0.669030	0.126232	1.000350
	C8361	C	0.731434	0.063514	0.499858
	C8362	C	0.684108	0.116097	1.000528
	C8363	C	0.746554	0.053492	0.499907
	C8364	C	0.676626	0.085264	0.750251
	C8365	C	0.743616	0.144207	0.750087
	C8366	C	0.661636	0.095574	0.750265
	C8367	C	0.730837	0.123279	0.750065
	C8368	C	0.672899	0.123586	0.919197
	C8369	C	0.735289	0.060871	0.918841
	C8370	C	0.680160	0.118642	0.417938
	C8371	C	0.742709	0.056248	0.418149
	C8372	C	0.680197	0.118706	0.919310
	C8373	C	0.742593	0.055985	0.918958
	C8374	C	0.672852	0.123502	0.418023
	C8375	C	0.735389	0.061076	0.418140
	C8376	C	0.672813	0.088095	0.833012
	C8377	C	0.740303	0.138890	0.747551
	C8378	C	0.665488	0.092857	0.667205
	C8379	C	0.734171	0.128550	0.752509
	C8380	C	0.665555	0.093058	0.833036
	C8381	C	0.734099	0.128724	0.747353
	C8382	C	0.672770	0.087931	0.667067
	C8383	C	0.740398	0.138683	0.752544
	N8384	N	0.650149	0.139403	0.951694
	N8385	N	0.712528	0.076741	0.952353
	N8386	N	0.700983	0.098407	0.547794
	N8387	N	0.763639	0.036137	0.548006
	N8388	N	0.701032	0.098444	0.952497
	N8389	N	0.763562	0.035945	0.952453
	N8390	N	0.650093	0.139280	0.548201
	N8391	N	0.712549	0.076759	0.547989
	N8392	N	0.697318	0.078589	0.701304
	N8393	N	0.759272	0.171326	0.702584
	N8394	N	0.640577	0.100532	0.799014
	N8395	N	0.714143	0.097594	0.797423
	N8396	N	0.640557	0.100370	0.701732
	N8397	N	0.714175	0.097519	0.702461
	N8398	N	0.697335	0.078666	0.799030
	N8399	N	0.759223	0.171420	0.797610
	H8400	H	0.655622	0.294471	0.352101
	H8401	H	0.717976	0.231721	0.350305
	H8402	H	0.688993	0.261653	0.147475
	H8403	H	0.751394	0.198983	0.148157
	H8404	H	0.688874	0.261395	0.351851
	H8405	H	0.751438	0.199080	0.351314
	H8406	H	0.655108	0.293402	0.148436
	H8407	H	0.717874	0.231280	0.147898
	H8408	H	0.690201	0.222555	0.099800
	H8409	H	0.743524	0.327675	0.100332
	H8410	H	0.658837	0.170738	0.399807
	H8411	H	0.715855	0.271302	0.398142
	H8412	H	0.658546	0.171014	0.099587
	H8413	H	0.715779	0.271380	0.099906
	H8414	H	0.690217	0.222522	0.397763
	H8415	H	0.743430	0.327747	0.398265
	H8416	H	0.666618	0.284051	0.418572
	H8417	H	0.728620	0.220661	0.553894
	H8418	H	0.678136	0.272394	-0.051107
	H8419	H	0.739599	0.207526	0.015167
	H8420	H	0.678431	0.272823	0.419068
	H8421	H	0.740312	0.209289	0.554494
	H8422	H	0.666377	0.283638	-0.050990
	H8423	H	0.727841	0.218875	0.015076
	H8424	H	0.680031	0.205511	0.194928
	H8425	H	0.735631	0.308031	0.365541
	H8426	H	0.669433	0.187189	0.303498
	H8427	H	0.723674	0.290915	0.132949
	H8428	H	0.669067	0.187547	0.195818
	H8429	H	0.726012	0.288486	0.366029
	H8430	H	0.680346	0.205182	0.303876
	H8431	H	0.733255	0.310476	0.132962
	Co8432	Co	0.755613	0.352838	0.125025
	Co8433	Co	0.703416	0.246469	0.124806
	Co8434	Co	0.643859	0.149174	0.374183
	Co8435	Co	0.703396	0.246533	0.373482
	C8436	C	0.654432	0.295388	0.424088
	C8437	C	0.716814	0.232724	0.422769
	C8438	C	0.690093	0.260488	0.075246
	C8439	C	0.752511	0.197845	0.076012
	C8440	C	0.689984	0.260340	0.424154
	C8441	C	0.752505	0.197900	0.423678
	C8442	C	0.654126	0.294804	0.076010
	C8443	C	0.716735	0.232472	0.075599
	C8444	C	0.691277	0.224358	0.172671
	C8445	C	0.744394	0.329601	0.172989
	C8446	C	0.657759	0.169155	0.326603
	C8447	C	0.714901	0.269422	0.325499
	C8448	C	0.657618	0.169279	0.173042
	C8449	C	0.714855	0.269460	0.172646
	C8450	C	0.691289	0.224334	0.325216
	C8451	C	0.744373	0.329631	0.325528
	C8452	C	0.658427	0.291124	0.499963
	C8453	C	0.720887	0.228501	-0.000235
	C8454	C	0.685897	0.264401	0.500306
	C8455	C	0.748358	0.201819	0.000116
	C8456	C	0.687549	0.217775	0.248886
	C8457	C	0.740959	0.322643	0.249389
	C8458	C	0.661707	0.175359	0.249613
	C8459	C	0.718284	0.276388	0.248988
	C8460	C	0.665375	0.284308	0.500331
	C8461	C	0.727856	0.221751	-0.000160
	C8462	C	0.678947	0.271209	0.500570
	C8463	C	0.741388	0.208528	-0.000300
	C8464	C	0.681114	0.206857	0.249059
	C8465	C	0.735244	0.310923	0.249339
	C8466	C	0.668339	0.185976	0.249675
	C8467	C	0.724034	0.288068	0.249111
	C8468	C	0.669040	0.281325	0.454399
	C8469	C	0.731214	0.218294	0.529788
	C8470	C	0.675555	0.274715	-0.028960
	C8471	C	0.737421	0.210841	0.008549
	C8472	C	0.675685	0.274961	0.454763
	C8473	C	0.737853	0.211888	0.530127
	C8474	C	0.668917	0.281083	-0.028648
	C8475	C	0.730808	0.217294	0.008517
	C8476	C	0.677746	0.201557	0.218618
	C8477	C	0.733024	0.304360	0.314317
	C8478	C	0.671741	0.191265	0.280120
	C8479	C	0.726271	0.294643	0.183835
	C8480	C	0.671540	0.191408	0.218969
	C8481	C	0.727571	0.293263	0.314593
	C8482	C	0.677957	0.201405	0.279711
	C8483	C	0.731723	0.305731	0.183992
	N8484	N	0.648329	0.301305	0.452376
	N8485	N	0.710779	0.238726	0.451655
	N8486	N	0.696123	0.254451	0.046547
	N8487	N	0.758583	0.191886	0.047156
	N8488	N	0.696034	0.254331	0.452594
	N8489	N	0.758542	0.191917	0.452715
	N8490	N	0.648109	0.300854	0.046742
	N8491	N	0.710719	0.238530	0.046585
	N8492	N	0.696793	0.233970	0.201488
	N8493	N	0.749376	0.339822	0.201919
	N8494	N	0.651821	0.160111	0.297673
	N8495	N	0.709870	0.259253	0.296676
	N8496	N	0.651724	0.160196	0.202485
	N8497	N	0.709844	0.259271	0.201634
	N8498	N	0.696792	0.233983	0.296397
	N8499	N	0.749359	0.339844	0.296661
	H8500	H	0.655716	0.294511	0.852018
	H8501	H	0.718083	0.231825	0.851262
	H8502	H	0.688919	0.261335	0.648533
	H8503	H	0.751152	0.198646	0.648163
	H8504	H	0.688839	0.261410	0.850855
	H8505	H	0.751384	0.198861	0.852229
	H8506	H	0.655137	0.293550	0.647982
	H8507	H	0.717853	0.231278	0.646993
	H8508	H	0.690218	0.222562	0.601163
	H8509	H	0.743138	0.328046	0.600395
	H8510	H	0.658584	0.171236	0.900043
	H8511	H	0.715974	0.271195	0.898433
	H8512	H	0.658840	0.170730	0.599950
	H8513	H	0.715658	0.271461	0.599591
	H8514	H	0.690406	0.222430	0.898276
	H8515	H	0.743797	0.327339	0.898313
	H8516	H	0.666151	0.283142	1.051020
	H8517	H	0.729641	0.222717	0.984239
	H8518	H	0.677721	0.271462	0.582344
	H8519	H	0.740635	0.209846	0.444672
	H8520	H	0.677952	0.271855	1.049788
	H8521	H	0.741347	0.211296	0.983832
	H8522	H	0.665959	0.282782	0.582082
	H8523	H	0.728905	0.221139	0.444195
	H8524	H	0.680525	0.205030	0.779743
	H8525	H	0.734737	0.308938	0.842289
	H8526	H	0.668966	0.187922	0.719600
	H8527	H	0.724584	0.290072	0.655597
	H8528	H	0.669528	0.187105	0.779768
	H8529	H	0.725122	0.289327	0.842251
	H8530	H	0.679926	0.205874	0.719622
	H8531	H	0.734240	0.309562	0.656496
	Co8532	Co	0.755537	0.352676	0.624870
	Co8533	Co	0.703459	0.246506	0.624828
	Co8534	Co	0.643839	0.149266	0.874385
	Co8535	Co	0.703446	0.246460	0.873977
	C8536	C	0.654433	0.295370	0.924167
	C8537	C	0.716858	0.232751	0.923686
	C8538	C	0.690008	0.260284	0.575939
	C8539	C	0.752363	0.197704	0.575622
	C8540	C	0.690024	0.260360	0.923288
	C8541	C	0.752496	0.197792	0.924348
	C8542	C	0.654194	0.294927	0.575671
	C8543	C	0.716747	0.232514	0.574760
	C8544	C	0.691341	0.224309	0.673497
	C8545	C	0.744162	0.329713	0.673128
	C8546	C	0.657594	0.169436	0.826662
	C8547	C	0.714940	0.269363	0.825348
	C8548	C	0.657734	0.169167	0.673343
	C8549	C	0.714769	0.269504	0.672423
	C8550	C	0.691423	0.224233	0.825873
	C8551	C	0.744512	0.329390	0.825474
	C8552	C	0.658404	0.291091	1.000307
	C8553	C	0.720870	0.228540	0.498716
	C8554	C	0.685964	0.264513	0.999275
	C8555	C	0.748326	0.201867	0.499506
	C8556	C	0.687607	0.217755	0.749680
	C8557	C	0.740965	0.322576	0.749396
	C8558	C	0.661692	0.175495	0.750020
	C8559	C	0.718249	0.276343	0.748735
	C8560	C	0.665365	0.284291	1.000121
	C8561	C	0.727822	0.221799	0.498947
	C8562	C	0.678984	0.271253	0.999374
	C8563	C	0.741386	0.208646	0.499712
	C8564	C	0.681136	0.206959	0.749756
	C8565	C	0.735261	0.310818	0.749416
	C8566	C	0.668351	0.186045	0.749976
	C8567	C	0.724045	0.288013	0.748803
	C8568	C	0.668782	0.280784	1.028472
	C8569	C	0.731806	0.219402	0.990943
	C8570	C	0.675302	0.274225	0.546524
	C8571	C	0.737998	0.212131	0.468739
	C8572	C	0.675428	0.274437	1.028045
	C8573	C	0.738415	0.212945	0.990922
	C8574	C	0.668653	0.280576	0.546627
	C8575	C	0.731389	0.218581	0.468527
	C8576	C	0.678023	0.201350	0.766694
	C8577	C	0.732525	0.304764	0.801344
	C8578	C	0.671490	0.191644	0.732759
	C8579	C	0.726790	0.294096	0.696797
	C8580	C	0.671805	0.191185	0.766744
	C8581	C	0.727074	0.293700	0.801346
	C8582	C	0.677706	0.201801	0.732735
	C8583	C	0.732246	0.305146	0.697098
	N8584	N	0.648294	0.301189	0.952545
	N8585	N	0.710802	0.238703	0.952407
	N8586	N	0.696058	0.254316	0.546711
	N8587	N	0.758448	0.191798	0.546915
	N8588	N	0.696065	0.254341	0.952171
	N8589	N	0.758570	0.191846	0.953114
	N8590	N	0.648188	0.301015	0.546776
	N8591	N	0.710746	0.238597	0.546127
	N8592	N	0.696903	0.233866	0.702097
	N8593	N	0.749197	0.339892	0.702076
	N8594	N	0.651751	0.160284	0.797767
	N8595	N	0.709884	0.259198	0.796963
	N8596	N	0.651836	0.160115	0.702412
	N8597	N	0.709766	0.259287	0.701565
	N8598	N	0.696927	0.233838	0.797045
	N8599	N	0.749404	0.339701	0.796686
	H8600	H	0.645086	0.462569	0.351169
	H8601	H	0.707826	0.400839	0.350451
	H8602	H	0.678565	0.430343	0.147320
	H8603	H	0.740993	0.367693	0.147218
	H8604	H	0.678419	0.430023	0.350971
	H8605	H	0.740906	0.367397	0.350878
	H8606	H	0.644985	0.462487	0.148144
	H8607	H	0.707880	0.400795	0.147261
	H8608	H	0.681112	0.390100	0.100007
	H8609	H	0.732436	0.497478	0.100051
	H8610	H	0.653137	0.334105	0.397389
	H8611	H	0.705076	0.440595	0.397723
	H8612	H	0.653357	0.333672	0.099746
	H8613	H	0.705108	0.440368	0.099649
	H8614	H	0.680919	0.390182	0.398062
	H8615	H	0.732424	0.497172	0.396465
	H8616	H	0.655736	0.451628	0.541978
	H8617	H	0.718822	0.390426	0.450455
	H8618	H	0.668270	0.441962	-0.001447
	H8619	H	0.730061	0.377901	-0.031964
	H8620	H	0.667394	0.440150	0.542110
	H8621	H	0.730454	0.378803	0.450434
	H8622	H	0.656600	0.453493	-0.001178
	H8623	H	0.718373	0.389393	-0.031625
	H8624	H	0.672652	0.371011	0.251272
	H8625	H	0.722622	0.479647	0.270245
	H8626	H	0.661640	0.352913	0.245446
	H8627	H	0.714897	0.458150	0.225825
	H8628	H	0.662967	0.351504	0.251539
	H8629	H	0.713190	0.459870	0.270634
	H8630	H	0.671251	0.372459	0.245489
	H8631	H	0.724368	0.477900	0.225136
	Co8632	Co	0.744453	0.522545	0.123816
	Co8633	Co	0.693101	0.415279	0.124763
	Co8634	Co	0.640912	0.309017	0.373721
	Co8635	Co	0.693070	0.415322	0.373789
	C8636	C	0.643992	0.463897	0.423218
	C8637	C	0.706657	0.401861	0.422521
	C8638	C	0.679618	0.429057	0.074999
	C8639	C	0.742087	0.366510	0.074902
	C8640	C	0.679582	0.428950	0.423062
	C8641	C	0.742047	0.366305	0.423068
	C8642	C	0.643954	0.463828	0.075744
	C8643	C	0.706676	0.401771	0.074655
	C8644	C	0.681949	0.392054	0.172653
	C8645	C	0.733343	0.499247	0.172159
	C8646	C	0.652238	0.332097	0.324810
	C8647	C	0.704188	0.438688	0.324768
	C8648	C	0.652364	0.331869	0.172287
	C8649	C	0.704210	0.438592	0.172267
	C8650	C	0.681859	0.392105	0.325391
	C8651	C	0.733333	0.499129	0.324040
	C8652	C	0.648152	0.459938	0.499280
	C8653	C	0.710672	0.397570	-0.001425
	C8654	C	0.675538	0.433128	0.499119
	C8655	C	0.738024	0.370498	-0.001264
	C8656	C	0.678515	0.385089	0.248914
	C8657	C	0.729991	0.492213	0.247871
	C8658	C	0.655722	0.338905	0.248336
	C8659	C	0.707537	0.445637	0.248245
	C8660	C	0.655073	0.453135	0.499313
	C8661	C	0.717632	0.390746	-0.001504
	C8662	C	0.668572	0.439859	0.499560
	C8663	C	0.731119	0.377434	-0.001603
	C8664	C	0.672787	0.373348	0.248385
	C8665	C	0.724289	0.480416	0.247926
	C8666	C	0.661526	0.350567	0.248102
	C8667	C	0.713232	0.457431	0.248118
	C8668	C	0.658362	0.449391	0.523398
	C8669	C	0.721203	0.387589	0.471336
	C8670	C	0.665448	0.443966	-0.001297
	C8671	C	0.727580	0.380612	-0.018532
	C8672	C	0.664969	0.442918	0.523502
	C8673	C	0.727766	0.381044	0.471535
	C8674	C	0.658852	0.450417	-0.001117
	C8675	C	0.721009	0.387098	-0.018652
	C8676	C	0.670252	0.367100	0.249874
	C8677	C	0.720968	0.474976	0.260525
	C8678	C	0.664067	0.356824	0.246374
	C8679	C	0.716559	0.462840	0.235672
	C8680	C	0.664779	0.356037	0.249672
	C8681	C	0.715617	0.463813	0.260842
	C8682	C	0.669522	0.367899	0.246499
	C8683	C	0.721910	0.474009	0.235595
	N8684	N	0.637990	0.469985	0.452067
	N8685	N	0.700646	0.407929	0.451513
	N8686	N	0.685637	0.422946	0.046435
	N8687	N	0.748110	0.360393	0.046607
	N8688	N	0.685612	0.422946	0.451956
	N8689	N	0.748090	0.360321	0.451986
	N8690	N	0.637961	0.469968	0.047025
	N8691	N	0.700598	0.407736	0.046234
	N8692	N	0.686865	0.402352	0.201690
	N8693	N	0.738259	0.509551	0.201240
	N8694	N	0.647235	0.321864	0.296419
	N8695	N	0.699270	0.428377	0.296442
	N8696	N	0.647319	0.321707	0.201563
	N8697	N	0.699287	0.428318	0.201663
	N8698	N	0.686822	0.402364	0.296764
	N8699	N	0.738263	0.509468	0.295809
	H8700	H	0.645400	0.463299	0.851167
	H8701	H	0.707705	0.400477	0.850010
	H8702	H	0.678469	0.430073	0.647597
	H8703	H	0.741030	0.367824	0.647203
	H8704	H	0.678384	0.429729	0.851206
	H8705	H	0.740933	0.367347	0.850863
	H8706	H	0.645374	0.463092	0.647126
	H8707	H	0.707661	0.400309	0.646823
	H8708	H	0.681093	0.390200	0.599886
	H8709	H	0.732598	0.497085	0.600333
	H8710	H	0.653277	0.333881	0.898277
	H8711	H	0.705004	0.440483	0.898409
	H8712	H	0.653202	0.333967	0.600366
	H8713	H	0.705142	0.440512	0.600339
	H8714	H	0.681028	0.390270	0.898380
	H8715	H	0.732302	0.497369	0.898330
	H8716	H	0.655356	0.450860	0.999467
	H8717	H	0.718733	0.390311	1.028563
	H8718	H	0.667995	0.441446	0.457206
	H8719	H	0.729785	0.377618	0.546005
	H8720	H	0.667078	0.439402	1.000470
	H8721	H	0.730366	0.378727	1.028684
	H8722	H	0.656244	0.452726	0.456361
	H8723	H	0.718171	0.389223	0.545946
	H8724	H	0.672174	0.371579	0.789280
	H8725	H	0.723120	0.478977	0.688145
	H8726	H	0.662120	0.352414	0.708483
	H8727	H	0.714350	0.458833	0.810829
	H8728	H	0.662551	0.352042	0.789691
	H8729	H	0.713611	0.459305	0.687947
	H8730	H	0.671748	0.371971	0.709181
	H8731	H	0.723909	0.478438	0.810585
	Co8732	Co	0.744392	0.522336	0.624533
	Co8733	Co	0.693099	0.415262	0.624431
	Co8734	Co	0.640928	0.308974	0.874052
	Co8735	Co	0.693046	0.415258	0.873320
	C8736	C	0.644152	0.464259	0.923612
	C8737	C	0.706595	0.401591	0.922560
	C8738	C	0.679610	0.428972	0.575071
	C8739	C	0.742120	0.366546	0.574987
	C8740	C	0.679527	0.428748	0.923208
	C8741	C	0.742077	0.366317	0.923146
	C8742	C	0.644117	0.464152	0.575250
	C8743	C	0.706585	0.401612	0.574593
	C8744	C	0.681911	0.392045	0.672771
	C8745	C	0.733389	0.499000	0.673235
	C8746	C	0.652339	0.331957	0.825804
	C8747	C	0.704176	0.438572	0.825752
	C8748	C	0.652300	0.331998	0.673470
	C8749	C	0.704231	0.438579	0.673236
	C8750	C	0.681867	0.392082	0.825586
	C8751	C	0.733222	0.499179	0.825591
	C8752	C	0.648106	0.459930	0.999635
	C8753	C	0.710687	0.397614	0.498389
	C8754	C	0.675511	0.432981	0.999001
	C8755	C	0.737979	0.370474	0.498781
	C8756	C	0.678465	0.385087	0.749229
	C8757	C	0.729960	0.492118	0.749430
	C8758	C	0.655742	0.338873	0.749624
	C8759	C	0.707535	0.445559	0.749664
	C8760	C	0.655056	0.453094	0.999368
	C8761	C	0.717583	0.390696	0.498106
	C8762	C	0.668578	0.439854	0.999135
	C8763	C	0.731027	0.377309	0.498471
	C8764	C	0.672730	0.373365	0.749229
	C8765	C	0.724320	0.480273	0.749552
	C8766	C	0.661512	0.350547	0.749472
	C8767	C	0.713220	0.457372	0.749616
	C8768	C	0.658185	0.448992	0.999774
	C8769	C	0.721183	0.387587	1.015346
	C8770	C	0.665282	0.443611	0.475558
	C8771	C	0.727405	0.380437	0.525147
	C8772	C	0.664770	0.442500	0.999798
	C8773	C	0.727758	0.381099	1.015327
	C8774	C	0.658670	0.450085	0.475385
	C8775	C	0.720842	0.386969	0.525052
	C8776	C	0.669983	0.367394	0.771862
	C8777	C	0.721245	0.474520	0.714950
	C8778	C	0.664301	0.356527	0.726697
	C8779	C	0.716284	0.463154	0.783984
	C8780	C	0.664527	0.356320	0.772044
	C8781	C	0.715854	0.463405	0.714947
	C8782	C	0.669734	0.367619	0.726871
	C8783	C	0.721656	0.474275	0.784025
	N8784	N	0.638082	0.470231	0.952487
	N8785	N	0.700563	0.407646	0.951334
	N8786	N	0.685620	0.422939	0.546165
	N8787	N	0.748110	0.360412	0.546553
	N8788	N	0.685581	0.422779	0.952245
	N8789	N	0.748088	0.360286	0.952124
	N8790	N	0.638069	0.470134	0.546555
	N8791	N	0.700576	0.407762	0.546022
	N8792	N	0.686865	0.402295	0.701945
	N8793	N	0.738261	0.509338	0.701957
	N8794	N	0.647319	0.321750	0.797054
	N8795	N	0.699280	0.428258	0.796597
	N8796	N	0.647298	0.321782	0.702192
	N8797	N	0.699310	0.428262	0.701763
	N8798	N	0.686831	0.402292	0.796396
	N8799	N	0.738171	0.509441	0.796485
	H8800	H	0.634050	0.632604	0.352186
	H8801	H	0.696299	0.569764	0.351287
	H8802	H	0.667166	0.599626	0.148218
	H8803	H	0.729663	0.537084	0.147106
	H8804	H	0.667270	0.599616	0.351399
	H8805	H	0.729825	0.537302	0.351489
	H8806	H	0.634107	0.632708	0.149029
	H8807	H	0.696332	0.569824	0.147632
	H8808	H	0.669867	0.559589	0.100049
	H8809	H	0.721744	0.666190	0.101021
	H8810	H	0.642509	0.502878	0.398669
	H8811	H	0.694128	0.609693	0.398985
	H8812	H	0.642524	0.502882	0.100684
	H8813	H	0.693951	0.609932	0.101518
	H8814	H	0.669866	0.559610	0.398574
	H8815	H	0.721743	0.666225	0.399632
	H8816	H	0.644665	0.621627	0.430184
	H8817	H	0.707336	0.559393	0.521885
	H8818	H	0.656375	0.610382	-0.012910
	H8819	H	0.718971	0.548055	-0.060593
	H8820	H	0.656358	0.610063	0.429426
	H8821	H	0.718954	0.547831	0.521950
	H8822	H	0.644704	0.621918	-0.012265
	H8823	H	0.707271	0.559480	-0.060327
	H8824	H	0.661186	0.540979	0.350509
	H8825	H	0.713234	0.647219	0.277610
	H8826	H	0.651191	0.521510	0.148158
	H8827	H	0.702567	0.628840	0.222966
	H8828	H	0.651729	0.521273	0.351361
	H8829	H	0.703649	0.627563	0.278004
	H8830	H	0.660766	0.541118	0.147955
	H8831	H	0.712179	0.648447	0.223456
	Co8832	Co	0.734107	0.691042	0.125446
	Co8833	Co	0.681855	0.584892	0.125266
	Co8834	Co	0.630530	0.477629	0.374212
	Co8835	Co	0.681865	0.584772	0.374246
	C8836	C	0.632928	0.633727	0.424891
	C8837	C	0.695316	0.571078	0.423518
	C8838	C	0.668352	0.598479	0.075895
	C8839	C	0.730864	0.535992	0.074995
	C8840	C	0.668396	0.598459	0.423705
	C8841	C	0.730954	0.536044	0.423320
	C8842	C	0.632934	0.633769	0.076492
	C8843	C	0.695242	0.571058	0.075292
	C8844	C	0.670755	0.561532	0.172855
	C8845	C	0.722662	0.668038	0.174022
	C8846	C	0.641638	0.500963	0.326170
	C8847	C	0.693159	0.607877	0.326362
	C8848	C	0.641638	0.500951	0.173664
	C8849	C	0.693092	0.607994	0.174074
	C8850	C	0.670766	0.561530	0.325629
	C8851	C	0.722645	0.668057	0.326519
	C8852	C	0.637000	0.629671	0.501224
	C8853	C	0.699426	0.567102	-0.000614
	C8854	C	0.664295	0.602481	0.499837
	C8855	C	0.726806	0.540228	-0.000653
	C8856	C	0.667409	0.554505	0.249260
	C8857	C	0.719207	0.661110	0.250261
	C8858	C	0.645010	0.507946	0.249784
	C8859	C	0.696532	0.614906	0.250239
	C8860	C	0.643923	0.622774	0.500914
	C8861	C	0.706366	0.560305	-0.000599
	C8862	C	0.657340	0.609318	0.500547
	C8863	C	0.719877	0.547067	-0.000571
	C8864	C	0.661758	0.542700	0.249044
	C8865	C	0.713468	0.649400	0.250365
	C8866	C	0.650656	0.519767	0.249921
	C8867	C	0.702295	0.626622	0.250432
	C8868	C	0.647273	0.619194	0.460984
	C8869	C	0.709891	0.556891	0.511769
	C8870	C	0.653886	0.612855	-0.007260
	C8871	C	0.716428	0.550467	-0.034292
	C8872	C	0.653840	0.612677	0.460770
	C8873	C	0.716459	0.550343	0.511526
	C8874	C	0.647321	0.619394	-0.006558
	C8875	C	0.709817	0.556944	-0.034298
	C8876	C	0.659056	0.536714	0.306253
	C8877	C	0.710900	0.643211	0.265816
	C8878	C	0.653399	0.525742	0.192628
	C8879	C	0.704879	0.632821	0.235282
	C8880	C	0.653627	0.525605	0.306638
	C8881	C	0.705461	0.632123	0.265650
	C8882	C	0.658789	0.536899	0.192304
	C8883	C	0.710313	0.643917	0.235181
	N8884	N	0.626852	0.639710	0.453946
	N8885	N	0.689300	0.577152	0.452663
	N8886	N	0.674360	0.592419	0.047265
	N8887	N	0.736884	0.529948	0.045857
	N8888	N	0.674441	0.592432	0.452601
	N8889	N	0.736962	0.529973	0.451880
	N8890	N	0.626879	0.639794	0.048042
	N8891	N	0.689237	0.577134	0.046641
	N8892	N	0.675645	0.571850	0.201836
	N8893	N	0.727696	0.678210	0.202661
	N8894	N	0.636758	0.490626	0.297366
	N8895	N	0.688161	0.597663	0.297275
	N8896	N	0.636724	0.490648	0.202577
	N8897	N	0.688133	0.597737	0.202632
	N8898	N	0.675657	0.571843	0.296743
	N8899	N	0.727686	0.678205	0.297277
	H8900	H	0.633944	0.632625	0.852261
	H8901	H	0.696507	0.570194	0.851432
	H8902	H	0.667219	0.599482	0.647961
	H8903	H	0.729686	0.536851	0.646619
	H8904	H	0.667143	0.599566	0.851223
	H8905	H	0.729784	0.537376	0.851254
	H8906	H	0.633971	0.632536	0.650003
	H8907	H	0.696813	0.570700	0.646866
	H8908	H	0.669988	0.559473	0.600947
	H8909	H	0.721776	0.666249	0.600525
	H8910	H	0.642416	0.503143	0.899323
	H8911	H	0.693986	0.609896	0.898752
	H8912	H	0.642706	0.502782	0.600999
	H8913	H	0.693972	0.610009	0.601310
	H8914	H	0.669726	0.559844	0.898715
	H8915	H	0.721577	0.666361	0.898528
	H8916	H	0.644897	0.621931	1.013418
	H8917	H	0.707226	0.559275	1.059641
	H8918	H	0.656580	0.610440	0.571206
	H8919	H	0.718977	0.547931	0.476261
	H8920	H	0.656501	0.610312	1.012360
	H8921	H	0.718926	0.547806	1.059221
	H8922	H	0.644949	0.622039	0.571849
	H8923	H	0.707407	0.559572	0.476985
	H8924	H	0.661161	0.540953	0.694468
	H8925	H	0.712880	0.647688	0.763014
	H8926	H	0.651179	0.521744	0.806450
	H8927	H	0.702842	0.628667	0.736729
	H8928	H	0.651624	0.521279	0.694233
	H8929	H	0.703315	0.628016	0.763490
	H8930	H	0.660695	0.541412	0.805971
	H8931	H	0.712483	0.648213	0.735749
	Co8932	Co	0.734150	0.691011	0.625312
	Co8933	Co	0.681904	0.584850	0.625416
	Co8934	Co	0.630521	0.477691	0.874302
	Co8935	Co	0.681848	0.584825	0.874341
	C8936	C	0.632843	0.633697	0.924590
	C8937	C	0.695323	0.571257	0.923432
	C8938	C	0.668353	0.598391	0.575805
	C8939	C	0.730871	0.535837	0.574716
	C8940	C	0.668326	0.598417	0.923395
	C8941	C	0.730926	0.536168	0.923311
	C8942	C	0.632900	0.633690	0.577467
	C8943	C	0.695559	0.571551	0.575068
	C8944	C	0.670850	0.561476	0.673724
	C8945	C	0.722674	0.668101	0.673276
	C8946	C	0.641558	0.501115	0.826199
	C8947	C	0.693067	0.608037	0.826082
	C8948	C	0.641722	0.500947	0.673789
	C8949	C	0.693077	0.608083	0.673999
	C8950	C	0.670700	0.561665	0.826058
	C8951	C	0.722580	0.668184	0.825588
	C8952	C	0.636973	0.629644	1.000408
	C8953	C	0.699551	0.567281	0.499052
	C8954	C	0.664282	0.602579	0.999483
	C8955	C	0.726837	0.540088	0.499038
	C8956	C	0.667410	0.554559	0.750035
	C8957	C	0.719209	0.661244	0.749427
	C8958	C	0.645002	0.508025	0.750268
	C8959	C	0.696493	0.615023	0.750109
	C8960	C	0.643900	0.622802	1.000627
	C8961	C	0.706442	0.560377	0.499001
	C8962	C	0.657369	0.609464	0.999769
	C8963	C	0.719913	0.546958	0.498963
	C8964	C	0.661724	0.542798	0.750121
	C8965	C	0.713427	0.649550	0.749445
	C8966	C	0.650651	0.519817	0.750277
	C8967	C	0.702262	0.626734	0.749964
	C8968	C	0.647394	0.619385	1.007625
	C8969	C	0.709788	0.556823	1.033128
	C8970	C	0.653988	0.612903	0.540471
	C8971	C	0.716476	0.550421	0.486330
	C8972	C	0.653958	0.612872	1.007051
	C8973	C	0.716407	0.550385	1.032941
	C8974	C	0.647428	0.619419	0.540699
	C8975	C	0.709902	0.556972	0.486330
	C8976	C	0.658978	0.536776	0.718828
	C8977	C	0.710678	0.643517	0.757085
	C8978	C	0.653365	0.525905	0.781517
	C8979	C	0.705031	0.632728	0.742558
	C8980	C	0.653587	0.525609	0.718855
	C8981	C	0.705247	0.632427	0.757347
	C8982	C	0.658751	0.537065	0.781490
	C8983	C	0.710448	0.643832	0.741981
	N8984	N	0.626820	0.639731	0.953663
	N8985	N	0.689276	0.577217	0.952530
	N8986	N	0.674394	0.592343	0.547139
	N8987	N	0.736901	0.529836	0.545976
	N8988	N	0.674357	0.592401	0.952523
	N8989	N	0.736906	0.530025	0.951697
	N8990	N	0.626845	0.639706	0.548510
	N8991	N	0.689458	0.577454	0.546862
	N8992	N	0.675741	0.571769	0.702520
	N8993	N	0.727716	0.678292	0.702168
	N8994	N	0.636642	0.490807	0.797340
	N8995	N	0.688065	0.597805	0.797132
	N8996	N	0.636752	0.490702	0.702496
	N8997	N	0.688097	0.597831	0.702437
	N8998	N	0.675648	0.571877	0.797249
	N8999	N	0.727660	0.678323	0.796978
	H9000	H	0.623698	0.800958	0.353443
	H9001	H	0.686206	0.738516	0.352467
	H9002	H	0.656919	0.768024	0.150433
	H9003	H	0.719662	0.706068	0.147803
	H9004	H	0.657093	0.768566	0.353535
	H9005	H	0.719376	0.705639	0.352069
	H9006	H	0.623678	0.801039	0.149834
	H9007	H	0.686283	0.738552	0.148343
	H9008	H	0.659231	0.728709	0.102105
	H9009	H	0.716447	0.828988	0.101163
	H9010	H	0.631593	0.672239	0.401350
	H9011	H	0.684754	0.777526	0.400286
	H9012	H	0.631363	0.672450	0.102615
	H9013	H	0.684907	0.777306	0.101616
	H9014	H	0.659261	0.728635	0.401163
	H9015	H	0.716032	0.829653	0.400384
	H9016	H	0.634468	0.790384	0.408159
	H9017	H	0.697349	0.728656	0.461651
	H9018	H	0.646012	0.778611	0.028704
	H9019	H	0.708649	0.716358	0.036401
	H9020	H	0.646142	0.778915	0.408221
	H9021	H	0.709089	0.717303	0.462617
	H9022	H	0.634303	0.790004	0.027763
	H9023	H	0.696959	0.727804	0.036337
	H9024	H	0.649953	0.710590	0.349272
	H9025	H	0.705810	0.812766	0.290626
	H9026	H	0.640664	0.690659	0.154505
	H9027	H	0.694904	0.794559	0.211813
	H9028	H	0.640352	0.690939	0.350753
	H9029	H	0.694918	0.794712	0.290681
	H9030	H	0.650300	0.710192	0.154073
	H9031	H	0.705791	0.812573	0.211748
	Co9032	Co	0.731246	0.850707	0.126292
	Co9033	Co	0.671667	0.753473	0.126732
	Co9034	Co	0.619356	0.647300	0.376290
	Co9035	Co	0.671644	0.753515	0.375395
	C9036	C	0.622557	0.802106	0.425696
	C9037	C	0.685044	0.739605	0.424535
	C9038	C	0.658149	0.767128	0.077729
	C9039	C	0.720761	0.704899	0.075597
	C9040	C	0.658252	0.767382	0.425575
	C9041	C	0.720638	0.704695	0.424573
	C9042	C	0.622542	0.802215	0.077292
	C9043	C	0.685101	0.739593	0.076051
	C9044	C	0.660169	0.730570	0.175355
	C9045	C	0.717437	0.830787	0.174611
	C9046	C	0.630655	0.670446	0.328339
	C9047	C	0.683773	0.775679	0.327116
	C9048	C	0.630567	0.670552	0.175787
	C9049	C	0.683824	0.775620	0.174686
	C9050	C	0.660182	0.730523	0.328001
	C9051	C	0.717250	0.831119	0.327486
	C9052	C	0.626656	0.798070	0.501802
	C9053	C	0.689119	0.735489	-0.000113
	C9054	C	0.654140	0.771364	0.501857
	C9055	C	0.716628	0.708788	-0.000608
	C9056	C	0.656723	0.723661	0.251630
	C9057	C	0.713317	0.824779	0.250944
	C9058	C	0.634026	0.677451	0.252137
	C9059	C	0.687591	0.782226	0.250892
	C9060	C	0.633605	0.791270	0.502073
	C9061	C	0.696106	0.728740	-0.000489
	C9062	C	0.647189	0.778146	0.502270
	C9063	C	0.709632	0.715511	-0.000517
	C9064	C	0.650916	0.711978	0.251851
	C9065	C	0.706683	0.814190	0.250818
	C9066	C	0.639753	0.689201	0.252434
	C9067	C	0.694008	0.793146	0.251120
	C9068	C	0.637018	0.787864	0.449196
	C9069	C	0.699767	0.725863	0.478936
	C9070	C	0.643589	0.781281	0.016460
	C9071	C	0.706125	0.718886	0.020025
	C9072	C	0.643660	0.781448	0.449467
	C9073	C	0.706399	0.719456	0.479127
	C9074	C	0.636958	0.787732	0.016350
	C9075	C	0.699520	0.725328	0.020000
	C9076	C	0.647955	0.706214	0.306839
	C9077	C	0.703421	0.808826	0.273276
	C9078	C	0.642704	0.694991	0.197402
	C9079	C	0.697238	0.798495	0.228898
	C9080	C	0.642510	0.695153	0.307191
	C9081	C	0.697257	0.798601	0.273226
	C9082	C	0.648131	0.706046	0.197197
	C9083	C	0.703401	0.808722	0.228808
	N9084	N	0.616494	0.808087	0.454447
	N9085	N	0.678978	0.745618	0.453533
	N9086	N	0.664242	0.761233	0.048705
	N9087	N	0.726819	0.698897	0.046936
	N9088	N	0.664311	0.761370	0.454004
	N9089	N	0.726746	0.698794	0.452735
	N9090	N	0.616514	0.808236	0.048458
	N9091	N	0.679028	0.745583	0.047864
	N9092	N	0.665239	0.740714	0.204034
	N9093	N	0.723340	0.839872	0.203554
	N9094	N	0.625643	0.660239	0.299410
	N9095	N	0.678251	0.766078	0.298336
	N9096	N	0.625597	0.660274	0.204598
	N9097	N	0.678303	0.766021	0.203572
	N9098	N	0.665224	0.740701	0.299249
	N9099	N	0.723238	0.840069	0.298660
	H9100	H	0.623690	0.801158	0.852754
	H9101	H	0.686035	0.738413	0.852069
	H9102	H	0.657169	0.768499	0.649974
	H9103	H	0.719707	0.706040	0.649161
	H9104	H	0.657303	0.768901	0.853248
	H9105	H	0.719481	0.705613	0.850908
	H9106	H	0.623686	0.801030	0.649610
	H9107	H	0.686157	0.738380	0.649026
	H9108	H	0.659290	0.728656	0.602118
	H9109	H	0.716363	0.829137	0.600394
	H9110	H	0.631448	0.672395	0.900655
	H9111	H	0.684690	0.777509	0.899749
	H9112	H	0.631612	0.672310	0.602581
	H9113	H	0.684904	0.777350	0.601963
	H9114	H	0.659148	0.728805	0.900161
	H9115	H	0.716268	0.829179	0.900636
	H9116	H	0.634780	0.790899	0.975290
	H9117	H	0.697078	0.727882	0.963011
	H9118	H	0.646373	0.779132	0.595967
	H9119	H	0.708514	0.715928	0.539482
	H9120	H	0.646461	0.779450	0.974848
	H9121	H	0.708808	0.716485	0.962770
	H9122	H	0.634625	0.790463	0.595924
	H9123	H	0.696794	0.727313	0.539513
	H9124	H	0.651295	0.709184	0.876443
	H9125	H	0.705767	0.812470	0.743370
	H9126	H	0.639405	0.691864	0.627528
	H9127	H	0.694968	0.794487	0.758556
	H9128	H	0.641676	0.689600	0.876729
	H9129	H	0.694856	0.794513	0.743557
	H9130	H	0.649051	0.711444	0.628149
	H9131	H	0.705829	0.812550	0.758418
	Co9132	Co	0.731207	0.850851	0.625773
	Co9133	Co	0.671673	0.753475	0.626366
	Co9134	Co	0.619306	0.647307	0.875602
	Co9135	Co	0.671631	0.753551	0.875355
	C9136	C	0.622552	0.802251	0.925418
	C9137	C	0.684968	0.739529	0.924318
	C9138	C	0.658280	0.767335	0.577595
	C9139	C	0.720808	0.704908	0.576567
	C9140	C	0.658362	0.767539	0.925476
	C9141	C	0.720675	0.704692	0.923339
	C9142	C	0.622555	0.802174	0.577630
	C9143	C	0.685030	0.739541	0.576615
	C9144	C	0.660183	0.730576	0.674835
	C9145	C	0.717377	0.830825	0.673845
	C9146	C	0.630557	0.670456	0.827742
	C9147	C	0.683700	0.775737	0.826885
	C9148	C	0.630644	0.670423	0.675198
	C9149	C	0.683812	0.775634	0.674697
	C9150	C	0.660145	0.730604	0.827433
	C9151	C	0.717340	0.830890	0.827139
	C9152	C	0.626664	0.798148	1.001438
	C9153	C	0.689118	0.735514	0.500392
	C9154	C	0.654121	0.771404	1.001635
	C9155	C	0.716640	0.708862	0.500805
	C9156	C	0.656735	0.723623	0.751248
	C9157	C	0.713334	0.824682	0.750565
	C9158	C	0.634028	0.677433	0.751608
	C9159	C	0.687526	0.782203	0.750810
	C9160	C	0.633614	0.791382	1.001202
	C9161	C	0.696098	0.728769	0.500513
	C9162	C	0.647178	0.778165	1.001550
	C9163	C	0.709700	0.715690	0.501098
	C9164	C	0.650968	0.711939	0.751702
	C9165	C	0.706727	0.814022	0.750732
	C9166	C	0.639778	0.689133	0.752021
	C9167	C	0.693993	0.793053	0.750818
	C9168	C	0.637201	0.788234	0.986265
	C9169	C	0.699602	0.725372	0.979131
	C9170	C	0.643786	0.781566	0.555024
	C9171	C	0.706079	0.718681	0.522455
	C9172	C	0.643826	0.781775	0.986526
	C9173	C	0.706203	0.718925	0.978864
	C9174	C	0.637144	0.787969	0.554795
	C9175	C	0.699446	0.725083	0.522497
	C9176	C	0.648720	0.705428	0.821754
	C9177	C	0.703440	0.808617	0.746758
	C9178	C	0.641991	0.695623	0.682252
	C9179	C	0.697275	0.798449	0.754966
	C9180	C	0.643254	0.694357	0.821868
	C9181	C	0.697262	0.798440	0.746639
	C9182	C	0.647444	0.706716	0.682154
	C9183	C	0.703461	0.808632	0.755157
	N9184	N	0.616537	0.808287	0.954255
	N9185	N	0.678971	0.745603	0.953577
	N9186	N	0.664311	0.761329	0.548384
	N9187	N	0.726863	0.698923	0.547264
	N9188	N	0.664355	0.761456	0.954225
	N9189	N	0.726770	0.698788	0.952348
	N9190	N	0.616500	0.808177	0.548758
	N9191	N	0.678980	0.745567	0.548198
	N9192	N	0.665223	0.740750	0.703744
	N9193	N	0.723256	0.839943	0.702800
	N9194	N	0.625552	0.660292	0.798516
	N9195	N	0.678147	0.766172	0.798060
	N9196	N	0.625611	0.660253	0.704029
	N9197	N	0.678233	0.766085	0.703398
	N9198	N	0.665202	0.740756	0.798443
	N9199	N	0.723249	0.839954	0.798046
	H9200	H	0.618038	0.955512	0.349421
	H9201	H	0.680519	0.893088	0.349231
	H9202	H	0.654517	0.928661	0.150335
	H9203	H	0.717126	0.866328	0.149969
	H9204	H	0.654727	0.928996	0.350374
	H9205	H	0.717250	0.866783	0.350100
	H9206	H	0.618029	0.955624	0.151790
	H9207	H	0.680507	0.892966	0.150892
	H9208	H	0.653774	0.891469	0.100768
	H9209	H	0.725157	0.899375	0.099537
	H9210	H	0.622365	0.839778	0.400876
	H9211	H	0.686843	0.920527	0.401854
	H9212	H	0.622118	0.840050	0.102551
	H9213	H	0.686829	0.920251	0.098967
	H9214	H	0.653768	0.891671	0.400628
	H9215	H	0.725160	0.899735	0.402133
	H9216	H	0.629654	0.945602	0.646425
	H9217	H	0.691998	0.882754	0.353092
	H9218	H	0.642410	0.937196	0.147119
	H9219	H	0.704902	0.874327	-0.146613
	H9220	H	0.642392	0.937001	0.646552
	H9221	H	0.704781	0.874182	0.353394
	H9222	H	0.629682	0.945775	0.146590
	H9223	H	0.692096	0.882997	-0.147348
	H9224	H	0.643076	0.875407	0.273478
	H9225	H	0.712090	0.904906	0.399883
	H9226	H	0.632653	0.856527	0.229058
	H9227	H	0.699461	0.913607	0.101240
	H9228	H	0.632117	0.857392	0.274833
	H9229	H	0.699356	0.913438	0.399732
	H9230	H	0.643547	0.874504	0.228566
	H9231	H	0.712229	0.905137	0.101835
	Co9232	Co	0.743443	0.907386	0.126170
	Co9233	Co	0.668715	0.913119	0.126244
	Co9234	Co	0.609129	0.815919	0.376092
	Co9235	Co	0.668690	0.913315	0.374934
	C9236	C	0.617140	0.957043	0.423193
	C9237	C	0.679615	0.894579	0.423208
	C9238	C	0.655781	0.927875	0.077234
	C9239	C	0.718374	0.865475	0.076904
	C9240	C	0.655885	0.928065	0.424020
	C9241	C	0.718410	0.865811	0.423412
	C9242	C	0.617141	0.957073	0.077614
	C9243	C	0.679645	0.894493	0.076752
	C9244	C	0.654848	0.893251	0.174239
	C9245	C	0.726629	0.899653	0.174077
	C9246	C	0.621289	0.838047	0.328113
	C9247	C	0.685338	0.920337	0.327547
	C9248	C	0.621157	0.838235	0.175617
	C9249	C	0.685330	0.920193	0.173131
	C9250	C	0.654821	0.893381	0.327402
	C9251	C	0.726656	0.899907	0.328341
	C9252	C	0.621138	0.952550	0.500059
	C9253	C	0.683677	0.890064	-0.000260
	C9254	C	0.651342	0.931290	0.500498
	C9255	C	0.713882	0.868801	0.000389
	C9256	C	0.650794	0.887190	0.250992
	C9257	C	0.721476	0.900402	0.251142
	C9258	C	0.624993	0.844650	0.251902
	C9259	C	0.690419	0.919105	0.250384
	C9260	C	0.628501	0.946465	0.500051
	C9261	C	0.691040	0.883969	-0.000200
	C9262	C	0.643580	0.936310	0.500130
	C9263	C	0.706097	0.873831	0.000103
	C9264	C	0.644183	0.876519	0.251309
	C9265	C	0.713344	0.904304	0.250876
	C9266	C	0.631462	0.855506	0.251879
	C9267	C	0.698325	0.914494	0.250564
	C9268	C	0.632375	0.943766	0.581458
	C9269	C	0.694776	0.881104	0.418249
	C9270	C	0.639683	0.938927	0.081891
	C9271	C	0.702148	0.876277	-0.082023
	C9272	C	0.639662	0.938859	0.581641
	C9273	C	0.702088	0.876243	0.418180
	C9274	C	0.632386	0.943816	0.081870
	C9275	C	0.694844	0.881163	-0.082127
	C9276	C	0.640762	0.871337	0.263975
	C9277	C	0.709395	0.906781	0.333761
	C9278	C	0.634881	0.860665	0.239014
	C9279	C	0.702181	0.911818	0.167694
	C9280	C	0.634591	0.861121	0.264419
	C9281	C	0.702116	0.911680	0.333471
	C9282	C	0.641055	0.870867	0.238670
	C9283	C	0.709476	0.906954	0.167865
	N9284	N	0.611445	0.963890	0.452448
	N9285	N	0.673958	0.901470	0.451989
	N9286	N	0.662387	0.922994	0.048930
	N9287	N	0.724989	0.860596	0.048496
	N9288	N	0.662495	0.923272	0.452595
	N9289	N	0.725013	0.860905	0.452049
	N9290	N	0.611471	0.963934	0.048931
	N9291	N	0.673987	0.901408	0.047928
	N9292	N	0.660763	0.902294	0.203072
	N9293	N	0.734419	0.899512	0.202515
	N9294	N	0.615717	0.828496	0.299105
	N9295	N	0.677632	0.921271	0.299157
	N9296	N	0.615643	0.828635	0.204456
	N9297	N	0.677623	0.921179	0.201587
	N9298	N	0.660747	0.902382	0.298219
	N9299	N	0.734437	0.899639	0.299815
	H9300	H	0.618034	0.955646	0.850147
	H9301	H	0.680755	0.893392	0.848870
	H9302	H	0.654573	0.928886	0.650054
	H9303	H	0.717151	0.866443	0.650108
	H9304	H	0.654740	0.929124	0.850747
	H9305	H	0.717298	0.866604	0.850469
	H9306	H	0.618085	0.955632	0.651075
	H9307	H	0.680500	0.893050	0.650542
	H9308	H	0.653829	0.891719	0.600092
	H9309	H	0.725095	0.899138	0.599222
	H9310	H	0.622253	0.840145	0.900764
	H9311	H	0.686878	0.920639	0.901569
	H9312	H	0.622417	0.839876	0.602283
	H9313	H	0.686847	0.920365	0.598531
	H9314	H	0.653985	0.891631	0.900472
	H9315	H	0.725057	0.899627	0.901587
	H9316	H	0.629507	0.945381	0.854227
	H9317	H	0.692174	0.883238	1.146982
	H9318	H	0.642314	0.936734	0.353985
	H9319	H	0.704982	0.874859	0.647280
	H9320	H	0.642259	0.936767	0.854170
	H9321	H	0.704986	0.874731	1.147017
	H9322	H	0.629570	0.945416	0.353760
	H9323	H	0.692206	0.883355	0.647246
	H9324	H	0.642738	0.875849	0.682719
	H9325	H	0.712180	0.905239	0.600304
	H9326	H	0.632980	0.856467	0.819793
	H9327	H	0.699369	0.913470	0.899831
	H9328	H	0.631752	0.857995	0.682567
	H9329	H	0.699522	0.913907	0.600636
	H9330	H	0.644003	0.874386	0.818962
	H9331	H	0.712072	0.904880	0.899803
	Co9332	Co	0.743346	0.907186	0.626382
	Co9333	Co	0.668761	0.913273	0.625614
	Co9334	Co	0.609169	0.816135	0.876088
	Co9335	Co	0.668751	0.913410	0.874615
	C9336	C	0.617097	0.957040	0.924179
	C9337	C	0.679727	0.894709	0.922816
	C9338	C	0.655826	0.928006	0.577142
	C9339	C	0.718357	0.865630	0.576535
	C9340	C	0.655858	0.928089	0.924230
	C9341	C	0.718447	0.865630	0.923928
	C9342	C	0.617178	0.957061	0.577312
	C9343	C	0.679597	0.894490	0.576632
	C9344	C	0.654856	0.893386	0.673188
	C9345	C	0.726580	0.899485	0.673232
	C9346	C	0.621239	0.838316	0.827882
	C9347	C	0.685375	0.920398	0.827448
	C9348	C	0.621311	0.838179	0.675249
	C9349	C	0.685359	0.920352	0.672841
	C9350	C	0.654943	0.893335	0.826939
	C9351	C	0.726586	0.899780	0.827414
	C9352	C	0.621118	0.952580	1.000812
	C9353	C	0.683594	0.890025	0.499810
	C9354	C	0.651308	0.931251	1.000711
	C9355	C	0.713875	0.868990	0.499941
	C9356	C	0.650845	0.887250	0.750230
	C9357	C	0.721405	0.900335	0.750075
	C9358	C	0.625030	0.844804	0.751479
	C9359	C	0.690444	0.919202	0.750047
	C9360	C	0.628448	0.946417	1.000543
	C9361	C	0.690965	0.883992	0.499938
	C9362	C	0.643555	0.936276	1.000520
	C9363	C	0.706073	0.873945	0.499991
	C9364	C	0.644253	0.876550	0.750734
	C9365	C	0.713323	0.904352	0.749942
	C9366	C	0.631499	0.855645	0.751265
	C9367	C	0.698363	0.914673	0.750109
	C9368	C	0.632255	0.943571	0.919171
	C9369	C	0.694920	0.881377	1.081775
	C9370	C	0.639623	0.938759	0.418746
	C9371	C	0.702190	0.876557	0.582020
	C9372	C	0.639558	0.938666	0.919132
	C9373	C	0.702199	0.876435	1.081898
	C9374	C	0.632328	0.943654	0.418767
	C9375	C	0.694880	0.881412	0.581828
	C9376	C	0.640616	0.871584	0.712545
	C9377	C	0.709487	0.907061	0.666927
	C9378	C	0.635095	0.860636	0.789538
	C9379	C	0.702153	0.911789	0.833389
	C9380	C	0.634407	0.861443	0.712717
	C9381	C	0.702215	0.911997	0.667015
	C9382	C	0.641310	0.870791	0.789123
	C9383	C	0.709424	0.906855	0.833218
	N9384	N	0.611430	0.963915	0.953055
	N9385	N	0.674043	0.901570	0.952056
	N9386	N	0.662451	0.923154	0.548553
	N9387	N	0.724993	0.860818	0.547980
	N9388	N	0.662422	0.923127	0.952654
	N9389	N	0.725038	0.860710	0.952401
	N9390	N	0.611487	0.963924	0.548480
	N9391	N	0.673943	0.901390	0.548230
	N9392	N	0.660784	0.902419	0.702385
	N9393	N	0.734333	0.899238	0.702084
	N9394	N	0.615728	0.828696	0.799055
	N9395	N	0.677654	0.921387	0.799036
	N9396	N	0.615763	0.828623	0.704159
	N9397	N	0.677646	0.921355	0.701276
	N9398	N	0.660841	0.902369	0.797700
	N9399	N	0.734334	0.899401	0.799339
	H9400	H	0.631024	1.013580	0.349491
	H9401	H	0.693416	0.950898	0.349173
	H9402	H	0.668611	0.989219	0.150260
	H9403	H	0.731118	0.926552	0.151671
	H9404	H	0.668743	0.989189	0.348889
	H9405	H	0.731363	0.927064	0.349072
	H9406	H	0.630710	1.013187	0.151071
	H9407	H	0.693242	0.950777	0.151741
	H9408	H	0.662601	0.961913	0.098842
	H9409	H	0.738210	0.959414	0.098648
	H9410	H	0.624412	0.983040	0.402069
	H9411	H	0.699215	0.977931	0.401566
	H9412	H	0.624315	0.982960	0.099041
	H9413	H	0.699181	0.978031	0.099058
	H9414	H	0.662575	0.961973	0.401816
	H9415	H	0.738208	0.959181	0.401235
	H9416	H	0.643235	1.005036	0.350652
	H9417	H	0.705769	0.942642	0.350940
	H9418	H	0.656507	0.997994	0.149594
	H9419	H	0.718841	0.935159	-0.149248
	H9420	H	0.656345	0.997601	0.350815
	H9421	H	0.718834	0.934984	0.350596
	H9422	H	0.643446	1.005639	0.149139
	H9423	H	0.705759	0.942631	-0.149267
	H9424	H	0.649669	0.967694	0.101098
	H9425	H	0.725237	0.964737	0.099922
	H9426	H	0.636946	0.976249	0.399611
	H9427	H	0.712182	0.972365	0.400421
	H9428	H	0.637046	0.976402	0.101010
	H9429	H	0.712249	0.972552	0.100300
	H9430	H	0.649704	0.967592	0.399512
	H9431	H	0.725113	0.964441	0.400206
	Co9432	Co	0.756491	0.967318	0.126273
	Co9433	Co	0.680867	0.969867	0.126088
	Co9434	Co	0.606171	0.975701	0.375129
	Co9435	Co	0.680916	0.969787	0.374571
	C9436	C	0.629931	1.014772	0.423637
	C9437	C	0.692349	0.952152	0.423396
	C9438	C	0.669629	0.987834	0.076849
	C9439	C	0.732172	0.925353	0.077385
	C9440	C	0.669713	0.987845	0.423226
	C9441	C	0.732298	0.925587	0.423629
	C9442	C	0.629801	1.014644	0.076938
	C9443	C	0.692282	0.952137	0.077295
	C9444	C	0.664090	0.962193	0.173251
	C9445	C	0.739657	0.959543	0.172811
	C9446	C	0.622873	0.982851	0.328033
	C9447	C	0.697742	0.977634	0.327142
	C9448	C	0.622833	0.982827	0.173509
	C9449	C	0.697739	0.977674	0.173034
	C9450	C	0.664078	0.962166	0.327826
	C9451	C	0.739647	0.959481	0.327086
	C9452	C	0.634228	1.010886	0.500683
	C9453	C	0.696641	0.948335	0.000638
	C9454	C	0.665409	0.991762	0.500171
	C9455	C	0.727915	0.929380	0.000510
	C9456	C	0.658920	0.962857	0.250570
	C9457	C	0.734487	0.960075	0.249882
	C9458	C	0.627943	0.981713	0.250626
	C9459	C	0.702909	0.977069	0.249965
	C9460	C	0.642042	1.005835	0.500487
	C9461	C	0.704455	0.943304	0.000548
	C9462	C	0.657665	0.996971	0.500536
	C9463	C	0.720152	0.934561	0.000375
	C9464	C	0.650835	0.966875	0.250585
	C9465	C	0.726320	0.963762	0.249915
	C9466	C	0.635890	0.977240	0.250519
	C9467	C	0.711082	0.973256	0.250079
	C9468	C	0.646057	1.003526	0.417200
	C9469	C	0.708574	0.941029	0.417258
	C9470	C	0.653679	0.999459	0.083172
	C9471	C	0.716066	0.936784	-0.082481
	C9472	C	0.653590	0.999269	0.417544
	C9473	C	0.716099	0.936754	0.417234
	C9474	C	0.646158	1.003771	0.082687
	C9475	C	0.708530	0.941019	-0.082542
	C9476	C	0.646991	0.969586	0.167495
	C9477	C	0.722431	0.966302	0.166500
	C9478	C	0.639684	0.974403	0.333453
	C9479	C	0.714983	0.970743	0.333780
	C9480	C	0.639738	0.974541	0.167430
	C9481	C	0.715043	0.970863	0.166692
	C9482	C	0.646941	0.969419	0.333519
	C9483	C	0.722355	0.966168	0.333490
	N9484	N	0.623794	1.020804	0.452058
	N9485	N	0.686129	0.958032	0.452024
	N9486	N	0.675698	0.981650	0.048373
	N9487	N	0.738245	0.919221	0.048908
	N9488	N	0.675784	0.981640	0.451911
	N9489	N	0.738287	0.919269	0.452572
	N9490	N	0.623620	1.020586	0.048502
	N9491	N	0.686160	0.958209	0.048790
	N9492	N	0.671867	0.961872	0.201994
	N9493	N	0.747458	0.959415	0.201573
	N9494	N	0.615155	0.983724	0.299881
	N9495	N	0.689955	0.977782	0.298736
	N9496	N	0.615132	0.983729	0.202109
	N9497	N	0.689963	0.977793	0.201581
	N9498	N	0.671855	0.961864	0.299139
	N9499	N	0.747465	0.959372	0.298768
	H9500	H	0.631073	1.013847	0.848732
	H9501	H	0.693431	0.951102	0.849393
	H9502	H	0.668667	0.989042	0.651176
	H9503	H	0.730910	0.926230	0.651365
	H9504	H	0.668692	0.989258	0.849117
	H9505	H	0.731251	0.926864	0.849545
	H9506	H	0.630832	1.013366	0.651616
	H9507	H	0.693302	0.950713	0.651128
	H9508	H	0.662599	0.961884	0.599597
	H9509	H	0.738230	0.959144	0.599511
	H9510	H	0.624372	0.982995	0.902312
	H9511	H	0.699274	0.977978	0.901216
	H9512	H	0.624355	0.982828	0.599762
	H9513	H	0.699241	0.977997	0.598490
	H9514	H	0.662617	0.962157	0.901999
	H9515	H	0.738226	0.959109	0.902133
	H9516	H	0.643198	1.005077	0.850346
	H9517	H	0.705840	0.942832	1.150123
	H9518	H	0.656446	0.997695	0.650210
	H9519	H	0.718930	0.935417	0.649455
	H9520	H	0.656251	0.997442	0.851020
	H9521	H	0.718955	0.935409	1.149795
	H9522	H	0.643386	1.005316	0.649896
	H9523	H	0.705847	0.942880	0.649672
	H9524	H	0.649710	0.967820	0.601237
	H9525	H	0.725314	0.964810	0.600768
	H9526	H	0.636814	0.975836	0.900241
	H9527	H	0.712256	0.972579	0.900032
	H9528	H	0.637019	0.976395	0.601318
	H9529	H	0.712309	0.972633	0.600104
	H9530	H	0.649586	0.967307	0.900274
	H9531	H	0.725261	0.964816	0.900632
	Co9532	Co	0.756495	0.967259	0.626311
	Co9533	Co	0.680912	0.969752	0.626128
	Co9534	Co	0.606177	0.975706	0.874990
	Co9535	Co	0.680966	0.969926	0.874562
	C9536	C	0.629912	1.014838	0.923204
	C9537	C	0.692371	0.952239	0.923598
	C9538	C	0.669675	0.987750	0.576803
	C9539	C	0.732078	0.925191	0.577371
	C9540	C	0.669697	0.987924	0.923066
	C9541	C	0.732228	0.925506	0.923638
	C9542	C	0.629839	1.014678	0.577310
	C9543	C	0.692304	0.952053	0.577141
	C9544	C	0.664078	0.962172	0.673694
	C9545	C	0.739700	0.959380	0.673819
	C9546	C	0.622846	0.982845	0.828018
	C9547	C	0.697797	0.977762	0.827235
	C9548	C	0.622863	0.982807	0.673695
	C9549	C	0.697765	0.977695	0.673010
	C9550	C	0.664105	0.962259	0.827807
	C9551	C	0.739695	0.959414	0.827937
	C9552	C	0.634220	1.010974	1.000180
	C9553	C	0.696686	0.948344	0.500298
	C9554	C	0.665395	0.991840	1.000002
	C9555	C	0.727920	0.929371	0.500259
	C9556	C	0.658923	0.962866	0.750838
	C9557	C	0.734526	0.960015	0.750677
	C9558	C	0.627927	0.981688	0.751021
	C9559	C	0.702956	0.977158	0.749952
	C9560	C	0.642026	1.005936	1.000023
	C9561	C	0.704516	0.943330	0.500351
	C9562	C	0.657626	0.997025	1.000312
	C9563	C	0.720169	0.934566	0.500027
	C9564	C	0.650810	0.966809	0.750761
	C9565	C	0.726385	0.963901	0.750542
	C9566	C	0.635857	0.977099	0.750966
	C9567	C	0.711126	0.973420	0.749957
	C9568	C	0.646018	1.003570	0.916925
	C9569	C	0.708579	0.941146	1.083347
	C9570	C	0.653656	0.999269	0.583549
	C9571	C	0.716140	0.936938	0.582852
	C9572	C	0.653527	0.999244	0.917454
	C9573	C	0.716142	0.936967	1.083181
	C9574	C	0.646143	1.003605	0.583232
	C9575	C	0.708603	0.941164	0.583174
	C9576	C	0.646954	0.969497	0.667603
	C9577	C	0.722467	0.966429	0.667184
	C9578	C	0.639635	0.974214	0.834040
	C9579	C	0.715055	0.970970	0.833472
	C9580	C	0.639700	0.974441	0.667747
	C9581	C	0.715075	0.970986	0.666755
	C9582	C	0.646899	0.969278	0.834000
	C9583	C	0.722448	0.966400	0.833854
	N9584	N	0.623725	1.020778	0.951879
	N9585	N	0.686210	0.958244	0.952003
	N9586	N	0.675737	0.981542	0.548354
	N9587	N	0.738163	0.919046	0.549020
	N9588	N	0.675764	0.981730	0.951878
	N9589	N	0.738278	0.919285	0.952409
	N9590	N	0.623707	1.020711	0.548707
	N9591	N	0.686117	0.958002	0.548581
	N9592	N	0.671869	0.961922	0.702172
	N9593	N	0.747482	0.959267	0.702243
	N9594	N	0.615127	0.983725	0.799657
	N9595	N	0.689995	0.977857	0.798704
	N9596	N	0.615140	0.983732	0.701920
	N9597	N	0.689980	0.977777	0.701490
	N9598	N	0.671882	0.961997	0.799260
	N9599	N	0.747484	0.959273	0.799481
	H9600	H	0.782875	0.008527	0.350065
	H9601	H	0.845339	-0.053955	0.351259
	H9602	H	0.819282	-0.018620	0.150985
	H9603	H	0.881995	-0.080582	0.150844
	H9604	H	0.819414	-0.018317	0.349808
	H9605	H	0.881900	-0.080871	0.350075
	H9606	H	0.782941	0.008530	0.150048
	H9607	H	0.845319	-0.054278	0.150262
	H9608	H	0.813079	-0.045823	0.099050
	H9609	H	0.877464	0.035021	0.101098
	H9610	H	0.774855	-0.024780	0.401597
	H9611	H	0.846018	-0.016758	0.400334
	H9612	H	0.774817	-0.024502	0.099052
	H9613	H	0.846191	-0.016901	0.100290
	H9614	H	0.813118	-0.045495	0.402069
	H9615	H	0.877708	0.034614	0.399398
	H9616	H	0.795174	0.000467	0.353899
	H9617	H	0.857590	-0.061930	0.353774
	H9618	H	0.807916	-0.008192	-0.147529
	H9619	H	0.870331	-0.070889	-0.147110
	H9620	H	0.807898	-0.008270	0.354201
	H9621	H	0.870389	-0.070503	0.353190
	H9622	H	0.795166	0.000430	-0.147737
	H9623	H	0.857492	-0.062379	-0.146693
	H9624	H	0.800485	-0.038778	0.400159
	H9625	H	0.867603	0.017591	0.186024
	H9626	H	0.787789	-0.030279	0.100669
	H9627	H	0.856533	-0.000201	0.314661
	H9628	H	0.787720	-0.030194	0.399347
	H9629	H	0.856682	-0.000383	0.185859
	H9630	H	0.800497	-0.038851	0.100678
	H9631	H	0.867518	0.017775	0.314774
	Co9632	Co	0.890788	0.058870	0.126191
	Co9633	Co	0.831244	-0.038578	0.125622
	Co9634	Co	0.756513	-0.032687	0.374714
	Co9635	Co	0.831238	-0.038448	0.375035
	C9636	C	0.781702	0.009411	0.423692
	C9637	C	0.844089	-0.053217	0.424161
	C9638	C	0.820300	-0.019896	0.077029
	C9639	C	0.882901	-0.082082	0.076881
	C9640	C	0.820323	-0.019789	0.423872
	C9641	C	0.882816	-0.082231	0.423642
	C9642	C	0.781702	0.009414	0.076669
	C9643	C	0.844107	-0.053331	0.076872
	C9644	C	0.814579	-0.045587	0.173463
	C9645	C	0.878601	0.036712	0.174040
	C9646	C	0.773337	-0.025049	0.327560
	C9647	C	0.845036	-0.018526	0.327006
	C9648	C	0.773329	-0.024869	0.173184
	C9649	C	0.845098	-0.018606	0.173605
	C9650	C	0.814615	-0.045428	0.327691
	C9651	C	0.878728	0.036513	0.326702
	C9652	C	0.786230	0.006184	0.500377
	C9653	C	0.848649	-0.056526	0.000235
	C9654	C	0.816319	-0.015299	0.500569
	C9655	C	0.878918	-0.077604	-0.000172
	C9656	C	0.809513	-0.044356	0.250748
	C9657	C	0.874925	0.030038	0.250536
	C9658	C	0.778509	-0.025534	0.250318
	C9659	C	0.849091	-0.012370	0.250318
	C9660	C	0.793991	0.001126	0.500407
	C9661	C	0.856437	-0.061519	0.000002
	C9662	C	0.809002	-0.009109	0.500462
	C9663	C	0.871544	-0.071502	-0.000314
	C9664	C	0.801565	-0.039869	0.250640
	C9665	C	0.868477	0.019176	0.250648
	C9666	C	0.786605	-0.029539	0.250343
	C9667	C	0.855705	-0.001739	0.250393
	C9668	C	0.797887	-0.001448	0.418941
	C9669	C	0.860308	-0.063932	0.418538
	C9670	C	0.805184	-0.006357	-0.082294
	C9671	C	0.867625	-0.068947	-0.082182
	C9672	C	0.805160	-0.006393	0.418985
	C9673	C	0.867607	-0.068819	0.418432
	C9674	C	0.797875	-0.001493	-0.082490
	C9675	C	0.860303	-0.064139	-0.081908
	C9676	C	0.797738	-0.037042	0.333610
	C9677	C	0.865238	0.013722	0.214457
	C9678	C	0.790505	-0.032130	0.167095
	C9679	C	0.858960	0.003670	0.286611
	C9680	C	0.790484	-0.032063	0.333323
	C9681	C	0.859030	0.003561	0.214431
	C9682	C	0.797742	-0.037132	0.167237
	C9683	C	0.865168	0.013849	0.286684
	N9684	N	0.775075	0.014243	0.452254
	N9685	N	0.837457	-0.048394	0.452475
	N9686	N	0.825985	-0.026768	0.048016
	N9687	N	0.888524	-0.089067	0.047904
	N9688	N	0.825997	-0.026670	0.452764
	N9689	N	0.888502	-0.089061	0.452001
	N9690	N	0.775070	0.014237	0.048388
	N9691	N	0.837479	-0.048494	0.048573
	N9692	N	0.822308	-0.046526	0.201582
	N9693	N	0.884114	0.046307	0.202714
	N9694	N	0.765572	-0.024797	0.299148
	N9695	N	0.839152	-0.027614	0.297802
	N9696	N	0.765550	-0.024719	0.201976
	N9697	N	0.839203	-0.027675	0.202648
	N9698	N	0.822319	-0.046425	0.299378
	N9699	N	0.884200	0.046189	0.297825
	H9700	H	0.782683	0.008059	0.849794
	H9701	H	0.845291	-0.054196	0.850724
	H9702	H	0.819368	-0.018440	0.651492
	H9703	H	0.881934	-0.080845	0.650545
	H9704	H	0.819525	-0.018241	0.849381
	H9705	H	0.881943	-0.080708	0.848918
	H9706	H	0.782910	0.008484	0.650611
	H9707	H	0.845186	-0.054342	0.650031
	H9708	H	0.813089	-0.045455	0.599177
	H9709	H	0.877717	0.034776	0.601153
	H9710	H	0.774817	-0.024658	0.901782
	H9711	H	0.846143	-0.016868	0.900647
	H9712	H	0.774756	-0.024774	0.598889
	H9713	H	0.846155	-0.016740	0.600599
	H9714	H	0.813111	-0.045694	0.901774
	H9715	H	0.877661	0.034954	0.899778
	H9716	H	0.795125	0.000334	1.146978
	H9717	H	0.857788	-0.061757	1.146813
	H9718	H	0.807964	-0.007999	0.646856
	H9719	H	0.870274	-0.070873	0.647117
	H9720	H	0.807879	-0.008246	1.147242
	H9721	H	0.870631	-0.070215	1.146087
	H9722	H	0.795247	0.000732	0.646416
	H9723	H	0.857534	-0.062291	0.646992
	H9724	H	0.800541	-0.038709	0.900159
	H9725	H	0.867670	0.017593	0.872214
	H9726	H	0.787789	-0.030348	0.600943
	H9727	H	0.856517	-0.000047	0.629047
	H9728	H	0.787791	-0.030134	0.900399
	H9729	H	0.856713	-0.000348	0.871823
	H9730	H	0.800502	-0.038939	0.601555
	H9731	H	0.867409	0.018028	0.629135
	Co9732	Co	0.890777	0.058816	0.626095
	Co9733	Co	0.831245	-0.038545	0.625981
	Co9734	Co	0.756531	-0.032670	0.874923
	Co9735	Co	0.831253	-0.038567	0.874858
	C9736	C	0.781571	0.009162	0.923381
	C9737	C	0.844098	-0.053287	0.923982
	C9738	C	0.820294	-0.019842	0.577428
	C9739	C	0.882881	-0.082107	0.576553
	C9740	C	0.820413	-0.019744	0.923211
	C9741	C	0.882905	-0.082127	0.922987
	C9742	C	0.781720	0.009458	0.576957
	C9743	C	0.844026	-0.053429	0.576768
	C9744	C	0.814586	-0.045493	0.673232
	C9745	C	0.878745	0.036563	0.674137
	C9746	C	0.773303	-0.024936	0.827493
	C9747	C	0.845065	-0.018539	0.827286
	C9748	C	0.773295	-0.024915	0.673280
	C9749	C	0.845059	-0.018509	0.673867
	C9750	C	0.814591	-0.045571	0.827693
	C9751	C	0.878729	0.036631	0.826639
	C9752	C	0.786157	0.006047	0.999759
	C9753	C	0.848559	-0.056581	0.500341
	C9754	C	0.816350	-0.015329	0.999969
	C9755	C	0.878816	-0.077741	0.500045
	C9756	C	0.809528	-0.044306	0.750480
	C9757	C	0.874968	0.030066	0.750290
	C9758	C	0.778476	-0.025574	0.750305
	C9759	C	0.849100	-0.012319	0.750606
	C9760	C	0.793922	0.000972	0.999705
	C9761	C	0.856326	-0.061590	0.500217
	C9762	C	0.809020	-0.009124	0.999821
	C9763	C	0.871448	-0.071648	0.500127
	C9764	C	0.801603	-0.039755	0.750717
	C9765	C	0.868461	0.019276	0.750327
	C9766	C	0.786585	-0.029493	0.750626
	C9767	C	0.855707	-0.001698	0.750301
	C9768	C	0.797861	-0.001507	1.081921
	C9769	C	0.860458	-0.063775	1.081586
	C9770	C	0.805219	-0.006228	0.581873
	C9771	C	0.867578	-0.068961	0.581836
	C9772	C	0.805165	-0.006392	1.081962
	C9773	C	0.867768	-0.068598	1.081431
	C9774	C	0.797951	-0.001258	0.581766
	C9775	C	0.860267	-0.064125	0.581920
	C9776	C	0.797776	-0.036943	0.833877
	C9777	C	0.865259	0.013786	0.818286
	C9778	C	0.790487	-0.032139	0.667613
	C9779	C	0.858896	0.003784	0.682439
	C9780	C	0.790474	-0.032071	0.833838
	C9781	C	0.859066	0.003590	0.818377
	C9782	C	0.797764	-0.037074	0.667759
	C9783	C	0.865102	0.013977	0.682328
	N9784	N	0.775007	0.014120	0.952162
	N9785	N	0.837466	-0.048489	0.952474
	N9786	N	0.825932	-0.026753	0.548687
	N9787	N	0.888526	-0.089038	0.547851
	N9788	N	0.826063	-0.026665	0.952270
	N9789	N	0.888523	-0.089120	0.952143
	N9790	N	0.775094	0.014303	0.548619
	N9791	N	0.837432	-0.048471	0.548429
	N9792	N	0.822286	-0.046484	0.701463
	N9793	N	0.884263	0.046163	0.702874
	N9794	N	0.765517	-0.024638	0.799255
	N9795	N	0.839182	-0.027598	0.798260
	N9796	N	0.765510	-0.024699	0.701748
	N9797	N	0.839200	-0.027624	0.702917
	N9798	N	0.822300	-0.046515	0.799262
	N9799	N	0.884267	0.046222	0.797800
	H9800	H	0.780357	0.169044	0.351082
	H9801	H	0.842951	0.106543	0.351136
	H9802	H	0.813845	0.136456	0.148586
	H9803	H	0.876078	0.073596	0.147677
	H9804	H	0.813948	0.136572	0.350950
	H9805	H	0.876225	0.073533	0.350962
	H9806	H	0.780550	0.169163	0.148770
	H9807	H	0.842756	0.106222	0.148121
	H9808	H	0.815413	0.097459	0.100648
	H9809	H	0.868454	0.202616	0.101308
	H9810	H	0.783694	0.045834	0.400214
	H9811	H	0.840668	0.146407	0.398310
	H9812	H	0.783731	0.045788	0.100652
	H9813	H	0.840842	0.146200	0.100508
	H9814	H	0.815232	0.097648	0.399279
	H9815	H	0.868502	0.202641	0.399569
	H9816	H	0.791012	0.157974	0.510107
	H9817	H	0.853321	0.094988	0.476983
	H9818	H	0.803659	0.148370	-0.011530
	H9819	H	0.865845	0.085357	0.064041
	H9820	H	0.802772	0.146561	0.509260
	H9821	H	0.864978	0.083505	0.477141
	H9822	H	0.791950	0.159812	-0.011693
	H9823	H	0.854125	0.096800	0.064504
	H9824	H	0.805169	0.080353	0.306586
	H9825	H	0.858389	0.185283	0.266095
	H9826	H	0.794239	0.062437	0.194421
	H9827	H	0.850972	0.163454	0.234064
	H9828	H	0.794283	0.062406	0.306649
	H9829	H	0.848727	0.165802	0.264957
	H9830	H	0.805185	0.080344	0.194033
	H9831	H	0.860648	0.182983	0.234162
	Co9832	Co	0.880532	0.227724	0.125988
	Co9833	Co	0.828369	0.121500	0.124823
	Co9834	Co	0.768825	0.024110	0.374991
	Co9835	Co	0.828393	0.121526	0.374222
	C9836	C	0.779238	0.170147	0.423656
	C9837	C	0.841770	0.107619	0.423480
	C9838	C	0.814985	0.135307	0.076020
	C9839	C	0.877330	0.072558	0.075899
	C9840	C	0.815057	0.135476	0.423138
	C9841	C	0.877311	0.072496	0.423481
	C9842	C	0.779349	0.170183	0.076064
	C9843	C	0.841662	0.107458	0.075713
	C9844	C	0.816327	0.099249	0.173874
	C9845	C	0.869353	0.204488	0.174181
	C9846	C	0.782685	0.044134	0.326872
	C9847	C	0.839819	0.144472	0.325838
	C9848	C	0.782712	0.044078	0.173718
	C9849	C	0.839914	0.144376	0.173235
	C9850	C	0.816241	0.099319	0.326365
	C9851	C	0.869350	0.204501	0.326701
	C9852	C	0.783337	0.166078	0.499679
	C9853	C	0.845866	0.103566	-0.000239
	C9854	C	0.810936	0.139540	0.498999
	C9855	C	0.873300	0.076759	-0.000368
	C9856	C	0.812541	0.092755	0.250142
	C9857	C	0.865991	0.197548	0.250355
	C9858	C	0.786737	0.050229	0.250203
	C9859	C	0.843259	0.151319	0.249659
	C9860	C	0.790309	0.159331	0.499570
	C9861	C	0.852817	0.096786	-0.000083
	C9862	C	0.803906	0.146203	0.498812
	C9863	C	0.866363	0.083564	-0.000411
	C9864	C	0.806079	0.081891	0.250334
	C9865	C	0.860265	0.185812	0.250104
	C9866	C	0.793358	0.060897	0.250403
	C9867	C	0.849032	0.163020	0.249572
	C9868	C	0.793660	0.155687	0.505480
	C9869	C	0.856031	0.092898	0.486969
	C9870	C	0.800814	0.150236	-0.006420
	C9871	C	0.863133	0.087460	0.036175
	C9872	C	0.800293	0.149265	0.504937
	C9873	C	0.862638	0.086459	0.487147
	C9874	C	0.794214	0.156701	-0.006641
	C9875	C	0.856505	0.093900	0.036307
	C9876	C	0.802830	0.076479	0.281932
	C9877	C	0.856803	0.180574	0.258869
	C9878	C	0.796627	0.066286	0.219044
	C9879	C	0.852543	0.168253	0.241015
	C9880	C	0.796657	0.066300	0.281895
	C9881	C	0.851362	0.169520	0.258391
	C9882	C	0.802809	0.076455	0.219169
	C9883	C	0.858013	0.179279	0.241446
	N9884	N	0.773169	0.176130	0.452519
	N9885	N	0.835689	0.113568	0.452161
	N9886	N	0.821039	0.129333	0.046944
	N9887	N	0.883409	0.066621	0.047524
	N9888	N	0.821075	0.129419	0.452187
	N9889	N	0.883383	0.066561	0.452788
	N9890	N	0.773275	0.176144	0.047289
	N9891	N	0.835594	0.113413	0.046738
	N9892	N	0.821785	0.108920	0.202683
	N9893	N	0.874305	0.214761	0.203130
	N9894	N	0.776778	0.035052	0.297805
	N9895	N	0.834857	0.134208	0.297058
	N9896	N	0.776796	0.035048	0.202711
	N9897	N	0.834914	0.134136	0.202063
	N9898	N	0.821741	0.108970	0.297647
	N9899	N	0.874297	0.214793	0.297785
	H9900	H	0.780394	0.168924	0.851325
	H9901	H	0.842992	0.106753	0.851245
	H9902	H	0.813818	0.136448	0.647643
	H9903	H	0.876470	0.074145	0.648484
	H9904	H	0.813719	0.136231	0.851398
	H9905	H	0.876422	0.074228	0.851741
	H9906	H	0.780394	0.168927	0.648349
	H9907	H	0.842770	0.106217	0.647904
	H9908	H	0.815171	0.097479	0.600732
	H9909	H	0.868450	0.202614	0.601505
	H9910	H	0.783744	0.045707	0.900726
	H9911	H	0.840514	0.146402	0.899619
	H9912	H	0.783652	0.045797	0.599883
	H9913	H	0.840941	0.146160	0.600301
	H9914	H	0.815332	0.097429	0.899114
	H9915	H	0.868379	0.202723	0.899779
	H9916	H	0.790579	0.157198	1.012324
	H9917	H	0.853266	0.094904	0.935250
	H9918	H	0.803183	0.147549	0.488282
	H9919	H	0.865899	0.085325	0.521990
	H9920	H	0.802324	0.145765	1.012644
	H9921	H	0.864997	0.083557	0.935180
	H9922	H	0.791514	0.158966	0.488550
	H9923	H	0.854170	0.096783	0.521821
	H9924	H	0.804824	0.080842	0.746783
	H9925	H	0.859619	0.183962	0.771096
	H9926	H	0.794537	0.061880	0.753823
	H9927	H	0.849675	0.164918	0.730428
	H9928	H	0.793858	0.062879	0.746785
	H9929	H	0.850041	0.164355	0.770860
	H9930	H	0.805454	0.079931	0.753604
	H9931	H	0.859265	0.184504	0.729989
	Co9932	Co	0.880530	0.227712	0.625979
	Co9933	Co	0.828374	0.121420	0.624978
	Co9934	Co	0.768813	0.024151	0.874803
	Co9935	Co	0.828341	0.121423	0.873904
	C9936	C	0.779272	0.170089	0.924119
	C9937	C	0.841771	0.107694	0.923545
	C9938	C	0.814987	0.135394	0.575090
	C9939	C	0.877447	0.072818	0.575907
	C9940	C	0.814921	0.135194	0.924273
	C9941	C	0.877517	0.072891	0.923823
	C9942	C	0.779224	0.170090	0.575812
	C9943	C	0.841683	0.107453	0.575432
	C9944	C	0.816244	0.099273	0.673504
	C9945	C	0.869349	0.204537	0.674339
	C9946	C	0.782687	0.044086	0.827037
	C9947	C	0.839719	0.144479	0.826442
	C9948	C	0.782651	0.044126	0.673566
	C9949	C	0.839915	0.144351	0.673484
	C9950	C	0.816322	0.099220	0.825898
	C9951	C	0.869314	0.204597	0.826992
	C9952	C	0.783414	0.166105	0.999955
	C9953	C	0.845830	0.103511	0.499392
	C9954	C	0.810838	0.139305	1.000366
	C9955	C	0.873249	0.076661	0.499593
	C9956	C	0.812525	0.092701	0.749855
	C9957	C	0.865952	0.197568	0.750695
	C9958	C	0.786670	0.050317	0.750350
	C9959	C	0.843282	0.151343	0.750102
	C9960	C	0.790375	0.159336	1.000276
	C9961	C	0.852810	0.096774	0.499576
	C9962	C	0.803897	0.146123	1.000252
	C9963	C	0.866347	0.083575	0.499697
	C9964	C	0.806028	0.081878	0.750111
	C9965	C	0.860227	0.185836	0.750668
	C9966	C	0.793277	0.060960	0.750379
	C9967	C	0.849041	0.163011	0.750389
	C9968	C	0.793476	0.155252	1.007285
	C9969	C	0.856035	0.092860	0.963527
	C9970	C	0.800549	0.149820	0.493077
	C9971	C	0.863132	0.087473	0.512214
	C9972	C	0.800085	0.148796	1.007209
	C9973	C	0.862662	0.086419	0.963378
	C9974	C	0.793922	0.156237	0.493289
	C9975	C	0.856520	0.093915	0.511883
	C9976	C	0.802600	0.076764	0.748154
	C9977	C	0.857462	0.179838	0.762152
	C9978	C	0.796746	0.066026	0.752481
	C9979	C	0.851814	0.169028	0.739024
	C9980	C	0.796404	0.066595	0.748206
	C9981	C	0.852032	0.168728	0.761997
	C9982	C	0.802937	0.076216	0.752417
	C9983	C	0.857262	0.180109	0.739195
	N9984	N	0.773218	0.176060	0.952832
	N9985	N	0.835667	0.113556	0.952251
	N9986	N	0.821032	0.129355	0.546605
	N9987	N	0.883466	0.066753	0.547169
	N9988	N	0.820990	0.129250	0.952520
	N9989	N	0.883521	0.066796	0.952931
	N9990	N	0.773153	0.176079	0.547172
	N9991	N	0.835650	0.113467	0.546886
	N9992	N	0.821767	0.108869	0.701923
	N9993	N	0.874286	0.214792	0.703234
	N9994	N	0.776809	0.034971	0.798037
	N9995	N	0.834706	0.134281	0.797093
	N9996	N	0.776778	0.035016	0.702707
	N9997	N	0.834833	0.134200	0.702164
	N9998	N	0.821811	0.108824	0.796905
	N9999	N	0.874293	0.214808	0.798011
	H10000	H	0.770403	0.338262	0.352397
	H10001	H	0.832672	0.275458	0.351991
	H10002	H	0.803454	0.305152	0.147657
	H10003	H	0.865857	0.242564	0.148144
	H10004	H	0.803265	0.304752	0.352163
	H10005	H	0.865937	0.242505	0.352417
	H10006	H	0.770500	0.338553	0.148069
	H10007	H	0.832831	0.275703	0.148270
	H10008	H	0.805822	0.265301	0.100442
	H10009	H	0.857319	0.372307	0.100956
	H10010	H	0.778333	0.208749	0.399274
	H10011	H	0.830063	0.315495	0.399078
	H10012	H	0.778092	0.208853	0.100523
	H10013	H	0.830067	0.315309	0.099575
	H10014	H	0.806080	0.265061	0.399217
	H10015	H	0.857113	0.372358	0.398958
	H10016	H	0.781347	0.328039	0.553790
	H10017	H	0.843897	0.265592	0.523387
	H10018	H	0.793151	0.316729	0.050157
	H10019	H	0.854789	0.252454	0.077297
	H10020	H	0.793023	0.316536	0.553378
	H10021	H	0.855460	0.253874	0.523162
	H10022	H	0.781500	0.328348	0.049802
	H10023	H	0.843111	0.263934	0.077713
	H10024	H	0.796841	0.246864	0.169872
	H10025	H	0.848387	0.353751	0.257170
	H10026	H	0.787401	0.227075	0.329354
	H10027	H	0.839025	0.333881	0.241473
	H10028	H	0.787212	0.227302	0.169164
	H10029	H	0.838979	0.333955	0.256045
	H10030	H	0.797001	0.246660	0.328823
	H10031	H	0.848448	0.353645	0.242425
	Co10032	Co	0.869431	0.397527	0.126101
	Co10033	Co	0.818040	0.290226	0.125532
	Co10034	Co	0.765853	0.184012	0.374332
	Co10035	Co	0.818055	0.290259	0.374566
	C10036	C	0.769173	0.339253	0.424193
	C10037	C	0.831568	0.276612	0.424570
	C10038	C	0.804574	0.303934	0.075418
	C10039	C	0.867021	0.241385	0.076249
	C10040	C	0.804507	0.303758	0.424152
	C10041	C	0.867032	0.241305	0.424733
	C10042	C	0.769195	0.339331	0.075494
	C10043	C	0.831599	0.276690	0.075843
	C10044	C	0.806794	0.267139	0.173904
	C10045	C	0.858222	0.374218	0.173756
	C10046	C	0.777376	0.206862	0.326155
	C10047	C	0.829228	0.313544	0.325770
	C10048	C	0.777253	0.206941	0.173597
	C10049	C	0.829221	0.313489	0.173086
	C10050	C	0.806914	0.267006	0.326328
	C10051	C	0.858122	0.374224	0.326116
	C10052	C	0.773154	0.334983	0.500258
	C10053	C	0.835637	0.272482	-0.000170
	C10054	C	0.800501	0.308049	0.499888
	C10055	C	0.862949	0.245440	-0.000150
	C10056	C	0.803459	0.260100	0.249906
	C10057	C	0.854836	0.367190	0.249700
	C10058	C	0.780747	0.213842	0.249652
	C10059	C	0.832606	0.320487	0.249400
	C10060	C	0.780070	0.328141	0.499859
	C10061	C	0.842545	0.265600	-0.000132
	C10062	C	0.793555	0.314830	0.499576
	C10063	C	0.856058	0.252349	-0.000134
	C10064	C	0.797734	0.248355	0.249358
	C10065	C	0.849189	0.355371	0.249516
	C10066	C	0.786497	0.225541	0.249374
	C10067	C	0.838221	0.332310	0.249125
	C10068	C	0.783725	0.325195	0.530235
	C10069	C	0.846230	0.262669	0.513406
	C10070	C	0.790369	0.318796	0.027821
	C10071	C	0.852393	0.255286	0.043383
	C10072	C	0.790306	0.318679	0.529804
	C10073	C	0.852757	0.256054	0.513137
	C10074	C	0.783792	0.325309	0.027799
	C10075	C	0.845796	0.261771	0.043415
	C10076	C	0.794773	0.242541	0.204538
	C10077	C	0.846364	0.349467	0.253625
	C10078	C	0.789441	0.231371	0.294011
	C10079	C	0.841064	0.338231	0.245063
	C10080	C	0.789323	0.231456	0.204430
	C10081	C	0.841028	0.338272	0.253142
	C10082	C	0.794894	0.242459	0.293976
	C10083	C	0.846405	0.349420	0.245478
	N10084	N	0.763109	0.345252	0.452765
	N10085	N	0.825573	0.282745	0.453128
	N10086	N	0.810658	0.297938	0.047019
	N10087	N	0.873066	0.235363	0.047781
	N10088	N	0.810562	0.297792	0.453022
	N10089	N	0.873093	0.235329	0.453648
	N10090	N	0.763118	0.345292	0.046620
	N10091	N	0.825548	0.282693	0.047239
	N10092	N	0.811787	0.277322	0.202641
	N10093	N	0.863148	0.384475	0.202620
	N10094	N	0.772315	0.196698	0.297560
	N10095	N	0.824302	0.303242	0.297185
	N10096	N	0.772255	0.196719	0.202675
	N10097	N	0.824279	0.303213	0.202215
	N10098	N	0.811861	0.277266	0.297383
	N10099	N	0.863082	0.384474	0.297529
	H10100	H	0.770037	0.337534	0.850665
	H10101	H	0.832637	0.275240	0.851387
	H10102	H	0.803537	0.305342	0.647720
	H10103	H	0.865734	0.242145	0.648710
	H10104	H	0.803502	0.304977	0.851555
	H10105	H	0.865941	0.242455	0.851523
	H10106	H	0.770071	0.337725	0.647841
	H10107	H	0.832690	0.275539	0.649257
	H10108	H	0.805686	0.265568	0.600177
	H10109	H	0.857317	0.372298	0.600460
	H10110	H	0.778413	0.208695	0.898031
	H10111	H	0.830003	0.315599	0.898812
	H10112	H	0.777989	0.208952	0.600019
	H10113	H	0.830258	0.315311	0.600510
	H10114	H	0.806211	0.264899	0.899466
	H10115	H	0.857309	0.372207	0.898786
	H10116	H	0.780364	0.325884	0.948479
	H10117	H	0.843831	0.265487	0.922915
	H10118	H	0.792260	0.314839	0.445450
	H10119	H	0.854658	0.252321	0.477210
	H10120	H	0.792043	0.314384	0.948431
	H10121	H	0.855475	0.253941	0.922345
	H10122	H	0.780595	0.326392	0.446365
	H10123	H	0.843051	0.263947	0.478198
	H10124	H	0.796724	0.246969	0.750481
	H10125	H	0.848929	0.353254	0.789655
	H10126	H	0.787539	0.227021	0.748568
	H10127	H	0.838373	0.334572	0.710104
	H10128	H	0.787017	0.227555	0.749263
	H10129	H	0.839464	0.333572	0.789986
	H10130	H	0.797135	0.246547	0.748667
	H10131	H	0.847792	0.354331	0.709552
	Co10132	Co	0.869441	0.397532	0.625714
	Co10133	Co	0.818102	0.290338	0.625379
	Co10134	Co	0.765890	0.183980	0.874417
	Co10135	Co	0.818132	0.290241	0.874356
	C10136	C	0.768955	0.338829	0.923208
	C10137	C	0.831520	0.276458	0.923836
	C10138	C	0.804635	0.304066	0.575885
	C10139	C	0.866936	0.241173	0.576634
	C10140	C	0.804589	0.303830	0.923572
	C10141	C	0.867048	0.241339	0.924039
	C10142	C	0.768988	0.338931	0.576010
	C10143	C	0.831585	0.276664	0.576541
	C10144	C	0.806752	0.267278	0.673216
	C10145	C	0.858223	0.374244	0.673073
	C10146	C	0.777378	0.206900	0.825510
	C10147	C	0.829178	0.313626	0.826229
	C10148	C	0.777162	0.207032	0.672739
	C10149	C	0.829298	0.313501	0.673631
	C10150	C	0.807009	0.266936	0.826201
	C10151	C	0.858233	0.374190	0.825967
	C10152	C	0.773118	0.334909	0.999292
	C10153	C	0.835632	0.272550	0.500837
	C10154	C	0.800471	0.307852	0.999303
	C10155	C	0.862897	0.245233	0.500525
	C10156	C	0.803498	0.260132	0.749466
	C10157	C	0.854860	0.367229	0.749478
	C10158	C	0.780695	0.213918	0.748802
	C10159	C	0.832584	0.320578	0.749975
	C10160	C	0.780056	0.328067	0.999234
	C10161	C	0.842551	0.265648	0.500567
	C10162	C	0.793542	0.314741	0.999109
	C10163	C	0.855977	0.252141	0.500193
	C10164	C	0.797732	0.248430	0.749394
	C10165	C	0.849201	0.355442	0.749693
	C10166	C	0.786465	0.225597	0.748937
	C10167	C	0.838177	0.332419	0.749964
	C10168	C	0.783195	0.323992	0.970560
	C10169	C	0.846220	0.262666	0.956534
	C10170	C	0.789894	0.317750	0.469276
	C10171	C	0.852307	0.255164	0.487336
	C10172	C	0.789763	0.317461	0.970550
	C10173	C	0.852798	0.256151	0.956461
	C10174	C	0.783306	0.324265	0.469609
	C10175	C	0.845773	0.261755	0.487616
	C10176	C	0.794696	0.242705	0.749804
	C10177	C	0.846644	0.349258	0.772202
	C10178	C	0.789476	0.231346	0.748895
	C10179	C	0.840690	0.338638	0.727635
	C10180	C	0.789227	0.231632	0.749437
	C10181	C	0.841285	0.338082	0.772315
	C10182	C	0.794955	0.242407	0.748963
	C10183	C	0.846048	0.349822	0.727425
	N10184	N	0.763001	0.345015	0.952034
	N10185	N	0.825519	0.282565	0.952666
	N10186	N	0.810633	0.297969	0.547252
	N10187	N	0.873030	0.235229	0.548089
	N10188	N	0.810664	0.297883	0.952487
	N10189	N	0.873082	0.235344	0.953333
	N10190	N	0.763011	0.345062	0.546999
	N10191	N	0.825584	0.282754	0.547418
	N10192	N	0.811778	0.277443	0.702481
	N10193	N	0.863148	0.384538	0.702284
	N10194	N	0.772326	0.196712	0.797074
	N10195	N	0.824306	0.303298	0.797431
	N10196	N	0.772193	0.196826	0.702119
	N10197	N	0.824363	0.303242	0.702683
	N10198	N	0.811940	0.277232	0.797542
	N10199	N	0.863153	0.384486	0.797401
	H10200	H	0.759188	0.507838	0.350805
	H10201	H	0.821811	0.445562	0.352331
	H10202	H	0.792255	0.474701	0.147329
	H10203	H	0.854597	0.411781	0.148263
	H10204	H	0.792248	0.474219	0.350826
	H10205	H	0.854757	0.412060	0.351774
	H10206	H	0.759242	0.508024	0.147099
	H10207	H	0.821656	0.445320	0.148844
	H10208	H	0.794699	0.434980	0.101570
	H10209	H	0.846860	0.541196	0.100495
	H10210	H	0.767507	0.378049	0.398708
	H10211	H	0.819266	0.484756	0.398643
	H10212	H	0.767716	0.377920	0.101118
	H10213	H	0.818870	0.485218	0.100027
	H10214	H	0.794994	0.434697	0.399203
	H10215	H	0.846670	0.541303	0.399408
	H10216	H	0.770257	0.497625	0.425855
	H10217	H	0.832231	0.434269	0.435452
	H10218	H	0.781392	0.485293	-0.009240
	H10219	H	0.843853	0.422510	-0.009311
	H10220	H	0.781899	0.486051	0.426022
	H10221	H	0.843871	0.422752	0.435910
	H10222	H	0.769795	0.496981	-0.009500
	H10223	H	0.832267	0.434199	-0.009041
	H10224	H	0.786247	0.415934	0.300473
	H10225	H	0.837415	0.523073	0.143345
	H10226	H	0.776279	0.396848	0.200575
	H10227	H	0.828281	0.503176	0.356218
	H10228	H	0.776832	0.396198	0.300163
	H10229	H	0.827831	0.503508	0.143058
	H10230	H	0.785678	0.416607	0.200451
	H10231	H	0.837912	0.522752	0.356442
	Co10232	Co	0.859191	0.566021	0.125639
	Co10233	Co	0.806866	0.459900	0.124938
	Co10234	Co	0.755633	0.352787	0.374121
	Co10235	Co	0.806935	0.459828	0.374171
	C10236	C	0.758002	0.508868	0.423026
	C10237	C	0.820574	0.446493	0.424210
	C10238	C	0.793383	0.473521	0.075022
	C10239	C	0.855835	0.410869	0.075999
	C10240	C	0.793351	0.473253	0.423005
	C10241	C	0.855827	0.410954	0.424337
	C10242	C	0.758039	0.509013	0.074575
	C10243	C	0.820471	0.446383	0.076572
	C10244	C	0.795669	0.436789	0.174061
	C10245	C	0.847753	0.543103	0.173547
	C10246	C	0.766671	0.376091	0.326114
	C10247	C	0.818245	0.482931	0.325521
	C10248	C	0.766767	0.376036	0.173704
	C10249	C	0.818036	0.483162	0.173067
	C10250	C	0.795820	0.436633	0.326277
	C10251	C	0.847664	0.543165	0.326511
	C10252	C	0.762022	0.504670	0.499073
	C10253	C	0.824539	0.442238	0.000855
	C10254	C	0.789298	0.477492	0.498729
	C10255	C	0.851814	0.415085	-0.000027
	C10256	C	0.792355	0.429735	0.250259
	C10257	C	0.844214	0.536187	0.249946
	C10258	C	0.770073	0.383094	0.250019
	C10259	C	0.821571	0.490000	0.249440
	C10260	C	0.768903	0.497755	0.498753
	C10261	C	0.831439	0.435338	0.000856
	C10262	C	0.782400	0.484393	0.498914
	C10263	C	0.844863	0.421902	0.000035
	C10264	C	0.786723	0.417933	0.250387
	C10265	C	0.838452	0.524528	0.249874
	C10266	C	0.775723	0.394908	0.250403
	C10267	C	0.827265	0.501726	0.249772
	C10268	C	0.772594	0.494783	0.457779
	C10269	C	0.834816	0.431820	0.464056
	C10270	C	0.778938	0.487898	-0.005721
	C10271	C	0.841377	0.425173	-0.005201
	C10272	C	0.779171	0.488244	0.457961
	C10273	C	0.841362	0.425264	0.464443
	C10274	C	0.772366	0.494452	-0.006131
	C10275	C	0.834824	0.431747	-0.004900
	C10276	C	0.784049	0.411815	0.278403
	C10277	C	0.835453	0.518774	0.190116
	C10278	C	0.778423	0.400999	0.222594
	C10279	C	0.830284	0.507507	0.309523
	C10280	C	0.778725	0.400610	0.278430
	C10281	C	0.829998	0.507689	0.189927
	C10282	C	0.783759	0.412187	0.222596
	C10283	C	0.835709	0.518633	0.309575
	N10284	N	0.751927	0.514836	0.451686
	N10285	N	0.814496	0.452460	0.452701
	N10286	N	0.799389	0.467447	0.046452
	N10287	N	0.861903	0.404931	0.047268
	N10288	N	0.799390	0.467315	0.452354
	N10289	N	0.861861	0.404927	0.453151
	N10290	N	0.751965	0.515002	0.045692
	N10291	N	0.814409	0.452381	0.047523
	N10292	N	0.800672	0.447010	0.202707
	N10293	N	0.852815	0.553208	0.202635
	N10294	N	0.761780	0.365797	0.297011
	N10295	N	0.813218	0.472761	0.296851
	N10296	N	0.761824	0.365783	0.202298
	N10297	N	0.813086	0.472888	0.201727
	N10298	N	0.800772	0.446898	0.297336
	N10299	N	0.852769	0.553252	0.297653
	H10300	H	0.758963	0.507518	0.849460
	H10301	H	0.821535	0.445028	0.852320
	H10302	H	0.792348	0.474957	0.647133
	H10303	H	0.854840	0.412164	0.649457
	H10304	H	0.792145	0.474527	0.850375
	H10305	H	0.854796	0.412264	0.851306
	H10306	H	0.758958	0.507451	0.647599
	H10307	H	0.821321	0.444791	0.648282
	H10308	H	0.794646	0.434916	0.599086
	H10309	H	0.846819	0.541230	0.601298
	H10310	H	0.767715	0.377801	0.898282
	H10311	H	0.819018	0.484903	0.899671
	H10312	H	0.767532	0.377853	0.599696
	H10313	H	0.819070	0.484861	0.601278
	H10314	H	0.794945	0.434384	0.897875
	H10315	H	0.846780	0.541383	0.899602
	H10316	H	0.769894	0.497078	1.006000
	H10317	H	0.832458	0.434736	1.010098
	H10318	H	0.781038	0.484474	0.571677
	H10319	H	0.843995	0.422679	0.565369
	H10320	H	0.781498	0.485494	1.006601
	H10321	H	0.844059	0.423100	1.009524
	H10322	H	0.769389	0.495939	0.572399
	H10323	H	0.832406	0.434380	0.564931
	H10324	H	0.786052	0.415977	0.725295
	H10325	H	0.837199	0.523507	0.815231
	H10326	H	0.776261	0.396498	0.771682
	H10327	H	0.828595	0.502821	0.684822
	H10328	H	0.776668	0.396176	0.725724
	H10329	H	0.827571	0.503955	0.815396
	H10330	H	0.785680	0.416296	0.770828
	H10331	H	0.838204	0.522384	0.684728
	Co10332	Co	0.859181	0.566066	0.625548
	Co10333	Co	0.806923	0.459914	0.624962
	Co10334	Co	0.755563	0.352761	0.873956
	Co10335	Co	0.806884	0.459786	0.873957
	C10336	C	0.757893	0.508763	0.921971
	C10337	C	0.820420	0.446214	0.924594
	C10338	C	0.793423	0.473626	0.575113
	C10339	C	0.855886	0.410977	0.576760
	C10340	C	0.793340	0.473409	0.922816
	C10341	C	0.855941	0.411085	0.923840
	C10342	C	0.757901	0.508675	0.575145
	C10343	C	0.820337	0.446089	0.575824
	C10344	C	0.795653	0.436744	0.672294
	C10345	C	0.847736	0.543124	0.673929
	C10346	C	0.766781	0.375923	0.825425
	C10347	C	0.818108	0.483084	0.826649
	C10348	C	0.766683	0.375936	0.672677
	C10349	C	0.818127	0.483051	0.674247
	C10350	C	0.795786	0.436491	0.824866
	C10351	C	0.847696	0.543198	0.826399
	C10352	C	0.762034	0.504790	0.998105
	C10353	C	0.824526	0.442208	0.500100
	C10354	C	0.789290	0.477607	0.998788
	C10355	C	0.851737	0.414989	0.500728
	C10356	C	0.792305	0.429603	0.748338
	C10357	C	0.844264	0.536291	0.750104
	C10358	C	0.770094	0.382906	0.748713
	C10359	C	0.821498	0.490068	0.750464
	C10360	C	0.768951	0.497929	0.998249
	C10361	C	0.831427	0.435299	0.500228
	C10362	C	0.782408	0.484545	0.998856
	C10363	C	0.844838	0.421868	0.500687
	C10364	C	0.786633	0.417809	0.748106
	C10365	C	0.838502	0.524599	0.750057
	C10366	C	0.775708	0.394731	0.748350
	C10367	C	0.827268	0.501765	0.750479
	C10368	C	0.772406	0.494522	1.002863
	C10369	C	0.834940	0.432067	1.006090
	C10370	C	0.778701	0.487341	0.539997
	C10371	C	0.841450	0.425268	0.536846
	C10372	C	0.778985	0.488001	1.003172
	C10373	C	0.841480	0.425482	1.005672
	C10374	C	0.772117	0.493846	0.540030
	C10375	C	0.834887	0.431816	0.536657
	C10376	C	0.783931	0.411775	0.735595
	C10377	C	0.835335	0.519035	0.786701
	C10378	C	0.778411	0.400802	0.761337
	C10379	C	0.830435	0.507310	0.713737
	C10380	C	0.778617	0.400562	0.735407
	C10381	C	0.829890	0.507963	0.786993
	C10382	C	0.783754	0.411998	0.760871
	C10383	C	0.835893	0.518374	0.713632
	N10384	N	0.751875	0.514842	0.951168
	N10385	N	0.814375	0.452268	0.952841
	N10386	N	0.799443	0.467524	0.546843
	N10387	N	0.861895	0.404946	0.547489
	N10388	N	0.799352	0.467371	0.951763
	N10389	N	0.861962	0.405033	0.952650
	N10390	N	0.751884	0.514751	0.546386
	N10391	N	0.814368	0.452228	0.547026
	N10392	N	0.800615	0.446941	0.701586
	N10393	N	0.852799	0.553279	0.702634
	N10394	N	0.761809	0.365645	0.796983
	N10395	N	0.813130	0.472842	0.797618
	N10396	N	0.761753	0.365644	0.701929
	N10397	N	0.813152	0.472819	0.702866
	N10398	N	0.800698	0.446801	0.796536
	N10399	N	0.852770	0.553332	0.797503
	H10400	H	0.748581	0.675939	0.350845
	H10401	H	0.811308	0.613736	0.351224
	H10402	H	0.782237	0.643767	0.148304
	H10403	H	0.844535	0.580830	0.148129
	H10404	H	0.782000	0.643457	0.351087
	H10405	H	0.844709	0.581027	0.350689
	H10406	H	0.748518	0.675702	0.149382
	H10407	H	0.811164	0.613518	0.148773
	H10408	H	0.784299	0.603893	0.100321
	H10409	H	0.841317	0.704349	0.099173
	H10410	H	0.756753	0.547367	0.398042
	H10411	H	0.809685	0.652677	0.399060
	H10412	H	0.756699	0.547441	0.100064
	H10413	H	0.809756	0.652521	0.100223
	H10414	H	0.784368	0.603779	0.399023
	H10415	H	0.841487	0.704014	0.398836
	H10416	H	0.759517	0.665417	0.518107
	H10417	H	0.821347	0.601324	0.522556
	H10418	H	0.770737	0.653032	-0.046443
	H10419	H	0.834124	0.592164	-0.031979
	H10420	H	0.771282	0.654134	0.518162
	H10421	H	0.833074	0.589993	0.521850
	H10422	H	0.759072	0.664573	-0.046388
	H10423	H	0.822446	0.603719	-0.031779
	H10424	H	0.775111	0.585591	0.332952
	H10425	H	0.830874	0.687507	0.270075
	H10426	H	0.765717	0.565841	0.165197
	H10427	H	0.819999	0.669646	0.227804
	H10428	H	0.765634	0.565939	0.333213
	H10429	H	0.819862	0.669686	0.270729
	H10430	H	0.775233	0.585498	0.165187
	H10431	H	0.830914	0.687573	0.226975
	Co10432	Co	0.856307	0.725921	0.125181
	Co10433	Co	0.796703	0.628561	0.125452
	Co10434	Co	0.744452	0.522458	0.373596
	Co10435	Co	0.796718	0.628619	0.374128
	C10436	C	0.747477	0.677016	0.423483
	C10437	C	0.810141	0.614767	0.423251
	C10438	C	0.783357	0.642519	0.075877
	C10439	C	0.845745	0.579787	0.075920
	C10440	C	0.783237	0.642353	0.423735
	C10441	C	0.845836	0.579964	0.423216
	C10442	C	0.747469	0.677009	0.076668
	C10443	C	0.810052	0.614667	0.076171
	C10444	C	0.785192	0.605753	0.173270
	C10445	C	0.842446	0.705914	0.172193
	C10446	C	0.755771	0.545522	0.325179
	C10447	C	0.808710	0.650872	0.325996
	C10448	C	0.755749	0.545584	0.172769
	C10449	C	0.808754	0.650793	0.173448
	C10450	C	0.785241	0.605679	0.326002
	C10451	C	0.842515	0.705776	0.325656
	C10452	C	0.751589	0.672981	0.499446
	C10453	C	0.814189	0.610627	0.000527
	C10454	C	0.779155	0.646382	0.499788
	C10455	C	0.841681	0.583908	-0.000105
	C10456	C	0.781743	0.598823	0.249605
	C10457	C	0.838480	0.699621	0.248791
	C10458	C	0.759177	0.552504	0.249103
	C10459	C	0.812531	0.657332	0.249634
	C10460	C	0.758562	0.666222	0.499731
	C10461	C	0.821171	0.603891	0.000687
	C10462	C	0.772179	0.653152	0.499672
	C10463	C	0.834703	0.590654	0.000452
	C10464	C	0.776001	0.587143	0.249240
	C10465	C	0.831829	0.689063	0.248576
	C10466	C	0.764906	0.564213	0.249248
	C10467	C	0.818999	0.668170	0.249368
	C10468	C	0.762061	0.662920	0.509886
	C10469	C	0.824224	0.599571	0.511893
	C10470	C	0.768449	0.656047	-0.026221
	C10471	C	0.831433	0.594396	-0.017601
	C10472	C	0.768710	0.656552	0.509915
	C10473	C	0.830867	0.593214	0.511926
	C10474	C	0.761840	0.662536	-0.025911
	C10475	C	0.824836	0.600889	-0.017487
	C10476	C	0.773121	0.581299	0.296231
	C10477	C	0.828496	0.683705	0.260946
	C10478	C	0.767764	0.570102	0.202186
	C10479	C	0.822305	0.673559	0.237008
	C10480	C	0.767715	0.570165	0.296088
	C10481	C	0.822274	0.673557	0.261219
	C10482	C	0.773149	0.581245	0.202197
	C10483	C	0.828534	0.683712	0.236765
	N10484	N	0.741437	0.683033	0.452434
	N10485	N	0.804037	0.620720	0.452034
	N10486	N	0.789423	0.636555	0.046959
	N10487	N	0.851827	0.573822	0.047201
	N10488	N	0.789353	0.636458	0.452270
	N10489	N	0.851903	0.573998	0.452339
	N10490	N	0.741403	0.682963	0.047646
	N10491	N	0.804040	0.620701	0.047033
	N10492	N	0.790227	0.615897	0.202425
	N10493	N	0.848345	0.714941	0.201296
	N10494	N	0.750730	0.535358	0.296327
	N10495	N	0.803186	0.641291	0.297082
	N10496	N	0.750714	0.535412	0.201524
	N10497	N	0.803227	0.641218	0.202321
	N10498	N	0.790276	0.615825	0.297313
	N10499	N	0.848394	0.714876	0.296502
	H10500	H	0.748971	0.676542	0.851220
	H10501	H	0.811294	0.613717	0.852249
	H10502	H	0.782149	0.643557	0.648567
	H10503	H	0.844710	0.581111	0.647293
	H10504	H	0.781989	0.643276	0.850636
	H10505	H	0.844673	0.581084	0.851540
	H10506	H	0.748583	0.675911	0.648265
	H10507	H	0.811192	0.613550	0.646840
	H10508	H	0.784467	0.603637	0.600251
	H10509	H	0.841296	0.704397	0.599261
	H10510	H	0.756262	0.547897	0.897692
	H10511	H	0.809838	0.652504	0.897493
	H10512	H	0.756855	0.547141	0.599447
	H10513	H	0.809832	0.652497	0.600547
	H10514	H	0.784236	0.603909	0.898133
	H10515	H	0.841404	0.704176	0.898934
	H10516	H	0.760123	0.666607	1.047143
	H10517	H	0.821694	0.602300	1.033126
	H10518	H	0.771177	0.654022	0.481414
	H10519	H	0.834625	0.593366	0.475864
	H10520	H	0.771849	0.655217	1.046567
	H10521	H	0.833396	0.590862	1.032616
	H10522	H	0.759419	0.665357	0.481452
	H10523	H	0.822842	0.604674	0.476199
	H10524	H	0.775230	0.585339	0.728343
	H10525	H	0.830516	0.688252	0.745446
	H10526	H	0.765735	0.565861	0.769175
	H10527	H	0.820320	0.668974	0.751735
	H10528	H	0.765548	0.565867	0.727638
	H10529	H	0.819553	0.670319	0.744563
	H10530	H	0.775352	0.585385	0.769096
	H10531	H	0.831246	0.686949	0.751859
	Co10532	Co	0.856309	0.726063	0.625141
	Co10533	Co	0.796691	0.628580	0.624922
	Co10534	Co	0.744376	0.522431	0.873371
	Co10535	Co	0.796735	0.628594	0.873918
	C10536	C	0.747689	0.677445	0.923750
	C10537	C	0.810134	0.614763	0.924282
	C10538	C	0.783288	0.642390	0.575698
	C10539	C	0.845819	0.579975	0.575069
	C10540	C	0.783228	0.642266	0.923320
	C10541	C	0.845823	0.579906	0.923770
	C10542	C	0.747489	0.677037	0.575586
	C10543	C	0.810079	0.614660	0.574927
	C10544	C	0.785330	0.605541	0.673347
	C10545	C	0.842412	0.706047	0.672542
	C10546	C	0.755485	0.545769	0.824970
	C10547	C	0.808818	0.650788	0.824935
	C10548	C	0.755786	0.545383	0.672305
	C10549	C	0.808788	0.650791	0.673036
	C10550	C	0.785210	0.605673	0.825396
	C10551	C	0.842472	0.705934	0.825769
	C10552	C	0.751719	0.673206	1.000178
	C10553	C	0.814194	0.610664	0.499023
	C10554	C	0.779158	0.646434	0.999654
	C10555	C	0.841714	0.584006	0.498875
	C10556	C	0.781850	0.598677	0.749375
	C10557	C	0.838452	0.699766	0.748967
	C10558	C	0.759069	0.552485	0.748529
	C10559	C	0.812558	0.657325	0.748921
	C10560	C	0.758677	0.666466	1.000275
	C10561	C	0.821146	0.603851	0.499163
	C10562	C	0.772208	0.653226	1.000020
	C10563	C	0.834745	0.590795	0.498793
	C10564	C	0.776051	0.586990	0.748962
	C10565	C	0.831817	0.689097	0.748708
	C10566	C	0.764819	0.564210	0.748427
	C10567	C	0.819041	0.668161	0.748602
	C10568	C	0.762429	0.663670	1.026650
	C10569	C	0.824434	0.600152	1.018621
	C10570	C	0.768668	0.656488	0.489571
	C10571	C	0.831702	0.595097	0.485870
	C10572	C	0.769051	0.657188	1.026561
	C10573	C	0.831025	0.593657	1.018530
	C10574	C	0.762031	0.662873	0.489531
	C10575	C	0.825067	0.601467	0.486078
	C10576	C	0.773132	0.581101	0.737179
	C10577	C	0.828312	0.684077	0.746609
	C10578	C	0.767760	0.570062	0.759714
	C10579	C	0.822526	0.673217	0.750336
	C10580	C	0.767663	0.570056	0.736861
	C10581	C	0.822106	0.673914	0.746499
	C10582	C	0.773213	0.581117	0.760188
	C10583	C	0.828729	0.683372	0.750612
	N10584	N	0.741541	0.683227	0.952721
	N10585	N	0.804080	0.620763	0.952765
	N10586	N	0.789368	0.636456	0.546863
	N10587	N	0.851899	0.574004	0.546749
	N10588	N	0.789335	0.636401	0.952224
	N10589	N	0.851871	0.573910	0.952645
	N10590	N	0.741442	0.683063	0.546664
	N10591	N	0.804018	0.620670	0.546575
	N10592	N	0.790316	0.615781	0.701993
	N10593	N	0.848314	0.715114	0.701538
	N10594	N	0.750525	0.535485	0.796329
	N10595	N	0.803267	0.641185	0.796377
	N10596	N	0.750710	0.535232	0.701352
	N10597	N	0.803255	0.641165	0.701939
	N10598	N	0.790260	0.615845	0.796521
	N10599	N	0.848345	0.715037	0.796836
	H10600	H	0.743026	0.830667	0.348750
	H10601	H	0.805550	0.768245	0.349004
	H10602	H	0.779615	0.803627	0.149658
	H10603	H	0.842342	0.741810	0.149990
	H10604	H	0.779537	0.803816	0.350095
	H10605	H	0.842125	0.741381	0.349137
	H10606	H	0.743094	0.830537	0.150891
	H10607	H	0.805576	0.768068	0.150775
	H10608	H	0.778782	0.766471	0.099906
	H10609	H	0.850153	0.774764	0.098367
	H10610	H	0.747279	0.714939	0.398927
	H10611	H	0.811845	0.795520	0.401374
	H10612	H	0.747116	0.715070	0.100242
	H10613	H	0.811885	0.795334	0.098525
	H10614	H	0.778813	0.766526	0.399397
	H10615	H	0.850212	0.774468	0.401614
	H10616	H	0.754580	0.820655	0.352375
	H10617	H	0.817044	0.757999	0.352585
	H10618	H	0.767454	0.811982	-0.146973
	H10619	H	0.829936	0.749429	0.147179
	H10620	H	0.767372	0.812078	0.352670
	H10621	H	0.829802	0.749450	0.352635
	H10622	H	0.754691	0.820589	-0.147204
	H10623	H	0.817161	0.758024	0.146987
	H10624	H	0.768550	0.749669	0.259675
	H10625	H	0.837223	0.780176	0.399842
	H10626	H	0.757195	0.732118	0.239551
	H10627	H	0.824419	0.788612	0.101106
	H10628	H	0.757550	0.731793	0.259394
	H10629	H	0.824449	0.788557	0.399642
	H10630	H	0.768180	0.750019	0.240055
	H10631	H	0.837181	0.780049	0.100854
	Co10632	Co	0.868471	0.782619	0.125535
	Co10633	Co	0.793730	0.788178	0.124809
	Co10634	Co	0.734089	0.690965	0.374215
	Co10635	Co	0.793690	0.788282	0.374518
	C10636	C	0.742051	0.832072	0.422897
	C10637	C	0.804591	0.769577	0.422826
	C10638	C	0.780831	0.802896	0.076323
	C10639	C	0.843501	0.740768	0.076658
	C10640	C	0.780758	0.802960	0.423454
	C10641	C	0.843344	0.740586	0.422499
	C10642	C	0.742128	0.831907	0.076757
	C10643	C	0.804661	0.769484	0.076742
	C10644	C	0.779877	0.768230	0.173360
	C10645	C	0.851646	0.774868	0.172864
	C10646	C	0.746247	0.713145	0.326025
	C10647	C	0.810341	0.795288	0.327116
	C10648	C	0.746169	0.713253	0.173482
	C10649	C	0.810355	0.795280	0.172769
	C10650	C	0.779890	0.768268	0.326355
	C10651	C	0.851659	0.774746	0.327126
	C10652	C	0.746063	0.827582	0.499742
	C10653	C	0.808676	0.765019	-0.000074
	C10654	C	0.776231	0.806205	0.500079
	C10655	C	0.838915	0.743896	0.000266
	C10656	C	0.775868	0.762054	0.249763
	C10657	C	0.846492	0.775473	0.249959
	C10658	C	0.749992	0.719664	0.249791
	C10659	C	0.815431	0.794133	0.250032
	C10660	C	0.753408	0.821395	0.499364
	C10661	C	0.816039	0.758950	0.000086
	C10662	C	0.768477	0.811274	0.499683
	C10663	C	0.831132	0.748870	0.000272
	C10664	C	0.769259	0.751386	0.249938
	C10665	C	0.838384	0.779403	0.250289
	C10666	C	0.756483	0.730495	0.249832
	C10667	C	0.823383	0.789645	0.250259
	C10668	C	0.757293	0.818718	0.417645
	C10669	C	0.819804	0.756242	0.417697
	C10670	C	0.764688	0.813815	-0.081977
	C10671	C	0.827203	0.751330	0.082105
	C10672	C	0.764582	0.813811	0.417733
	C10673	C	0.827101	0.751350	0.417550
	C10674	C	0.757384	0.818688	-0.082089
	C10675	C	0.819897	0.756203	0.081876
	C10676	C	0.766074	0.745905	0.255401
	C10677	C	0.834491	0.781985	0.333389
	C10678	C	0.759677	0.735966	0.244185
	C10679	C	0.827188	0.786840	0.167354
	C10680	C	0.759858	0.735777	0.255519
	C10681	C	0.827210	0.786875	0.333358
	C10682	C	0.765894	0.746106	0.244413
	C10683	C	0.834463	0.781911	0.167383
	N10684	N	0.736433	0.839029	0.452343
	N10685	N	0.798967	0.776495	0.451809
	N10686	N	0.787411	0.797992	0.048088
	N10687	N	0.850083	0.735875	0.047822
	N10688	N	0.787374	0.798120	0.452162
	N10689	N	0.849981	0.735770	0.450993
	N10690	N	0.736502	0.838885	0.047995
	N10691	N	0.798980	0.776335	0.047874
	N10692	N	0.785784	0.777297	0.202073
	N10693	N	0.859430	0.774643	0.201163
	N10694	N	0.740706	0.703541	0.297262
	N10695	N	0.802628	0.796231	0.298666
	N10696	N	0.740655	0.703610	0.202480
	N10697	N	0.802636	0.796221	0.200836
	N10698	N	0.785782	0.777325	0.297334
	N10699	N	0.859435	0.774536	0.298590
	H10700	H	0.743222	0.830913	0.849075
	H10701	H	0.805570	0.768067	0.848688
	H10702	H	0.779589	0.803962	0.650295
	H10703	H	0.842210	0.741682	0.648579
	H10704	H	0.779808	0.804098	0.850053
	H10705	H	0.842065	0.741320	0.850479
	H10706	H	0.743102	0.830637	0.650691
	H10707	H	0.805596	0.768258	0.650371
	H10708	H	0.778888	0.766703	0.599412
	H10709	H	0.850178	0.774663	0.598747
	H10710	H	0.747282	0.714764	0.899267
	H10711	H	0.811827	0.795388	0.901720
	H10712	H	0.747169	0.714999	0.600372
	H10713	H	0.811816	0.795654	0.599190
	H10714	H	0.778751	0.766731	0.899364
	H10715	H	0.850143	0.774519	0.900613
	H10716	H	0.754550	0.820388	1.146731
	H10717	H	0.817195	0.758106	0.852730
	H10718	H	0.767185	0.811752	0.646743
	H10719	H	0.829904	0.749475	0.645508
	H10720	H	0.767317	0.811842	1.146908
	H10721	H	0.829952	0.749504	0.853276
	H10722	H	0.754425	0.820382	0.646327
	H10723	H	0.817139	0.758188	0.646366
	H10724	H	0.767868	0.750690	0.624596
	H10725	H	0.837189	0.780355	0.600577
	H10726	H	0.757727	0.731627	0.873320
	H10727	H	0.824321	0.788460	0.899531
	H10728	H	0.756925	0.732656	0.624632
	H10729	H	0.824451	0.788935	0.600825
	H10730	H	0.768636	0.749598	0.873315
	H10731	H	0.837053	0.779948	0.899074
	Co10732	Co	0.868445	0.782466	0.625891
	Co10733	Co	0.793703	0.788350	0.625623
	Co10734	Co	0.734144	0.690992	0.874271
	Co10735	Co	0.793695	0.788171	0.874636
	C10736	C	0.742206	0.832113	0.922937
	C10737	C	0.804691	0.769524	0.922948
	C10738	C	0.780791	0.803060	0.577026
	C10739	C	0.843389	0.740729	0.575505
	C10740	C	0.780917	0.803111	0.923435
	C10741	C	0.843359	0.740522	0.923507
	C10742	C	0.742110	0.832071	0.577037
	C10743	C	0.804602	0.769567	0.576370
	C10744	C	0.779895	0.768330	0.672766
	C10745	C	0.851605	0.774803	0.672677
	C10746	C	0.746240	0.713154	0.826125
	C10747	C	0.810318	0.795349	0.827559
	C10748	C	0.746179	0.713266	0.673219
	C10749	C	0.810310	0.795458	0.672990
	C10750	C	0.779827	0.768336	0.825882
	C10751	C	0.851602	0.774848	0.826706
	C10752	C	0.746174	0.827540	0.999676
	C10753	C	0.808604	0.765109	0.499555
	C10754	C	0.776355	0.806263	0.999845
	C10755	C	0.838835	0.743862	0.498952
	C10756	C	0.775819	0.762180	0.749080
	C10757	C	0.846431	0.775476	0.749658
	C10758	C	0.749945	0.719789	0.749707
	C10759	C	0.815386	0.794222	0.750102
	C10760	C	0.753513	0.821390	0.999696
	C10761	C	0.815976	0.759015	0.499407
	C10762	C	0.768602	0.811311	0.999990
	C10763	C	0.831083	0.748946	0.499026
	C10764	C	0.769172	0.751589	0.748920
	C10765	C	0.838305	0.779398	0.749678
	C10766	C	0.756417	0.730622	0.749373
	C10767	C	0.823300	0.789672	0.750106
	C10768	C	0.757327	0.818624	1.081728
	C10769	C	0.819912	0.756251	0.918049
	C10770	C	0.764506	0.813694	0.581400
	C10771	C	0.827156	0.751433	0.580772
	C10772	C	0.764621	0.813730	1.081705
	C10773	C	0.827215	0.751367	0.918362
	C10774	C	0.757221	0.818612	0.581311
	C10775	C	0.819847	0.756299	0.581041
	C10776	C	0.765662	0.746510	0.679115
	C10777	C	0.834447	0.782106	0.666925
	C10778	C	0.759901	0.735748	0.818731
	C10779	C	0.827082	0.786768	0.833026
	C10780	C	0.759474	0.736295	0.679294
	C10781	C	0.827171	0.787041	0.667023
	C10782	C	0.766086	0.745941	0.818529
	C10783	C	0.834356	0.781837	0.832662
	N10784	N	0.736546	0.838988	0.951957
	N10785	N	0.799012	0.776385	0.951660
	N10786	N	0.787401	0.798169	0.548265
	N10787	N	0.850020	0.735858	0.546962
	N10788	N	0.787465	0.798108	0.951836
	N10789	N	0.850021	0.735739	0.951811
	N10790	N	0.736465	0.839024	0.548037
	N10791	N	0.798957	0.776493	0.547719
	N10792	N	0.785798	0.777346	0.702162
	N10793	N	0.859389	0.774556	0.701064
	N10794	N	0.740738	0.703565	0.797246
	N10795	N	0.802611	0.796306	0.799433
	N10796	N	0.740706	0.703607	0.702214
	N10797	N	0.802605	0.796387	0.701430
	N10798	N	0.785754	0.777344	0.797207
	N10799	N	0.859389	0.774566	0.798380
	H10800	H	0.755941	0.888494	0.349646
	H10801	H	0.818388	0.825950	0.348941
	H10802	H	0.793750	0.864409	0.151752
	H10803	H	0.856196	0.801840	0.150668
	H10804	H	0.793752	0.864458	0.349580
	H10805	H	0.856177	0.801835	0.349172
	H10806	H	0.755929	0.888345	0.151175
	H10807	H	0.818293	0.825756	0.150584
	H10808	H	0.787648	0.837081	0.098865
	H10809	H	0.863216	0.834271	0.098371
	H10810	H	0.749383	0.857934	0.401213
	H10811	H	0.824272	0.853145	0.401037
	H10812	H	0.749411	0.857928	0.098781
	H10813	H	0.824239	0.852999	0.098730
	H10814	H	0.787697	0.836887	0.401979
	H10815	H	0.863168	0.834101	0.401082
	H10816	H	0.768226	0.880073	0.350543
	H10817	H	0.830737	0.817697	0.350403
	H10818	H	0.781347	0.872640	0.150356
	H10819	H	0.843935	0.810260	0.149709
	H10820	H	0.781366	0.872615	0.351615
	H10821	H	0.843864	0.810203	0.350586
	H10822	H	0.768299	0.880256	0.149737
	H10823	H	0.830829	0.817834	0.149459
	H10824	H	0.774642	0.842512	0.399890
	H10825	H	0.850265	0.839849	0.099470
	H10826	H	0.761999	0.851274	0.100962
	H10827	H	0.837186	0.847390	0.399434
	H10828	H	0.761987	0.851108	0.399779
	H10829	H	0.837256	0.847666	0.099366
	H10830	H	0.774724	0.842673	0.101438
	H10831	H	0.850131	0.839409	0.399305
	Co10832	Co	0.881507	0.842401	0.126123
	Co10833	Co	0.805934	0.844951	0.125438
	Co10834	Co	0.731243	0.850932	0.374972
	Co10835	Co	0.805963	0.844992	0.373954
	C10836	C	0.754865	0.889751	0.423559
	C10837	C	0.817378	0.827291	0.423107
	C10838	C	0.794720	0.862994	0.077020
	C10839	C	0.857238	0.800541	0.076596
	C10840	C	0.794728	0.863011	0.423743
	C10841	C	0.857183	0.800463	0.423347
	C10842	C	0.754881	0.889721	0.077218
	C10843	C	0.817335	0.827180	0.076700
	C10844	C	0.789131	0.837220	0.173179
	C10845	C	0.864698	0.834546	0.172559
	C10846	C	0.747877	0.857808	0.327212
	C10847	C	0.822773	0.852798	0.326996
	C10848	C	0.747888	0.857863	0.172636
	C10849	C	0.822746	0.852721	0.172717
	C10850	C	0.789169	0.837213	0.327494
	C10851	C	0.864677	0.834499	0.326943
	C10852	C	0.759154	0.885831	0.500279
	C10853	C	0.821710	0.823445	-0.000185
	C10854	C	0.790422	0.866880	0.500509
	C10855	C	0.852932	0.804448	-0.000305
	C10856	C	0.783960	0.837864	0.250561
	C10857	C	0.859515	0.835128	0.249489
	C10858	C	0.752956	0.856651	0.250015
	C10859	C	0.827945	0.852139	0.249653
	C10860	C	0.766991	0.880831	0.500172
	C10861	C	0.829525	0.818409	-0.000061
	C10862	C	0.782652	0.872070	0.500710
	C10863	C	0.845170	0.809602	-0.000019
	C10864	C	0.775868	0.841804	0.250507
	C10865	C	0.851364	0.838883	0.249299
	C10866	C	0.760880	0.852124	0.250250
	C10867	C	0.836096	0.848332	0.249417
	C10868	C	0.771015	0.878524	0.417400
	C10869	C	0.833558	0.816179	0.417233
	C10870	C	0.778592	0.874299	0.083400
	C10871	C	0.841161	0.811934	0.083021
	C10872	C	0.778541	0.874257	0.417916
	C10873	C	0.841080	0.811865	0.417168
	C10874	C	0.771078	0.878619	0.083075
	C10875	C	0.833627	0.816200	0.082908
	C10876	C	0.771962	0.844362	0.333295
	C10877	C	0.847454	0.841425	0.165910
	C10878	C	0.764731	0.849438	0.167299
	C10879	C	0.839988	0.845768	0.332890
	C10880	C	0.764700	0.849325	0.333342
	C10881	C	0.840040	0.845967	0.165946
	C10882	C	0.772012	0.844495	0.167506
	C10883	C	0.847396	0.841210	0.332761
	N10884	N	0.748704	0.895743	0.452170
	N10885	N	0.811199	0.833269	0.451519
	N10886	N	0.800745	0.856720	0.048266
	N10887	N	0.863289	0.794337	0.047783
	N10888	N	0.800738	0.856711	0.452211
	N10889	N	0.863264	0.794310	0.452063
	N10890	N	0.748672	0.895628	0.048715
	N10891	N	0.811182	0.833207	0.048028
	N10892	N	0.796916	0.836967	0.201323
	N10893	N	0.872460	0.834331	0.201080
	N10894	N	0.740194	0.858803	0.298996
	N10895	N	0.814986	0.852975	0.298192
	N10896	N	0.740184	0.858813	0.201075
	N10897	N	0.814987	0.852947	0.201107
	N10898	N	0.796934	0.836973	0.298635
	N10899	N	0.872469	0.834303	0.298535
	H10900	H	0.755899	0.888470	0.849019
	H10901	H	0.818482	0.826154	0.848760
	H10902	H	0.793557	0.864024	0.650968
	H10903	H	0.856090	0.801649	0.650951
	H10904	H	0.793633	0.864093	0.849264
	H10905	H	0.856158	0.801816	0.848577
	H10906	H	0.755815	0.888260	0.651296
	H10907	H	0.818362	0.825961	0.650889
	H10908	H	0.787633	0.836775	0.599075
	H10909	H	0.863224	0.834488	0.599187
	H10910	H	0.749440	0.858177	0.901420
	H10911	H	0.824231	0.853120	0.900988
	H10912	H	0.749348	0.857757	0.598677
	H10913	H	0.824243	0.852908	0.599013
	H10914	H	0.787618	0.837072	0.901021
	H10915	H	0.863202	0.834270	0.901373
	H10916	H	0.768313	0.880265	0.849902
	H10917	H	0.830779	0.817746	0.850384
	H10918	H	0.781422	0.872907	0.650310
	H10919	H	0.843943	0.810344	0.649563
	H10920	H	0.781483	0.872938	0.850589
	H10921	H	0.843884	0.810268	0.850415
	H10922	H	0.768343	0.880389	0.649564
	H10923	H	0.830826	0.817880	0.649626
	H10924	H	0.774698	0.842482	0.899103
	H10925	H	0.850270	0.839831	0.600111
	H10926	H	0.761970	0.851199	0.600327
	H10927	H	0.837195	0.847413	0.899826
	H10928	H	0.761986	0.851181	0.899394
	H10929	H	0.837263	0.847637	0.599824
	H10930	H	0.774721	0.842738	0.600375
	H10931	H	0.850144	0.839578	0.899797
	Co10932	Co	0.881577	0.842489	0.625883
	Co10933	Co	0.805895	0.844788	0.625804
	Co10934	Co	0.731249	0.850841	0.874639
	Co10935	Co	0.805902	0.844884	0.874197
	C10936	C	0.754831	0.889690	0.923251
	C10937	C	0.817413	0.827319	0.922785
	C10938	C	0.794635	0.862809	0.577494
	C10939	C	0.857160	0.800385	0.576960
	C10940	C	0.794654	0.862844	0.923234
	C10941	C	0.857206	0.800500	0.922793
	C10942	C	0.754796	0.889570	0.577306
	C10943	C	0.817299	0.827168	0.576657
	C10944	C	0.789083	0.837094	0.673007
	C10945	C	0.864714	0.834753	0.673253
	C10946	C	0.747908	0.857914	0.827378
	C10947	C	0.822758	0.852815	0.826962
	C10948	C	0.747883	0.857781	0.672982
	C10949	C	0.822720	0.852627	0.672824
	C10950	C	0.789084	0.837154	0.827109
	C10951	C	0.864677	0.834581	0.827557
	C10952	C	0.759223	0.885943	1.000013
	C10953	C	0.821697	0.823455	0.500052
	C10954	C	0.790420	0.866907	1.000055
	C10955	C	0.852886	0.804369	0.500240
	C10956	C	0.783914	0.837763	0.750096
	C10957	C	0.859514	0.835257	0.750319
	C10958	C	0.752979	0.856715	0.750234
	C10959	C	0.827936	0.852177	0.749700
	C10960	C	0.767038	0.880926	0.999809
	C10961	C	0.829507	0.818468	0.500212
	C10962	C	0.782669	0.872094	1.000200
	C10963	C	0.845139	0.809589	0.500156
	C10964	C	0.775847	0.841816	0.749820
	C10965	C	0.851361	0.839035	0.749934
	C10966	C	0.760914	0.852194	0.750076
	C10967	C	0.836103	0.848460	0.749671
	C10968	C	0.771091	0.878701	0.916797
	C10969	C	0.833572	0.816139	0.917138
	C10970	C	0.778638	0.874463	0.583593
	C10971	C	0.841130	0.811996	0.583031
	C10972	C	0.778648	0.874492	0.917178
	C10973	C	0.841114	0.811897	0.917300
	C10974	C	0.771097	0.878662	0.583048
	C10975	C	0.833600	0.816286	0.582971
	C10976	C	0.771979	0.844395	0.832820
	C10977	C	0.847456	0.841510	0.666333
	C10978	C	0.764722	0.849426	0.666757
	C10979	C	0.839997	0.845916	0.833211
	C10980	C	0.764736	0.849433	0.833006
	C10981	C	0.840032	0.845989	0.666328
	C10982	C	0.771973	0.844469	0.666643
	C10983	C	0.847401	0.841370	0.833277
	N10984	N	0.748646	0.895614	0.952189
	N10985	N	0.811219	0.833250	0.951345
	N10986	N	0.800707	0.856612	0.548525
	N10987	N	0.863253	0.794273	0.548438
	N10988	N	0.800724	0.856686	0.951645
	N10989	N	0.863268	0.794314	0.951393
	N10990	N	0.748639	0.895595	0.548405
	N10991	N	0.811138	0.833149	0.548029
	N10992	N	0.796854	0.836852	0.701380
	N10993	N	0.872472	0.834564	0.701673
	N10994	N	0.740193	0.858834	0.799252
	N10995	N	0.814949	0.852891	0.798636
	N10996	N	0.740174	0.858760	0.701453
	N10997	N	0.814936	0.852798	0.701282
	N10998	N	0.796860	0.836933	0.798739
	N10999	N	0.872461	0.834485	0.798872
	H11000	H	0.768741	0.947903	0.349359
	H11001	H	0.831314	0.885720	0.349588
	H11002	H	0.806490	0.923728	0.151935
	H11003	H	0.869013	0.861262	0.151324
	H11004	H	0.806708	0.924058	0.349345
	H11005	H	0.868919	0.861135	0.349121
	H11006	H	0.768808	0.948143	0.151578
	H11007	H	0.831409	0.885697	0.150937
	H11008	H	0.800673	0.896592	0.099444
	H11009	H	0.875582	0.891863	0.099108
	H11010	H	0.761773	0.915542	0.400594
	H11011	H	0.837335	0.913049	0.401218
	H11012	H	0.761768	0.915491	0.097794
	H11013	H	0.837307	0.912801	0.098816
	H11014	H	0.800759	0.896998	0.402007
	H11015	H	0.875604	0.891969	0.401458
	H11016	H	0.780984	0.939267	0.350527
	H11017	H	0.843543	0.877018	0.350633
	H11018	H	0.794205	0.932058	0.149622
	H11019	H	0.856738	0.869743	0.149515
	H11020	H	0.794124	0.931881	0.350562
	H11021	H	0.856640	0.869430	0.350684
	H11022	H	0.781069	0.939512	0.149928
	H11023	H	0.843646	0.877287	0.149612
	H11024	H	0.787766	0.902112	0.100667
	H11025	H	0.862969	0.898641	0.399149
	H11026	H	0.774727	0.909971	0.399632
	H11027	H	0.850284	0.907307	0.101033
	H11028	H	0.774765	0.909871	0.100124
	H11029	H	0.850208	0.907182	0.398845
	H11030	H	0.787713	0.902329	0.400218
	H11031	H	0.863058	0.898874	0.100396
	Co11032	Co	0.893763	0.899060	0.125552
	Co11033	Co	0.819025	0.904867	0.125993
	Co11034	Co	0.743487	0.907558	0.374861
	Co11035	Co	0.819068	0.904953	0.374319
	C11036	C	0.767749	0.949291	0.423498
	C11037	C	0.830310	0.886983	0.423452
	C11038	C	0.807572	0.922501	0.077573
	C11039	C	0.870085	0.860092	0.077055
	C11040	C	0.807676	0.922679	0.423397
	C11041	C	0.870031	0.859945	0.422988
	C11042	C	0.767786	0.949393	0.077406
	C11043	C	0.830301	0.886931	0.076910
	C11044	C	0.802202	0.896984	0.173097
	C11045	C	0.877118	0.892039	0.172934
	C11046	C	0.760279	0.915243	0.326426
	C11047	C	0.835844	0.912730	0.326860
	C11048	C	0.760267	0.915241	0.172268
	C11049	C	0.835839	0.912564	0.172828
	C11050	C	0.802249	0.897166	0.327560
	C11051	C	0.877124	0.892087	0.327247
	C11052	C	0.772023	0.945302	0.500535
	C11053	C	0.834579	0.882990	-0.000023
	C11054	C	0.803319	0.926459	0.500440
	C11055	C	0.865766	0.863956	0.000067
	C11056	C	0.797049	0.897671	0.250458
	C11057	C	0.872026	0.893224	0.250140
	C11058	C	0.765455	0.914601	0.249314
	C11059	C	0.841019	0.911992	0.249929
	C11060	C	0.779796	0.940133	0.500220
	C11061	C	0.842351	0.877837	0.000101
	C11062	C	0.795487	0.931452	0.500386
	C11063	C	0.857957	0.868977	-0.000008
	C11064	C	0.788892	0.901424	0.250467
	C11065	C	0.864110	0.897763	0.249906
	C11066	C	0.773598	0.910807	0.249705
	C11067	C	0.849118	0.908002	0.249924
	C11068	C	0.783802	0.937768	0.417059
	C11069	C	0.846343	0.875415	0.417153
	C11070	C	0.791375	0.933588	0.083057
	C11071	C	0.853902	0.871260	0.082980
	C11072	C	0.791348	0.933518	0.417246
	C11073	C	0.853864	0.871130	0.417101
	C11074	C	0.783837	0.937828	0.083207
	C11075	C	0.846401	0.875613	0.083039
	C11076	C	0.784954	0.903772	0.166955
	C11077	C	0.860242	0.900438	0.332717
	C11078	C	0.777519	0.908409	0.332980
	C11079	C	0.853039	0.905483	0.167087
	C11080	C	0.777545	0.908329	0.166770
	C11081	C	0.852964	0.905359	0.332835
	C11082	C	0.784931	0.903921	0.333426
	C11083	C	0.860317	0.900560	0.166889
	N11084	N	0.761697	0.955527	0.452334
	N11085	N	0.824268	0.893189	0.451941
	N11086	N	0.813763	0.916553	0.048781
	N11087	N	0.876241	0.854115	0.048502
	N11088	N	0.813850	0.916695	0.451950
	N11089	N	0.876241	0.854050	0.451533
	N11090	N	0.761691	0.955535	0.048895
	N11091	N	0.824187	0.893057	0.048450
	N11092	N	0.810002	0.896881	0.201578
	N11093	N	0.884825	0.891110	0.201316
	N11094	N	0.752507	0.915426	0.298129
	N11095	N	0.828075	0.912984	0.298468
	N11096	N	0.752493	0.915428	0.200816
	N11097	N	0.828066	0.912895	0.201298
	N11098	N	0.810022	0.896985	0.298799
	N11099	N	0.884826	0.891106	0.299084
	H11100	H	0.768834	0.948231	0.849683
	H11101	H	0.831274	0.885531	0.848947
	H11102	H	0.806600	0.923796	0.651241
	H11103	H	0.869190	0.861545	0.650769
	H11104	H	0.806637	0.923982	0.849066
	H11105	H	0.869126	0.861542	0.848857
	H11106	H	0.768807	0.947969	0.651467
	H11107	H	0.831216	0.885451	0.650911
	H11108	H	0.800698	0.896730	0.598759
	H11109	H	0.875594	0.892008	0.598649
	H11110	H	0.761695	0.915467	0.901546
	H11111	H	0.837322	0.912819	0.901494
	H11112	H	0.761686	0.915321	0.599186
	H11113	H	0.837300	0.912787	0.599284
	H11114	H	0.800726	0.896806	0.901262
	H11115	H	0.875604	0.892004	0.901097
	H11116	H	0.781115	0.939712	0.850520
	H11117	H	0.843567	0.876951	0.850425
	H11118	H	0.794300	0.932302	0.649629
	H11119	H	0.856753	0.869675	0.649488
	H11120	H	0.794243	0.932207	0.850434
	H11121	H	0.856692	0.869554	0.850355
	H11122	H	0.781101	0.939618	0.649453
	H11123	H	0.843620	0.877098	0.649925
	H11124	H	0.787675	0.902157	0.600557
	H11125	H	0.863039	0.898773	0.600640
	H11126	H	0.774765	0.910085	0.900870
	H11127	H	0.850267	0.907133	0.899742
	H11128	H	0.774762	0.910009	0.600536
	H11129	H	0.850300	0.907353	0.600321
	H11130	H	0.787755	0.902365	0.900299
	H11131	H	0.862965	0.898657	0.899653
	Co11132	Co	0.893780	0.899145	0.625560
	Co11133	Co	0.819034	0.904954	0.625957
	Co11134	Co	0.743374	0.907355	0.875347
	Co11135	Co	0.819033	0.904880	0.874807
	C11136	C	0.767764	0.949396	0.923641
	C11137	C	0.830256	0.886874	0.923137
	C11138	C	0.807647	0.922592	0.577136
	C11139	C	0.870176	0.860239	0.576769
	C11140	C	0.807647	0.922633	0.923358
	C11141	C	0.870127	0.860169	0.923167
	C11142	C	0.767747	0.949283	0.577336
	C11143	C	0.830278	0.886899	0.577016
	C11144	C	0.802162	0.897013	0.673205
	C11145	C	0.877116	0.892100	0.672790
	C11146	C	0.760218	0.915136	0.827451
	C11147	C	0.835844	0.912600	0.827604
	C11148	C	0.760220	0.915077	0.673095
	C11149	C	0.835820	0.912613	0.673491
	C11150	C	0.802186	0.897069	0.827337
	C11151	C	0.877095	0.892056	0.827169
	C11152	C	0.772068	0.945483	1.000361
	C11153	C	0.834542	0.882913	0.500192
	C11154	C	0.803271	0.926358	1.000343
	C11155	C	0.865764	0.863876	0.499905
	C11156	C	0.796983	0.897570	0.750499
	C11157	C	0.872016	0.893221	0.749962
	C11158	C	0.765399	0.914518	0.750445
	C11159	C	0.841012	0.911898	0.750322
	C11160	C	0.779818	0.940244	1.000224
	C11161	C	0.842306	0.877719	0.500090
	C11162	C	0.795469	0.931458	1.000138
	C11163	C	0.857957	0.868927	0.500027
	C11164	C	0.788838	0.901359	0.750566
	C11165	C	0.864079	0.897718	0.750089
	C11166	C	0.773566	0.910795	0.750669
	C11167	C	0.849105	0.907987	0.750109
	C11168	C	0.783893	0.938009	0.917239
	C11169	C	0.846365	0.875416	0.917026
	C11170	C	0.791454	0.933786	0.583295
	C11171	C	0.853907	0.871191	0.583050
	C11172	C	0.791417	0.933725	0.917107
	C11173	C	0.853889	0.871153	0.916746
	C11174	C	0.783893	0.937966	0.583020
	C11175	C	0.846362	0.875413	0.583117
	C11176	C	0.784915	0.903822	0.667164
	C11177	C	0.860281	0.900561	0.666893
	C11178	C	0.777527	0.908445	0.834014
	C11179	C	0.852991	0.905386	0.833214
	C11180	C	0.777510	0.908356	0.667218
	C11181	C	0.853001	0.905485	0.666851
	C11182	C	0.784943	0.903935	0.833757
	C11183	C	0.860260	0.900462	0.833301
	N11184	N	0.761688	0.955546	0.952330
	N11185	N	0.824210	0.893094	0.952046
	N11186	N	0.813792	0.916604	0.548573
	N11187	N	0.876301	0.854164	0.548029
	N11188	N	0.813789	0.916620	0.952222
	N11189	N	0.876278	0.854172	0.951846
	N11190	N	0.761679	0.955473	0.548751
	N11191	N	0.824258	0.893178	0.548435
	N11192	N	0.809956	0.896988	0.701592
	N11193	N	0.884827	0.891194	0.701135
	N11194	N	0.752432	0.915235	0.799126
	N11195	N	0.828067	0.912868	0.799249
	N11196	N	0.752417	0.915174	0.701814
	N11197	N	0.828059	0.912894	0.701893
	N11198	N	0.809961	0.896992	0.798794
	N11199	N	0.884805	0.891154	0.798843
	H11200	H	0.905137	0.043490	0.351821
	H11201	H	0.967782	-0.018778	0.351802
	H11202	H	0.938619	0.010991	0.148572
	H11203	H	1.001359	-0.050928	0.147621
	H11204	H	0.938883	0.011624	0.351167
	H11205	H	1.001230	-0.051168	0.352072
	H11206	H	0.905387	0.044048	0.149768
	H11207	H	0.967866	-0.018599	0.148983
	H11208	H	0.940113	-0.027457	0.101047
	H11209	H	0.993161	0.077811	0.101446
	H11210	H	0.908452	-0.079051	0.399860
	H11211	H	0.965781	0.021254	0.399021
	H11212	H	0.908845	-0.079401	0.100104
	H11213	H	0.965684	0.021327	0.100518
	H11214	H	0.940355	-0.027642	0.398808
	H11215	H	0.993447	0.077562	0.399278
	H11216	H	0.916479	0.033876	0.517005
	H11217	H	0.979060	-0.028176	0.449808
	H11218	H	0.928180	0.022629	0.006724
	H11219	H	0.989999	-0.041511	-0.037489
	H11220	H	0.928201	0.022536	0.515376
	H11221	H	0.990798	-0.039508	0.450658
	H11222	H	0.916386	0.033905	0.007278
	H11223	H	0.978226	-0.030260	-0.036936
	H11224	H	0.930438	-0.045181	0.333766
	H11225	H	0.984539	0.058894	0.374709
	H11226	H	0.918783	-0.062042	0.166155
	H11227	H	0.974447	0.040005	0.124013
	H11228	H	0.919453	-0.063099	0.333761
	H11229	H	0.974915	0.039415	0.374818
	H11230	H	0.929769	-0.044151	0.166377
	H11231	H	0.984093	0.059500	0.124546
	Co11232	Co	1.005464	0.102707	0.125728
	Co11233	Co	0.953352	-0.003603	0.125393
	Co11234	Co	0.893752	-0.100920	0.374200
	Co11235	Co	0.953359	-0.003580	0.374231
	C11236	C	0.904148	0.044859	0.424462
	C11237	C	0.966689	-0.017508	0.424209
	C11238	C	0.939835	0.010071	0.076293
	C11239	C	1.002491	-0.052073	0.075925
	C11240	C	0.939964	0.010393	0.423505
	C11241	C	1.002404	-0.052209	0.424791
	C11242	C	0.904208	0.045064	0.077196
	C11243	C	0.966714	-0.017506	0.076042
	C11244	C	0.941205	-0.025752	0.173592
	C11245	C	0.994187	0.079632	0.174245
	C11246	C	0.907478	-0.080777	0.326430
	C11247	C	0.964790	0.019374	0.326134
	C11248	C	0.907657	-0.080996	0.173292
	C11249	C	0.964729	0.019403	0.173366
	C11250	C	0.941324	-0.025851	0.326045
	C11251	C	0.994322	0.079495	0.326475
	C11252	C	0.908342	0.041053	0.500723
	C11253	C	0.970806	-0.021603	-0.000010
	C11254	C	0.935844	0.014289	0.499484
	C11255	C	0.998426	-0.047979	-0.000107
	C11256	C	0.937501	-0.032352	0.250051
	C11257	C	0.990820	0.072560	0.250449
	C11258	C	0.911577	-0.074655	0.250116
	C11259	C	0.968155	0.026353	0.249607
	C11260	C	0.915271	0.034177	0.500715
	C11261	C	0.977802	-0.028285	-0.000006
	C11262	C	0.928863	0.021062	0.499959
	C11263	C	0.991438	-0.041267	-0.000456
	C11264	C	0.931019	-0.043181	0.250334
	C11265	C	0.985112	0.060844	0.250045
	C11266	C	0.918219	-0.064068	0.250100
	C11267	C	0.973900	0.038001	0.249280
	C11268	C	0.918903	0.031135	0.509619
	C11269	C	0.981461	-0.031086	0.471995
	C11270	C	0.925517	0.024796	0.004213
	C11271	C	0.987667	-0.038557	-0.021162
	C11272	C	0.925544	0.024759	0.509161
	C11273	C	0.988076	-0.037524	0.472637
	C11274	C	0.918865	0.031165	0.004568
	C11275	C	0.981010	-0.032199	-0.020615
	C11276	C	0.927922	-0.048842	0.297209
	C11277	C	0.982349	0.054822	0.319735
	C11278	C	0.921344	-0.058437	0.203054
	C11279	C	0.976671	0.044051	0.179081
	C11280	C	0.921705	-0.059005	0.297053
	C11281	C	0.976893	0.043722	0.319489
	C11282	C	0.927561	-0.048273	0.203253
	C11283	C	0.982118	0.055167	0.179531
	N11284	N	0.898109	0.050877	0.453286
	N11285	N	0.960630	-0.011529	0.452554
	N11286	N	0.945919	0.004166	0.047352
	N11287	N	1.008516	-0.058132	0.047374
	N11288	N	0.946024	0.004387	0.451922
	N11289	N	1.008486	-0.058132	0.453530
	N11290	N	0.898095	0.050946	0.048213
	N11291	N	0.960667	-0.011509	0.047103
	N11292	N	0.946756	-0.016185	0.202266
	N11293	N	0.999215	0.089765	0.202958
	N11294	N	0.901613	-0.089874	0.297153
	N11295	N	0.959786	0.009166	0.297356
	N11296	N	0.901728	-0.090009	0.202038
	N11297	N	0.959744	0.009205	0.202197
	N11298	N	0.946820	-0.016209	0.297080
	N11299	N	0.999302	0.089678	0.297554
	H11300	H	0.905225	0.043641	0.852821
	H11301	H	0.967766	-0.018759	0.851367
	H11302	H	0.938750	0.011123	0.647604
	H11303	H	1.001387	-0.050993	0.649921
	H11304	H	0.938954	0.011805	0.852031
	H11305	H	1.001361	-0.051130	0.852560
	H11306	H	0.905479	0.044251	0.649690
	H11307	H	0.967921	-0.018183	0.647961
	H11308	H	0.940124	-0.027410	0.600766
	H11309	H	0.993386	0.077737	0.600959
	H11310	H	0.908723	-0.079197	0.899741
	H11311	H	0.965773	0.021200	0.899162
	H11312	H	0.908558	-0.079014	0.600281
	H11313	H	0.965679	0.021114	0.600164
	H11314	H	0.940206	-0.027385	0.898725
	H11315	H	0.993255	0.077738	0.898722
	H11316	H	0.915933	0.032728	0.995604
	H11317	H	0.979275	-0.028065	1.037343
	H11318	H	0.927637	0.021366	0.484040
	H11319	H	0.989975	-0.041587	0.552363
	H11320	H	0.927685	0.021363	0.995120
	H11321	H	0.991050	-0.039279	1.036936
	H11322	H	0.915831	0.032608	0.484525
	H11323	H	0.978248	-0.030159	0.551321
	H11324	H	0.929709	-0.044080	0.730125
	H11325	H	0.984064	0.059590	0.760982
	H11326	H	0.919589	-0.063143	0.769721
	H11327	H	0.975191	0.039082	0.740026
	H11328	H	0.918751	-0.062025	0.729968
	H11329	H	0.974482	0.040009	0.759989
	H11330	H	0.930546	-0.045146	0.769738
	H11331	H	0.984736	0.058708	0.740270
	Co11332	Co	1.005476	0.102669	0.625770
	Co11333	Co	0.953315	-0.003642	0.625173
	Co11334	Co	0.893775	-0.100944	0.874238
	Co11335	Co	0.953332	-0.003560	0.874294
	C11336	C	0.904131	0.044838	0.925203
	C11337	C	0.966658	-0.017600	0.923753
	C11338	C	0.939906	0.010140	0.575111
	C11339	C	1.002479	-0.052126	0.577183
	C11340	C	0.940009	0.010464	0.924406
	C11341	C	1.002497	-0.052178	0.924386
	C11342	C	0.904317	0.045234	0.576855
	C11343	C	0.966759	-0.017253	0.575675
	C11344	C	0.941170	-0.025736	0.673537
	C11345	C	0.994246	0.079567	0.673708
	C11346	C	0.907623	-0.080956	0.826543
	C11347	C	0.964840	0.019335	0.826128
	C11348	C	0.907550	-0.080833	0.673455
	C11349	C	0.964778	0.019286	0.673370
	C11350	C	0.941203	-0.025725	0.825983
	C11351	C	0.994206	0.079577	0.826189
	C11352	C	0.908284	0.040947	1.001348
	C11353	C	0.970826	-0.021395	0.500063
	C11354	C	0.935801	0.014282	1.000598
	C11355	C	0.998325	-0.048143	0.501199
	C11356	C	0.937440	-0.032308	0.749848
	C11357	C	0.990856	0.072601	0.750084
	C11358	C	0.911617	-0.074718	0.750066
	C11359	C	0.968257	0.026219	0.749512
	C11360	C	0.915263	0.034204	1.001346
	C11361	C	0.977770	-0.028220	0.500349
	C11362	C	0.928857	0.021095	1.000950
	C11363	C	0.991346	-0.041410	0.501447
	C11364	C	0.930982	-0.043176	0.750086
	C11365	C	0.985177	0.060796	0.750214
	C11366	C	0.918259	-0.064084	0.750004
	C11367	C	0.974054	0.037918	0.749680
	C11368	C	0.918611	0.030506	0.998078
	C11369	C	0.981591	-0.030987	1.020602
	C11370	C	0.925202	0.024077	0.491144
	C11371	C	0.987622	-0.038641	0.529654
	C11372	C	0.925249	0.024112	0.997862
	C11373	C	0.988248	-0.037328	1.020515
	C11374	C	0.918574	0.030481	0.491495
	C11375	C	0.981001	-0.032205	0.529335
	C11376	C	0.927495	-0.048257	0.738912
	C11377	C	0.982141	0.055140	0.756014
	C11378	C	0.921768	-0.059051	0.761068
	C11379	C	0.977111	0.043538	0.744279
	C11380	C	0.921307	-0.058432	0.738981
	C11381	C	0.976734	0.044043	0.755415
	C11382	C	0.927953	-0.048852	0.761151
	C11383	C	0.982500	0.054647	0.744653
	N11384	N	0.898057	0.050803	0.953779
	N11385	N	0.960644	-0.011525	0.952446
	N11386	N	0.945993	0.004239	0.546179
	N11387	N	1.008529	-0.058086	0.548100
	N11388	N	0.946045	0.004424	0.952918
	N11389	N	1.008515	-0.058205	0.953445
	N11390	N	0.898235	0.051142	0.547924
	N11391	N	0.960661	-0.011373	0.546619
	N11392	N	0.946700	-0.016131	0.702368
	N11393	N	0.999218	0.089804	0.702700
	N11394	N	0.901731	-0.090036	0.797457
	N11395	N	0.959783	0.009161	0.797490
	N11396	N	0.901696	-0.089953	0.702252
	N11397	N	0.959736	0.009126	0.702535
	N11398	N	0.946719	-0.016099	0.797084
	N11399	N	0.999182	0.089852	0.797481
	H11400	H	0.895111	0.212898	0.351855
	H11401	H	0.957855	0.150889	0.351500
	H11402	H	0.928495	0.180374	0.148208
	H11403	H	0.990840	0.117500	0.149250
	H11404	H	0.928284	0.179838	0.351977
	H11405	H	0.990716	0.117113	0.351706
	H11406	H	0.895081	0.212840	0.148398
	H11407	H	0.957593	0.150682	0.148770
	H11408	H	0.930680	0.140197	0.101504
	H11409	H	0.982336	0.246957	0.100700
	H11410	H	0.903343	0.083391	0.399613
	H11411	H	0.955274	0.190091	0.399573
	H11412	H	0.902983	0.083790	0.102154
	H11413	H	0.954829	0.190562	0.101231
	H11414	H	0.930873	0.140074	0.399444
	H11415	H	0.982146	0.247253	0.399764
	H11416	H	0.905640	0.201744	0.590660
	H11417	H	0.968120	0.139100	0.556695
	H11418	H	0.917492	0.190712	0.047962
	H11419	H	0.980546	0.129256	0.005029
	H11420	H	0.917162	0.189909	0.591109
	H11421	H	0.979730	0.127398	0.556478
	H11422	H	0.905863	0.202320	0.047759
	H11423	H	0.968835	0.140709	0.005482
	H11424	H	0.921760	0.121755	0.237075
	H11425	H	0.973150	0.228834	0.169544
	H11426	H	0.912376	0.101763	0.264581
	H11427	H	0.964168	0.208613	0.331285
	H11428	H	0.912170	0.102129	0.236929
	H11429	H	0.963732	0.209035	0.169987
	H11430	H	0.921968	0.121406	0.264893
	H11431	H	0.973673	0.228248	0.331129
	Co11432	Co	0.994376	0.272252	0.125808
	Co11433	Co	0.942947	0.165233	0.125546
	Co11434	Co	0.890792	0.058782	0.375021
	Co11435	Co	0.942967	0.165173	0.374640
	C11436	C	0.894030	0.214114	0.424020
	C11437	C	0.956637	0.151792	0.424183
	C11438	C	0.929547	0.179019	0.076106
	C11439	C	0.991918	0.116335	0.076642
	C11440	C	0.929414	0.178705	0.424394
	C11441	C	0.991918	0.116151	0.424048
	C11442	C	0.893989	0.214052	0.076279
	C11443	C	0.956482	0.151622	0.076388
	C11444	C	0.931668	0.142036	0.174059
	C11445	C	0.983264	0.248921	0.173741
	C11446	C	0.902328	0.081679	0.326751
	C11447	C	0.954228	0.188317	0.326734
	C11448	C	0.902171	0.081871	0.174575
	C11449	C	0.953991	0.188518	0.174134
	C11450	C	0.931758	0.141979	0.326744
	C11451	C	0.983155	0.249053	0.326590
	C11452	C	0.898133	0.210082	0.499688
	C11453	C	0.960493	0.147411	0.000602
	C11454	C	0.925283	0.182680	0.500135
	C11455	C	0.987825	0.120332	0.000450
	C11456	C	0.928352	0.135000	0.250421
	C11457	C	0.979889	0.241929	0.250258
	C11458	C	0.905695	0.088670	0.250691
	C11459	C	0.957466	0.195420	0.250458
	C11460	C	0.905024	0.203140	0.499312
	C11461	C	0.967419	0.140511	0.000618
	C11462	C	0.918381	0.189592	0.500019
	C11463	C	0.980908	0.127250	0.000581
	C11464	C	0.922629	0.123243	0.250586
	C11465	C	0.974205	0.230189	0.250294
	C11466	C	0.911474	0.100352	0.250583
	C11467	C	0.963137	0.207189	0.250500
	C11468	C	0.908269	0.199344	0.550777
	C11469	C	0.970794	0.136828	0.532400
	C11470	C	0.915001	0.193212	0.027037
	C11471	C	0.977748	0.131263	0.003221
	C11472	C	0.914794	0.192752	0.551159
	C11473	C	0.977322	0.130207	0.532068
	C11474	C	0.908429	0.199748	0.026995
	C11475	C	0.971170	0.137730	0.003139
	C11476	C	0.919706	0.117444	0.243129
	C11477	C	0.971233	0.224416	0.205203
	C11478	C	0.914433	0.106137	0.258275
	C11479	C	0.966113	0.212957	0.295687
	C11480	C	0.914305	0.106309	0.242888
	C11481	C	0.965852	0.213250	0.205254
	C11482	C	0.919831	0.117265	0.258483
	C11483	C	0.971474	0.224140	0.295648
	N11484	N	0.888016	0.220199	0.453040
	N11485	N	0.950541	0.157716	0.452783
	N11486	N	0.935549	0.172916	0.047324
	N11487	N	0.998002	0.110354	0.047768
	N11488	N	0.935499	0.172772	0.453081
	N11489	N	0.997975	0.110185	0.452986
	N11490	N	0.887959	0.220088	0.047703
	N11491	N	0.950455	0.157682	0.047653
	N11492	N	0.936645	0.152298	0.202835
	N11493	N	0.988164	0.259227	0.202515
	N11494	N	0.897215	0.071583	0.298040
	N11495	N	0.949237	0.178088	0.297812
	N11496	N	0.897121	0.071681	0.203455
	N11497	N	0.949104	0.178224	0.202849
	N11498	N	0.936688	0.152244	0.297828
	N11499	N	0.988084	0.259322	0.297616
	H11500	H	0.895248	0.213318	0.852292
	H11501	H	0.957492	0.150275	0.852691
	H11502	H	0.928242	0.179709	0.648176
	H11503	H	0.990750	0.117324	0.648858
	H11504	H	0.928107	0.179652	0.852966
	H11505	H	0.990794	0.117578	0.851773
	H11506	H	0.895147	0.212866	0.647638
	H11507	H	0.957500	0.150213	0.649556
	H11508	H	0.930853	0.140050	0.600534
	H11509	H	0.982218	0.247266	0.600962
	H11510	H	0.903459	0.083466	0.900060
	H11511	H	0.955047	0.190191	0.899612
	H11512	H	0.902902	0.083962	0.600910
	H11513	H	0.955041	0.190398	0.601494
	H11514	H	0.930795	0.140194	0.898165
	H11515	H	0.982297	0.247181	0.898878
	H11516	H	0.905938	0.202163	0.951661
	H11517	H	0.967727	0.138462	0.996402
	H11518	H	0.917807	0.191067	0.408694
	H11519	H	0.980287	0.128654	0.444611
	H11520	H	0.917543	0.190589	0.953070
	H11521	H	0.979429	0.127017	0.996362
	H11522	H	0.906231	0.202780	0.407981
	H11523	H	0.968733	0.140357	0.444933
	H11524	H	0.921761	0.121682	0.752380
	H11525	H	0.973024	0.228995	0.718826
	H11526	H	0.912352	0.102095	0.748171
	H11527	H	0.964226	0.208516	0.782200
	H11528	H	0.912170	0.102127	0.752917
	H11529	H	0.963599	0.209255	0.719805
	H11530	H	0.921936	0.121690	0.747751
	H11531	H	0.973705	0.228279	0.781718
	Co11532	Co	0.994408	0.272377	0.625734
	Co11533	Co	0.943002	0.165172	0.625221
	Co11534	Co	0.890837	0.058825	0.875107
	Co11535	Co	0.942977	0.165171	0.874907
	C11536	C	0.894083	0.214270	0.924369
	C11537	C	0.956423	0.151446	0.924789
	C11538	C	0.929380	0.178643	0.575934
	C11539	C	0.991936	0.116196	0.576548
	C11540	C	0.929364	0.178642	0.924652
	C11541	C	0.991915	0.116401	0.924151
	C11542	C	0.894061	0.214102	0.575639
	C11543	C	0.956454	0.151437	0.576546
	C11544	C	0.931768	0.141982	0.673457
	C11545	C	0.983125	0.249159	0.673798
	C11546	C	0.902395	0.081675	0.827201
	C11547	C	0.954164	0.188375	0.826808
	C11548	C	0.902117	0.081929	0.674144
	C11549	C	0.954144	0.188446	0.674268
	C11550	C	0.931733	0.142061	0.825563
	C11551	C	0.983174	0.249101	0.826252
	C11552	C	0.898110	0.210033	1.000111
	C11553	C	0.960632	0.147522	0.500622
	C11554	C	0.925359	0.182895	1.000479
	C11555	C	0.987841	0.120279	0.500161
	C11556	C	0.928351	0.135065	0.749549
	C11557	C	0.979792	0.242137	0.750025
	C11558	C	0.905687	0.088781	0.750582
	C11559	C	0.957514	0.195406	0.750583
	C11560	C	0.905014	0.203161	1.000007
	C11561	C	0.967526	0.140613	0.500910
	C11562	C	0.918457	0.189776	1.000383
	C11563	C	0.980910	0.127122	0.500321
	C11564	C	0.922621	0.123341	0.749544
	C11565	C	0.974165	0.230276	0.750245
	C11566	C	0.911437	0.100490	0.750546
	C11567	C	0.963161	0.207250	0.750690
	C11568	C	0.908448	0.199704	0.973185
	C11569	C	0.970555	0.136482	0.998308
	C11570	C	0.915134	0.193368	0.448645
	C11571	C	0.977644	0.130907	0.469163
	C11572	C	0.915010	0.193159	0.973512
	C11573	C	0.977124	0.130007	0.998246
	C11574	C	0.908627	0.200000	0.448220
	C11575	C	0.971115	0.137523	0.469459
	C11576	C	0.919695	0.117467	0.751236
	C11577	C	0.971128	0.224546	0.732773
	C11578	C	0.914379	0.106325	0.748908
	C11579	C	0.966171	0.212976	0.768223
	C11580	C	0.914265	0.106372	0.751640
	C11581	C	0.965821	0.213337	0.732969
	C11582	C	0.919812	0.117429	0.748607
	C11583	C	0.971515	0.224161	0.768128
	N11584	N	0.888056	0.220300	0.953458
	N11585	N	0.950399	0.157559	0.953602
	N11586	N	0.935477	0.172741	0.547232
	N11587	N	0.997990	0.110234	0.547717
	N11588	N	0.935432	0.172681	0.952950
	N11589	N	0.998001	0.110415	0.952983
	N11590	N	0.888028	0.220186	0.547243
	N11591	N	0.950436	0.157512	0.547077
	N11592	N	0.936748	0.152241	0.702344
	N11593	N	0.988100	0.259414	0.702605
	N11594	N	0.897383	0.071490	0.798350
	N11595	N	0.949199	0.178111	0.797699
	N11596	N	0.897192	0.071659	0.703256
	N11597	N	0.949188	0.178149	0.702989
	N11598	N	0.936752	0.152260	0.796946
	N11599	N	0.988117	0.259382	0.797539
	H11600	H	0.884087	0.382592	0.351920
	H11601	H	0.946364	0.319703	0.352904
	H11602	H	0.917384	0.349562	0.149390
	H11603	H	0.979908	0.287347	0.147905
	H11604	H	0.917310	0.349761	0.353254
	H11605	H	0.979605	0.286849	0.351422
	H11606	H	0.884220	0.383028	0.149134
	H11607	H	0.946620	0.320067	0.149314
	H11608	H	0.920039	0.309657	0.100971
	H11609	H	0.971873	0.416263	0.101348
	H11610	H	0.892619	0.252901	0.398859
	H11611	H	0.943934	0.359992	0.401363
	H11612	H	0.892434	0.252912	0.100787
	H11613	H	0.944157	0.359886	0.102113
	H11614	H	0.919610	0.309907	0.399194
	H11615	H	0.971762	0.416412	0.400287
	H11616	H	0.894255	0.370643	0.425216
	H11617	H	0.957998	0.310783	0.491067
	H11618	H	0.906268	0.359884	0.040442
	H11619	H	0.968360	0.296498	-0.063966
	H11620	H	0.905918	0.359124	0.425312
	H11621	H	0.969624	0.299200	0.490426
	H11622	H	0.894640	0.371408	0.039762
	H11623	H	0.956688	0.308015	-0.062941
	H11624	H	0.910732	0.291378	0.175632
	H11625	H	0.962406	0.398193	0.265138
	H11626	H	0.901522	0.271332	0.324009
	H11627	H	0.953395	0.378033	0.240266
	H11628	H	0.901257	0.271643	0.174927
	H11629	H	0.952764	0.378696	0.265332
	H11630	H	0.911038	0.291047	0.323622
	H11631	H	0.963104	0.397510	0.239631
	Co11632	Co	0.984128	0.441047	0.125828
	Co11633	Co	0.931951	0.334898	0.126637
	Co11634	Co	0.880525	0.227736	0.375047
	Co11635	Co	0.931872	0.334869	0.376031
	C11636	C	0.882944	0.383880	0.423996
	C11637	C	0.945280	0.320977	0.425180
	C11638	C	0.918465	0.348484	0.077327
	C11639	C	0.980931	0.286091	0.075920
	C11640	C	0.918400	0.348553	0.425703
	C11641	C	0.980817	0.285846	0.424091
	C11642	C	0.882954	0.383917	0.077315
	C11643	C	0.945452	0.321213	0.076960
	C11644	C	0.920818	0.311557	0.174014
	C11645	C	0.972743	0.418087	0.174223
	C11646	C	0.891659	0.251038	0.326066
	C11647	C	0.943081	0.358066	0.328257
	C11648	C	0.891590	0.251042	0.173736
	C11649	C	0.943187	0.357996	0.175220
	C11650	C	0.920606	0.311706	0.326418
	C11651	C	0.972710	0.418173	0.327197
	C11652	C	0.887070	0.379867	0.500318
	C11653	C	0.949467	0.317066	0.000587
	C11654	C	0.914279	0.352630	0.501631
	C11655	C	0.976806	0.290059	0.000216
	C11656	C	0.917368	0.304610	0.250006
	C11657	C	0.969308	0.411163	0.251011
	C11658	C	0.894944	0.258073	0.249573
	C11659	C	0.946550	0.365001	0.251856
	C11660	C	0.893932	0.372904	0.500804
	C11661	C	0.956400	0.310209	0.000590
	C11662	C	0.907389	0.359508	0.501279
	C11663	C	0.969872	0.296905	0.000488
	C11664	C	0.911704	0.292795	0.249699
	C11665	C	0.963543	0.399499	0.252080
	C11666	C	0.900601	0.269873	0.249431
	C11667	C	0.952292	0.376717	0.252086
	C11668	C	0.897033	0.368743	0.458406
	C11669	C	0.960196	0.307607	0.495006
	C11670	C	0.903834	0.362640	0.023544
	C11671	C	0.966084	0.299609	-0.035641
	C11672	C	0.903623	0.362215	0.458587
	C11673	C	0.966788	0.301093	0.494547
	C11674	C	0.897247	0.369168	0.023494
	C11675	C	0.959504	0.306096	-0.035215
	C11676	C	0.908776	0.286978	0.208075
	C11677	C	0.960481	0.393835	0.259529
	C11678	C	0.903526	0.275677	0.291183
	C11679	C	0.955362	0.382389	0.245181
	C11680	C	0.903362	0.275874	0.207712
	C11681	C	0.955003	0.382767	0.259545
	C11682	C	0.908921	0.286816	0.291410
	C11683	C	0.960822	0.393472	0.245043
	N11684	N	0.876920	0.389942	0.452506
	N11685	N	0.939295	0.327136	0.453992
	N11686	N	0.924514	0.342537	0.048504
	N11687	N	0.986937	0.279976	0.047150
	N11688	N	0.924401	0.342464	0.454370
	N11689	N	0.986876	0.279887	0.452870
	N11690	N	0.876895	0.389863	0.047993
	N11691	N	0.939431	0.327319	0.048433
	N11692	N	0.925717	0.321868	0.203251
	N11693	N	0.977748	0.428276	0.203141
	N11694	N	0.886729	0.240710	0.297493
	N11695	N	0.938108	0.347857	0.299127
	N11696	N	0.886704	0.240737	0.202707
	N11697	N	0.938170	0.347822	0.204103
	N11698	N	0.925588	0.321961	0.298114
	N11699	N	0.977742	0.428305	0.298021
	H11700	H	0.883958	0.382274	0.854137
	H11701	H	0.946517	0.320037	0.852359
	H11702	H	0.917212	0.349514	0.650237
	H11703	H	0.979965	0.287488	0.648599
	H11704	H	0.917267	0.349699	0.853686
	H11705	H	0.979743	0.286960	0.852082
	H11706	H	0.884028	0.382777	0.648342
	H11707	H	0.946681	0.320305	0.649177
	H11708	H	0.919874	0.309828	0.601567
	H11709	H	0.971932	0.416124	0.600665
	H11710	H	0.892299	0.253146	0.899454
	H11711	H	0.944132	0.359953	0.899836
	H11712	H	0.892836	0.252511	0.600750
	H11713	H	0.943972	0.360022	0.600971
	H11714	H	0.919743	0.309875	0.900595
	H11715	H	0.971696	0.416283	0.899249
	H11716	H	0.895062	0.372223	0.964575
	H11717	H	0.957999	0.310589	1.065435
	H11718	H	0.907069	0.361726	0.576546
	H11719	H	0.968263	0.296393	0.508658
	H11720	H	0.906719	0.360680	0.965141
	H11721	H	0.969611	0.299073	1.065421
	H11722	H	0.895419	0.373269	0.575876
	H11723	H	0.956642	0.307969	0.509560
	H11724	H	0.909576	0.292671	0.744669
	H11725	H	0.963061	0.397451	0.758806
	H11726	H	0.902867	0.269990	0.757356
	H11727	H	0.952793	0.378779	0.741732
	H11728	H	0.900154	0.272834	0.744430
	H11729	H	0.953451	0.377891	0.758506
	H11730	H	0.912282	0.289739	0.758101
	H11731	H	0.962374	0.398391	0.741685
	Co11732	Co	0.984225	0.441096	0.626082
	Co11733	Co	0.931933	0.334902	0.626842
	Co11734	Co	0.880537	0.227781	0.875134
	Co11735	Co	0.931901	0.334975	0.875541
	C11736	C	0.882822	0.383529	0.925875
	C11737	C	0.945384	0.321199	0.924658
	C11738	C	0.918351	0.348444	0.577728
	C11739	C	0.981002	0.286172	0.575816
	C11740	C	0.918413	0.348533	0.925823
	C11741	C	0.980837	0.285910	0.924252
	C11742	C	0.882930	0.383981	0.575938
	C11743	C	0.945437	0.321289	0.577181
	C11744	C	0.920712	0.311706	0.674748
	C11745	C	0.972793	0.418069	0.673826
	C11746	C	0.891590	0.251141	0.826434
	C11747	C	0.943201	0.358054	0.826834
	C11748	C	0.891846	0.250849	0.674087
	C11749	C	0.943130	0.358092	0.673928
	C11750	C	0.920649	0.311736	0.827410
	C11751	C	0.972666	0.418177	0.826445
	C11752	C	0.886976	0.379577	1.001971
	C11753	C	0.949442	0.317023	0.501044
	C11754	C	0.914300	0.352525	1.001792
	C11755	C	0.976786	0.290080	0.499821
	C11756	C	0.917330	0.304743	0.751098
	C11757	C	0.969267	0.411231	0.750080
	C11758	C	0.895076	0.257936	0.750355
	C11759	C	0.946614	0.365007	0.750214
	C11760	C	0.893930	0.372798	1.002371
	C11761	C	0.956379	0.310245	0.500472
	C11762	C	0.907396	0.359399	1.002369
	C11763	C	0.969869	0.296924	0.499665
	C11764	C	0.911718	0.292860	0.751267
	C11765	C	0.963510	0.399582	0.750095
	C11766	C	0.900724	0.269808	0.750698
	C11767	C	0.952321	0.376732	0.749945
	C11768	C	0.897500	0.369570	0.981426
	C11769	C	0.960204	0.307522	1.037182
	C11770	C	0.904272	0.363650	0.543358
	C11771	C	0.966050	0.299538	0.504897
	C11772	C	0.904090	0.363042	0.981389
	C11773	C	0.966767	0.301015	1.036925
	C11774	C	0.897690	0.370186	0.543087
	C11775	C	0.959482	0.306097	0.505211
	C11776	C	0.908155	0.287715	0.747798
	C11777	C	0.960817	0.393437	0.755211
	C11778	C	0.904309	0.274962	0.754597
	C11779	C	0.955004	0.382847	0.745289
	C11780	C	0.902815	0.276544	0.747418
	C11781	C	0.955366	0.382341	0.755023
	C11782	C	0.909630	0.286129	0.754727
	C11783	C	0.960447	0.393944	0.745105
	N11784	N	0.876814	0.389617	0.953791
	N11785	N	0.939392	0.327309	0.953538
	N11786	N	0.924369	0.342386	0.548873
	N11787	N	0.986995	0.280091	0.547138
	N11788	N	0.924489	0.342574	0.954404
	N11789	N	0.986860	0.279852	0.952929
	N11790	N	0.876920	0.389997	0.547119
	N11791	N	0.939390	0.327312	0.548373
	N11792	N	0.925652	0.321995	0.703649
	N11793	N	0.977824	0.428240	0.702778
	N11794	N	0.886673	0.240802	0.797578
	N11795	N	0.938203	0.347868	0.798208
	N11796	N	0.886829	0.240625	0.702690
	N11797	N	0.938161	0.347902	0.703122
	N11798	N	0.925626	0.322024	0.798624
	N11799	N	0.977754	0.428310	0.797812
	H11800	H	0.873894	0.551398	0.351978
	H11801	H	0.936397	0.488919	0.352926
	H11802	H	0.907168	0.518441	0.148886
	H11803	H	0.969593	0.456078	0.149375
	H11804	H	0.907161	0.518332	0.352003
	H11805	H	0.969583	0.456046	0.353239
	H11806	H	0.873712	0.551193	0.148639
	H11807	H	0.936254	0.488729	0.147845
	H11808	H	0.909323	0.478638	0.101698
	H11809	H	0.966458	0.578946	0.100443
	H11810	H	0.881592	0.422410	0.400587
	H11811	H	0.934780	0.527553	0.399250
	H11812	H	0.881424	0.422578	0.101809
	H11813	H	0.934872	0.527342	0.100335
	H11814	H	0.909204	0.478802	0.400368
	H11815	H	0.966257	0.579378	0.399861
	H11816	H	0.883985	0.539135	0.435115
	H11817	H	0.946998	0.477732	0.498497
	H11818	H	0.897005	0.530735	-0.031793
	H11819	H	0.958410	0.465846	0.054790
	H11820	H	0.895664	0.527633	0.434339
	H11821	H	0.958716	0.466426	0.499614
	H11822	H	0.885286	0.542136	-0.032608
	H11823	H	0.946647	0.477207	0.054448
	H11824	H	0.900252	0.460490	0.254011
	H11825	H	0.955418	0.563245	0.246294
	H11826	H	0.890510	0.440836	0.248003
	H11827	H	0.945382	0.544043	0.254146
	H11828	H	0.890652	0.440936	0.253998
	H11829	H	0.944479	0.545249	0.245132
	H11830	H	0.900093	0.460373	0.248254
	H11831	H	0.956294	0.562024	0.254591
	Co11832	Co	0.981211	0.600835	0.124936
	Co11833	Co	0.921643	0.503519	0.125632
	Co11834	Co	0.869387	0.397426	0.374517
	Co11835	Co	0.921672	0.503528	0.374898
	C11836	C	0.872696	0.552408	0.424295
	C11837	C	0.935193	0.489898	0.425127
	C11838	C	0.908282	0.517375	0.076556
	C11839	C	0.970755	0.454961	0.076680
	C11840	C	0.908236	0.517271	0.424644
	C11841	C	0.970749	0.454967	0.425568
	C11842	C	0.872610	0.552265	0.076149
	C11843	C	0.935082	0.489720	0.075584
	C11844	C	0.910245	0.480604	0.174514
	C11845	C	0.967445	0.580794	0.173543
	C11846	C	0.880673	0.420602	0.327262
	C11847	C	0.933791	0.525747	0.326142
	C11848	C	0.880590	0.420712	0.174905
	C11849	C	0.933810	0.525631	0.173646
	C11850	C	0.910200	0.480697	0.327148
	C11851	C	0.967345	0.581014	0.326564
	C11852	C	0.876712	0.548244	0.500459
	C11853	C	0.939143	0.485584	-0.000227
	C11854	C	0.904125	0.521324	0.500695
	C11855	C	0.966687	0.459060	0.000394
	C11856	C	0.906801	0.473744	0.250954
	C11857	C	0.963364	0.574750	0.250272
	C11858	C	0.884040	0.427594	0.251082
	C11859	C	0.937606	0.532248	0.249809
	C11860	C	0.883650	0.541399	0.500635
	C11861	C	0.946130	0.478878	-0.000169
	C11862	C	0.897166	0.528116	0.500694
	C11863	C	0.959724	0.465815	0.000064
	C11864	C	0.901003	0.462098	0.251005
	C11865	C	0.956762	0.564086	0.250504
	C11866	C	0.889773	0.439298	0.250895
	C11867	C	0.944059	0.543117	0.249744
	C11868	C	0.886776	0.537241	0.463584
	C11869	C	0.949571	0.475375	0.500204
	C11870	C	0.894149	0.532507	-0.017803
	C11871	C	0.956023	0.468685	0.030625
	C11872	C	0.893366	0.530761	0.463564
	C11873	C	0.956182	0.468951	0.500385
	C11874	C	0.887530	0.538931	-0.018204
	C11875	C	0.949390	0.475102	0.030592
	C11876	C	0.898144	0.456281	0.252624
	C11877	C	0.953241	0.559061	0.248029
	C11878	C	0.892632	0.445122	0.249330
	C11879	C	0.947540	0.548174	0.252185
	C11880	C	0.892708	0.445187	0.252600
	C11881	C	0.947055	0.548866	0.247508
	C11882	C	0.898062	0.456205	0.249401
	C11883	C	0.953720	0.558364	0.252386
	N11884	N	0.866625	0.558359	0.452789
	N11885	N	0.929081	0.495759	0.453569
	N11886	N	0.914333	0.511389	0.047841
	N11887	N	0.976819	0.448981	0.047807
	N11888	N	0.914328	0.511365	0.453246
	N11889	N	0.976862	0.449052	0.453955
	N11890	N	0.866547	0.558244	0.047208
	N11891	N	0.928989	0.495647	0.047117
	N11892	N	0.915277	0.490805	0.202975
	N11893	N	0.973330	0.589902	0.202307
	N11894	N	0.875666	0.410408	0.298419
	N11895	N	0.928264	0.516133	0.297512
	N11896	N	0.875610	0.410475	0.203643
	N11897	N	0.928277	0.516066	0.202598
	N11898	N	0.915245	0.490854	0.298229
	N11899	N	0.973279	0.590041	0.297442
	H11900	H	0.873680	0.551044	0.851332
	H11901	H	0.936083	0.488381	0.852384
	H11902	H	0.907166	0.518538	0.649337
	H11903	H	0.969635	0.455812	0.649981
	H11904	H	0.907228	0.518671	0.852696
	H11905	H	0.969767	0.456320	0.851633
	H11906	H	0.873630	0.551008	0.648659
	H11907	H	0.936089	0.488495	0.649372
	H11908	H	0.909351	0.478670	0.601971
	H11909	H	0.966398	0.579036	0.599971
	H11910	H	0.881785	0.422214	0.899795
	H11911	H	0.934713	0.527372	0.900080
	H11912	H	0.881284	0.422867	0.601416
	H11913	H	0.934785	0.527450	0.602097
	H11914	H	0.909337	0.478705	0.900047
	H11915	H	0.966277	0.579197	0.899824
	H11916	H	0.883835	0.538922	1.033405
	H11917	H	0.947436	0.478808	0.945564
	H11918	H	0.896853	0.530339	0.567188
	H11919	H	0.958777	0.466663	0.502669
	H11920	H	0.895555	0.527499	1.033738
	H11921	H	0.959183	0.467504	0.945897
	H11922	H	0.885177	0.541924	0.566051
	H11923	H	0.947082	0.478197	0.502585
	H11924	H	0.900297	0.460370	0.662964
	H11925	H	0.956125	0.561975	0.740808
	H11926	H	0.890581	0.440883	0.837588
	H11927	H	0.944663	0.545099	0.760568
	H11928	H	0.890605	0.440859	0.662834
	H11929	H	0.945192	0.543994	0.741489
	H11930	H	0.900126	0.460486	0.838146
	H11931	H	0.955580	0.563062	0.759699
	Co11932	Co	0.981250	0.600722	0.625001
	Co11933	Co	0.921656	0.503575	0.625948
	Co11934	Co	0.869447	0.397407	0.874782
	Co11935	Co	0.921633	0.503510	0.875090
	C11936	C	0.872584	0.552180	0.923773
	C11937	C	0.934996	0.489573	0.924292
	C11938	C	0.908253	0.517385	0.576843
	C11939	C	0.970762	0.454849	0.577450
	C11940	C	0.908321	0.517485	0.925093
	C11941	C	0.970853	0.455075	0.924169
	C11942	C	0.872579	0.552214	0.576159
	C11943	C	0.935031	0.489669	0.577000
	C11944	C	0.910271	0.480640	0.674872
	C11945	C	0.967477	0.580704	0.673211
	C11946	C	0.880759	0.420492	0.826987
	C11947	C	0.933755	0.525720	0.827033
	C11948	C	0.880503	0.420803	0.674330
	C11949	C	0.933783	0.525753	0.674548
	C11950	C	0.910261	0.480627	0.827445
	C11951	C	0.967410	0.580797	0.826482
	C11952	C	0.876711	0.548185	0.999943
	C11953	C	0.939217	0.485722	0.501299
	C11954	C	0.904201	0.521501	1.000912
	C11955	C	0.966644	0.458912	0.501477
	C11956	C	0.906804	0.473704	0.751095
	C11957	C	0.963464	0.574553	0.749973
	C11958	C	0.884064	0.427622	0.750720
	C11959	C	0.937549	0.532279	0.750962
	C11960	C	0.883668	0.541396	0.999973
	C11961	C	0.946135	0.478863	0.501380
	C11962	C	0.897232	0.528262	1.000812
	C11963	C	0.959675	0.465684	0.501453
	C11964	C	0.901043	0.462037	0.750946
	C11965	C	0.956777	0.564007	0.750097
	C11966	C	0.889811	0.439280	0.750555
	C11967	C	0.944005	0.543122	0.750751
	C11968	C	0.886716	0.537117	1.018885
	C11969	C	0.949832	0.476002	0.969348
	C11970	C	0.894034	0.532268	0.537853
	C11971	C	0.956220	0.469155	0.502211
	C11972	C	0.893346	0.530710	1.019027
	C11973	C	0.956469	0.469613	0.969501
	C11974	C	0.887446	0.538770	0.537511
	C11975	C	0.949590	0.475558	0.502170
	C11976	C	0.898163	0.456173	0.701687
	C11977	C	0.953619	0.558362	0.744945
	C11978	C	0.892672	0.445158	0.799627
	C11979	C	0.947113	0.548792	0.755978
	C11980	C	0.892703	0.445084	0.701519
	C11981	C	0.947429	0.548187	0.745220
	C11982	C	0.898125	0.456230	0.799864
	C11983	C	0.953310	0.558947	0.755733
	N11984	N	0.866547	0.558211	0.952619
	N11985	N	0.928950	0.495579	0.953207
	N11986	N	0.914343	0.511437	0.547776
	N11987	N	0.976867	0.448971	0.548350
	N11988	N	0.914354	0.511433	0.953536
	N11989	N	0.976865	0.449031	0.953010
	N11990	N	0.866548	0.558245	0.547307
	N11991	N	0.929000	0.495674	0.547856
	N11992	N	0.915303	0.490796	0.703634
	N11993	N	0.973366	0.589782	0.702126
	N11994	N	0.875724	0.410350	0.798071
	N11995	N	0.928220	0.516143	0.797915
	N11996	N	0.875557	0.410542	0.703165
	N11997	N	0.928213	0.516190	0.703172
	N11998	N	0.915268	0.490797	0.798603
	N11999	N	0.973326	0.589836	0.797624
	H12000	H	0.868084	0.705695	0.349439
	H12001	H	0.930637	0.643207	0.349033
	H12002	H	0.904721	0.679022	0.150038
	H12003	H	0.967150	0.616517	0.149795
	H12004	H	0.904612	0.678849	0.350266
	H12005	H	0.967148	0.616479	0.350206
	H12006	H	0.868005	0.705646	0.149911
	H12007	H	0.930584	0.643202	0.149778
	H12008	H	0.903761	0.641824	0.098919
	H12009	H	0.975247	0.649590	0.098005
	H12010	H	0.872461	0.590047	0.398616
	H12011	H	0.936992	0.670533	0.400928
	H12012	H	0.872153	0.590177	0.100311
	H12013	H	0.936953	0.670491	0.098610
	H12014	H	0.903877	0.641576	0.398927
	H12015	H	0.975213	0.649565	0.400815
	H12016	H	0.879653	0.695611	0.353415
	H12017	H	0.942146	0.633110	0.354050
	H12018	H	0.892484	0.687248	-0.146706
	H12019	H	0.954840	0.624564	0.146179
	H12020	H	0.892445	0.687153	0.353660
	H12021	H	0.954868	0.624431	0.353968
	H12022	H	0.879690	0.695752	-0.147037
	H12023	H	0.942039	0.633188	0.145577
	H12024	H	0.892705	0.626005	0.308871
	H12025	H	0.962261	0.655161	0.398728
	H12026	H	0.883076	0.606335	0.189925
	H12027	H	0.949547	0.663862	0.100227
	H12028	H	0.881832	0.608003	0.308489
	H12029	H	0.949473	0.663658	0.398406
	H12030	H	0.894020	0.624280	0.189380
	H12031	H	0.962225	0.655255	0.099976
	Co12032	Co	0.993487	0.657523	0.125415
	Co12033	Co	0.918804	0.663464	0.124945
	Co12034	Co	0.859224	0.566069	0.374483
	Co12035	Co	0.918784	0.663372	0.374291
	C12036	C	0.867151	0.707063	0.423682
	C12037	C	0.929714	0.644656	0.422987
	C12038	C	0.905912	0.678189	0.076551
	C12039	C	0.968368	0.615673	0.076392
	C12040	C	0.905857	0.678062	0.423605
	C12041	C	0.968343	0.615546	0.423663
	C12042	C	0.867102	0.707085	0.076193
	C12043	C	0.929675	0.644695	0.075721
	C12044	C	0.904903	0.643499	0.172432
	C12045	C	0.976689	0.649802	0.172382
	C12046	C	0.871364	0.588269	0.325765
	C12047	C	0.935443	0.670365	0.326883
	C12048	C	0.871211	0.588364	0.173042
	C12049	C	0.935460	0.670471	0.172682
	C12050	C	0.904973	0.643383	0.325881
	C12051	C	0.976690	0.649865	0.326706
	C12052	C	0.871169	0.702619	0.500694
	C12053	C	0.933684	0.640251	-0.001219
	C12054	C	0.901394	0.681421	0.500378
	C12055	C	0.963838	0.618941	-0.000284
	C12056	C	0.900944	0.637278	0.249135
	C12057	C	0.971504	0.650427	0.249586
	C12058	C	0.875078	0.594838	0.249111
	C12059	C	0.940508	0.669260	0.249914
	C12060	C	0.878520	0.696507	0.500650
	C12061	C	0.941014	0.634056	-0.001169
	C12062	C	0.893638	0.686507	0.500574
	C12063	C	0.956058	0.623966	-0.000497
	C12064	C	0.894308	0.626680	0.249068
	C12065	C	0.963402	0.654363	0.249577
	C12066	C	0.881550	0.605695	0.248984
	C12067	C	0.948440	0.664683	0.249579
	C12068	C	0.882372	0.693835	0.418703
	C12069	C	0.944910	0.631330	0.418707
	C12070	C	0.889731	0.689090	-0.082042
	C12071	C	0.952114	0.626442	0.081276
	C12072	C	0.889686	0.688974	0.418775
	C12073	C	0.952186	0.626387	0.418945
	C12074	C	0.882433	0.693954	-0.081977
	C12075	C	0.944832	0.631356	0.080846
	C12076	C	0.890645	0.621745	0.282631
	C12077	C	0.959540	0.656982	0.332533
	C12078	C	0.885177	0.610622	0.215890
	C12079	C	0.952270	0.661980	0.166415
	C12080	C	0.884456	0.611564	0.282481
	C12081	C	0.952267	0.661921	0.332441
	C12082	C	0.891372	0.620808	0.215820
	C12083	C	0.959521	0.657017	0.166648
	N12084	N	0.861544	0.714061	0.452447
	N12085	N	0.924077	0.651610	0.452057
	N12086	N	0.912542	0.673380	0.047656
	N12087	N	0.974966	0.610780	0.047742
	N12088	N	0.912503	0.673233	0.451815
	N12089	N	0.974942	0.610680	0.452131
	N12090	N	0.861460	0.714018	0.047216
	N12091	N	0.924020	0.651647	0.046950
	N12092	N	0.910831	0.652572	0.201348
	N12093	N	0.984484	0.649625	0.201019
	N12094	N	0.865800	0.578715	0.297337
	N12095	N	0.927746	0.671334	0.298658
	N12096	N	0.865690	0.578790	0.202364
	N12097	N	0.927764	0.671368	0.200842
	N12098	N	0.910862	0.652491	0.297078
	N12099	N	0.984486	0.649647	0.298175
	H12100	H	0.868177	0.705904	0.848778
	H12101	H	0.930708	0.643523	0.848204
	H12102	H	0.904839	0.679183	0.650055
	H12103	H	0.967162	0.616395	0.650516
	H12104	H	0.904714	0.679237	0.849781
	H12105	H	0.967132	0.616594	0.849658
	H12106	H	0.868172	0.705909	0.651768
	H12107	H	0.930649	0.643261	0.650843
	H12108	H	0.903968	0.641684	0.599943
	H12109	H	0.975112	0.649449	0.598744
	H12110	H	0.872344	0.590031	0.898661
	H12111	H	0.936949	0.670584	0.900936
	H12112	H	0.872312	0.589954	0.600317
	H12113	H	0.936920	0.670822	0.598003
	H12114	H	0.903874	0.641700	0.899992
	H12115	H	0.975180	0.649651	0.901257
	H12116	H	0.879582	0.695588	1.146783
	H12117	H	0.942162	0.633196	0.851658
	H12118	H	0.892450	0.687108	0.647393
	H12119	H	0.954849	0.624443	0.646385
	H12120	H	0.892292	0.686918	1.146744
	H12121	H	0.954944	0.624533	0.852590
	H12122	H	0.879659	0.695616	0.647473
	H12123	H	0.942082	0.633058	0.646147
	H12124	H	0.894004	0.624386	0.696374
	H12125	H	0.962147	0.655046	0.899321
	H12126	H	0.881818	0.607981	0.802115
	H12127	H	0.949555	0.663835	0.600105
	H12128	H	0.883009	0.606453	0.695915
	H12129	H	0.949403	0.663628	0.899250
	H12130	H	0.892789	0.625973	0.802774
	H12131	H	0.962295	0.655316	0.600421
	Co12132	Co	0.993457	0.657436	0.625211
	Co12133	Co	0.918813	0.663419	0.625370
	Co12134	Co	0.859210	0.566080	0.874265
	Co12135	Co	0.918752	0.663526	0.873861
	C12136	C	0.867200	0.707224	0.922738
	C12137	C	0.929727	0.644836	0.922029
	C12138	C	0.905985	0.678245	0.576550
	C12139	C	0.968360	0.615513	0.576938
	C12140	C	0.905916	0.678296	0.923138
	C12141	C	0.968342	0.615653	0.923042
	C12142	C	0.867212	0.707236	0.577443
	C12143	C	0.929745	0.644725	0.576890
	C12144	C	0.905021	0.643367	0.673140
	C12145	C	0.976642	0.649762	0.672769
	C12146	C	0.871337	0.588283	0.825820
	C12147	C	0.935422	0.670518	0.826725
	C12148	C	0.871315	0.588233	0.672944
	C12149	C	0.935434	0.670610	0.672385
	C12150	C	0.904976	0.643395	0.826410
	C12151	C	0.976671	0.649800	0.826977
	C12152	C	0.871170	0.702735	0.999513
	C12153	C	0.933706	0.640183	0.499896
	C12154	C	0.901401	0.681501	0.999826
	C12155	C	0.963834	0.618804	0.500303
	C12156	C	0.901005	0.637151	0.749810
	C12157	C	0.971496	0.650488	0.750145
	C12158	C	0.875105	0.594807	0.749076
	C12159	C	0.940518	0.669376	0.749701
	C12160	C	0.878524	0.696621	0.999670
	C12161	C	0.941077	0.634113	0.500118
	C12162	C	0.893643	0.686573	0.999794
	C12163	C	0.956112	0.623921	0.500292
	C12164	C	0.894314	0.626590	0.749466
	C12165	C	0.963389	0.654488	0.750063
	C12166	C	0.881553	0.605702	0.749125
	C12167	C	0.948409	0.664800	0.749862
	C12168	C	0.882328	0.693784	1.081591
	C12169	C	0.944885	0.631306	0.917062
	C12170	C	0.889714	0.688967	0.582513
	C12171	C	0.952165	0.626397	0.581624
	C12172	C	0.889639	0.688928	1.081400
	C12173	C	0.952173	0.626420	0.917404
	C12174	C	0.882396	0.693802	0.582310
	C12175	C	0.944880	0.631330	0.581550
	C12176	C	0.891336	0.620834	0.719495
	C12177	C	0.959436	0.656970	0.833006
	C12178	C	0.884475	0.611536	0.778847
	C12179	C	0.952272	0.662109	0.666889
	C12180	C	0.885128	0.610683	0.719270
	C12181	C	0.952179	0.661937	0.832864
	C12182	C	0.890670	0.621709	0.779217
	C12183	C	0.959533	0.657132	0.666750
	N12184	N	0.861524	0.714087	0.951317
	N12185	N	0.924072	0.651739	0.951139
	N12186	N	0.912560	0.673307	0.547819
	N12187	N	0.974979	0.610699	0.548320
	N12188	N	0.912531	0.673414	0.951628
	N12189	N	0.974950	0.610755	0.951717
	N12190	N	0.861561	0.714104	0.548584
	N12191	N	0.924100	0.651640	0.547866
	N12192	N	0.910874	0.652489	0.702146
	N12193	N	0.984428	0.649491	0.701110
	N12194	N	0.865822	0.578661	0.797315
	N12195	N	0.927715	0.671479	0.798615
	N12196	N	0.865808	0.578606	0.702324
	N12197	N	0.927706	0.671521	0.700787
	N12198	N	0.910840	0.652534	0.797271
	N12199	N	0.984428	0.649476	0.798562
	H12200	H	0.880944	0.763734	0.349147
	H12201	H	0.943706	0.701427	0.348402
	H12202	H	0.918637	0.739208	0.151050
	H12203	H	0.981289	0.676852	0.150412
	H12204	H	0.918721	0.739452	0.349441
	H12205	H	0.981310	0.676919	0.348293
	H12206	H	0.881038	0.763847	0.151182
	H12207	H	0.943343	0.700917	0.150249
	H12208	H	0.912780	0.712115	0.098930
	H12209	H	0.988296	0.709117	0.098641
	H12210	H	0.874436	0.732718	0.401202
	H12211	H	0.949418	0.728421	0.400488
	H12212	H	0.874486	0.732979	0.098446
	H12213	H	0.949362	0.727943	0.098139
	H12214	H	0.912777	0.712189	0.401361
	H12215	H	0.988339	0.709644	0.401457
	H12216	H	0.893417	0.755456	0.350518
	H12217	H	0.955890	0.692988	0.350485
	H12218	H	0.906241	0.747380	0.149072
	H12219	H	0.968921	0.685352	0.149646
	H12220	H	0.906461	0.747843	0.350508
	H12221	H	0.969011	0.685469	0.350473
	H12222	H	0.893181	0.755085	0.149769
	H12223	H	0.955884	0.692923	0.149808
	H12224	H	0.899771	0.717771	0.399485
	H12225	H	0.975336	0.714887	0.100069
	H12226	H	0.887003	0.726022	0.100328
	H12227	H	0.962370	0.722687	0.399445
	H12228	H	0.887017	0.726216	0.398950
	H12229	H	0.962410	0.722801	0.099845
	H12230	H	0.899762	0.717596	0.100499
	H12231	H	0.975290	0.714870	0.399749
	Co12232	Co	1.006614	0.717547	0.125436
	Co12233	Co	0.931033	0.720041	0.125321
	Co12234	Co	0.856249	0.725807	0.374123
	Co12235	Co	0.931065	0.720170	0.373846
	C12236	C	0.879930	0.764951	0.423014
	C12237	C	0.942542	0.702583	0.422585
	C12238	C	0.919731	0.737975	0.076942
	C12239	C	0.982228	0.675446	0.076445
	C12240	C	0.919721	0.738068	0.423468
	C12241	C	0.982302	0.675604	0.422666
	C12242	C	0.879977	0.765054	0.077027
	C12243	C	0.942392	0.702306	0.076300
	C12244	C	0.914245	0.712331	0.172904
	C12245	C	0.989796	0.709513	0.172966
	C12246	C	0.872934	0.732661	0.326877
	C12247	C	0.947895	0.728023	0.326522
	C12248	C	0.872952	0.732824	0.172516
	C12249	C	0.947872	0.727888	0.172189
	C12250	C	0.914256	0.712382	0.327036
	C12251	C	0.989821	0.709769	0.327353
	C12252	C	0.884289	0.761165	0.499892
	C12253	C	0.946758	0.698518	-0.000515
	C12254	C	0.915452	0.741974	0.500499
	C12255	C	0.977958	0.679433	-0.000190
	C12256	C	0.909056	0.712947	0.250031
	C12257	C	0.984619	0.710248	0.249949
	C12258	C	0.877997	0.731533	0.249577
	C12259	C	0.953066	0.727333	0.249235
	C12260	C	0.892080	0.756123	0.500289
	C12261	C	0.954558	0.693486	-0.000137
	C12262	C	0.907724	0.747247	0.500248
	C12263	C	0.970186	0.684556	-0.000101
	C12264	C	0.900930	0.716815	0.249985
	C12265	C	0.976497	0.714072	0.249771
	C12266	C	0.885910	0.727009	0.249492
	C12267	C	0.961232	0.723561	0.249302
	C12268	C	0.896175	0.753821	0.417317
	C12269	C	0.958688	0.691337	0.416967
	C12270	C	0.903531	0.749238	0.082532
	C12271	C	0.966149	0.686978	0.082788
	C12272	C	0.903708	0.749555	0.417048
	C12273	C	0.966202	0.686986	0.416813
	C12274	C	0.896022	0.753586	0.083395
	C12275	C	0.958603	0.691206	0.082985
	C12276	C	0.897040	0.719463	0.333000
	C12277	C	0.972568	0.716513	0.166557
	C12278	C	0.889747	0.724264	0.166646
	C12279	C	0.965160	0.721089	0.332786
	C12280	C	0.889745	0.724336	0.332830
	C12281	C	0.965165	0.721071	0.166227
	C12282	C	0.897028	0.719341	0.166991
	C12283	C	0.972567	0.716556	0.332949
	N12284	N	0.873737	0.770868	0.451588
	N12285	N	0.936332	0.708476	0.451032
	N12286	N	0.925795	0.731803	0.048014
	N12287	N	0.988321	0.669338	0.047930
	N12288	N	0.925758	0.731780	0.451845
	N12289	N	0.988359	0.669402	0.451085
	N12290	N	0.873774	0.770972	0.048403
	N12291	N	0.936257	0.708331	0.047770
	N12292	N	0.922023	0.712159	0.201135
	N12293	N	0.997597	0.709495	0.201526
	N12294	N	0.865233	0.733703	0.298529
	N12295	N	0.940096	0.728132	0.297925
	N12296	N	0.865252	0.733811	0.200770
	N12297	N	0.940097	0.728056	0.200741
	N12298	N	0.922038	0.712185	0.298436
	N12299	N	0.997611	0.709617	0.298708
	H12300	H	0.880876	0.763595	0.848607
	H12301	H	0.943505	0.701208	0.848487
	H12302	H	0.918676	0.739136	0.651079
	H12303	H	0.981227	0.676825	0.650561
	H12304	H	0.918674	0.739357	0.848708
	H12305	H	0.981252	0.676867	0.848946
	H12306	H	0.880955	0.763687	0.650679
	H12307	H	0.943320	0.700825	0.650905
	H12308	H	0.912609	0.712025	0.598373
	H12309	H	0.988214	0.709380	0.598823
	H12310	H	0.874384	0.733030	0.901056
	H12311	H	0.949243	0.728478	0.900989
	H12312	H	0.874452	0.733217	0.598584
	H12313	H	0.949295	0.728082	0.597958
	H12314	H	0.912691	0.712100	0.901268
	H12315	H	0.988249	0.709668	0.901431
	H12316	H	0.893447	0.755653	0.851235
	H12317	H	0.955851	0.692794	0.850291
	H12318	H	0.906440	0.747988	0.649871
	H12319	H	0.969010	0.685492	0.648634
	H12320	H	0.906524	0.748096	0.849988
	H12321	H	0.968869	0.685114	0.849966
	H12322	H	0.893338	0.755441	0.650222
	H12323	H	0.955900	0.692992	0.648973
	H12324	H	0.899712	0.717683	0.600533
	H12325	H	0.975218	0.714793	0.600331
	H12326	H	0.887064	0.726533	0.899377
	H12327	H	0.962286	0.722716	0.899585
	H12328	H	0.886964	0.726298	0.600585
	H12329	H	0.962225	0.722700	0.599896
	H12330	H	0.899704	0.717931	0.899380
	H12331	H	0.975192	0.714930	0.899724
	Co12332	Co	1.006589	0.717512	0.625623
	Co12333	Co	0.930925	0.719824	0.625249
	Co12334	Co	0.856275	0.725913	0.873784
	Co12335	Co	0.930959	0.720018	0.873735
	C12336	C	0.879869	0.764849	0.923075
	C12337	C	0.942454	0.702399	0.922552
	C12338	C	0.919693	0.737889	0.577008
	C12339	C	0.982237	0.675472	0.576337
	C12340	C	0.919702	0.737982	0.922900
	C12341	C	0.982259	0.675543	0.922912
	C12342	C	0.879933	0.764928	0.576563
	C12343	C	0.942373	0.702266	0.576468
	C12344	C	0.914110	0.712206	0.672852
	C12345	C	0.989738	0.709675	0.672912
	C12346	C	0.872914	0.732987	0.826985
	C12347	C	0.947763	0.727989	0.826495
	C12348	C	0.872917	0.733073	0.672627
	C12349	C	0.947762	0.727892	0.672100
	C12350	C	0.914133	0.712291	0.827119
	C12351	C	0.989722	0.709859	0.827183
	C12352	C	0.884277	0.761175	1.000060
	C12353	C	0.946797	0.698624	0.499584
	C12354	C	0.915421	0.741910	0.999947
	C12355	C	0.978002	0.679521	0.499454
	C12356	C	0.908962	0.712957	0.749911
	C12357	C	0.984555	0.710406	0.749699
	C12358	C	0.877981	0.731893	0.749717
	C12359	C	0.952961	0.727383	0.749221
	C12360	C	0.892051	0.756041	1.000497
	C12361	C	0.954619	0.693605	0.499779
	C12362	C	0.907654	0.747083	0.999789
	C12363	C	0.970257	0.684725	0.499510
	C12364	C	0.900871	0.717011	0.749872
	C12365	C	0.976381	0.714128	0.749652
	C12366	C	0.885923	0.727381	0.749791
	C12367	C	0.961109	0.723589	0.749424
	C12368	C	0.896216	0.753908	0.917558
	C12369	C	0.958631	0.691160	0.917056
	C12370	C	0.903664	0.749629	0.583058
	C12371	C	0.966207	0.687039	0.582175
	C12372	C	0.903725	0.749588	0.916778
	C12373	C	0.966137	0.686791	0.916796
	C12374	C	0.896123	0.753880	0.583448
	C12375	C	0.958678	0.691330	0.582503
	C12376	C	0.896971	0.719542	0.666788
	C12377	C	0.972432	0.716537	0.666523
	C12378	C	0.889769	0.724691	0.832923
	C12379	C	0.965030	0.721087	0.832863
	C12380	C	0.889721	0.724530	0.666738
	C12381	C	0.965012	0.721058	0.666287
	C12382	C	0.897001	0.719702	0.832900
	C12383	C	0.972435	0.716530	0.833052
	N12384	N	0.873681	0.770821	0.951814
	N12385	N	0.936290	0.708383	0.951017
	N12386	N	0.925718	0.731636	0.548225
	N12387	N	0.988318	0.669288	0.547675
	N12388	N	0.925769	0.731797	0.951599
	N12389	N	0.988350	0.669380	0.951369
	N12390	N	0.873758	0.770860	0.548312
	N12391	N	0.936217	0.708254	0.547740
	N12392	N	0.921897	0.711943	0.701318
	N12393	N	0.997514	0.709552	0.701452
	N12394	N	0.865203	0.733977	0.798679
	N12395	N	0.939964	0.728060	0.797729
	N12396	N	0.865201	0.734026	0.700887
	N12397	N	0.939964	0.727992	0.700411
	N12398	N	0.921913	0.711992	0.798674
	N12399	N	0.997504	0.709674	0.798744
	H12400	H	0.893849	0.823100	0.349260
	H12401	H	0.956513	0.761059	0.349320
	H12402	H	0.931499	0.798831	0.150887
	H12403	H	0.994010	0.736386	0.151347
	H12404	H	0.931662	0.799035	0.349112
	H12405	H	0.994124	0.736475	0.348998
	H12406	H	0.893818	0.823253	0.150748
	H12407	H	0.956245	0.760545	0.150734
	H12408	H	0.925674	0.771799	0.099375
	H12409	H	1.000719	0.766923	0.098082
	H12410	H	0.886744	0.790698	0.401851
	H12411	H	0.962404	0.788075	0.400991
	H12412	H	0.886796	0.790889	0.098950
	H12413	H	0.962394	0.787929	0.098306
	H12414	H	0.925779	0.772043	0.402006
	H12415	H	1.000677	0.767063	0.400680
	H12416	H	0.906126	0.814646	0.350260
	H12417	H	0.968613	0.752215	0.649332
	H12418	H	0.919259	0.807153	0.149237
	H12419	H	0.981749	0.744845	0.148876
	H12420	H	0.919247	0.807168	0.350456
	H12421	H	0.981727	0.744606	0.649100
	H12422	H	0.906137	0.814689	0.149203
	H12423	H	0.968650	0.752391	0.149620
	H12424	H	0.912727	0.777270	0.100265
	H12425	H	0.988083	0.773827	0.100359
	H12426	H	0.899800	0.785417	0.400645
	H12427	H	0.975373	0.782323	0.398716
	H12428	H	0.899720	0.785131	0.100063
	H12429	H	0.975375	0.782456	0.100015
	H12430	H	0.912766	0.777541	0.400952
	H12431	H	0.988108	0.773855	0.399403
	Co12432	Co	1.018824	0.774229	0.125493
	Co12433	Co	0.944027	0.779976	0.125475
	Co12434	Co	0.868450	0.782549	0.374402
	Co12435	Co	0.944122	0.780135	0.374183
	C12436	C	0.892799	0.824409	0.423468
	C12437	C	0.955383	0.762187	0.423182
	C12438	C	0.932610	0.797666	0.076732
	C12439	C	0.995098	0.735125	0.077191
	C12440	C	0.932698	0.797807	0.423255
	C12441	C	0.995186	0.735241	0.423074
	C12442	C	0.892795	0.824532	0.076826
	C12443	C	0.955293	0.761978	0.076486
	C12444	C	0.927214	0.772171	0.173274
	C12445	C	1.002178	0.767110	0.172461
	C12446	C	0.885273	0.790428	0.327278
	C12447	C	0.960935	0.787873	0.326618
	C12448	C	0.885307	0.790526	0.172825
	C12449	C	0.960913	0.787671	0.172363
	C12450	C	0.927267	0.772305	0.327656
	C12451	C	1.002180	0.767212	0.326622
	C12452	C	0.897098	0.820516	0.500413
	C12453	C	0.959627	0.758143	-0.000474
	C12454	C	0.928336	0.801515	0.500103
	C12455	C	0.990809	0.739057	0.000050
	C12456	C	0.922060	0.772868	0.250670
	C12457	C	0.997100	0.768265	0.249414
	C12458	C	0.890466	0.789876	0.250136
	C12459	C	0.966100	0.787136	0.249410
	C12460	C	0.904885	0.815346	0.500378
	C12461	C	0.967383	0.752970	-0.000170
	C12462	C	0.920519	0.806549	0.500310
	C12463	C	0.982984	0.744106	-0.000309
	C12464	C	0.913892	0.776631	0.250612
	C12465	C	0.989162	0.772822	0.249553
	C12466	C	0.898632	0.786108	0.250345
	C12467	C	0.974219	0.783176	0.249392
	C12468	C	0.908896	0.813022	0.417135
	C12469	C	0.971411	0.750599	0.582882
	C12470	C	0.916445	0.808765	0.082900
	C12471	C	0.978923	0.746414	0.082687
	C12472	C	0.916436	0.808798	0.417069
	C12473	C	0.978936	0.746297	0.582670
	C12474	C	0.908918	0.813072	0.082468
	C12475	C	0.971399	0.750701	0.083028
	C12476	C	0.909961	0.779033	0.166857
	C12477	C	0.985341	0.775645	0.166550
	C12478	C	0.902569	0.783715	0.334078
	C12479	C	0.978083	0.780484	0.332458
	C12480	C	0.902550	0.783594	0.166640
	C12481	C	0.978094	0.780646	0.166368
	C12482	C	0.909969	0.779138	0.334109
	C12483	C	0.985339	0.775556	0.332697
	N12484	N	0.886733	0.830615	0.452137
	N12485	N	0.949270	0.768298	0.451942
	N12486	N	0.938819	0.791757	0.048215
	N12487	N	1.001306	0.729195	0.048426
	N12488	N	0.938843	0.791787	0.451773
	N12489	N	1.001386	0.729292	0.451869
	N12490	N	0.886718	0.830694	0.048309
	N12491	N	0.949235	0.768207	0.047957
	N12492	N	0.935004	0.772028	0.201552
	N12493	N	1.009890	0.766227	0.200651
	N12494	N	0.877495	0.790633	0.298814
	N12495	N	0.953141	0.788049	0.298045
	N12496	N	0.877500	0.790678	0.201444
	N12497	N	0.953126	0.787900	0.200823
	N12498	N	0.935033	0.772113	0.298963
	N12499	N	1.009902	0.766332	0.298567
	H12500	H	0.893704	0.823075	0.849327
	H12501	H	0.956469	0.761102	0.848546
	H12502	H	0.931653	0.798929	0.651163
	H12503	H	0.994122	0.736527	0.651436
	H12504	H	0.931695	0.799127	0.848815
	H12505	H	0.994177	0.736725	0.848840
	H12506	H	0.893887	0.823211	0.651776
	H12507	H	0.956234	0.760419	0.651166
	H12508	H	0.925776	0.771860	0.599176
	H12509	H	1.000635	0.767077	0.598684
	H12510	H	0.886750	0.790528	0.901540
	H12511	H	0.962392	0.788206	0.901004
	H12512	H	0.886816	0.790586	0.599146
	H12513	H	0.962375	0.787856	0.598073
	H12514	H	0.925860	0.772077	0.901535
	H12515	H	1.000655	0.766981	0.901821
	H12516	H	0.906031	0.814478	0.850073
	H12517	H	0.968649	0.752229	0.850629
	H12518	H	0.919287	0.807245	0.650227
	H12519	H	0.981750	0.744649	0.350581
	H12520	H	0.919182	0.807138	0.850696
	H12521	H	0.981715	0.744562	0.850289
	H12522	H	0.906180	0.814767	0.650519
	H12523	H	0.968712	0.752304	0.350891
	H12524	H	0.912863	0.777510	0.600728
	H12525	H	0.988044	0.773642	0.601114
	H12526	H	0.899836	0.785323	0.900686
	H12527	H	0.975363	0.782541	0.898812
	H12528	H	0.899776	0.785238	0.600649
	H12529	H	0.975317	0.782231	0.600211
	H12530	H	0.912872	0.777625	0.901092
	H12531	H	0.988073	0.773984	0.899519
	Co12532	Co	1.018825	0.774280	0.625615
	Co12533	Co	0.944066	0.780020	0.625983
	Co12534	Co	0.868434	0.782475	0.874253
	Co12535	Co	0.944133	0.780209	0.874007
	C12536	C	0.892746	0.824447	0.923238
	C12537	C	0.955382	0.762191	0.922676
	C12538	C	0.932655	0.797671	0.576898
	C12539	C	0.995166	0.735197	0.577142
	C12540	C	0.932686	0.797797	0.922965
	C12541	C	0.995195	0.735334	0.923298
	C12542	C	0.892851	0.824534	0.577393
	C12543	C	0.955262	0.761938	0.577091
	C12544	C	0.927287	0.772199	0.673267
	C12545	C	1.002169	0.767188	0.672900
	C12546	C	0.885291	0.790303	0.827721
	C12547	C	0.960910	0.787867	0.826790
	C12548	C	0.885286	0.790269	0.673549
	C12549	C	0.960896	0.787659	0.672401
	C12550	C	0.927325	0.772265	0.827689
	C12551	C	1.002188	0.767101	0.827520
	C12552	C	0.897061	0.820523	1.000012
	C12553	C	0.959618	0.758129	0.500267
	C12554	C	0.928292	0.801487	0.999725
	C12555	C	0.990838	0.739005	0.500113
	C12556	C	0.922120	0.772869	0.750560
	C12557	C	0.997079	0.768269	0.750312
	C12558	C	0.890475	0.789658	0.750660
	C12559	C	0.966077	0.787083	0.749458
	C12560	C	0.904820	0.815311	0.999811
	C12561	C	0.967388	0.752931	0.500346
	C12562	C	0.920485	0.806532	0.999830
	C12563	C	0.983009	0.744009	0.499964
	C12564	C	0.913976	0.776676	0.750674
	C12565	C	0.989154	0.772788	0.750224
	C12566	C	0.898668	0.786020	0.750699
	C12567	C	0.974172	0.783131	0.749506
	C12568	C	0.908837	0.813000	0.916915
	C12569	C	0.971433	0.750601	0.917030
	C12570	C	0.916455	0.808792	0.583636
	C12571	C	0.978974	0.746309	0.417181
	C12572	C	0.916394	0.808805	0.917108
	C12573	C	0.978944	0.746283	0.916745
	C12574	C	0.908937	0.813098	0.583575
	C12575	C	0.971461	0.750637	0.417566
	C12576	C	0.910045	0.779108	0.667281
	C12577	C	0.985319	0.775494	0.667179
	C12578	C	0.902644	0.783672	0.834197
	C12579	C	0.978065	0.780604	0.832579
	C12580	C	0.902613	0.783612	0.667032
	C12581	C	0.978039	0.780424	0.666716
	C12582	C	0.910071	0.779140	0.834183
	C12583	C	0.985339	0.775641	0.832930
	N12584	N	0.886679	0.830633	0.951761
	N12585	N	0.949300	0.768344	0.951221
	N12586	N	0.938873	0.791800	0.548531
	N12587	N	1.001345	0.729237	0.548341
	N12588	N	0.938886	0.791877	0.951660
	N12589	N	1.001348	0.729313	0.952005
	N12590	N	0.886750	0.830680	0.548476
	N12591	N	0.949227	0.768198	0.548385
	N12592	N	0.935068	0.772009	0.701714
	N12593	N	1.009877	0.766287	0.701178
	N12594	N	0.877514	0.790457	0.799048
	N12595	N	0.953141	0.788109	0.798089
	N12596	N	0.877502	0.790470	0.701810
	N12597	N	0.953131	0.788007	0.700833
	N12598	N	0.935093	0.772059	0.798925
	N12599	N	1.009903	0.766265	0.798998
	H12600	H	0.907882	0.883564	0.350370
	H12601	H	0.970379	0.821171	0.350135
	H12602	H	0.944463	0.856803	0.150852
	H12603	H	1.006980	0.794395	0.151084
	H12604	H	0.944479	0.856961	0.349866
	H12605	H	1.006800	0.794216	0.349850
	H12606	H	0.907829	0.883439	0.150534
	H12607	H	0.970394	0.821069	0.150029
	H12608	H	0.938108	0.829349	0.099433
	H12609	H	1.002626	0.910005	0.101253
	H12610	H	0.899771	0.850460	0.401553
	H12611	H	0.971136	0.858282	0.400604
	H12612	H	0.899819	0.850568	0.099025
	H12613	H	0.971198	0.858281	0.100692
	H12614	H	0.938142	0.829663	0.401073
	H12615	H	1.002681	0.910015	0.399897
	H12616	H	0.919991	0.875109	0.646527
	H12617	H	0.982603	0.812909	0.354175
	H12618	H	0.932817	0.866746	-0.146782
	H12619	H	0.995451	0.804425	-0.146045
	H12620	H	0.932756	0.866491	0.647008
	H12621	H	0.995368	0.804304	0.353956
	H12622	H	0.920054	0.875399	-0.146026
	H12623	H	0.982707	0.813124	-0.145831
	H12624	H	0.925439	0.836358	0.100646
	H12625	H	0.992652	0.892681	0.262345
	H12626	H	0.912809	0.844960	0.399875
	H12627	H	0.981584	0.875047	0.239502
	H12628	H	0.912777	0.844851	0.100949
	H12629	H	0.981730	0.874675	0.261444
	H12630	H	0.925508	0.836379	0.400236
	H12631	H	0.992451	0.893103	0.240219
	Co12632	Co	1.015821	0.933918	0.125765
	Co12633	Co	0.956231	0.836613	0.125756
	Co12634	Co	0.881488	0.842320	0.374189
	Co12635	Co	0.956223	0.836697	0.374516
	C12636	C	0.906682	0.884447	0.423403
	C12637	C	0.969129	0.821889	0.423385
	C12638	C	0.945331	0.855313	0.076860
	C12639	C	1.007926	0.792974	0.077126
	C12640	C	0.945402	0.855435	0.423516
	C12641	C	1.007832	0.792905	0.423681
	C12642	C	0.906583	0.884289	0.077280
	C12643	C	0.969208	0.821971	0.076979
	C12644	C	0.939590	0.829569	0.173091
	C12645	C	1.003665	0.911788	0.174173
	C12646	C	0.898329	0.850219	0.327837
	C12647	C	0.970079	0.856600	0.327068
	C12648	C	0.898344	0.850286	0.173466
	C12649	C	0.970103	0.856585	0.173923
	C12650	C	0.939632	0.829701	0.327284
	C12651	C	1.003673	0.911796	0.327072
	C12652	C	0.911195	0.881202	0.500061
	C12653	C	0.973706	0.818726	0.000410
	C12654	C	0.941376	0.859895	0.500349
	C12655	C	1.003903	0.797406	0.000236
	C12656	C	0.934532	0.830802	0.250305
	C12657	C	0.999872	0.905263	0.250692
	C12658	C	0.903501	0.849651	0.250664
	C12659	C	0.974129	0.862776	0.250553
	C12660	C	0.918963	0.876178	0.500051
	C12661	C	0.981464	0.813665	0.000354
	C12662	C	0.934028	0.866005	0.500395
	C12663	C	0.996506	0.803478	0.000419
	C12664	C	0.926585	0.835309	0.250434
	C12665	C	0.993451	0.894354	0.250824
	C12666	C	0.911599	0.845662	0.250595
	C12667	C	0.980757	0.873381	0.250633
	C12668	C	0.922815	0.873435	0.581856
	C12669	C	0.985328	0.810995	0.418892
	C12670	C	0.930106	0.868628	-0.081575
	C12671	C	0.992689	0.806245	-0.081161
	C12672	C	0.930108	0.868515	0.581994
	C12673	C	0.992627	0.806137	0.418863
	C12674	C	0.922807	0.873502	-0.080941
	C12675	C	0.985406	0.811161	-0.081250
	C12676	C	0.922731	0.838068	0.167260
	C12677	C	0.990234	0.888866	0.257005
	C12678	C	0.915519	0.843115	0.333637
	C12679	C	0.983994	0.878851	0.244593
	C12680	C	0.915474	0.843025	0.167471
	C12681	C	0.984083	0.878625	0.256916
	C12682	C	0.922774	0.838129	0.333598
	C12683	C	0.990157	0.889063	0.244664
	N12684	N	0.900078	0.889300	0.451842
	N12685	N	0.962509	0.826734	0.451773
	N12686	N	0.951016	0.848456	0.047897
	N12687	N	1.013562	0.786043	0.047943
	N12688	N	0.951017	0.848502	0.452597
	N12689	N	1.013497	0.786022	0.452240
	N12690	N	0.899947	0.889100	0.048485
	N12691	N	0.962581	0.826814	0.048495
	N12692	N	0.947296	0.828613	0.201175
	N12693	N	1.009204	0.921371	0.203078
	N12694	N	0.890538	0.850353	0.299141
	N12695	N	0.964168	0.847573	0.298039
	N12696	N	0.890536	0.850402	0.201831
	N12697	N	0.964159	0.847567	0.202856
	N12698	N	0.947321	0.828676	0.299039
	N12699	N	1.009210	0.921396	0.298124
	H12700	H	0.907756	0.883310	0.850545
	H12701	H	0.970376	0.820908	0.850178
	H12702	H	0.944396	0.856670	0.651768
	H12703	H	1.007008	0.794457	0.651621
	H12704	H	0.944337	0.856737	0.849282
	H12705	H	1.006868	0.794207	0.848958
	H12706	H	0.907876	0.883535	0.649990
	H12707	H	0.970247	0.820843	0.650113
	H12708	H	0.938134	0.829368	0.597740
	H12709	H	1.002908	0.909831	0.600909
	H12710	H	0.899871	0.850333	0.901946
	H12711	H	0.971272	0.858314	0.900110
	H12712	H	0.899829	0.850382	0.599302
	H12713	H	0.971122	0.858495	0.600438
	H12714	H	0.938107	0.829512	0.901706
	H12715	H	1.002655	0.910170	0.899208
	H12716	H	0.920070	0.875221	1.148352
	H12717	H	0.982642	0.813078	1.146281
	H12718	H	0.933093	0.867334	0.353864
	H12719	H	0.995310	0.804383	0.647476
	H12720	H	0.932827	0.866658	1.147553
	H12721	H	0.995418	0.804418	1.146542
	H12722	H	0.920308	0.875916	0.353686
	H12723	H	0.982544	0.812964	0.647270
	H12724	H	0.925483	0.835923	0.899341
	H12725	H	0.991926	0.893870	0.830227
	H12726	H	0.912831	0.844847	0.600624
	H12727	H	0.982344	0.874042	0.668629
	H12728	H	0.912787	0.844589	0.899478
	H12729	H	0.981050	0.875862	0.830357
	H12730	H	0.925513	0.836233	0.599920
	H12731	H	0.993248	0.892052	0.669197
	Co12732	Co	1.015877	0.933989	0.625717
	Co12733	Co	0.956309	0.836585	0.625836
	Co12734	Co	0.881502	0.842439	0.874553
	Co12735	Co	0.956283	0.836614	0.874860
	C12736	C	0.906538	0.884180	0.924165
	C12737	C	0.969168	0.821872	0.923841
	C12738	C	0.945322	0.855278	0.577391
	C12739	C	1.007914	0.793030	0.577456
	C12740	C	0.945346	0.855358	0.923065
	C12741	C	1.007864	0.792874	0.923077
	C12742	C	0.906676	0.884446	0.576699
	C12743	C	0.969067	0.821724	0.576510
	C12744	C	0.939622	0.829483	0.672623
	C12745	C	1.003847	0.911704	0.673617
	C12746	C	0.898372	0.850174	0.827418
	C12747	C	0.970145	0.856654	0.827212
	C12748	C	0.898365	0.850169	0.673217
	C12749	C	0.970086	0.856720	0.673674
	C12750	C	0.939606	0.829531	0.827091
	C12751	C	1.003705	0.911879	0.826182
	C12752	C	0.911060	0.880924	1.000594
	C12753	C	0.973603	0.818505	0.499953
	C12754	C	0.941360	0.859837	0.999895
	C12755	C	1.003858	0.797422	0.500686
	C12756	C	0.934524	0.830609	0.749893
	C12757	C	0.999989	0.905276	0.749956
	C12758	C	0.903553	0.849507	0.750391
	C12759	C	0.974138	0.862855	0.750281
	C12760	C	0.918851	0.875944	1.000962
	C12761	C	0.981376	0.813477	0.500423
	C12762	C	0.933971	0.865900	1.000149
	C12763	C	0.996458	0.803442	0.500666
	C12764	C	0.926583	0.835100	0.749822
	C12765	C	0.993512	0.894444	0.750017
	C12766	C	0.911666	0.845530	0.750337
	C12767	C	0.980774	0.873461	0.749865
	C12768	C	0.922776	0.873390	1.082808
	C12769	C	0.985402	0.811180	1.081748
	C12770	C	0.930265	0.868946	0.418702
	C12771	C	0.992584	0.806180	0.582377
	C12772	C	0.930082	0.868532	1.082341
	C12773	C	0.992674	0.806230	1.081869
	C12774	C	0.922982	0.873890	0.418477
	C12775	C	0.985290	0.811058	0.582317
	C12776	C	0.922757	0.837808	0.833038
	C12777	C	0.989886	0.889551	0.794800
	C12778	C	0.915528	0.842959	0.666816
	C12779	C	0.984433	0.878330	0.704529
	C12780	C	0.915530	0.842839	0.833143
	C12781	C	0.983700	0.879348	0.794869
	C12782	C	0.922776	0.837942	0.666568
	C12783	C	0.990619	0.888530	0.704788
	N12784	N	0.899938	0.889056	0.952364
	N12785	N	0.962551	0.826742	0.952357
	N12786	N	0.950992	0.848408	0.548300
	N12787	N	1.013573	0.786127	0.548228
	N12788	N	0.951026	0.848481	0.952078
	N12789	N	1.013536	0.786001	0.952190
	N12790	N	0.900043	0.889290	0.548019
	N12791	N	0.962474	0.826652	0.547895
	N12792	N	0.947342	0.828617	0.701194
	N12793	N	1.009332	0.921353	0.702468
	N12794	N	0.890592	0.850372	0.799126
	N12795	N	0.964230	0.847596	0.798272
	N12796	N	0.890581	0.850445	0.701862
	N12797	N	0.964213	0.847616	0.702671
	N12798	N	0.947323	0.828649	0.799002
	N12799	N	1.009253	0.921444	0.797297
