data_Molecule from HDF5

_cell_length_a		162.597155
_cell_length_b		118.256690
_cell_length_c		14.067636
_cell_angle_alpha	90.006867
_cell_angle_beta	89.989691
_cell_angle_gamma	96.378202
_symmetry_space_group_name_H-M	'P 1'
_symmetry_Int_Tables_number		1

loop_
	_symmetry_equiv_pos_as_xyz
	x,y,z

loop_
	_atom_site_label
	_atom_site_type_symbol
	_atom_site_fract_x
	_atom_site_fract_y
	_atom_site_fract_z
	H0	H	0.005861	0.140862	0.351851
	H1	H	0.068485	0.078564	0.353254
	H2	H	0.039178	0.108425	0.149629
	H3	H	0.101723	0.046034	0.149068
	H4	H	0.039244	0.108261	0.352264
	H5	H	0.101532	0.045490	0.352847
	H6	H	0.006110	0.141608	0.149494
	H7	H	0.068166	0.078284	0.149582
	H8	H	0.040913	0.071735	0.101619
	H9	H	0.096241	0.163098	0.101060
	H10	H	0.012491	0.021929	0.399748
	H11	H	0.066702	0.114692	0.400168
	H12	H	0.012493	0.022000	0.102063
	H13	H	0.066407	0.115012	0.101719
	H14	H	0.041145	0.071223	0.400221
	H15	H	0.096386	0.162969	0.399153
	H16	H	0.016942	0.130815	0.468170
	H17	H	0.079429	0.068240	0.435507
	H18	H	0.028050	0.118590	-0.028637
	H19	H	0.090428	0.055665	-0.020088
	H20	H	0.028569	0.119288	0.467554
	H21	H	0.091071	0.056741	0.434698
	H22	H	0.016477	0.130121	-0.029506
	H23	H	0.078766	0.067132	-0.018903
	H24	H	0.031953	0.055059	0.280174
	H25	H	0.086838	0.147147	0.333296
	H26	H	0.021515	0.038504	0.222634
	H27	H	0.076063	0.130797	0.167986
	H28	H	0.022068	0.037851	0.280706
	H29	H	0.076527	0.130400	0.333877
	H30	H	0.031427	0.055666	0.221742
	H31	H	0.086355	0.147608	0.167600
	Co32	Co	0.109562	0.184238	0.125484
	Co33	Co	0.053636	0.093348	0.126754
	Co34	Co	-0.000136	0.000035	0.375633
	Co35	Co	0.053694	0.093261	0.375833
	C36	C	0.004687	0.142091	0.424313
	C37	C	0.067248	0.079711	0.425516
	C38	C	0.040222	0.107109	0.077059
	C39	C	0.102753	0.044721	0.077145
	C40	C	0.040298	0.107026	0.424622
	C41	C	0.102658	0.044438	0.425800
	C42	C	0.004843	0.142532	0.076824
	C43	C	0.067057	0.079525	0.077090
	C44	C	0.041946	0.073192	0.174734
	C45	C	0.097274	0.164654	0.173720
	C46	C	0.011516	0.020314	0.327363
	C47	C	0.065693	0.113186	0.327378
	C48	C	0.011519	0.020337	0.174927
	C49	C	0.065547	0.113355	0.174868
	C50	C	0.042081	0.072933	0.327277
	C51	C	0.097337	0.164597	0.326298
	C52	C	0.008831	0.138057	0.500536
	C53	C	0.071183	0.075559	0.000842
	C54	C	0.036076	0.110995	0.500778
	C55	C	0.098572	0.048583	0.000723
	C56	C	0.038478	0.066915	0.250838
	C57	C	0.093631	0.158749	0.250140
	C58	C	0.015042	0.026472	0.251169
	C59	C	0.069234	0.119230	0.251058
	C60	C	0.015730	0.131212	0.500622
	C61	C	0.078090	0.068678	0.000695
	C62	C	0.029178	0.117843	0.500555
	C63	C	0.091647	0.055429	0.000504
	C64	C	0.032512	0.056740	0.250775
	C65	C	0.087447	0.148764	0.250338
	C66	C	0.020966	0.036703	0.251451
	C67	C	0.075416	0.129220	0.250784
	C68	C	0.019316	0.128078	0.481942
	C69	C	0.081777	0.065556	0.464989
	C70	C	0.025623	0.121205	-0.016146
	C71	C	0.087998	0.058451	-0.010930
	C72	C	0.025913	0.121560	0.481790
	C73	C	0.088364	0.059041	0.464375
	C74	C	0.019068	0.127764	-0.016470
	C75	C	0.081402	0.064921	-0.010604
	C76	C	0.029698	0.051459	0.267361
	C77	C	0.084480	0.143609	0.296886
	C78	C	0.023764	0.042035	0.235187
	C79	C	0.078407	0.134366	0.204413
	C80	C	0.024076	0.041698	0.267912
	C81	C	0.078647	0.134113	0.297032
	C82	C	0.029384	0.051793	0.234572
	C83	C	0.084229	0.143876	0.204115
	N84	N	-0.001345	0.148083	0.453122
	N85	N	0.061186	0.085677	0.453776
	N86	N	0.046251	0.101102	0.048552
	N87	N	0.108770	0.038653	0.048818
	N88	N	0.046290	0.100997	0.453643
	N89	N	0.108705	0.038500	0.454784
	N90	N	-0.001253	0.148399	0.047975
	N91	N	0.061019	0.085533	0.048792
	N92	N	0.047139	0.082025	0.203881
	N93	N	0.102704	0.173305	0.202416
	N94	N	0.006377	0.011361	0.298468
	N95	N	0.060347	0.104417	0.298488
	N96	N	0.006380	0.011375	0.203478
	N97	N	0.060259	0.104524	0.203715
	N98	N	0.047226	0.081883	0.298505
	N99	N	0.102747	0.173268	0.297282
	H100	H	0.005658	0.140759	0.851483
	H101	H	0.068239	0.078509	0.852253
	H102	H	0.038912	0.107834	0.649536
	H103	H	0.101531	0.045552	0.651097
	H104	H	0.038876	0.107836	0.852331
	H105	H	0.101442	0.045426	0.852495
	H106	H	0.005889	0.140976	0.649008
	H107	H	0.068170	0.078238	0.650312
	H108	H	0.041313	0.071235	0.602002
	H109	H	0.096370	0.162869	0.602063
	H110	H	0.012389	0.022058	0.900884
	H111	H	0.066447	0.114958	0.901494
	H112	H	0.012637	0.021863	0.602824
	H113	H	0.066670	0.114711	0.602342
	H114	H	0.040793	0.071748	0.900359
	H115	H	0.096089	0.163304	0.901066
	H116	H	0.016772	0.130617	1.029422
	H117	H	0.079321	0.068352	1.020973
	H118	H	0.027980	0.118244	0.533420
	H119	H	0.090424	0.055793	0.569033
	H120	H	0.028348	0.119040	1.029721
	H121	H	0.090983	0.056899	1.020867
	H122	H	0.016359	0.129770	0.533738
	H123	H	0.078808	0.067289	0.569549
	H124	H	0.031619	0.055456	0.660314
	H125	H	0.087323	0.146510	0.714134
	H126	H	0.021920	0.038030	0.843605
	H127	H	0.075372	0.131487	0.788708
	H128	H	0.021726	0.038235	0.660719
	H129	H	0.077041	0.129729	0.715061
	H130	H	0.031839	0.055234	0.842887
	H131	H	0.085738	0.148219	0.789376
	Co132	Co	0.109533	0.184199	0.625514
	Co133	Co	0.053684	0.093297	0.626381
	Co134	Co	-0.000090	0.000118	0.875492
	Co135	Co	0.053630	0.093314	0.876063
	C136	C	0.004630	0.142147	0.924222
	C137	C	0.067080	0.079639	0.924996
	C138	C	0.040129	0.106821	0.577117
	C139	C	0.102671	0.044494	0.578200
	C140	C	0.040065	0.106799	0.924840
	C141	C	0.102615	0.044434	0.924956
	C142	C	0.004704	0.142154	0.576794
	C143	C	0.067063	0.079501	0.577918
	C144	C	0.042094	0.072950	0.674965
	C145	C	0.097317	0.164554	0.674964
	C146	C	0.011526	0.020393	0.827916
	C147	C	0.065541	0.113348	0.828260
	C148	C	0.011676	0.020316	0.675277
	C149	C	0.065640	0.113218	0.675533
	C150	C	0.041821	0.073223	0.827372
	C151	C	0.097191	0.164765	0.827826
	C152	C	0.008877	0.138279	1.000536
	C153	C	0.071235	0.075520	0.502146
	C154	C	0.036002	0.111012	1.000771
	C155	C	0.098547	0.048537	0.501861
	C156	C	0.038452	0.067039	0.751137
	C157	C	0.093579	0.158739	0.751495
	C158	C	0.015113	0.026417	0.751947
	C159	C	0.069235	0.119246	0.751928
	C160	C	0.015728	0.131368	1.000177
	C161	C	0.078154	0.068702	0.502490
	C162	C	0.029146	0.117912	1.000479
	C163	C	0.091628	0.055344	0.501952
	C164	C	0.032546	0.056748	0.751560
	C165	C	0.087396	0.148750	0.751567
	C166	C	0.021011	0.036733	0.752246
	C167	C	0.075391	0.129267	0.751886
	C168	C	0.019229	0.128027	1.016565
	C169	C	0.081716	0.065640	1.012137
	C170	C	0.025597	0.120986	0.519070
	C171	C	0.088018	0.058510	0.539845
	C172	C	0.025790	0.121466	1.016756
	C173	C	0.088303	0.059147	1.011840
	C174	C	0.019012	0.127527	0.519067
	C175	C	0.081445	0.065039	0.540133
	C176	C	0.029513	0.051670	0.700510
	C177	C	0.084745	0.143264	0.730680
	C178	C	0.024026	0.041819	0.803455
	C179	C	0.078014	0.134760	0.772701
	C180	C	0.023920	0.041940	0.700924
	C181	C	0.078915	0.133793	0.730967
	C182	C	0.029628	0.051543	0.803062
	C183	C	0.083854	0.144223	0.772766
	N184	N	-0.001392	0.148151	0.953142
	N185	N	0.061031	0.085593	0.954020
	N186	N	0.046202	0.100881	0.548339
	N187	N	0.108713	0.038528	0.549287
	N188	N	0.046150	0.100930	0.953860
	N189	N	0.108695	0.038498	0.954246
	N190	N	-0.001336	0.148124	0.547834
	N191	N	0.061095	0.085563	0.548623
	N192	N	0.047221	0.081981	0.703543
	N193	N	0.102734	0.173266	0.703522
	N194	N	0.006374	0.011450	0.798745
	N195	N	0.060229	0.104549	0.799124
	N196	N	0.006471	0.011390	0.703600
	N197	N	0.060290	0.104476	0.704257
	N198	N	0.047041	0.082145	0.798511
	N199	N	0.102648	0.173404	0.798643
	H200	H	-0.001000	0.294036	0.350802
	H201	H	0.061477	0.231641	0.350706
	H202	H	0.032639	0.261714	0.148528
	H203	H	0.095058	0.199269	0.149177
	H204	H	0.032688	0.261737	0.351023
	H205	H	0.095145	0.199377	0.351477
	H206	H	-0.000886	0.294362	0.148577
	H207	H	0.061528	0.231845	0.148716
	H208	H	0.033638	0.225690	0.100868
	H209	H	0.096640	0.307174	0.099557
	H210	H	0.004418	0.177125	0.400221
	H211	H	0.061523	0.266501	0.398756
	H212	H	0.003742	0.177888	0.100695
	H213	H	0.061520	0.266404	0.099288
	H214	H	0.033965	0.225513	0.399078
	H215	H	0.096456	0.307535	0.399969
	H216	H	0.010502	0.284568	0.505880
	H217	H	0.073012	0.222244	0.512073
	H218	H	0.021526	0.272049	0.044094
	H219	H	0.084562	0.210626	0.021095
	H220	H	0.022295	0.273304	0.505151
	H221	H	0.084750	0.210874	0.512016
	H222	H	0.009698	0.283305	0.044521
	H223	H	0.072732	0.221812	0.021107
	H224	H	0.024301	0.209662	0.208935
	H225	H	0.085490	0.293477	0.255073
	H226	H	0.013559	0.193499	0.291259
	H227	H	0.072258	0.280937	0.243646
	H228	H	0.013941	0.192955	0.209428
	H229	H	0.073381	0.279190	0.255105
	H230	H	0.023887	0.210216	0.290884
	H231	H	0.084491	0.295092	0.243699
	Co232	Co	0.112510	0.324983	0.124839
	Co233	Co	0.047042	0.246743	0.125031
	Co234	Co	-0.008747	0.155767	0.374711
	Co235	Co	0.047110	0.246793	0.374311
	C236	C	-0.002109	0.295125	0.423653
	C237	C	0.060386	0.232783	0.423507
	C238	C	0.033774	0.260742	0.076083
	C239	C	0.096249	0.198161	0.076508
	C240	C	0.033849	0.260741	0.423680
	C241	C	0.096265	0.198240	0.424162
	C242	C	-0.002092	0.295303	0.076008
	C243	C	0.060389	0.232831	0.075636
	C244	C	0.034711	0.227278	0.173412
	C245	C	0.097763	0.308635	0.172974
	C246	C	0.003275	0.175680	0.326945
	C247	C	0.060394	0.265119	0.325655
	C248	C	0.002965	0.176068	0.173918
	C249	C	0.060372	0.265047	0.172466
	C250	C	0.034882	0.227165	0.326169
	C251	C	0.097683	0.308799	0.326626
	C252	C	0.001970	0.291109	0.499595
	C253	C	0.064467	0.228673	-0.000411
	C254	C	0.029748	0.264798	0.499591
	C255	C	0.092161	0.202241	0.000345
	C256	C	0.031093	0.221322	0.249955
	C257	C	0.093315	0.303824	0.249874
	C258	C	0.006767	0.181837	0.250537
	C259	C	0.064618	0.270298	0.248819
	C260	C	0.008988	0.284401	0.499244
	C261	C	0.071472	0.221981	-0.000099
	C262	C	0.022694	0.271454	0.499574
	C263	C	0.085176	0.208993	0.000607
	C264	C	0.024913	0.211354	0.250046
	C265	C	0.085974	0.295454	0.249745
	C266	C	0.012912	0.191845	0.250491
	C267	C	0.071802	0.278910	0.248941
	C268	C	0.012823	0.281635	0.502957
	C269	C	0.075319	0.219281	0.506750
	C270	C	0.019032	0.274670	0.024813
	C271	C	0.081856	0.212714	0.011909
	C272	C	0.019498	0.275333	0.502789
	C273	C	0.081960	0.212919	0.506976
	C274	C	0.012377	0.280997	0.025234
	C275	C	0.075170	0.219047	0.011753
	C276	C	0.021947	0.206190	0.226965
	C277	C	0.082620	0.290745	0.252539
	C278	C	0.015878	0.197026	0.273150
	C279	C	0.075141	0.283641	0.246051
	C280	C	0.016118	0.196693	0.227338
	C281	C	0.075719	0.282709	0.252403
	C282	C	0.021743	0.206489	0.273021
	C283	C	0.082031	0.291697	0.246299
	N284	N	-0.008179	0.301107	0.452435
	N285	N	0.054295	0.238722	0.452354
	N286	N	0.039854	0.254814	0.047161
	N287	N	0.102330	0.192236	0.047624
	N288	N	0.039947	0.254850	0.452331
	N289	N	0.102335	0.192235	0.452706
	N290	N	-0.008227	0.301167	0.047233
	N291	N	0.054326	0.238773	0.046526
	N292	N	0.040193	0.235888	0.202183
	N293	N	0.104187	0.315863	0.202052
	N294	N	-0.002122	0.166991	0.297731
	N295	N	0.054193	0.257465	0.297101
	N296	N	-0.002301	0.167215	0.202600
	N297	N	0.054189	0.257413	0.201832
	N298	N	0.040288	0.235825	0.297173
	N299	N	0.104161	0.315951	0.297293
	H300	H	-0.001210	0.293834	0.852081
	H301	H	0.061383	0.231466	0.850219
	H302	H	0.032691	0.261904	0.648094
	H303	H	0.095155	0.199196	0.648646
	H304	H	0.032840	0.262210	0.851338
	H305	H	0.095194	0.199411	0.851499
	H306	H	-0.001007	0.294146	0.648458
	H307	H	0.061579	0.231764	0.648879
	H308	H	0.034082	0.225331	0.600901
	H309	H	0.096513	0.307408	0.599514
	H310	H	0.004104	0.177389	0.898767
	H311	H	0.061604	0.266496	0.899525
	H312	H	0.004170	0.177349	0.600258
	H313	H	0.061383	0.266536	0.600392
	H314	H	0.033593	0.225942	0.898987
	H315	H	0.096598	0.307334	0.899288
	H316	H	0.010141	0.283950	0.956019
	H317	H	0.072097	0.220471	0.979966
	H318	H	0.021187	0.271350	0.493213
	H319	H	0.083679	0.208836	0.488119
	H320	H	0.021981	0.272823	0.955624
	H321	H	0.083928	0.209317	0.979868
	H322	H	0.009357	0.282534	0.492730
	H323	H	0.071925	0.220166	0.488150
	H324	H	0.024715	0.209343	0.788550
	H325	H	0.084465	0.295269	0.844766
	H326	H	0.013171	0.193832	0.711060
	H327	H	0.073309	0.279092	0.653757
	H328	H	0.014405	0.192574	0.788588
	H329	H	0.072177	0.281185	0.845536
	H330	H	0.023475	0.210584	0.711088
	H331	H	0.085552	0.293175	0.653214
	Co332	Co	0.112499	0.324987	0.624671
	Co333	Co	0.047072	0.246786	0.625394
	Co334	Co	-0.008822	0.155893	0.875297
	Co335	Co	0.047068	0.246809	0.874286
	C336	C	-0.002248	0.295006	0.924314
	C337	C	0.060313	0.232642	0.923138
	C338	C	0.033849	0.260823	0.575523
	C339	C	0.096275	0.198163	0.575998
	C340	C	0.033874	0.260999	0.923810
	C341	C	0.096297	0.198251	0.923877
	C342	C	-0.002097	0.295159	0.575770
	C343	C	0.060417	0.232838	0.576012
	C344	C	0.034960	0.227034	0.673753
	C345	C	0.097711	0.308714	0.672461
	C346	C	0.003160	0.175813	0.826286
	C347	C	0.060364	0.265143	0.826483
	C348	C	0.003177	0.175810	0.673427
	C349	C	0.060272	0.265163	0.673430
	C350	C	0.034743	0.227362	0.826160
	C351	C	0.097754	0.308674	0.825884
	C352	C	0.001938	0.291156	1.000330
	C353	C	0.064505	0.228801	0.499788
	C354	C	0.029723	0.264878	0.999962
	C355	C	0.092164	0.202258	0.500158
	C356	C	0.031155	0.221335	0.750079
	C357	C	0.093330	0.303800	0.749222
	C358	C	0.006747	0.181839	0.749829
	C359	C	0.064510	0.270425	0.749902
	C360	C	0.008996	0.284515	1.000268
	C361	C	0.071521	0.222059	0.500185
	C362	C	0.022683	0.271579	0.999800
	C363	C	0.085150	0.209003	0.500352
	C364	C	0.024934	0.211384	0.750009
	C365	C	0.085975	0.295409	0.749084
	C366	C	0.012896	0.191849	0.749996
	C367	C	0.071766	0.278961	0.749617
	C368	C	0.012639	0.281398	0.975312
	C369	C	0.074818	0.218306	0.988878
	C370	C	0.018866	0.274209	0.495952
	C371	C	0.081359	0.211767	0.493464
	C372	C	0.019307	0.275096	0.975009
	C373	C	0.081497	0.211985	0.988971
	C374	C	0.012196	0.280529	0.495889
	C375	C	0.074732	0.218148	0.493605
	C376	C	0.022180	0.205995	0.771777
	C377	C	0.082009	0.291767	0.803137
	C378	C	0.015676	0.197208	0.728470
	C379	C	0.075700	0.282615	0.695542
	C380	C	0.016341	0.196502	0.771481
	C381	C	0.075097	0.283763	0.803378
	C382	C	0.021509	0.206704	0.728444
	C383	C	0.082620	0.290608	0.695275
	N384	N	-0.008315	0.301002	0.952820
	N385	N	0.054283	0.238675	0.951909
	N386	N	0.039935	0.254867	0.546933
	N387	N	0.102325	0.192179	0.547113
	N388	N	0.039907	0.254937	0.952354
	N389	N	0.102348	0.192276	0.952765
	N390	N	-0.008161	0.301120	0.547231
	N391	N	0.054326	0.238795	0.547308
	N392	N	0.040337	0.235775	0.702287
	N393	N	0.104191	0.315892	0.701346
	N394	N	-0.002136	0.167012	0.797571
	N395	N	0.054188	0.257440	0.797755
	N396	N	-0.002128	0.167006	0.702410
	N397	N	0.054126	0.257469	0.702529
	N398	N	0.040220	0.235956	0.797186
	N399	N	0.104221	0.315873	0.796601
	H400	H	-0.001014	0.430316	0.347824
	H401	H	0.061507	0.367705	0.348202
	H402	H	0.035801	0.402947	0.149887
	H403	H	0.098314	0.340266	0.149858
	H404	H	0.035687	0.402658	0.348541
	H405	H	0.098226	0.340214	0.348749
	H406	H	-0.000869	0.430366	0.150277
	H407	H	0.061567	0.367803	0.150392
	H408	H	0.034063	0.369693	0.098687
	H409	H	0.106506	0.368848	0.097646
	H410	H	-0.001041	0.329084	0.398236
	H411	H	0.068402	0.392072	0.402042
	H412	H	-0.001183	0.329019	0.099583
	H413	H	0.068407	0.392285	0.098297
	H414	H	0.033995	0.369671	0.399741
	H415	H	0.106432	0.368902	0.401544
	H416	H	0.010505	0.419876	0.647700
	H417	H	0.072846	0.356925	0.351736
	H418	H	0.023171	0.410546	0.146908
	H419	H	0.085693	0.348152	-0.148693
	H420	H	0.023263	0.410840	0.647644
	H421	H	0.085612	0.348016	0.352042
	H422	H	0.010429	0.419633	0.147035
	H423	H	0.072914	0.357000	-0.148582
	H424	H	0.022070	0.357211	0.254806
	H425	H	0.093503	0.375321	0.099068
	H426	H	0.010570	0.342002	0.241713
	H427	H	0.080796	0.384252	0.399919
	H428	H	0.009884	0.343039	0.254203
	H429	H	0.080937	0.384496	0.098987
	H430	H	0.022732	0.356160	0.242109
	H431	H	0.093476	0.375021	0.399634
	Co432	Co	0.125026	0.374869	0.125823
	Co433	Co	0.049964	0.387440	0.124916
	Co434	Co	-0.015404	0.309190	0.374326
	Co435	Co	0.049957	0.387412	0.373495
	C436	C	-0.001853	0.431770	0.422426
	C437	C	0.060578	0.369053	0.422328
	C438	C	0.036989	0.401916	0.075981
	C439	C	0.099539	0.339430	0.076262
	C440	C	0.036919	0.401797	0.422345
	C441	C	0.099456	0.339376	0.422750
	C442	C	-0.001816	0.431666	0.076194
	C443	C	0.060658	0.369203	0.076492
	C444	C	0.035200	0.371107	0.172220
	C445	C	0.107988	0.368986	0.172278
	C446	C	-0.002191	0.327613	0.325336
	C447	C	0.066868	0.392154	0.327359
	C448	C	-0.002247	0.327599	0.172900
	C449	C	0.066874	0.392217	0.172508
	C450	C	0.035188	0.371100	0.326138
	C451	C	0.107968	0.369031	0.327219
	C452	C	0.002098	0.427208	0.499196
	C453	C	0.064587	0.364654	-0.000399
	C454	C	0.032387	0.405152	0.499095
	C455	C	0.094947	0.342708	-0.000397
	C456	C	0.030779	0.366228	0.249068
	C457	C	0.102749	0.370004	0.249610
	C458	C	0.001985	0.332820	0.248864
	C459	C	0.071960	0.390545	0.249903
	C460	C	0.009446	0.420905	0.499129
	C461	C	0.071917	0.358355	-0.000105
	C462	C	0.024556	0.410322	0.499081
	C463	C	0.087104	0.347835	-0.000345
	C464	C	0.023447	0.357855	0.248832
	C465	C	0.094668	0.374437	0.249470
	C466	C	0.009218	0.341384	0.248404
	C467	C	0.079812	0.385473	0.249641
	C468	C	0.013256	0.417965	0.581762
	C469	C	0.075625	0.355171	0.417573
	C470	C	0.020476	0.412609	0.081242
	C471	C	0.083073	0.350255	-0.082819
	C472	C	0.020566	0.412838	0.581786
	C473	C	0.082947	0.350091	0.417958
	C474	C	0.013180	0.417722	0.081223
	C475	C	0.075726	0.355300	-0.082615
	C476	C	0.019593	0.353938	0.252149
	C477	C	0.090821	0.377276	0.166002
	C478	C	0.013068	0.345319	0.244707
	C479	C	0.083563	0.382412	0.333240
	C480	C	0.012671	0.345922	0.251761
	C481	C	0.083610	0.382573	0.166035
	C482	C	0.019984	0.353325	0.244923
	C483	C	0.090788	0.377116	0.333186
	N484	N	-0.007457	0.438586	0.451245
	N485	N	0.055043	0.376003	0.450922
	N486	N	0.043687	0.397031	0.047357
	N487	N	0.106234	0.334602	0.047653
	N488	N	0.043616	0.396919	0.450734
	N489	N	0.106166	0.334540	0.451169
	N490	N	-0.007410	0.438526	0.047239
	N491	N	0.055121	0.376120	0.047329
	N492	N	0.041652	0.378303	0.201345
	N493	N	0.115835	0.368163	0.201056
	N494	N	-0.008355	0.319892	0.297012
	N495	N	0.059125	0.393897	0.298732
	N496	N	-0.008370	0.319869	0.202077
	N497	N	0.059143	0.393930	0.200617
	N498	N	0.041635	0.378313	0.297058
	N499	N	0.115840	0.368218	0.298530
	H500	H	-0.001008	0.430168	0.848172
	H501	H	0.061533	0.367689	0.848055
	H502	H	0.035764	0.402803	0.649505
	H503	H	0.098295	0.340257	0.650033
	H504	H	0.035533	0.402320	0.848614
	H505	H	0.098316	0.340295	0.849136
	H506	H	-0.000944	0.430260	0.650347
	H507	H	0.061621	0.368021	0.650680
	H508	H	0.033926	0.370000	0.599547
	H509	H	0.106494	0.368977	0.597678
	H510	H	-0.001053	0.328956	0.899296
	H511	H	0.068366	0.392057	0.900304
	H512	H	-0.000979	0.328944	0.600362
	H513	H	0.068402	0.392116	0.597248
	H514	H	0.034143	0.369638	0.898970
	H515	H	0.106470	0.368934	0.901334
	H516	H	0.010491	0.419798	0.851015
	H517	H	0.073117	0.357617	1.147777
	H518	H	0.023348	0.411028	0.350564
	H519	H	0.085895	0.348769	0.648750
	H520	H	0.023272	0.410807	0.851251
	H521	H	0.085932	0.348780	1.147648
	H522	H	0.010590	0.419994	0.350601
	H523	H	0.073129	0.357684	0.648202
	H524	H	0.021286	0.358796	0.771862
	H525	H	0.093351	0.374899	0.899304
	H526	H	0.011351	0.340678	0.727733
	H527	H	0.080913	0.384534	0.598679
	H528	H	0.009088	0.344602	0.772857
	H529	H	0.080668	0.384064	0.899278
	H530	H	0.023556	0.354741	0.726872
	H531	H	0.093592	0.375472	0.598717
	Co532	Co	0.125020	0.374987	0.625531
	Co533	Co	0.049941	0.387467	0.624264
	Co534	Co	-0.015464	0.309172	0.874212
	Co535	Co	0.049950	0.387387	0.873803
	C536	C	-0.001891	0.431592	0.922087
	C537	C	0.060643	0.369157	0.922235
	C538	C	0.036955	0.401863	0.575820
	C539	C	0.099503	0.339403	0.576499
	C540	C	0.036842	0.401590	0.922292
	C541	C	0.099517	0.339441	0.922624
	C542	C	-0.001867	0.431676	0.576178
	C543	C	0.060674	0.369249	0.576149
	C544	C	0.035148	0.371263	0.672729
	C545	C	0.107964	0.369032	0.671916
	C546	C	-0.002204	0.327568	0.826406
	C547	C	0.066823	0.392139	0.826363
	C548	C	-0.002154	0.327553	0.673308
	C549	C	0.066846	0.392182	0.671711
	C550	C	0.035246	0.371082	0.825918
	C551	C	0.107963	0.369054	0.826948
	C552	C	0.002076	0.427101	0.999004
	C553	C	0.064570	0.364622	0.499467
	C554	C	0.032332	0.404962	0.999136
	C555	C	0.094872	0.342622	0.499791
	C556	C	0.030790	0.366297	0.749401
	C557	C	0.102752	0.370056	0.749521
	C558	C	0.002021	0.332804	0.750036
	C559	C	0.071921	0.390506	0.749201
	C560	C	0.009355	0.420694	0.998900
	C561	C	0.071868	0.358277	0.499923
	C562	C	0.024472	0.410100	0.999029
	C563	C	0.087012	0.347743	0.500348
	C564	C	0.023453	0.357933	0.749675
	C565	C	0.094648	0.374422	0.749406
	C566	C	0.009220	0.341393	0.750145
	C567	C	0.079792	0.385427	0.749251
	C568	C	0.013229	0.417847	0.916769
	C569	C	0.075832	0.355622	1.082128
	C570	C	0.020623	0.412953	0.416484
	C571	C	0.083143	0.350541	0.582791
	C572	C	0.020522	0.412713	0.916744
	C573	C	0.083168	0.350568	1.081790
	C574	C	0.013329	0.418094	0.416537
	C575	C	0.075828	0.355637	0.582459
	C576	C	0.019160	0.354815	0.762127
	C577	C	0.090708	0.377045	0.832783
	C578	C	0.013473	0.344576	0.737413
	C579	C	0.083621	0.382585	0.665588
	C580	C	0.012238	0.346780	0.762531
	C581	C	0.083489	0.382335	0.832732
	C582	C	0.020378	0.352616	0.737287
	C583	C	0.090836	0.377292	0.665686
	N584	N	-0.007450	0.438520	0.951114
	N585	N	0.055052	0.376038	0.951364
	N586	N	0.043649	0.396985	0.547024
	N587	N	0.106185	0.334549	0.547771
	N588	N	0.043594	0.396870	0.951003
	N589	N	0.106223	0.334597	0.951157
	N590	N	-0.007459	0.438537	0.547356
	N591	N	0.055083	0.376073	0.547161
	N592	N	0.041622	0.378413	0.701617
	N593	N	0.115843	0.368241	0.700736
	N594	N	-0.008369	0.319895	0.797344
	N595	N	0.059097	0.393866	0.798065
	N596	N	-0.008338	0.319902	0.702041
	N597	N	0.059116	0.393923	0.700050
	N598	N	0.041668	0.378316	0.796736
	N599	N	0.115837	0.368263	0.798197
	H600	H	0.012492	0.481579	0.347108
	H601	H	0.074829	0.418987	0.348122
	H602	H	0.050064	0.455716	0.150325
	H603	H	0.112641	0.393263	0.150994
	H604	H	0.050164	0.455792	0.347740
	H605	H	0.112640	0.393323	0.348217
	H606	H	0.012439	0.481607	0.150568
	H607	H	0.074896	0.419064	0.150725
	H608	H	0.043911	0.431158	0.097676
	H609	H	0.119166	0.420244	0.097893
	H610	H	0.005878	0.454594	0.401158
	H611	H	0.081099	0.443415	0.401477
	H612	H	0.005878	0.454523	0.097512
	H613	H	0.081092	0.443386	0.098014
	H614	H	0.043982	0.431259	0.400715
	H615	H	0.119145	0.420221	0.401383
	H616	H	0.024839	0.472886	0.348920
	H617	H	0.087283	0.410334	0.348226
	H618	H	0.037878	0.464682	0.148940
	H619	H	0.100314	0.402223	0.149620
	H620	H	0.037881	0.464652	0.348837
	H621	H	0.100339	0.402177	0.348622
	H622	H	0.024743	0.472802	0.149813
	H623	H	0.087188	0.410260	0.149544
	H624	H	0.031053	0.437855	0.399712
	H625	H	0.106725	0.427899	0.399880
	H626	H	0.018286	0.446641	0.098467
	H627	H	0.094114	0.437103	0.099282
	H628	H	0.018413	0.447001	0.399779
	H629	H	0.094060	0.437119	0.399835
	H630	H	0.030864	0.437316	0.098951
	H631	H	0.106704	0.427979	0.099097
	Co632	Co	0.137590	0.424933	0.124865
	Co633	Co	0.062517	0.437431	0.125069
	Co634	Co	-0.012543	0.449999	0.374248
	Co635	Co	0.062538	0.437401	0.373541
	C636	C	0.011363	0.482737	0.421497
	C637	C	0.073825	0.420230	0.422413
	C638	C	0.051150	0.454513	0.075975
	C639	C	0.113662	0.391996	0.076677
	C640	C	0.051182	0.454556	0.422280
	C641	C	0.113680	0.392092	0.422569
	C642	C	0.011435	0.482899	0.076500
	C643	C	0.073884	0.420280	0.076247
	C644	C	0.045462	0.431378	0.171949
	C645	C	0.120689	0.420175	0.172086
	C646	C	0.004342	0.454620	0.326483
	C647	C	0.079583	0.443372	0.326931
	C648	C	0.004362	0.454658	0.171666
	C649	C	0.079588	0.443256	0.172248
	C650	C	0.045492	0.431431	0.326573
	C651	C	0.120690	0.420155	0.326742
	C652	C	0.015677	0.478853	0.499000
	C653	C	0.078175	0.416361	-0.000609
	C654	C	0.046898	0.458516	0.499531
	C655	C	0.109356	0.395946	-0.000155
	C656	C	0.040222	0.432364	0.249374
	C657	C	0.115600	0.421790	0.249488
	C658	C	0.009433	0.452953	0.249171
	C659	C	0.084821	0.442279	0.249651
	C660	C	0.023503	0.473512	0.499404
	C661	C	0.085935	0.410956	-0.000357
	C662	C	0.039130	0.463926	0.499422
	C663	C	0.101571	0.401321	-0.000241
	C664	C	0.032093	0.436737	0.249380
	C665	C	0.107742	0.426840	0.249653
	C666	C	0.017263	0.447833	0.249049
	C667	C	0.092908	0.437877	0.249625
	C668	C	0.027572	0.471019	0.415956
	C669	C	0.090009	0.408549	0.415624
	C670	C	0.035030	0.466374	0.082352
	C671	C	0.097515	0.403870	0.082670
	C672	C	0.035091	0.466394	0.415811
	C673	C	0.097539	0.403953	0.415682
	C674	C	0.027499	0.470973	0.082957
	C675	C	0.089977	0.408476	0.082731
	C676	C	0.028308	0.439713	0.332959
	C677	C	0.103989	0.429823	0.333247
	C678	C	0.021014	0.444790	0.165344
	C679	C	0.096783	0.435125	0.166190
	C680	C	0.021092	0.445000	0.332820
	C681	C	0.096767	0.435105	0.333252
	C682	C	0.028211	0.439443	0.165632
	C683	C	0.103983	0.429830	0.166193
	N684	N	0.005218	0.488770	0.450789
	N685	N	0.067731	0.426319	0.451064
	N686	N	0.057285	0.448510	0.047480
	N687	N	0.119792	0.385970	0.048039
	N688	N	0.057307	0.448510	0.451104
	N689	N	0.119815	0.386067	0.451165
	N690	N	0.005334	0.488979	0.047998
	N691	N	0.067813	0.426402	0.047427
	N692	N	0.053341	0.430655	0.200381
	N693	N	0.128427	0.418471	0.200216
	N694	N	-0.003399	0.456388	0.298133
	N695	N	0.071717	0.444170	0.298102
	N696	N	-0.003392	0.456386	0.200114
	N697	N	0.071743	0.444116	0.200625
	N698	N	0.053354	0.430668	0.297878
	N699	N	0.128442	0.418450	0.298232
	H700	H	0.012391	0.481556	0.848036
	H701	H	0.074942	0.418977	0.847695
	H702	H	0.050253	0.455950	0.650440
	H703	H	0.112583	0.393256	0.650962
	H704	H	0.050219	0.455936	0.847923
	H705	H	0.112668	0.393371	0.848481
	H706	H	0.012425	0.481363	0.650378
	H707	H	0.074894	0.419059	0.650589
	H708	H	0.044064	0.431321	0.597800
	H709	H	0.119171	0.420276	0.597425
	H710	H	0.005918	0.454620	0.900727
	H711	H	0.081090	0.443504	0.901057
	H712	H	0.005853	0.454571	0.597679
	H713	H	0.081169	0.443403	0.598182
	H714	H	0.044036	0.431526	0.901266
	H715	H	0.119230	0.420145	0.900693
	H716	H	0.024793	0.472883	0.849217
	H717	H	0.087218	0.410185	0.849792
	H718	H	0.037826	0.464671	0.649241
	H719	H	0.100273	0.402077	0.649575
	H720	H	0.037793	0.464572	0.848641
	H721	H	0.100217	0.401892	0.849531
	H722	H	0.024774	0.472942	0.649537
	H723	H	0.087279	0.410348	0.649809
	H724	H	0.031004	0.437800	0.598784
	H725	H	0.106664	0.427784	0.599755
	H726	H	0.018331	0.446815	0.899506
	H727	H	0.094143	0.437216	0.900271
	H728	H	0.018467	0.446923	0.598286
	H729	H	0.093982	0.436900	0.599685
	H730	H	0.031026	0.437721	0.899119
	H731	H	0.106752	0.428013	0.900114
	Co732	Co	0.137648	0.424949	0.624413
	Co733	Co	0.062582	0.437516	0.625414
	Co734	Co	-0.012499	0.449992	0.874055
	Co735	Co	0.062558	0.437492	0.873059
	C736	C	0.011386	0.482814	0.922704
	C737	C	0.073891	0.420262	0.922170
	C738	C	0.051241	0.454675	0.576397
	C739	C	0.113669	0.392124	0.576468
	C740	C	0.051225	0.454669	0.922060
	C741	C	0.113683	0.392083	0.922723
	C742	C	0.011346	0.482722	0.575918
	C743	C	0.073899	0.420328	0.576401
	C744	C	0.045539	0.431552	0.672024
	C745	C	0.120705	0.420196	0.671960
	C746	C	0.004371	0.454684	0.826629
	C747	C	0.079600	0.443450	0.826781
	C748	C	0.004347	0.454639	0.672001
	C749	C	0.079639	0.443346	0.672177
	C750	C	0.045519	0.431611	0.826684
	C751	C	0.120723	0.420168	0.826452
	C752	C	0.015699	0.478883	0.999637
	C753	C	0.078178	0.416368	0.499293
	C754	C	0.046847	0.458463	0.999185
	C755	C	0.109347	0.395982	0.499443
	C756	C	0.040296	0.432578	0.749387
	C757	C	0.115617	0.421803	0.749373
	C758	C	0.009451	0.453002	0.749287
	C759	C	0.084834	0.442349	0.749684
	C760	C	0.023479	0.473467	0.999616
	C761	C	0.085955	0.411023	0.499097
	C762	C	0.039066	0.463871	0.999027
	C763	C	0.101573	0.401416	0.499113
	C764	C	0.032201	0.436975	0.749143
	C765	C	0.107746	0.426833	0.749843
	C766	C	0.017306	0.447937	0.749061
	C767	C	0.092918	0.437881	0.749884
	C768	C	0.027530	0.470987	0.916006
	C769	C	0.089993	0.408412	0.916565
	C770	C	0.035051	0.466416	0.582409
	C771	C	0.097486	0.403815	0.582598
	C772	C	0.035020	0.466282	0.915580
	C773	C	0.097490	0.403717	0.916622
	C774	C	0.027516	0.471040	0.582654
	C775	C	0.089989	0.408495	0.582548
	C776	C	0.028334	0.439760	0.665508
	C777	C	0.103942	0.429736	0.666420
	C778	C	0.021077	0.444987	0.832709
	C779	C	0.096797	0.435157	0.833492
	C780	C	0.021115	0.445029	0.665526
	C781	C	0.096743	0.435049	0.666309
	C782	C	0.028326	0.439754	0.832760
	C783	C	0.104006	0.429850	0.833418
	N784	N	0.005270	0.488915	0.951387
	N785	N	0.067775	0.426354	0.950689
	N786	N	0.057348	0.448630	0.547924
	N787	N	0.119795	0.386077	0.547864
	N788	N	0.057333	0.448568	0.950814
	N789	N	0.119806	0.386031	0.951191
	N790	N	0.005202	0.488736	0.547245
	N791	N	0.067755	0.426360	0.547980
	N792	N	0.053395	0.430737	0.700595
	N793	N	0.128457	0.418506	0.699939
	N794	N	-0.003372	0.456411	0.798252
	N795	N	0.071729	0.444276	0.797819
	N796	N	-0.003373	0.456380	0.700199
	N797	N	0.071778	0.444250	0.700397
	N798	N	0.053388	0.430753	0.798106
	N799	N	0.128466	0.418514	0.797946
	H800	H	0.026790	0.534313	0.349635
	H801	H	0.089369	0.472170	0.349053
	H802	H	0.063432	0.506994	0.150987
	H803	H	0.125980	0.444584	0.150390
	H804	H	0.063648	0.507074	0.348274
	H805	H	0.126005	0.444572	0.347659
	H806	H	0.026872	0.534858	0.149555
	H807	H	0.089278	0.472194	0.149578
	H808	H	0.056618	0.482667	0.098750
	H809	H	0.125988	0.546064	0.100024
	H810	H	0.018534	0.505954	0.401461
	H811	H	0.091171	0.504938	0.399084
	H812	H	0.018627	0.506061	0.098113
	H813	H	0.090950	0.505313	0.099650
	H814	H	0.056731	0.482949	0.401636
	H815	H	0.126167	0.545887	0.399521
	H816	H	0.039341	0.526421	0.352364
	H817	H	0.101714	0.463922	0.352044
	H818	H	0.051940	0.517396	0.147568
	H819	H	0.114518	0.455144	0.147348
	H820	H	0.052150	0.517553	0.352003
	H821	H	0.114566	0.455098	0.352038
	H822	H	0.039263	0.526447	0.147216
	H823	H	0.101732	0.464049	0.147216
	H824	H	0.044181	0.490310	0.100180
	H825	H	0.114001	0.533719	0.343464
	H826	H	0.031624	0.499809	0.400245
	H827	H	0.103451	0.516783	0.156527
	H828	H	0.031503	0.499507	0.099715
	H829	H	0.101818	0.519540	0.343171
	H830	H	0.044236	0.490671	0.400686
	H831	H	0.115715	0.530872	0.157104
	Co832	Co	0.140448	0.565764	0.124652
	Co833	Co	0.075098	0.487490	0.124908
	Co834	Co	0.000025	0.499961	0.373382
	Co835	Co	0.075119	0.487438	0.374111
	C836	C	0.025629	0.535352	0.423301
	C837	C	0.088068	0.472956	0.422480
	C838	C	0.064380	0.505674	0.076261
	C839	C	0.126882	0.443195	0.076293
	C840	C	0.064538	0.505778	0.422618
	C841	C	0.126928	0.443226	0.422008
	C842	C	0.025647	0.535667	0.076031
	C843	C	0.088090	0.473061	0.076038
	C844	C	0.058170	0.482672	0.172740
	C845	C	0.127172	0.547400	0.173237
	C846	C	0.017054	0.505843	0.326951
	C847	C	0.089924	0.503658	0.325910
	C848	C	0.017103	0.505922	0.172336
	C849	C	0.089816	0.503839	0.172958
	C850	C	0.058220	0.482799	0.327379
	C851	C	0.127262	0.547329	0.326284
	C852	C	0.030269	0.532253	0.499923
	C853	C	0.092641	0.469755	-0.000689
	C854	C	0.060579	0.510270	0.499663
	C855	C	0.122945	0.447730	-0.000683
	C856	C	0.053109	0.484371	0.250081
	C857	C	0.123045	0.542102	0.249961
	C858	C	0.022302	0.504839	0.249668
	C859	C	0.094258	0.508638	0.249417
	C860	C	0.038101	0.527031	0.500182
	C861	C	0.100471	0.464563	-0.000729
	C862	C	0.053249	0.516546	0.499835
	C863	C	0.115620	0.454032	-0.000930
	C864	C	0.045258	0.489418	0.250224
	C865	C	0.115833	0.533519	0.250100
	C866	C	0.030385	0.500412	0.249799
	C867	C	0.101599	0.517022	0.249846
	C868	C	0.042079	0.524471	0.417911
	C869	C	0.104451	0.461968	0.417461
	C870	C	0.049270	0.519373	0.081712
	C871	C	0.111772	0.456958	0.081462
	C872	C	0.049385	0.519393	0.417655
	C873	C	0.111784	0.456922	0.417442
	C874	C	0.041954	0.524467	0.081493
	C875	C	0.104450	0.462045	0.081658
	C876	C	0.041470	0.492325	0.166722
	C877	C	0.111730	0.530001	0.302226
	C878	C	0.034282	0.497730	0.333455
	C879	C	0.105751	0.520470	0.197965
	C880	C	0.034229	0.497583	0.166370
	C881	C	0.104809	0.522015	0.302022
	C882	C	0.041497	0.492456	0.333700
	C883	C	0.112665	0.528481	0.197846
	N884	N	0.018947	0.540275	0.451580
	N885	N	0.081376	0.477836	0.451126
	N886	N	0.070004	0.498843	0.047482
	N887	N	0.132465	0.436321	0.047728
	N888	N	0.070086	0.498869	0.451354
	N889	N	0.132498	0.436339	0.450944
	N890	N	0.018938	0.540499	0.047690
	N891	N	0.081420	0.477959	0.047541
	N892	N	0.065928	0.481023	0.200778
	N893	N	0.133325	0.555128	0.201899
	N894	N	0.009206	0.506738	0.298272
	N895	N	0.083449	0.496492	0.297082
	N896	N	0.009242	0.506796	0.200749
	N897	N	0.083373	0.496611	0.201916
	N898	N	0.065943	0.481073	0.298795
	N899	N	0.133376	0.555091	0.296989
	H900	H	0.026718	0.534500	0.849387
	H901	H	0.089273	0.472079	0.848953
	H902	H	0.063540	0.507004	0.650531
	H903	H	0.126044	0.444632	0.650553
	H904	H	0.063542	0.507078	0.848204
	H905	H	0.126106	0.444651	0.848700
	H906	H	0.026915	0.534782	0.649911
	H907	H	0.089092	0.471671	0.649913
	H908	H	0.056713	0.482862	0.597044
	H909	H	0.125965	0.546178	0.600019
	H910	H	0.018614	0.506055	0.900200
	H911	H	0.090863	0.505593	0.898875
	H912	H	0.018607	0.505929	0.597087
	H913	H	0.091306	0.504455	0.598767
	H914	H	0.056676	0.482708	0.900496
	H915	H	0.126133	0.545907	0.898149
	H916	H	0.039237	0.526411	0.851163
	H917	H	0.101762	0.464098	0.851356
	H918	H	0.052091	0.517439	0.648058
	H919	H	0.114586	0.455048	0.646921
	H920	H	0.052041	0.517544	0.851220
	H921	H	0.114535	0.455113	0.850826
	H922	H	0.039370	0.526406	0.648086
	H923	H	0.101705	0.463819	0.646970
	H924	H	0.044202	0.490512	0.899954
	H925	H	0.114699	0.532560	0.718002
	H926	H	0.031626	0.499625	0.598695
	H927	H	0.102851	0.517938	0.778675
	H928	H	0.031546	0.499605	0.899685
	H929	H	0.102545	0.518299	0.718044
	H930	H	0.044276	0.490555	0.598805
	H931	H	0.114991	0.532232	0.779014
	Co932	Co	0.140401	0.565819	0.624005
	Co933	Co	0.075133	0.487356	0.624680
	Co934	Co	0.000042	0.499972	0.873629
	Co935	Co	0.075113	0.487450	0.873768
	C936	C	0.025545	0.535472	0.922568
	C937	C	0.088072	0.473018	0.922648
	C938	C	0.064504	0.505706	0.576648
	C939	C	0.126941	0.443245	0.576181
	C940	C	0.064401	0.505669	0.922356
	C941	C	0.126957	0.443269	0.922653
	C942	C	0.025705	0.535573	0.576545
	C943	C	0.087930	0.472692	0.576228
	C944	C	0.058242	0.482748	0.671740
	C945	C	0.127125	0.547548	0.672568
	C946	C	0.017097	0.505867	0.826001
	C947	C	0.089797	0.503968	0.825728
	C948	C	0.017086	0.505778	0.671452
	C949	C	0.090027	0.503363	0.672247
	C950	C	0.058243	0.482696	0.826336
	C951	C	0.127206	0.547396	0.825438
	C952	C	0.030165	0.532292	0.999101
	C953	C	0.092558	0.469541	0.499333
	C954	C	0.060445	0.510176	0.999234
	C955	C	0.122992	0.447750	0.499082
	C956	C	0.053157	0.484406	0.749002
	C957	C	0.122964	0.542271	0.748906
	C958	C	0.022349	0.504825	0.748778
	C959	C	0.094321	0.508583	0.748570
	C960	C	0.038004	0.527133	0.999043
	C961	C	0.100443	0.464434	0.499511
	C962	C	0.053139	0.516514	0.999412
	C963	C	0.115646	0.454026	0.499355
	C964	C	0.045289	0.489424	0.749246
	C965	C	0.115811	0.533574	0.748618
	C966	C	0.030427	0.500399	0.749004
	C967	C	0.101656	0.516987	0.748234
	C968	C	0.041980	0.524524	0.916777
	C969	C	0.104478	0.462054	0.916853
	C970	C	0.049377	0.519345	0.582268
	C971	C	0.111789	0.456880	0.581553
	C972	C	0.049280	0.519393	0.917167
	C973	C	0.111799	0.456959	0.916652
	C974	C	0.042062	0.524432	0.582539
	C975	C	0.104438	0.461885	0.581517
	C976	C	0.041461	0.492316	0.832947
	C977	C	0.112114	0.529354	0.731468
	C978	C	0.034319	0.497699	0.665618
	C979	C	0.105404	0.521128	0.765170
	C980	C	0.034242	0.497624	0.832808
	C981	C	0.105229	0.521298	0.731269
	C982	C	0.041543	0.492435	0.665634
	C983	C	0.112284	0.529196	0.765312
	N984	N	0.018865	0.540367	0.951288
	N985	N	0.081413	0.477953	0.951326
	N986	N	0.070061	0.498804	0.547679
	N987	N	0.132480	0.436302	0.547003
	N988	N	0.069972	0.498798	0.951208
	N989	N	0.132495	0.436351	0.951508
	N990	N	0.018999	0.540381	0.547871
	N991	N	0.081289	0.477671	0.547397
	N992	N	0.065967	0.480931	0.700078
	N993	N	0.133326	0.555204	0.701513
	N994	N	0.009240	0.506698	0.797504
	N995	N	0.083379	0.496654	0.797050
	N996	N	0.009242	0.506616	0.700072
	N997	N	0.083509	0.496326	0.701808
	N998	N	0.065992	0.480923	0.798087
	N999	N	0.133385	0.555103	0.796617
	H1000	H	0.029818	0.675602	0.350899
	H1001	H	0.092272	0.613185	0.349487
	H1002	H	0.063611	0.643456	0.146771
	H1003	H	0.126034	0.580758	0.148375
	H1004	H	0.063523	0.643551	0.349819
	H1005	H	0.125898	0.580701	0.349727
	H1006	H	0.029570	0.675350	0.149517
	H1007	H	0.092330	0.613294	0.148360
	H1008	H	0.063552	0.608597	0.099029
	H1009	H	0.120768	0.697689	0.100427
	H1010	H	0.028716	0.567271	0.399405
	H1011	H	0.091136	0.649581	0.398147
	H1012	H	0.028500	0.567666	0.099847
	H1013	H	0.091219	0.649451	0.099407
	H1014	H	0.063560	0.608499	0.397757
	H1015	H	0.120909	0.697650	0.398474
	H1016	H	0.040563	0.665069	0.562750
	H1017	H	0.103254	0.602658	0.501651
	H1018	H	0.053289	0.655032	-0.003319
	H1019	H	0.115767	0.592670	0.045229
	H1020	H	0.052433	0.653934	0.562735
	H1021	H	0.115043	0.591416	0.501983
	H1022	H	0.041444	0.666185	-0.002066
	H1023	H	0.103955	0.603918	0.044899
	H1024	H	0.052048	0.595233	0.173295
	H1025	H	0.112044	0.681088	0.234685
	H1026	H	0.040365	0.580319	0.325230
	H1027	H	0.100046	0.666025	0.264243
	H1028	H	0.039943	0.580940	0.173777
	H1029	H	0.101790	0.664263	0.234103
	H1030	H	0.052485	0.594684	0.323918
	H1031	H	0.110332	0.682840	0.264498
	Co1032	Co	0.133792	0.719234	0.124276
	Co1033	Co	0.077942	0.628326	0.123729
	Co1034	Co	0.012703	0.549843	0.374214
	Co1035	Co	0.077912	0.628308	0.373327
	C1036	C	0.028658	0.676710	0.423347
	C1037	C	0.091169	0.614292	0.422012
	C1038	C	0.064695	0.642323	0.074353
	C1039	C	0.127158	0.579787	0.075893
	C1040	C	0.064663	0.642422	0.422531
	C1041	C	0.127051	0.579719	0.422304
	C1042	C	0.028560	0.676555	0.076464
	C1043	C	0.091212	0.614301	0.075532
	C1044	C	0.064655	0.610020	0.172057
	C1045	C	0.121827	0.699310	0.173341
	C1046	C	0.027496	0.566060	0.326357
	C1047	C	0.090154	0.647920	0.324835
	C1048	C	0.027361	0.566286	0.173096
	C1049	C	0.090217	0.647844	0.172327
	C1050	C	0.064664	0.609923	0.324840
	C1051	C	0.121859	0.699291	0.325700
	C1052	C	0.032753	0.672668	0.499670
	C1053	C	0.095324	0.610221	-0.000482
	C1054	C	0.060521	0.646446	0.498809
	C1055	C	0.123037	0.583800	-0.000204
	C1056	C	0.060470	0.604762	0.248444
	C1057	C	0.118198	0.693334	0.249573
	C1058	C	0.031816	0.571063	0.249740
	C1059	C	0.093881	0.653813	0.248691
	C1060	C	0.039733	0.665956	0.499587
	C1061	C	0.102344	0.603504	-0.000252
	C1062	C	0.053469	0.653059	0.499286
	C1063	C	0.115972	0.590441	-0.000286
	C1064	C	0.053306	0.596061	0.248566
	C1065	C	0.112059	0.683309	0.249581
	C1066	C	0.039180	0.579407	0.249522
	C1067	C	0.100061	0.663780	0.248702
	C1068	C	0.043211	0.662618	0.535076
	C1069	C	0.105801	0.600254	0.499809
	C1070	C	0.050392	0.656970	-0.001880
	C1071	C	0.112847	0.594507	0.025183
	C1072	C	0.049904	0.656285	0.534897
	C1073	C	0.112454	0.593891	0.500163
	C1074	C	0.043724	0.663311	-0.001332
	C1075	C	0.106211	0.600893	0.024919
	C1076	C	0.049554	0.591940	0.206681
	C1077	C	0.109443	0.677816	0.241035
	C1078	C	0.042923	0.583529	0.291608
	C1079	C	0.102654	0.669293	0.257391
	C1080	C	0.042697	0.583853	0.206961
	C1081	C	0.103600	0.668312	0.240757
	C1082	C	0.049780	0.591617	0.291120
	C1083	C	0.108500	0.678779	0.257604
	N1084	N	0.022579	0.682635	0.451715
	N1085	N	0.085110	0.620252	0.450852
	N1086	N	0.070735	0.636337	0.045406
	N1087	N	0.133245	0.573869	0.046847
	N1088	N	0.070725	0.636496	0.451161
	N1089	N	0.133138	0.573832	0.451195
	N1090	N	0.022537	0.682555	0.047177
	N1091	N	0.085144	0.620256	0.046174
	N1092	N	0.070795	0.617761	0.200964
	N1093	N	0.127196	0.708043	0.201892
	N1094	N	0.021006	0.558900	0.297218
	N1095	N	0.084758	0.639220	0.295926
	N1096	N	0.020931	0.559034	0.202160
	N1097	N	0.084809	0.639182	0.201203
	N1098	N	0.070789	0.617691	0.296029
	N1099	N	0.127209	0.708045	0.296677
	H1100	H	0.029890	0.675696	0.850995
	H1101	H	0.092309	0.613068	0.849789
	H1102	H	0.063503	0.643483	0.647262
	H1103	H	0.126115	0.581171	0.647384
	H1104	H	0.063410	0.643173	0.850174
	H1105	H	0.126028	0.580804	0.850962
	H1106	H	0.029549	0.675380	0.647973
	H1107	H	0.092382	0.613264	0.646777
	H1108	H	0.063481	0.608525	0.599024
	H1109	H	0.120948	0.697680	0.599130
	H1110	H	0.028674	0.567510	0.898803
	H1111	H	0.091182	0.649479	0.897887
	H1112	H	0.028446	0.567680	0.599801
	H1113	H	0.091030	0.649682	0.599338
	H1114	H	0.063655	0.608276	0.898254
	H1115	H	0.120885	0.697663	0.897806
	H1116	H	0.040144	0.664086	1.002830
	H1117	H	0.102618	0.601316	0.954613
	H1118	H	0.052564	0.653949	0.434948
	H1119	H	0.115010	0.591443	0.494909
	H1120	H	0.051907	0.652815	1.002435
	H1121	H	0.114370	0.590032	0.954155
	H1122	H	0.040729	0.665084	0.435390
	H1123	H	0.103204	0.602638	0.493857
	H1124	H	0.052080	0.595255	0.724265
	H1125	H	0.110657	0.682551	0.728786
	H1126	H	0.040393	0.580283	0.774044
	H1127	H	0.101503	0.664579	0.768722
	H1128	H	0.039882	0.581084	0.724257
	H1129	H	0.100300	0.665889	0.728915
	H1130	H	0.052565	0.594429	0.773922
	H1131	H	0.111878	0.681246	0.768982
	Co1132	Co	0.133818	0.719331	0.624579
	Co1133	Co	0.077912	0.628266	0.623806
	Co1134	Co	0.012652	0.550006	0.874323
	Co1135	Co	0.077972	0.628264	0.872783
	C1136	C	0.028722	0.676738	0.923815
	C1137	C	0.091213	0.614201	0.922795
	C1138	C	0.064674	0.642394	0.574871
	C1139	C	0.127166	0.579972	0.574523
	C1140	C	0.064580	0.642193	0.922597
	C1141	C	0.127145	0.579769	0.923777
	C1142	C	0.028546	0.676598	0.575325
	C1143	C	0.091211	0.614338	0.574301
	C1144	C	0.064697	0.609897	0.672021
	C1145	C	0.121919	0.699268	0.672107
	C1146	C	0.027422	0.566195	0.825853
	C1147	C	0.090159	0.647925	0.825032
	C1148	C	0.027307	0.566292	0.672641
	C1149	C	0.090090	0.648017	0.672242
	C1150	C	0.064801	0.609775	0.825180
	C1151	C	0.121886	0.699256	0.824999
	C1152	C	0.032784	0.672651	1.000326
	C1153	C	0.095285	0.610251	0.498018
	C1154	C	0.060540	0.646312	0.998768
	C1155	C	0.122977	0.583876	0.498345
	C1156	C	0.060558	0.604576	0.748749
	C1157	C	0.118282	0.693296	0.748396
	C1158	C	0.031789	0.571181	0.749104
	C1159	C	0.093812	0.653921	0.748807
	C1160	C	0.039830	0.666018	1.000278
	C1161	C	0.102285	0.603544	0.497791
	C1162	C	0.053542	0.653030	0.999351
	C1163	C	0.115981	0.590611	0.498225
	C1164	C	0.053353	0.596003	0.748887
	C1165	C	0.112142	0.683267	0.748605
	C1166	C	0.039142	0.579527	0.749132
	C1167	C	0.100024	0.663882	0.748738
	C1168	C	0.042981	0.662097	1.001452
	C1169	C	0.105461	0.599432	0.974345
	C1170	C	0.049966	0.656339	0.463428
	C1171	C	0.112450	0.593883	0.495907
	C1172	C	0.049668	0.655773	1.001080
	C1173	C	0.112095	0.593058	0.974133
	C1174	C	0.043270	0.662655	0.463752
	C1175	C	0.105782	0.600217	0.495868
	C1176	C	0.049579	0.591992	0.735106
	C1177	C	0.108680	0.678641	0.737364
	C1178	C	0.042914	0.583520	0.763186
	C1179	C	0.103462	0.668488	0.759897
	C1180	C	0.042647	0.583978	0.735150
	C1181	C	0.102791	0.669201	0.737503
	C1182	C	0.049854	0.591509	0.762970
	C1183	C	0.109370	0.677897	0.759972
	N1184	N	0.022625	0.682651	0.952309
	N1185	N	0.085152	0.620211	0.951209
	N1186	N	0.070750	0.636475	0.545860
	N1187	N	0.133209	0.573989	0.546031
	N1188	N	0.070679	0.636267	0.951026
	N1189	N	0.133256	0.573879	0.952412
	N1190	N	0.022494	0.682556	0.546168
	N1191	N	0.085132	0.620287	0.545887
	N1192	N	0.070873	0.617588	0.700815
	N1193	N	0.127243	0.708067	0.701278
	N1194	N	0.020956	0.559042	0.796930
	N1195	N	0.084761	0.639256	0.795795
	N1196	N	0.020882	0.559076	0.702113
	N1197	N	0.084713	0.639314	0.700937
	N1198	N	0.070928	0.617522	0.796172
	N1199	N	0.127221	0.708062	0.796377
	H1200	H	0.023352	0.829630	0.351702
	H1201	H	0.085823	0.767057	0.351340
	H1202	H	0.056405	0.796109	0.148894
	H1203	H	0.119180	0.734029	0.147954
	H1204	H	0.056830	0.796947	0.351635
	H1205	H	0.119015	0.733856	0.350600
	H1206	H	0.023384	0.829474	0.148054
	H1207	H	0.085856	0.767037	0.148716
	H1208	H	0.058511	0.760069	0.100549
	H1209	H	0.112354	0.853228	0.099985
	H1210	H	0.028661	0.711904	0.399029
	H1211	H	0.083840	0.803806	0.398879
	H1212	H	0.028531	0.712044	0.099737
	H1213	H	0.083782	0.803686	0.100303
	H1214	H	0.058226	0.760193	0.399317
	H1215	H	0.112427	0.852930	0.398725
	H1216	H	0.033993	0.818621	0.442808
	H1217	H	0.097212	0.757244	0.433131
	H1218	H	0.045518	0.806801	0.040079
	H1219	H	0.108629	0.745187	0.014167
	H1220	H	0.045656	0.807096	0.443239
	H1221	H	0.108871	0.745731	0.432879
	H1222	H	0.033927	0.818391	0.040003
	H1223	H	0.096972	0.756659	0.014920
	H1224	H	0.048529	0.744393	0.204469
	H1225	H	0.102926	0.837075	0.319433
	H1226	H	0.038569	0.727583	0.294630
	H1227	H	0.093339	0.819669	0.178367
	H1228	H	0.038191	0.727649	0.204847
	H1229	H	0.093069	0.819863	0.320361
	H1230	H	0.048891	0.744326	0.294940
	H1231	H	0.103244	0.836874	0.177489
	Co1232	Co	0.124919	0.875163	0.125427
	Co1233	Co	0.071270	0.781751	0.125670
	Co1234	Co	0.015405	0.690772	0.374225
	Co1235	Co	0.071262	0.781815	0.374868
	C1236	C	0.022240	0.830724	0.424259
	C1237	C	0.084735	0.768109	0.423263
	C1238	C	0.057625	0.795158	0.076170
	C1239	C	0.120315	0.732964	0.075282
	C1240	C	0.057795	0.795629	0.424357
	C1241	C	0.120218	0.732854	0.423125
	C1242	C	0.022240	0.830602	0.075291
	C1243	C	0.084736	0.768104	0.076056
	C1244	C	0.059420	0.761691	0.173457
	C1245	C	0.113328	0.854867	0.173276
	C1246	C	0.027649	0.710386	0.325881
	C1247	C	0.082897	0.802104	0.326029
	C1248	C	0.027583	0.710429	0.173226
	C1249	C	0.082865	0.802041	0.173362
	C1250	C	0.059301	0.761775	0.326237
	C1251	C	0.113342	0.854709	0.326018
	C1252	C	0.026292	0.826604	0.500119
	C1253	C	0.088798	0.764004	-0.000073
	C1254	C	0.053596	0.799471	0.500703
	C1255	C	0.116272	0.737096	-0.000937
	C1256	C	0.055726	0.755768	0.249732
	C1257	C	0.109837	0.848646	0.249229
	C1258	C	0.031325	0.716287	0.249497
	C1259	C	0.086437	0.808145	0.249498
	C1260	C	0.033198	0.819673	0.500415
	C1261	C	0.095754	0.757151	-0.000231
	C1262	C	0.046664	0.806334	0.500408
	C1263	C	0.109297	0.743910	-0.000609
	C1264	C	0.049564	0.745731	0.249535
	C1265	C	0.103932	0.838363	0.248597
	C1266	C	0.037550	0.726248	0.249818
	C1267	C	0.092393	0.818371	0.249369
	C1268	C	0.036588	0.816195	0.468332
	C1269	C	0.099519	0.754296	0.462002
	C1270	C	0.043109	0.809480	0.022728
	C1271	C	0.105982	0.747554	0.008102
	C1272	C	0.043157	0.809676	0.468242
	C1273	C	0.106096	0.747803	0.461953
	C1274	C	0.036555	0.816052	0.022326
	C1275	C	0.099376	0.753975	0.008100
	C1276	C	0.046385	0.740748	0.224389
	C1277	C	0.100881	0.833291	0.288384
	C1278	C	0.040735	0.731220	0.274945
	C1279	C	0.095459	0.823427	0.209420
	C1280	C	0.040536	0.731275	0.224512
	C1281	C	0.095268	0.823560	0.288749
	C1282	C	0.046585	0.740698	0.275014
	C1283	C	0.101038	0.833186	0.209178
	N1284	N	0.016187	0.836748	0.452992
	N1285	N	0.078710	0.774153	0.452345
	N1286	N	0.063698	0.789228	0.047263
	N1287	N	0.126354	0.726924	0.046177
	N1288	N	0.063817	0.789546	0.452945
	N1289	N	0.126285	0.726869	0.451862
	N1290	N	0.016238	0.836664	0.046756
	N1291	N	0.078729	0.774187	0.046996
	N1292	N	0.064733	0.770485	0.202641
	N1293	N	0.118462	0.863806	0.202633
	N1294	N	0.022196	0.701740	0.297060
	N1295	N	0.077703	0.793149	0.297444
	N1296	N	0.022165	0.701742	0.202029
	N1297	N	0.077704	0.793127	0.202523
	N1298	N	0.064680	0.770528	0.297715
	N1299	N	0.118464	0.863728	0.297772
	H1300	H	0.023282	0.829365	0.850169
	H1301	H	0.085861	0.767086	0.850640
	H1302	H	0.056359	0.796094	0.649615
	H1303	H	0.119301	0.734230	0.647980
	H1304	H	0.056715	0.796695	0.851145
	H1305	H	0.119354	0.734356	0.849802
	H1306	H	0.023330	0.829565	0.648520
	H1307	H	0.085892	0.766977	0.647279
	H1308	H	0.058503	0.759913	0.599749
	H1309	H	0.112337	0.853036	0.601987
	H1310	H	0.028758	0.711953	0.898621
	H1311	H	0.083870	0.803696	0.898428
	H1312	H	0.028638	0.712099	0.599858
	H1313	H	0.083880	0.803643	0.601008
	H1314	H	0.058093	0.760298	0.898852
	H1315	H	0.112375	0.853042	0.899571
	H1316	H	0.034415	0.819152	0.959572
	H1317	H	0.096375	0.755782	0.985294
	H1318	H	0.045868	0.807386	0.558158
	H1319	H	0.107778	0.743737	0.565019
	H1320	H	0.046022	0.807572	0.959532
	H1321	H	0.108070	0.744436	0.985132
	H1322	H	0.034183	0.818846	0.558370
	H1323	H	0.096136	0.755242	0.565376
	H1324	H	0.047460	0.745763	0.648093
	H1325	H	0.102626	0.837352	0.744572
	H1326	H	0.039733	0.726244	0.850797
	H1327	H	0.093654	0.819321	0.755461
	H1328	H	0.037153	0.728998	0.647808
	H1329	H	0.092736	0.820173	0.743738
	H1330	H	0.050044	0.742954	0.850329
	H1331	H	0.103590	0.836522	0.756412
	Co1332	Co	0.124889	0.875004	0.625504
	Co1333	Co	0.071239	0.781730	0.625211
	Co1334	Co	0.015439	0.690696	0.873873
	Co1335	Co	0.071224	0.781746	0.874374
	C1336	C	0.022202	0.830613	0.923002
	C1337	C	0.084746	0.768117	0.923530
	C1338	C	0.057589	0.795220	0.576832
	C1339	C	0.120334	0.733041	0.575590
	C1340	C	0.057777	0.795434	0.923730
	C1341	C	0.120403	0.733132	0.922594
	C1342	C	0.022210	0.830677	0.575990
	C1343	C	0.084748	0.768060	0.575198
	C1344	C	0.059422	0.761620	0.673163
	C1345	C	0.113279	0.854735	0.674630
	C1346	C	0.027701	0.710331	0.825634
	C1347	C	0.082890	0.801991	0.825914
	C1348	C	0.027634	0.710424	0.672565
	C1349	C	0.082912	0.801956	0.673314
	C1350	C	0.059231	0.761808	0.826240
	C1351	C	0.113312	0.854761	0.826965
	C1352	C	0.026331	0.826509	0.999107
	C1353	C	0.088792	0.764013	0.499190
	C1354	C	0.053563	0.799382	0.999962
	C1355	C	0.116205	0.736989	0.499369
	C1356	C	0.055737	0.755749	0.749752
	C1357	C	0.109790	0.848626	0.750936
	C1358	C	0.031355	0.716292	0.749187
	C1359	C	0.086449	0.808085	0.749610
	C1360	C	0.033253	0.819679	0.999378
	C1361	C	0.095743	0.757170	0.499190
	C1362	C	0.046672	0.806253	1.000069
	C1363	C	0.109249	0.743802	0.499083
	C1364	C	0.049571	0.745769	0.749472
	C1365	C	0.103910	0.838331	0.750931
	C1366	C	0.037556	0.726224	0.749200
	C1367	C	0.092394	0.818321	0.750014
	C1368	C	0.036839	0.816470	0.977087
	C1369	C	0.099054	0.753495	0.991462
	C1370	C	0.043264	0.809814	0.532882
	C1371	C	0.105456	0.746653	0.536404
	C1372	C	0.043391	0.809891	0.977304
	C1373	C	0.105645	0.747052	0.991254
	C1374	C	0.036700	0.816314	0.532852
	C1375	C	0.098898	0.753171	0.536321
	C1376	C	0.045766	0.741489	0.692578
	C1377	C	0.100699	0.833429	0.747263
	C1378	C	0.041355	0.730460	0.805908
	C1379	C	0.095598	0.823206	0.753455
	C1380	C	0.039922	0.732000	0.692433
	C1381	C	0.095081	0.823684	0.746647
	C1382	C	0.047203	0.739944	0.805979
	C1383	C	0.101212	0.832950	0.753868
	N1384	N	0.016233	0.836676	0.952141
	N1385	N	0.078717	0.774157	0.952227
	N1386	N	0.063688	0.789299	0.547791
	N1387	N	0.126350	0.726995	0.546762
	N1388	N	0.063794	0.789437	0.952745
	N1389	N	0.126414	0.727040	0.951499
	N1390	N	0.016189	0.836716	0.547430
	N1391	N	0.078706	0.774111	0.546823
	N1392	N	0.064724	0.770448	0.702129
	N1393	N	0.118388	0.863752	0.703160
	N1394	N	0.022302	0.701665	0.796683
	N1395	N	0.077723	0.793055	0.797038
	N1396	N	0.022244	0.701719	0.701396
	N1397	N	0.077736	0.793023	0.702247
	N1398	N	0.064607	0.770562	0.797370
	N1399	N	0.118429	0.863759	0.797824
	H1400	H	0.014451	0.985185	0.352220
	H1401	H	0.076889	0.922624	0.353005
	H1402	H	0.047805	0.952590	0.150207
	H1403	H	0.110290	0.889788	0.149650
	H1404	H	0.047900	0.952252	0.352907
	H1405	H	0.110183	0.889786	0.352023
	H1406	H	0.014441	0.985135	0.148267
	H1407	H	0.077185	0.923211	0.150456
	H1408	H	0.049931	0.915684	0.102518
	H1409	H	0.103411	1.009112	0.102535
	H1410	H	0.021400	0.866135	0.399534
	H1411	H	0.075055	0.959532	0.400850
	H1412	H	0.021308	0.866304	0.101315
	H1413	H	0.075024	0.959501	0.102304
	H1414	H	0.049870	0.915775	0.399754
	H1415	H	0.103651	1.008893	0.400400
	H1416	H	0.024418	0.972926	0.496124
	H1417	H	0.087937	0.912211	0.558967
	H1418	H	0.037340	0.963949	0.045048
	H1419	H	0.099909	0.901445	0.042327
	H1420	H	0.036050	0.961465	0.496006
	H1421	H	0.099509	0.900620	0.559939
	H1422	H	0.025703	0.975381	0.043965
	H1423	H	0.088252	0.913015	0.042522
	H1424	H	0.040757	0.899356	0.188660
	H1425	H	0.094062	0.993052	0.323167
	H1426	H	0.030611	0.882491	0.313988
	H1427	H	0.084347	0.975561	0.178929
	H1428	H	0.030809	0.882219	0.188457
	H1429	H	0.084161	0.975917	0.323118
	H1430	H	0.040478	0.899712	0.313586
	H1431	H	0.094269	0.992724	0.179149
	Co1432	Co	0.116157	1.030913	0.127197
	Co1433	Co	0.062435	0.937733	0.126757
	Co1434	Co	0.008696	0.844290	0.374529
	Co1435	Co	0.062452	0.937626	0.376142
	C1436	C	0.013342	0.986294	0.424630
	C1437	C	0.075864	0.923867	0.425233
	C1438	C	0.048937	0.951369	0.078081
	C1439	C	0.111383	0.888737	0.076983
	C1440	C	0.048957	0.951162	0.425103
	C1441	C	0.111368	0.888643	0.424505
	C1442	C	0.013338	0.986363	0.076356
	C1443	C	0.076018	0.924197	0.077562
	C1444	C	0.050905	0.917287	0.174955
	C1445	C	0.104445	1.010678	0.175286
	C1446	C	0.020448	0.864539	0.326820
	C1447	C	0.074073	0.957919	0.327773
	C1448	C	0.020413	0.864628	0.174143
	C1449	C	0.074071	0.957900	0.175420
	C1450	C	0.050822	0.917363	0.327129
	C1451	C	0.104537	1.010564	0.327833
	C1452	C	0.017472	0.982275	0.500691
	C1453	C	0.080032	0.920040	0.001278
	C1454	C	0.044800	0.955266	0.500723
	C1455	C	0.107287	0.892816	0.001043
	C1456	C	0.047412	0.911202	0.250980
	C1457	C	0.100955	1.004561	0.251461
	C1458	C	0.023945	0.870657	0.250601
	C1459	C	0.077546	0.964030	0.251541
	C1460	C	0.024406	0.975447	0.500815
	C1461	C	0.086927	0.913110	0.001194
	C1462	C	0.037882	0.962103	0.500445
	C1463	C	0.100360	0.899708	0.000980
	C1464	C	0.041445	0.900942	0.251018
	C1465	C	0.095008	0.994299	0.251091
	C1466	C	0.029865	0.880958	0.250886
	C1467	C	0.083471	0.974298	0.251414
	C1468	C	0.027340	0.971117	0.498245
	C1469	C	0.090436	0.909675	0.533571
	C1470	C	0.034632	0.965992	0.025541
	C1471	C	0.097172	0.903601	0.024065
	C1472	C	0.033945	0.964657	0.497974
	C1473	C	0.096979	0.903086	0.534039
	C1474	C	0.028042	0.972505	0.025031
	C1475	C	0.090616	0.910134	0.024264
	C1476	C	0.038524	0.895727	0.215827
	C1477	C	0.091970	0.989257	0.291641
	C1478	C	0.032774	0.886188	0.286158
	C1479	C	0.086478	0.979357	0.210981
	C1480	C	0.032921	0.886004	0.215788
	C1481	C	0.086380	0.979531	0.291635
	C1482	C	0.038408	0.895888	0.286137
	C1483	C	0.092086	0.989082	0.210773
	N1484	N	0.007337	0.992378	0.453475
	N1485	N	0.069880	0.929951	0.454161
	N1486	N	0.054965	0.945361	0.049534
	N1487	N	0.117406	0.882704	0.047492
	N1488	N	0.054960	0.945176	0.454244
	N1489	N	0.117371	0.882593	0.452947
	N1490	N	0.007348	0.992429	0.047781
	N1491	N	0.069956	0.930176	0.048805
	N1492	N	0.056008	0.926331	0.203747
	N1493	N	0.109641	1.019604	0.204263
	N1494	N	0.015257	0.855588	0.297669
	N1495	N	0.068944	0.948914	0.298988
	N1496	N	0.015242	0.855643	0.202646
	N1497	N	0.068936	0.948922	0.204259
	N1498	N	0.055955	0.926353	0.298495
	N1499	N	0.109703	1.019529	0.299006
	H1500	H	0.014539	0.985419	0.852853
	H1501	H	0.076986	0.922792	0.852291
	H1502	H	0.047725	0.952259	0.649048
	H1503	H	0.110355	0.889940	0.648818
	H1504	H	0.047634	0.952071	0.853565
	H1505	H	0.110174	0.889738	0.852419
	H1506	H	0.014561	0.985375	0.649601
	H1507	H	0.077287	0.923181	0.649361
	H1508	H	0.049857	0.915758	0.602442
	H1509	H	0.103411	1.008983	0.603247
	H1510	H	0.021134	0.866384	0.899644
	H1511	H	0.074804	0.959658	0.901077
	H1512	H	0.021443	0.866175	0.601780
	H1513	H	0.075120	0.959510	0.603334
	H1514	H	0.049927	0.915618	0.900431
	H1515	H	0.103554	1.008809	0.901887
	H1516	H	0.024822	0.973645	0.956450
	H1517	H	0.087368	0.911318	0.959942
	H1518	H	0.037875	0.964609	0.505174
	H1519	H	0.099460	0.900435	0.442498
	H1520	H	0.036439	0.962131	0.957563
	H1521	H	0.099010	0.899763	0.959735
	H1522	H	0.026226	0.976018	0.505822
	H1523	H	0.087900	0.912043	0.442435
	H1524	H	0.040457	0.899718	0.794288
	H1525	H	0.094196	0.992911	0.668040
	H1526	H	0.030825	0.882142	0.708147
	H1527	H	0.084372	0.975460	0.837909
	H1528	H	0.030521	0.882559	0.793108
	H1529	H	0.084209	0.975769	0.667643
	H1530	H	0.040761	0.899288	0.708752
	H1531	H	0.094307	0.992622	0.838391
	Co1532	Co	0.116125	1.030757	0.626881
	Co1533	Co	0.062452	0.937602	0.626801
	Co1534	Co	0.008731	0.844321	0.874996
	Co1535	Co	0.062382	0.937616	0.876298
	C1536	C	0.013394	0.986506	0.924797
	C1537	C	0.075909	0.923983	0.924980
	C1538	C	0.048890	0.951199	0.576792
	C1539	C	0.111462	0.888747	0.576377
	C1540	C	0.048832	0.951079	0.926098
	C1541	C	0.111323	0.888683	0.924790
	C1542	C	0.013418	0.986414	0.576904
	C1543	C	0.076067	0.924177	0.577280
	C1544	C	0.050799	0.917329	0.675204
	C1545	C	0.104423	1.010592	0.675788
	C1546	C	0.020297	0.864716	0.826664
	C1547	C	0.073938	0.957928	0.828121
	C1548	C	0.020452	0.864585	0.674364
	C1549	C	0.074089	0.957860	0.675827
	C1550	C	0.050834	0.917288	0.827570
	C1551	C	0.104519	1.010525	0.828774
	C1552	C	0.017451	0.982288	1.000446
	C1553	C	0.080081	0.919932	0.501054
	C1554	C	0.044758	0.955302	1.001786
	C1555	C	0.107328	0.892790	0.500592
	C1556	C	0.047344	0.911219	0.751408
	C1557	C	0.100977	1.004413	0.752542
	C1558	C	0.023885	0.870693	0.750507
	C1559	C	0.077549	0.963985	0.752262
	C1560	C	0.024343	0.975430	1.000408
	C1561	C	0.086966	0.913054	0.500859
	C1562	C	0.037845	0.962115	1.001166
	C1563	C	0.100415	0.899626	0.501061
	C1564	C	0.041424	0.900927	0.751243
	C1565	C	0.095055	0.994172	0.753040
	C1566	C	0.029842	0.880959	0.750500
	C1567	C	0.083457	0.974247	0.752798
	C1568	C	0.027545	0.971549	0.975971
	C1569	C	0.090107	0.909174	0.977864
	C1570	C	0.034948	0.966376	0.503219
	C1571	C	0.096960	0.903030	0.468159
	C1572	C	0.034137	0.965036	0.976552
	C1573	C	0.096664	0.902668	0.977777
	C1574	C	0.028359	0.972872	0.503612
	C1575	C	0.090395	0.909574	0.468049
	C1576	C	0.038356	0.895909	0.775103
	C1577	C	0.092043	0.989149	0.705212
	C1578	C	0.032912	0.885969	0.726746
	C1579	C	0.086480	0.979260	0.800665
	C1580	C	0.032744	0.886219	0.774662
	C1581	C	0.086395	0.979446	0.705062
	C1582	C	0.038524	0.895670	0.727049
	C1583	C	0.092145	0.988949	0.800764
	N1584	N	0.007405	0.992560	0.953552
	N1585	N	0.069890	0.930028	0.953890
	N1586	N	0.054933	0.945205	0.548495
	N1587	N	0.117430	0.882654	0.547363
	N1588	N	0.054906	0.945177	0.954939
	N1589	N	0.117374	0.882687	0.953031
	N1590	N	0.007355	0.992382	0.548391
	N1591	N	0.070000	0.930128	0.548766
	N1592	N	0.055959	0.926312	0.703907
	N1593	N	0.109594	1.019536	0.704556
	N1594	N	0.015185	0.855706	0.797811
	N1595	N	0.068810	0.948989	0.798989
	N1596	N	0.015272	0.855637	0.702916
	N1597	N	0.068899	0.948925	0.704358
	N1598	N	0.055976	0.926289	0.798696
	N1599	N	0.109667	1.019483	0.799571
	H1600	H	0.124047	0.169173	0.350632
	H1601	H	0.186623	0.106829	0.351706
	H1602	H	0.157469	0.136538	0.149379
	H1603	H	0.220116	0.074043	0.149715
	H1604	H	0.157764	0.137036	0.351667
	H1605	H	0.220189	0.074403	0.352037
	H1606	H	0.123956	0.169219	0.148826
	H1607	H	0.186484	0.106581	0.150215
	H1608	H	0.158797	0.100632	0.102100
	H1609	H	0.221574	0.182132	0.099407
	H1610	H	0.129092	0.052357	0.400953
	H1611	H	0.186583	0.141420	0.399782
	H1612	H	0.129040	0.052467	0.103019
	H1613	H	0.186303	0.141581	0.100622
	H1614	H	0.158878	0.100453	0.400522
	H1615	H	0.221385	0.182416	0.399696
	H1616	H	0.134532	0.157919	0.541315
	H1617	H	0.197210	0.095632	0.512689
	H1618	H	0.146403	0.146875	0.019069
	H1619	H	0.208910	0.084203	0.060617
	H1620	H	0.146303	0.146700	0.542265
	H1621	H	0.208967	0.084440	0.512433
	H1622	H	0.134633	0.158164	0.019226
	H1623	H	0.197165	0.095503	0.060096
	H1624	H	0.148739	0.085298	0.217466
	H1625	H	0.210475	0.168173	0.245925
	H1626	H	0.139088	0.067724	0.286438
	H1627	H	0.197068	0.156236	0.253313
	H1628	H	0.138344	0.068671	0.217590
	H1629	H	0.198289	0.153966	0.247524
	H1630	H	0.149415	0.084499	0.286442
	H1631	H	0.209261	0.170369	0.252099
	Co1632	Co	0.237425	0.199856	0.125322
	Co1633	Co	0.172021	0.121702	0.126532
	Co1634	Co	0.116139	0.030853	0.376468
	Co1635	Co	0.172076	0.121764	0.375460
	C1636	C	0.122854	0.170283	0.423379
	C1637	C	0.185427	0.107808	0.424751
	C1638	C	0.158692	0.135586	0.076764
	C1639	C	0.221254	0.073055	0.077050
	C1640	C	0.158888	0.135865	0.424425
	C1641	C	0.221340	0.073211	0.424150
	C1642	C	0.122823	0.170206	0.076420
	C1643	C	0.185368	0.107687	0.077442
	C1644	C	0.159777	0.102190	0.174984
	C1645	C	0.222729	0.183578	0.172754
	C1646	C	0.128128	0.050823	0.328125
	C1647	C	0.185373	0.140077	0.326794
	C1648	C	0.128074	0.050924	0.175812
	C1649	C	0.185251	0.140134	0.173770
	C1650	C	0.159836	0.102103	0.327732
	C1651	C	0.222627	0.183735	0.326264
	C1652	C	0.127002	0.166196	0.499556
	C1653	C	0.189525	0.103700	0.001335
	C1654	C	0.154709	0.139938	0.500462
	C1655	C	0.217188	0.077172	0.000996
	C1656	C	0.156108	0.096270	0.251427
	C1657	C	0.218272	0.178771	0.249480
	C1658	C	0.131716	0.056817	0.252162
	C1659	C	0.189475	0.145326	0.250065
	C1660	C	0.133997	0.159528	0.499719
	C1661	C	0.196513	0.096955	0.001268
	C1662	C	0.147727	0.146594	0.500483
	C1663	C	0.210194	0.083918	0.001044
	C1664	C	0.149915	0.086283	0.251560
	C1665	C	0.210906	0.170454	0.249496
	C1666	C	0.137881	0.066807	0.252350
	C1667	C	0.196668	0.153957	0.249872
	C1668	C	0.137258	0.155816	0.523085
	C1669	C	0.199880	0.093392	0.507204
	C1670	C	0.143984	0.149534	0.011247
	C1671	C	0.206479	0.086951	0.034331
	C1672	C	0.143961	0.149477	0.523403
	C1673	C	0.206568	0.087069	0.506999
	C1674	C	0.137342	0.155915	0.011290
	C1675	C	0.199823	0.093312	0.034351
	C1676	C	0.146648	0.081512	0.232484
	C1677	C	0.207580	0.165621	0.247737
	C1678	C	0.141169	0.071625	0.271349
	C1679	C	0.200005	0.158829	0.251446
	C1680	C	0.140805	0.072041	0.232954
	C1681	C	0.200657	0.157628	0.248171
	C1682	C	0.147033	0.081069	0.271031
	C1683	C	0.206908	0.166853	0.251282
	N1684	N	0.116777	0.176162	0.452387
	N1685	N	0.179313	0.113662	0.453804
	N1686	N	0.164813	0.129711	0.048151
	N1687	N	0.227358	0.067150	0.048227
	N1688	N	0.164914	0.129872	0.453452
	N1689	N	0.227381	0.067204	0.452998
	N1690	N	0.116719	0.176078	0.047510
	N1691	N	0.179295	0.113626	0.048653
	N1692	N	0.165235	0.110800	0.203851
	N1693	N	0.229168	0.190766	0.202201
	N1694	N	0.122750	0.042091	0.299378
	N1695	N	0.179182	0.132371	0.298243
	N1696	N	0.122709	0.042166	0.204481
	N1697	N	0.179090	0.132426	0.203142
	N1698	N	0.165271	0.110764	0.298816
	N1699	N	0.229111	0.190864	0.297468
	H1700	H	0.124029	0.169148	0.852524
	H1701	H	0.186536	0.106634	0.852447
	H1702	H	0.157638	0.136963	0.649495
	H1703	H	0.220224	0.074334	0.648750
	H1704	H	0.157877	0.137132	0.852176
	H1705	H	0.220272	0.074437	0.852210
	H1706	H	0.123981	0.169014	0.648334
	H1707	H	0.186311	0.106230	0.650317
	H1708	H	0.158775	0.100517	0.601490
	H1709	H	0.221485	0.182535	0.599211
	H1710	H	0.128959	0.052459	0.901429
	H1711	H	0.186442	0.141574	0.899758
	H1712	H	0.129158	0.052213	0.602844
	H1713	H	0.186605	0.141295	0.600770
	H1714	H	0.158806	0.100501	0.900775
	H1715	H	0.221594	0.182241	0.899628
	H1716	H	0.135252	0.159155	0.983353
	H1717	H	0.197825	0.096616	0.941734
	H1718	H	0.147247	0.148299	0.458979
	H1719	H	0.209517	0.085243	0.488456
	H1720	H	0.147075	0.147913	0.983345
	H1721	H	0.209600	0.085330	0.942110
	H1722	H	0.135425	0.159437	0.458457
	H1723	H	0.197636	0.096357	0.489652
	H1724	H	0.148802	0.085176	0.651563
	H1725	H	0.209690	0.169589	0.710866
	H1726	H	0.138900	0.067835	0.853050
	H1727	H	0.197853	0.154938	0.787884
	H1728	H	0.138445	0.068480	0.651828
	H1729	H	0.197546	0.155330	0.711472
	H1730	H	0.149273	0.084528	0.852578
	H1731	H	0.210019	0.169198	0.787231
	Co1732	Co	0.237501	0.199990	0.625459
	Co1733	Co	0.172044	0.121700	0.626307
	Co1734	Co	0.116160	0.030857	0.876839
	Co1735	Co	0.172120	0.121794	0.875701
	C1736	C	0.122858	0.170206	0.924723
	C1737	C	0.185409	0.107754	0.925224
	C1738	C	0.158808	0.135817	0.576750
	C1739	C	0.221337	0.073170	0.576303
	C1740	C	0.158891	0.135894	0.924590
	C1741	C	0.221324	0.073259	0.924861
	C1742	C	0.122815	0.170199	0.575755
	C1743	C	0.185259	0.107497	0.577522
	C1744	C	0.159795	0.102118	0.674637
	C1745	C	0.222641	0.183838	0.672660
	C1746	C	0.128031	0.050778	0.828382
	C1747	C	0.185329	0.140119	0.826683
	C1748	C	0.128137	0.050651	0.675666
	C1749	C	0.185398	0.139964	0.673842
	C1750	C	0.159823	0.102115	0.827647
	C1751	C	0.222694	0.183671	0.826245
	C1752	C	0.126950	0.166177	1.000655
	C1753	C	0.189502	0.103623	0.501126
	C1754	C	0.154665	0.139748	1.000764
	C1755	C	0.217192	0.077215	0.500115
	C1756	C	0.156112	0.096197	0.751219
	C1757	C	0.218239	0.178913	0.749285
	C1758	C	0.131721	0.056697	0.752171
	C1759	C	0.189528	0.145274	0.750146
	C1760	C	0.134006	0.159514	1.000985
	C1761	C	0.196512	0.096939	0.500957
	C1762	C	0.147666	0.146487	1.001047
	C1763	C	0.210211	0.083948	0.500216
	C1764	C	0.149878	0.086269	0.751238
	C1765	C	0.210872	0.170530	0.749061
	C1766	C	0.137834	0.066753	0.752177
	C1767	C	0.196710	0.153939	0.749676
	C1768	C	0.137696	0.156480	0.991051
	C1769	C	0.200205	0.093937	0.967809
	C1770	C	0.144476	0.150347	0.477135
	C1771	C	0.206831	0.087482	0.493704
	C1772	C	0.144363	0.150146	0.991066
	C1773	C	0.206865	0.087578	0.967959
	C1774	C	0.137766	0.156671	0.476702
	C1775	C	0.200132	0.093815	0.494366
	C1776	C	0.146654	0.081427	0.695316
	C1777	C	0.207121	0.166412	0.727714
	C1778	C	0.141055	0.071592	0.808628
	C1779	C	0.200429	0.158122	0.770990
	C1780	C	0.140773	0.071958	0.695645
	C1781	C	0.200256	0.158337	0.728178
	C1782	C	0.146899	0.081095	0.808103
	C1783	C	0.207295	0.166182	0.770687
	N1784	N	0.116731	0.176066	0.953122
	N1785	N	0.179307	0.113645	0.954070
	N1786	N	0.164840	0.129796	0.548209
	N1787	N	0.227388	0.067197	0.547776
	N1788	N	0.164946	0.129890	0.953422
	N1789	N	0.227401	0.067286	0.953528
	N1790	N	0.116758	0.176120	0.547083
	N1791	N	0.179211	0.113475	0.548545
	N1792	N	0.165242	0.110748	0.703527
	N1793	N	0.229101	0.191001	0.701990
	N1794	N	0.122694	0.042015	0.799262
	N1795	N	0.179177	0.132359	0.797897
	N1796	N	0.122774	0.041936	0.704291
	N1797	N	0.179230	0.132266	0.702848
	N1798	N	0.165254	0.110766	0.798749
	N1799	N	0.229145	0.190913	0.797163
	H1800	H	0.124182	0.305487	0.348388
	H1801	H	0.186693	0.242886	0.348820
	H1802	H	0.160782	0.277779	0.150750
	H1803	H	0.223303	0.215394	0.150507
	H1804	H	0.160847	0.277699	0.349457
	H1805	H	0.223222	0.215159	0.349848
	H1806	H	0.124014	0.305192	0.149808
	H1807	H	0.186479	0.242687	0.150628
	H1808	H	0.158963	0.244828	0.099720
	H1809	H	0.231511	0.244201	0.097727
	H1810	H	0.123871	0.204063	0.398532
	H1811	H	0.193384	0.267186	0.401565
	H1812	H	0.123880	0.203948	0.101274
	H1813	H	0.193385	0.267056	0.098434
	H1814	H	0.158978	0.244854	0.400785
	H1815	H	0.231415	0.243770	0.400570
	H1816	H	0.135713	0.295018	0.351316
	H1817	H	0.198012	0.232308	0.352213
	H1818	H	0.148372	0.285941	-0.148284
	H1819	H	0.210757	0.223381	0.148587
	H1820	H	0.148467	0.286136	0.351726
	H1821	H	0.210803	0.223347	0.352258
	H1822	H	0.135566	0.294802	-0.148609
	H1823	H	0.197938	0.232316	0.148174
	H1824	H	0.147807	0.231026	0.262306
	H1825	H	0.218467	0.250170	0.098870
	H1826	H	0.134727	0.218309	0.238217
	H1827	H	0.205866	0.259436	0.400238
	H1828	H	0.135597	0.216796	0.261686
	H1829	H	0.205766	0.259261	0.099508
	H1830	H	0.146901	0.232563	0.238436
	H1831	H	0.218512	0.250208	0.399534
	Co1832	Co	0.250099	0.250055	0.125875
	Co1833	Co	0.175009	0.262448	0.125322
	Co1834	Co	0.109542	0.184256	0.374338
	Co1835	Co	0.174984	0.262427	0.374345
	C1836	C	0.123211	0.306737	0.422215
	C1837	C	0.185698	0.244184	0.422890
	C1838	C	0.162001	0.276888	0.077032
	C1839	C	0.224498	0.214429	0.076949
	C1840	C	0.162040	0.276907	0.423366
	C1841	C	0.224469	0.214333	0.423469
	C1842	C	0.123109	0.306617	0.076252
	C1843	C	0.185610	0.244158	0.076613
	C1844	C	0.160195	0.246149	0.173225
	C1845	C	0.233024	0.244133	0.171885
	C1846	C	0.122750	0.202617	0.325799
	C1847	C	0.191879	0.267240	0.327206
	C1848	C	0.122758	0.202562	0.173847
	C1849	C	0.191880	0.267160	0.172610
	C1850	C	0.160186	0.246157	0.326985
	C1851	C	0.232985	0.243969	0.326685
	C1852	C	0.127158	0.302253	0.499529
	C1853	C	0.189614	0.239724	-0.000500
	C1854	C	0.157460	0.280180	0.500264
	C1855	C	0.219924	0.217652	0.000145
	C1856	C	0.155784	0.241243	0.250268
	C1857	C	0.227782	0.245092	0.249271
	C1858	C	0.126972	0.207805	0.249666
	C1859	C	0.196956	0.265546	0.249913
	C1860	C	0.134476	0.295907	0.499718
	C1861	C	0.196928	0.233331	-0.000474
	C1862	C	0.149624	0.285347	0.499988
	C1863	C	0.212079	0.222818	-0.000128
	C1864	C	0.148391	0.232933	0.250226
	C1865	C	0.219656	0.249470	0.249063
	C1866	C	0.134176	0.216422	0.249659
	C1867	C	0.204801	0.260470	0.249800
	C1868	C	0.138394	0.293085	0.417362
	C1869	C	0.200782	0.230435	0.417758
	C1870	C	0.145631	0.287880	-0.082636
	C1871	C	0.208052	0.225340	0.082557
	C1872	C	0.145706	0.287972	0.417463
	C1873	C	0.208085	0.225326	0.417790
	C1874	C	0.138309	0.292947	-0.082718
	C1875	C	0.200733	0.230413	0.082295
	C1876	C	0.144956	0.228284	0.256813
	C1877	C	0.215779	0.252155	0.165503
	C1878	C	0.137571	0.221107	0.243253
	C1879	C	0.208580	0.257508	0.333303
	C1880	C	0.138052	0.220252	0.256330
	C1881	C	0.208553	0.257423	0.165995
	C1882	C	0.144471	0.229159	0.243631
	C1883	C	0.215804	0.252217	0.332880
	N1884	N	0.117596	0.313599	0.451198
	N1885	N	0.180130	0.251072	0.451630
	N1886	N	0.168681	0.271987	0.048332
	N1887	N	0.231182	0.209480	0.048359
	N1888	N	0.168704	0.272004	0.451882
	N1889	N	0.231174	0.209525	0.451736
	N1890	N	0.117545	0.313506	0.047401
	N1891	N	0.180031	0.251041	0.047493
	N1892	N	0.166673	0.253320	0.202144
	N1893	N	0.240869	0.243258	0.200706
	N1894	N	0.116600	0.194889	0.297280
	N1895	N	0.184135	0.268937	0.298921
	N1896	N	0.116604	0.194854	0.202815
	N1897	N	0.184138	0.268893	0.200835
	N1898	N	0.166651	0.253337	0.297753
	N1899	N	0.240855	0.243129	0.298038
	H1900	H	0.124110	0.305359	0.847479
	H1901	H	0.186779	0.243017	0.848363
	H1902	H	0.160720	0.277547	0.650788
	H1903	H	0.223303	0.215265	0.650981
	H1904	H	0.160822	0.277858	0.849288
	H1905	H	0.223342	0.215282	0.849699
	H1906	H	0.124115	0.305342	0.651006
	H1907	H	0.186463	0.242670	0.651299
	H1908	H	0.159016	0.244809	0.599191
	H1909	H	0.231447	0.243874	0.598771
	H1910	H	0.123766	0.204276	0.899718
	H1911	H	0.193361	0.267320	0.901202
	H1912	H	0.124155	0.203744	0.600347
	H1913	H	0.193372	0.267105	0.597954
	H1914	H	0.158947	0.245000	0.900330
	H1915	H	0.231457	0.244157	0.901857
	H1916	H	0.135463	0.294903	1.147731
	H1917	H	0.198129	0.232610	0.851279
	H1918	H	0.148335	0.285868	0.647779
	H1919	H	0.210758	0.223355	0.648651
	H1920	H	0.148246	0.285870	1.147986
	H1921	H	0.210924	0.223603	0.851800
	H1922	H	0.135511	0.294829	0.647839
	H1923	H	0.197969	0.232200	0.648300
	H1924	H	0.147693	0.231264	0.736930
	H1925	H	0.218454	0.250265	0.900205
	H1926	H	0.134928	0.218126	0.763340
	H1927	H	0.205806	0.259370	0.599507
	H1928	H	0.135465	0.217206	0.736837
	H1929	H	0.205833	0.259471	0.900105
	H1930	H	0.147157	0.232280	0.762985
	H1931	H	0.218462	0.250214	0.600372
	Co1932	Co	0.249992	0.249839	0.625452
	Co1933	Co	0.175008	0.262413	0.624899
	Co1934	Co	0.109585	0.184273	0.875189
	Co1935	Co	0.174955	0.262503	0.874636
	C1936	C	0.123168	0.306689	0.922089
	C1937	C	0.185732	0.244325	0.922546
	C1938	C	0.161992	0.276810	0.576897
	C1939	C	0.224500	0.214376	0.577246
	C1940	C	0.162015	0.276966	0.923140
	C1941	C	0.224515	0.214414	0.923468
	C1942	C	0.123162	0.306705	0.576428
	C1943	C	0.185609	0.244105	0.576816
	C1944	C	0.160188	0.246200	0.672922
	C1945	C	0.232942	0.244020	0.673088
	C1946	C	0.122740	0.202728	0.826639
	C1947	C	0.191826	0.267244	0.826946
	C1948	C	0.122923	0.202445	0.673597
	C1949	C	0.191820	0.267171	0.672391
	C1950	C	0.160133	0.246305	0.826675
	C1951	C	0.232954	0.244170	0.827597
	C1952	C	0.127071	0.302110	0.999298
	C1953	C	0.189606	0.239638	0.499727
	C1954	C	0.157440	0.280207	1.000254
	C1955	C	0.219886	0.217598	0.500258
	C1956	C	0.155751	0.241377	0.749805
	C1957	C	0.227728	0.245124	0.750179
	C1958	C	0.127023	0.207828	0.750127
	C1959	C	0.196914	0.265570	0.749635
	C1960	C	0.134396	0.295762	0.999642
	C1961	C	0.196923	0.233303	0.499825
	C1962	C	0.149563	0.285301	1.000102
	C1963	C	0.212061	0.222771	0.500104
	C1964	C	0.148430	0.232995	0.749939
	C1965	C	0.219635	0.249525	0.750122
	C1966	C	0.134210	0.216461	0.750084
	C1967	C	0.204776	0.260505	0.749793
	C1968	C	0.138202	0.292901	1.082181
	C1969	C	0.200827	0.230586	0.917076
	C1970	C	0.145606	0.287861	0.582174
	C1971	C	0.208063	0.225279	0.582613
	C1972	C	0.145543	0.287865	1.082277
	C1973	C	0.208153	0.225517	0.917396
	C1974	C	0.138290	0.292983	0.582157
	C1975	C	0.200768	0.230418	0.582456
	C1976	C	0.144907	0.228489	0.742554
	C1977	C	0.215768	0.252274	0.833693
	C1978	C	0.137701	0.220989	0.757423
	C1979	C	0.208528	0.257499	0.666390
	C1980	C	0.138001	0.220459	0.742699
	C1981	C	0.208560	0.257556	0.833383
	C1982	C	0.144616	0.229008	0.757403
	C1983	C	0.215754	0.252205	0.666760
	N1984	N	0.117577	0.313553	0.951281
	N1985	N	0.180129	0.251148	0.951707
	N1986	N	0.168672	0.271956	0.548202
	N1987	N	0.231180	0.209514	0.548442
	N1988	N	0.168704	0.272040	0.951889
	N1989	N	0.231191	0.209519	0.952082
	N1990	N	0.117611	0.313604	0.547558
	N1991	N	0.180048	0.251012	0.547654
	N1992	N	0.166670	0.253337	0.702136
	N1993	N	0.240805	0.243185	0.701590
	N1994	N	0.116633	0.194950	0.797703
	N1995	N	0.184083	0.268980	0.798677
	N1996	N	0.116738	0.194802	0.702733
	N1997	N	0.184091	0.268939	0.700557
	N1998	N	0.166617	0.253446	0.797591
	N1999	N	0.240826	0.243315	0.798997
	H2000	H	0.137540	0.356655	0.348628
	H2001	H	0.199920	0.294052	0.347538
	H2002	H	0.175044	0.330716	0.151259
	H2003	H	0.237698	0.268303	0.151433
	H2004	H	0.175197	0.330873	0.348199
	H2005	H	0.237661	0.268284	0.348021
	H2006	H	0.137347	0.356372	0.151192
	H2007	H	0.199903	0.294057	0.151437
	H2008	H	0.168978	0.306347	0.097616
	H2009	H	0.244234	0.295176	0.097903
	H2010	H	0.130960	0.329804	0.401641
	H2011	H	0.206130	0.318480	0.401397
	H2012	H	0.130929	0.329494	0.098325
	H2013	H	0.206130	0.318408	0.098482
	H2014	H	0.168940	0.306335	0.401132
	H2015	H	0.244281	0.295361	0.401541
	H2016	H	0.149762	0.347875	0.349992
	H2017	H	0.212234	0.285198	0.649311
	H2018	H	0.162846	0.339684	0.149721
	H2019	H	0.225326	0.277101	0.150908
	H2020	H	0.162836	0.339698	0.350021
	H2021	H	0.225258	0.276913	0.649687
	H2022	H	0.149745	0.347785	0.149082
	H2023	H	0.212228	0.285220	0.150493
	H2024	H	0.156030	0.312774	0.099103
	H2025	H	0.231813	0.302954	0.098984
	H2026	H	0.143382	0.321827	0.400533
	H2027	H	0.219130	0.312144	0.400147
	H2028	H	0.143433	0.321940	0.099428
	H2029	H	0.219128	0.312120	0.099432
	H2030	H	0.156041	0.312657	0.399671
	H2031	H	0.231741	0.303054	0.400250
	Co2032	Co	0.262658	0.299892	0.125241
	Co2033	Co	0.187572	0.312452	0.125709
	Co2034	Co	0.112505	0.325010	0.374181
	Co2035	Co	0.187565	0.312509	0.373873
	C2036	C	0.136418	0.357856	0.423108
	C2037	C	0.198868	0.295243	0.422024
	C2038	C	0.176146	0.329554	0.077010
	C2039	C	0.238735	0.267179	0.077290
	C2040	C	0.176177	0.329584	0.422503
	C2041	C	0.238664	0.267010	0.422171
	C2042	C	0.136360	0.357715	0.076284
	C2043	C	0.198909	0.295345	0.076735
	C2044	C	0.170504	0.306513	0.172216
	C2045	C	0.245763	0.295173	0.172728
	C2046	C	0.129433	0.329777	0.327419
	C2047	C	0.204644	0.318321	0.326943
	C2048	C	0.129425	0.329647	0.172438
	C2049	C	0.204629	0.318311	0.172612
	C2050	C	0.170503	0.306533	0.327011
	C2051	C	0.245762	0.295241	0.327285
	C2052	C	0.140738	0.353980	0.500423
	C2053	C	0.203234	0.291445	-0.000249
	C2054	C	0.171859	0.333459	0.499867
	C2055	C	0.234427	0.271099	0.000254
	C2056	C	0.165293	0.307531	0.249772
	C2057	C	0.240684	0.296850	0.249859
	C2058	C	0.134526	0.328114	0.250169
	C2059	C	0.209849	0.317279	0.249698
	C2060	C	0.148528	0.348586	0.500110
	C2061	C	0.211015	0.286009	0.000116
	C2062	C	0.164112	0.338914	0.500092
	C2063	C	0.226633	0.276441	0.000457
	C2064	C	0.157203	0.311977	0.249629
	C2065	C	0.232838	0.301916	0.249704
	C2066	C	0.142386	0.323060	0.250159
	C2067	C	0.217969	0.312879	0.249738
	C2068	C	0.152529	0.346111	0.416697
	C2069	C	0.215010	0.283449	0.582207
	C2070	C	0.160066	0.341417	0.082799
	C2071	C	0.222585	0.278903	0.083828
	C2072	C	0.160043	0.341461	0.416917
	C2073	C	0.222510	0.278750	0.582623
	C2074	C	0.152537	0.346018	0.082309
	C2075	C	0.215050	0.283493	0.083663
	C2076	C	0.153349	0.314772	0.165971
	C2077	C	0.229080	0.304836	0.165893
	C2078	C	0.146125	0.320016	0.333561
	C2079	C	0.221839	0.310168	0.333411
	C2080	C	0.146170	0.320113	0.166428
	C2081	C	0.221863	0.310127	0.165899
	C2082	C	0.153317	0.314670	0.333256
	C2083	C	0.229062	0.304918	0.333148
	N2084	N	0.130254	0.363854	0.451783
	N2085	N	0.192775	0.301329	0.451043
	N2086	N	0.182290	0.323514	0.048229
	N2087	N	0.244830	0.261122	0.048434
	N2088	N	0.182314	0.323562	0.451483
	N2089	N	0.244775	0.260967	0.450957
	N2090	N	0.130238	0.363762	0.047825
	N2091	N	0.192756	0.301331	0.047998
	N2092	N	0.178372	0.305699	0.201057
	N2093	N	0.253509	0.293451	0.201055
	N2094	N	0.121682	0.331429	0.298872
	N2095	N	0.196784	0.319215	0.298710
	N2096	N	0.121674	0.331362	0.200839
	N2097	N	0.196758	0.319194	0.201212
	N2098	N	0.178373	0.305725	0.298437
	N2099	N	0.253496	0.293505	0.299105
	H2100	H	0.137429	0.356518	0.847930
	H2101	H	0.200007	0.294154	0.848153
	H2102	H	0.175084	0.330757	0.651559
	H2103	H	0.237626	0.268286	0.650626
	H2104	H	0.175230	0.330897	0.847931
	H2105	H	0.237729	0.268482	0.848693
	H2106	H	0.137363	0.356522	0.651322
	H2107	H	0.199953	0.294079	0.650635
	H2108	H	0.168968	0.306244	0.598599
	H2109	H	0.244237	0.295272	0.598432
	H2110	H	0.130866	0.329552	0.901493
	H2111	H	0.206104	0.318595	0.901389
	H2112	H	0.130877	0.329642	0.597561
	H2113	H	0.206090	0.318376	0.598110
	H2114	H	0.168959	0.306420	0.901984
	H2115	H	0.244172	0.295214	0.901507
	H2116	H	0.149758	0.347740	0.849097
	H2117	H	0.212260	0.285295	0.849996
	H2118	H	0.162851	0.339521	0.650706
	H2119	H	0.225417	0.277325	0.349293
	H2120	H	0.162827	0.339541	0.849688
	H2121	H	0.225354	0.277129	0.850378
	H2122	H	0.149813	0.347831	0.650149
	H2123	H	0.212302	0.285374	0.348679
	H2124	H	0.155956	0.312706	0.900424
	H2125	H	0.231746	0.303032	0.899826
	H2126	H	0.143376	0.321870	0.599198
	H2127	H	0.219091	0.312122	0.599466
	H2128	H	0.143329	0.321919	0.899794
	H2129	H	0.219137	0.312252	0.899488
	H2130	H	0.155944	0.312657	0.599611
	H2131	H	0.231758	0.302996	0.599237
	Co2132	Co	0.262652	0.299931	0.624951
	Co2133	Co	0.187546	0.312444	0.625370
	Co2134	Co	0.112476	0.324990	0.874126
	Co2135	Co	0.187537	0.312462	0.873915
	C2136	C	0.136380	0.357783	0.922260
	C2137	C	0.198951	0.295340	0.922476
	C2138	C	0.176158	0.329561	0.576928
	C2139	C	0.238681	0.267088	0.576228
	C2140	C	0.176245	0.329658	0.922673
	C2141	C	0.238727	0.267188	0.923078
	C2142	C	0.136354	0.357821	0.577381
	C2143	C	0.198900	0.295283	0.576446
	C2144	C	0.170486	0.306444	0.672797
	C2145	C	0.245769	0.295255	0.672417
	C2146	C	0.129364	0.329703	0.826975
	C2147	C	0.204623	0.318427	0.827035
	C2148	C	0.129373	0.329739	0.672209
	C2149	C	0.204619	0.318338	0.672663
	C2150	C	0.170480	0.306485	0.827531
	C2151	C	0.245740	0.295220	0.827083
	C2152	C	0.140668	0.353832	0.999083
	C2153	C	0.203195	0.291354	0.499150
	C2154	C	0.171877	0.333491	0.999681
	C2155	C	0.234374	0.270966	0.499166
	C2156	C	0.165246	0.307480	0.750219
	C2157	C	0.240673	0.296871	0.749651
	C2158	C	0.134453	0.328018	0.749579
	C2159	C	0.209830	0.317338	0.749697
	C2160	C	0.148453	0.348451	0.998982
	C2161	C	0.210973	0.285983	0.498975
	C2162	C	0.164094	0.338891	0.999675
	C2163	C	0.226596	0.276372	0.499379
	C2164	C	0.157155	0.311901	0.750203
	C2165	C	0.232803	0.301933	0.749357
	C2166	C	0.142291	0.322932	0.749668
	C2167	C	0.217938	0.312943	0.749445
	C2168	C	0.152536	0.346036	0.915933
	C2169	C	0.215063	0.283553	0.916772
	C2170	C	0.160086	0.341342	0.583738
	C2171	C	0.222575	0.278980	0.416147
	C2172	C	0.160052	0.341381	0.916435
	C2173	C	0.222582	0.278917	0.917137
	C2174	C	0.152599	0.346067	0.583225
	C2175	C	0.215045	0.283580	0.415772
	C2176	C	0.153291	0.314700	0.833579
	C2177	C	0.229032	0.304908	0.832868
	C2178	C	0.146063	0.319960	0.666123
	C2179	C	0.221810	0.310165	0.665939
	C2180	C	0.146071	0.319987	0.833181
	C2181	C	0.221830	0.310205	0.832886
	C2182	C	0.153292	0.314671	0.666576
	C2183	C	0.229034	0.304898	0.665979
	N2184	N	0.130252	0.363807	0.950909
	N2185	N	0.192797	0.301354	0.951277
	N2186	N	0.182296	0.323542	0.548235
	N2187	N	0.244754	0.260943	0.547585
	N2188	N	0.182352	0.323584	0.951706
	N2189	N	0.244844	0.261131	0.951505
	N2190	N	0.130204	0.363799	0.548315
	N2191	N	0.192791	0.301345	0.547694
	N2192	N	0.178356	0.305658	0.701187
	N2193	N	0.253495	0.293533	0.700736
	N2194	N	0.121639	0.331460	0.798547
	N2195	N	0.196731	0.319221	0.798538
	N2196	N	0.121648	0.331476	0.700636
	N2197	N	0.196751	0.319165	0.701075
	N2198	N	0.178347	0.305656	0.798866
	N2199	N	0.253488	0.293488	0.798826
	H2200	H	0.151715	0.409483	0.348948
	H2201	H	0.214365	0.347354	0.349170
	H2202	H	0.188514	0.382131	0.152074
	H2203	H	0.250950	0.319562	0.151408
	H2204	H	0.188483	0.382043	0.349181
	H2205	H	0.251075	0.319687	0.348400
	H2206	H	0.151791	0.409733	0.150495
	H2207	H	0.214330	0.347229	0.150320
	H2208	H	0.181719	0.357689	0.097478
	H2209	H	0.250960	0.420861	0.100508
	H2210	H	0.143591	0.380943	0.400425
	H2211	H	0.216030	0.380218	0.399917
	H2212	H	0.143572	0.380969	0.097664
	H2213	H	0.216167	0.379954	0.100200
	H2214	H	0.181736	0.357882	0.401079
	H2215	H	0.251095	0.420873	0.399597
	H2216	H	0.164241	0.401479	0.351230
	H2217	H	0.226804	0.338994	0.646836
	H2218	H	0.176952	0.392337	0.148509
	H2219	H	0.239422	0.329801	0.148578
	H2220	H	0.177080	0.392574	0.351568
	H2221	H	0.239538	0.329984	0.648121
	H2222	H	0.164224	0.401400	0.147787
	H2223	H	0.226649	0.338751	0.147958
	H2224	H	0.169247	0.365525	0.098953
	H2225	H	0.239871	0.407340	0.214887
	H2226	H	0.156560	0.374521	0.399680
	H2227	H	0.227569	0.393164	0.285757
	H2228	H	0.156592	0.374721	0.099264
	H2229	H	0.227663	0.393184	0.214382
	H2230	H	0.169191	0.365420	0.399642
	H2231	H	0.239778	0.407255	0.286133
	Co2232	Co	0.265369	0.440706	0.124899
	Co2233	Co	0.200111	0.362405	0.125632
	Co2234	Co	0.125055	0.374969	0.373735
	Co2235	Co	0.200078	0.362448	0.374488
	C2236	C	0.150494	0.410393	0.422119
	C2237	C	0.213129	0.348098	0.422804
	C2238	C	0.189405	0.380686	0.077526
	C2239	C	0.251909	0.318138	0.077477
	C2240	C	0.189379	0.380651	0.423309
	C2241	C	0.251991	0.318301	0.422671
	C2242	C	0.150593	0.410566	0.076610
	C2243	C	0.213095	0.348012	0.076423
	C2244	C	0.183223	0.357582	0.172038
	C2245	C	0.252164	0.422333	0.173709
	C2246	C	0.142107	0.380815	0.326473
	C2247	C	0.214834	0.378777	0.326774
	C2248	C	0.142095	0.380846	0.171860
	C2249	C	0.214904	0.378647	0.173293
	C2250	C	0.183225	0.357703	0.326768
	C2251	C	0.252219	0.422316	0.326529
	C2252	C	0.155084	0.407139	0.498935
	C2253	C	0.217632	0.344650	-0.000404
	C2254	C	0.185400	0.385154	0.500249
	C2255	C	0.247953	0.322609	0.000467
	C2256	C	0.178142	0.359335	0.249193
	C2257	C	0.247979	0.417059	0.250348
	C2258	C	0.147332	0.379816	0.248963
	C2259	C	0.219250	0.383658	0.249920
	C2260	C	0.162917	0.401994	0.499115
	C2261	C	0.225500	0.339523	-0.000308
	C2262	C	0.178071	0.391464	0.499735
	C2263	C	0.240640	0.328955	0.000441
	C2264	C	0.170257	0.364349	0.249139
	C2265	C	0.240808	0.408455	0.250333
	C2266	C	0.155421	0.375423	0.249138
	C2267	C	0.226574	0.392004	0.249842
	C2268	C	0.166948	0.399472	0.416857
	C2269	C	0.229553	0.337082	0.581446
	C2270	C	0.174247	0.394319	0.082876
	C2271	C	0.236734	0.331757	0.082728
	C2272	C	0.174278	0.394409	0.417069
	C2273	C	0.236859	0.331947	0.582329
	C2274	C	0.166950	0.399446	0.082142
	C2275	C	0.229413	0.336844	0.082353
	C2276	C	0.166496	0.367345	0.165661
	C2277	C	0.237194	0.404256	0.230401
	C2278	C	0.159252	0.372596	0.332744
	C2279	C	0.230221	0.396199	0.270226
	C2280	C	0.159297	0.372667	0.165848
	C2281	C	0.230271	0.396228	0.230235
	C2282	C	0.166459	0.367268	0.332607
	C2283	C	0.237150	0.404211	0.270144
	N2284	N	0.143839	0.415327	0.451043
	N2285	N	0.206444	0.352950	0.451393
	N2286	N	0.195007	0.373823	0.048517
	N2287	N	0.257513	0.311260	0.048752
	N2288	N	0.194981	0.373817	0.452129
	N2289	N	0.257573	0.311429	0.451581
	N2290	N	0.143896	0.415391	0.048028
	N2291	N	0.206402	0.352882	0.047980
	N2292	N	0.190958	0.355867	0.200566
	N2293	N	0.258299	0.430054	0.202317
	N2294	N	0.134237	0.381650	0.297986
	N2295	N	0.208397	0.371527	0.297791
	N2296	N	0.134234	0.381680	0.200382
	N2297	N	0.208442	0.371454	0.202356
	N2298	N	0.190955	0.355936	0.298691
	N2299	N	0.258337	0.430018	0.297425
	H2300	H	0.151871	0.409761	0.848992
	H2301	H	0.214169	0.346978	0.849061
	H2302	H	0.188464	0.382028	0.650733
	H2303	H	0.250950	0.319484	0.651183
	H2304	H	0.188399	0.381879	0.849219
	H2305	H	0.251027	0.319455	0.849345
	H2306	H	0.151861	0.409620	0.649233
	H2307	H	0.214280	0.347132	0.649784
	H2308	H	0.181638	0.357627	0.598007
	H2309	H	0.251084	0.420994	0.600344
	H2310	H	0.143573	0.381008	0.901610
	H2311	H	0.216182	0.379851	0.900311
	H2312	H	0.143583	0.381068	0.597702
	H2313	H	0.215972	0.380245	0.600964
	H2314	H	0.181652	0.357788	0.901580
	H2315	H	0.251083	0.420948	0.899132
	H2316	H	0.164354	0.401628	0.852049
	H2317	H	0.226780	0.338928	0.851527
	H2318	H	0.176871	0.392386	0.647803
	H2319	H	0.239569	0.330083	0.352605
	H2320	H	0.177084	0.392517	0.852552
	H2321	H	0.239581	0.330006	0.852107
	H2322	H	0.164072	0.401352	0.647243
	H2323	H	0.226838	0.339100	0.351410
	H2324	H	0.169101	0.365189	0.599929
	H2325	H	0.240136	0.406714	0.745898
	H2326	H	0.156598	0.374745	0.899563
	H2327	H	0.227372	0.393633	0.754237
	H2328	H	0.156471	0.374441	0.600006
	H2329	H	0.227893	0.392638	0.745886
	H2330	H	0.169225	0.365556	0.900443
	H2331	H	0.239591	0.407811	0.753762
	Co2332	Co	0.265418	0.440723	0.624868
	Co2333	Co	0.200079	0.362473	0.625325
	Co2334	Co	0.125039	0.374958	0.873568
	Co2335	Co	0.200096	0.362442	0.874788
	C2336	C	0.150626	0.410616	0.922827
	C2337	C	0.213009	0.347891	0.923032
	C2338	C	0.189361	0.380669	0.577182
	C2339	C	0.251928	0.318197	0.576873
	C2340	C	0.189404	0.380667	0.923537
	C2341	C	0.251905	0.318065	0.923672
	C2342	C	0.150560	0.410466	0.575966
	C2343	C	0.213075	0.348008	0.576277
	C2344	C	0.183154	0.357649	0.672295
	C2345	C	0.252191	0.422328	0.673345
	C2346	C	0.142064	0.380802	0.826846
	C2347	C	0.214910	0.378582	0.827118
	C2348	C	0.142074	0.380840	0.672232
	C2349	C	0.214794	0.378798	0.673919
	C2350	C	0.183163	0.357723	0.826888
	C2351	C	0.252216	0.422295	0.826173
	C2352	C	0.155186	0.407314	0.999737
	C2353	C	0.217700	0.344791	0.499550
	C2354	C	0.185453	0.385176	1.000581
	C2355	C	0.248008	0.322778	0.499903
	C2356	C	0.178103	0.359313	0.749624
	C2357	C	0.248017	0.417058	0.749831
	C2358	C	0.147285	0.379819	0.749593
	C2359	C	0.219243	0.383584	0.750496
	C2360	C	0.163027	0.402151	0.999865
	C2361	C	0.225564	0.339715	0.499245
	C2362	C	0.178120	0.391500	1.000656
	C2363	C	0.240708	0.329127	0.500152
	C2364	C	0.170210	0.364336	0.750053
	C2365	C	0.240816	0.408405	0.749920
	C2366	C	0.155388	0.375398	0.749802
	C2367	C	0.226609	0.391946	0.750060
	C2368	C	0.167011	0.399600	0.917680
	C2369	C	0.229499	0.336973	0.917284
	C2370	C	0.174150	0.394302	0.581974
	C2371	C	0.236828	0.332006	0.418046
	C2372	C	0.174311	0.394472	0.918092
	C2373	C	0.236815	0.331873	0.917884
	C2374	C	0.166829	0.399381	0.581598
	C2375	C	0.229514	0.337125	0.417107
	C2376	C	0.166386	0.367205	0.666626
	C2377	C	0.237328	0.403868	0.747778
	C2378	C	0.159279	0.372705	0.833207
	C2379	C	0.230123	0.396446	0.752243
	C2380	C	0.159207	0.372535	0.666500
	C2381	C	0.230417	0.395872	0.747845
	C2382	C	0.166473	0.367386	0.833626
	C2383	C	0.237048	0.404414	0.752083
	N2384	N	0.143925	0.415457	0.951476
	N2385	N	0.206358	0.352816	0.951726
	N2386	N	0.194939	0.373817	0.548144
	N2387	N	0.257504	0.311335	0.547707
	N2388	N	0.194990	0.373797	0.952619
	N2389	N	0.257511	0.311234	0.952632
	N2390	N	0.143870	0.415335	0.547343
	N2391	N	0.206404	0.352881	0.547991
	N2392	N	0.190912	0.355947	0.700690
	N2393	N	0.258356	0.430027	0.702311
	N2394	N	0.134212	0.381699	0.798254
	N2395	N	0.208403	0.371450	0.797902
	N2396	N	0.134215	0.381729	0.700773
	N2397	N	0.208338	0.371594	0.702671
	N2398	N	0.190913	0.355998	0.798731
	N2399	N	0.258361	0.430041	0.797068
	H2400	H	0.154839	0.550624	0.350576
	H2401	H	0.217530	0.488350	0.350607
	H2402	H	0.188597	0.518627	0.148834
	H2403	H	0.250904	0.455771	0.148282
	H2404	H	0.188456	0.518226	0.350721
	H2405	H	0.251091	0.456009	0.351387
	H2406	H	0.154745	0.550616	0.148083
	H2407	H	0.217137	0.487736	0.147526
	H2408	H	0.188422	0.483613	0.099936
	H2409	H	0.245735	0.572826	0.100549
	H2410	H	0.153435	0.442714	0.398497
	H2411	H	0.216299	0.524277	0.398052
	H2412	H	0.153489	0.442609	0.099765
	H2413	H	0.216177	0.524580	0.100072
	H2414	H	0.188561	0.483339	0.398637
	H2415	H	0.245988	0.572411	0.398022
	H2416	H	0.164980	0.538725	0.413781
	H2417	H	0.228182	0.477299	0.577979
	H2418	H	0.178162	0.530086	0.048458
	H2419	H	0.240000	0.466302	-0.012300
	H2420	H	0.176844	0.527538	0.413977
	H2421	H	0.240049	0.466172	0.578149
	H2422	H	0.166375	0.541345	0.049138
	H2423	H	0.228161	0.477470	-0.012761
	H2424	H	0.177348	0.469496	0.329267
	H2425	H	0.235606	0.557495	0.150724
	H2426	H	0.164936	0.456035	0.169725
	H2427	H	0.226435	0.539599	0.347801
	H2428	H	0.165241	0.455271	0.328610
	H2429	H	0.225327	0.540709	0.150515
	H2430	H	0.177190	0.470133	0.169441
	H2431	H	0.236789	0.556330	0.347474
	Co2432	Co	0.258753	0.594267	0.124739
	Co2433	Co	0.202954	0.503206	0.124271
	Co2434	Co	0.137612	0.424946	0.373615
	Co2435	Co	0.202892	0.503216	0.373387
	C2436	C	0.153701	0.551762	0.422968
	C2437	C	0.216240	0.489305	0.423529
	C2438	C	0.189714	0.517444	0.075929
	C2439	C	0.252055	0.454716	0.075613
	C2440	C	0.189606	0.517325	0.423435
	C2441	C	0.252165	0.454869	0.424187
	C2442	C	0.153687	0.551812	0.075743
	C2443	C	0.216098	0.489042	0.075208
	C2444	C	0.189629	0.484937	0.172789
	C2445	C	0.246795	0.574362	0.173268
	C2446	C	0.152283	0.441310	0.325718
	C2447	C	0.215212	0.522769	0.325556
	C2448	C	0.152325	0.441249	0.172598
	C2449	C	0.215138	0.522964	0.172795
	C2450	C	0.189698	0.484795	0.325747
	C2451	C	0.246930	0.574150	0.325605
	C2452	C	0.157750	0.547789	0.499148
	C2453	C	0.220285	0.485215	-0.000972
	C2454	C	0.185579	0.521440	0.499384
	C2455	C	0.248005	0.458807	-0.000880
	C2456	C	0.185479	0.479589	0.249245
	C2457	C	0.243245	0.568285	0.249260
	C2458	C	0.156727	0.446162	0.249264
	C2459	C	0.218821	0.528812	0.249372
	C2460	C	0.164796	0.541082	0.499426
	C2461	C	0.227289	0.478474	-0.001239
	C2462	C	0.178517	0.528136	0.499659
	C2463	C	0.240978	0.465493	-0.000958
	C2464	C	0.178300	0.470982	0.249079
	C2465	C	0.237078	0.558270	0.248967
	C2466	C	0.164074	0.454487	0.249214
	C2467	C	0.225027	0.538752	0.249382
	C2468	C	0.167903	0.536930	0.451395
	C2469	C	0.230770	0.475004	0.544066
	C2470	C	0.175400	0.532098	0.027243
	C2471	C	0.237434	0.468746	-0.007573
	C2472	C	0.174563	0.530616	0.451731
	C2473	C	0.237465	0.468708	0.544262
	C2474	C	0.168705	0.538421	0.027469
	C2475	C	0.230785	0.475103	-0.007738
	C2476	C	0.174720	0.466513	0.293624
	C2477	C	0.233652	0.553579	0.193824
	C2478	C	0.167674	0.458896	0.204503
	C2479	C	0.228441	0.543452	0.304479
	C2480	C	0.167792	0.458516	0.293988
	C2481	C	0.227806	0.544093	0.194028
	C2482	C	0.174581	0.466929	0.204585
	C2483	C	0.234293	0.552943	0.304348
	N2484	N	0.147635	0.557786	0.451354
	N2485	N	0.210140	0.495221	0.451658
	N2486	N	0.195752	0.511461	0.046746
	N2487	N	0.258137	0.448779	0.046970
	N2488	N	0.195743	0.511433	0.451976
	N2489	N	0.258230	0.448913	0.452907
	N2490	N	0.147647	0.557746	0.046560
	N2491	N	0.210052	0.495085	0.046229
	N2492	N	0.195789	0.492616	0.201568
	N2493	N	0.252150	0.583110	0.202431
	N2494	N	0.145847	0.434099	0.296457
	N2495	N	0.209764	0.514130	0.296167
	N2496	N	0.145875	0.434072	0.201524
	N2497	N	0.209745	0.514224	0.201361
	N2498	N	0.195833	0.492527	0.296786
	N2499	N	0.252233	0.582977	0.296963
	H2500	H	0.155030	0.550937	0.850570
	H2501	H	0.217446	0.488351	0.850797
	H2502	H	0.188706	0.518612	0.647574
	H2503	H	0.251094	0.455992	0.648873
	H2504	H	0.188574	0.518519	0.850816
	H2505	H	0.250979	0.455681	0.850612
	H2506	H	0.154776	0.550836	0.647364
	H2507	H	0.217059	0.487847	0.648329
	H2508	H	0.188535	0.483441	0.600849
	H2509	H	0.245917	0.572726	0.600486
	H2510	H	0.153529	0.442468	0.900606
	H2511	H	0.216186	0.524589	0.897863
	H2512	H	0.153694	0.442505	0.600592
	H2513	H	0.216168	0.524630	0.600036
	H2514	H	0.188572	0.483648	0.899306
	H2515	H	0.246025	0.572611	0.899038
	H2516	H	0.165278	0.539196	0.950748
	H2517	H	0.228351	0.477701	1.010897
	H2518	H	0.178310	0.530445	0.585255
	H2519	H	0.240087	0.466651	0.423193
	H2520	H	0.177137	0.528070	0.951208
	H2521	H	0.240150	0.466483	1.011363
	H2522	H	0.166505	0.541662	0.584844
	H2523	H	0.228240	0.477798	0.422078
	H2524	H	0.176841	0.470605	0.714334
	H2525	H	0.236110	0.557140	0.666237
	H2526	H	0.165681	0.454840	0.787752
	H2527	H	0.226187	0.539963	0.832875
	H2528	H	0.164686	0.456310	0.714414
	H2529	H	0.225718	0.540535	0.665706
	H2530	H	0.177845	0.469057	0.786636
	H2531	H	0.236569	0.556659	0.833018
	Co2532	Co	0.258789	0.594311	0.625333
	Co2533	Co	0.202922	0.503283	0.624409
	Co2534	Co	0.137596	0.424967	0.874344
	Co2535	Co	0.202926	0.503367	0.873644
	C2536	C	0.153841	0.551986	0.923150
	C2537	C	0.216259	0.489375	0.922797
	C2538	C	0.189745	0.517534	0.575209
	C2539	C	0.252173	0.454874	0.576318
	C2540	C	0.189684	0.517374	0.923443
	C2541	C	0.252116	0.454696	0.923028
	C2542	C	0.153671	0.551845	0.574801
	C2543	C	0.216037	0.489052	0.575787
	C2544	C	0.189692	0.484904	0.673621
	C2545	C	0.246885	0.574313	0.673437
	C2546	C	0.152372	0.441186	0.827169
	C2547	C	0.215188	0.522998	0.825126
	C2548	C	0.152451	0.441196	0.673896
	C2549	C	0.215150	0.523028	0.672720
	C2550	C	0.189717	0.484980	0.826301
	C2551	C	0.246966	0.574271	0.826135
	C2552	C	0.157918	0.547868	0.999620
	C2553	C	0.220238	0.485116	0.500103
	C2554	C	0.185555	0.521471	0.999744
	C2555	C	0.248020	0.458874	0.500480
	C2556	C	0.185512	0.479660	0.750289
	C2557	C	0.243311	0.568355	0.749922
	C2558	C	0.156815	0.446083	0.750812
	C2559	C	0.218831	0.528899	0.748867
	C2560	C	0.164904	0.541146	1.000099
	C2561	C	0.227273	0.478457	0.500368
	C2562	C	0.178590	0.528218	0.999864
	C2563	C	0.240996	0.465543	0.500756
	C2564	C	0.178328	0.471013	0.750670
	C2565	C	0.237157	0.558298	0.749580
	C2566	C	0.164173	0.454431	0.751054
	C2567	C	0.225072	0.538865	0.748907
	C2568	C	0.168102	0.537262	0.972537
	C2569	C	0.230868	0.475211	1.005644
	C2570	C	0.175404	0.532273	0.547619
	C2571	C	0.237519	0.469010	0.456900
	C2572	C	0.174796	0.530939	0.972459
	C2573	C	0.237519	0.468854	1.005863
	C2574	C	0.168737	0.538571	0.547644
	C2575	C	0.230816	0.475288	0.456609
	C2576	C	0.174430	0.467166	0.730307
	C2577	C	0.233944	0.553441	0.702597
	C2578	C	0.168104	0.458241	0.771543
	C2579	C	0.228313	0.543706	0.796308
	C2580	C	0.167560	0.459088	0.730677
	C2581	C	0.228081	0.544007	0.702130
	C2582	C	0.174978	0.466321	0.771208
	C2583	C	0.234189	0.553128	0.796414
	N2584	N	0.147737	0.557864	0.951858
	N2585	N	0.210144	0.495268	0.951278
	N2586	N	0.195817	0.511549	0.546312
	N2587	N	0.258238	0.448893	0.547296
	N2588	N	0.195737	0.511430	0.952372
	N2589	N	0.258168	0.448736	0.952381
	N2590	N	0.147632	0.557855	0.546019
	N2591	N	0.210010	0.495073	0.546529
	N2592	N	0.195799	0.492695	0.702013
	N2593	N	0.252226	0.583101	0.702312
	N2594	N	0.145895	0.434043	0.797520
	N2595	N	0.209726	0.514338	0.796428
	N2596	N	0.145934	0.434051	0.702270
	N2597	N	0.209713	0.514329	0.701399
	N2598	N	0.195818	0.492729	0.796852
	N2599	N	0.252282	0.583087	0.797155
	H2600	H	0.148448	0.704643	0.350345
	H2601	H	0.210831	0.641999	0.349305
	H2602	H	0.181824	0.671807	0.147475
	H2603	H	0.244064	0.608922	0.147787
	H2604	H	0.181617	0.671460	0.349525
	H2605	H	0.244078	0.608976	0.350136
	H2606	H	0.148462	0.704465	0.148229
	H2607	H	0.210650	0.641580	0.147887
	H2608	H	0.183283	0.635242	0.100205
	H2609	H	0.237437	0.728128	0.100067
	H2610	H	0.153703	0.587112	0.398501
	H2611	H	0.208695	0.678826	0.398277
	H2612	H	0.153716	0.587060	0.099158
	H2613	H	0.209118	0.678511	0.100252
	H2614	H	0.183506	0.635120	0.398184
	H2615	H	0.237384	0.728244	0.399170
	H2616	H	0.159176	0.693795	0.545876
	H2617	H	0.221906	0.631876	0.570335
	H2618	H	0.170668	0.682017	0.011905
	H2619	H	0.232702	0.618580	-0.017809
	H2620	H	0.170852	0.682346	0.546325
	H2621	H	0.233533	0.620335	0.570887
	H2622	H	0.159011	0.693430	0.011684
	H2623	H	0.221009	0.630010	-0.018180
	H2624	H	0.174333	0.618796	0.175991
	H2625	H	0.227921	0.712284	0.261166
	H2626	H	0.162812	0.603482	0.322767
	H2627	H	0.218288	0.694608	0.236791
	H2628	H	0.164037	0.601960	0.175268
	H2629	H	0.218056	0.695041	0.261668
	H2630	H	0.173114	0.620251	0.322939
	H2631	H	0.228260	0.711774	0.237359
	Co2632	Co	0.249895	0.750137	0.124295
	Co2633	Co	0.196287	0.656819	0.124161
	Co2634	Co	0.140433	0.565803	0.373470
	Co2635	Co	0.196286	0.656814	0.373276
	C2636	C	0.147304	0.705653	0.422983
	C2637	C	0.209766	0.643138	0.422018
	C2638	C	0.182883	0.670581	0.074944
	C2639	C	0.245252	0.607895	0.075447
	C2640	C	0.182739	0.670448	0.422509
	C2641	C	0.245209	0.607895	0.423197
	C2642	C	0.147310	0.705588	0.075509
	C2643	C	0.209616	0.642853	0.075172
	C2644	C	0.184309	0.636884	0.173107
	C2645	C	0.238350	0.729765	0.173094
	C2646	C	0.152707	0.585436	0.325431
	C2647	C	0.207842	0.677149	0.325357
	C2648	C	0.152722	0.585413	0.172395
	C2649	C	0.208052	0.676991	0.172946
	C2650	C	0.184404	0.636801	0.325372
	C2651	C	0.238338	0.729815	0.325922
	C2652	C	0.151305	0.701462	0.498713
	C2653	C	0.213771	0.638894	-0.001007
	C2654	C	0.178723	0.674593	0.498613
	C2655	C	0.241224	0.612017	-0.000601
	C2656	C	0.180741	0.630889	0.249273
	C2657	C	0.234842	0.723707	0.249478
	C2658	C	0.156422	0.591310	0.248972
	C2659	C	0.211443	0.683139	0.249129
	C2660	C	0.158259	0.694623	0.498245
	C2661	C	0.220709	0.632024	-0.000978
	C2662	C	0.171765	0.681407	0.498466
	C2663	C	0.234255	0.618842	-0.000687
	C2664	C	0.174562	0.620882	0.249545
	C2665	C	0.228896	0.713455	0.249367
	C2666	C	0.162590	0.601330	0.249056
	C2667	C	0.217372	0.693416	0.249289
	C2668	C	0.161725	0.691273	0.524865
	C2669	C	0.224335	0.629085	0.539022
	C2670	C	0.168225	0.684575	0.005852
	C2671	C	0.230435	0.621579	-0.010351
	C2672	C	0.168299	0.684826	0.524885
	C2673	C	0.230896	0.622588	0.539381
	C2674	C	0.161646	0.691071	0.005951
	C2675	C	0.223830	0.628012	-0.010412
	C2676	C	0.171812	0.615432	0.208136
	C2677	C	0.225860	0.708438	0.256019
	C2678	C	0.165315	0.606781	0.290464
	C2679	C	0.220411	0.698450	0.242420
	C2680	C	0.165983	0.605941	0.207759
	C2681	C	0.220256	0.698711	0.256168
	C2682	C	0.171139	0.616279	0.290678
	C2683	C	0.226002	0.708193	0.242573
	N2684	N	0.141280	0.711695	0.452060
	N2685	N	0.203735	0.649179	0.451151
	N2686	N	0.188879	0.664568	0.046061
	N2687	N	0.251331	0.601932	0.046525
	N2688	N	0.188777	0.664435	0.451261
	N2689	N	0.251245	0.601839	0.451992
	N2690	N	0.141255	0.711563	0.046669
	N2691	N	0.203619	0.648960	0.046344
	N2692	N	0.189622	0.645706	0.201680
	N2693	N	0.243483	0.738766	0.201904
	N2694	N	0.147292	0.576765	0.296512
	N2695	N	0.202700	0.668180	0.296435
	N2696	N	0.147290	0.576759	0.201457
	N2697	N	0.202821	0.668079	0.201507
	N2698	N	0.189674	0.645665	0.296367
	N2699	N	0.243479	0.738795	0.296823
	H2700	H	0.148404	0.704410	0.850130
	H2701	H	0.210865	0.642032	0.850237
	H2702	H	0.181840	0.671919	0.647287
	H2703	H	0.244175	0.609137	0.648832
	H2704	H	0.181524	0.671334	0.850255
	H2705	H	0.244167	0.609021	0.851268
	H2706	H	0.148218	0.704261	0.647674
	H2707	H	0.210955	0.642241	0.647446
	H2708	H	0.183179	0.635467	0.599322
	H2709	H	0.237359	0.728198	0.600092
	H2710	H	0.153600	0.587070	0.897354
	H2711	H	0.208847	0.678627	0.898822
	H2712	H	0.153630	0.587049	0.600479
	H2713	H	0.208979	0.678720	0.599803
	H2714	H	0.183604	0.635004	0.898278
	H2715	H	0.237393	0.728244	0.898292
	H2716	H	0.159453	0.694147	0.986289
	H2717	H	0.222256	0.632277	1.016271
	H2718	H	0.170847	0.682237	0.450388
	H2719	H	0.233002	0.619137	0.426789
	H2720	H	0.171127	0.682641	0.986095
	H2721	H	0.233985	0.620853	1.016070
	H2722	H	0.159146	0.693647	0.450335
	H2723	H	0.221391	0.630705	0.425872
	H2724	H	0.173769	0.619347	0.719909
	H2725	H	0.228216	0.711947	0.742863
	H2726	H	0.163400	0.602745	0.776654
	H2727	H	0.218094	0.694920	0.756244
	H2728	H	0.163433	0.602616	0.719741
	H2729	H	0.218310	0.694748	0.742939
	H2730	H	0.173736	0.619507	0.777512
	H2731	H	0.228012	0.712136	0.756438
	Co2732	Co	0.249937	0.750144	0.623913
	Co2733	Co	0.196289	0.656870	0.623869
	Co2734	Co	0.140457	0.565771	0.873511
	Co2735	Co	0.196278	0.656744	0.873260
	C2736	C	0.147285	0.705539	0.922865
	C2737	C	0.209729	0.643065	0.922843
	C2738	C	0.182857	0.670674	0.574699
	C2739	C	0.245245	0.607941	0.575798
	C2740	C	0.182727	0.670320	0.922517
	C2741	C	0.245300	0.607925	0.923459
	C2742	C	0.147180	0.705407	0.574879
	C2743	C	0.209842	0.643263	0.574732
	C2744	C	0.184256	0.636910	0.672485
	C2745	C	0.238308	0.729854	0.673041
	C2746	C	0.152648	0.585435	0.824848
	C2747	C	0.207929	0.677023	0.825698
	C2748	C	0.152673	0.585416	0.672676
	C2749	C	0.208004	0.677064	0.672999
	C2750	C	0.184462	0.636685	0.825095
	C2751	C	0.238329	0.729868	0.825583
	C2752	C	0.151395	0.701487	0.999196
	C2753	C	0.213843	0.639128	0.498290
	C2754	C	0.178686	0.674535	0.998636
	C2755	C	0.241152	0.611923	0.499554
	C2756	C	0.180750	0.630838	0.748897
	C2757	C	0.234825	0.723763	0.749591
	C2758	C	0.156372	0.591272	0.748719
	C2759	C	0.211498	0.683134	0.749739
	C2760	C	0.158296	0.694655	0.998897
	C2761	C	0.220743	0.632194	0.498155
	C2762	C	0.171798	0.681380	0.998493
	C2763	C	0.234220	0.618827	0.499134
	C2764	C	0.174560	0.620818	0.748665
	C2765	C	0.228934	0.713483	0.749561
	C2766	C	0.162550	0.601294	0.748621
	C2767	C	0.217387	0.693425	0.749831
	C2768	C	0.161884	0.691457	0.991585
	C2769	C	0.224536	0.629288	1.008500
	C2770	C	0.168301	0.684766	0.471481
	C2771	C	0.230616	0.621923	0.458311
	C2772	C	0.168489	0.684970	0.991331
	C2773	C	0.231126	0.622835	1.008529
	C2774	C	0.161714	0.691199	0.471570
	C2775	C	0.224054	0.628417	0.457659
	C2776	C	0.171485	0.615734	0.732398
	C2777	C	0.226030	0.708271	0.745946
	C2778	C	0.165644	0.606368	0.764501
	C2779	C	0.220292	0.698611	0.753728
	C2780	C	0.165653	0.606260	0.732521
	C2781	C	0.220423	0.698529	0.746089
	C2782	C	0.171477	0.615852	0.764644
	C2783	C	0.225910	0.708349	0.753676
	N2784	N	0.141254	0.711555	0.951881
	N2785	N	0.203687	0.649084	0.951748
	N2786	N	0.188847	0.664566	0.545981
	N2787	N	0.251272	0.601882	0.547156
	N2788	N	0.188778	0.664387	0.951369
	N2789	N	0.251345	0.601915	0.952312
	N2790	N	0.141206	0.711543	0.546487
	N2791	N	0.203788	0.649273	0.546038
	N2792	N	0.189653	0.645633	0.701111
	N2793	N	0.243445	0.738849	0.701559
	N2794	N	0.147224	0.576744	0.796107
	N2795	N	0.202770	0.668096	0.796410
	N2796	N	0.147232	0.576757	0.701270
	N2797	N	0.202822	0.668133	0.701356
	N2798	N	0.189785	0.645506	0.795938
	N2799	N	0.243486	0.738825	0.796560
	H2800	H	0.139681	0.860488	0.352210
	H2801	H	0.201899	0.797568	0.350287
	H2802	H	0.172922	0.827423	0.150119
	H2803	H	0.235311	0.765113	0.147694
	H2804	H	0.172763	0.827369	0.351271
	H2805	H	0.235382	0.764937	0.350674
	H2806	H	0.139608	0.860692	0.149511
	H2807	H	0.202203	0.798041	0.146898
	H2808	H	0.174923	0.790516	0.100458
	H2809	H	0.228637	0.883826	0.100141
	H2810	H	0.146232	0.741185	0.398973
	H2811	H	0.199802	0.834701	0.399076
	H2812	H	0.146406	0.741095	0.100355
	H2813	H	0.200096	0.834523	0.100635
	H2814	H	0.174857	0.790611	0.398748
	H2815	H	0.228305	0.884025	0.399114
	H2816	H	0.150155	0.849269	0.469199
	H2817	H	0.212874	0.786990	0.497280
	H2818	H	0.162340	0.838719	-0.067819
	H2819	H	0.224962	0.776632	-0.049560
	H2820	H	0.161834	0.837826	0.469427
	H2821	H	0.224567	0.775596	0.496920
	H2822	H	0.150755	0.850375	-0.068401
	H2823	H	0.213300	0.788076	-0.049370
	H2824	H	0.165261	0.774763	0.246630
	H2825	H	0.220229	0.866842	0.307603
	H2826	H	0.156024	0.756924	0.253963
	H2827	H	0.208151	0.851725	0.191538
	H2828	H	0.155305	0.757622	0.246252
	H2829	H	0.210275	0.849713	0.307949
	H2830	H	0.165939	0.774125	0.253872
	H2831	H	0.218038	0.868882	0.191280
	Co2832	Co	0.241185	0.905888	0.125441
	Co2833	Co	0.187447	0.812564	0.124400
	Co2834	Co	0.133785	0.719248	0.374043
	Co2835	Co	0.187408	0.812625	0.374060
	C2836	C	0.138490	0.861513	0.424442
	C2837	C	0.200848	0.798814	0.423046
	C2838	C	0.173955	0.826342	0.076810
	C2839	C	0.236441	0.763894	0.075453
	C2840	C	0.173950	0.826270	0.424165
	C2841	C	0.236450	0.763847	0.423321
	C2842	C	0.138492	0.861680	0.076677
	C2843	C	0.201011	0.799119	0.075003
	C2844	C	0.175834	0.792228	0.173283
	C2845	C	0.229527	0.885572	0.173013
	C2846	C	0.145337	0.739558	0.325851
	C2847	C	0.198920	0.832973	0.326189
	C2848	C	0.145418	0.739499	0.173086
	C2849	C	0.199087	0.832862	0.173484
	C2850	C	0.175788	0.792289	0.325839
	C2851	C	0.229359	0.885689	0.326216
	C2852	C	0.142524	0.857361	0.500433
	C2853	C	0.205020	0.794920	-0.000913
	C2854	C	0.169912	0.830441	0.500139
	C2855	C	0.232308	0.767828	-0.000799
	C2856	C	0.172319	0.786148	0.249692
	C2857	C	0.225890	0.879562	0.249648
	C2858	C	0.148886	0.745641	0.249650
	C2859	C	0.202514	0.839027	0.249850
	C2860	C	0.149477	0.850569	0.500172
	C2861	C	0.211915	0.788034	-0.000819
	C2862	C	0.162989	0.837291	0.500140
	C2863	C	0.225411	0.774699	-0.000808
	C2864	C	0.166394	0.775868	0.249841
	C2865	C	0.219982	0.869306	0.249659
	C2866	C	0.154834	0.755873	0.249945
	C2867	C	0.208427	0.849288	0.249831
	C2868	C	0.152810	0.846944	0.482710
	C2869	C	0.215398	0.784582	0.497961
	C2870	C	0.159647	0.841018	-0.037701
	C2871	C	0.222182	0.778613	-0.028162
	C2872	C	0.159406	0.840465	0.482770
	C2873	C	0.221982	0.778129	0.497920
	C2874	C	0.153110	0.847566	-0.037980
	C2875	C	0.215631	0.785167	-0.028212
	C2876	C	0.163243	0.770900	0.247872
	C2877	C	0.217591	0.863611	0.282081
	C2878	C	0.158001	0.760806	0.252202
	C2879	C	0.210787	0.855005	0.217046
	C2880	C	0.157624	0.761186	0.248054
	C2881	C	0.211979	0.853861	0.282286
	C2882	C	0.163624	0.770523	0.252247
	C2883	C	0.216414	0.864731	0.217158
	N2884	N	0.132407	0.867488	0.453205
	N2885	N	0.194875	0.804957	0.451745
	N2886	N	0.179966	0.820309	0.047310
	N2887	N	0.242474	0.757883	0.046612
	N2888	N	0.179943	0.820171	0.452787
	N2889	N	0.242484	0.757808	0.451945
	N2890	N	0.132452	0.867657	0.047495
	N2891	N	0.194987	0.805136	0.046326
	N2892	N	0.180936	0.801246	0.201925
	N2893	N	0.234692	0.894505	0.202173
	N2894	N	0.140188	0.730595	0.296763
	N2895	N	0.193825	0.823985	0.296913
	N2896	N	0.140242	0.730550	0.201948
	N2897	N	0.193920	0.823902	0.202100
	N2898	N	0.180905	0.801293	0.296776
	N2899	N	0.234595	0.894580	0.297471
	H2900	H	0.139573	0.860449	0.851270
	H2901	H	0.201924	0.797656	0.850985
	H2902	H	0.172872	0.827502	0.648733
	H2903	H	0.235349	0.764911	0.647988
	H2904	H	0.172639	0.827198	0.851572
	H2905	H	0.235302	0.764769	0.850514
	H2906	H	0.139441	0.860177	0.648979
	H2907	H	0.202089	0.797963	0.648036
	H2908	H	0.174950	0.790634	0.600108
	H2909	H	0.228672	0.883857	0.599665
	H2910	H	0.146387	0.741245	0.898305
	H2911	H	0.199991	0.834567	0.899251
	H2912	H	0.146446	0.741218	0.600001
	H2913	H	0.200109	0.834445	0.600246
	H2914	H	0.174942	0.790631	0.898083
	H2915	H	0.228428	0.883991	0.899373
	H2916	H	0.150003	0.849047	1.070636
	H2917	H	0.212419	0.786177	1.047958
	H2918	H	0.162267	0.838558	0.530991
	H2919	H	0.224522	0.775760	0.500486
	H2920	H	0.161592	0.837391	1.071304
	H2921	H	0.224019	0.774599	1.048173
	H2922	H	0.150633	0.850044	0.530687
	H2923	H	0.212876	0.787242	0.500137
	H2924	H	0.165142	0.775012	0.718049
	H2925	H	0.218712	0.868319	0.717878
	H2926	H	0.156204	0.756837	0.780913
	H2927	H	0.209884	0.850113	0.781468
	H2928	H	0.155263	0.757793	0.718525
	H2929	H	0.208781	0.851162	0.718153
	H2930	H	0.166134	0.773977	0.781172
	H2931	H	0.219790	0.867338	0.780947
	Co2932	Co	0.241215	0.905894	0.625557
	Co2933	Co	0.187518	0.812654	0.625072
	Co2934	Co	0.133834	0.719255	0.873904
	Co2935	Co	0.187381	0.812638	0.874247
	C2936	C	0.138471	0.861531	0.924302
	C2937	C	0.200867	0.798908	0.923144
	C2938	C	0.174006	0.826313	0.576179
	C2939	C	0.236424	0.763825	0.575218
	C2940	C	0.173818	0.826212	0.924347
	C2941	C	0.236400	0.763712	0.923077
	C2942	C	0.138357	0.861338	0.576580
	C2943	C	0.200962	0.799022	0.575144
	C2944	C	0.175902	0.792317	0.672959
	C2945	C	0.229587	0.885517	0.672834
	C2946	C	0.145455	0.739568	0.825779
	C2947	C	0.199084	0.832924	0.826161
	C2948	C	0.145496	0.739560	0.673143
	C2949	C	0.199149	0.832859	0.673262
	C2950	C	0.175891	0.792332	0.825477
	C2951	C	0.229461	0.885585	0.825966
	C2952	C	0.142550	0.857506	1.000801
	C2953	C	0.204988	0.794859	0.499157
	C2954	C	0.169820	0.830354	1.001017
	C2955	C	0.232369	0.767863	0.499140
	C2956	C	0.172380	0.786225	0.749129
	C2957	C	0.226039	0.879472	0.749380
	C2958	C	0.148960	0.745701	0.749512
	C2959	C	0.202614	0.838986	0.749641
	C2960	C	0.149466	0.850627	1.001078
	C2961	C	0.211934	0.788013	0.498957
	C2962	C	0.162872	0.837198	1.001341
	C2963	C	0.225435	0.774733	0.499200
	C2964	C	0.166466	0.775957	0.749353
	C2965	C	0.220084	0.869247	0.749711
	C2966	C	0.154876	0.755960	0.749428
	C2967	C	0.208521	0.849271	0.749572
	C2968	C	0.152701	0.846810	1.040286
	C2969	C	0.215127	0.784090	1.026702
	C2970	C	0.159653	0.840899	0.517555
	C2971	C	0.221973	0.778222	0.499931
	C2972	C	0.159240	0.840266	1.040479
	C2973	C	0.221697	0.777564	1.026912
	C2974	C	0.153064	0.847389	0.517414
	C2975	C	0.215403	0.784702	0.499797
	C2976	C	0.163224	0.771103	0.731837
	C2977	C	0.216792	0.864414	0.731971
	C2978	C	0.158158	0.760781	0.767059
	C2979	C	0.211777	0.854107	0.767370
	C2980	C	0.157599	0.761363	0.732022
	C2981	C	0.211192	0.854685	0.731736
	C2982	C	0.163781	0.770510	0.767296
	C2983	C	0.217400	0.863811	0.767511
	N2984	N	0.132434	0.867559	0.952850
	N2985	N	0.194888	0.805008	0.951911
	N2986	N	0.179978	0.820221	0.547430
	N2987	N	0.242474	0.757816	0.546466
	N2988	N	0.179893	0.820224	0.952650
	N2989	N	0.242463	0.757783	0.952129
	N2990	N	0.132329	0.867358	0.547652
	N2991	N	0.194945	0.805074	0.546207
	N2992	N	0.181058	0.801267	0.701795
	N2993	N	0.234706	0.894516	0.701899
	N2994	N	0.140356	0.730564	0.796852
	N2995	N	0.193924	0.823983	0.797378
	N2996	N	0.140398	0.730550	0.701872
	N2997	N	0.193989	0.823922	0.702374
	N2998	N	0.181045	0.801272	0.796714
	N2999	N	0.234633	0.894544	0.797216
	H3000	H	0.130784	1.016025	0.353300
	H3001	H	0.193415	0.953656	0.351979
	H3002	H	0.164130	0.983244	0.149659
	H3003	H	0.226636	0.920737	0.148833
	H3004	H	0.163928	0.982856	0.351747
	H3005	H	0.226514	0.920431	0.351967
	H3006	H	0.130762	1.016157	0.150840
	H3007	H	0.193297	0.953666	0.148621
	H3008	H	0.166224	0.946391	0.101925
	H3009	H	0.221452	1.037862	0.101789
	H3010	H	0.137439	0.897157	0.399382
	H3011	H	0.191716	0.989732	0.400340
	H3012	H	0.137554	0.897007	0.101055
	H3013	H	0.191491	0.990016	0.102669
	H3014	H	0.165995	0.946566	0.400039
	H3015	H	0.221310	1.038038	0.400724
	H3016	H	0.141873	1.005896	0.516583
	H3017	H	0.203961	0.942681	0.480707
	H3018	H	0.154359	0.995820	0.032900
	H3019	H	0.216192	0.932077	0.039679
	H3020	H	0.153484	0.994365	0.516656
	H3021	H	0.215620	0.931219	0.480368
	H3022	H	0.142748	1.007361	0.033024
	H3023	H	0.204568	0.943666	0.039238
	H3024	H	0.157006	0.930118	0.306318
	H3025	H	0.212021	1.021895	0.278092
	H3026	H	0.146536	0.913538	0.193704
	H3027	H	0.200691	1.006197	0.224106
	H3028	H	0.147093	0.912950	0.307291
	H3029	H	0.201679	1.005192	0.278400
	H3030	H	0.156481	0.930646	0.194399
	H3031	H	0.211056	1.022866	0.223505
	Co3032	Co	0.234604	1.059103	0.126015
	Co3033	Co	0.178669	0.968370	0.126314
	Co3034	Co	0.124924	0.875124	0.374708
	Co3035	Co	0.178671	0.968342	0.375884
	C3036	C	0.129650	1.017206	0.425313
	C3037	C	0.192189	0.954729	0.424516
	C3038	C	0.165216	0.982113	0.076982
	C3039	C	0.227711	0.919556	0.076380
	C3040	C	0.165092	0.981868	0.424461
	C3041	C	0.227654	0.919390	0.424698
	C3042	C	0.129663	1.017223	0.078427
	C3043	C	0.192168	0.954707	0.076639
	C3044	C	0.167102	0.948098	0.174603
	C3045	C	0.222407	1.039518	0.174765
	C3046	C	0.136505	0.895487	0.326822
	C3047	C	0.190677	0.988241	0.327586
	C3048	C	0.136562	0.895416	0.174134
	C3049	C	0.190564	0.988374	0.175271
	C3050	C	0.166976	0.948139	0.327198
	C3051	C	0.222325	1.039621	0.327704
	C3052	C	0.133796	1.013224	0.501246
	C3053	C	0.196197	0.950557	0.000772
	C3054	C	0.161063	0.986077	0.500803
	C3055	C	0.223573	0.923575	0.000738
	C3056	C	0.163479	0.942037	0.250675
	C3057	C	0.218650	1.033671	0.251089
	C3058	C	0.140057	0.901568	0.250498
	C3059	C	0.194239	0.994251	0.251381
	C3060	C	0.140707	1.006352	0.500841
	C3061	C	0.203149	0.943731	0.000811
	C3062	C	0.154163	0.992968	0.500820
	C3063	C	0.216622	0.930408	0.000841
	C3064	C	0.157554	0.931795	0.250219
	C3065	C	0.212417	1.023759	0.250942
	C3066	C	0.146004	0.911794	0.250438
	C3067	C	0.200389	1.004287	0.251412
	C3068	C	0.144274	1.003190	0.509620
	C3069	C	0.206547	0.940280	0.489709
	C3070	C	0.151328	0.997480	0.018937
	C3071	C	0.213440	0.934249	0.022764
	C3072	C	0.150831	0.996655	0.509427
	C3073	C	0.213124	0.933758	0.489391
	C3074	C	0.144754	1.003974	0.019271
	C3075	C	0.206885	0.940770	0.022723
	C3076	C	0.154742	0.926503	0.281785
	C3077	C	0.209577	1.018521	0.266330
	C3078	C	0.148829	0.917094	0.218856
	C3079	C	0.203201	1.009612	0.235888
	C3080	C	0.149107	0.916792	0.282250
	C3081	C	0.203742	1.009039	0.266468
	C3082	C	0.154447	0.926821	0.218818
	C3083	C	0.209045	1.019082	0.235693
	N3084	N	0.123590	1.023178	0.454242
	N3085	N	0.186121	0.960693	0.453450
	N3086	N	0.171239	0.976068	0.048164
	N3087	N	0.233737	0.913539	0.047381
	N3088	N	0.171136	0.975888	0.453535
	N3089	N	0.233689	0.913416	0.453421
	N3090	N	0.123605	1.023228	0.049591
	N3091	N	0.186131	0.960757	0.048006
	N3092	N	0.172236	0.957042	0.203843
	N3093	N	0.227816	1.048195	0.203748
	N3094	N	0.131343	0.886522	0.297972
	N3095	N	0.185293	0.979519	0.298687
	N3096	N	0.131397	0.886475	0.203104
	N3097	N	0.185216	0.979577	0.203888
	N3098	N	0.172177	0.957047	0.298550
	N3099	N	0.227774	1.048248	0.298744
	H3100	H	0.130779	1.016179	0.853635
	H3101	H	0.193086	0.953385	0.852824
	H3102	H	0.164054	0.983111	0.649801
	H3103	H	0.226638	0.920706	0.649717
	H3104	H	0.164030	0.983071	0.852457
	H3105	H	0.226543	0.920689	0.851795
	H3106	H	0.130812	1.016108	0.649437
	H3107	H	0.193247	0.953403	0.649094
	H3108	H	0.165868	0.946569	0.601384
	H3109	H	0.221449	1.037952	0.600964
	H3110	H	0.137433	0.897106	0.899127
	H3111	H	0.191566	0.989901	0.900200
	H3112	H	0.137457	0.896888	0.600163
	H3113	H	0.191587	0.989761	0.602017
	H3114	H	0.166024	0.946317	0.899701
	H3115	H	0.221149	1.038165	0.899442
	H3116	H	0.140495	1.003449	0.970063
	H3117	H	0.203545	0.942004	0.962773
	H3118	H	0.153071	0.993449	0.485705
	H3119	H	0.215853	0.931334	0.520968
	H3120	H	0.152143	0.991920	0.969303
	H3121	H	0.215215	0.930587	0.962483
	H3122	H	0.141475	1.004975	0.485038
	H3123	H	0.204229	0.942870	0.521061
	H3124	H	0.156361	0.930585	0.735733
	H3125	H	0.211761	1.022203	0.691260
	H3126	H	0.146879	0.912969	0.762552
	H3127	H	0.201054	1.005802	0.809449
	H3128	H	0.146460	0.913383	0.734626
	H3129	H	0.201419	1.005443	0.691463
	H3130	H	0.156861	0.930096	0.763474
	H3131	H	0.211391	1.022515	0.809557
	Co3132	Co	0.234603	1.059131	0.625644
	Co3133	Co	0.178635	0.968261	0.626422
	Co3134	Co	0.124895	0.875106	0.874729
	Co3135	Co	0.178644	0.968285	0.875789
	C3136	C	0.129652	1.017206	0.925832
	C3137	C	0.192079	0.954575	0.925021
	C3138	C	0.165161	0.982006	0.577188
	C3139	C	0.227708	0.919533	0.576961
	C3140	C	0.165181	0.982006	0.924681
	C3141	C	0.227659	0.919556	0.924457
	C3142	C	0.129675	1.017226	0.577367
	C3143	C	0.192109	0.954596	0.576664
	C3144	C	0.166877	0.948140	0.674448
	C3145	C	0.222395	1.039553	0.674000
	C3146	C	0.136479	0.895403	0.826161
	C3147	C	0.190585	0.988285	0.827496
	C3148	C	0.136504	0.895311	0.673243
	C3149	C	0.190570	0.988212	0.674844
	C3150	C	0.166962	0.948007	0.826905
	C3151	C	0.222263	1.039649	0.826684
	C3152	C	0.133735	1.013127	1.002128
	C3153	C	0.196268	0.950634	0.500372
	C3154	C	0.161097	0.986116	1.000824
	C3155	C	0.223576	0.923580	0.500690
	C3156	C	0.163391	0.942004	0.750400
	C3157	C	0.218629	1.033669	0.750268
	C3158	C	0.139977	0.901471	0.749536
	C3159	C	0.194230	0.994218	0.751013
	C3160	C	0.140673	1.006307	1.001688
	C3161	C	0.203183	0.943786	0.500875
	C3162	C	0.154155	0.992963	1.001223
	C3163	C	0.216655	0.930405	0.500717
	C3164	C	0.157445	0.931743	0.749969
	C3165	C	0.212408	1.023734	0.750130
	C3166	C	0.145868	0.911778	0.749120
	C3167	C	0.200405	1.004228	0.750512
	C3168	C	0.143523	1.001840	0.983706
	C3169	C	0.206329	0.939881	0.979186
	C3170	C	0.150628	0.996143	0.492112
	C3171	C	0.213283	0.933855	0.512167
	C3172	C	0.150073	0.995292	0.983767
	C3173	C	0.212896	0.933385	0.979159
	C3174	C	0.144053	1.002654	0.492094
	C3175	C	0.206700	0.940355	0.512046
	C3176	C	0.154343	0.926736	0.741603
	C3177	C	0.209434	1.018635	0.716869
	C3178	C	0.148966	0.916770	0.756937
	C3179	C	0.203383	1.009348	0.783428
	C3180	C	0.148691	0.917046	0.741175
	C3181	C	0.203593	1.009144	0.717294
	C3182	C	0.154579	0.926510	0.757586
	C3183	C	0.209209	1.018839	0.783418
	N3184	N	0.123612	1.023221	0.954873
	N3185	N	0.186079	0.960659	0.953795
	N3186	N	0.171175	0.975961	0.548361
	N3187	N	0.233718	0.913501	0.547940
	N3188	N	0.171227	0.976017	0.953411
	N3189	N	0.233694	0.913518	0.952667
	N3190	N	0.123608	1.023191	0.548924
	N3191	N	0.186071	0.960616	0.548223
	N3192	N	0.172079	0.957050	0.703489
	N3193	N	0.227811	1.048215	0.703065
	N3194	N	0.131339	0.886411	0.797449
	N3195	N	0.185230	0.979521	0.798831
	N3196	N	0.131358	0.886348	0.702312
	N3197	N	0.185216	0.979467	0.704080
	N3198	N	0.172151	0.956949	0.798533
	N3199	N	0.227724	1.048286	0.797733
	H3200	H	0.249014	0.180237	0.349408
	H3201	H	0.311593	0.117754	0.348629
	H3202	H	0.285623	0.152617	0.149810
	H3203	H	0.348260	0.090126	0.150220
	H3204	H	0.285778	0.152944	0.349606
	H3205	H	0.348320	0.090377	0.350170
	H3206	H	0.248945	0.180147	0.150877
	H3207	H	0.311494	0.117728	0.151102
	H3208	H	0.284016	0.119824	0.099093
	H3209	H	0.356453	0.118770	0.098434
	H3210	H	0.248902	0.079089	0.398988
	H3211	H	0.318367	0.142129	0.401367
	H3212	H	0.249088	0.078775	0.101096
	H3213	H	0.318423	0.142083	0.098052
	H3214	H	0.283926	0.120021	0.399313
	H3215	H	0.356590	0.119061	0.401937
	H3216	H	0.260540	0.169919	0.352540
	H3217	H	0.322929	0.107302	0.648383
	H3218	H	0.273437	0.161206	0.148116
	H3219	H	0.335888	0.098451	0.147991
	H3220	H	0.273359	0.161001	0.352695
	H3221	H	0.335737	0.098393	0.649392
	H3222	H	0.260661	0.170165	0.147631
	H3223	H	0.323069	0.107404	0.148199
	H3224	H	0.272063	0.107450	0.227031
	H3225	H	0.343609	0.125344	0.099537
	H3226	H	0.260625	0.091798	0.272323
	H3227	H	0.330829	0.134275	0.400707
	H3228	H	0.259944	0.093199	0.227296
	H3229	H	0.330936	0.134560	0.099678
	H3230	H	0.272781	0.106024	0.271762
	H3231	H	0.343456	0.125114	0.400377
	Co3232	Co	0.375036	0.124841	0.125731
	Co3233	Co	0.299969	0.137475	0.124735
	Co3234	Co	0.234618	0.059247	0.375070
	Co3235	Co	0.299973	0.137454	0.374235
	C3236	C	0.248168	0.181707	0.423445
	C3237	C	0.310661	0.119186	0.422712
	C3238	C	0.286936	0.151827	0.076251
	C3239	C	0.349503	0.089331	0.076497
	C3240	C	0.287005	0.151977	0.423481
	C3241	C	0.349515	0.089528	0.424298
	C3242	C	0.248068	0.181566	0.076591
	C3243	C	0.310635	0.119206	0.076842
	C3244	C	0.285175	0.121211	0.172363
	C3245	C	0.357995	0.118928	0.172759
	C3246	C	0.247811	0.077613	0.326244
	C3247	C	0.316868	0.142150	0.326974
	C3248	C	0.247915	0.077456	0.173717
	C3249	C	0.316875	0.142118	0.172559
	C3250	C	0.285131	0.121327	0.325961
	C3251	C	0.358036	0.119056	0.327715
	C3252	C	0.252094	0.177186	0.500516
	C3253	C	0.314635	0.114716	0.000168
	C3254	C	0.282438	0.155215	0.500419
	C3255	C	0.344936	0.092657	-0.000050
	C3256	C	0.280739	0.116372	0.249144
	C3257	C	0.352786	0.120041	0.250336
	C3258	C	0.252048	0.082772	0.249869
	C3259	C	0.321968	0.140506	0.249979
	C3260	C	0.259417	0.170887	0.500613
	C3261	C	0.321937	0.108360	0.000116
	C3262	C	0.274583	0.160387	0.500674
	C3263	C	0.337089	0.097814	-0.000031
	C3264	C	0.273434	0.107951	0.249122
	C3265	C	0.344705	0.124483	0.250183
	C3266	C	0.259255	0.091365	0.250027
	C3267	C	0.329849	0.135506	0.250073
	C3268	C	0.263295	0.168024	0.418206
	C3269	C	0.325732	0.105439	0.582797
	C3270	C	0.270656	0.163019	0.082232
	C3271	C	0.333149	0.100426	0.082392
	C3272	C	0.270615	0.162955	0.418221
	C3273	C	0.333048	0.100337	0.583486
	C3274	C	0.263358	0.168146	0.081923
	C3275	C	0.325835	0.105553	0.082370
	C3276	C	0.269592	0.104074	0.237092
	C3277	C	0.340885	0.127293	0.166332
	C3278	C	0.263089	0.095237	0.262317
	C3279	C	0.333591	0.132486	0.333682
	C3280	C	0.262720	0.095991	0.237323
	C3281	C	0.333667	0.132612	0.166525
	C3282	C	0.269976	0.103305	0.261768
	C3283	C	0.340813	0.127210	0.333683
	N3284	N	0.242611	0.188632	0.452186
	N3285	N	0.305056	0.126052	0.451460
	N3286	N	0.293678	0.147033	0.047556
	N3287	N	0.356199	0.084465	0.047756
	N3288	N	0.293703	0.147089	0.451825
	N3289	N	0.356184	0.084616	0.452349
	N3290	N	0.242514	0.188473	0.047841
	N3291	N	0.305069	0.126090	0.047647
	N3292	N	0.291654	0.128383	0.201538
	N3293	N	0.365871	0.118105	0.201410
	N3294	N	0.241695	0.069844	0.297441
	N3295	N	0.309149	0.143935	0.298870
	N3296	N	0.241760	0.069744	0.202538
	N3297	N	0.309134	0.143888	0.200715
	N3298	N	0.291620	0.128457	0.296925
	N3299	N	0.365875	0.118170	0.298964
	H3300	H	0.249109	0.180335	0.848072
	H3301	H	0.311745	0.117920	0.848801
	H3302	H	0.285822	0.152918	0.650693
	H3303	H	0.348228	0.090140	0.651374
	H3304	H	0.285804	0.152806	0.848763
	H3305	H	0.348351	0.090412	0.849740
	H3306	H	0.249068	0.180438	0.651954
	H3307	H	0.311495	0.117831	0.651248
	H3308	H	0.283999	0.120051	0.600125
	H3309	H	0.356523	0.118896	0.598590
	H3310	H	0.248896	0.079191	0.899907
	H3311	H	0.318416	0.142343	0.901375
	H3312	H	0.249156	0.078801	0.601151
	H3313	H	0.318413	0.141857	0.598091
	H3314	H	0.284199	0.119770	0.900282
	H3315	H	0.356476	0.118844	0.901972
	H3316	H	0.260371	0.169541	0.850972
	H3317	H	0.323028	0.107324	0.852014
	H3318	H	0.273341	0.161034	0.648756
	H3319	H	0.335845	0.098474	0.352761
	H3320	H	0.273125	0.160519	0.851270
	H3321	H	0.335830	0.098409	0.852201
	H3322	H	0.260523	0.169921	0.648830
	H3323	H	0.323060	0.107376	0.351834
	H3324	H	0.272669	0.106420	0.695432
	H3325	H	0.343621	0.125322	0.599957
	H3326	H	0.260045	0.092998	0.804387
	H3327	H	0.330770	0.134179	0.900244
	H3328	H	0.260528	0.092097	0.695663
	H3329	H	0.330962	0.134500	0.599783
	H3330	H	0.272214	0.107244	0.804340
	H3331	H	0.343467	0.125094	0.900390
	Co3332	Co	0.375088	0.124883	0.625877
	Co3333	Co	0.299973	0.137542	0.624826
	Co3334	Co	0.234551	0.059249	0.874883
	Co3335	Co	0.300001	0.137516	0.874244
	C3336	C	0.248135	0.181696	0.922580
	C3337	C	0.310746	0.119302	0.922941
	C3338	C	0.287033	0.151953	0.576976
	C3339	C	0.349473	0.089395	0.577610
	C3340	C	0.286996	0.151927	0.922315
	C3341	C	0.349541	0.089454	0.922949
	C3342	C	0.248173	0.181744	0.577396
	C3343	C	0.310591	0.119184	0.576925
	C3344	C	0.285157	0.121307	0.673371
	C3345	C	0.358024	0.118999	0.672755
	C3346	C	0.247803	0.077621	0.826827
	C3347	C	0.316941	0.142317	0.826882
	C3348	C	0.247938	0.077425	0.673977
	C3349	C	0.316919	0.142054	0.672280
	C3350	C	0.285241	0.121165	0.826953
	C3351	C	0.358012	0.118962	0.827439
	C3352	C	0.252051	0.177094	0.999528
	C3353	C	0.314581	0.114686	0.499977
	C3354	C	0.282392	0.155158	0.999341
	C3355	C	0.344927	0.092787	0.501107
	C3356	C	0.280781	0.116375	0.750332
	C3357	C	0.352789	0.119988	0.749985
	C3358	C	0.252055	0.082733	0.750332
	C3359	C	0.322000	0.140518	0.749595
	C3360	C	0.259411	0.170821	0.999372
	C3361	C	0.321914	0.108361	0.500048
	C3362	C	0.274533	0.160281	0.999490
	C3363	C	0.337059	0.097823	0.501110
	C3364	C	0.273437	0.107953	0.750523
	C3365	C	0.344665	0.124363	0.750026
	C3366	C	0.259286	0.091364	0.750224
	C3367	C	0.329861	0.135456	0.749896
	C3368	C	0.263163	0.167780	0.916669
	C3369	C	0.325762	0.105448	0.917818
	C3370	C	0.270609	0.162956	0.583022
	C3371	C	0.333111	0.100418	0.418465
	C3372	C	0.270467	0.162652	0.916878
	C3373	C	0.333083	0.100350	0.917675
	C3374	C	0.263283	0.168040	0.583078
	C3375	C	0.325789	0.105505	0.417736
	C3376	C	0.269908	0.103459	0.719613
	C3377	C	0.340849	0.127194	0.666420
	C3378	C	0.262787	0.095887	0.780657
	C3379	C	0.333584	0.132417	0.833590
	C3380	C	0.263034	0.095409	0.719798
	C3381	C	0.333674	0.132561	0.666495
	C3382	C	0.269654	0.103941	0.780845
	C3383	C	0.340776	0.127069	0.833715
	N3384	N	0.242517	0.188509	0.951755
	N3385	N	0.305143	0.126162	0.951461
	N3386	N	0.293733	0.147107	0.547943
	N3387	N	0.356170	0.084558	0.548892
	N3388	N	0.293711	0.147121	0.951096
	N3389	N	0.356238	0.084600	0.951485
	N3390	N	0.242611	0.188630	0.548311
	N3391	N	0.305008	0.126052	0.547685
	N3392	N	0.291642	0.128479	0.702149
	N3393	N	0.365875	0.118180	0.701230
	N3394	N	0.241666	0.069874	0.797956
	N3395	N	0.309173	0.143985	0.798413
	N3396	N	0.241740	0.069763	0.702874
	N3397	N	0.309191	0.143858	0.700403
	N3398	N	0.291677	0.128421	0.797304
	N3399	N	0.365886	0.118159	0.798835
	H3400	H	0.262392	0.231610	0.347778
	H3401	H	0.325064	0.169182	0.349066
	H3402	H	0.300099	0.205751	0.151047
	H3403	H	0.362530	0.143148	0.150723
	H3404	H	0.300193	0.205836	0.348461
	H3405	H	0.362743	0.143489	0.349354
	H3406	H	0.262491	0.231681	0.151155
	H3407	H	0.324908	0.168897	0.150165
	H3408	H	0.293972	0.181390	0.098130
	H3409	H	0.369226	0.170025	0.098213
	H3410	H	0.255860	0.204697	0.401810
	H3411	H	0.331148	0.193600	0.401062
	H3412	H	0.255881	0.204519	0.098840
	H3413	H	0.331166	0.193256	0.097922
	H3414	H	0.294040	0.181499	0.401322
	H3415	H	0.369239	0.170346	0.401263
	H3416	H	0.274839	0.222929	0.348270
	H3417	H	0.337386	0.160473	0.650564
	H3418	H	0.287901	0.214760	-0.150700
	H3419	H	0.350405	0.152184	0.149015
	H3420	H	0.287752	0.214398	0.349030
	H3421	H	0.350384	0.152142	0.650828
	H3422	H	0.274819	0.222825	-0.151431
	H3423	H	0.337295	0.160431	0.149068
	H3424	H	0.280997	0.187831	0.400275
	H3425	H	0.356837	0.178118	0.099534
	H3426	H	0.268286	0.196894	0.099669
	H3427	H	0.344092	0.186938	0.399747
	H3428	H	0.268387	0.196923	0.400637
	H3429	H	0.344224	0.187267	0.099446
	H3430	H	0.280954	0.187698	0.099504
	H3431	H	0.356685	0.177792	0.399896
	Co3432	Co	0.387651	0.174873	0.125121
	Co3433	Co	0.312543	0.187363	0.125427
	Co3434	Co	0.237438	0.199923	0.374685
	Co3435	Co	0.312587	0.187491	0.373789
	C3436	C	0.261380	0.232766	0.422270
	C3437	C	0.323985	0.170375	0.422875
	C3438	C	0.301188	0.204549	0.076667
	C3439	C	0.363654	0.141965	0.076602
	C3440	C	0.301207	0.204571	0.422562
	C3441	C	0.363727	0.142106	0.423328
	C3442	C	0.261449	0.232897	0.076711
	C3443	C	0.323875	0.170194	0.076179
	C3444	C	0.295492	0.181506	0.172626
	C3445	C	0.370767	0.170076	0.172453
	C3446	C	0.254348	0.204683	0.327467
	C3447	C	0.329636	0.193417	0.326933
	C3448	C	0.254355	0.204619	0.172549
	C3449	C	0.329637	0.193243	0.172174
	C3450	C	0.295510	0.181569	0.327105
	C3451	C	0.370759	0.170229	0.327228
	C3452	C	0.265710	0.228880	0.499027
	C3453	C	0.328237	0.166396	-0.000943
	C3454	C	0.296853	0.208429	0.499492
	C3455	C	0.359357	0.145877	-0.000471
	C3456	C	0.290267	0.182561	0.249821
	C3457	C	0.365657	0.171764	0.249554
	C3458	C	0.259431	0.203041	0.250075
	C3459	C	0.334870	0.192289	0.249505
	C3460	C	0.273478	0.223526	0.498791
	C3461	C	0.336014	0.160983	-0.001101
	C3462	C	0.289071	0.213816	0.499376
	C3463	C	0.351590	0.151326	-0.000964
	C3464	C	0.282172	0.186992	0.249851
	C3465	C	0.357813	0.176813	0.249598
	C3466	C	0.267306	0.197982	0.249998
	C3467	C	0.342952	0.187857	0.249637
	C3468	C	0.277570	0.221098	0.415532
	C3469	C	0.340094	0.158558	0.583596
	C3470	C	0.285103	0.216457	-0.083712
	C3471	C	0.347572	0.153911	0.082363
	C3472	C	0.285032	0.216311	0.415937
	C3473	C	0.347609	0.153917	0.583845
	C3474	C	0.277562	0.221039	-0.084137
	C3475	C	0.340072	0.158579	0.082337
	C3476	C	0.278338	0.189794	0.333509
	C3477	C	0.354072	0.179886	0.166383
	C3478	C	0.271052	0.194991	0.166110
	C3479	C	0.346799	0.185028	0.332977
	C3480	C	0.271114	0.195048	0.333708
	C3481	C	0.346868	0.185220	0.166265
	C3482	C	0.278269	0.189698	0.166236
	C3483	C	0.354005	0.179719	0.333044
	N3484	N	0.255235	0.238759	0.450905
	N3485	N	0.317824	0.176382	0.451159
	N3486	N	0.307309	0.198475	0.047961
	N3487	N	0.369847	0.135985	0.048091
	N3488	N	0.307333	0.198565	0.451558
	N3489	N	0.369885	0.136068	0.451929
	N3490	N	0.255337	0.238963	0.048324
	N3491	N	0.317750	0.176242	0.047792
	N3492	N	0.303357	0.180690	0.201090
	N3493	N	0.378507	0.168385	0.200883
	N3494	N	0.246598	0.206392	0.298935
	N3495	N	0.321775	0.194239	0.298112
	N3496	N	0.246586	0.206359	0.200926
	N3497	N	0.321781	0.194126	0.200646
	N3498	N	0.303372	0.180778	0.298627
	N3499	N	0.378491	0.168493	0.299105
	H3500	H	0.262424	0.231627	0.848732
	H3501	H	0.325003	0.169162	0.847359
	H3502	H	0.300098	0.205790	0.650836
	H3503	H	0.362665	0.143214	0.652282
	H3504	H	0.300170	0.205800	0.848178
	H3505	H	0.362725	0.143333	0.847769
	H3506	H	0.262332	0.231504	0.650139
	H3507	H	0.324888	0.169004	0.651455
	H3508	H	0.293996	0.181435	0.598075
	H3509	H	0.369182	0.170121	0.597658
	H3510	H	0.255874	0.204503	0.901785
	H3511	H	0.331087	0.193465	0.901333
	H3512	H	0.255986	0.204742	0.597756
	H3513	H	0.331121	0.193451	0.597574
	H3514	H	0.294022	0.181401	0.901722
	H3515	H	0.369177	0.170217	0.901450
	H3516	H	0.274763	0.222668	1.149867
	H3517	H	0.337300	0.160156	0.848156
	H3518	H	0.287805	0.214605	0.649658
	H3519	H	0.350268	0.151817	0.350688
	H3520	H	0.287713	0.214270	1.150061
	H3521	H	0.350274	0.151869	0.848410
	H3522	H	0.274732	0.222685	0.649119
	H3523	H	0.337276	0.160200	0.350188
	H3524	H	0.280984	0.187707	0.900594
	H3525	H	0.356779	0.178090	0.599269
	H3526	H	0.268396	0.196989	0.600012
	H3527	H	0.344056	0.186929	0.899668
	H3528	H	0.268358	0.196845	0.900515
	H3529	H	0.344183	0.187379	0.599480
	H3530	H	0.281085	0.187908	0.600068
	H3531	H	0.356615	0.177846	0.899830
	Co3532	Co	0.387618	0.174905	0.625233
	Co3533	Co	0.312503	0.187342	0.625574
	Co3534	Co	0.237450	0.199965	0.875008
	Co3535	Co	0.312534	0.187375	0.873605
	C3536	C	0.261432	0.232890	0.922948
	C3537	C	0.323936	0.170348	0.921999
	C3538	C	0.301138	0.204491	0.576733
	C3539	C	0.363731	0.142053	0.577360
	C3540	C	0.301187	0.204533	0.922555
	C3541	C	0.363729	0.142056	0.922391
	C3542	C	0.261363	0.232708	0.576031
	C3543	C	0.323886	0.170281	0.576949
	C3544	C	0.295465	0.181486	0.672384
	C3545	C	0.370717	0.170075	0.671942
	C3546	C	0.254357	0.204584	0.827508
	C3547	C	0.329612	0.193357	0.826662
	C3548	C	0.254396	0.204715	0.672789
	C3549	C	0.329614	0.193345	0.671921
	C3550	C	0.295498	0.181485	0.827114
	C3551	C	0.370701	0.170095	0.826773
	C3552	C	0.265746	0.228956	0.999660
	C3553	C	0.328254	0.166439	0.500117
	C3554	C	0.296875	0.208435	0.999532
	C3555	C	0.359407	0.145966	0.500433
	C3556	C	0.290264	0.182531	0.750144
	C3557	C	0.365612	0.171717	0.749132
	C3558	C	0.259457	0.202992	0.750298
	C3559	C	0.334840	0.192382	0.749172
	C3560	C	0.273492	0.223494	0.999273
	C3561	C	0.336032	0.161025	0.500298
	C3562	C	0.289096	0.213813	0.999571
	C3563	C	0.351625	0.151369	0.500593
	C3564	C	0.282182	0.186945	0.750334
	C3565	C	0.357768	0.176816	0.749170
	C3566	C	0.267321	0.197944	0.750337
	C3567	C	0.342944	0.187960	0.749395
	C3568	C	0.277531	0.220907	1.082638
	C3569	C	0.340038	0.158421	0.915382
	C3570	C	0.285065	0.216388	0.582617
	C3571	C	0.347556	0.153790	0.417371
	C3572	C	0.285002	0.216146	1.082982
	C3573	C	0.347526	0.153726	0.915381
	C3574	C	0.277526	0.220975	0.582141
	C3575	C	0.340051	0.158446	0.417113
	C3576	C	0.278305	0.189682	0.833894
	C3577	C	0.354021	0.179890	0.665863
	C3578	C	0.271120	0.195050	0.666619
	C3579	C	0.346770	0.185080	0.832879
	C3580	C	0.271098	0.194986	0.833838
	C3581	C	0.346844	0.185280	0.665929
	C3582	C	0.278337	0.189754	0.666636
	C3583	C	0.353967	0.179754	0.832633
	N3584	N	0.255332	0.238984	0.951473
	N3585	N	0.317782	0.176321	0.950942
	N3586	N	0.307297	0.198518	0.548291
	N3587	N	0.369868	0.136038	0.548620
	N3588	N	0.307299	0.198467	0.951359
	N3589	N	0.369877	0.136025	0.951661
	N3590	N	0.255216	0.238719	0.547800
	N3591	N	0.317775	0.176324	0.547940
	N3592	N	0.303327	0.180631	0.700918
	N3593	N	0.378462	0.168358	0.700426
	N3594	N	0.246644	0.206362	0.799189
	N3595	N	0.321746	0.194120	0.798041
	N3596	N	0.246645	0.206448	0.701183
	N3597	N	0.321743	0.194097	0.700617
	N3598	N	0.303344	0.180616	0.798395
	N3599	N	0.378448	0.168362	0.798623
	H3600	H	0.276874	0.284758	0.349112
	H3601	H	0.339244	0.221965	0.349061
	H3602	H	0.313606	0.257153	0.151057
	H3603	H	0.375955	0.194415	0.150772
	H3604	H	0.313419	0.256932	0.348360
	H3605	H	0.376017	0.194556	0.349234
	H3606	H	0.276825	0.284589	0.150696
	H3607	H	0.339342	0.221952	0.150187
	H3608	H	0.306638	0.232774	0.098077
	H3609	H	0.375985	0.295891	0.101200
	H3610	H	0.268524	0.255806	0.402467
	H3611	H	0.340934	0.254994	0.398847
	H3612	H	0.268639	0.256127	0.098435
	H3613	H	0.341143	0.254713	0.098787
	H3614	H	0.306674	0.232727	0.401447
	H3615	H	0.375952	0.295876	0.399718
	H3616	H	0.289244	0.276371	0.647439
	H3617	H	0.351739	0.213923	0.647744
	H3618	H	0.302042	0.267287	0.147628
	H3619	H	0.364635	0.205112	0.147240
	H3620	H	0.302014	0.267331	0.647492
	H3621	H	0.364517	0.205058	0.648478
	H3622	H	0.289246	0.276322	0.147655
	H3623	H	0.351846	0.214035	0.147534
	H3624	H	0.294314	0.240714	0.400466
	H3625	H	0.364624	0.282530	0.235061
	H3626	H	0.281482	0.249462	0.099812
	H3627	H	0.352683	0.267797	0.263853
	H3628	H	0.281665	0.249817	0.400913
	H3629	H	0.352460	0.268313	0.233848
	H3630	H	0.294110	0.240264	0.099415
	H3631	H	0.364837	0.282096	0.264509
	Co3632	Co	0.390347	0.315726	0.125903
	Co3633	Co	0.325099	0.237280	0.125031
	Co3634	Co	0.250007	0.249886	0.373804
	Co3635	Co	0.325092	0.237356	0.373760
	C3636	C	0.275648	0.285581	0.422545
	C3637	C	0.338029	0.222866	0.422575
	C3638	C	0.314490	0.255637	0.076644
	C3639	C	0.376905	0.193111	0.076687
	C3640	C	0.314424	0.255637	0.422531
	C3641	C	0.376971	0.193246	0.423573
	C3642	C	0.275589	0.285437	0.076380
	C3643	C	0.338108	0.222853	0.076580
	C3644	C	0.308186	0.232743	0.172282
	C3645	C	0.377161	0.297383	0.174033
	C3646	C	0.267100	0.255847	0.327794
	C3647	C	0.339836	0.253639	0.325684
	C3648	C	0.267155	0.255986	0.173138
	C3649	C	0.339936	0.253508	0.172242
	C3650	C	0.308210	0.232751	0.327127
	C3651	C	0.377146	0.297346	0.326798
	C3652	C	0.280253	0.282328	0.499140
	C3653	C	0.342671	0.219649	-0.000504
	C3654	C	0.310517	0.260191	0.499856
	C3655	C	0.373000	0.197671	-0.000477
	C3656	C	0.303116	0.234371	0.249780
	C3657	C	0.372956	0.292110	0.250317
	C3658	C	0.272317	0.254863	0.250527
	C3659	C	0.344277	0.258525	0.249046
	C3660	C	0.288115	0.277196	0.499401
	C3661	C	0.350516	0.214520	-0.000662
	C3662	C	0.303221	0.266608	0.499638
	C3663	C	0.365665	0.203961	-0.000844
	C3664	C	0.295239	0.239400	0.249962
	C3665	C	0.365759	0.283511	0.249911
	C3666	C	0.280392	0.250410	0.250345
	C3667	C	0.351607	0.266898	0.249182
	C3668	C	0.292029	0.274531	0.581927
	C3669	C	0.354464	0.212001	0.582123
	C3670	C	0.299325	0.269298	0.082439
	C3671	C	0.361854	0.206948	0.081455
	C3672	C	0.299319	0.269386	0.581994
	C3673	C	0.361795	0.206928	0.582649
	C3674	C	0.292013	0.274424	0.082134
	C3675	C	0.354526	0.212016	0.081750
	C3676	C	0.291518	0.242467	0.333775
	C3677	C	0.362063	0.279378	0.241086
	C3678	C	0.284216	0.247553	0.166532
	C3679	C	0.355309	0.271022	0.257731
	C3680	C	0.284311	0.247761	0.334016
	C3681	C	0.355193	0.271275	0.240624
	C3682	C	0.291411	0.242237	0.166280
	C3683	C	0.362190	0.279131	0.258059
	N3684	N	0.268956	0.290462	0.451168
	N3685	N	0.331348	0.227750	0.451014
	N3686	N	0.320069	0.248756	0.047736
	N3687	N	0.382462	0.186195	0.047852
	N3688	N	0.320011	0.248750	0.451352
	N3689	N	0.382560	0.186388	0.452475
	N3690	N	0.268915	0.290321	0.047825
	N3691	N	0.331412	0.227727	0.048076
	N3692	N	0.315914	0.230949	0.200581
	N3693	N	0.383318	0.305061	0.202927
	N3694	N	0.259240	0.256691	0.299224
	N3695	N	0.333417	0.246410	0.296384
	N3696	N	0.259270	0.256793	0.201652
	N3697	N	0.333492	0.246305	0.201424
	N3698	N	0.315925	0.230945	0.298629
	N3699	N	0.383319	0.305033	0.298100
	H3700	H	0.276803	0.284567	0.849189
	H3701	H	0.339345	0.222111	0.848951
	H3702	H	0.313591	0.257101	0.650807
	H3703	H	0.376032	0.194563	0.651821
	H3704	H	0.313432	0.256899	0.849012
	H3705	H	0.376189	0.194602	0.848561
	H3706	H	0.276994	0.284901	0.649109
	H3707	H	0.339255	0.222069	0.649964
	H3708	H	0.306735	0.232685	0.598072
	H3709	H	0.375993	0.296031	0.600291
	H3710	H	0.268635	0.256014	0.900511
	H3711	H	0.341010	0.255029	0.899428
	H3712	H	0.268627	0.255736	0.597680
	H3713	H	0.341100	0.254880	0.599005
	H3714	H	0.306739	0.232648	0.901416
	H3715	H	0.375953	0.295930	0.898819
	H3716	H	0.289346	0.276501	0.852242
	H3717	H	0.351726	0.213853	0.851398
	H3718	H	0.302237	0.267761	0.351538
	H3719	H	0.364590	0.205003	0.352438
	H3720	H	0.302134	0.267581	0.852758
	H3721	H	0.364525	0.204874	0.851211
	H3722	H	0.289502	0.276860	0.351272
	H3723	H	0.351821	0.214035	0.351577
	H3724	H	0.294219	0.240275	0.599632
	H3725	H	0.364609	0.282510	0.756610
	H3726	H	0.281664	0.249782	0.899740
	H3727	H	0.352797	0.267867	0.742525
	H3728	H	0.281637	0.249527	0.599587
	H3729	H	0.352446	0.268224	0.756154
	H3730	H	0.294303	0.240563	0.899892
	H3731	H	0.364910	0.282210	0.743230
	Co3732	Co	0.390409	0.315702	0.625814
	Co3733	Co	0.325099	0.237341	0.624854
	Co3734	Co	0.250046	0.250019	0.873890
	Co3735	Co	0.325127	0.237345	0.874236
	C3736	C	0.275614	0.285452	0.922714
	C3737	C	0.338107	0.222959	0.922757
	C3738	C	0.314505	0.255722	0.576798
	C3739	C	0.376955	0.193217	0.577517
	C3740	C	0.314425	0.255595	0.922833
	C3741	C	0.376996	0.193169	0.922689
	C3742	C	0.275711	0.285673	0.575886
	C3743	C	0.338047	0.222923	0.576457
	C3744	C	0.308203	0.232577	0.672505
	C3745	C	0.377084	0.297402	0.673292
	C3746	C	0.267102	0.255886	0.826397
	C3747	C	0.339859	0.253641	0.826052
	C3748	C	0.267111	0.255715	0.671771
	C3749	C	0.339885	0.253589	0.672341
	C3750	C	0.308222	0.232574	0.827014
	C3751	C	0.377092	0.297352	0.826165
	C3752	C	0.280190	0.282170	0.999713
	C3753	C	0.342642	0.219694	0.499415
	C3754	C	0.310525	0.260146	1.000096
	C3755	C	0.372976	0.197694	0.500439
	C3756	C	0.303139	0.234229	0.749948
	C3757	C	0.372898	0.292152	0.749569
	C3758	C	0.272334	0.254788	0.749265
	C3759	C	0.344303	0.258483	0.749343
	C3760	C	0.288071	0.277082	0.999855
	C3761	C	0.350486	0.214557	0.499569
	C3762	C	0.303198	0.266489	1.000532
	C3763	C	0.365659	0.204034	0.500301
	C3764	C	0.295301	0.239334	0.749949
	C3765	C	0.365736	0.283491	0.749609
	C3766	C	0.280461	0.250413	0.749574
	C3767	C	0.351640	0.266871	0.749511
	C3768	C	0.292061	0.274559	0.917794
	C3769	C	0.354474	0.211908	0.916918
	C3770	C	0.299455	0.269625	0.417089
	C3771	C	0.361825	0.206935	0.417924
	C3772	C	0.299368	0.269451	0.918266
	C3773	C	0.361794	0.206801	0.916860
	C3774	C	0.292153	0.274754	0.416917
	C3775	C	0.354488	0.211991	0.417448
	C3776	C	0.291515	0.242260	0.666297
	C3777	C	0.362021	0.279309	0.753231
	C3778	C	0.284332	0.247731	0.833068
	C3779	C	0.355357	0.271006	0.745647
	C3780	C	0.284312	0.247571	0.666262
	C3781	C	0.355170	0.271205	0.753269
	C3782	C	0.291551	0.242430	0.833261
	C3783	C	0.362215	0.279112	0.745725
	N3784	N	0.268955	0.290388	0.951559
	N3785	N	0.331408	0.227787	0.951449
	N3786	N	0.320053	0.248784	0.547483
	N3787	N	0.382573	0.186393	0.548438
	N3788	N	0.320028	0.248730	0.951646
	N3789	N	0.382562	0.186295	0.951673
	N3790	N	0.269000	0.290518	0.547453
	N3791	N	0.331359	0.227785	0.547705
	N3792	N	0.315954	0.230863	0.700636
	N3793	N	0.383240	0.305115	0.702507
	N3794	N	0.259233	0.256650	0.797743
	N3795	N	0.333380	0.246511	0.796795
	N3796	N	0.259229	0.256560	0.700414
	N3797	N	0.333385	0.246495	0.701634
	N3798	N	0.315966	0.230880	0.798799
	N3799	N	0.383259	0.305067	0.797379
	H3800	H	0.279783	0.425566	0.351427
	H3801	H	0.342314	0.363258	0.351309
	H3802	H	0.313372	0.393313	0.148257
	H3803	H	0.376119	0.331277	0.148475
	H3804	H	0.313637	0.393640	0.352469
	H3805	H	0.375891	0.330698	0.352056
	H3806	H	0.279849	0.425587	0.148403
	H3807	H	0.342385	0.363353	0.149323
	H3808	H	0.313565	0.358394	0.101730
	H3809	H	0.371067	0.447661	0.101534
	H3810	H	0.278498	0.317735	0.399626
	H3811	H	0.341116	0.399611	0.399552
	H3812	H	0.278663	0.317291	0.100017
	H3813	H	0.341206	0.399552	0.100209
	H3814	H	0.313550	0.358463	0.400345
	H3815	H	0.370869	0.447705	0.399948
	H3816	H	0.290410	0.414463	0.504064
	H3817	H	0.352803	0.351891	0.513069
	H3818	H	0.302687	0.404150	0.036739
	H3819	H	0.364981	0.341183	0.040423
	H3820	H	0.302261	0.403347	0.504884
	H3821	H	0.364636	0.340687	0.512833
	H3822	H	0.290857	0.415397	0.037653
	H3823	H	0.353084	0.352389	0.040712
	H3824	H	0.301778	0.345841	0.332330
	H3825	H	0.362122	0.431106	0.245325
	H3826	H	0.290710	0.329626	0.168093
	H3827	H	0.350133	0.415995	0.256177
	H3828	H	0.289614	0.331619	0.331965
	H3829	H	0.351738	0.414442	0.244918
	H3830	H	0.302892	0.343829	0.168837
	H3831	H	0.360480	0.432799	0.255778
	Co3832	Co	0.383829	0.469424	0.127045
	Co3833	Co	0.327882	0.378321	0.125343
	Co3834	Co	0.262604	0.300016	0.374248
	Co3835	Co	0.327948	0.378350	0.374840
	C3836	C	0.278653	0.426698	0.423851
	C3837	C	0.341216	0.364283	0.424374
	C3838	C	0.314530	0.392234	0.075929
	C3839	C	0.377219	0.329985	0.076165
	C3840	C	0.314725	0.392440	0.424727
	C3841	C	0.377059	0.329679	0.424324
	C3842	C	0.278685	0.426730	0.076094
	C3843	C	0.341228	0.364397	0.076869
	C3844	C	0.314733	0.359880	0.174241
	C3845	C	0.372002	0.449270	0.174640
	C3846	C	0.277365	0.316321	0.326434
	C3847	C	0.340176	0.397949	0.326420
	C3848	C	0.277441	0.316096	0.173032
	C3849	C	0.340187	0.397947	0.173549
	C3850	C	0.314718	0.359929	0.327383
	C3851	C	0.371882	0.449309	0.327456
	C3852	C	0.282774	0.422629	0.500212
	C3853	C	0.345315	0.360274	0.000926
	C3854	C	0.310532	0.396365	0.500749
	C3855	C	0.373029	0.333904	-0.000018
	C3856	C	0.310540	0.354643	0.250894
	C3857	C	0.368346	0.443330	0.250897
	C3858	C	0.281828	0.321120	0.249519
	C3859	C	0.343890	0.403824	0.250073
	C3860	C	0.289780	0.415955	0.500686
	C3861	C	0.352309	0.353548	0.000916
	C3862	C	0.303495	0.402982	0.501199
	C3863	C	0.366037	0.340639	0.000280
	C3864	C	0.303374	0.345992	0.250822
	C3865	C	0.362184	0.433317	0.250552
	C3866	C	0.289179	0.329468	0.249729
	C3867	C	0.350068	0.413843	0.250491
	C3868	C	0.293117	0.412325	0.502674
	C3869	C	0.355602	0.349751	0.507238
	C3870	C	0.300043	0.406485	0.020360
	C3871	C	0.362450	0.343769	0.023188
	C3872	C	0.299793	0.405977	0.503170
	C3873	C	0.362288	0.343443	0.507536
	C3874	C	0.293374	0.412840	0.020916
	C3875	C	0.355759	0.350089	0.023505
	C3876	C	0.299426	0.342283	0.296465
	C3877	C	0.359505	0.427834	0.247501
	C3878	C	0.293133	0.333127	0.203965
	C3879	C	0.352724	0.419313	0.253700
	C3880	C	0.292531	0.334227	0.295752
	C3881	C	0.353610	0.418410	0.247364
	C3882	C	0.300026	0.341197	0.204478
	C3883	C	0.358610	0.428759	0.253426
	N3884	N	0.272605	0.432653	0.452483
	N3885	N	0.335136	0.370239	0.453194
	N3886	N	0.320615	0.386282	0.047258
	N3887	N	0.383240	0.323952	0.047661
	N3888	N	0.320787	0.386462	0.453456
	N3889	N	0.383156	0.323751	0.453116
	N3890	N	0.272592	0.432655	0.047424
	N3891	N	0.335140	0.370296	0.047877
	N3892	N	0.320843	0.367664	0.202984
	N3893	N	0.377296	0.458080	0.203641
	N3894	N	0.270919	0.309121	0.297340
	N3895	N	0.334744	0.389302	0.297219
	N3896	N	0.270970	0.308976	0.202277
	N3897	N	0.334764	0.389293	0.202273
	N3898	N	0.320846	0.367685	0.298321
	N3899	N	0.377226	0.458105	0.298718
	H3900	H	0.279831	0.425615	0.851330
	H3901	H	0.342243	0.362962	0.852953
	H3902	H	0.313498	0.393217	0.648892
	H3903	H	0.376140	0.331177	0.649039
	H3904	H	0.313581	0.393528	0.851230
	H3905	H	0.375751	0.330594	0.851111
	H3906	H	0.279711	0.425523	0.648825
	H3907	H	0.342324	0.363145	0.649900
	H3908	H	0.313600	0.358575	0.600937
	H3909	H	0.370830	0.447859	0.602747
	H3910	H	0.278542	0.317656	0.900325
	H3911	H	0.341386	0.399158	0.900306
	H3912	H	0.278562	0.317554	0.598959
	H3913	H	0.340960	0.399766	0.601533
	H3914	H	0.313518	0.358574	0.898867
	H3915	H	0.370826	0.447621	0.901058
	H3916	H	0.290603	0.414877	0.962276
	H3917	H	0.353363	0.353016	0.960905
	H3918	H	0.302904	0.404468	0.497907
	H3919	H	0.365412	0.342105	0.487228
	H3920	H	0.302421	0.403558	0.962078
	H3921	H	0.365250	0.341894	0.960299
	H3922	H	0.291106	0.415678	0.497682
	H3923	H	0.353606	0.353262	0.487032
	H3924	H	0.303080	0.343528	0.708479
	H3925	H	0.361254	0.431941	0.792589
	H3926	H	0.289394	0.332037	0.790921
	H3927	H	0.350914	0.415083	0.709882
	H3928	H	0.290886	0.329323	0.708918
	H3929	H	0.350930	0.415179	0.792632
	H3930	H	0.301611	0.346137	0.791315
	H3931	H	0.361255	0.431884	0.710696
	Co3932	Co	0.383710	0.469392	0.627101
	Co3933	Co	0.327954	0.378306	0.625604
	Co3934	Co	0.262621	0.299906	0.874903
	Co3935	Co	0.327953	0.378216	0.874798
	C3936	C	0.278672	0.426730	0.923890
	C3937	C	0.341163	0.364198	0.925025
	C3938	C	0.314635	0.392224	0.576561
	C3939	C	0.377204	0.329903	0.576545
	C3940	C	0.314649	0.392322	0.923647
	C3941	C	0.377023	0.329670	0.924084
	C3942	C	0.278617	0.426676	0.576177
	C3943	C	0.341220	0.364239	0.577168
	C3944	C	0.314713	0.359949	0.673726
	C3945	C	0.371821	0.449369	0.675440
	C3946	C	0.277405	0.316269	0.826780
	C3947	C	0.340304	0.397750	0.827049
	C3948	C	0.277429	0.316224	0.672976
	C3949	C	0.340094	0.398031	0.674378
	C3950	C	0.314666	0.359964	0.826053
	C3951	C	0.371818	0.449266	0.828104
	C3952	C	0.282789	0.422727	1.000037
	C3953	C	0.345304	0.360214	0.500712
	C3954	C	0.310461	0.396266	0.999551
	C3955	C	0.373003	0.333775	0.500443
	C3956	C	0.310528	0.354693	0.749755
	C3957	C	0.368223	0.443326	0.751616
	C3958	C	0.281818	0.321083	0.749684
	C3959	C	0.343894	0.403782	0.750951
	C3960	C	0.289795	0.416011	1.000030
	C3961	C	0.352318	0.353486	0.500102
	C3962	C	0.303463	0.402993	0.999315
	C3963	C	0.366003	0.340518	0.500254
	C3964	C	0.303322	0.346044	0.749866
	C3965	C	0.362079	0.433272	0.751528
	C3966	C	0.289148	0.329514	0.749871
	C3967	C	0.350104	0.413753	0.751237
	C3968	C	0.293223	0.412536	0.978788
	C3969	C	0.355895	0.350443	0.978211
	C3970	C	0.300170	0.406646	0.499219
	C3971	C	0.362690	0.344189	0.493069
	C3972	C	0.299900	0.406188	0.978320
	C3973	C	0.362578	0.344120	0.977820
	C3974	C	0.293475	0.412970	0.499131
	C3975	C	0.356039	0.350545	0.492952
	C3976	C	0.300105	0.341031	0.726905
	C3977	C	0.359035	0.428291	0.774475
	C3978	C	0.292390	0.334510	0.773009
	C3979	C	0.353168	0.418748	0.728447
	C3980	C	0.293209	0.333025	0.726819
	C3981	C	0.353201	0.418805	0.774492
	C3982	C	0.299283	0.342516	0.773004
	C3983	C	0.358990	0.428251	0.728473
	N3984	N	0.272591	0.432655	0.952605
	N3985	N	0.335095	0.370179	0.953567
	N3986	N	0.320730	0.386343	0.547569
	N3987	N	0.383253	0.323898	0.547785
	N3988	N	0.320719	0.386386	0.952621
	N3989	N	0.383148	0.323781	0.953109
	N3990	N	0.272580	0.432646	0.547127
	N3991	N	0.335143	0.370184	0.548111
	N3992	N	0.320850	0.367685	0.702586
	N3993	N	0.377142	0.458132	0.704516
	N3994	N	0.270928	0.309057	0.797676
	N3995	N	0.334827	0.389137	0.798036
	N3996	N	0.270939	0.309048	0.702206
	N3997	N	0.334704	0.389306	0.703140
	N3998	N	0.320812	0.367702	0.797329
	N3999	N	0.377143	0.458062	0.799272
	H4000	H	0.273336	0.579540	0.351560
	H4001	H	0.335860	0.517047	0.352237
	H4002	H	0.306530	0.546393	0.149196
	H4003	H	0.369193	0.484147	0.149877
	H4004	H	0.306756	0.546664	0.352328
	H4005	H	0.368881	0.483524	0.352554
	H4006	H	0.273306	0.579472	0.148527
	H4007	H	0.335779	0.516961	0.149749
	H4008	H	0.308277	0.510182	0.101007
	H4009	H	0.362148	0.603174	0.102900
	H4010	H	0.278556	0.461903	0.399386
	H4011	H	0.333768	0.553541	0.400114
	H4012	H	0.278664	0.461940	0.101255
	H4013	H	0.333988	0.553539	0.101349
	H4014	H	0.308366	0.510007	0.400255
	H4015	H	0.362212	0.603121	0.401790
	H4016	H	0.283649	0.567796	0.511943
	H4017	H	0.346916	0.506756	0.477340
	H4018	H	0.295321	0.556301	-0.045312
	H4019	H	0.359265	0.496387	-0.031774
	H4020	H	0.295244	0.556128	0.511546
	H4021	H	0.358494	0.495130	0.477728
	H4022	H	0.283670	0.567772	-0.044999
	H4023	H	0.347672	0.507994	-0.031681
	H4024	H	0.299017	0.493977	0.237300
	H4025	H	0.353382	0.586592	0.189491
	H4026	H	0.288051	0.477977	0.264053
	H4027	H	0.342677	0.570152	0.314278
	H4028	H	0.288675	0.477261	0.236326
	H4029	H	0.343521	0.569327	0.189185
	H4030	H	0.298416	0.494604	0.264786
	H4031	H	0.352501	0.587411	0.314517
	Co4032	Co	0.374839	0.625012	0.126872
	Co4033	Co	0.321222	0.531686	0.126221
	Co4034	Co	0.265359	0.440695	0.374654
	Co4035	Co	0.321235	0.531674	0.375044
	C4036	C	0.272273	0.580658	0.424114
	C4037	C	0.334761	0.518143	0.424858
	C4038	C	0.307744	0.545331	0.076773
	C4039	C	0.370275	0.482961	0.077524
	C4040	C	0.307829	0.545475	0.424383
	C4041	C	0.370088	0.482645	0.425217
	C4042	C	0.272234	0.580562	0.076258
	C4043	C	0.334700	0.518040	0.076919
	C4044	C	0.309287	0.511738	0.174401
	C4045	C	0.363168	0.604783	0.175802
	C4046	C	0.277573	0.460275	0.326637
	C4047	C	0.332852	0.551940	0.327048
	C4048	C	0.277618	0.460300	0.173948
	C4049	C	0.332951	0.551907	0.174309
	C4050	C	0.309329	0.511669	0.327270
	C4051	C	0.363187	0.604779	0.328701
	C4052	C	0.276439	0.576721	0.500266
	C4053	C	0.338787	0.513978	0.000803
	C4054	C	0.303679	0.549510	0.500113
	C4055	C	0.366122	0.486924	0.001105
	C4056	C	0.305674	0.505707	0.250952
	C4057	C	0.359672	0.598705	0.252349
	C4058	C	0.281299	0.466221	0.250373
	C4059	C	0.336396	0.558049	0.250922
	C4060	C	0.283362	0.569851	0.499957
	C4061	C	0.345721	0.507130	0.000684
	C4062	C	0.296767	0.556406	0.500030
	C4063	C	0.359190	0.493797	0.000952
	C4064	C	0.299550	0.495683	0.251065
	C4065	C	0.353753	0.588428	0.252104
	C4066	C	0.287484	0.476180	0.250251
	C4067	C	0.342307	0.568314	0.251584
	C4068	C	0.286451	0.565731	0.506529
	C4069	C	0.349347	0.504032	0.487997
	C4070	C	0.293012	0.559198	-0.024981
	C4071	C	0.356314	0.498156	-0.017360
	C4072	C	0.293001	0.559182	0.506516
	C4073	C	0.355885	0.497467	0.488149
	C4074	C	0.286431	0.565694	-0.024971
	C4075	C	0.349742	0.504665	-0.017633
	C4076	C	0.296638	0.490481	0.243110
	C4077	C	0.351050	0.583039	0.216998
	C4078	C	0.290410	0.481366	0.258240
	C4079	C	0.344986	0.573711	0.286756
	C4080	C	0.290764	0.480986	0.242705
	C4081	C	0.345483	0.573252	0.216688
	C4082	C	0.296286	0.490844	0.258585
	C4083	C	0.350552	0.583495	0.286889
	N4084	N	0.266228	0.586662	0.453028
	N4085	N	0.328722	0.524146	0.453602
	N4086	N	0.313795	0.539350	0.048172
	N4087	N	0.376314	0.476987	0.048894
	N4088	N	0.313817	0.539399	0.453368
	N4089	N	0.376187	0.476766	0.454190
	N4090	N	0.266249	0.586635	0.046905
	N4091	N	0.328647	0.524040	0.048064
	N4092	N	0.314615	0.520512	0.203310
	N4093	N	0.368386	0.613689	0.204401
	N4094	N	0.272169	0.451612	0.297499
	N4095	N	0.327737	0.542960	0.297898
	N4096	N	0.272213	0.451617	0.202364
	N4097	N	0.327774	0.542942	0.202967
	N4098	N	0.314620	0.520461	0.298264
	N4099	N	0.368411	0.613684	0.299739
	H4100	H	0.273453	0.579522	0.851390
	H4101	H	0.335795	0.517009	0.852010
	H4102	H	0.306490	0.546330	0.648475
	H4103	H	0.369260	0.484381	0.649676
	H4104	H	0.306711	0.546703	0.852044
	H4105	H	0.369040	0.483767	0.852581
	H4106	H	0.273510	0.579810	0.649155
	H4107	H	0.335822	0.517033	0.649434
	H4108	H	0.308370	0.510172	0.601363
	H4109	H	0.362617	0.602924	0.602356
	H4110	H	0.278452	0.462061	0.899359
	H4111	H	0.333711	0.553721	0.899805
	H4112	H	0.278779	0.461854	0.600949
	H4113	H	0.333995	0.553483	0.602103
	H4114	H	0.308276	0.510080	0.899899
	H4115	H	0.362141	0.603204	0.900119
	H4116	H	0.284661	0.569611	1.046045
	H4117	H	0.345617	0.504575	1.033914
	H4118	H	0.296453	0.558498	0.488548
	H4119	H	0.357978	0.494291	0.524001
	H4120	H	0.296325	0.558094	1.045703
	H4121	H	0.357267	0.493002	1.033710
	H4122	H	0.284889	0.570131	0.488204
	H4123	H	0.346342	0.505807	0.524045
	H4124	H	0.298619	0.494366	0.662758
	H4125	H	0.352857	0.587202	0.708428
	H4126	H	0.288374	0.477655	0.837618
	H4127	H	0.343399	0.569453	0.794594
	H4128	H	0.288305	0.477608	0.662818
	H4129	H	0.342911	0.570003	0.708018
	H4130	H	0.298661	0.494430	0.837610
	H4131	H	0.353294	0.586633	0.794242
	Co4132	Co	0.374875	0.625022	0.627266
	Co4133	Co	0.321228	0.531752	0.626249
	Co4134	Co	0.265453	0.440672	0.874455
	Co4135	Co	0.321240	0.531710	0.875494
	C4136	C	0.272303	0.580603	0.923814
	C4137	C	0.334715	0.518056	0.924590
	C4138	C	0.307673	0.545297	0.576271
	C4139	C	0.370275	0.483079	0.577388
	C4140	C	0.307819	0.545489	0.924512
	C4141	C	0.370182	0.482770	0.925110
	C4142	C	0.272376	0.580807	0.576384
	C4143	C	0.334711	0.518134	0.577050
	C4144	C	0.309326	0.511767	0.674169
	C4145	C	0.363386	0.604610	0.675220
	C4146	C	0.277576	0.460367	0.826565
	C4147	C	0.332864	0.551975	0.826787
	C4148	C	0.277731	0.460250	0.673724
	C4149	C	0.333009	0.551863	0.674784
	C4150	C	0.309291	0.511738	0.826809
	C4151	C	0.363162	0.604770	0.827452
	C4152	C	0.276360	0.576446	1.000296
	C4153	C	0.338830	0.514053	0.501007
	C4154	C	0.303706	0.549511	1.000580
	C4155	C	0.366076	0.486897	0.501185
	C4156	C	0.305661	0.505812	0.750290
	C4157	C	0.359771	0.598586	0.751221
	C4158	C	0.281348	0.466206	0.750267
	C4159	C	0.336463	0.557973	0.750832
	C4160	C	0.283274	0.569589	1.000712
	C4161	C	0.345778	0.507250	0.500911
	C4162	C	0.296753	0.556310	1.000527
	C4163	C	0.359163	0.493760	0.501098
	C4164	C	0.299508	0.495768	0.750280
	C4165	C	0.353856	0.588310	0.751287
	C4166	C	0.287503	0.476245	0.750114
	C4167	C	0.342349	0.568295	0.750969
	C4168	C	0.286990	0.566691	1.026381
	C4169	C	0.348633	0.502808	1.019279
	C4170	C	0.293679	0.560510	0.493518
	C4171	C	0.355572	0.496971	0.513882
	C4172	C	0.293573	0.560195	1.026064
	C4173	C	0.355189	0.496266	1.019248
	C4174	C	0.287142	0.567062	0.493536
	C4175	C	0.349028	0.503530	0.513680
	C4176	C	0.296400	0.490730	0.701229
	C4177	C	0.350770	0.583338	0.727224
	C4178	C	0.290592	0.481316	0.799216
	C4179	C	0.345432	0.573287	0.775437
	C4180	C	0.290568	0.481231	0.701113
	C4181	C	0.345166	0.573614	0.726856
	C4182	C	0.296424	0.490800	0.799495
	C4183	C	0.351033	0.583014	0.775417
	N4184	N	0.266283	0.586670	0.952529
	N4185	N	0.328671	0.524061	0.953550
	N4186	N	0.313708	0.539276	0.547816
	N4187	N	0.376293	0.477025	0.548821
	N4188	N	0.313826	0.539429	0.953347
	N4189	N	0.376257	0.476857	0.954308
	N4190	N	0.266282	0.586734	0.547575
	N4191	N	0.328688	0.524147	0.547988
	N4192	N	0.314678	0.520518	0.703236
	N4193	N	0.368477	0.613627	0.704362
	N4194	N	0.272191	0.451631	0.797326
	N4195	N	0.327718	0.543018	0.798179
	N4196	N	0.272291	0.451567	0.702397
	N4197	N	0.327807	0.542939	0.703383
	N4198	N	0.314653	0.520504	0.798302
	N4199	N	0.368345	0.613717	0.798873
	H4200	H	0.264400	0.735129	0.349932
	H4201	H	0.327186	0.673051	0.351496
	H4202	H	0.297782	0.702563	0.147872
	H4203	H	0.360259	0.639729	0.150774
	H4204	H	0.297615	0.702019	0.350592
	H4205	H	0.360268	0.639727	0.352727
	H4206	H	0.264602	0.735469	0.147632
	H4207	H	0.327185	0.673140	0.149849
	H4208	H	0.299801	0.665831	0.101143
	H4209	H	0.353409	0.759214	0.101685
	H4210	H	0.271390	0.616183	0.398886
	H4211	H	0.325088	0.709598	0.399611
	H4212	H	0.271403	0.616165	0.099565
	H4213	H	0.325009	0.709527	0.101553
	H4214	H	0.299901	0.665496	0.399276
	H4215	H	0.353614	0.758917	0.399826
	H4216	H	0.275719	0.725292	0.476902
	H4217	H	0.337347	0.661082	0.459081
	H4218	H	0.287574	0.714135	-0.041635
	H4219	H	0.348946	0.649709	0.028431
	H4220	H	0.287400	0.713784	0.476949
	H4221	H	0.348945	0.649485	0.459210
	H4222	H	0.275979	0.725780	-0.041662
	H4223	H	0.337351	0.661366	0.028640
	H4224	H	0.290853	0.649276	0.176562
	H4225	H	0.344437	0.742715	0.309705
	H4226	H	0.280454	0.632490	0.322850
	H4227	H	0.333893	0.726139	0.190555
	H4228	H	0.281011	0.632043	0.176376
	H4229	H	0.334626	0.725444	0.309192
	H4230	H	0.290361	0.649701	0.323157
	H4231	H	0.343835	0.743346	0.191256
	Co4232	Co	0.366177	0.780902	0.125760
	Co4233	Co	0.312398	0.687664	0.125987
	Co4234	Co	0.258752	0.594223	0.374436
	Co4235	Co	0.312444	0.687537	0.375373
	C4236	C	0.263378	0.736393	0.422610
	C4237	C	0.325998	0.674026	0.424193
	C4238	C	0.298888	0.701296	0.075768
	C4239	C	0.361314	0.638582	0.077883
	C4240	C	0.298828	0.701083	0.423597
	C4241	C	0.361396	0.638632	0.425636
	C4242	C	0.263486	0.736603	0.075043
	C4243	C	0.326038	0.674215	0.077308
	C4244	C	0.300774	0.667388	0.173967
	C4245	C	0.354424	0.760764	0.174400
	C4246	C	0.270429	0.614528	0.325746
	C4247	C	0.324089	0.707911	0.326799
	C4248	C	0.270433	0.614492	0.172961
	C4249	C	0.324065	0.707874	0.174433
	C4250	C	0.300823	0.667220	0.326458
	C4251	C	0.354525	0.760625	0.326917
	C4252	C	0.267527	0.732409	0.499235
	C4253	C	0.330157	0.670110	0.001171
	C4254	C	0.294784	0.705330	0.499809
	C4255	C	0.357222	0.642668	0.001554
	C4256	C	0.297320	0.661179	0.250056
	C4257	C	0.350911	0.754645	0.250585
	C4258	C	0.273933	0.620636	0.249317
	C4259	C	0.327560	0.714045	0.250483
	C4260	C	0.274404	0.725513	0.499415
	C4261	C	0.337004	0.663148	0.001368
	C4262	C	0.287857	0.712151	0.499777
	C4263	C	0.350369	0.649626	0.001312
	C4264	C	0.291430	0.650875	0.249899
	C4265	C	0.344939	0.744426	0.250249
	C4266	C	0.279872	0.630895	0.249599
	C4267	C	0.333459	0.724338	0.250012
	C4268	C	0.278075	0.722469	0.486998
	C4269	C	0.340092	0.658998	0.477364
	C4270	C	0.284768	0.716190	-0.023620
	C4271	C	0.346645	0.652627	0.016528
	C4272	C	0.284656	0.715935	0.486982
	C4273	C	0.346638	0.652471	0.477579
	C4274	C	0.278223	0.722753	-0.023585
	C4275	C	0.340121	0.659236	0.016605
	C4276	C	0.288625	0.645604	0.208665
	C4277	C	0.342159	0.739083	0.283293
	C4278	C	0.282692	0.636133	0.290588
	C4279	C	0.336213	0.729675	0.216826
	C4280	C	0.283017	0.635870	0.208589
	C4281	C	0.336569	0.729324	0.283075
	C4282	C	0.288314	0.645865	0.290943
	C4283	C	0.341785	0.739457	0.216991
	N4284	N	0.257396	0.742491	0.451384
	N4285	N	0.319953	0.680037	0.453095
	N4286	N	0.304937	0.695257	0.047192
	N4287	N	0.367334	0.632555	0.049031
	N4288	N	0.304865	0.695117	0.452964
	N4289	N	0.367434	0.632625	0.454772
	N4290	N	0.257432	0.742579	0.046303
	N4291	N	0.319970	0.680132	0.048225
	N4292	N	0.305937	0.676317	0.203134
	N4293	N	0.359687	0.769610	0.203272
	N4294	N	0.265250	0.605566	0.297044
	N4295	N	0.318966	0.698906	0.298256
	N4296	N	0.265267	0.605558	0.202062
	N4297	N	0.318966	0.698892	0.203441
	N4298	N	0.305970	0.676219	0.297937
	N4299	N	0.359744	0.769520	0.298041
	H4300	H	0.264554	0.735352	0.850427
	H4301	H	0.327145	0.672921	0.852307
	H4302	H	0.297753	0.702471	0.649132
	H4303	H	0.360256	0.639805	0.650036
	H4304	H	0.297795	0.702290	0.850540
	H4305	H	0.360225	0.639729	0.852962
	H4306	H	0.264618	0.735509	0.648437
	H4307	H	0.326962	0.672766	0.650231
	H4308	H	0.299741	0.665944	0.600773
	H4309	H	0.353693	0.758944	0.600995
	H4310	H	0.271353	0.616329	0.898953
	H4311	H	0.325147	0.709576	0.899041
	H4312	H	0.271485	0.616205	0.599962
	H4313	H	0.324934	0.709868	0.600651
	H4314	H	0.300078	0.665530	0.899086
	H4315	H	0.353382	0.759132	0.899231
	H4316	H	0.274762	0.723621	1.039353
	H4317	H	0.338450	0.663062	0.973261
	H4318	H	0.286522	0.712439	0.522254
	H4319	H	0.349983	0.651428	0.542597
	H4320	H	0.286295	0.711955	1.039746
	H4321	H	0.349999	0.651387	0.973841
	H4322	H	0.274946	0.724021	0.521794
	H4323	H	0.338369	0.663020	0.542707
	H4324	H	0.290628	0.649524	0.783618
	H4325	H	0.344741	0.742532	0.633362
	H4326	H	0.280618	0.632506	0.714231
	H4327	H	0.333825	0.726268	0.866448
	H4328	H	0.280712	0.632319	0.783721
	H4329	H	0.334839	0.725299	0.632569
	H4330	H	0.290583	0.649668	0.714918
	H4331	H	0.343703	0.743441	0.865800
	Co4332	Co	0.366239	0.780945	0.625805
	Co4333	Co	0.312427	0.687753	0.625655
	Co4334	Co	0.258847	0.594369	0.874185
	Co4335	Co	0.312496	0.687599	0.874762
	C4336	C	0.263456	0.736543	0.922912
	C4337	C	0.326014	0.674100	0.924775
	C4338	C	0.298884	0.701296	0.576368
	C4339	C	0.361396	0.638680	0.577810
	C4340	C	0.298905	0.701176	0.923074
	C4341	C	0.361323	0.638570	0.925363
	C4342	C	0.263469	0.736571	0.575435
	C4343	C	0.325873	0.673876	0.577206
	C4344	C	0.300755	0.667443	0.673688
	C4345	C	0.354598	0.760671	0.673761
	C4346	C	0.270414	0.614649	0.825861
	C4347	C	0.324158	0.707892	0.826407
	C4348	C	0.270485	0.614581	0.673105
	C4349	C	0.324036	0.708049	0.673569
	C4350	C	0.300933	0.667216	0.826013
	C4351	C	0.354431	0.760775	0.826529
	C4352	C	0.267581	0.732522	0.999116
	C4353	C	0.330004	0.669840	0.500741
	C4354	C	0.294759	0.705262	0.999172
	C4355	C	0.357320	0.642724	0.501480
	C4356	C	0.297359	0.661244	0.749520
	C4357	C	0.350960	0.754641	0.749992
	C4358	C	0.273925	0.620710	0.749351
	C4359	C	0.327633	0.714052	0.749862
	C4360	C	0.274451	0.725600	0.999157
	C4361	C	0.336937	0.662963	0.500736
	C4362	C	0.287862	0.712147	0.999130
	C4363	C	0.350382	0.649598	0.501039
	C4364	C	0.291418	0.650977	0.749254
	C4365	C	0.345024	0.744413	0.749657
	C4366	C	0.279848	0.630997	0.749196
	C4367	C	0.333491	0.724364	0.749618
	C4368	C	0.277548	0.721527	1.021825
	C4369	C	0.340722	0.660154	0.985690
	C4370	C	0.284191	0.715209	0.512554
	C4371	C	0.347217	0.653554	0.524225
	C4372	C	0.284100	0.714973	1.021851
	C4373	C	0.347249	0.653557	0.985783
	C4374	C	0.277603	0.721710	0.512250
	C4375	C	0.340665	0.660077	0.524383
	C4376	C	0.288447	0.645791	0.768648
	C4377	C	0.342353	0.739006	0.684494
	C4378	C	0.282799	0.636169	0.729818
	C4379	C	0.336174	0.729772	0.815001
	C4380	C	0.282816	0.636104	0.768405
	C4381	C	0.336729	0.729258	0.684119
	C4382	C	0.288431	0.645863	0.729960
	C4383	C	0.341777	0.739533	0.814783
	N4384	N	0.257423	0.742550	0.951559
	N4385	N	0.319968	0.680064	0.953547
	N4386	N	0.304908	0.695305	0.547821
	N4387	N	0.367421	0.632630	0.549281
	N4388	N	0.304952	0.695215	0.952439
	N4389	N	0.367333	0.632505	0.954488
	N4390	N	0.257454	0.742590	0.546296
	N4391	N	0.319858	0.679932	0.548036
	N4392	N	0.305951	0.676375	0.702859
	N4393	N	0.359742	0.769611	0.702891
	N4394	N	0.265292	0.605657	0.797015
	N4395	N	0.318980	0.698960	0.797639
	N4396	N	0.265314	0.605623	0.702208
	N4397	N	0.318913	0.699046	0.702562
	N4398	N	0.306058	0.676247	0.797597
	N4399	N	0.359636	0.769665	0.797745
	H4400	H	0.255708	0.890982	0.351221
	H4401	H	0.318234	0.828572	0.350784
	H4402	H	0.289243	0.858559	0.149245
	H4403	H	0.351301	0.795129	0.147815
	H4404	H	0.289120	0.858212	0.351867
	H4405	H	0.351705	0.795660	0.351789
	H4406	H	0.255950	0.891303	0.148401
	H4407	H	0.318208	0.828522	0.149056
	H4408	H	0.290848	0.821731	0.100798
	H4409	H	0.346382	0.913022	0.100592
	H4410	H	0.262571	0.771939	0.398559
	H4411	H	0.316598	0.864754	0.399975
	H4412	H	0.262410	0.772146	0.100036
	H4413	H	0.316526	0.865185	0.102039
	H4414	H	0.291079	0.821405	0.398789
	H4415	H	0.346413	0.913170	0.399685
	H4416	H	0.266791	0.880576	0.474793
	H4417	H	0.329804	0.819008	0.552400
	H4418	H	0.278593	0.869550	-0.046111
	H4419	H	0.341470	0.807701	0.027960
	H4420	H	0.278458	0.869124	0.475061
	H4421	H	0.341506	0.807607	0.552950
	H4422	H	0.266843	0.880838	-0.046657
	H4423	H	0.329838	0.819175	0.028867
	H4424	H	0.282258	0.804871	0.251035
	H4425	H	0.337013	0.897030	0.240407
	H4426	H	0.271248	0.788712	0.248252
	H4427	H	0.325877	0.881136	0.261015
	H4428	H	0.272381	0.787616	0.251735
	H4429	H	0.326619	0.880281	0.241401
	H4430	H	0.281232	0.805795	0.248073
	H4431	H	0.336263	0.897822	0.260393
	Co4432	Co	0.359559	0.934314	0.124854
	Co4433	Co	0.303671	0.843452	0.125496
	Co4434	Co	0.249924	0.750132	0.373748
	Co4435	Co	0.303659	0.843323	0.374815
	C4436	C	0.254639	0.892109	0.423542
	C4437	C	0.317142	0.829614	0.423314
	C4438	C	0.290274	0.857274	0.076562
	C4439	C	0.352539	0.794235	0.075557
	C4440	C	0.290187	0.857061	0.424174
	C4441	C	0.352793	0.794582	0.424249
	C4442	C	0.254715	0.892274	0.075389
	C4443	C	0.317116	0.829646	0.076298
	C4444	C	0.291900	0.823259	0.173627
	C4445	C	0.347348	0.914608	0.173547
	C4446	C	0.261580	0.770363	0.325576
	C4447	C	0.315616	0.863277	0.326916
	C4448	C	0.261492	0.770480	0.172918
	C4449	C	0.315569	0.863479	0.174757
	C4450	C	0.292016	0.823080	0.326027
	C4451	C	0.347371	0.914691	0.326619
	C4452	C	0.258756	0.888130	0.499737
	C4453	C	0.321253	0.825603	-0.000011
	C4454	C	0.286105	0.861101	0.500520
	C4455	C	0.348584	0.798507	-0.000738
	C4456	C	0.288481	0.817031	0.249592
	C4457	C	0.343701	0.908725	0.250256
	C4458	C	0.265046	0.776534	0.249342
	C4459	C	0.319225	0.869308	0.251044
	C4460	C	0.265707	0.881295	0.499944
	C4461	C	0.328163	0.818701	-0.000114
	C4462	C	0.279176	0.867985	0.500342
	C4463	C	0.341666	0.805367	-0.000767
	C4464	C	0.282542	0.806778	0.249484
	C4465	C	0.337467	0.898759	0.250409
	C4466	C	0.270980	0.786778	0.249923
	C4467	C	0.325407	0.879340	0.251444
	C4468	C	0.269249	0.877984	0.485596
	C4469	C	0.332023	0.815942	0.528915
	C4470	C	0.275858	0.871684	-0.026015
	C4471	C	0.338604	0.809554	0.015165
	C4472	C	0.275819	0.871532	0.485962
	C4473	C	0.338616	0.809483	0.529303
	C4474	C	0.269246	0.878110	-0.026627
	C4475	C	0.332040	0.816078	0.015823
	C4476	C	0.279879	0.801346	0.250382
	C4477	C	0.334571	0.893555	0.245154
	C4478	C	0.273686	0.792156	0.249068
	C4479	C	0.328306	0.884562	0.256460
	C4480	C	0.274258	0.791616	0.250558
	C4481	C	0.328716	0.884116	0.245730
	C4482	C	0.279276	0.801895	0.248831
	C4483	C	0.334157	0.894007	0.256098
	N4484	N	0.248592	0.898125	0.452640
	N4485	N	0.311109	0.835615	0.452302
	N4486	N	0.296283	0.851214	0.047550
	N4487	N	0.358665	0.788366	0.047060
	N4488	N	0.296204	0.850989	0.453139
	N4489	N	0.358843	0.788595	0.453163
	N4490	N	0.248659	0.898259	0.046883
	N4491	N	0.311096	0.835668	0.047436
	N4492	N	0.297109	0.832160	0.202678
	N4493	N	0.352734	0.923349	0.202281
	N4494	N	0.256384	0.761463	0.296522
	N4495	N	0.310262	0.854545	0.297846
	N4496	N	0.256335	0.761523	0.201831
	N4497	N	0.310230	0.854665	0.203212
	N4498	N	0.297179	0.832046	0.297246
	N4499	N	0.352752	0.923418	0.297352
	H4500	H	0.255504	0.890741	0.849820
	H4501	H	0.318296	0.828541	0.850926
	H4502	H	0.289124	0.858172	0.649361
	H4503	H	0.351566	0.795588	0.648673
	H4504	H	0.288993	0.858051	0.851172
	H4505	H	0.351831	0.795861	0.850949
	H4506	H	0.255866	0.891115	0.648228
	H4507	H	0.318277	0.828334	0.648396
	H4508	H	0.291166	0.821344	0.601553
	H4509	H	0.346434	0.912988	0.600680
	H4510	H	0.262626	0.771936	0.898188
	H4511	H	0.316682	0.864867	0.899205
	H4512	H	0.262451	0.772114	0.600445
	H4513	H	0.316537	0.864951	0.600345
	H4514	H	0.290774	0.821656	0.899640
	H4515	H	0.346338	0.912996	0.899509
	H4516	H	0.266186	0.879651	1.045831
	H4517	H	0.328335	0.816373	0.971654
	H4518	H	0.278160	0.868738	0.524968
	H4519	H	0.340119	0.804991	0.446020
	H4520	H	0.277880	0.868212	1.046095
	H4521	H	0.340008	0.804834	0.971276
	H4522	H	0.266479	0.880230	0.525446
	H4523	H	0.328398	0.816394	0.445513
	H4524	H	0.281637	0.805404	0.661913
	H4525	H	0.336634	0.897398	0.728583
	H4526	H	0.271847	0.788154	0.837904
	H4527	H	0.326247	0.880625	0.771468
	H4528	H	0.271734	0.788265	0.662164
	H4529	H	0.326229	0.880716	0.729215
	H4530	H	0.281736	0.805317	0.838650
	H4531	H	0.336606	0.897286	0.771682
	Co4532	Co	0.359651	0.934229	0.625402
	Co4533	Co	0.303666	0.843277	0.625587
	Co4534	Co	0.249918	0.750154	0.873745
	Co4535	Co	0.303619	0.843322	0.875140
	C4536	C	0.254496	0.892003	0.922789
	C4537	C	0.317147	0.829672	0.923800
	C4538	C	0.290178	0.857044	0.576813
	C4539	C	0.352731	0.794541	0.576229
	C4540	C	0.290150	0.857054	0.923751
	C4541	C	0.352813	0.794618	0.923373
	C4542	C	0.254719	0.892173	0.576138
	C4543	C	0.317134	0.829511	0.575630
	C4544	C	0.292050	0.823072	0.674046
	C4545	C	0.347406	0.914627	0.673538
	C4546	C	0.261622	0.770335	0.825435
	C4547	C	0.315626	0.863305	0.826545
	C4548	C	0.261525	0.770440	0.672949
	C4549	C	0.315547	0.863345	0.673484
	C4550	C	0.291854	0.823193	0.826833
	C4551	C	0.347363	0.914628	0.826503
	C4552	C	0.258670	0.888026	0.998969
	C4553	C	0.321209	0.825464	0.499176
	C4554	C	0.286106	0.861205	1.000246
	C4555	C	0.348686	0.798603	0.500000
	C4556	C	0.288424	0.817049	0.750355
	C4557	C	0.343687	0.908699	0.749973
	C4558	C	0.265055	0.776483	0.749237
	C4559	C	0.319214	0.869312	0.749812
	C4560	C	0.265587	0.881152	0.999051
	C4561	C	0.328146	0.818598	0.498975
	C4562	C	0.279140	0.867967	1.000213
	C4563	C	0.341710	0.805400	0.499573
	C4564	C	0.282460	0.806818	0.750331
	C4565	C	0.337490	0.898722	0.750032
	C4566	C	0.270940	0.786770	0.749763
	C4567	C	0.325410	0.879280	0.749745
	C4568	C	0.268849	0.877401	1.025497
	C4569	C	0.331197	0.814495	0.983992
	C4570	C	0.275655	0.871320	0.514395
	C4571	C	0.337842	0.808061	0.469385
	C4572	C	0.275483	0.871015	1.025921
	C4573	C	0.337782	0.807974	0.983717
	C4574	C	0.269083	0.877792	0.514371
	C4575	C	0.331242	0.814509	0.469140
	C4576	C	0.279490	0.801694	0.700851
	C4577	C	0.334401	0.893776	0.738011
	C4578	C	0.273931	0.791914	0.799356
	C4579	C	0.328477	0.884265	0.761928
	C4580	C	0.273885	0.791974	0.700687
	C4581	C	0.328524	0.884308	0.737971
	C4582	C	0.279532	0.801642	0.799690
	C4583	C	0.334357	0.893712	0.762050
	N4584	N	0.248531	0.898110	0.952150
	N4585	N	0.311107	0.835677	0.952790
	N4586	N	0.296179	0.850953	0.547863
	N4587	N	0.358808	0.788585	0.547578
	N4588	N	0.296203	0.851076	0.952695
	N4589	N	0.358826	0.788560	0.952634
	N4590	N	0.248658	0.898186	0.547537
	N4591	N	0.311093	0.835540	0.547186
	N4592	N	0.297192	0.832009	0.703273
	N4593	N	0.352792	0.923294	0.702597
	N4594	N	0.256426	0.761410	0.796548
	N4595	N	0.310236	0.854556	0.797754
	N4596	N	0.256375	0.761471	0.701499
	N4597	N	0.310200	0.854589	0.702558
	N4598	N	0.297054	0.832112	0.798040
	N4599	N	0.352767	0.923305	0.797708
	H4600	H	0.249081	1.043938	0.351422
	H4601	H	0.311529	0.981480	0.351298
	H4602	H	0.282859	1.012198	0.149359
	H4603	H	0.345241	0.949542	0.147754
	H4604	H	0.282800	1.011914	0.352164
	H4605	H	0.345192	0.949335	0.351846
	H4606	H	0.248996	1.043956	0.148494
	H4607	H	0.311520	0.981599	0.148076
	H4608	H	0.283749	0.975613	0.101912
	H4609	H	0.346548	1.057160	0.100334
	H4610	H	0.254151	0.927264	0.399565
	H4611	H	0.311349	1.016596	0.399579
	H4612	H	0.253922	0.927509	0.100967
	H4613	H	0.311482	1.016499	0.100625
	H4614	H	0.283856	0.975449	0.398920
	H4615	H	0.346501	1.057545	0.400258
	H4616	H	0.259917	1.033358	0.473659
	H4617	H	0.322173	0.970585	0.503115
	H4618	H	0.271458	1.021814	-0.097671
	H4619	H	0.333632	0.958644	0.046654
	H4620	H	0.271691	1.022099	0.473292
	H4621	H	0.334083	0.959480	0.503650
	H4622	H	0.259608	1.032936	-0.098506
	H4623	H	0.321805	0.969793	0.047212
	H4624	H	0.274860	0.958952	0.275977
	H4625	H	0.335579	1.043073	0.317088
	H4626	H	0.262954	0.944016	0.224868
	H4627	H	0.322115	1.031193	0.183846
	H4628	H	0.264449	0.942289	0.276369
	H4629	H	0.323411	1.028922	0.316934
	H4630	H	0.273311	0.960801	0.224618
	H4631	H	0.334304	1.045387	0.183498
	Co4632	Co	0.362492	1.074921	0.125090
	Co4633	Co	0.297129	0.996727	0.125968
	Co4634	Co	0.241152	0.905777	0.374770
	Co4635	Co	0.297097	0.996644	0.375235
	C4636	C	0.247915	1.045123	0.424062
	C4637	C	0.310432	0.982596	0.424275
	C4638	C	0.283928	1.011016	0.076697
	C4639	C	0.346356	0.948381	0.075364
	C4640	C	0.283925	1.010816	0.424802
	C4641	C	0.346385	0.948272	0.424285
	C4642	C	0.247824	1.045050	0.075684
	C4643	C	0.310359	0.982631	0.076131
	C4644	C	0.284782	0.977161	0.174059
	C4645	C	0.347732	1.058607	0.173578
	C4646	C	0.253141	0.925759	0.326362
	C4647	C	0.310287	1.015089	0.326440
	C4648	C	0.253055	0.925888	0.174037
	C4649	C	0.310355	1.015073	0.173650
	C4650	C	0.284819	0.977102	0.326549
	C4651	C	0.347696	1.058796	0.326901
	C4652	C	0.252086	1.041177	0.500556
	C4653	C	0.314446	0.978544	-0.000296
	C4654	C	0.279780	1.014825	0.500746
	C4655	C	0.342211	0.952326	-0.000837
	C4656	C	0.281149	0.971283	0.250291
	C4657	C	0.343307	1.053800	0.250430
	C4658	C	0.256719	0.931737	0.250283
	C4659	C	0.314540	1.020320	0.250124
	C4660	C	0.259050	1.034416	0.500708
	C4661	C	0.321480	0.971911	-0.000788
	C4662	C	0.272734	1.021448	0.500598
	C4663	C	0.335191	0.958983	-0.001199
	C4664	C	0.274924	0.961287	0.250285
	C4665	C	0.335973	1.045419	0.250405
	C4666	C	0.262875	0.941815	0.250455
	C4667	C	0.321747	1.028928	0.250378
	C4668	C	0.262484	1.030999	0.485467
	C4669	C	0.324921	0.968343	0.502062
	C4670	C	0.269050	1.024583	-0.054843
	C4671	C	0.331344	0.961611	0.025856
	C4672	C	0.269155	1.024653	0.485335
	C4673	C	0.331614	0.962076	0.502423
	C4674	C	0.262338	1.030801	-0.055477
	C4675	C	0.324657	0.967911	0.026050
	C4676	C	0.272250	0.955773	0.264825
	C4677	C	0.332656	1.040542	0.287881
	C4678	C	0.265540	0.947311	0.236024
	C4679	C	0.325039	1.033791	0.212833
	C4680	C	0.266401	0.946331	0.264875
	C4681	C	0.325741	1.032530	0.287669
	C4682	C	0.271376	0.956769	0.235987
	C4683	C	0.331957	1.041824	0.212826
	N4684	N	0.241828	1.051053	0.452605
	N4685	N	0.304309	0.988529	0.453057
	N4686	N	0.290002	1.005014	0.048022
	N4687	N	0.352419	0.942388	0.046852
	N4688	N	0.289984	1.004852	0.453668
	N4689	N	0.352450	0.942307	0.452794
	N4690	N	0.241730	1.050984	0.047172
	N4691	N	0.304274	0.988561	0.047732
	N4692	N	0.290222	0.985848	0.202827
	N4693	N	0.354197	1.065808	0.202263
	N4694	N	0.247778	0.916989	0.297503
	N4695	N	0.304173	1.007337	0.297420
	N4696	N	0.247747	0.917065	0.202806
	N4697	N	0.304228	1.007336	0.202619
	N4698	N	0.290247	0.985800	0.297814
	N4699	N	0.354173	1.065929	0.297516
	H4700	H	0.249011	1.044221	0.850429
	H4701	H	0.311416	0.981494	0.851876
	H4702	H	0.282577	1.011666	0.648913
	H4703	H	0.345313	0.949461	0.648872
	H4704	H	0.282753	1.011823	0.851172
	H4705	H	0.345240	0.949300	0.851088
	H4706	H	0.249196	1.044246	0.649550
	H4707	H	0.311468	0.981445	0.649821
	H4708	H	0.283859	0.975595	0.601125
	H4709	H	0.346545	1.057211	0.601044
	H4710	H	0.253988	0.927511	0.899505
	H4711	H	0.311441	1.016477	0.900874
	H4712	H	0.254204	0.927324	0.600515
	H4713	H	0.311527	1.016644	0.601610
	H4714	H	0.284007	0.975208	0.899789
	H4715	H	0.346526	1.057478	0.901081
	H4716	H	0.260195	1.034124	1.097662
	H4717	H	0.323058	0.972319	0.951323
	H4718	H	0.271894	1.022496	0.527871
	H4719	H	0.334689	0.960484	0.498073
	H4720	H	0.272077	1.022986	1.098007
	H4721	H	0.334869	0.961139	0.950584
	H4722	H	0.260105	1.033699	0.527817
	H4723	H	0.322828	0.971647	0.497771
	H4724	H	0.274201	0.959850	0.658543
	H4725	H	0.335132	1.044036	0.813251
	H4726	H	0.263687	0.943226	0.842085
	H4727	H	0.322534	1.030569	0.690188
	H4728	H	0.263862	0.943118	0.657864
	H4729	H	0.322995	1.029734	0.813357
	H4730	H	0.274066	0.959898	0.842286
	H4731	H	0.334727	1.044705	0.689846
	Co4732	Co	0.362464	1.074976	0.625202
	Co4733	Co	0.297161	0.996799	0.626124
	Co4734	Co	0.241122	0.905865	0.874351
	Co4735	Co	0.297098	0.996727	0.875168
	C4736	C	0.247837	1.045170	0.923415
	C4737	C	0.310299	0.982573	0.924157
	C4738	C	0.283825	1.010676	0.576812
	C4739	C	0.346434	0.948329	0.576477
	C4740	C	0.283854	1.010826	0.923758
	C4741	C	0.346358	0.948248	0.923468
	C4742	C	0.247973	1.045282	0.576582
	C4743	C	0.310399	0.982591	0.576889
	C4744	C	0.284863	0.977219	0.674061
	C4745	C	0.347748	1.058673	0.674088
	C4746	C	0.253084	0.925870	0.826612
	C4747	C	0.310353	1.015076	0.827666
	C4748	C	0.253179	0.925771	0.673414
	C4749	C	0.310391	1.015153	0.674750
	C4750	C	0.284923	0.977023	0.826831
	C4751	C	0.347753	1.058779	0.827671
	C4752	C	0.251936	1.041072	0.999331
	C4753	C	0.314536	0.978645	0.500484
	C4754	C	0.279767	1.014921	1.000095
	C4755	C	0.342319	0.952340	0.500638
	C4756	C	0.281171	0.971228	0.750128
	C4757	C	0.343336	1.053841	0.751073
	C4758	C	0.256812	0.931806	0.750085
	C4759	C	0.314580	1.020365	0.751462
	C4760	C	0.258998	1.034419	0.999317
	C4761	C	0.321552	0.971924	0.500496
	C4762	C	0.272735	1.021625	1.000209
	C4763	C	0.335287	0.959061	0.500834
	C4764	C	0.275012	0.961263	0.749905
	C4765	C	0.335976	1.045492	0.751545
	C4766	C	0.262982	0.941787	0.749875
	C4767	C	0.321774	1.028995	0.751897
	C4768	C	0.262662	1.031451	1.054535
	C4769	C	0.325345	0.969304	0.971921
	C4770	C	0.269287	1.024855	0.515705
	C4771	C	0.331975	0.962676	0.499175
	C4772	C	0.269363	1.025210	1.055021
	C4773	C	0.332036	0.962995	0.971923
	C4774	C	0.262608	1.031181	0.515751
	C4775	C	0.325282	0.968949	0.499080
	C4776	C	0.271956	0.956239	0.698596
	C4777	C	0.332435	1.041084	0.786350
	C4778	C	0.266002	0.946822	0.801626
	C4779	C	0.325279	1.033460	0.717006
	C4780	C	0.266088	0.946751	0.698354
	C4781	C	0.325514	1.033071	0.786427
	C4782	C	0.271878	0.956289	0.801686
	C4783	C	0.332185	1.041487	0.716914
	N4784	N	0.241746	1.051062	0.952729
	N4785	N	0.304256	0.988546	0.953354
	N4786	N	0.289922	1.004783	0.548163
	N4787	N	0.352457	0.942312	0.547526
	N4788	N	0.289966	1.004899	0.953136
	N4789	N	0.352426	0.942320	0.952618
	N4790	N	0.241858	1.051124	0.547442
	N4791	N	0.304295	0.988544	0.547992
	N4792	N	0.290260	0.985888	0.703215
	N4793	N	0.354240	1.065831	0.702885
	N4794	N	0.247750	0.917135	0.797554
	N4795	N	0.304218	1.007338	0.798149
	N4796	N	0.247825	0.917086	0.702590
	N4797	N	0.304235	1.007401	0.703341
	N4798	N	0.290297	0.985771	0.798338
	N4799	N	0.354231	1.065910	0.798180
	H4800	H	0.387409	0.106533	0.348319
	H4801	H	0.449892	0.044001	0.347785
	H4802	H	0.425160	0.080816	0.151009
	H4803	H	0.487657	0.018263	0.151111
	H4804	H	0.425112	0.080745	0.347930
	H4805	H	0.487625	0.018161	0.347657
	H4806	H	0.387389	0.106552	0.150750
	H4807	H	0.449821	0.043959	0.151452
	H4808	H	0.418960	0.056321	0.098292
	H4809	H	0.494159	0.045466	0.097404
	H4810	H	0.380899	0.079667	0.401420
	H4811	H	0.456010	0.068544	0.401617
	H4812	H	0.380845	0.079448	0.097879
	H4813	H	0.456022	0.068514	0.098148
	H4814	H	0.419009	0.056483	0.401718
	H4815	H	0.494176	0.045327	0.400691
	H4816	H	0.399789	0.097758	0.348980
	H4817	H	0.462265	0.035110	0.649448
	H4818	H	0.412917	0.089755	0.149961
	H4819	H	0.475394	0.027314	-0.149890
	H4820	H	0.412805	0.089438	0.348965
	H4821	H	0.475291	0.026810	0.649419
	H4822	H	0.399832	0.097891	0.150171
	H4823	H	0.462380	0.035464	-0.149852
	H4824	H	0.405944	0.062709	0.400736
	H4825	H	0.481637	0.052945	0.098812
	H4826	H	0.393370	0.071840	0.099442
	H4827	H	0.469127	0.062334	0.400060
	H4828	H	0.393370	0.071861	0.400502
	H4829	H	0.468983	0.062083	0.099411
	H4830	H	0.406005	0.062747	0.099543
	H4831	H	0.481757	0.053190	0.399988
	Co4832	Co	0.512611	0.049977	0.124600
	Co4833	Co	0.437551	0.062496	0.125885
	Co4834	Co	0.362433	0.075022	0.374891
	Co4835	Co	0.437545	0.062424	0.373567
	C4836	C	0.386407	0.107775	0.422492
	C4837	C	0.448921	0.045259	0.422349
	C4838	C	0.426219	0.079638	0.076847
	C4839	C	0.488697	0.017071	0.077086
	C4840	C	0.426180	0.079500	0.422407
	C4841	C	0.488735	0.017039	0.422150
	C4842	C	0.386370	0.107715	0.076714
	C4843	C	0.448838	0.045283	0.077028
	C4844	C	0.420490	0.056443	0.172440
	C4845	C	0.495707	0.045363	0.171586
	C4846	C	0.379392	0.079721	0.327173
	C4847	C	0.454551	0.068433	0.327245
	C4848	C	0.379371	0.079639	0.172580
	C4849	C	0.454551	0.068444	0.172563
	C4850	C	0.420508	0.056473	0.327032
	C4851	C	0.495692	0.045255	0.326325
	C4852	C	0.390718	0.103860	0.499612
	C4853	C	0.453173	0.041360	0.000372
	C4854	C	0.421843	0.083341	0.499813
	C4855	C	0.484369	0.020942	0.000330
	C4856	C	0.415261	0.057476	0.249809
	C4857	C	0.490638	0.047003	0.248862
	C4858	C	0.384472	0.078025	0.249798
	C4859	C	0.459782	0.067419	0.249734
	C4860	C	0.398486	0.098470	0.499721
	C4861	C	0.460949	0.035956	0.000566
	C4862	C	0.414061	0.088766	0.499532
	C4863	C	0.476596	0.026330	0.000450
	C4864	C	0.407167	0.061913	0.250063
	C4865	C	0.482765	0.052076	0.249178
	C4866	C	0.392332	0.072977	0.249922
	C4867	C	0.467872	0.063036	0.249637
	C4868	C	0.402561	0.096014	0.416221
	C4869	C	0.465045	0.033373	0.582521
	C4870	C	0.410115	0.091489	0.083172
	C4871	C	0.472562	0.028880	-0.082883
	C4872	C	0.410059	0.091303	0.415975
	C4873	C	0.472546	0.028684	0.582543
	C4874	C	0.402599	0.096124	0.083298
	C4875	C	0.465074	0.033599	-0.082742
	C4876	C	0.403297	0.064668	0.333727
	C4877	C	0.478920	0.054899	0.165735
	C4878	C	0.396111	0.070020	0.166355
	C4879	C	0.471780	0.060357	0.333152
	C4880	C	0.396111	0.070012	0.333611
	C4881	C	0.471692	0.060181	0.166129
	C4882	C	0.403312	0.064683	0.166386
	C4883	C	0.479027	0.055117	0.333107
	N4884	N	0.380255	0.113789	0.451261
	N4885	N	0.442824	0.051322	0.451016
	N4886	N	0.432354	0.073626	0.048327
	N4887	N	0.494823	0.011040	0.048341
	N4888	N	0.432382	0.073544	0.451370
	N4889	N	0.494878	0.011017	0.451245
	N4890	N	0.380230	0.113705	0.048301
	N4891	N	0.442731	0.051337	0.048247
	N4892	N	0.428359	0.055673	0.200969
	N4893	N	0.503420	0.043535	0.199847
	N4894	N	0.371633	0.081453	0.299040
	N4895	N	0.446680	0.069267	0.298515
	N4896	N	0.371625	0.081409	0.200979
	N4897	N	0.446693	0.069301	0.201041
	N4898	N	0.428347	0.055664	0.298670
	N4899	N	0.503426	0.043473	0.297954
	H4900	H	0.387391	0.106548	0.848051
	H4901	H	0.449936	0.044092	0.848640
	H4902	H	0.425083	0.080809	0.651570
	H4903	H	0.487693	0.018406	0.651021
	H4904	H	0.425368	0.081100	0.848368
	H4905	H	0.487731	0.018366	0.848701
	H4906	H	0.387387	0.106458	0.651111
	H4907	H	0.449950	0.043994	0.650472
	H4908	H	0.419040	0.056356	0.598590
	H4909	H	0.494295	0.045146	0.597266
	H4910	H	0.380974	0.079803	0.901036
	H4911	H	0.456215	0.068460	0.901510
	H4912	H	0.380914	0.079537	0.597869
	H4913	H	0.456177	0.068419	0.597822
	H4914	H	0.419072	0.056668	0.901328
	H4915	H	0.494272	0.045230	0.901258
	H4916	H	0.399762	0.097687	0.849989
	H4917	H	0.462119	0.035036	1.150605
	H4918	H	0.412816	0.089433	0.649816
	H4919	H	0.475450	0.027190	0.348848
	H4920	H	0.412839	0.089620	0.849586
	H4921	H	0.475274	0.026930	1.150211
	H4922	H	0.399725	0.097703	0.650211
	H4923	H	0.462356	0.035317	0.348716
	H4924	H	0.406068	0.062825	0.600087
	H4925	H	0.481858	0.053046	0.598450
	H4926	H	0.393343	0.071802	0.900096
	H4927	H	0.469163	0.062083	0.899688
	H4928	H	0.393451	0.071876	0.600045
	H4929	H	0.469197	0.062196	0.598971
	H4930	H	0.405953	0.062669	0.900473
	H4931	H	0.481777	0.053009	0.899529
	Co4932	Co	0.512693	0.049852	0.624676
	Co4933	Co	0.437616	0.062456	0.625638
	Co4934	Co	0.362543	0.075016	0.874468
	Co4935	Co	0.437645	0.062587	0.873929
	C4936	C	0.386395	0.107756	0.922764
	C4937	C	0.448895	0.045312	0.922966
	C4938	C	0.426211	0.079534	0.576680
	C4939	C	0.488769	0.017095	0.576510
	C4940	C	0.426314	0.079779	0.922791
	C4941	C	0.488706	0.017117	0.922953
	C4942	C	0.386388	0.107740	0.576456
	C4943	C	0.448933	0.045249	0.576320
	C4944	C	0.420542	0.056558	0.672953
	C4945	C	0.495802	0.045152	0.671926
	C4946	C	0.379431	0.079798	0.826617
	C4947	C	0.454720	0.068345	0.826786
	C4948	C	0.379420	0.079655	0.672139
	C4949	C	0.454674	0.068310	0.672259
	C4950	C	0.420563	0.056677	0.827456
	C4951	C	0.495757	0.045134	0.826699
	C4952	C	0.390710	0.103851	0.999964
	C4953	C	0.453237	0.041321	0.499298
	C4954	C	0.421947	0.083596	0.999824
	C4955	C	0.484439	0.020940	0.499398
	C4956	C	0.415334	0.057601	0.750340
	C4957	C	0.490687	0.046786	0.748943
	C4958	C	0.384529	0.078121	0.749630
	C4959	C	0.459899	0.067287	0.749204
	C4960	C	0.398510	0.098499	1.000148
	C4961	C	0.461008	0.035934	0.499263
	C4962	C	0.414143	0.088954	0.999890
	C4963	C	0.476644	0.026315	0.499269
	C4964	C	0.407232	0.061986	0.750385
	C4965	C	0.482850	0.051855	0.748837
	C4966	C	0.392382	0.073027	0.750044
	C4967	C	0.467994	0.062910	0.749094
	C4968	C	0.402549	0.095987	0.916924
	C4969	C	0.464932	0.033320	1.083652
	C4970	C	0.410033	0.091304	0.582893
	C4971	C	0.472636	0.028907	0.415841
	C4972	C	0.410084	0.091382	0.916535
	C4973	C	0.472481	0.028724	1.083513
	C4974	C	0.402524	0.095969	0.583142
	C4975	C	0.465093	0.033513	0.415940
	C4976	C	0.403380	0.064767	0.666841
	C4977	C	0.479103	0.054862	0.665409
	C4978	C	0.396104	0.069980	0.833463
	C4979	C	0.471863	0.060170	0.832770
	C4980	C	0.396165	0.070026	0.666755
	C4981	C	0.471887	0.060162	0.665621
	C4982	C	0.403309	0.064661	0.833674
	C4983	C	0.479064	0.054857	0.832517
	N4984	N	0.380258	0.113788	0.951361
	N4985	N	0.442772	0.051379	0.951607
	N4986	N	0.432387	0.073560	0.547860
	N4987	N	0.494880	0.011024	0.547797
	N4988	N	0.432437	0.073724	0.951588
	N4989	N	0.494827	0.011059	0.951573
	N4990	N	0.380271	0.113768	0.548274
	N4991	N	0.442817	0.051295	0.547965
	N4992	N	0.428421	0.055807	0.701402
	N4993	N	0.503533	0.043410	0.700409
	N4994	N	0.371690	0.081444	0.798294
	N4995	N	0.446868	0.069188	0.798469
	N4996	N	0.371677	0.081369	0.700319
	N4997	N	0.446846	0.069163	0.700761
	N4998	N	0.428439	0.055878	0.798896
	N4999	N	0.503523	0.043412	0.798470
	H5000	H	0.401862	0.159844	0.349389
	H5001	H	0.464321	0.097159	0.348611
	H5002	H	0.438637	0.132158	0.150505
	H5003	H	0.501051	0.069591	0.150561
	H5004	H	0.438484	0.132060	0.348429
	H5005	H	0.501031	0.069643	0.348612
	H5006	H	0.401869	0.159617	0.149410
	H5007	H	0.464359	0.097019	0.149866
	H5008	H	0.431748	0.107699	0.097615
	H5009	H	0.501144	0.170709	0.100503
	H5010	H	0.393655	0.131049	0.401097
	H5011	H	0.466138	0.130018	0.400142
	H5012	H	0.393590	0.130916	0.097761
	H5013	H	0.466086	0.130064	0.099445
	H5014	H	0.431741	0.107839	0.401136
	H5015	H	0.500925	0.171202	0.399104
	H5016	H	0.414276	0.151511	0.351731
	H5017	H	0.476889	0.089140	0.350793
	H5018	H	0.427044	0.142355	0.147598
	H5019	H	0.489695	0.080131	0.147606
	H5020	H	0.427084	0.142667	0.351509
	H5021	H	0.489624	0.080083	0.351379
	H5022	H	0.414294	0.151457	0.146883
	H5023	H	0.476864	0.089095	0.147771
	H5024	H	0.419281	0.115420	0.399664
	H5025	H	0.489776	0.157461	0.216324
	H5026	H	0.406731	0.124679	0.098686
	H5027	H	0.477787	0.142913	0.284520
	H5028	H	0.406667	0.124721	0.399631
	H5029	H	0.477583	0.143282	0.216406
	H5030	H	0.419305	0.115549	0.098867
	H5031	H	0.489948	0.157102	0.284514
	Co5032	Co	0.515387	0.190753	0.125169
	Co5033	Co	0.450191	0.112438	0.124791
	Co5034	Co	0.375104	0.125002	0.373844
	Co5035	Co	0.450161	0.112492	0.374422
	C5036	C	0.400600	0.160549	0.423275
	C5037	C	0.463121	0.098043	0.422362
	C5038	C	0.439545	0.130743	0.076319
	C5039	C	0.501981	0.068247	0.076266
	C5040	C	0.439432	0.130695	0.422601
	C5041	C	0.501935	0.068190	0.422945
	C5042	C	0.400649	0.160504	0.075588
	C5043	C	0.463098	0.097950	0.076460
	C5044	C	0.433249	0.107686	0.172123
	C5045	C	0.502252	0.172274	0.173683
	C5046	C	0.392145	0.130871	0.326671
	C5047	C	0.464924	0.128716	0.326505
	C5048	C	0.392116	0.130778	0.172112
	C5049	C	0.464906	0.128731	0.172691
	C5050	C	0.433262	0.107758	0.327012
	C5051	C	0.502119	0.172524	0.326566
	C5052	C	0.405117	0.157144	0.500023
	C5053	C	0.467691	0.094704	-0.000228
	C5054	C	0.435470	0.135214	0.499721
	C5055	C	0.498026	0.072750	-0.000626
	C5056	C	0.428172	0.109348	0.249592
	C5057	C	0.498008	0.167139	0.250257
	C5058	C	0.397361	0.129854	0.249441
	C5059	C	0.469315	0.133653	0.249505
	C5060	C	0.412995	0.152049	0.499822
	C5061	C	0.475532	0.089515	-0.000233
	C5062	C	0.428146	0.141541	0.499703
	C5063	C	0.490692	0.079039	-0.000465
	C5064	C	0.420322	0.114416	0.249493
	C5065	C	0.490845	0.158489	0.250311
	C5066	C	0.405490	0.125483	0.249295
	C5067	C	0.476662	0.141978	0.249915
	C5068	C	0.417009	0.149580	0.417310
	C5069	C	0.479537	0.087052	0.416998
	C5070	C	0.424336	0.144359	0.081807
	C5071	C	0.486889	0.082001	0.081998
	C5072	C	0.424317	0.144459	0.417260
	C5073	C	0.486841	0.081936	0.417333
	C5074	C	0.417036	0.149490	0.081430
	C5075	C	0.479570	0.087083	0.082104
	C5076	C	0.416540	0.117333	0.332978
	C5077	C	0.487169	0.154308	0.231383
	C5078	C	0.409375	0.122716	0.165690
	C5079	C	0.480370	0.146094	0.269239
	C5080	C	0.409349	0.122694	0.332989
	C5081	C	0.480269	0.146262	0.231247
	C5082	C	0.416574	0.117414	0.165819
	C5083	C	0.487270	0.154142	0.269385
	N5084	N	0.393889	0.165385	0.451853
	N5085	N	0.456442	0.102906	0.451159
	N5086	N	0.445074	0.123790	0.047359
	N5087	N	0.507562	0.061382	0.047279
	N5088	N	0.445035	0.123814	0.451829
	N5089	N	0.507492	0.061259	0.451800
	N5090	N	0.393957	0.165376	0.047307
	N5091	N	0.456398	0.102836	0.047564
	N5092	N	0.441006	0.105993	0.200707
	N5093	N	0.508344	0.180089	0.202438
	N5094	N	0.384279	0.131680	0.298270
	N5095	N	0.458445	0.121578	0.297403
	N5096	N	0.384256	0.131618	0.200526
	N5097	N	0.458444	0.121572	0.201967
	N5098	N	0.441008	0.106054	0.298543
	N5099	N	0.508270	0.180223	0.297614
	H5100	H	0.401789	0.159561	0.848178
	H5101	H	0.464347	0.097040	0.849142
	H5102	H	0.438494	0.132067	0.650620
	H5103	H	0.501012	0.069412	0.651543
	H5104	H	0.438392	0.131791	0.847872
	H5105	H	0.501069	0.069728	0.848119
	H5106	H	0.401789	0.159512	0.649899
	H5107	H	0.464424	0.097277	0.649559
	H5108	H	0.431734	0.107642	0.597093
	H5109	H	0.500974	0.171154	0.600833
	H5110	H	0.393673	0.131006	0.901260
	H5111	H	0.465989	0.130071	0.899650
	H5112	H	0.393654	0.130915	0.597834
	H5113	H	0.465942	0.130152	0.599399
	H5114	H	0.431726	0.107638	0.900632
	H5115	H	0.501105	0.171007	0.899114
	H5116	H	0.414336	0.151388	0.850671
	H5117	H	0.476735	0.088813	0.851729
	H5118	H	0.427002	0.142381	0.647304
	H5119	H	0.489474	0.079959	0.648857
	H5120	H	0.427044	0.142324	0.850879
	H5121	H	0.489475	0.079792	0.851479
	H5122	H	0.414199	0.151319	0.647253
	H5123	H	0.476704	0.088877	0.648122
	H5124	H	0.419287	0.115429	0.899158
	H5125	H	0.489464	0.157883	0.811476
	H5126	H	0.406601	0.124591	0.599060
	H5127	H	0.477932	0.142645	0.687811
	H5128	H	0.406669	0.124652	0.899578
	H5129	H	0.477326	0.143673	0.811820
	H5130	H	0.419237	0.115431	0.598598
	H5131	H	0.490105	0.156804	0.687351
	Co5132	Co	0.515475	0.190693	0.625340
	Co5133	Co	0.450111	0.112392	0.624858
	Co5134	Co	0.375086	0.124975	0.874004
	Co5135	Co	0.450114	0.112369	0.873904
	C5136	C	0.400618	0.160434	0.922111
	C5137	C	0.463120	0.097958	0.922856
	C5138	C	0.439428	0.130699	0.576565
	C5139	C	0.501926	0.068112	0.577008
	C5140	C	0.439400	0.130531	0.922129
	C5141	C	0.501983	0.068283	0.922287
	C5142	C	0.400531	0.160420	0.576494
	C5143	C	0.463143	0.098091	0.576086
	C5144	C	0.433233	0.107602	0.671472
	C5145	C	0.502158	0.172468	0.673550
	C5146	C	0.392134	0.130868	0.826984
	C5147	C	0.464867	0.128705	0.826336
	C5148	C	0.392134	0.130823	0.672345
	C5149	C	0.464848	0.128733	0.672846
	C5150	C	0.433214	0.107569	0.826134
	C5151	C	0.502196	0.172405	0.825765
	C5152	C	0.405247	0.157252	0.998859
	C5153	C	0.467689	0.094754	0.499234
	C5154	C	0.435512	0.135122	0.999328
	C5155	C	0.497970	0.072638	0.500109
	C5156	C	0.428134	0.109206	0.748765
	C5157	C	0.497981	0.167188	0.749449
	C5158	C	0.397357	0.129809	0.749646
	C5159	C	0.469270	0.133586	0.749545
	C5160	C	0.413082	0.152048	0.999010
	C5161	C	0.475508	0.089577	0.499453
	C5162	C	0.428182	0.141475	0.999403
	C5163	C	0.490640	0.078952	0.500153
	C5164	C	0.420290	0.114303	0.749005
	C5165	C	0.490777	0.158561	0.749120
	C5166	C	0.405454	0.125375	0.749505
	C5167	C	0.476604	0.141999	0.749530
	C5168	C	0.417039	0.149419	0.916496
	C5169	C	0.479456	0.086856	0.917378
	C5170	C	0.424279	0.144364	0.581865
	C5171	C	0.486748	0.081823	0.582619
	C5172	C	0.424338	0.144309	0.916544
	C5173	C	0.486774	0.081788	0.917186
	C5174	C	0.416961	0.149452	0.581880
	C5175	C	0.479454	0.086991	0.582114
	C5176	C	0.416554	0.117345	0.832456
	C5177	C	0.486978	0.154574	0.784075
	C5178	C	0.409285	0.122574	0.665820
	C5179	C	0.480432	0.145956	0.714573
	C5180	C	0.409346	0.122644	0.832797
	C5181	C	0.480079	0.146549	0.784396
	C5182	C	0.416492	0.117226	0.665473
	C5183	C	0.487313	0.154018	0.714461
	N5184	N	0.393938	0.165325	0.950924
	N5185	N	0.456414	0.102823	0.951272
	N5186	N	0.445038	0.123864	0.547793
	N5187	N	0.507499	0.061262	0.548006
	N5188	N	0.444984	0.123651	0.951259
	N5189	N	0.507564	0.061399	0.951135
	N5190	N	0.393873	0.165327	0.548146
	N5191	N	0.456429	0.102896	0.547607
	N5192	N	0.440976	0.105868	0.699993
	N5193	N	0.508337	0.180143	0.702370
	N5194	N	0.384280	0.131702	0.798575
	N5195	N	0.458415	0.121487	0.797134
	N5196	N	0.384264	0.131661	0.701054
	N5197	N	0.458402	0.121515	0.701950
	N5198	N	0.440951	0.105858	0.798172
	N5199	N	0.508359	0.180107	0.797188
	H5200	H	0.404840	0.300725	0.351852
	H5201	H	0.467330	0.238033	0.351697
	H5202	H	0.438647	0.268579	0.149235
	H5203	H	0.501001	0.205826	0.148441
	H5204	H	0.438549	0.268382	0.350678
	H5205	H	0.501031	0.205933	0.352431
	H5206	H	0.404799	0.300642	0.149022
	H5207	H	0.467289	0.238044	0.148416
	H5208	H	0.438675	0.233496	0.100507
	H5209	H	0.496010	0.322610	0.101285
	H5210	H	0.403546	0.192593	0.399631
	H5211	H	0.466232	0.274380	0.399197
	H5212	H	0.403635	0.192410	0.099332
	H5213	H	0.466078	0.274733	0.101613
	H5214	H	0.438534	0.233462	0.399512
	H5215	H	0.495585	0.322885	0.399308
	H5216	H	0.415397	0.289519	0.563358
	H5217	H	0.478557	0.228179	0.520956
	H5218	H	0.427171	0.278201	0.046070
	H5219	H	0.490403	0.216888	0.030679
	H5220	H	0.427156	0.278265	0.563175
	H5221	H	0.490364	0.216858	0.520822
	H5222	H	0.415307	0.289337	0.046021
	H5223	H	0.478573	0.228085	0.030685
	H5224	H	0.427411	0.219740	0.298603
	H5225	H	0.486216	0.306897	0.296356
	H5226	H	0.415063	0.205829	0.199007
	H5227	H	0.475866	0.290317	0.203617
	H5228	H	0.415253	0.205494	0.298455
	H5229	H	0.475921	0.290108	0.296419
	H5230	H	0.427293	0.219954	0.199594
	H5231	H	0.486121	0.307110	0.203847
	Co5232	Co	0.508750	0.344253	0.126569
	Co5233	Co	0.452958	0.253321	0.125635
	Co5234	Co	0.387621	0.174995	0.374620
	Co5235	Co	0.452971	0.253221	0.375075
	C5236	C	0.403666	0.301747	0.424315
	C5237	C	0.466199	0.239166	0.424371
	C5238	C	0.439666	0.267425	0.076671
	C5239	C	0.502087	0.204696	0.075810
	C5240	C	0.439635	0.267244	0.423401
	C5241	C	0.502144	0.204828	0.424820
	C5242	C	0.403643	0.301711	0.076382
	C5243	C	0.466130	0.239184	0.076005
	C5244	C	0.439743	0.234882	0.173616
	C5245	C	0.496904	0.324258	0.174306
	C5246	C	0.402369	0.191253	0.325908
	C5247	C	0.465215	0.272834	0.326396
	C5248	C	0.402422	0.191201	0.172495
	C5249	C	0.465124	0.273006	0.174141
	C5250	C	0.439682	0.234882	0.326362
	C5251	C	0.496676	0.324405	0.326728
	C5252	C	0.407778	0.297625	0.500582
	C5253	C	0.470267	0.235141	-0.000484
	C5254	C	0.435438	0.271211	0.499454
	C5255	C	0.497957	0.208755	-0.000352
	C5256	C	0.435513	0.229659	0.249759
	C5257	C	0.493192	0.318361	0.250250
	C5258	C	0.406789	0.196129	0.249277
	C5259	C	0.468858	0.278813	0.250418
	C5260	C	0.414769	0.290929	0.500067
	C5261	C	0.477265	0.228460	-0.000550
	C5262	C	0.428445	0.277899	0.499223
	C5263	C	0.490972	0.215464	-0.000516
	C5264	C	0.428307	0.221049	0.249571
	C5265	C	0.487012	0.308376	0.250053
	C5266	C	0.414145	0.204496	0.249165
	C5267	C	0.475025	0.288824	0.250268
	C5268	C	0.418094	0.287306	0.535624
	C5269	C	0.480990	0.225460	0.511859
	C5270	C	0.424735	0.281004	0.026397
	C5271	C	0.487672	0.219102	0.017015
	C5272	C	0.424771	0.280956	0.535346
	C5273	C	0.487637	0.219105	0.512302
	C5274	C	0.418057	0.287296	0.026217
	C5275	C	0.480969	0.225420	0.016971
	C5276	C	0.424747	0.216694	0.277228
	C5277	C	0.483950	0.303267	0.276012
	C5278	C	0.417758	0.208768	0.221273
	C5279	C	0.478076	0.293917	0.224157
	C5280	C	0.417850	0.208662	0.276962
	C5281	C	0.478126	0.293777	0.276224
	C5282	C	0.424640	0.216817	0.221326
	C5283	C	0.483914	0.303418	0.224007
	N5284	N	0.397593	0.307660	0.453064
	N5285	N	0.460119	0.245107	0.453123
	N5286	N	0.445724	0.261422	0.047732
	N5287	N	0.508151	0.198770	0.047002
	N5288	N	0.445736	0.261365	0.452762
	N5289	N	0.508234	0.198887	0.453163
	N5290	N	0.397536	0.307645	0.048011
	N5291	N	0.460102	0.245186	0.047330
	N5292	N	0.445870	0.242633	0.202667
	N5293	N	0.502187	0.333071	0.203582
	N5294	N	0.395900	0.184086	0.296948
	N5295	N	0.459791	0.264186	0.297564
	N5296	N	0.395935	0.184028	0.201470
	N5297	N	0.459740	0.264288	0.202759
	N5298	N	0.445837	0.242604	0.297748
	N5299	N	0.502059	0.333154	0.298332
	H5300	H	0.404737	0.300538	0.851624
	H5301	H	0.467297	0.238152	0.850544
	H5302	H	0.438345	0.268186	0.648753
	H5303	H	0.500867	0.205507	0.649054
	H5304	H	0.438384	0.268289	0.852069
	H5305	H	0.501092	0.206052	0.851435
	H5306	H	0.404813	0.300544	0.648826
	H5307	H	0.467279	0.238246	0.649061
	H5308	H	0.438558	0.233536	0.600477
	H5309	H	0.495902	0.322711	0.602246
	H5310	H	0.403533	0.192503	0.901015
	H5311	H	0.466007	0.274637	0.899877
	H5312	H	0.403617	0.192540	0.599409
	H5313	H	0.466256	0.274523	0.601383
	H5314	H	0.438580	0.233376	0.899659
	H5315	H	0.495889	0.322731	0.899631
	H5316	H	0.416065	0.290794	0.955838
	H5317	H	0.477842	0.226941	0.967676
	H5318	H	0.427783	0.279189	0.434925
	H5319	H	0.489711	0.215738	0.480617
	H5320	H	0.427952	0.279648	0.955691
	H5321	H	0.489664	0.215803	0.967824
	H5322	H	0.416003	0.290453	0.435845
	H5323	H	0.477871	0.226937	0.480563
	H5324	H	0.427468	0.219851	0.732991
	H5325	H	0.486418	0.306637	0.785210
	H5326	H	0.415020	0.205635	0.767738
	H5327	H	0.475789	0.290483	0.717045
	H5328	H	0.415292	0.205617	0.733256
	H5329	H	0.476063	0.289892	0.785179
	H5330	H	0.427214	0.219823	0.767014
	H5331	H	0.486149	0.307185	0.716213
	Co5332	Co	0.508683	0.344348	0.626199
	Co5333	Co	0.452953	0.253281	0.625711
	Co5334	Co	0.387595	0.174841	0.874499
	Co5335	Co	0.452888	0.253267	0.874896
	C5336	C	0.403609	0.301671	0.924447
	C5337	C	0.466139	0.239234	0.923184
	C5338	C	0.439548	0.267148	0.576145
	C5339	C	0.502065	0.204624	0.576756
	C5340	C	0.439547	0.267273	0.924532
	C5341	C	0.502159	0.204820	0.923564
	C5342	C	0.403647	0.301665	0.576567
	C5343	C	0.466158	0.239220	0.576411
	C5344	C	0.439688	0.234915	0.673530
	C5345	C	0.496858	0.324320	0.674938
	C5346	C	0.402377	0.191147	0.827170
	C5347	C	0.465074	0.272995	0.826990
	C5348	C	0.402387	0.191193	0.673177
	C5349	C	0.465226	0.272908	0.674071
	C5350	C	0.439697	0.234824	0.826742
	C5351	C	0.496835	0.324340	0.826846
	C5352	C	0.407726	0.297690	1.000464
	C5353	C	0.470291	0.235160	0.500412
	C5354	C	0.435514	0.271373	1.000660
	C5355	C	0.497992	0.208742	0.501040
	C5356	C	0.435495	0.229605	0.750002
	C5357	C	0.493259	0.318303	0.750935
	C5358	C	0.406766	0.196103	0.750344
	C5359	C	0.468840	0.278840	0.750765
	C5360	C	0.414758	0.290996	1.000887
	C5361	C	0.477321	0.228465	0.500535
	C5362	C	0.428469	0.278081	1.000721
	C5363	C	0.490949	0.215407	0.501073
	C5364	C	0.428311	0.220977	0.749776
	C5365	C	0.487108	0.308251	0.750761
	C5366	C	0.414128	0.204452	0.750231
	C5367	C	0.475054	0.288826	0.751043
	C5368	C	0.418477	0.288057	0.975542
	C5369	C	0.480574	0.224814	0.981577
	C5370	C	0.425103	0.281470	0.463354
	C5371	C	0.487259	0.218399	0.489447
	C5372	C	0.425158	0.281771	0.975375
	C5373	C	0.487260	0.218481	0.981578
	C5374	C	0.418416	0.287828	0.463690
	C5375	C	0.480629	0.224792	0.488984
	C5376	C	0.424763	0.216730	0.740418
	C5377	C	0.484101	0.303123	0.770105
	C5378	C	0.417730	0.208689	0.759812
	C5379	C	0.478075	0.293955	0.731808
	C5380	C	0.417873	0.208686	0.740496
	C5381	C	0.478240	0.293669	0.770152
	C5382	C	0.424617	0.216732	0.759611
	C5383	C	0.483940	0.303406	0.731765
	N5384	N	0.397522	0.307613	0.953171
	N5385	N	0.460089	0.245190	0.952362
	N5386	N	0.445655	0.261296	0.547509
	N5387	N	0.508214	0.198774	0.547672
	N5388	N	0.445634	0.261311	0.953320
	N5389	N	0.508201	0.198841	0.952555
	N5390	N	0.397578	0.307608	0.547717
	N5391	N	0.460093	0.245153	0.547613
	N5392	N	0.445811	0.242637	0.702828
	N5393	N	0.502138	0.333153	0.703718
	N5394	N	0.395925	0.183929	0.797789
	N5395	N	0.459688	0.264274	0.797806
	N5396	N	0.395943	0.183961	0.701990
	N5397	N	0.459766	0.264244	0.702712
	N5398	N	0.445820	0.242589	0.797915
	N5399	N	0.502117	0.333171	0.798189
	H5400	H	0.398487	0.454718	0.352281
	H5401	H	0.460925	0.392015	0.353116
	H5402	H	0.431689	0.421843	0.149478
	H5403	H	0.494210	0.359134	0.150477
	H5404	H	0.431535	0.421430	0.352555
	H5405	H	0.494135	0.359241	0.352184
	H5406	H	0.398633	0.454735	0.149900
	H5407	H	0.460886	0.392086	0.150181
	H5408	H	0.433138	0.385300	0.102384
	H5409	H	0.487330	0.478156	0.102584
	H5410	H	0.403598	0.336890	0.399423
	H5411	H	0.458831	0.428604	0.400800
	H5412	H	0.403608	0.336997	0.100929
	H5413	H	0.458913	0.428583	0.102803
	H5414	H	0.433596	0.384828	0.400107
	H5415	H	0.487184	0.478232	0.400613
	H5416	H	0.408980	0.443521	0.461882
	H5417	H	0.470466	0.379293	0.410723
	H5418	H	0.420524	0.431701	0.011193
	H5419	H	0.482898	0.368935	0.050065
	H5420	H	0.420540	0.431855	0.460552
	H5421	H	0.482029	0.367671	0.410283
	H5422	H	0.408864	0.443233	0.012709
	H5423	H	0.471255	0.380448	0.050830
	H5424	H	0.423148	0.369912	0.304477
	H5425	H	0.477677	0.462389	0.176482
	H5426	H	0.413947	0.352027	0.196495
	H5427	H	0.468524	0.444359	0.327635
	H5428	H	0.412805	0.353188	0.303998
	H5429	H	0.467816	0.445155	0.176862
	H5430	H	0.424288	0.368709	0.196385
	H5431	H	0.478326	0.461663	0.327383
	Co5432	Co	0.499924	0.500065	0.127416
	Co5433	Co	0.446240	0.406822	0.126895
	Co5434	Co	0.390390	0.315715	0.375062
	Co5435	Co	0.446218	0.406734	0.375652
	C5436	C	0.397303	0.455798	0.425382
	C5437	C	0.459748	0.393140	0.425573
	C5438	C	0.432785	0.420596	0.076797
	C5439	C	0.495252	0.357982	0.077720
	C5440	C	0.432682	0.420310	0.424877
	C5441	C	0.495227	0.357968	0.424638
	C5442	C	0.397372	0.455818	0.077691
	C5443	C	0.459756	0.393157	0.078035
	C5444	C	0.434246	0.386836	0.174780
	C5445	C	0.488252	0.479798	0.175374
	C5446	C	0.402580	0.335353	0.326630
	C5447	C	0.457888	0.426991	0.328081
	C5448	C	0.402573	0.335383	0.173819
	C5449	C	0.457921	0.427006	0.175587
	C5450	C	0.434464	0.386607	0.327511
	C5451	C	0.488173	0.479856	0.327768
	C5452	C	0.401379	0.451675	0.501902
	C5453	C	0.463782	0.389031	0.001991
	C5454	C	0.428618	0.424459	0.500882
	C5455	C	0.491117	0.361941	0.001826
	C5456	C	0.430724	0.380726	0.251211
	C5457	C	0.484727	0.473704	0.251569
	C5458	C	0.406280	0.341295	0.250160
	C5459	C	0.461422	0.433096	0.251948
	C5460	C	0.408272	0.444759	0.501584
	C5461	C	0.470707	0.382128	0.002151
	C5462	C	0.421716	0.431336	0.501134
	C5463	C	0.484184	0.368813	0.002281
	C5464	C	0.424579	0.370694	0.250784
	C5465	C	0.478811	0.463435	0.251725
	C5466	C	0.412501	0.351221	0.250167
	C5467	C	0.467351	0.443369	0.251904
	C5468	C	0.411590	0.441112	0.479084
	C5469	C	0.473543	0.377700	0.450698
	C5470	C	0.418086	0.434485	0.006872
	C5471	C	0.480511	0.371791	0.029369
	C5472	C	0.418161	0.434584	0.478609
	C5473	C	0.480095	0.371141	0.450330
	C5474	C	0.411503	0.440978	0.007418
	C5475	C	0.473957	0.378290	0.029466
	C5476	C	0.421173	0.366015	0.280855
	C5477	C	0.475679	0.458472	0.209509
	C5478	C	0.415945	0.355891	0.220175
	C5479	C	0.470466	0.448306	0.294288
	C5480	C	0.415283	0.356555	0.280413
	C5481	C	0.470106	0.448706	0.209530
	C5482	C	0.421807	0.365362	0.220506
	C5483	C	0.476049	0.458068	0.294345
	N5484	N	0.391239	0.461747	0.454152
	N5485	N	0.453696	0.399119	0.454001
	N5486	N	0.438817	0.414573	0.048299
	N5487	N	0.501301	0.352010	0.048911
	N5488	N	0.438729	0.414316	0.453716
	N5489	N	0.501243	0.351946	0.453548
	N5490	N	0.391289	0.461753	0.049030
	N5491	N	0.453718	0.399186	0.049204
	N5492	N	0.439577	0.395607	0.203626
	N5493	N	0.493382	0.488789	0.204288
	N5494	N	0.397141	0.326718	0.297771
	N5495	N	0.452703	0.418079	0.299015
	N5496	N	0.397128	0.326745	0.202836
	N5497	N	0.452719	0.418083	0.204455
	N5498	N	0.439729	0.395440	0.298452
	N5499	N	0.493341	0.488799	0.299051
	H5500	H	0.398115	0.454157	0.852697
	H5501	H	0.460739	0.391691	0.852803
	H5502	H	0.431748	0.421711	0.649449
	H5503	H	0.493943	0.358948	0.649302
	H5504	H	0.431493	0.421338	0.852208
	H5505	H	0.494080	0.358946	0.852998
	H5506	H	0.398362	0.454569	0.651291
	H5507	H	0.460802	0.392037	0.650146
	H5508	H	0.433257	0.385233	0.601219
	H5509	H	0.487254	0.478059	0.602344
	H5510	H	0.403565	0.336992	0.899852
	H5511	H	0.458938	0.428493	0.900645
	H5512	H	0.403642	0.336766	0.601624
	H5513	H	0.458785	0.428597	0.603097
	H5514	H	0.433413	0.384831	0.900193
	H5515	H	0.487231	0.478073	0.900421
	H5516	H	0.409490	0.444400	0.988609
	H5517	H	0.472065	0.382018	0.953887
	H5518	H	0.420948	0.432506	0.541588
	H5519	H	0.484509	0.371831	0.592137
	H5520	H	0.421126	0.432869	0.988757
	H5521	H	0.483698	0.370535	0.954292
	H5522	H	0.409343	0.444109	0.541269
	H5523	H	0.472915	0.383498	0.592295
	H5524	H	0.424428	0.368453	0.785772
	H5525	H	0.477895	0.461940	0.826071
	H5526	H	0.412589	0.353456	0.715002
	H5527	H	0.468256	0.444612	0.675911
	H5528	H	0.414093	0.351717	0.785823
	H5529	H	0.468082	0.444735	0.826523
	H5530	H	0.422920	0.370153	0.715654
	H5531	H	0.478154	0.461838	0.675956
	Co5532	Co	0.499910	0.500015	0.627153
	Co5533	Co	0.446188	0.406727	0.626531
	Co5534	Co	0.390353	0.315668	0.875185
	Co5535	Co	0.446193	0.406657	0.876215
	C5536	C	0.397122	0.455478	0.925158
	C5537	C	0.459692	0.392958	0.925541
	C5538	C	0.432800	0.420475	0.577056
	C5539	C	0.495143	0.357845	0.576992
	C5540	C	0.432684	0.420341	0.924562
	C5541	C	0.495178	0.357902	0.925548
	C5542	C	0.397252	0.455739	0.578252
	C5543	C	0.459719	0.393189	0.577489
	C5544	C	0.434256	0.386788	0.674397
	C5545	C	0.488246	0.479744	0.675062
	C5546	C	0.402570	0.335338	0.827147
	C5547	C	0.457946	0.426841	0.827947
	C5548	C	0.402623	0.335233	0.674397
	C5549	C	0.457869	0.426880	0.675567
	C5550	C	0.434335	0.386582	0.827062
	C5551	C	0.488224	0.479724	0.827632
	C5552	C	0.401358	0.451597	1.001264
	C5553	C	0.463867	0.389136	0.501638
	C5554	C	0.428627	0.424506	1.000495
	C5555	C	0.491090	0.361981	0.500748
	C5556	C	0.430684	0.380679	0.750392
	C5557	C	0.484739	0.473601	0.751194
	C5558	C	0.406302	0.341227	0.750609
	C5559	C	0.461449	0.432973	0.751607
	C5560	C	0.408235	0.444693	1.000807
	C5561	C	0.470771	0.382263	0.501545
	C5562	C	0.421714	0.431380	1.000206
	C5563	C	0.484206	0.368857	0.500936
	C5564	C	0.424539	0.370673	0.750227
	C5565	C	0.478849	0.463323	0.750931
	C5566	C	0.412489	0.351203	0.750451
	C5567	C	0.467344	0.443260	0.751333
	C5568	C	0.411857	0.441617	0.993769
	C5569	C	0.474412	0.379168	0.975086
	C5570	C	0.418356	0.434873	0.523535
	C5571	C	0.481450	0.373423	0.552229
	C5572	C	0.418433	0.435108	0.993897
	C5573	C	0.480973	0.372678	0.975200
	C5574	C	0.411823	0.441475	0.523592
	C5575	C	0.474893	0.379978	0.552447
	C5576	C	0.421827	0.365206	0.770218
	C5577	C	0.475845	0.458195	0.793107
	C5578	C	0.415171	0.356643	0.730483
	C5579	C	0.470349	0.448355	0.708962
	C5580	C	0.415996	0.355716	0.770101
	C5581	C	0.470240	0.448452	0.793259
	C5582	C	0.421009	0.366125	0.730383
	C5583	C	0.475937	0.458116	0.708804
	N5584	N	0.391135	0.461558	0.954551
	N5585	N	0.453680	0.399092	0.954046
	N5586	N	0.438788	0.414408	0.548247
	N5587	N	0.501191	0.351881	0.548109
	N5588	N	0.438759	0.414413	0.953768
	N5589	N	0.501267	0.351951	0.954399
	N5590	N	0.391195	0.461715	0.549050
	N5591	N	0.453679	0.399149	0.548568
	N5592	N	0.439555	0.395587	0.703736
	N5593	N	0.493377	0.488724	0.704128
	N5594	N	0.397175	0.326670	0.798127
	N5595	N	0.452771	0.417903	0.799119
	N5596	N	0.397199	0.326613	0.703535
	N5597	N	0.452713	0.417938	0.704535
	N5598	N	0.439598	0.395483	0.798542
	N5599	N	0.493371	0.488705	0.799041
	H5600	H	0.389584	0.610404	0.353369
	H5601	H	0.452107	0.547853	0.352607
	H5602	H	0.422827	0.577243	0.151231
	H5603	H	0.485190	0.514712	0.149962
	H5604	H	0.423001	0.577743	0.352941
	H5605	H	0.485305	0.514900	0.352756
	H5606	H	0.389621	0.610509	0.150545
	H5607	H	0.452301	0.548185	0.149488
	H5608	H	0.424867	0.540717	0.102892
	H5609	H	0.478533	0.633965	0.102124
	H5610	H	0.396536	0.491110	0.401591
	H5611	H	0.449864	0.584647	0.401199
	H5612	H	0.396540	0.491269	0.103153
	H5613	H	0.450059	0.584375	0.102780
	H5614	H	0.424952	0.540662	0.401096
	H5615	H	0.478559	0.634117	0.401057
	H5616	H	0.400527	0.599760	0.521088
	H5617	H	0.462885	0.537101	0.565825
	H5618	H	0.412052	0.588085	-0.026436
	H5619	H	0.474560	0.525544	0.020711
	H5620	H	0.412179	0.588238	0.520966
	H5621	H	0.474472	0.525494	0.566348
	H5622	H	0.400426	0.599668	-0.027413
	H5623	H	0.462933	0.537132	0.019208
	H5624	H	0.415586	0.524541	0.362301
	H5625	H	0.469275	0.617898	0.190676
	H5626	H	0.405678	0.507371	0.143267
	H5627	H	0.459257	0.600607	0.313723
	H5628	H	0.405851	0.507219	0.361672
	H5629	H	0.459310	0.600786	0.190399
	H5630	H	0.415523	0.524556	0.143076
	H5631	H	0.469244	0.617787	0.313396
	Co5632	Co	0.491213	0.655691	0.127136
	Co5633	Co	0.437518	0.562585	0.127081
	Co5634	Co	0.383757	0.469330	0.376159
	Co5635	Co	0.437427	0.562610	0.376619
	C5636	C	0.388450	0.611497	0.426041
	C5637	C	0.450962	0.548982	0.425016
	C5638	C	0.423874	0.576121	0.078630
	C5639	C	0.486383	0.513625	0.077765
	C5640	C	0.424000	0.576379	0.425719
	C5641	C	0.486408	0.513766	0.425924
	C5642	C	0.388442	0.611509	0.078110
	C5643	C	0.451118	0.549176	0.077305
	C5644	C	0.425821	0.542381	0.175784
	C5645	C	0.479469	0.635571	0.175255
	C5646	C	0.395537	0.489482	0.328794
	C5647	C	0.449000	0.582993	0.328197
	C5648	C	0.395533	0.489580	0.175992
	C5649	C	0.449098	0.582854	0.175886
	C5650	C	0.425861	0.542334	0.328392
	C5651	C	0.479495	0.635655	0.328196
	C5652	C	0.392476	0.607332	0.502472
	C5653	C	0.455149	0.545032	0.000668
	C5654	C	0.419792	0.580221	0.502052
	C5655	C	0.482319	0.517740	0.001776
	C5656	C	0.422299	0.536226	0.252216
	C5657	C	0.475958	0.629548	0.251953
	C5658	C	0.399050	0.495619	0.252479
	C5659	C	0.452561	0.589002	0.252139
	C5660	C	0.399383	0.600441	0.502517
	C5661	C	0.462024	0.538115	0.000484
	C5662	C	0.412877	0.587100	0.502328
	C5663	C	0.475429	0.524635	0.001532
	C5664	C	0.416403	0.525968	0.252467
	C5665	C	0.470041	0.619247	0.252230
	C5666	C	0.404948	0.505883	0.252806
	C5667	C	0.458494	0.599293	0.252350
	C5668	C	0.402945	0.597171	0.512889
	C5669	C	0.465363	0.534540	0.537797
	C5670	C	0.409444	0.590553	-0.014268
	C5671	C	0.472023	0.528069	0.011979
	C5672	C	0.409501	0.590628	0.512711
	C5673	C	0.471922	0.528032	0.538341
	C5674	C	0.402915	0.597133	-0.014569
	C5675	C	0.465470	0.534628	0.011643
	C5676	C	0.413490	0.520818	0.313942
	C5677	C	0.467075	0.614163	0.217872
	C5678	C	0.407864	0.511072	0.191371
	C5679	C	0.461461	0.604382	0.286869
	C5680	C	0.407927	0.511026	0.314011
	C5681	C	0.461461	0.604470	0.217562
	C5682	C	0.413421	0.520864	0.191342
	C5683	C	0.467071	0.614086	0.286684
	N5684	N	0.382440	0.617556	0.454666
	N5685	N	0.444923	0.554982	0.453791
	N5686	N	0.429943	0.570160	0.049508
	N5687	N	0.492430	0.507625	0.049126
	N5688	N	0.429980	0.570265	0.454552
	N5689	N	0.492437	0.507751	0.454844
	N5690	N	0.382371	0.617451	0.049246
	N5691	N	0.445051	0.555147	0.048775
	N5692	N	0.430997	0.551296	0.204644
	N5693	N	0.484667	0.644501	0.203971
	N5694	N	0.390337	0.480580	0.299645
	N5695	N	0.443855	0.573995	0.299423
	N5696	N	0.390319	0.480667	0.204656
	N5697	N	0.443925	0.573901	0.204678
	N5698	N	0.430988	0.551277	0.299524
	N5699	N	0.484691	0.644573	0.299095
	H5700	H	0.389469	0.610190	0.852813
	H5701	H	0.452027	0.547769	0.852127
	H5702	H	0.422543	0.576927	0.651004
	H5703	H	0.485157	0.514736	0.651485
	H5704	H	0.422777	0.577330	0.852739
	H5705	H	0.485306	0.514826	0.853493
	H5706	H	0.389447	0.610103	0.651507
	H5707	H	0.451948	0.547585	0.650130
	H5708	H	0.424819	0.540637	0.603069
	H5709	H	0.478694	0.633828	0.602987
	H5710	H	0.396620	0.490799	0.901435
	H5711	H	0.450067	0.584557	0.900968
	H5712	H	0.396219	0.491413	0.604015
	H5713	H	0.450232	0.584418	0.602113
	H5714	H	0.424870	0.540632	0.901946
	H5715	H	0.478457	0.634176	0.901367
	H5716	H	0.400273	0.599464	1.031573
	H5717	H	0.462909	0.537241	0.982140
	H5718	H	0.411760	0.587775	0.484319
	H5719	H	0.474502	0.525607	0.439975
	H5720	H	0.411809	0.587808	1.031409
	H5721	H	0.474536	0.525669	0.982739
	H5722	H	0.400134	0.599295	0.484359
	H5723	H	0.462835	0.537110	0.438535
	H5724	H	0.416058	0.524007	0.769596
	H5725	H	0.469950	0.617060	0.879811
	H5726	H	0.405215	0.507695	0.735003
	H5727	H	0.458729	0.601475	0.624090
	H5728	H	0.406167	0.506834	0.769562
	H5729	H	0.460091	0.599825	0.879403
	H5730	H	0.415135	0.524854	0.734715
	H5731	H	0.468597	0.618649	0.625362
	Co5732	Co	0.491170	0.655896	0.626846
	Co5733	Co	0.437416	0.562586	0.627215
	Co5734	Co	0.383746	0.469239	0.876448
	Co5735	Co	0.437443	0.562680	0.876603
	C5736	C	0.388382	0.611374	0.925627
	C5737	C	0.450983	0.549011	0.924799
	C5738	C	0.423775	0.575962	0.578240
	C5739	C	0.486333	0.513683	0.578287
	C5740	C	0.423881	0.576221	0.925837
	C5741	C	0.486428	0.513682	0.925703
	C5742	C	0.388367	0.611359	0.578543
	C5743	C	0.450887	0.548859	0.577347
	C5744	C	0.425798	0.542332	0.675820
	C5745	C	0.479572	0.635562	0.675974
	C5746	C	0.395546	0.489343	0.828563
	C5747	C	0.449103	0.582869	0.827902
	C5748	C	0.395371	0.489619	0.676399
	C5749	C	0.449185	0.582816	0.674884
	C5750	C	0.425831	0.542348	0.828997
	C5751	C	0.479454	0.635731	0.828638
	C5752	C	0.392506	0.607403	1.002063
	C5753	C	0.455035	0.544887	0.501330
	C5754	C	0.419777	0.580182	1.002405
	C5755	C	0.482299	0.517806	0.502128
	C5756	C	0.422309	0.536205	0.752528
	C5757	C	0.475998	0.629552	0.752641
	C5758	C	0.398972	0.495576	0.752617
	C5759	C	0.452657	0.588967	0.751320
	C5760	C	0.399436	0.600521	1.001948
	C5761	C	0.461939	0.537989	0.501797
	C5762	C	0.412842	0.587039	1.002255
	C5763	C	0.475359	0.524623	0.502624
	C5764	C	0.416424	0.525919	0.752564
	C5765	C	0.470071	0.619303	0.752624
	C5766	C	0.404891	0.505823	0.752501
	C5767	C	0.458574	0.599237	0.751368
	C5768	C	0.402817	0.596987	1.018326
	C5769	C	0.465447	0.534701	0.990144
	C5770	C	0.409333	0.590379	0.492243
	C5771	C	0.471921	0.528066	0.467055
	C5772	C	0.409340	0.590410	1.018450
	C5773	C	0.471991	0.528123	0.990640
	C5774	C	0.402773	0.596909	0.492440
	C5775	C	0.465371	0.534589	0.466674
	C5776	C	0.413726	0.520528	0.762284
	C5777	C	0.467489	0.613677	0.823780
	C5778	C	0.407600	0.511244	0.742799
	C5779	C	0.461164	0.604838	0.680184
	C5780	C	0.408120	0.510767	0.762197
	C5781	C	0.461895	0.603918	0.823331
	C5782	C	0.413197	0.521012	0.742642
	C5783	C	0.466755	0.614584	0.680820
	N5784	N	0.382331	0.617377	0.954447
	N5785	N	0.444977	0.555065	0.953959
	N5786	N	0.429861	0.570054	0.549337
	N5787	N	0.492387	0.507667	0.549686
	N5788	N	0.429942	0.570213	0.954539
	N5789	N	0.492445	0.507662	0.954449
	N5790	N	0.382364	0.617440	0.549557
	N5791	N	0.444864	0.554921	0.548626
	N5792	N	0.430913	0.551316	0.704758
	N5793	N	0.484696	0.644575	0.704329
	N5794	N	0.390348	0.480454	0.799459
	N5795	N	0.443935	0.573941	0.799041
	N5796	N	0.390228	0.480630	0.704780
	N5797	N	0.443977	0.573912	0.703942
	N5798	N	0.430927	0.551324	0.799946
	N5799	N	0.484610	0.644684	0.799325
	H5800	H	0.380712	0.765628	0.351998
	H5801	H	0.443282	0.703522	0.352685
	H5802	H	0.414048	0.732947	0.149509
	H5803	H	0.476531	0.670518	0.150686
	H5804	H	0.414087	0.733039	0.351889
	H5805	H	0.476666	0.670802	0.352922
	H5806	H	0.380798	0.766151	0.150685
	H5807	H	0.443242	0.703404	0.150618
	H5808	H	0.415887	0.696470	0.101664
	H5809	H	0.471351	0.787966	0.101388
	H5810	H	0.387460	0.646874	0.401075
	H5811	H	0.441472	0.739949	0.399892
	H5812	H	0.387445	0.646926	0.102531
	H5813	H	0.441507	0.739806	0.101667
	H5814	H	0.416067	0.696247	0.400568
	H5815	H	0.471171	0.788153	0.399704
	H5816	H	0.391798	0.755611	0.549714
	H5817	H	0.454122	0.692871	0.571913
	H5818	H	0.403055	0.743351	-0.085075
	H5819	H	0.465771	0.681264	-0.023221
	H5820	H	0.403466	0.744114	0.549785
	H5821	H	0.465793	0.681363	0.572485
	H5822	H	0.391397	0.754752	-0.084737
	H5823	H	0.454088	0.692752	-0.023729
	H5824	H	0.406448	0.680486	0.156234
	H5825	H	0.461042	0.772910	0.170397
	H5826	H	0.396985	0.662833	0.346585
	H5827	H	0.451547	0.755221	0.331599
	H5828	H	0.396537	0.663262	0.156964
	H5829	H	0.450775	0.756090	0.170480
	H5830	H	0.406830	0.680094	0.346082
	H5831	H	0.461887	0.771934	0.330408
	Co5832	Co	0.484517	0.809230	0.126146
	Co5833	Co	0.428639	0.718184	0.126596
	Co5834	Co	0.374903	0.625023	0.376656
	Co5835	Co	0.428651	0.718257	0.375702
	C5836	C	0.379622	0.766981	0.424349
	C5837	C	0.442115	0.704562	0.425475
	C5838	C	0.415214	0.731883	0.077464
	C5839	C	0.477698	0.669445	0.078322
	C5840	C	0.415225	0.731961	0.424667
	C5841	C	0.477751	0.669634	0.425499
	C5842	C	0.379688	0.767256	0.078075
	C5843	C	0.442120	0.704503	0.077643
	C5844	C	0.416849	0.698077	0.174894
	C5845	C	0.472298	0.789559	0.174374
	C5846	C	0.386540	0.645279	0.328011
	C5847	C	0.440536	0.738237	0.327090
	C5848	C	0.386534	0.645267	0.175616
	C5849	C	0.440554	0.738193	0.174546
	C5850	C	0.416958	0.697942	0.327584
	C5851	C	0.472204	0.789666	0.327027
	C5852	C	0.383798	0.763039	0.500793
	C5853	C	0.446219	0.700463	0.001567
	C5854	C	0.411144	0.736174	0.501016
	C5855	C	0.473668	0.673556	0.002525
	C5856	C	0.413388	0.691937	0.251169
	C5857	C	0.468544	0.783714	0.250724
	C5858	C	0.390071	0.651369	0.251854
	C5859	C	0.444181	0.744178	0.250763
	C5860	C	0.390697	0.756199	0.500780
	C5861	C	0.453169	0.693633	0.001731
	C5862	C	0.404218	0.742935	0.500669
	C5863	C	0.466684	0.680358	0.002286
	C5864	C	0.407452	0.681685	0.251179
	C5865	C	0.462346	0.773757	0.250629
	C5866	C	0.395975	0.661656	0.251834
	C5867	C	0.450304	0.754239	0.250664
	C5868	C	0.394243	0.752947	0.528184
	C5869	C	0.456629	0.690312	0.541133
	C5870	C	0.400636	0.746022	-0.046441
	C5871	C	0.463216	0.683761	-0.012219
	C5872	C	0.400849	0.746449	0.528298
	C5873	C	0.463220	0.683838	0.541378
	C5874	C	0.394011	0.752496	-0.046441
	C5875	C	0.456639	0.690233	-0.012443
	C5876	C	0.404397	0.676661	0.198061
	C5877	C	0.459023	0.769010	0.205614
	C5878	C	0.399031	0.666676	0.304893
	C5879	C	0.453608	0.759021	0.295947
	C5880	C	0.398812	0.666919	0.198414
	C5881	C	0.453165	0.759537	0.205660
	C5882	C	0.404591	0.676431	0.304660
	C5883	C	0.459449	0.768527	0.295687
	N5884	N	0.373631	0.773070	0.453087
	N5885	N	0.436050	0.710539	0.453816
	N5886	N	0.421230	0.725892	0.048410
	N5887	N	0.483780	0.663453	0.049481
	N5888	N	0.421219	0.725954	0.453830
	N5889	N	0.483789	0.663615	0.454067
	N5890	N	0.373670	0.773219	0.048470
	N5891	N	0.436064	0.710496	0.048690
	N5892	N	0.422014	0.707024	0.203779
	N5893	N	0.477731	0.798220	0.203239
	N5894	N	0.381350	0.636348	0.299147
	N5895	N	0.435267	0.729400	0.298355
	N5896	N	0.381357	0.636333	0.204361
	N5897	N	0.435283	0.729375	0.203350
	N5898	N	0.422085	0.706941	0.298794
	N5899	N	0.477670	0.798283	0.298079
	H5900	H	0.380831	0.765822	0.853265
	H5901	H	0.443302	0.703444	0.852724
	H5902	H	0.414060	0.733147	0.650622
	H5903	H	0.476502	0.670455	0.650156
	H5904	H	0.414158	0.733226	0.853179
	H5905	H	0.476780	0.670833	0.854645
	H5906	H	0.380867	0.766187	0.649364
	H5907	H	0.443133	0.703535	0.649901
	H5908	H	0.415990	0.696246	0.602805
	H5909	H	0.471371	0.788016	0.601462
	H5910	H	0.387362	0.647026	0.901899
	H5911	H	0.441558	0.739863	0.900484
	H5912	H	0.387613	0.646950	0.603770
	H5913	H	0.441453	0.739944	0.601165
	H5914	H	0.415995	0.696456	0.901137
	H5915	H	0.471326	0.788005	0.900181
	H5916	H	0.391789	0.755655	1.089368
	H5917	H	0.454049	0.692731	1.027179
	H5918	H	0.403159	0.743561	0.452413
	H5919	H	0.465664	0.681303	0.430966
	H5920	H	0.403488	0.744274	1.088654
	H5921	H	0.465720	0.681216	1.027397
	H5922	H	0.391507	0.755058	0.452596
	H5923	H	0.453963	0.692767	0.431665
	H5924	H	0.406603	0.680314	0.627086
	H5925	H	0.462312	0.771533	0.782175
	H5926	H	0.396749	0.663145	0.878678
	H5927	H	0.450458	0.756468	0.719815
	H5928	H	0.396688	0.663128	0.627423
	H5929	H	0.451977	0.754822	0.781717
	H5930	H	0.406697	0.680316	0.877950
	H5931	H	0.460793	0.773205	0.720256
	Co5932	Co	0.484522	0.809234	0.626563
	Co5933	Co	0.428622	0.718242	0.626723
	Co5934	Co	0.374861	0.624983	0.876402
	Co5935	Co	0.428676	0.718251	0.875671
	C5936	C	0.379696	0.767072	0.925715
	C5937	C	0.442154	0.704528	0.925296
	C5938	C	0.415211	0.732019	0.577665
	C5939	C	0.477652	0.669458	0.577767
	C5940	C	0.415269	0.732016	0.925487
	C5941	C	0.477831	0.669615	0.926632
	C5942	C	0.379707	0.767253	0.577028
	C5943	C	0.442045	0.704548	0.577318
	C5944	C	0.416957	0.697964	0.675302
	C5945	C	0.472312	0.789587	0.674528
	C5946	C	0.386446	0.645318	0.829032
	C5947	C	0.440564	0.738271	0.827526
	C5948	C	0.386570	0.645290	0.676378
	C5949	C	0.440515	0.738305	0.674411
	C5950	C	0.416970	0.698051	0.828169
	C5951	C	0.472288	0.789601	0.827084
	C5952	C	0.383815	0.763049	1.002258
	C5953	C	0.446174	0.700479	0.501585
	C5954	C	0.411100	0.736050	1.001606
	C5955	C	0.473612	0.673608	0.501698
	C5956	C	0.413427	0.691937	0.751915
	C5957	C	0.468608	0.783723	0.750700
	C5958	C	0.390015	0.651412	0.753076
	C5959	C	0.444148	0.744246	0.750912
	C5960	C	0.390683	0.756151	1.002459
	C5961	C	0.453150	0.693707	0.501679
	C5962	C	0.404201	0.742868	1.002141
	C5963	C	0.466650	0.680427	0.501770
	C5964	C	0.407478	0.681692	0.752401
	C5965	C	0.462411	0.773734	0.750757
	C5966	C	0.395900	0.661727	0.753149
	C5967	C	0.450320	0.754271	0.750766
	C5968	C	0.394233	0.752979	1.051186
	C5969	C	0.456627	0.690235	1.016061
	C5970	C	0.400675	0.746167	0.473453
	C5971	C	0.463149	0.683824	0.462048
	C5972	C	0.400858	0.746498	1.050707
	C5973	C	0.463197	0.683741	1.016172
	C5974	C	0.394075	0.752664	0.473480
	C5975	C	0.456570	0.690314	0.462151
	C5976	C	0.404481	0.676576	0.682077
	C5977	C	0.459716	0.768278	0.768135
	C5978	C	0.398877	0.666868	0.823528
	C5979	C	0.453009	0.759734	0.733678
	C5980	C	0.398847	0.666869	0.682550
	C5981	C	0.453853	0.758834	0.767984
	C5982	C	0.404508	0.676585	0.823155
	C5983	C	0.458874	0.769176	0.733686
	N5984	N	0.373679	0.773111	0.953926
	N5985	N	0.436100	0.710537	0.953902
	N5986	N	0.421212	0.725982	0.548762
	N5987	N	0.483739	0.663519	0.548906
	N5988	N	0.421271	0.725967	0.954104
	N5989	N	0.483859	0.663567	0.955171
	N5990	N	0.373677	0.773227	0.547870
	N5991	N	0.436006	0.710541	0.548163
	N5992	N	0.422146	0.706915	0.703852
	N5993	N	0.477715	0.798285	0.703510
	N5994	N	0.381307	0.636357	0.799587
	N5995	N	0.435236	0.729484	0.798720
	N5996	N	0.381379	0.636338	0.704501
	N5997	N	0.435211	0.729491	0.703496
	N5998	N	0.422162	0.706956	0.798873
	N5999	N	0.477729	0.798268	0.798280
	H6000	H	0.374050	0.919057	0.350615
	H6001	H	0.436510	0.856502	0.350494
	H6002	H	0.407679	0.886809	0.148951
	H6003	H	0.469971	0.824226	0.149168
	H6004	H	0.407751	0.886908	0.351498
	H6005	H	0.470250	0.824374	0.351881
	H6006	H	0.374059	0.919341	0.148681
	H6007	H	0.436331	0.856401	0.148713
	H6008	H	0.408778	0.850613	0.100622
	H6009	H	0.471528	0.932315	0.100027
	H6010	H	0.379300	0.802175	0.399655
	H6011	H	0.436327	0.891745	0.399141
	H6012	H	0.378842	0.802817	0.101201
	H6013	H	0.436641	0.891300	0.100555
	H6014	H	0.409044	0.850475	0.399822
	H6015	H	0.471571	0.932356	0.400891
	H6016	H	0.385071	0.908718	0.514479
	H6017	H	0.447445	0.846079	0.486204
	H6018	H	0.395864	0.895914	-0.021007
	H6019	H	0.459300	0.835091	0.045636
	H6020	H	0.396933	0.897562	0.515341
	H6021	H	0.459267	0.834890	0.486370
	H6022	H	0.384017	0.907003	-0.020313
	H6023	H	0.447505	0.846393	0.045355
	H6024	H	0.398736	0.835241	0.142542
	H6025	H	0.460381	0.918539	0.281302
	H6026	H	0.389147	0.817896	0.359116
	H6027	H	0.447370	0.905732	0.219264
	H6028	H	0.388269	0.818682	0.142279
	H6029	H	0.448093	0.904431	0.280650
	H6030	H	0.399496	0.834613	0.359290
	H6031	H	0.459554	0.919932	0.220371
	Co6032	Co	0.487475	0.949941	0.125681
	Co6033	Co	0.422093	0.871782	0.124796
	Co6034	Co	0.366211	0.780855	0.374954
	Co6035	Co	0.422159	0.871814	0.374393
	C6036	C	0.372887	0.920135	0.423444
	C6037	C	0.435374	0.857610	0.423184
	C6038	C	0.408781	0.885792	0.076244
	C6039	C	0.471269	0.823250	0.076637
	C6040	C	0.408881	0.885803	0.424296
	C6041	C	0.471329	0.823229	0.424217
	C6042	C	0.372890	0.920312	0.076127
	C6043	C	0.435285	0.857600	0.076255
	C6044	C	0.409799	0.852188	0.173446
	C6045	C	0.472713	0.933634	0.173470
	C6046	C	0.378209	0.800713	0.326892
	C6047	C	0.435278	0.890255	0.326075
	C6048	C	0.377980	0.801043	0.174179
	C6049	C	0.435443	0.889997	0.173218
	C6050	C	0.409936	0.852134	0.326412
	C6051	C	0.472708	0.933664	0.327243
	C6052	C	0.376986	0.916082	0.499918
	C6053	C	0.439481	0.853659	0.000065
	C6054	C	0.404759	0.889804	0.500612
	C6055	C	0.467209	0.827440	0.000458
	C6056	C	0.406168	0.846275	0.250237
	C6057	C	0.468305	0.928748	0.250524
	C6058	C	0.381695	0.806848	0.250621
	C6059	C	0.439535	0.895352	0.249742
	C6060	C	0.384018	0.909414	0.500003
	C6061	C	0.446500	0.847012	0.000374
	C6062	C	0.397736	0.896472	0.500678
	C6063	C	0.460173	0.834053	0.000568
	C6064	C	0.399966	0.836305	0.250587
	C6065	C	0.460938	0.920397	0.250440
	C6066	C	0.387857	0.816871	0.250685
	C6067	C	0.446758	0.903924	0.249744
	C6068	C	0.387577	0.906220	0.508283
	C6069	C	0.450025	0.843609	0.491972
	C6070	C	0.393660	0.899016	-0.011461
	C6071	C	0.456736	0.837426	0.025920
	C6072	C	0.394284	0.899922	0.508563
	C6073	C	0.456715	0.837301	0.492046
	C6074	C	0.386984	0.905301	-0.011240
	C6075	C	0.450062	0.843789	0.025769
	C6076	C	0.396623	0.831544	0.190036
	C6077	C	0.457511	0.915833	0.267472
	C6078	C	0.391176	0.821685	0.311513
	C6079	C	0.450178	0.908527	0.232700
	C6080	C	0.390751	0.822090	0.190137
	C6081	C	0.450613	0.907804	0.267255
	C6082	C	0.397074	0.831117	0.311523
	C6083	C	0.457084	0.916530	0.233435
	N6084	N	0.366837	0.926115	0.452092
	N6085	N	0.429330	0.863614	0.452229
	N6086	N	0.414870	0.879832	0.047098
	N6087	N	0.477334	0.817330	0.048045
	N6088	N	0.414984	0.879896	0.452540
	N6089	N	0.477350	0.817247	0.453512
	N6090	N	0.366781	0.926161	0.047309
	N6091	N	0.429254	0.863607	0.047251
	N6092	N	0.415211	0.860876	0.202050
	N6093	N	0.479171	0.940827	0.202498
	N6094	N	0.372851	0.791979	0.297894
	N6095	N	0.429171	0.882469	0.297161
	N6096	N	0.372716	0.792174	0.202744
	N6097	N	0.429255	0.882330	0.202026
	N6098	N	0.415310	0.860838	0.297131
	N6099	N	0.479171	0.940827	0.297736
	H6100	H	0.373910	0.918925	0.852552
	H6101	H	0.436571	0.856758	0.851439
	H6102	H	0.407804	0.886914	0.648983
	H6103	H	0.470178	0.824363	0.649240
	H6104	H	0.407775	0.887004	0.851899
	H6105	H	0.470160	0.824539	0.851984
	H6106	H	0.373950	0.919039	0.648925
	H6107	H	0.436518	0.856469	0.648168
	H6108	H	0.408797	0.850742	0.601010
	H6109	H	0.471394	0.932725	0.599862
	H6110	H	0.379418	0.802182	0.899251
	H6111	H	0.436571	0.891568	0.898746
	H6112	H	0.378773	0.802889	0.601645
	H6113	H	0.436461	0.891564	0.600474
	H6114	H	0.408866	0.850684	0.899500
	H6115	H	0.471617	0.932209	0.900039
	H6116	H	0.385807	0.910148	1.022553
	H6117	H	0.447287	0.845968	0.955764
	H6118	H	0.396670	0.897108	0.485958
	H6119	H	0.459237	0.834762	0.512989
	H6120	H	0.397625	0.898921	1.022414
	H6121	H	0.459134	0.834760	0.955855
	H6122	H	0.384850	0.908293	0.485363
	H6123	H	0.447447	0.845947	0.512295
	H6124	H	0.399163	0.834846	0.666536
	H6125	H	0.460557	0.918343	0.690110
	H6126	H	0.388704	0.818420	0.834325
	H6127	H	0.447155	0.906199	0.809277
	H6128	H	0.388820	0.818109	0.666148
	H6129	H	0.448377	0.904133	0.689785
	H6130	H	0.399108	0.835007	0.834982
	H6131	H	0.459349	0.920347	0.809335
	Co6132	Co	0.487511	0.950030	0.625943
	Co6133	Co	0.422148	0.871782	0.625046
	Co6134	Co	0.366278	0.780799	0.875125
	Co6135	Co	0.422110	0.871864	0.874836
	C6136	C	0.372803	0.920077	0.924407
	C6137	C	0.435400	0.857802	0.923986
	C6138	C	0.408911	0.885815	0.576421
	C6139	C	0.471310	0.823234	0.576675
	C6140	C	0.408823	0.885908	0.924197
	C6141	C	0.471369	0.823382	0.924365
	C6142	C	0.372839	0.920144	0.575992
	C6143	C	0.435381	0.857607	0.575573
	C6144	C	0.409828	0.852227	0.674067
	C6145	C	0.472675	0.933929	0.673100
	C6146	C	0.378268	0.800738	0.826577
	C6147	C	0.435376	0.890186	0.826044
	C6148	C	0.377928	0.801120	0.674392
	C6149	C	0.435333	0.890190	0.673234
	C6150	C	0.409868	0.852207	0.826833
	C6151	C	0.472768	0.933648	0.826552
	C6152	C	0.376952	0.916190	1.000577
	C6153	C	0.439488	0.853547	0.499239
	C6154	C	0.404717	0.889876	1.000483
	C6155	C	0.467174	0.827283	0.500241
	C6156	C	0.406203	0.846274	0.750601
	C6157	C	0.468308	0.928876	0.749582
	C6158	C	0.381707	0.806874	0.750459
	C6159	C	0.439551	0.895422	0.749359
	C6160	C	0.383978	0.909475	1.001006
	C6161	C	0.446508	0.846891	0.499246
	C6162	C	0.397685	0.896559	1.000559
	C6163	C	0.460183	0.833983	0.499626
	C6164	C	0.399971	0.836310	0.750901
	C6165	C	0.460953	0.920538	0.749577
	C6166	C	0.387899	0.816873	0.750394
	C6167	C	0.446762	0.904011	0.749134
	C6168	C	0.387971	0.907014	1.013215
	C6169	C	0.449951	0.843613	0.975450
	C6170	C	0.394144	0.899673	0.492161
	C6171	C	0.456679	0.837226	0.507061
	C6172	C	0.394658	0.900738	1.012806
	C6173	C	0.456635	0.837263	0.975366
	C6174	C	0.387455	0.905985	0.491962
	C6175	C	0.449994	0.843538	0.506759
	C6176	C	0.396933	0.831251	0.703500
	C6177	C	0.457658	0.915748	0.716082
	C6178	C	0.390966	0.821928	0.797742
	C6179	C	0.450069	0.908820	0.783051
	C6180	C	0.391046	0.821841	0.703126
	C6181	C	0.450740	0.907726	0.715691
	C6182	C	0.396832	0.831370	0.797944
	C6183	C	0.456967	0.916874	0.783140
	N6184	N	0.366740	0.926060	0.952896
	N6185	N	0.429331	0.863751	0.952675
	N6186	N	0.414987	0.879869	0.547431
	N6187	N	0.477349	0.817263	0.547970
	N6188	N	0.414890	0.879892	0.952484
	N6189	N	0.477386	0.817383	0.953179
	N6190	N	0.366800	0.926099	0.547063
	N6191	N	0.429328	0.863601	0.546838
	N6192	N	0.415264	0.860879	0.702897
	N6193	N	0.479184	0.941001	0.702548
	N6194	N	0.372861	0.792031	0.797983
	N6195	N	0.429207	0.882478	0.797474
	N6196	N	0.372655	0.792245	0.703336
	N6197	N	0.429169	0.882482	0.702345
	N6198	N	0.415281	0.860859	0.797747
	N6199	N	0.479224	0.940838	0.797708
	H6200	H	0.374123	1.055440	0.347925
	H6201	H	0.436554	0.992924	0.349025
	H6202	H	0.410739	1.027662	0.150615
	H6203	H	0.473209	0.965018	0.149784
	H6204	H	0.410755	1.027763	0.349569
	H6205	H	0.473247	0.965076	0.349690
	H6206	H	0.373970	1.055099	0.151499
	H6207	H	0.436464	0.992539	0.151050
	H6208	H	0.409092	0.994810	0.100410
	H6209	H	0.481468	0.993737	0.097600
	H6210	H	0.374059	0.954098	0.398576
	H6211	H	0.443379	1.017017	0.401174
	H6212	H	0.373931	0.954184	0.100622
	H6213	H	0.443361	1.017016	0.098000
	H6214	H	0.409081	0.994896	0.400266
	H6215	H	0.481564	0.993815	0.400916
	H6216	H	0.385432	1.044757	0.351658
	H6217	H	0.447914	0.982061	0.648046
	H6218	H	0.398329	1.035927	0.148292
	H6219	H	0.460943	0.973701	-0.148926
	H6220	H	0.398226	1.035840	0.351583
	H6221	H	0.460662	0.973055	0.648419
	H6222	H	0.385594	1.044887	0.148335
	H6223	H	0.448160	0.982603	-0.148385
	H6224	H	0.397539	0.981672	0.329317
	H6225	H	0.468290	0.999573	0.099271
	H6226	H	0.385271	0.967724	0.170054
	H6227	H	0.456098	1.009670	0.399876
	H6228	H	0.385246	0.967671	0.329228
	H6229	H	0.455671	1.008770	0.099071
	H6230	H	0.397530	0.981768	0.170251
	H6231	H	0.468670	1.000565	0.400114
	Co6232	Co	0.500063	0.999949	0.125571
	Co6233	Co	0.424977	1.012383	0.125383
	Co6234	Co	0.359671	0.934326	0.374357
	Co6235	Co	0.424956	1.012501	0.374798
	C6236	C	0.373161	1.056743	0.422745
	C6237	C	0.435697	0.994309	0.423227
	C6238	C	0.412018	1.026875	0.076913
	C6239	C	0.474448	0.964237	0.076181
	C6240	C	0.411990	1.026890	0.423082
	C6241	C	0.474500	0.964312	0.423347
	C6242	C	0.373130	1.056588	0.077233
	C6243	C	0.435574	0.994012	0.076830
	C6244	C	0.410261	0.996131	0.173465
	C6245	C	0.483002	0.993920	0.172081
	C6246	C	0.372853	0.952685	0.326029
	C6247	C	0.441903	1.017053	0.326901
	C6248	C	0.372791	0.952716	0.173149
	C6249	C	0.441887	1.017091	0.172230
	C6250	C	0.410239	0.996169	0.326957
	C6251	C	0.483013	0.993933	0.326776
	C6252	C	0.377041	1.052108	0.499846
	C6253	C	0.439597	0.989594	-0.000161
	C6254	C	0.407383	1.030157	0.499891
	C6255	C	0.469896	0.967551	-0.000403
	C6256	C	0.405856	0.991246	0.250168
	C6257	C	0.477806	0.994899	0.249374
	C6258	C	0.377004	0.957944	0.249536
	C6259	C	0.446951	1.015426	0.249495
	C6260	C	0.384370	1.045807	0.499733
	C6261	C	0.446920	0.983254	-0.000166
	C6262	C	0.399529	1.035289	0.499788
	C6263	C	0.462040	0.972695	-0.000549
	C6264	C	0.398506	0.982893	0.249642
	C6265	C	0.469666	0.999313	0.249406
	C6266	C	0.384223	0.966513	0.249486
	C6267	C	0.454827	1.010357	0.249333
	C6268	C	0.388220	1.042918	0.417340
	C6269	C	0.450773	0.980379	0.582260
	C6270	C	0.395633	1.037917	0.082393
	C6271	C	0.458162	0.975450	-0.083134
	C6272	C	0.395537	1.037822	0.417376
	C6273	C	0.458090	0.975273	0.582328
	C6274	C	0.388313	1.042996	0.082613
	C6275	C	0.450853	0.980557	-0.082764
	C6276	C	0.394829	0.978665	0.294187
	C6277	C	0.465687	1.001822	0.165961
	C6278	C	0.387901	0.970759	0.204733
	C6279	C	0.458736	1.007616	0.332855
	C6280	C	0.387880	0.970710	0.294172
	C6281	C	0.458507	1.007130	0.165738
	C6282	C	0.394845	0.978729	0.205063
	C6283	C	0.465933	1.002361	0.333156
	N6284	N	0.367587	1.063622	0.451782
	N6285	N	0.430088	1.001123	0.452302
	N6286	N	0.418707	1.022019	0.048440
	N6287	N	0.481147	0.959401	0.047998
	N6288	N	0.418681	1.022043	0.451813
	N6289	N	0.481199	0.959458	0.451799
	N6290	N	0.367581	1.063531	0.048138
	N6291	N	0.430042	1.000969	0.047879
	N6292	N	0.416710	1.003320	0.202613
	N6293	N	0.490889	0.993153	0.200690
	N6294	N	0.366685	0.944982	0.297213
	N6295	N	0.434144	1.018831	0.298777
	N6296	N	0.366643	0.945004	0.202007
	N6297	N	0.434136	1.018854	0.200705
	N6298	N	0.416707	1.003330	0.297774
	N6299	N	0.490887	0.993170	0.298145
	H6300	H	0.374161	1.055429	0.849607
	H6301	H	0.436662	0.992904	0.848307
	H6302	H	0.410643	1.027632	0.649971
	H6303	H	0.473473	0.965591	0.650283
	H6304	H	0.410913	1.027953	0.849992
	H6305	H	0.473326	0.965326	0.849606
	H6306	H	0.373934	1.055143	0.651037
	H6307	H	0.436558	0.992848	0.651595
	H6308	H	0.408890	0.995045	0.600126
	H6309	H	0.481522	0.993990	0.599161
	H6310	H	0.374170	0.953769	0.899315
	H6311	H	0.443418	1.016859	0.901977
	H6312	H	0.373894	0.954156	0.600712
	H6313	H	0.443446	1.017346	0.598321
	H6314	H	0.409048	0.994786	0.899944
	H6315	H	0.481560	0.993895	0.901971
	H6316	H	0.385573	1.044912	0.852654
	H6317	H	0.447958	0.982119	1.148376
	H6318	H	0.398353	1.036085	0.647610
	H6319	H	0.461117	0.974080	0.351655
	H6320	H	0.398392	1.036084	0.852119
	H6321	H	0.460706	0.973103	1.147672
	H6322	H	0.385548	1.045063	0.647500
	H6323	H	0.448332	0.983019	0.351359
	H6324	H	0.397080	0.982386	0.812081
	H6325	H	0.468588	1.000575	0.900543
	H6326	H	0.385600	0.966969	0.687809
	H6327	H	0.455779	1.009084	0.599713
	H6328	H	0.384902	0.968213	0.812019
	H6329	H	0.456030	1.009601	0.900301
	H6330	H	0.397799	0.981162	0.687832
	H6331	H	0.468404	0.999959	0.599999
	Co6332	Co	0.500086	0.999928	0.625574
	Co6333	Co	0.424977	1.012479	0.625645
	Co6334	Co	0.359643	0.934255	0.874746
	Co6335	Co	0.424993	1.012454	0.874961
	C6336	C	0.373258	1.056788	0.923152
	C6337	C	0.435702	0.994199	0.922936
	C6338	C	0.411937	1.026814	0.576604
	C6339	C	0.474620	0.964565	0.576801
	C6340	C	0.412088	1.026990	0.923443
	C6341	C	0.474530	0.964358	0.923095
	C6342	C	0.373038	1.056557	0.576934
	C6343	C	0.435672	0.994231	0.577393
	C6344	C	0.410150	0.996318	0.673296
	C6345	C	0.483031	0.994081	0.673018
	C6346	C	0.372919	0.952429	0.826444
	C6347	C	0.441876	1.017040	0.827314
	C6348	C	0.372782	0.952652	0.673722
	C6349	C	0.441901	1.017318	0.672750
	C6350	C	0.410215	0.996199	0.827044
	C6351	C	0.483067	0.994052	0.827459
	C6352	C	0.377121	1.052176	1.000325
	C6353	C	0.439669	0.989806	0.500186
	C6354	C	0.407482	1.030197	1.000152
	C6355	C	0.470000	0.967736	0.500068
	C6356	C	0.405774	0.991334	0.750102
	C6357	C	0.477829	0.995106	0.750459
	C6358	C	0.377054	0.957813	0.750124
	C6359	C	0.446970	1.015522	0.749946
	C6360	C	0.384444	1.045873	1.000348
	C6361	C	0.447022	0.983543	0.499942
	C6362	C	0.399625	1.035319	1.000215
	C6363	C	0.462176	0.972935	0.499928
	C6364	C	0.398446	0.982983	0.750107
	C6365	C	0.469718	0.999485	0.750208
	C6366	C	0.384239	0.966417	0.749935
	C6367	C	0.454836	1.010446	0.749975
	C6368	C	0.388330	1.043016	0.918162
	C6369	C	0.450707	0.980274	1.082423
	C6370	C	0.395574	1.037928	0.581925
	C6371	C	0.458308	0.975796	0.417441
	C6372	C	0.395648	1.037927	0.917979
	C6373	C	0.458018	0.975165	1.081967
	C6374	C	0.388257	1.043021	0.582045
	C6375	C	0.450989	0.980899	0.417386
	C6376	C	0.394589	0.979072	0.784769
	C6377	C	0.465893	1.002391	0.833466
	C6378	C	0.388067	0.970341	0.715290
	C6379	C	0.458563	1.007339	0.666470
	C6380	C	0.387686	0.971004	0.784630
	C6381	C	0.458687	1.007655	0.833384
	C6382	C	0.394983	0.978396	0.715293
	C6383	C	0.465788	1.002090	0.666659
	N6384	N	0.367640	1.063636	0.952179
	N6385	N	0.430082	1.001037	0.951831
	N6386	N	0.418642	1.021978	0.548141
	N6387	N	0.481262	0.959601	0.548356
	N6388	N	0.418755	1.022110	0.951984
	N6389	N	0.481212	0.959471	0.951668
	N6390	N	0.367512	1.063512	0.547873
	N6391	N	0.430079	1.001085	0.548514
	N6392	N	0.416629	1.003479	0.702465
	N6393	N	0.490919	0.993227	0.701286
	N6394	N	0.366755	0.944787	0.797576
	N6395	N	0.434160	1.018858	0.799331
	N6396	N	0.366667	0.944913	0.702613
	N6397	N	0.434147	1.019014	0.701342
	N6398	N	0.416668	1.003393	0.797939
	N6399	N	0.490936	0.993198	0.798682
	H6400	H	0.526888	0.034783	0.347634
	H6401	H	0.589383	-0.027823	0.349707
	H6402	H	0.563566	0.007187	0.150911
	H6403	H	0.625884	-0.055494	0.150785
	H6404	H	0.563536	0.006996	0.349232
	H6405	H	0.625845	-0.055738	0.348732
	H6406	H	0.526718	0.034559	0.149603
	H6407	H	0.589395	-0.027699	0.150362
	H6408	H	0.556684	-0.017200	0.097765
	H6409	H	0.625949	0.046157	0.100380
	H6410	H	0.518622	0.006041	0.401723
	H6411	H	0.591128	0.004993	0.399528
	H6412	H	0.518635	0.005863	0.098251
	H6413	H	0.590928	0.005381	0.099820
	H6414	H	0.556772	-0.017181	0.401479
	H6415	H	0.626115	0.045917	0.399027
	H6416	H	0.539406	0.026422	0.350807
	H6417	H	0.601877	-0.035862	0.351277
	H6418	H	0.552120	0.017730	-0.148782
	H6419	H	0.614546	-0.044887	0.146671
	H6420	H	0.552182	0.017460	0.351758
	H6421	H	0.614598	-0.044860	0.351793
	H6422	H	0.539317	0.026630	-0.149310
	H6423	H	0.601800	-0.035885	0.147178
	H6424	H	0.544333	-0.009417	0.099848
	H6425	H	0.614111	0.033694	0.263578
	H6426	H	0.531592	-0.000458	0.400441
	H6427	H	0.603463	0.016843	0.235080
	H6428	H	0.531693	-0.000334	0.099918
	H6429	H	0.601870	0.019507	0.264206
	H6430	H	0.544221	-0.009549	0.400183
	H6431	H	0.615677	0.031033	0.234692
	Co6432	Co	0.640455	0.065796	0.125055
	Co6433	Co	0.575137	-0.012458	0.124962
	Co6434	Co	0.500094	-0.000072	0.373739
	Co6435	Co	0.575190	-0.012540	0.374062
	C6436	C	0.525633	0.035551	0.421573
	C6437	C	0.588142	-0.026984	0.423181
	C6438	C	0.564472	0.005809	0.076423
	C6439	C	0.626865	-0.056845	0.076691
	C6440	C	0.564459	0.005650	0.423412
	C6441	C	0.626866	-0.056951	0.422857
	C6442	C	0.525584	0.035526	0.075799
	C6443	C	0.588134	-0.026913	0.076545
	C6444	C	0.558272	-0.017238	0.172377
	C6445	C	0.627202	0.047505	0.173091
	C6446	C	0.517115	0.005887	0.327367
	C6447	C	0.589936	0.003741	0.326274
	C6448	C	0.517128	0.005844	0.172645
	C6449	C	0.589841	0.003897	0.173077
	C6450	C	0.558306	-0.017259	0.326983
	C6451	C	0.627288	0.047395	0.326113
	C6452	C	0.530203	0.032208	0.498425
	C6453	C	0.592649	-0.030271	-0.000437
	C6454	C	0.560484	0.010121	0.500397
	C6455	C	0.622929	-0.052335	-0.000568
	C6456	C	0.553206	-0.015585	0.249819
	C6457	C	0.623067	0.042179	0.249492
	C6458	C	0.522344	0.004835	0.250047
	C6459	C	0.594306	0.008691	0.249621
	C6460	C	0.538049	0.027051	0.499025
	C6461	C	0.600475	-0.035453	-0.000660
	C6462	C	0.553178	0.016440	0.499969
	C6463	C	0.615603	-0.046003	-0.000848
	C6464	C	0.545338	-0.010532	0.250103
	C6465	C	0.615862	0.033564	0.249509
	C6466	C	0.530444	0.000455	0.250159
	C6467	C	0.601654	0.017065	0.249658
	C6468	C	0.542082	0.024498	0.416836
	C6469	C	0.604521	-0.037911	0.417391
	C6470	C	0.549330	0.019513	-0.082952
	C6471	C	0.611781	-0.043046	0.081228
	C6472	C	0.549379	0.019331	0.417154
	C6473	C	0.611832	-0.043032	0.417592
	C6474	C	0.542008	0.024591	-0.083389
	C6475	C	0.604474	-0.037943	0.081536
	C6476	C	0.541565	-0.007598	0.166720
	C6477	C	0.611798	0.030039	0.257454
	C6478	C	0.534296	-0.002353	0.333626
	C6479	C	0.605772	0.020551	0.241289
	C6480	C	0.534343	-0.002320	0.166878
	C6481	C	0.604893	0.021997	0.257666
	C6482	C	0.541535	-0.007610	0.333468
	C6483	C	0.612682	0.028568	0.241336
	N6484	N	0.518922	0.040326	0.450113
	N6485	N	0.581447	-0.022131	0.451501
	N6486	N	0.570046	-0.001071	0.047656
	N6487	N	0.632442	-0.063730	0.047919
	N6488	N	0.570049	-0.001202	0.451855
	N6489	N	0.632445	-0.063827	0.451931
	N6490	N	0.518901	0.040410	0.047359
	N6491	N	0.581452	-0.022030	0.048124
	N6492	N	0.565993	-0.018991	0.200406
	N6493	N	0.633373	0.055195	0.202145
	N6494	N	0.509233	0.006735	0.298759
	N6495	N	0.583455	-0.003425	0.297270
	N6496	N	0.509242	0.006681	0.201211
	N6497	N	0.583407	-0.003349	0.202263
	N6498	N	0.566017	-0.019000	0.298402
	N6499	N	0.633442	0.055113	0.297292
	H6500	H	0.526791	0.034746	0.848983
	H6501	H	0.589210	-0.028036	0.848873
	H6502	H	0.563487	0.006801	0.651522
	H6503	H	0.626166	-0.055271	0.651091
	H6504	H	0.563473	0.007086	0.848254
	H6505	H	0.625976	-0.055529	0.848090
	H6506	H	0.526776	0.034409	0.649415
	H6507	H	0.589212	-0.027984	0.650808
	H6508	H	0.556701	-0.017399	0.598335
	H6509	H	0.626098	0.045937	0.599547
	H6510	H	0.518673	0.006120	0.900926
	H6511	H	0.591121	0.004980	0.899049
	H6512	H	0.518599	0.006027	0.597188
	H6513	H	0.590997	0.005000	0.598700
	H6514	H	0.556663	-0.017300	0.901254
	H6515	H	0.626126	0.045954	0.899045
	H6516	H	0.539266	0.026555	1.147574
	H6517	H	0.601676	-0.036216	0.851504
	H6518	H	0.551951	0.017371	0.648304
	H6519	H	0.614544	-0.045071	0.648629
	H6520	H	0.552013	0.017544	1.148455
	H6521	H	0.614401	-0.045267	0.851390
	H6522	H	0.539209	0.026338	0.647813
	H6523	H	0.601790	-0.036074	0.648217
	H6524	H	0.544257	-0.009427	0.899730
	H6525	H	0.614498	0.032928	0.825946
	H6526	H	0.531603	-0.000464	0.599022
	H6527	H	0.602929	0.017597	0.672767
	H6528	H	0.531581	-0.000313	0.899686
	H6529	H	0.602322	0.018632	0.824936
	H6530	H	0.544161	-0.009639	0.598888
	H6531	H	0.615061	0.031949	0.673154
	Co6532	Co	0.640390	0.065847	0.624767
	Co6533	Co	0.575084	-0.012661	0.625333
	Co6534	Co	0.500091	0.000028	0.873817
	Co6535	Co	0.575095	-0.012573	0.874226
	C6536	C	0.525613	0.035597	0.922511
	C6537	C	0.588046	-0.027072	0.922802
	C6538	C	0.564448	0.005596	0.577333
	C6539	C	0.627008	-0.056738	0.576976
	C6540	C	0.564424	0.005748	0.922432
	C6541	C	0.626903	-0.056846	0.922605
	C6542	C	0.525564	0.035356	0.575388
	C6543	C	0.588059	-0.027073	0.576879
	C6544	C	0.558214	-0.017397	0.672204
	C6545	C	0.627190	0.047349	0.672840
	C6546	C	0.517126	0.005990	0.826587
	C6547	C	0.589891	0.003681	0.825793
	C6548	C	0.517103	0.005948	0.671904
	C6549	C	0.589830	0.003691	0.672280
	C6550	C	0.558200	-0.017337	0.826961
	C6551	C	0.627231	0.047363	0.825991
	C6552	C	0.530182	0.032290	0.999072
	C6553	C	0.592699	-0.030273	0.500094
	C6554	C	0.560488	0.010271	0.999394
	C6555	C	0.622985	-0.052335	0.499961
	C6556	C	0.553141	-0.015683	0.749532
	C6557	C	0.622995	0.042151	0.749499
	C6558	C	0.522360	0.004971	0.749138
	C6559	C	0.594238	0.008614	0.748866
	C6560	C	0.538002	0.027107	0.999138
	C6561	C	0.600521	-0.035425	0.499877
	C6562	C	0.553148	0.016547	0.999682
	C6563	C	0.615670	-0.045994	0.500170
	C6564	C	0.545295	-0.010584	0.749419
	C6565	C	0.615788	0.033526	0.749543
	C6566	C	0.530450	0.000493	0.749270
	C6567	C	0.601617	0.016985	0.748960
	C6568	C	0.541966	0.024495	1.081908
	C6569	C	0.604418	-0.038134	0.917078
	C6570	C	0.549256	0.019306	0.582306
	C6571	C	0.611812	-0.043134	0.582774
	C6572	C	0.549296	0.019427	1.082309
	C6573	C	0.611728	-0.043233	0.916883
	C6574	C	0.541950	0.024429	0.582046
	C6575	C	0.604507	-0.037990	0.582347
	C6576	C	0.541498	-0.007603	0.833007
	C6577	C	0.612013	0.029534	0.792250
	C6578	C	0.534303	-0.002338	0.665983
	C6579	C	0.605427	0.020950	0.706285
	C6580	C	0.534297	-0.002272	0.832944
	C6581	C	0.605112	0.021500	0.791968
	C6582	C	0.541489	-0.007657	0.665961
	C6583	C	0.612321	0.028983	0.706740
	N6584	N	0.518928	0.040445	0.950923
	N6585	N	0.581381	-0.022136	0.951699
	N6586	N	0.570025	-0.001260	0.548205
	N6587	N	0.632514	-0.063719	0.548093
	N6588	N	0.570013	-0.001124	0.951257
	N6589	N	0.632441	-0.063748	0.951900
	N6590	N	0.518883	0.040252	0.546697
	N6591	N	0.581403	-0.022178	0.548072
	N6592	N	0.565971	-0.019187	0.700752
	N6593	N	0.633363	0.055070	0.701750
	N6594	N	0.509266	0.006801	0.798100
	N6595	N	0.583412	-0.003509	0.797100
	N6596	N	0.509268	0.006752	0.700691
	N6597	N	0.583377	-0.003488	0.701705
	N6598	N	0.565968	-0.019137	0.798805
	N6599	N	0.633382	0.055083	0.796704
	H6600	H	0.529871	0.175641	0.350840
	H6601	H	0.592190	0.112829	0.350736
	H6602	H	0.563476	0.143389	0.148699
	H6603	H	0.626071	0.080870	0.148751
	H6604	H	0.563529	0.143463	0.351619
	H6605	H	0.626204	0.081089	0.350603
	H6606	H	0.529825	0.175774	0.148839
	H6607	H	0.592464	0.113284	0.148305
	H6608	H	0.563553	0.108567	0.100704
	H6609	H	0.620821	0.197770	0.100643
	H6610	H	0.528559	0.067587	0.400284
	H6611	H	0.591072	0.149510	0.399105
	H6612	H	0.528581	0.067664	0.098968
	H6613	H	0.591242	0.149461	0.100301
	H6614	H	0.563552	0.108624	0.399551
	H6615	H	0.620958	0.197680	0.399391
	H6616	H	0.540840	0.165217	0.498423
	H6617	H	0.603266	0.102602	0.612786
	H6618	H	0.552359	0.153563	-0.000175
	H6619	H	0.615571	0.092356	0.024338
	H6620	H	0.552674	0.154049	0.498773
	H6621	H	0.615187	0.091555	0.612883
	H6622	H	0.540537	0.164773	-0.000223
	H6623	H	0.603709	0.103544	0.024326
	H6624	H	0.552747	0.094091	0.260072
	H6625	H	0.611775	0.181219	0.311696
	H6626	H	0.539674	0.081552	0.239187
	H6627	H	0.600442	0.165779	0.188529
	H6628	H	0.540589	0.079930	0.259892
	H6629	H	0.601416	0.164501	0.311660
	H6630	H	0.551882	0.095725	0.239669
	H6631	H	0.610728	0.182601	0.188543
	Co6632	Co	0.633734	0.219349	0.124907
	Co6633	Co	0.577912	0.128242	0.125183
	Co6634	Co	0.512577	0.049920	0.373937
	Co6635	Co	0.577964	0.128287	0.374715
	C6636	C	0.528704	0.176692	0.423231
	C6637	C	0.591098	0.114018	0.423372
	C6638	C	0.564609	0.142294	0.076170
	C6639	C	0.627170	0.079821	0.076113
	C6640	C	0.564685	0.142356	0.424026
	C6641	C	0.627232	0.079904	0.423360
	C6642	C	0.528703	0.176851	0.075951
	C6643	C	0.591269	0.114381	0.075651
	C6644	C	0.564666	0.109948	0.173778
	C6645	C	0.621835	0.199317	0.173515
	C6646	C	0.527361	0.066229	0.326598
	C6647	C	0.590148	0.147885	0.326216
	C6648	C	0.527364	0.066267	0.172660
	C6649	C	0.590235	0.147842	0.173265
	C6650	C	0.564659	0.109995	0.326470
	C6651	C	0.621915	0.199272	0.326513
	C6652	C	0.532802	0.172656	0.499236
	C6653	C	0.595334	0.110267	-0.000409
	C6654	C	0.560553	0.146380	0.500155
	C6655	C	0.623058	0.083913	0.000280
	C6656	C	0.560460	0.104759	0.250039
	C6657	C	0.618249	0.193305	0.250007
	C6658	C	0.531765	0.071151	0.249666
	C6659	C	0.593894	0.153783	0.249782
	C6660	C	0.539836	0.165998	0.499474
	C6661	C	0.602327	0.103537	-0.000095
	C6662	C	0.553533	0.153063	0.500255
	C6663	C	0.616056	0.090609	0.000325
	C6664	C	0.553304	0.096087	0.249894
	C6665	C	0.612091	0.183276	0.250016
	C6666	C	0.539118	0.079496	0.249751
	C6667	C	0.600081	0.163764	0.250019
	C6668	C	0.543406	0.162750	0.499107
	C6669	C	0.605841	0.100151	0.562719
	C6670	C	0.549882	0.156158	-0.000010
	C6671	C	0.612788	0.094397	0.013477
	C6672	C	0.550086	0.156436	0.499400
	C6673	C	0.612543	0.093908	0.562648
	C6674	C	0.543217	0.162506	0.000167
	C6675	C	0.606074	0.100687	0.013633
	C6676	C	0.549904	0.091346	0.255278
	C6677	C	0.609280	0.177902	0.284573
	C6678	C	0.542519	0.084195	0.243941
	C6679	C	0.602875	0.169145	0.215519
	C6680	C	0.543002	0.083308	0.255329
	C6681	C	0.603449	0.168399	0.284588
	C6682	C	0.549409	0.092272	0.244130
	C6683	C	0.608725	0.178615	0.215539
	N6684	N	0.522634	0.182679	0.452118
	N6685	N	0.585093	0.120103	0.452452
	N6686	N	0.570718	0.136396	0.047220
	N6687	N	0.633234	0.073877	0.046696
	N6688	N	0.570736	0.136373	0.452802
	N6689	N	0.633260	0.073888	0.452414
	N6690	N	0.522632	0.182778	0.047087
	N6691	N	0.585178	0.120327	0.046850
	N6692	N	0.570831	0.117636	0.202575
	N6693	N	0.627174	0.208091	0.202428
	N6694	N	0.520908	0.059048	0.297234
	N6695	N	0.584757	0.139179	0.297008
	N6696	N	0.520909	0.059075	0.201613
	N6697	N	0.584814	0.139162	0.202108
	N6698	N	0.570826	0.117658	0.297653
	N6699	N	0.627246	0.208067	0.297481
	H6700	H	0.529810	0.175627	0.851601
	H6701	H	0.592259	0.112919	0.850913
	H6702	H	0.563518	0.143317	0.649073
	H6703	H	0.625984	0.080868	0.647673
	H6704	H	0.563489	0.143470	0.851108
	H6705	H	0.626046	0.081011	0.851244
	H6706	H	0.529821	0.175514	0.647708
	H6707	H	0.592308	0.113082	0.648577
	H6708	H	0.563686	0.108372	0.599458
	H6709	H	0.620877	0.197703	0.601290
	H6710	H	0.528502	0.067834	0.898879
	H6711	H	0.591244	0.149588	0.898870
	H6712	H	0.528752	0.067275	0.598568
	H6713	H	0.591240	0.149408	0.600474
	H6714	H	0.563431	0.108700	0.899187
	H6715	H	0.620978	0.197625	0.898753
	H6716	H	0.540990	0.165606	1.000332
	H6717	H	0.602896	0.101764	0.975813
	H6718	H	0.552504	0.153791	0.501301
	H6719	H	0.615079	0.091227	0.384319
	H6720	H	0.552782	0.154341	1.000216
	H6721	H	0.614758	0.090679	0.976373
	H6722	H	0.540677	0.164962	0.500053
	H6723	H	0.603151	0.102298	0.383764
	H6724	H	0.552355	0.094748	0.777455
	H6725	H	0.611147	0.182114	0.727765
	H6726	H	0.540131	0.080829	0.719872
	H6727	H	0.601090	0.164951	0.772685
	H6728	H	0.540140	0.080603	0.777473
	H6729	H	0.600813	0.165403	0.727259
	H6730	H	0.552335	0.095039	0.720000
	H6731	H	0.611440	0.181703	0.772214
	Co6732	Co	0.633774	0.219357	0.625126
	Co6733	Co	0.577981	0.128271	0.625250
	Co6734	Co	0.512621	0.050039	0.873755
	Co6735	Co	0.577931	0.128322	0.874054
	C6736	C	0.528716	0.176786	0.923959
	C6737	C	0.591155	0.114191	0.923502
	C6738	C	0.564667	0.142292	0.576203
	C6739	C	0.627130	0.079827	0.575053
	C6740	C	0.564619	0.142304	0.923552
	C6741	C	0.627183	0.079903	0.923555
	C6742	C	0.528687	0.176650	0.575436
	C6743	C	0.591155	0.114104	0.575854
	C6744	C	0.564806	0.109829	0.672563
	C6745	C	0.621879	0.199378	0.673698
	C6746	C	0.527388	0.066368	0.825321
	C6747	C	0.590217	0.147940	0.826105
	C6748	C	0.527478	0.066112	0.672014
	C6749	C	0.590231	0.147889	0.673468
	C6750	C	0.564668	0.109989	0.825744
	C6751	C	0.621913	0.199308	0.826204
	C6752	C	0.532845	0.172802	1.000173
	C6753	C	0.595207	0.110008	0.499500
	C6754	C	0.560469	0.146285	0.999903
	C6755	C	0.623095	0.083876	0.499021
	C6756	C	0.560531	0.104659	0.748908
	C6757	C	0.618276	0.193364	0.749975
	C6758	C	0.531837	0.071127	0.748604
	C6759	C	0.593904	0.153840	0.749810
	C6760	C	0.539842	0.166062	1.000324
	C6761	C	0.602269	0.103356	0.498740
	C6762	C	0.553490	0.153046	0.999938
	C6763	C	0.616036	0.090542	0.498684
	C6764	C	0.553312	0.096100	0.748921
	C6765	C	0.612145	0.183313	0.749896
	C6766	C	0.539162	0.079525	0.748921
	C6767	C	0.600101	0.163802	0.749912
	C6768	C	0.543462	0.162949	1.000284
	C6769	C	0.605621	0.099749	0.986429
	C6770	C	0.549979	0.156287	0.500439
	C6771	C	0.612470	0.093747	0.434305
	C6772	C	0.550146	0.156626	1.000232
	C6773	C	0.612321	0.093459	0.986667
	C6774	C	0.543300	0.162599	0.500137
	C6775	C	0.605762	0.100003	0.434146
	C6776	C	0.549703	0.091776	0.764770
	C6777	C	0.608998	0.178406	0.737493
	C6778	C	0.542790	0.083856	0.732588
	C6779	C	0.603283	0.168678	0.762518
	C6780	C	0.542825	0.083712	0.764854
	C6781	C	0.603140	0.168929	0.737444
	C6782	C	0.549684	0.091909	0.732792
	C6783	C	0.609146	0.178156	0.762351
	N6784	N	0.522639	0.182744	0.952527
	N6785	N	0.585123	0.120206	0.951869
	N6786	N	0.570730	0.136335	0.547096
	N6787	N	0.633187	0.073831	0.546599
	N6788	N	0.570729	0.136404	0.952341
	N6789	N	0.633246	0.073916	0.952068
	N6790	N	0.522628	0.182650	0.546828
	N6791	N	0.585119	0.120148	0.547217
	N6792	N	0.570920	0.117569	0.701940
	N6793	N	0.627188	0.208169	0.702424
	N6794	N	0.520927	0.059134	0.796501
	N6795	N	0.584793	0.139269	0.797318
	N6796	N	0.521002	0.058982	0.701236
	N6797	N	0.584799	0.139248	0.702489
	N6798	N	0.570835	0.117668	0.797084
	N6799	N	0.627202	0.208135	0.797284
	H6800	H	0.523190	0.329163	0.352877
	H6801	H	0.585762	0.266798	0.352065
	H6802	H	0.556779	0.296949	0.149860
	H6803	H	0.619194	0.234221	0.148424
	H6804	H	0.556461	0.296377	0.353072
	H6805	H	0.619064	0.234063	0.350637
	H6806	H	0.523464	0.329673	0.149654
	H6807	H	0.585756	0.266927	0.150282
	H6808	H	0.558360	0.260138	0.100880
	H6809	H	0.612288	0.353181	0.101059
	H6810	H	0.528871	0.211790	0.399154
	H6811	H	0.583924	0.303632	0.400836
	H6812	H	0.528657	0.212053	0.101012
	H6813	H	0.583739	0.303897	0.102854
	H6814	H	0.558471	0.260030	0.398964
	H6815	H	0.612491	0.352914	0.400197
	H6816	H	0.533920	0.318419	0.474104
	H6817	H	0.596965	0.256885	0.518631
	H6818	H	0.545634	0.307129	0.043018
	H6819	H	0.608144	0.244423	0.085650
	H6820	H	0.545604	0.306964	0.474578
	H6821	H	0.608585	0.245342	0.518358
	H6822	H	0.534066	0.318771	0.042729
	H6823	H	0.596521	0.256011	0.085423
	H6824	H	0.548924	0.244143	0.139591
	H6825	H	0.602706	0.337416	0.270722
	H6826	H	0.538316	0.227765	0.360436
	H6827	H	0.593521	0.319411	0.230975
	H6828	H	0.538626	0.227379	0.139508
	H6829	H	0.592693	0.320342	0.272172
	H6830	H	0.548607	0.244517	0.360566
	H6831	H	0.603479	0.336589	0.231012
	Co6832	Co	0.624902	0.375123	0.125566
	Co6833	Co	0.571265	0.281801	0.126508
	Co6834	Co	0.515429	0.190799	0.374625
	Co6835	Co	0.571212	0.281727	0.375763
	C6836	C	0.522121	0.330524	0.424970
	C6837	C	0.584663	0.267986	0.424826
	C6838	C	0.557795	0.295547	0.077233
	C6839	C	0.620275	0.233016	0.076118
	C6840	C	0.557661	0.295317	0.425483
	C6841	C	0.620228	0.232924	0.423214
	C6842	C	0.522275	0.330695	0.077035
	C6843	C	0.584740	0.268099	0.077471
	C6844	C	0.559372	0.261757	0.174034
	C6845	C	0.613276	0.354834	0.174062
	C6846	C	0.527744	0.210263	0.326122
	C6847	C	0.582908	0.302014	0.328164
	C6848	C	0.527628	0.210406	0.173484
	C6849	C	0.582808	0.302148	0.175423
	C6850	C	0.559415	0.261700	0.326349
	C6851	C	0.613370	0.354714	0.327136
	C6852	C	0.526374	0.326655	0.501241
	C6853	C	0.588874	0.264092	0.001145
	C6854	C	0.553600	0.299480	0.501631
	C6855	C	0.616138	0.237015	0.000071
	C6856	C	0.555753	0.255718	0.250186
	C6857	C	0.609809	0.348655	0.250659
	C6858	C	0.531392	0.216258	0.250008
	C6859	C	0.586377	0.308191	0.251838
	C6860	C	0.533272	0.319775	0.501607
	C6861	C	0.595773	0.257216	0.000973
	C6862	C	0.546705	0.306362	0.501940
	C6863	C	0.609206	0.243836	0.000446
	C6864	C	0.549630	0.245669	0.250057
	C6865	C	0.603896	0.338368	0.250815
	C6866	C	0.537630	0.226155	0.249942
	C6867	C	0.592315	0.318441	0.251735
	C6868	C	0.536564	0.316106	0.486299
	C6869	C	0.599361	0.254081	0.510614
	C6870	C	0.543182	0.309662	0.024534
	C6871	C	0.605693	0.247087	0.048442
	C6872	C	0.543144	0.309576	0.486544
	C6873	C	0.605940	0.247571	0.510206
	C6874	C	0.536585	0.316152	0.024404
	C6875	C	0.599122	0.253607	0.048601
	C6876	C	0.546653	0.240550	0.188064
	C6877	C	0.600707	0.333500	0.262439
	C6878	C	0.540627	0.231277	0.312022
	C6879	C	0.595518	0.323321	0.240027
	C6880	C	0.540804	0.231070	0.187877
	C6881	C	0.595066	0.323800	0.262960
	C6882	C	0.546449	0.240788	0.312036
	C6883	C	0.601159	0.333027	0.239687
	N6884	N	0.516107	0.336532	0.453812
	N6885	N	0.578638	0.274023	0.454029
	N6886	N	0.563805	0.289514	0.048781
	N6887	N	0.626290	0.226986	0.047164
	N6888	N	0.563734	0.289359	0.453858
	N6889	N	0.626293	0.226998	0.452341
	N6890	N	0.516228	0.336704	0.048301
	N6891	N	0.578754	0.274189	0.048652
	N6892	N	0.564678	0.270534	0.203095
	N6893	N	0.618413	0.363795	0.203100
	N6894	N	0.522263	0.201655	0.297151
	N6895	N	0.577746	0.293057	0.299059
	N6896	N	0.522194	0.201741	0.202161
	N6897	N	0.577668	0.293150	0.204150
	N6898	N	0.564724	0.270487	0.297692
	N6899	N	0.618476	0.363714	0.298074
	H6900	H	0.523159	0.329268	0.852012
	H6901	H	0.585864	0.267064	0.852020
	H6902	H	0.556770	0.296776	0.649726
	H6903	H	0.619172	0.234253	0.648825
	H6904	H	0.556278	0.295943	0.852211
	H6905	H	0.619066	0.233934	0.851030
	H6906	H	0.523578	0.330005	0.649662
	H6907	H	0.586004	0.267154	0.650630
	H6908	H	0.558217	0.260400	0.601225
	H6909	H	0.612484	0.353034	0.601276
	H6910	H	0.528516	0.212158	0.899339
	H6911	H	0.583839	0.303686	0.900794
	H6912	H	0.528841	0.211787	0.600354
	H6913	H	0.583990	0.303648	0.601597
	H6914	H	0.558402	0.260109	0.900056
	H6915	H	0.612275	0.353313	0.899983
	H6916	H	0.534103	0.318637	0.958804
	H6917	H	0.596808	0.256630	0.916500
	H6918	H	0.545997	0.307648	0.529679
	H6919	H	0.607933	0.244123	0.481164
	H6920	H	0.545800	0.307166	0.958748
	H6921	H	0.608439	0.245103	0.915872
	H6922	H	0.534389	0.319187	0.529290
	H6923	H	0.596288	0.255693	0.481409
	H6924	H	0.548344	0.244853	0.780753
	H6925	H	0.602648	0.337383	0.812603
	H6926	H	0.538800	0.227247	0.719148
	H6927	H	0.593714	0.319456	0.689417
	H6928	H	0.538050	0.228067	0.780577
	H6929	H	0.592747	0.320229	0.812885
	H6930	H	0.549037	0.244037	0.719709
	H6931	H	0.603654	0.336572	0.689384
	Co6932	Co	0.624880	0.375140	0.626101
	Co6933	Co	0.571279	0.281827	0.626317
	Co6934	Co	0.515417	0.190733	0.874625
	Co6935	Co	0.571231	0.281775	0.875727
	C6936	C	0.522123	0.330469	0.924733
	C6937	C	0.584797	0.268191	0.924972
	C6938	C	0.557816	0.295511	0.577527
	C6939	C	0.620271	0.233011	0.575965
	C6940	C	0.557563	0.295063	0.924860
	C6941	C	0.620228	0.232902	0.923748
	C6942	C	0.522328	0.330924	0.577238
	C6943	C	0.584791	0.268170	0.577684
	C6944	C	0.559232	0.261918	0.674293
	C6945	C	0.613374	0.354725	0.674210
	C6946	C	0.527595	0.210450	0.826649
	C6947	C	0.582896	0.302055	0.827552
	C6948	C	0.527765	0.210259	0.673542
	C6949	C	0.582971	0.302043	0.674747
	C6950	C	0.559330	0.261742	0.826825
	C6951	C	0.613270	0.354839	0.826965
	C6952	C	0.526257	0.326456	1.000873
	C6953	C	0.588781	0.264003	0.500950
	C6954	C	0.553555	0.299343	1.000974
	C6955	C	0.616127	0.236976	0.499572
	C6956	C	0.555657	0.255870	0.750462
	C6957	C	0.609863	0.348652	0.750704
	C6958	C	0.531348	0.216277	0.750132
	C6959	C	0.586445	0.308148	0.751341
	C6960	C	0.533162	0.319577	1.000710
	C6961	C	0.595688	0.257145	0.500450
	C6962	C	0.546647	0.306232	1.001011
	C6963	C	0.609211	0.243830	0.499818
	C6964	C	0.549534	0.245794	0.750148
	C6965	C	0.603947	0.338381	0.751048
	C6966	C	0.537522	0.226265	0.750142
	C6967	C	0.592404	0.318404	0.751540
	C6968	C	0.536657	0.316157	0.977055
	C6969	C	0.599296	0.253964	0.953254
	C6970	C	0.543394	0.310035	0.517364
	C6971	C	0.605575	0.246909	0.489489
	C6972	C	0.543240	0.309637	0.977261
	C6973	C	0.605856	0.247423	0.952973
	C6974	C	0.536805	0.316545	0.517171
	C6975	C	0.598988	0.253412	0.489754
	C6976	C	0.546264	0.240980	0.767392
	C6977	C	0.600706	0.333467	0.785690
	C6978	C	0.540804	0.231057	0.732809
	C6979	C	0.595649	0.323315	0.716885
	C6980	C	0.540435	0.231476	0.767364
	C6981	C	0.595108	0.323762	0.785940
	C6982	C	0.546638	0.240542	0.732813
	C6983	C	0.601251	0.333024	0.716800
	N6984	N	0.516145	0.336595	0.953491
	N6985	N	0.578777	0.274236	0.953854
	N6986	N	0.563830	0.289474	0.548216
	N6987	N	0.626310	0.227044	0.547245
	N6988	N	0.563673	0.289226	0.953917
	N6989	N	0.626254	0.226908	0.952364
	N6990	N	0.516230	0.336782	0.548319
	N6991	N	0.578713	0.274126	0.549033
	N6992	N	0.564632	0.270621	0.703477
	N6993	N	0.618470	0.363771	0.703233
	N6994	N	0.522216	0.201744	0.797534
	N6995	N	0.577730	0.293128	0.798567
	N6996	N	0.522311	0.201635	0.702359
	N6997	N	0.577780	0.293117	0.703590
	N6998	N	0.564684	0.270503	0.798250
	N6999	N	0.618412	0.363828	0.797765
	H7000	H	0.514321	0.485032	0.352884
	H7001	H	0.577013	0.422698	0.353360
	H7002	H	0.547941	0.452576	0.149979
	H7003	H	0.610501	0.390272	0.149180
	H7004	H	0.547700	0.452206	0.351863
	H7005	H	0.610238	0.389713	0.351797
	H7006	H	0.514560	0.485422	0.150227
	H7007	H	0.577361	0.423294	0.149983
	H7008	H	0.549707	0.415981	0.102591
	H7009	H	0.603579	0.508909	0.100646
	H7010	H	0.521405	0.366143	0.401623
	H7011	H	0.575210	0.459302	0.400010
	H7012	H	0.521486	0.366138	0.102308
	H7013	H	0.574828	0.459723	0.102553
	H7014	H	0.550085	0.415541	0.400595
	H7015	H	0.603499	0.509008	0.400118
	H7016	H	0.525503	0.474986	0.572174
	H7017	H	0.587774	0.412087	0.452425
	H7018	H	0.537147	0.463439	0.054440
	H7019	H	0.599818	0.401222	-0.034896
	H7020	H	0.537170	0.463532	0.572744
	H7021	H	0.599411	0.400574	0.451716
	H7022	H	0.525588	0.475062	0.054037
	H7023	H	0.588278	0.412857	-0.034805
	H7024	H	0.539897	0.400347	0.187761
	H7025	H	0.594560	0.492472	0.303797
	H7026	H	0.531369	0.381612	0.316344
	H7027	H	0.583911	0.476056	0.197879
	H7028	H	0.530011	0.383086	0.188893
	H7029	H	0.584597	0.475384	0.303913
	H7030	H	0.541275	0.398789	0.315572
	H7031	H	0.593902	0.493212	0.197766
	Co7032	Co	0.616146	0.530821	0.126213
	Co7033	Co	0.562408	0.437630	0.126904
	Co7034	Co	0.508727	0.344279	0.375705
	Co7035	Co	0.562512	0.437578	0.376379
	C7036	C	0.513286	0.486261	0.425027
	C7037	C	0.575933	0.423858	0.425872
	C7038	C	0.548927	0.451262	0.077846
	C7039	C	0.611499	0.388935	0.076779
	C7040	C	0.548867	0.451105	0.424482
	C7041	C	0.611389	0.388669	0.424518
	C7042	C	0.513433	0.486456	0.077931
	C7043	C	0.576090	0.424248	0.077521
	C7044	C	0.550751	0.417416	0.175493
	C7045	C	0.604500	0.510535	0.174085
	C7046	C	0.520454	0.364533	0.328413
	C7047	C	0.574127	0.457792	0.327447
	C7048	C	0.520501	0.364540	0.175297
	C7049	C	0.573942	0.458008	0.175247
	C7050	C	0.550922	0.417220	0.327775
	C7051	C	0.604461	0.510558	0.326997
	C7052	C	0.517448	0.482277	0.500506
	C7053	C	0.580078	0.420016	0.001067
	C7054	C	0.544800	0.455275	0.500605
	C7055	C	0.607297	0.392820	0.000781
	C7056	C	0.547336	0.411216	0.251559
	C7057	C	0.600941	0.504464	0.250355
	C7058	C	0.523955	0.370615	0.252116
	C7059	C	0.577527	0.464018	0.251342
	C7060	C	0.524387	0.475447	0.500143
	C7061	C	0.586986	0.413134	0.000755
	C7062	C	0.537865	0.462117	0.500383
	C7063	C	0.600411	0.399727	0.000603
	C7064	C	0.541415	0.400930	0.251611
	C7065	C	0.594993	0.494243	0.250487
	C7066	C	0.529890	0.380912	0.252536
	C7067	C	0.583455	0.474278	0.251144
	C7068	C	0.527964	0.472305	0.540768
	C7069	C	0.590347	0.409589	0.474217
	C7070	C	0.534533	0.465766	0.031423
	C7071	C	0.597153	0.403479	-0.019338
	C7072	C	0.534536	0.465796	0.540838
	C7073	C	0.596916	0.403064	0.473750
	C7074	C	0.527993	0.472316	0.031057
	C7075	C	0.590617	0.410051	-0.019468
	C7076	C	0.538058	0.396232	0.216090
	C7077	C	0.592231	0.488919	0.280465
	C7078	C	0.533225	0.385674	0.288194
	C7079	C	0.586220	0.479608	0.220932
	C7080	C	0.532480	0.386492	0.216661
	C7081	C	0.586607	0.479235	0.280725
	C7082	C	0.538822	0.395398	0.287747
	C7083	C	0.591852	0.489304	0.220935
	N7084	N	0.507296	0.492350	0.454202
	N7085	N	0.569918	0.429918	0.454598
	N7086	N	0.554949	0.445211	0.048819
	N7087	N	0.617480	0.382830	0.047617
	N7088	N	0.554879	0.445061	0.453500
	N7089	N	0.617429	0.382696	0.453319
	N7090	N	0.507372	0.492400	0.049367
	N7091	N	0.570010	0.430170	0.048937
	N7092	N	0.555963	0.426304	0.204283
	N7093	N	0.609689	0.519454	0.203411
	N7094	N	0.515283	0.355574	0.298952
	N7095	N	0.568935	0.448867	0.298775
	N7096	N	0.515318	0.355583	0.203657
	N7097	N	0.568822	0.448998	0.204050
	N7098	N	0.556062	0.426219	0.298778
	N7099	N	0.609688	0.519444	0.298214
	H7100	H	0.514542	0.485369	0.853236
	H7101	H	0.576970	0.422776	0.852264
	H7102	H	0.547778	0.452520	0.649792
	H7103	H	0.610297	0.390018	0.649162
	H7104	H	0.547444	0.451786	0.853219
	H7105	H	0.610054	0.389637	0.852567
	H7106	H	0.514683	0.485599	0.648986
	H7107	H	0.577057	0.422988	0.650849
	H7108	H	0.550082	0.415624	0.602191
	H7109	H	0.603639	0.508807	0.601596
	H7110	H	0.521417	0.366180	0.899472
	H7111	H	0.574936	0.459552	0.901175
	H7112	H	0.521368	0.366233	0.600828
	H7113	H	0.574855	0.459616	0.602380
	H7114	H	0.549727	0.415570	0.899577
	H7115	H	0.603412	0.508861	0.900208
	H7116	H	0.525063	0.474097	0.949588
	H7117	H	0.587501	0.411563	1.036333
	H7118	H	0.536700	0.462566	0.428147
	H7119	H	0.599593	0.400664	0.551143
	H7120	H	0.536679	0.462541	0.949887
	H7121	H	0.599117	0.399978	1.036283
	H7122	H	0.525038	0.474075	0.428146
	H7123	H	0.587944	0.412137	0.551375
	H7124	H	0.540492	0.399747	0.675959
	H7125	H	0.594137	0.492878	0.745764
	H7126	H	0.530818	0.382067	0.824710
	H7127	H	0.584357	0.475547	0.756039
	H7128	H	0.530576	0.382541	0.676051
	H7129	H	0.584154	0.475768	0.746232
	H7130	H	0.540699	0.399313	0.824730
	H7131	H	0.594364	0.492642	0.755906
	Co7132	Co	0.616176	0.530779	0.626243
	Co7133	Co	0.562387	0.437575	0.626819
	Co7134	Co	0.508722	0.344360	0.875738
	Co7135	Co	0.562339	0.437566	0.876359
	C7136	C	0.513427	0.486438	0.925939
	C7137	C	0.575911	0.423985	0.924902
	C7138	C	0.548913	0.451261	0.576922
	C7139	C	0.611436	0.388832	0.576886
	C7140	C	0.548670	0.450857	0.925825
	C7141	C	0.611293	0.388616	0.924454
	C7142	C	0.513465	0.486530	0.576608
	C7143	C	0.575965	0.424028	0.578159
	C7144	C	0.550927	0.417257	0.674725
	C7145	C	0.604523	0.510449	0.674461
	C7146	C	0.520418	0.364548	0.826510
	C7147	C	0.573964	0.457910	0.828265
	C7148	C	0.520412	0.364552	0.673988
	C7149	C	0.573934	0.457929	0.675054
	C7150	C	0.550754	0.417247	0.827175
	C7151	C	0.604420	0.510484	0.827145
	C7152	C	0.517529	0.482399	1.001770
	C7153	C	0.580050	0.419870	0.502157
	C7154	C	0.544711	0.455105	1.002100
	C7155	C	0.607331	0.392817	0.500583
	C7156	C	0.547341	0.411147	0.750702
	C7157	C	0.600975	0.504389	0.750702
	C7158	C	0.523941	0.370648	0.750014
	C7159	C	0.577457	0.463981	0.751580
	C7160	C	0.524434	0.475496	1.001762
	C7161	C	0.586963	0.413019	0.502010
	C7162	C	0.537835	0.462053	1.002282
	C7163	C	0.600413	0.399667	0.501100
	C7164	C	0.541419	0.400886	0.750286
	C7165	C	0.595004	0.494147	0.750735
	C7166	C	0.529874	0.380905	0.749858
	C7167	C	0.583410	0.474225	0.751387
	C7168	C	0.527735	0.471802	0.972670
	C7169	C	0.590222	0.409338	1.021030
	C7170	C	0.534293	0.465267	0.459763
	C7171	C	0.597027	0.403104	0.529175
	C7172	C	0.534262	0.465235	0.972659
	C7173	C	0.596776	0.402796	1.020699
	C7174	C	0.527706	0.471764	0.459444
	C7175	C	0.590454	0.409616	0.529607
	C7176	C	0.538394	0.395881	0.708502
	C7177	C	0.591961	0.489095	0.748027
	C7178	C	0.532888	0.385922	0.791762
	C7179	C	0.586473	0.479279	0.753899
	C7180	C	0.532771	0.386165	0.708398
	C7181	C	0.586342	0.479395	0.748176
	C7182	C	0.538507	0.395635	0.791889
	C7183	C	0.592096	0.488983	0.753558
	N7184	N	0.507334	0.492352	0.954886
	N7185	N	0.569908	0.430013	0.954003
	N7186	N	0.554920	0.445168	0.548315
	N7187	N	0.617476	0.382823	0.548150
	N7188	N	0.554787	0.444961	0.954285
	N7189	N	0.617354	0.382623	0.953015
	N7190	N	0.507417	0.492544	0.548307
	N7191	N	0.569922	0.429992	0.549032
	N7192	N	0.556025	0.426232	0.704296
	N7193	N	0.609661	0.519431	0.703441
	N7194	N	0.515206	0.355640	0.797998
	N7195	N	0.568797	0.448936	0.799461
	N7196	N	0.515219	0.355641	0.703078
	N7197	N	0.568790	0.448939	0.703967
	N7198	N	0.555932	0.426221	0.798907
	N7199	N	0.609622	0.519435	0.798280
	H7200	H	0.505940	0.641140	0.352783
	H7201	H	0.568418	0.578772	0.352219
	H7202	H	0.538913	0.607788	0.148803
	H7203	H	0.601709	0.545759	0.149890
	H7204	H	0.539058	0.608115	0.352750
	H7205	H	0.601740	0.545843	0.352127
	H7206	H	0.505677	0.640649	0.149487
	H7207	H	0.568221	0.578447	0.150213
	H7208	H	0.540990	0.571439	0.102100
	H7209	H	0.596500	0.662711	0.101934
	H7210	H	0.512545	0.521925	0.401113
	H7211	H	0.566626	0.614856	0.399927
	H7212	H	0.512495	0.522049	0.103118
	H7213	H	0.566548	0.614966	0.101912
	H7214	H	0.541196	0.571323	0.400616
	H7215	H	0.596228	0.663188	0.400523
	H7216	H	0.516299	0.629827	0.517225
	H7217	H	0.578578	0.566864	0.428001
	H7218	H	0.528364	0.619019	-0.029432
	H7219	H	0.590595	0.555953	0.014874
	H7220	H	0.527896	0.618279	0.516333
	H7221	H	0.590253	0.555414	0.426879
	H7222	H	0.516782	0.630556	-0.028911
	H7223	H	0.578959	0.567512	0.015326
	H7224	H	0.532441	0.554623	0.311591
	H7225	H	0.586778	0.647213	0.171809
	H7226	H	0.521285	0.538668	0.191972
	H7227	H	0.576049	0.630765	0.330038
	H7228	H	0.522461	0.537495	0.310941
	H7229	H	0.576440	0.630511	0.171389
	H7230	H	0.531201	0.555890	0.191911
	H7231	H	0.586400	0.647428	0.330247
	Co7232	Co	0.609634	0.684133	0.125768
	Co7233	Co	0.553689	0.593241	0.126625
	Co7234	Co	0.499840	0.500045	0.376707
	Co7235	Co	0.553671	0.593318	0.376092
	C7236	C	0.504751	0.642245	0.425818
	C7237	C	0.567214	0.579736	0.425054
	C7238	C	0.540133	0.606766	0.076622
	C7239	C	0.602724	0.544544	0.077387
	C7240	C	0.540182	0.606989	0.425623
	C7241	C	0.602775	0.544619	0.424469
	C7242	C	0.504621	0.641927	0.077009
	C7243	C	0.567149	0.579584	0.077840
	C7244	C	0.541975	0.573046	0.175172
	C7245	C	0.597457	0.664455	0.174758
	C7246	C	0.511591	0.520269	0.328274
	C7247	C	0.565572	0.613227	0.327169
	C7248	C	0.511580	0.520317	0.175919
	C7249	C	0.565537	0.613287	0.174414
	C7250	C	0.542091	0.573019	0.327947
	C7251	C	0.597308	0.664698	0.327394
	C7252	C	0.508775	0.638135	0.502429
	C7253	C	0.571244	0.575512	0.001810
	C7254	C	0.536082	0.611054	0.501980
	C7255	C	0.598556	0.548448	0.001488
	C7256	C	0.538541	0.566944	0.251769
	C7257	C	0.593672	0.658621	0.251297
	C7258	C	0.515128	0.526386	0.252041
	C7259	C	0.569226	0.619256	0.250845
	C7260	C	0.515688	0.631274	0.502756
	C7261	C	0.578153	0.568625	0.001974
	C7262	C	0.529172	0.617931	0.501946
	C7263	C	0.591630	0.555288	0.001561
	C7264	C	0.532617	0.556666	0.251988
	C7265	C	0.587464	0.648706	0.251358
	C7266	C	0.521067	0.536668	0.251655
	C7267	C	0.575381	0.629227	0.250944
	C7268	C	0.518975	0.627549	0.510687
	C7269	C	0.581354	0.564805	0.459756
	C7270	C	0.525839	0.621417	-0.016245
	C7271	C	0.588110	0.558565	0.009162
	C7272	C	0.525550	0.621042	0.510092
	C7273	C	0.587944	0.558327	0.459231
	C7274	C	0.519276	0.627946	-0.016054
	C7275	C	0.581536	0.565058	0.009466
	C7276	C	0.529972	0.551193	0.285164
	C7277	C	0.584458	0.643651	0.206601
	C7278	C	0.523698	0.542125	0.218267
	C7279	C	0.578360	0.634295	0.295389
	C7280	C	0.524375	0.541460	0.284977
	C7281	C	0.578585	0.634168	0.206534
	C7282	C	0.529308	0.551853	0.218386
	C7283	C	0.584234	0.643779	0.295645
	N7284	N	0.498675	0.648242	0.454274
	N7285	N	0.561156	0.585674	0.453909
	N7286	N	0.546201	0.600798	0.048131
	N7287	N	0.608710	0.538474	0.048371
	N7288	N	0.546193	0.600950	0.454217
	N7289	N	0.608796	0.538562	0.453389
	N7290	N	0.498593	0.647958	0.048413
	N7291	N	0.561126	0.585596	0.048795
	N7292	N	0.547156	0.582034	0.203953
	N7293	N	0.602841	0.673175	0.203303
	N7294	N	0.506442	0.511314	0.299536
	N7295	N	0.560219	0.604514	0.298420
	N7296	N	0.506433	0.511324	0.204885
	N7297	N	0.560192	0.604550	0.203426
	N7298	N	0.547210	0.582011	0.298977
	N7299	N	0.602741	0.673308	0.298317
	H7300	H	0.505969	0.641315	0.851927
	H7301	H	0.568229	0.578311	0.853493
	H7302	H	0.539013	0.608054	0.650969
	H7303	H	0.601541	0.545530	0.648637
	H7304	H	0.539314	0.608303	0.852373
	H7305	H	0.601305	0.545150	0.853191
	H7306	H	0.505705	0.641072	0.651213
	H7307	H	0.568190	0.578318	0.650398
	H7308	H	0.541146	0.571214	0.602829
	H7309	H	0.596441	0.662815	0.601788
	H7310	H	0.512247	0.522155	0.901089
	H7311	H	0.566698	0.614665	0.900503
	H7312	H	0.512573	0.521869	0.602818
	H7313	H	0.566542	0.614942	0.601582
	H7314	H	0.540753	0.571655	0.901356
	H7315	H	0.596182	0.663102	0.900632
	H7316	H	0.516584	0.630186	1.030626
	H7317	H	0.579232	0.567998	0.988767
	H7318	H	0.528518	0.619376	0.487873
	H7319	H	0.591268	0.557180	0.573233
	H7320	H	0.528226	0.618638	1.029466
	H7321	H	0.590871	0.556509	0.988948
	H7322	H	0.516920	0.630915	0.488735
	H7323	H	0.579583	0.568661	0.575135
	H7324	H	0.530846	0.556070	0.763037
	H7325	H	0.586326	0.647666	0.753459
	H7326	H	0.522542	0.537392	0.741547
	H7327	H	0.576437	0.630204	0.748489
	H7328	H	0.520976	0.538907	0.763125
	H7329	H	0.575949	0.630963	0.753418
	H7330	H	0.532388	0.554576	0.741628
	H7331	H	0.586754	0.646968	0.748547
	Co7332	Co	0.609517	0.684211	0.626384
	Co7333	Co	0.553690	0.593285	0.626658
	Co7334	Co	0.499886	0.500023	0.876262
	Co7335	Co	0.553717	0.593222	0.876148
	C7336	C	0.504771	0.642257	0.924702
	C7337	C	0.567166	0.579535	0.925501
	C7338	C	0.540161	0.606942	0.578165
	C7339	C	0.602692	0.544468	0.576278
	C7340	C	0.540331	0.607046	0.924648
	C7341	C	0.602525	0.544229	0.925431
	C7342	C	0.504630	0.642178	0.578439
	C7343	C	0.567093	0.579528	0.577617
	C7344	C	0.542037	0.572972	0.675705
	C7345	C	0.597349	0.664532	0.674744
	C7346	C	0.511431	0.520409	0.828256
	C7347	C	0.565630	0.613149	0.827376
	C7348	C	0.511589	0.520269	0.675885
	C7349	C	0.565547	0.613253	0.674708
	C7350	C	0.541838	0.573196	0.828430
	C7351	C	0.597223	0.664651	0.827514
	C7352	C	0.508801	0.638033	1.000629
	C7353	C	0.571246	0.575524	0.501417
	C7354	C	0.536118	0.610982	1.000543
	C7355	C	0.598633	0.548575	0.500223
	C7356	C	0.538385	0.567026	0.752354
	C7357	C	0.593575	0.658690	0.751174
	C7358	C	0.515014	0.526425	0.752243
	C7359	C	0.569191	0.619238	0.751142
	C7360	C	0.515751	0.631230	1.000514
	C7361	C	0.578186	0.568697	0.501240
	C7362	C	0.529218	0.617865	1.000292
	C7363	C	0.591709	0.555426	0.500173
	C7364	C	0.532445	0.556758	0.752538
	C7365	C	0.587410	0.648698	0.750958
	C7366	C	0.520919	0.536710	0.752220
	C7367	C	0.575354	0.629237	0.750921
	C7368	C	0.519170	0.627722	1.017214
	C7369	C	0.581685	0.565379	0.994433
	C7370	C	0.525877	0.621614	0.494114
	C7371	C	0.588499	0.559300	0.541820
	C7372	C	0.525744	0.621206	1.016798
	C7373	C	0.588263	0.558892	0.994302
	C7374	C	0.519316	0.628140	0.494438
	C7375	C	0.581902	0.565795	0.542317
	C7376	C	0.529059	0.552034	0.758281
	C7377	C	0.584184	0.643884	0.752196
	C7378	C	0.524320	0.541482	0.746093
	C7379	C	0.578559	0.634038	0.749613
	C7380	C	0.523473	0.542277	0.758529
	C7381	C	0.578315	0.634416	0.752355
	C7382	C	0.529919	0.551204	0.746321
	C7383	C	0.584431	0.643503	0.749489
	N7384	N	0.498702	0.648189	0.953950
	N7385	N	0.561146	0.585593	0.954361
	N7386	N	0.546195	0.600940	0.549124
	N7387	N	0.608731	0.538451	0.547940
	N7388	N	0.546330	0.601020	0.953725
	N7389	N	0.608586	0.538264	0.953980
	N7390	N	0.498606	0.648196	0.549074
	N7391	N	0.561094	0.585571	0.548555
	N7392	N	0.547239	0.581895	0.704361
	N7393	N	0.602739	0.673232	0.703504
	N7394	N	0.506316	0.511397	0.799302
	N7395	N	0.560310	0.604389	0.798418
	N7396	N	0.506416	0.511310	0.704458
	N7397	N	0.560254	0.604482	0.703763
	N7398	N	0.547110	0.582021	0.799230
	N7399	N	0.602671	0.673317	0.798414
	H7400	H	0.498827	0.793892	0.352224
	H7401	H	0.561419	0.731385	0.353200
	H7402	H	0.532724	0.761998	0.149724
	H7403	H	0.595088	0.699131	0.149356
	H7404	H	0.532788	0.762098	0.352383
	H7405	H	0.595019	0.699204	0.352608
	H7406	H	0.499085	0.794161	0.149307
	H7407	H	0.561438	0.731451	0.149568
	H7408	H	0.533872	0.725430	0.101092
	H7409	H	0.596468	0.807646	0.100210
	H7410	H	0.503797	0.677786	0.400314
	H7411	H	0.561493	0.766576	0.399079
	H7412	H	0.504305	0.677047	0.102148
	H7413	H	0.561560	0.766316	0.100849
	H7414	H	0.533892	0.725618	0.400795
	H7415	H	0.596653	0.807246	0.400039
	H7416	H	0.511301	0.786268	0.407112
	H7417	H	0.572611	0.721486	0.533343
	H7418	H	0.522142	0.773088	0.021813
	H7419	H	0.583434	0.708332	-0.030067
	H7420	H	0.523222	0.775196	0.407252
	H7421	H	0.584346	0.710150	0.533332
	H7422	H	0.510261	0.784173	0.021544
	H7423	H	0.571623	0.719507	-0.030090
	H7424	H	0.524246	0.709766	0.223038
	H7425	H	0.584689	0.794817	0.330198
	H7426	H	0.513485	0.693400	0.279164
	H7427	H	0.573020	0.779580	0.169672
	H7428	H	0.513919	0.693069	0.223477
	H7429	H	0.572510	0.780605	0.329747
	H7430	H	0.523864	0.710111	0.279979
	H7431	H	0.585193	0.793838	0.169784
	Co7432	Co	0.612471	0.825034	0.125261
	Co7433	Co	0.547070	0.746750	0.125628
	Co7434	Co	0.491199	0.655856	0.376159
	Co7435	Co	0.547110	0.746808	0.375175
	C7436	C	0.497778	0.795103	0.424966
	C7437	C	0.560304	0.732636	0.425519
	C7438	C	0.533888	0.760844	0.077082
	C7439	C	0.596309	0.698090	0.076910
	C7440	C	0.533891	0.760923	0.424466
	C7441	C	0.596216	0.698138	0.425393
	C7442	C	0.497852	0.795174	0.076848
	C7443	C	0.560338	0.732635	0.077077
	C7444	C	0.534829	0.727107	0.174519
	C7445	C	0.597668	0.808808	0.173090
	C7446	C	0.502986	0.676005	0.327392
	C7447	C	0.560370	0.765124	0.326177
	C7448	C	0.503237	0.675616	0.175103
	C7449	C	0.560395	0.764971	0.173668
	C7450	C	0.534841	0.727182	0.327570
	C7451	C	0.597772	0.808594	0.326678
	C7452	C	0.501926	0.791118	0.501062
	C7453	C	0.564482	0.728588	0.000749
	C7454	C	0.529709	0.764851	0.500538
	C7455	C	0.592230	0.702239	0.000761
	C7456	C	0.531133	0.721289	0.251323
	C7457	C	0.593320	0.803811	0.249841
	C7458	C	0.506727	0.681756	0.251064
	C7459	C	0.564575	0.770273	0.249697
	C7460	C	0.508972	0.784437	0.500735
	C7461	C	0.571488	0.721871	0.001095
	C7462	C	0.522698	0.771574	0.500684
	C7463	C	0.585212	0.708942	0.000961
	C7464	C	0.524922	0.711291	0.251246
	C7465	C	0.585947	0.795490	0.249630
	C7466	C	0.512864	0.691838	0.251013
	C7467	C	0.571762	0.778916	0.249543
	C7468	C	0.513278	0.782654	0.448208
	C7469	C	0.575059	0.718837	0.519540
	C7470	C	0.519417	0.775244	0.012295
	C7471	C	0.581237	0.711425	-0.016506
	C7472	C	0.519990	0.776409	0.448156
	C7473	C	0.581696	0.712401	0.519778
	C7474	C	0.512710	0.781550	0.012127
	C7475	C	0.574550	0.717739	-0.016336
	C7476	C	0.521923	0.706223	0.235646
	C7477	C	0.582141	0.791524	0.294639
	C7478	C	0.515842	0.696958	0.266848
	C7479	C	0.575543	0.782937	0.204698
	C7480	C	0.516068	0.696793	0.235309
	C7481	C	0.575260	0.783459	0.294693
	C7482	C	0.521698	0.706398	0.267085
	C7483	C	0.582420	0.791013	0.204765
	N7484	N	0.491718	0.801073	0.454020
	N7485	N	0.554263	0.738636	0.453840
	N7486	N	0.539948	0.754876	0.048021
	N7487	N	0.602395	0.692166	0.047918
	N7488	N	0.539965	0.754950	0.453214
	N7489	N	0.602330	0.692265	0.453920
	N7490	N	0.491771	0.801094	0.048133
	N7491	N	0.554309	0.738641	0.047950
	N7492	N	0.540240	0.735813	0.203107
	N7493	N	0.604139	0.815953	0.202188
	N7494	N	0.497728	0.667101	0.299158
	N7495	N	0.554194	0.757408	0.297654
	N7496	N	0.497873	0.666857	0.204349
	N7497	N	0.554218	0.757301	0.202799
	N7498	N	0.540261	0.735870	0.298220
	N7499	N	0.604219	0.815792	0.297321
	H7500	H	0.498982	0.794140	0.851707
	H7501	H	0.561533	0.731579	0.851977
	H7502	H	0.532695	0.761900	0.648965
	H7503	H	0.595093	0.699191	0.651110
	H7504	H	0.532840	0.762011	0.852012
	H7505	H	0.595285	0.699521	0.852302
	H7506	H	0.499007	0.794104	0.649912
	H7507	H	0.561587	0.731922	0.650038
	H7508	H	0.533691	0.725846	0.601637
	H7509	H	0.596608	0.807216	0.599588
	H7510	H	0.504055	0.677477	0.900112
	H7511	H	0.561481	0.766530	0.899826
	H7512	H	0.504141	0.677319	0.601740
	H7513	H	0.561518	0.766461	0.601199
	H7514	H	0.533942	0.725417	0.900041
	H7515	H	0.596480	0.807592	0.900156
	H7516	H	0.509719	0.783077	0.978375
	H7517	H	0.573271	0.722584	1.032149
	H7518	H	0.520391	0.769786	0.593933
	H7519	H	0.583986	0.709381	0.470897
	H7520	H	0.521527	0.771880	0.979066
	H7521	H	0.585124	0.711405	1.031934
	H7522	H	0.508505	0.780932	0.594243
	H7523	H	0.572294	0.720778	0.470848
	H7524	H	0.524097	0.709864	0.661504
	H7525	H	0.585062	0.794123	0.784271
	H7526	H	0.513722	0.693284	0.838857
	H7527	H	0.572599	0.780345	0.715368
	H7528	H	0.513816	0.693079	0.662106
	H7529	H	0.572874	0.779923	0.785180
	H7530	H	0.524004	0.710024	0.839176
	H7531	H	0.584844	0.794428	0.716124
	Co7532	Co	0.612447	0.825005	0.624879
	Co7533	Co	0.547066	0.746828	0.625883
	Co7534	Co	0.491208	0.655878	0.876257
	Co7535	Co	0.547122	0.746723	0.875379
	C7536	C	0.497834	0.795185	0.924513
	C7537	C	0.560371	0.732670	0.924435
	C7538	C	0.533813	0.760799	0.576509
	C7539	C	0.596261	0.698135	0.578098
	C7540	C	0.533947	0.760867	0.924889
	C7541	C	0.596400	0.698291	0.924442
	C7542	C	0.497829	0.795165	0.577308
	C7543	C	0.560418	0.732892	0.577666
	C7544	C	0.534747	0.727324	0.674257
	C7545	C	0.597711	0.808654	0.672966
	C7546	C	0.503137	0.675844	0.827253
	C7547	C	0.560328	0.765104	0.827011
	C7548	C	0.503185	0.675747	0.674549
	C7549	C	0.560352	0.765035	0.674248
	C7550	C	0.534880	0.727105	0.827189
	C7551	C	0.597641	0.808831	0.826508
	C7552	C	0.501962	0.791095	1.000522
	C7553	C	0.564506	0.728711	0.501624
	C7554	C	0.529784	0.764889	1.000956
	C7555	C	0.592082	0.702186	0.502156
	C7556	C	0.531105	0.721318	0.750680
	C7557	C	0.593289	0.803831	0.749870
	C7558	C	0.506800	0.681745	0.750636
	C7559	C	0.564529	0.770292	0.750594
	C7560	C	0.509034	0.784515	1.000312
	C7561	C	0.571494	0.722009	0.501816
	C7562	C	0.522784	0.771604	1.000779
	C7563	C	0.585070	0.708862	0.502309
	C7564	C	0.524901	0.711351	0.750247
	C7565	C	0.585943	0.795435	0.750143
	C7566	C	0.512943	0.691789	0.750595
	C7567	C	0.571739	0.778903	0.750337
	C7568	C	0.512412	0.780893	0.988424
	C7569	C	0.575475	0.719446	1.018574
	C7570	C	0.518421	0.773426	0.553432
	C7571	C	0.581518	0.712006	0.484431
	C7572	C	0.519118	0.774604	0.988647
	C7573	C	0.582160	0.713110	1.018404
	C7574	C	0.511722	0.779683	0.553474
	C7575	C	0.574891	0.718451	0.484650
	C7576	C	0.521864	0.706276	0.700823
	C7577	C	0.582343	0.791110	0.769631
	C7578	C	0.515976	0.696887	0.800064
	C7579	C	0.575307	0.783280	0.730919
	C7580	C	0.516037	0.696784	0.700862
	C7581	C	0.575443	0.783081	0.769723
	C7582	C	0.521791	0.706382	0.799812
	C7583	C	0.582213	0.791296	0.730948
	N7584	N	0.491758	0.801105	0.953535
	N7585	N	0.554341	0.738681	0.953335
	N7586	N	0.539936	0.754902	0.547614
	N7587	N	0.602339	0.692260	0.548617
	N7588	N	0.539978	0.754872	0.953382
	N7589	N	0.602444	0.692275	0.953249
	N7590	N	0.491748	0.801143	0.548593
	N7591	N	0.554330	0.738788	0.548390
	N7592	N	0.540197	0.735936	0.703356
	N7593	N	0.604144	0.815919	0.702085
	N7594	N	0.497820	0.667028	0.798862
	N7595	N	0.554161	0.757391	0.798326
	N7596	N	0.497844	0.666984	0.703861
	N7597	N	0.554187	0.757348	0.703121
	N7598	N	0.540278	0.735822	0.798367
	N7599	N	0.604109	0.816006	0.797261
	H7600	H	0.499055	0.930264	0.349234
	H7601	H	0.561601	0.867735	0.348544
	H7602	H	0.535777	0.902883	0.150322
	H7603	H	0.598226	0.840297	0.150068
	H7604	H	0.535804	0.902682	0.349454
	H7605	H	0.598200	0.840140	0.349576
	H7606	H	0.499093	0.930227	0.150752
	H7607	H	0.561617	0.867977	0.152177
	H7608	H	0.533992	0.869891	0.099825
	H7609	H	0.606417	0.869025	0.098409
	H7610	H	0.499053	0.828922	0.399826
	H7611	H	0.568308	0.892075	0.402032
	H7612	H	0.498874	0.828897	0.101719
	H7613	H	0.568425	0.892285	0.098813
	H7614	H	0.534081	0.869667	0.399845
	H7615	H	0.606421	0.868689	0.401003
	H7616	H	0.510512	0.919852	0.647307
	H7617	H	0.573041	0.857320	0.352139
	H7618	H	0.523379	0.911051	0.148236
	H7619	H	0.585873	0.848504	0.148001
	H7620	H	0.523328	0.910889	0.647500
	H7621	H	0.585855	0.848491	0.352036
	H7622	H	0.510586	0.919992	0.147858
	H7623	H	0.573051	0.857299	0.148349
	H7624	H	0.522628	0.856319	0.212916
	H7625	H	0.593420	0.875249	0.099820
	H7626	H	0.510014	0.842944	0.288516
	H7627	H	0.580857	0.884394	0.400736
	H7628	H	0.510435	0.842116	0.212481
	H7629	H	0.580759	0.884358	0.099815
	H7630	H	0.522160	0.857157	0.287767
	H7631	H	0.593428	0.875289	0.400574
	Co7632	Co	0.625049	0.874907	0.125636
	Co7633	Co	0.549929	0.887499	0.125323
	Co7634	Co	0.484542	0.809151	0.375619
	Co7635	Co	0.549934	0.887375	0.374805
	C7636	C	0.498149	0.931664	0.423095
	C7637	C	0.560657	0.869109	0.423047
	C7638	C	0.537010	0.901995	0.076732
	C7639	C	0.599499	0.839429	0.076558
	C7640	C	0.536983	0.901838	0.423347
	C7641	C	0.599464	0.839356	0.422909
	C7642	C	0.498145	0.931639	0.076955
	C7643	C	0.560659	0.869204	0.077526
	C7644	C	0.535150	0.871233	0.173533
	C7645	C	0.607955	0.869100	0.172240
	C7646	C	0.497887	0.827496	0.326822
	C7647	C	0.566809	0.892174	0.327937
	C7648	C	0.497803	0.827507	0.174051
	C7649	C	0.566844	0.892278	0.173037
	C7650	C	0.535184	0.871109	0.326744
	C7651	C	0.607947	0.868867	0.326897
	C7652	C	0.502129	0.927224	0.500302
	C7653	C	0.564577	0.864609	0.000343
	C7654	C	0.532426	0.905131	0.499964
	C7655	C	0.594917	0.842654	-0.000329
	C7656	C	0.530742	0.866305	0.250047
	C7657	C	0.602715	0.870019	0.249822
	C7658	C	0.502030	0.832737	0.250362
	C7659	C	0.571932	0.890610	0.250567
	C7660	C	0.509451	0.920883	0.500050
	C7661	C	0.571910	0.858280	0.000066
	C7662	C	0.524580	0.910306	0.499750
	C7663	C	0.587067	0.847790	-0.000092
	C7664	C	0.523419	0.857899	0.250095
	C7665	C	0.594609	0.874410	0.250019
	C7666	C	0.509214	0.841390	0.250318
	C7667	C	0.579751	0.885498	0.250324
	C7668	C	0.513286	0.917986	0.582015
	C7669	C	0.575762	0.855418	0.418087
	C7670	C	0.520626	0.912942	0.082375
	C7671	C	0.583123	0.850385	0.082427
	C7672	C	0.520591	0.912862	0.582037
	C7673	C	0.583100	0.850385	0.417742
	C7674	C	0.513300	0.918012	0.082081
	C7675	C	0.575783	0.855434	0.082512
	C7676	C	0.519880	0.853431	0.228862
	C7677	C	0.590701	0.877154	0.166638
	C7678	C	0.512749	0.845882	0.271495
	C7679	C	0.583552	0.882536	0.333585
	C7680	C	0.512990	0.845401	0.229240
	C7681	C	0.583496	0.882490	0.166663
	C7682	C	0.519666	0.853888	0.271424
	C7683	C	0.590763	0.877232	0.333431
	N7684	N	0.492550	0.938514	0.452381
	N7685	N	0.555056	0.875979	0.451836
	N7686	N	0.543684	0.897073	0.048240
	N7687	N	0.606203	0.834568	0.047957
	N7688	N	0.543644	0.896947	0.451813
	N7689	N	0.606179	0.834525	0.451455
	N7690	N	0.492566	0.938527	0.048068
	N7691	N	0.555098	0.876090	0.048618
	N7692	N	0.541617	0.878392	0.202484
	N7693	N	0.615816	0.868201	0.200863
	N7694	N	0.491702	0.819779	0.298536
	N7695	N	0.559090	0.893909	0.299466
	N7696	N	0.491666	0.819783	0.203363
	N7697	N	0.559089	0.893972	0.201471
	N7698	N	0.541641	0.878336	0.297721
	N7699	N	0.615803	0.868068	0.298352
	H7700	H	0.499127	0.930316	0.848612
	H7701	H	0.561547	0.867750	0.849087
	H7702	H	0.535717	0.902688	0.650272
	H7703	H	0.598461	0.840592	0.649777
	H7704	H	0.535687	0.902505	0.849163
	H7705	H	0.598233	0.840107	0.849153
	H7706	H	0.499081	0.930335	0.651926
	H7707	H	0.561554	0.867788	0.651601
	H7708	H	0.533949	0.870045	0.600348
	H7709	H	0.606486	0.868865	0.598636
	H7710	H	0.499223	0.828611	0.900486
	H7711	H	0.568440	0.892046	0.901855
	H7712	H	0.498852	0.829278	0.601791
	H7713	H	0.568408	0.892079	0.597935
	H7714	H	0.534119	0.869739	0.900120
	H7715	H	0.606495	0.868989	0.901797
	H7716	H	0.510477	0.919718	0.850917
	H7717	H	0.572975	0.857335	0.852197
	H7718	H	0.523328	0.910871	0.352553
	H7719	H	0.585847	0.848397	0.648220
	H7720	H	0.523267	0.910785	0.851726
	H7721	H	0.585777	0.848422	0.851871
	H7722	H	0.510557	0.919908	0.352096
	H7723	H	0.572997	0.857176	0.648773
	H7724	H	0.522099	0.857560	0.775282
	H7725	H	0.593574	0.875395	0.900216
	H7726	H	0.510563	0.841834	0.725273
	H7727	H	0.580895	0.884271	0.599174
	H7728	H	0.509950	0.843358	0.776084
	H7729	H	0.580872	0.884448	0.899965
	H7730	H	0.522812	0.855938	0.724583
	H7731	H	0.593474	0.875118	0.599377
	Co7732	Co	0.625075	0.874851	0.625943
	Co7733	Co	0.549976	0.887414	0.625284
	Co7734	Co	0.484547	0.809210	0.875775
	Co7735	Co	0.549952	0.887432	0.874885
	C7736	C	0.498135	0.931663	0.922985
	C7737	C	0.560607	0.869114	0.923324
	C7738	C	0.536952	0.901820	0.576595
	C7739	C	0.599602	0.839561	0.576542
	C7740	C	0.536948	0.901791	0.922936
	C7741	C	0.599492	0.839353	0.922967
	C7742	C	0.498187	0.931737	0.577346
	C7743	C	0.560612	0.869093	0.577454
	C7744	C	0.535139	0.871228	0.673432
	C7745	C	0.608048	0.868965	0.672985
	C7746	C	0.497987	0.827363	0.827499
	C7747	C	0.566885	0.892088	0.827259
	C7748	C	0.497789	0.827666	0.674953
	C7749	C	0.566902	0.892130	0.672324
	C7750	C	0.535220	0.871092	0.826599
	C7751	C	0.608056	0.869097	0.827661
	C7752	C	0.502093	0.927147	0.999823
	C7753	C	0.564598	0.864613	0.500398
	C7754	C	0.532418	0.905205	0.999711
	C7755	C	0.594935	0.842658	0.499973
	C7756	C	0.530799	0.866240	0.750173
	C7757	C	0.602797	0.870062	0.750314
	C7758	C	0.502070	0.832711	0.751211
	C7759	C	0.572004	0.890513	0.749816
	C7760	C	0.509409	0.920817	0.999636
	C7761	C	0.571892	0.858266	0.500556
	C7762	C	0.524576	0.910326	0.999824
	C7763	C	0.587065	0.847784	0.500431
	C7764	C	0.523438	0.857901	0.750198
	C7765	C	0.594704	0.874459	0.750139
	C7766	C	0.509254	0.841363	0.750803
	C7767	C	0.579843	0.885458	0.749756
	C7768	C	0.513224	0.917890	0.917266
	C7769	C	0.575739	0.855422	0.917634
	C7770	C	0.520587	0.912866	0.417722
	C7771	C	0.583065	0.850317	0.582856
	C7772	C	0.520547	0.912810	0.917512
	C7773	C	0.583067	0.850352	0.917593
	C7774	C	0.513270	0.917961	0.417862
	C7775	C	0.575737	0.855379	0.583027
	C7776	C	0.519591	0.854105	0.764480
	C7777	C	0.590859	0.877283	0.833408
	C7778	C	0.513076	0.845237	0.736211
	C7779	C	0.583611	0.882439	0.666153
	C7780	C	0.512709	0.846070	0.765094
	C7781	C	0.583629	0.882570	0.833382
	C7782	C	0.519975	0.853260	0.735900
	C7783	C	0.590823	0.877111	0.666383
	N7784	N	0.492564	0.938535	0.952041
	N7785	N	0.555073	0.876064	0.952434
	N7786	N	0.543624	0.896907	0.548149
	N7787	N	0.606250	0.834650	0.547670
	N7788	N	0.543646	0.896970	0.951798
	N7789	N	0.606194	0.834521	0.951582
	N7790	N	0.492603	0.938614	0.548601
	N7791	N	0.555030	0.875948	0.548349
	N7792	N	0.541628	0.878368	0.702582
	N7793	N	0.615891	0.868131	0.701726
	N7794	N	0.491774	0.819712	0.798668
	N7795	N	0.559145	0.893805	0.798885
	N7796	N	0.491644	0.819914	0.703405
	N7797	N	0.559158	0.893820	0.700857
	N7798	N	0.541659	0.878315	0.797564
	N7799	N	0.615892	0.868246	0.799066
	H7800	H	0.512560	0.981624	0.348145
	H7801	H	0.575074	0.919245	0.348684
	H7802	H	0.550080	0.955725	0.150842
	H7803	H	0.612689	0.893186	0.151810
	H7804	H	0.550295	0.955980	0.348237
	H7805	H	0.612683	0.893204	0.348344
	H7806	H	0.512374	0.981485	0.151152
	H7807	H	0.574934	0.919060	0.150786
	H7808	H	0.543950	0.931201	0.098980
	H7809	H	0.619185	0.920136	0.097648
	H7810	H	0.505868	0.954506	0.401911
	H7811	H	0.581151	0.943555	0.401485
	H7812	H	0.505884	0.954525	0.098597
	H7813	H	0.581056	0.943327	0.098225
	H7814	H	0.544017	0.931591	0.401850
	H7815	H	0.619201	0.920159	0.401652
	H7816	H	0.524693	0.972450	0.349940
	H7817	H	0.587285	0.910349	0.349655
	H7818	H	0.537785	0.964574	-0.151177
	H7819	H	0.600370	0.902095	-0.150468
	H7820	H	0.537802	0.964351	0.349977
	H7821	H	0.600335	0.902157	0.349328
	H7822	H	0.524773	0.972838	-0.151200
	H7823	H	0.587397	0.910394	-0.150315
	H7824	H	0.531048	0.937796	0.099732
	H7825	H	0.606809	0.928040	0.400473
	H7826	H	0.518299	0.946698	0.400449
	H7827	H	0.594045	0.936918	0.099692
	H7828	H	0.518363	0.946902	0.099573
	H7829	H	0.594127	0.937178	0.399932
	H7830	H	0.530938	0.937587	0.400743
	H7831	H	0.606652	0.927784	0.099952
	Co7832	Co	0.637582	0.924893	0.125357
	Co7833	Co	0.562548	0.937407	0.126270
	Co7834	Co	0.487509	0.949877	0.374598
	Co7835	Co	0.562574	0.937457	0.373919
	C7836	C	0.511459	0.982775	0.422619
	C7837	C	0.573942	0.920312	0.422733
	C7838	C	0.551155	0.954525	0.076721
	C7839	C	0.613703	0.892061	0.077345
	C7840	C	0.551280	0.954667	0.423155
	C7841	C	0.613696	0.891925	0.422699
	C7842	C	0.511398	0.982753	0.076792
	C7843	C	0.573887	0.920240	0.076936
	C7844	C	0.545495	0.931426	0.173095
	C7845	C	0.620697	0.920099	0.172287
	C7846	C	0.504357	0.954560	0.327720
	C7847	C	0.579613	0.943392	0.327171
	C7848	C	0.504358	0.954604	0.172975
	C7849	C	0.579604	0.943292	0.172469
	C7850	C	0.545514	0.931611	0.327724
	C7851	C	0.620717	0.920057	0.327133
	C7852	C	0.515755	0.978884	0.499581
	C7853	C	0.578216	0.916329	-0.000130
	C7854	C	0.546958	0.958544	0.499957
	C7855	C	0.609385	0.895931	0.000440
	C7856	C	0.540273	0.932529	0.250306
	C7857	C	0.615627	0.921724	0.249857
	C7858	C	0.509432	0.952916	0.250302
	C7859	C	0.584824	0.942323	0.249975
	C7860	C	0.523517	0.973472	0.499703
	C7861	C	0.585976	0.910896	0.000161
	C7862	C	0.539161	0.963890	0.500003
	C7863	C	0.601598	0.901279	0.000343
	C7864	C	0.532171	0.936922	0.250150
	C7865	C	0.607784	0.926804	0.250297
	C7866	C	0.517293	0.947872	0.250161
	C7867	C	0.592926	0.937877	0.250027
	C7868	C	0.527549	0.970892	0.416785
	C7869	C	0.590087	0.908528	0.416447
	C7870	C	0.535072	0.966417	-0.083966
	C7871	C	0.597584	0.903812	-0.083317
	C7872	C	0.535070	0.966261	0.416944
	C7873	C	0.597603	0.903877	0.416399
	C7874	C	0.527550	0.971069	-0.084145
	C7875	C	0.590108	0.908568	-0.083071
	C7876	C	0.528302	0.939655	0.166515
	C7877	C	0.604037	0.929822	0.333733
	C7878	C	0.521080	0.944921	0.333707
	C7879	C	0.596760	0.935036	0.166418
	C7880	C	0.521079	0.944952	0.166485
	C7881	C	0.596829	0.935141	0.333449
	C7882	C	0.528295	0.939649	0.333767
	C7883	C	0.603966	0.929729	0.166797
	N7884	N	0.505334	0.988802	0.451274
	N7885	N	0.567824	0.926403	0.451824
	N7886	N	0.557276	0.948459	0.048139
	N7887	N	0.619859	0.886060	0.048426
	N7888	N	0.557364	0.948595	0.451594
	N7889	N	0.619837	0.885934	0.451464
	N7890	N	0.505303	0.988856	0.047993
	N7891	N	0.567771	0.926278	0.048313
	N7892	N	0.553361	0.930623	0.201802
	N7893	N	0.628450	0.918369	0.200700
	N7894	N	0.496634	0.956369	0.299373
	N7895	N	0.571753	0.944225	0.298749
	N7896	N	0.496623	0.956378	0.201325
	N7897	N	0.571752	0.944188	0.201111
	N7898	N	0.553356	0.930707	0.299331
	N7899	N	0.628461	0.918369	0.298730
	H7900	H	0.512464	0.981638	0.848589
	H7901	H	0.574953	0.918952	0.848236
	H7902	H	0.550197	0.955796	0.651830
	H7903	H	0.612674	0.893292	0.651307
	H7904	H	0.550183	0.955789	0.848194
	H7905	H	0.612686	0.893328	0.848699
	H7906	H	0.512382	0.981423	0.651327
	H7907	H	0.574994	0.919076	0.651633
	H7908	H	0.544001	0.931468	0.598209
	H7909	H	0.619182	0.920131	0.598295
	H7910	H	0.505908	0.954653	0.902114
	H7911	H	0.581141	0.943363	0.901068
	H7912	H	0.505932	0.954642	0.598334
	H7913	H	0.581085	0.943738	0.597677
	H7914	H	0.544040	0.931259	0.901887
	H7915	H	0.619153	0.920273	0.901723
	H7916	H	0.524766	0.972733	1.149858
	H7917	H	0.587106	0.909842	1.150726
	H7918	H	0.537851	0.964660	0.650695
	H7919	H	0.600259	0.901844	0.650147
	H7920	H	0.537809	0.964584	1.150183
	H7921	H	0.600254	0.901898	1.150574
	H7922	H	0.524825	0.972807	0.650212
	H7923	H	0.587280	0.910339	0.650004
	H7924	H	0.531075	0.937864	0.600537
	H7925	H	0.606637	0.927788	0.598888
	H7926	H	0.518318	0.946775	0.900583
	H7927	H	0.594142	0.937375	0.899607
	H7928	H	0.518420	0.946894	0.599783
	H7929	H	0.594044	0.936919	0.599056
	H7930	H	0.531000	0.937637	0.900878
	H7931	H	0.606747	0.928150	0.899995
	Co7932	Co	0.637622	0.924864	0.625244
	Co7933	Co	0.562571	0.937489	0.625718
	Co7934	Co	0.487496	0.949958	0.874562
	Co7935	Co	0.562598	0.937400	0.873957
	C7936	C	0.511444	0.982867	0.922616
	C7937	C	0.573912	0.920260	0.922708
	C7938	C	0.551226	0.954604	0.577284
	C7939	C	0.613739	0.892012	0.576976
	C7940	C	0.551217	0.954547	0.922340
	C7941	C	0.613730	0.892141	0.922983
	C7942	C	0.511422	0.982738	0.576922
	C7943	C	0.573974	0.920366	0.577116
	C7944	C	0.545522	0.931579	0.672630
	C7945	C	0.620711	0.920145	0.672557
	C7946	C	0.504383	0.954691	0.827598
	C7947	C	0.579615	0.943347	0.826827
	C7948	C	0.504404	0.954699	0.672665
	C7949	C	0.579591	0.943455	0.672166
	C7950	C	0.545561	0.931488	0.827331
	C7951	C	0.620702	0.920187	0.827523
	C7952	C	0.515722	0.978898	0.999634
	C7953	C	0.578268	0.916484	0.499949
	C7954	C	0.546880	0.958475	0.999236
	C7955	C	0.609374	0.895834	0.499899
	C7956	C	0.540319	0.932577	0.750398
	C7957	C	0.615622	0.921826	0.750045
	C7958	C	0.509482	0.953002	0.750319
	C7959	C	0.584828	0.942389	0.749450
	C7960	C	0.523490	0.973502	0.999427
	C7961	C	0.586038	0.911019	0.499882
	C7962	C	0.539125	0.963905	0.999389
	C7963	C	0.601602	0.901272	0.499743
	C7964	C	0.532218	0.936988	0.750882
	C7965	C	0.607783	0.926923	0.749654
	C7966	C	0.517344	0.947945	0.750345
	C7967	C	0.592926	0.937945	0.749438
	C7968	C	0.527554	0.970989	1.082787
	C7969	C	0.589942	0.908299	1.083460
	C7970	C	0.535109	0.966422	0.583545
	C7971	C	0.597525	0.903699	0.583052
	C7972	C	0.535096	0.966420	1.082904
	C7973	C	0.597502	0.903746	1.083464
	C7974	C	0.527586	0.971046	0.583262
	C7975	C	0.590068	0.908487	0.583330
	C7976	C	0.528355	0.939760	0.667280
	C7977	C	0.603994	0.929785	0.665889
	C7978	C	0.521101	0.944958	0.833734
	C7979	C	0.596801	0.935272	0.833042
	C7980	C	0.521123	0.945020	0.666907
	C7981	C	0.596778	0.935070	0.665848
	C7982	C	0.528326	0.939680	0.834275
	C7983	C	0.604011	0.929958	0.833066
	N7984	N	0.505350	0.988931	0.951249
	N7985	N	0.567811	0.926298	0.951440
	N7986	N	0.557361	0.948594	0.548470
	N7987	N	0.619877	0.885995	0.548198
	N7988	N	0.557296	0.948461	0.951536
	N7989	N	0.619893	0.886143	0.951523
	N7990	N	0.505279	0.988789	0.547896
	N7991	N	0.567850	0.926411	0.548182
	N7992	N	0.553396	0.930686	0.700982
	N7993	N	0.628455	0.918436	0.701085
	N7994	N	0.496665	0.956451	0.799136
	N7995	N	0.571759	0.944232	0.798666
	N7996	N	0.496679	0.956481	0.701056
	N7997	N	0.571735	0.944275	0.701119
	N7998	N	0.553420	0.930642	0.798577
	N7999	N	0.628432	0.918434	0.799192
	H8000	H	0.654838	0.050378	0.351601
	H8001	H	0.717553	-0.011592	0.350851
	H8002	H	0.688500	0.018370	0.148279
	H8003	H	0.750918	-0.044299	0.148320
	H8004	H	0.688342	0.018005	0.350932
	H8005	H	0.751079	-0.043979	0.351427
	H8006	H	0.654930	0.050935	0.148377
	H8007	H	0.717343	-0.011760	0.147803
	H8008	H	0.688501	-0.016457	0.100264
	H8009	H	0.745892	0.072755	0.100388
	H8010	H	0.653605	-0.057708	0.399620
	H8011	H	0.715886	0.024749	0.398840
	H8012	H	0.653392	-0.057379	0.099355
	H8013	H	0.716359	0.024144	0.101122
	H8014	H	0.688632	-0.016732	0.399910
	H8015	H	0.745718	0.072812	0.399099
	H8016	H	0.665881	0.040413	0.403364
	H8017	H	0.728311	-0.022348	0.496701
	H8018	H	0.677459	0.028931	-0.008008
	H8019	H	0.740914	-0.032007	-0.041386
	H8020	H	0.677701	0.029172	0.402770
	H8021	H	0.740128	-0.033577	0.497046
	H8022	H	0.665720	0.040238	-0.007647
	H8023	H	0.729120	-0.020766	-0.040829
	H8024	H	0.677655	-0.030875	0.187503
	H8025	H	0.735610	0.057487	0.218383
	H8026	H	0.664714	-0.043734	0.311680
	H8027	H	0.726447	0.039538	0.281939
	H8028	H	0.665525	-0.045144	0.187545
	H8029	H	0.725323	0.040683	0.218504
	H8030	H	0.676828	-0.029456	0.312020
	H8031	H	0.736770	0.056284	0.281478
	Co8032	Co	0.758767	0.094265	0.125505
	Co8033	Co	0.702937	0.003270	0.125191
	Co8034	Co	0.637635	-0.075159	0.374673
	Co8035	Co	0.702956	0.003241	0.374494
	C8036	C	0.653700	0.051614	0.424361
	C8037	C	0.716320	-0.010653	0.423472
	C8038	C	0.689622	0.017314	0.075765
	C8039	C	0.752055	-0.045272	0.075624
	C8040	C	0.689560	0.017129	0.423684
	C8041	C	0.752153	-0.045114	0.424171
	C8042	C	0.653760	0.051880	0.075662
	C8043	C	0.716188	-0.010727	0.075177
	C8044	C	0.689677	-0.015089	0.173131
	C8045	C	0.746867	0.074285	0.173666
	C8046	C	0.652425	-0.058966	0.326301
	C8047	C	0.715008	0.023044	0.326000
	C8048	C	0.652319	-0.058815	0.172812
	C8049	C	0.715270	0.022737	0.173797
	C8050	C	0.689736	-0.015216	0.326536
	C8051	C	0.746766	0.074308	0.326148
	C8052	C	0.657825	0.047704	0.501148
	C8053	C	0.720273	-0.014753	-0.000963
	C8054	C	0.685558	0.021356	0.499821
	C8055	C	0.747979	-0.041218	-0.000453
	C8056	C	0.685501	-0.020361	0.249735
	C8057	C	0.743213	0.068319	0.249661
	C8058	C	0.656803	-0.054014	0.249366
	C8059	C	0.718801	0.028795	0.249859
	C8060	C	0.664825	0.040962	0.501382
	C8061	C	0.727305	-0.021450	-0.000599
	C8062	C	0.678516	0.028028	0.500235
	C8063	C	0.740978	-0.034464	-0.000698
	C8064	C	0.678281	-0.028958	0.249696
	C8065	C	0.737035	0.058284	0.249603
	C8066	C	0.664129	-0.045584	0.249509
	C8067	C	0.725040	0.038782	0.249999
	C8068	C	0.668379	0.037775	0.446088
	C8069	C	0.730855	-0.024804	0.498383
	C8070	C	0.674966	0.031394	-0.004429
	C8071	C	0.737956	-0.030238	-0.023525
	C8072	C	0.675064	0.031493	0.445572
	C8073	C	0.737502	-0.031151	0.498363
	C8074	C	0.668318	0.037738	-0.004439
	C8075	C	0.731297	-0.023924	-0.023577
	C8076	C	0.674851	-0.033611	0.215071
	C8077	C	0.733623	0.053606	0.231952
	C8078	C	0.667541	-0.040935	0.284395
	C8079	C	0.728456	0.043459	0.267692
	C8080	C	0.667990	-0.041727	0.214751
	C8081	C	0.727802	0.044120	0.232158
	C8082	C	0.674417	-0.032861	0.284601
	C8083	C	0.734279	0.052947	0.267452
	N8084	N	0.647657	0.057667	0.452685
	N8085	N	0.710220	-0.004722	0.452189
	N8086	N	0.695706	0.011355	0.046987
	N8087	N	0.758170	-0.051194	0.046837
	N8088	N	0.695619	0.011168	0.452807
	N8089	N	0.758226	-0.051084	0.453017
	N8090	N	0.647677	0.057835	0.046749
	N8091	N	0.710101	-0.004773	0.046533
	N8092	N	0.695854	-0.007399	0.202238
	N8093	N	0.752192	0.083059	0.202721
	N8094	N	0.645950	-0.066104	0.297236
	N8095	N	0.709656	0.014286	0.297453
	N8096	N	0.645870	-0.065998	0.202325
	N8097	N	0.709813	0.014091	0.202749
	N8098	N	0.695896	-0.007482	0.297616
	N8099	N	0.752153	0.083068	0.297495
	H8100	H	0.654747	0.050585	0.850759
	H8101	H	0.717289	-0.011784	0.850159
	H8102	H	0.688658	0.018556	0.648996
	H8103	H	0.750964	-0.044275	0.648825
	H8104	H	0.688477	0.018422	0.851062
	H8105	H	0.751078	-0.043964	0.851072
	H8106	H	0.654962	0.050840	0.650475
	H8107	H	0.717089	-0.012197	0.648671
	H8108	H	0.688487	-0.016454	0.600197
	H8109	H	0.745846	0.072615	0.602385
	H8110	H	0.653464	-0.057347	0.900257
	H8111	H	0.716047	0.024611	0.899593
	H8112	H	0.653667	-0.057649	0.599338
	H8113	H	0.716217	0.024480	0.600638
	H8114	H	0.688462	-0.016723	0.898356
	H8115	H	0.745937	0.072572	0.898891
	H8116	H	0.665753	0.040109	1.006553
	H8117	H	0.727332	-0.023971	1.039858
	H8118	H	0.677567	0.028658	0.597938
	H8119	H	0.740011	-0.033743	0.503870
	H8120	H	0.677597	0.028953	1.007209
	H8121	H	0.739169	-0.035117	1.039880
	H8122	H	0.665722	0.039852	0.598471
	H8123	H	0.728233	-0.022410	0.503622
	H8124	H	0.677043	-0.029867	0.712764
	H8125	H	0.736058	0.057117	0.675578
	H8126	H	0.665404	-0.044881	0.786374
	H8127	H	0.726084	0.039900	0.823092
	H8128	H	0.664899	-0.044048	0.712958
	H8129	H	0.725648	0.040481	0.675620
	H8130	H	0.677542	-0.030654	0.786013
	H8131	H	0.736403	0.056645	0.824092
	Co8132	Co	0.758761	0.094178	0.625155
	Co8133	Co	0.702954	0.003221	0.625569
	Co8134	Co	0.637592	-0.075089	0.874500
	Co8135	Co	0.702833	0.003251	0.874318
	C8136	C	0.653654	0.051704	0.923383
	C8137	C	0.716166	-0.010722	0.923024
	C8138	C	0.689708	0.017415	0.576173
	C8139	C	0.752084	-0.045237	0.576304
	C8140	C	0.689617	0.017313	0.923632
	C8141	C	0.752133	-0.045136	0.923667
	C8142	C	0.653783	0.051846	0.577374
	C8143	C	0.716086	-0.010902	0.575826
	C8144	C	0.689664	-0.015066	0.673233
	C8145	C	0.746830	0.074284	0.674490
	C8146	C	0.652324	-0.058794	0.826709
	C8147	C	0.715107	0.022920	0.826575
	C8148	C	0.652421	-0.058940	0.672757
	C8149	C	0.715178	0.022856	0.673680
	C8150	C	0.689663	-0.015210	0.825846
	C8151	C	0.746887	0.074256	0.826712
	C8152	C	0.657789	0.047718	0.999596
	C8153	C	0.720317	-0.014783	0.499826
	C8154	C	0.685522	0.021385	0.999780
	C8155	C	0.748025	-0.041166	0.500236
	C8156	C	0.685478	-0.020413	0.749324
	C8157	C	0.743212	0.068329	0.750748
	C8158	C	0.656780	-0.053959	0.749655
	C8159	C	0.718856	0.028803	0.750043
	C8160	C	0.664825	0.041052	0.999604
	C8161	C	0.727355	-0.021460	0.500146
	C8162	C	0.678501	0.028065	0.999961
	C8163	C	0.740998	-0.034492	0.500444
	C8164	C	0.678312	-0.029061	0.749378
	C8165	C	0.737084	0.058283	0.750355
	C8166	C	0.664128	-0.045644	0.749425
	C8167	C	0.725007	0.038825	0.749596
	C8168	C	0.668357	0.037709	1.003671
	C8169	C	0.730325	-0.025667	1.022152
	C8170	C	0.674981	0.031206	0.555128
	C8171	C	0.737466	-0.031189	0.502400
	C8172	C	0.674995	0.031324	1.003915
	C8173	C	0.736983	-0.032004	1.022123
	C8174	C	0.668316	0.037515	0.555877
	C8175	C	0.730806	-0.024861	0.502219
	C8176	C	0.674556	-0.033104	0.729074
	C8177	C	0.733867	0.053437	0.708248
	C8178	C	0.667924	-0.041652	0.770055
	C8179	C	0.728207	0.043650	0.791285
	C8180	C	0.667653	-0.041170	0.728746
	C8181	C	0.727996	0.043963	0.708111
	C8182	C	0.674823	-0.033578	0.769847
	C8183	C	0.734100	0.053087	0.791513
	N8184	N	0.647614	0.057709	0.951958
	N8185	N	0.710070	-0.004805	0.951823
	N8186	N	0.695729	0.011353	0.547441
	N8187	N	0.758180	-0.051158	0.547337
	N8188	N	0.695675	0.011353	0.952466
	N8189	N	0.758224	-0.051093	0.952546
	N8190	N	0.647699	0.057786	0.548117
	N8191	N	0.710069	-0.004869	0.546934
	N8192	N	0.695788	-0.007346	0.702376
	N8193	N	0.752176	0.083078	0.703018
	N8194	N	0.645884	-0.065992	0.797613
	N8195	N	0.709706	0.014224	0.797501
	N8196	N	0.645958	-0.066103	0.702077
	N8197	N	0.709763	0.014200	0.702460
	N8198	N	0.695784	-0.007432	0.797329
	N8199	N	0.752209	0.083037	0.797891
	H8200	H	0.648434	0.204643	0.350294
	H8201	H	0.711143	0.142399	0.350760
	H8202	H	0.681735	0.171698	0.148478
	H8203	H	0.744144	0.109121	0.148222
	H8204	H	0.681488	0.171311	0.349626
	H8205	H	0.744218	0.109217	0.351961
	H8206	H	0.648271	0.204449	0.148826
	H8207	H	0.710711	0.141694	0.147567
	H8208	H	0.683476	0.135117	0.100184
	H8209	H	0.737361	0.228100	0.100432
	H8210	H	0.653605	0.087112	0.399494
	H8211	H	0.708828	0.178678	0.398607
	H8212	H	0.653793	0.087025	0.100490
	H8213	H	0.708945	0.178611	0.100256
	H8214	H	0.683473	0.135129	0.398782
	H8215	H	0.737150	0.228320	0.398276
	H8216	H	0.658971	0.193477	0.526545
	H8217	H	0.721760	0.131410	0.475716
	H8218	H	0.670759	0.182025	-0.037799
	H8219	H	0.733615	0.120304	-0.028698
	H8220	H	0.670613	0.181981	0.526406
	H8221	H	0.733390	0.119860	0.475826
	H8222	H	0.659103	0.193580	-0.037891
	H8223	H	0.721953	0.131761	-0.027513
	H8224	H	0.674523	0.118647	0.311825
	H8225	H	0.727551	0.212535	0.197099
	H8226	H	0.662515	0.103654	0.186943
	H8227	H	0.718651	0.194359	0.302080
	H8228	H	0.664102	0.101978	0.312064
	H8229	H	0.717684	0.195295	0.196847
	H8230	H	0.672808	0.120403	0.186138
	H8231	H	0.728495	0.211591	0.302171
	Co8232	Co	0.749895	0.250103	0.124748
	Co8233	Co	0.696239	0.156779	0.124330
	Co8234	Co	0.640502	0.065805	0.374688
	Co8235	Co	0.696312	0.156760	0.374045
	C8236	C	0.647289	0.205701	0.423100
	C8237	C	0.709913	0.143354	0.423442
	C8238	C	0.682796	0.170625	0.075645
	C8239	C	0.745286	0.107970	0.075777
	C8240	C	0.682672	0.170326	0.422116
	C8241	C	0.745301	0.108015	0.424105
	C8242	C	0.647232	0.205620	0.076089
	C8243	C	0.709677	0.143020	0.075121
	C8244	C	0.684388	0.136766	0.172943
	C8245	C	0.738290	0.229783	0.172984
	C8246	C	0.652622	0.085496	0.326493
	C8247	C	0.707920	0.177028	0.325601
	C8248	C	0.652718	0.085450	0.173363
	C8249	C	0.707960	0.177003	0.173161
	C8250	C	0.684405	0.136761	0.325834
	C8251	C	0.738214	0.229882	0.325611
	C8252	C	0.651318	0.201531	0.499248
	C8253	C	0.713868	0.139095	-0.001124
	C8254	C	0.678633	0.174460	0.498422
	C8255	C	0.741204	0.112047	-0.000580
	C8256	C	0.680735	0.130832	0.249470
	C8257	C	0.734781	0.223715	0.249433
	C8258	C	0.656290	0.091429	0.249954
	C8259	C	0.711442	0.183138	0.249427
	C8260	C	0.658219	0.194661	0.498733
	C8261	C	0.720770	0.132189	-0.001188
	C8262	C	0.671723	0.181345	0.498558
	C8263	C	0.734258	0.118879	-0.001013
	C8264	C	0.674558	0.120851	0.249359
	C8265	C	0.728828	0.213484	0.249573
	C8266	C	0.662504	0.101395	0.249708
	C8267	C	0.717341	0.193428	0.249376
	C8268	C	0.661576	0.191091	0.514345
	C8269	C	0.724304	0.128894	0.486143
	C8270	C	0.668240	0.184700	-0.021285
	C8271	C	0.730930	0.122538	-0.016461
	C8272	C	0.668156	0.184608	0.514223
	C8273	C	0.730858	0.122373	0.486273
	C8274	C	0.661690	0.191197	-0.021431
	C8275	C	0.724356	0.129034	-0.016289
	C8276	C	0.671883	0.115395	0.284737
	C8277	C	0.725625	0.208599	0.220039
	C8278	C	0.665139	0.106905	0.214189
	C8279	C	0.720542	0.198300	0.278927
	C8280	C	0.666028	0.105931	0.284790
	C8281	C	0.720038	0.198838	0.220019
	C8282	C	0.670993	0.116361	0.214048
	C8283	C	0.726110	0.208065	0.279149
	N8284	N	0.641271	0.211730	0.452181
	N8285	N	0.703810	0.149281	0.452199
	N8286	N	0.688815	0.164537	0.046862
	N8287	N	0.751318	0.101935	0.047066
	N8288	N	0.688749	0.164371	0.451135
	N8289	N	0.751347	0.101992	0.452775
	N8290	N	0.641180	0.211626	0.047425
	N8291	N	0.703677	0.149104	0.046156
	N8292	N	0.689716	0.145526	0.201732
	N8293	N	0.743406	0.238791	0.201870
	N8294	N	0.647279	0.076766	0.297375
	N8295	N	0.702767	0.168073	0.296571
	N8296	N	0.647334	0.076710	0.202175
	N8297	N	0.702789	0.168059	0.201909
	N8298	N	0.689734	0.145524	0.296719
	N8299	N	0.743348	0.238842	0.296670
	H8300	H	0.648441	0.204694	0.850947
	H8301	H	0.710962	0.142259	0.850220
	H8302	H	0.681774	0.171859	0.647049
	H8303	H	0.744132	0.108905	0.648491
	H8304	H	0.681567	0.171405	0.851049
	H8305	H	0.744157	0.108877	0.850530
	H8306	H	0.648284	0.204344	0.648525
	H8307	H	0.710847	0.142029	0.648493
	H8308	H	0.683457	0.135155	0.600131
	H8309	H	0.737402	0.228113	0.599980
	H8310	H	0.653744	0.086950	0.898723
	H8311	H	0.708617	0.178885	0.898730
	H8312	H	0.653587	0.087087	0.600324
	H8313	H	0.709082	0.178496	0.600832
	H8314	H	0.683392	0.135148	0.899370
	H8315	H	0.737372	0.228138	0.898833
	H8316	H	0.659323	0.194250	1.037735
	H8317	H	0.721420	0.130780	1.026227
	H8318	H	0.670969	0.182473	0.470615
	H8319	H	0.733343	0.119794	0.523353
	H8320	H	0.670963	0.182736	1.037452
	H8321	H	0.733111	0.119347	1.025950
	H8322	H	0.659303	0.194003	0.471164
	H8323	H	0.721666	0.131274	0.524075
	H8324	H	0.673502	0.119610	0.718131
	H8325	H	0.727439	0.212627	0.726516
	H8326	H	0.663739	0.102344	0.781680
	H8327	H	0.718742	0.194212	0.773320
	H8328	H	0.663208	0.102850	0.717811
	H8329	H	0.717540	0.195429	0.726490
	H8330	H	0.674071	0.119081	0.781558
	H8331	H	0.728616	0.211440	0.773320
	Co8332	Co	0.749886	0.250139	0.624242
	Co8333	Co	0.696261	0.156857	0.624439
	Co8334	Co	0.640448	0.065759	0.873663
	Co8335	Co	0.696229	0.156843	0.874006
	C8336	C	0.647294	0.205701	0.923694
	C8337	C	0.709817	0.143300	0.922964
	C8338	C	0.682808	0.170584	0.574639
	C8339	C	0.745262	0.107873	0.576207
	C8340	C	0.682706	0.170452	0.923730
	C8341	C	0.745282	0.107893	0.923201
	C8342	C	0.647210	0.205553	0.575582
	C8343	C	0.709773	0.143176	0.575934
	C8344	C	0.684409	0.136767	0.673358
	C8345	C	0.738290	0.229774	0.673074
	C8346	C	0.652733	0.085354	0.825855
	C8347	C	0.707788	0.177112	0.825755
	C8348	C	0.652630	0.085458	0.673113
	C8349	C	0.708023	0.176952	0.673459
	C8350	C	0.684406	0.136752	0.826261
	C8351	C	0.738308	0.229770	0.825918
	C8352	C	0.651347	0.201669	0.999825
	C8353	C	0.713902	0.139180	0.499851
	C8354	C	0.678710	0.174628	0.999830
	C8355	C	0.741206	0.112014	0.500103
	C8356	C	0.680819	0.130768	0.749952
	C8357	C	0.734784	0.223674	0.749631
	C8358	C	0.656397	0.091283	0.749418
	C8359	C	0.711425	0.183114	0.749926
	C8360	C	0.658283	0.194784	0.999657
	C8361	C	0.720827	0.132297	0.499737
	C8362	C	0.671755	0.181479	0.999931
	C8363	C	0.734310	0.118961	0.499802
	C8364	C	0.674665	0.120734	0.750073
	C8365	C	0.728847	0.213429	0.749703
	C8366	C	0.662629	0.101252	0.749404
	C8367	C	0.717312	0.193422	0.750029
	C8368	C	0.661822	0.191585	1.021137
	C8369	C	0.724086	0.128519	1.014224
	C8370	C	0.668348	0.184901	0.482922
	C8371	C	0.730814	0.122338	0.513110
	C8372	C	0.668371	0.185085	1.020965
	C8373	C	0.730660	0.122020	1.014363
	C8374	C	0.661763	0.191379	0.483086
	C8375	C	0.724255	0.128842	0.513255
	C8376	C	0.671413	0.115852	0.732113
	C8377	C	0.725540	0.208615	0.736817
	C8378	C	0.665869	0.106098	0.767539
	C8379	C	0.720611	0.198238	0.763026
	C8380	C	0.665568	0.106391	0.731804
	C8381	C	0.719942	0.198875	0.736883
	C8382	C	0.671719	0.115562	0.767930
	C8383	C	0.726212	0.207978	0.762949
	N8384	N	0.641229	0.211683	0.952326
	N8385	N	0.703774	0.149297	0.951764
	N8386	N	0.688844	0.164543	0.545963
	N8387	N	0.751327	0.101921	0.547395
	N8388	N	0.688763	0.164441	0.952324
	N8389	N	0.751309	0.101888	0.952480
	N8390	N	0.641197	0.211626	0.546835
	N8391	N	0.703719	0.149171	0.546919
	N8392	N	0.689719	0.145601	0.702027
	N8393	N	0.743434	0.238764	0.701870
	N8394	N	0.647269	0.076747	0.796781
	N8395	N	0.702669	0.168134	0.796637
	N8396	N	0.647200	0.076812	0.701996
	N8397	N	0.702800	0.168047	0.701961
	N8398	N	0.689712	0.145588	0.797234
	N8399	N	0.743450	0.238744	0.796763
	H8400	H	0.639632	0.360406	0.352064
	H8401	H	0.702184	0.298099	0.351573
	H8402	H	0.672924	0.327549	0.149121
	H8403	H	0.735258	0.264840	0.147217
	H8404	H	0.672838	0.327468	0.351290
	H8405	H	0.735216	0.264796	0.350538
	H8406	H	0.639480	0.360372	0.148822
	H8407	H	0.702144	0.297909	0.148169
	H8408	H	0.675019	0.290547	0.099751
	H8409	H	0.728435	0.384121	0.100168
	H8410	H	0.646502	0.241158	0.398667
	H8411	H	0.699947	0.334614	0.399223
	H8412	H	0.646382	0.241303	0.100420
	H8413	H	0.699986	0.334609	0.100657
	H8414	H	0.674903	0.290645	0.398708
	H8415	H	0.728683	0.383895	0.399366
	H8416	H	0.650211	0.349603	0.445486
	H8417	H	0.712668	0.286750	0.582664
	H8418	H	0.661913	0.338060	-0.016266
	H8419	H	0.725011	0.276624	0.022575
	H8420	H	0.661841	0.338078	0.444274
	H8421	H	0.724270	0.275121	0.581730
	H8422	H	0.650263	0.349626	-0.015957
	H8423	H	0.713466	0.288271	0.022656
	H8424	H	0.665759	0.274422	0.212907
	H8425	H	0.719276	0.367879	0.193720
	H8426	H	0.655654	0.257449	0.286172
	H8427	H	0.709321	0.350742	0.306702
	H8428	H	0.655803	0.257293	0.212233
	H8429	H	0.709323	0.350744	0.194138
	H8430	H	0.665642	0.274544	0.285791
	H8431	H	0.719245	0.367879	0.305654
	Co8432	Co	0.741183	0.405827	0.125165
	Co8433	Co	0.687462	0.312642	0.124985
	Co8434	Co	0.633791	0.219383	0.374456
	Co8435	Co	0.687417	0.312638	0.374362
	C8436	C	0.638445	0.361588	0.424387
	C8437	C	0.700997	0.299145	0.423892
	C8438	C	0.673971	0.326339	0.076522
	C8439	C	0.736388	0.263680	0.074461
	C8440	C	0.673947	0.326276	0.423673
	C8441	C	0.736394	0.263721	0.423042
	C8442	C	0.638365	0.361487	0.076344
	C8443	C	0.700983	0.299093	0.075439
	C8444	C	0.675925	0.292249	0.172850
	C8445	C	0.729434	0.385688	0.173440
	C8446	C	0.645494	0.239585	0.325877
	C8447	C	0.699042	0.332982	0.326479
	C8448	C	0.645404	0.239669	0.173221
	C8449	C	0.699072	0.332958	0.173863
	C8450	C	0.675849	0.292293	0.325800
	C8451	C	0.729553	0.385576	0.326432
	C8452	C	0.642544	0.357462	0.500972
	C8453	C	0.705068	0.294984	-0.000761
	C8454	C	0.669794	0.330385	0.499947
	C8455	C	0.732289	0.267805	-0.001813
	C8456	C	0.672392	0.286177	0.249160
	C8457	C	0.725981	0.379566	0.249869
	C8458	C	0.648942	0.245709	0.249552
	C8459	C	0.702584	0.339036	0.250467
	C8460	C	0.649425	0.350611	0.501100
	C8461	C	0.711958	0.288103	-0.001021
	C8462	C	0.662899	0.337215	0.500168
	C8463	C	0.725400	0.274684	-0.001617
	C8464	C	0.666512	0.275880	0.249210
	C8465	C	0.720053	0.369307	0.249929
	C8466	C	0.654919	0.255921	0.249580
	C8467	C	0.708510	0.349294	0.250497
	C8468	C	0.652774	0.347126	0.469403
	C8469	C	0.715323	0.284468	0.546221
	C8470	C	0.659392	0.340563	-0.009141
	C8471	C	0.722282	0.278703	0.012138
	C8472	C	0.659366	0.340586	0.469025
	C8473	C	0.721882	0.277941	0.545892
	C8474	C	0.652815	0.347070	-0.008871
	C8475	C	0.715719	0.285250	0.012424
	C8476	C	0.663577	0.270722	0.228628
	C8477	C	0.717081	0.364168	0.218380
	C8478	C	0.657869	0.261081	0.270096
	C8479	C	0.711463	0.354451	0.281676
	C8480	C	0.657941	0.261026	0.228557
	C8481	C	0.711464	0.354459	0.218772
	C8482	C	0.663490	0.270788	0.269859
	C8483	C	0.717101	0.364144	0.281284
	N8484	N	0.632434	0.367585	0.453207
	N8485	N	0.694929	0.305112	0.452560
	N8486	N	0.679956	0.320276	0.047204
	N8487	N	0.742385	0.257639	0.045993
	N8488	N	0.679948	0.320243	0.452878
	N8489	N	0.742447	0.257704	0.451779
	N8490	N	0.632350	0.367504	0.047208
	N8491	N	0.694955	0.305106	0.046549
	N8492	N	0.681016	0.301258	0.201967
	N8493	N	0.734631	0.394598	0.202493
	N8494	N	0.640287	0.230655	0.297006
	N8495	N	0.693901	0.324003	0.297352
	N8496	N	0.640227	0.230704	0.201946
	N8497	N	0.693918	0.324004	0.202488
	N8498	N	0.680990	0.301287	0.296964
	N8499	N	0.734693	0.394555	0.297400
	H8500	H	0.639522	0.360283	0.851850
	H8501	H	0.702158	0.297945	0.850198
	H8502	H	0.672687	0.327247	0.648846
	H8503	H	0.735341	0.265045	0.647418
	H8504	H	0.672527	0.327115	0.851284
	H8505	H	0.735359	0.264894	0.849183
	H8506	H	0.639402	0.360169	0.649496
	H8507	H	0.702048	0.297811	0.647968
	H8508	H	0.674987	0.290444	0.600455
	H8509	H	0.728346	0.384056	0.600845
	H8510	H	0.646317	0.241215	0.898977
	H8511	H	0.699981	0.334584	0.898923
	H8512	H	0.646375	0.241184	0.601707
	H8513	H	0.700093	0.334370	0.600026
	H8514	H	0.674868	0.290639	0.899035
	H8515	H	0.728596	0.383819	0.899136
	H8516	H	0.650305	0.349538	1.017662
	H8517	H	0.712295	0.286037	0.974989
	H8518	H	0.662162	0.338363	0.555744
	H8519	H	0.724770	0.276256	0.416765
	H8520	H	0.661959	0.338045	1.017731
	H8521	H	0.723881	0.274462	0.974542
	H8522	H	0.650565	0.349852	0.556625
	H8523	H	0.713154	0.287785	0.416762
	H8524	H	0.665558	0.274550	0.751919
	H8525	H	0.718385	0.368551	0.791908
	H8526	H	0.655705	0.257245	0.749790
	H8527	H	0.710104	0.349783	0.707471
	H8528	H	0.655571	0.257386	0.752305
	H8529	H	0.708570	0.351239	0.791265
	H8530	H	0.665636	0.274447	0.748696
	H8531	H	0.719952	0.367044	0.707324
	Co8532	Co	0.741195	0.405749	0.625388
	Co8533	Co	0.687387	0.312521	0.625408
	Co8534	Co	0.633757	0.219307	0.874387
	Co8535	Co	0.687416	0.312668	0.874462
	C8536	C	0.638390	0.361425	0.923990
	C8537	C	0.700975	0.299079	0.923037
	C8538	C	0.673886	0.326208	0.576289
	C8539	C	0.736443	0.263823	0.574926
	C8540	C	0.673766	0.326123	0.923972
	C8541	C	0.736425	0.263740	0.922124
	C8542	C	0.638329	0.361453	0.577119
	C8543	C	0.700943	0.299007	0.575616
	C8544	C	0.675859	0.292194	0.673397
	C8545	C	0.729384	0.385664	0.673669
	C8546	C	0.645406	0.239562	0.826431
	C8547	C	0.699026	0.332905	0.825930
	C8548	C	0.645435	0.239567	0.674187
	C8549	C	0.699107	0.332780	0.672989
	C8550	C	0.675819	0.292284	0.826133
	C8551	C	0.729513	0.385567	0.826299
	C8552	C	0.642466	0.357336	1.000421
	C8553	C	0.705061	0.295012	0.499771
	C8554	C	0.669780	0.330339	1.000507
	C8555	C	0.732348	0.267856	0.498927
	C8556	C	0.672308	0.286179	0.749714
	C8557	C	0.725925	0.379515	0.750041
	C8558	C	0.648938	0.245676	0.750428
	C8559	C	0.702582	0.338920	0.749255
	C8560	C	0.649377	0.350482	1.000801
	C8561	C	0.712006	0.288197	0.499810
	C8562	C	0.662860	0.337156	1.000577
	C8563	C	0.725452	0.274780	0.499389
	C8564	C	0.666409	0.275891	0.750186
	C8565	C	0.720010	0.369229	0.750038
	C8566	C	0.654872	0.255921	0.750702
	C8567	C	0.708517	0.349161	0.749213
	C8568	C	0.652837	0.347073	1.010470
	C8569	C	0.715066	0.284040	0.985339
	C8570	C	0.659558	0.340742	0.531773
	C8571	C	0.722146	0.278526	0.452900
	C8572	C	0.659419	0.340563	1.010458
	C8573	C	0.721619	0.277475	0.985063
	C8574	C	0.652972	0.347276	0.532219
	C8575	C	0.715580	0.285036	0.453121
	C8576	C	0.663413	0.270792	0.751240
	C8577	C	0.716647	0.364472	0.773361
	C8578	C	0.657854	0.260998	0.750072
	C8579	C	0.711904	0.353908	0.725905
	C8580	C	0.657779	0.261090	0.751490
	C8581	C	0.711055	0.354715	0.772896
	C8582	C	0.663474	0.270721	0.749570
	C8583	C	0.717479	0.363670	0.726181
	N8584	N	0.632370	0.367484	0.952633
	N8585	N	0.694958	0.305105	0.951936
	N8586	N	0.679903	0.320187	0.547369
	N8587	N	0.742456	0.257754	0.546199
	N8588	N	0.679833	0.320145	0.952411
	N8589	N	0.742426	0.257722	0.951512
	N8590	N	0.632363	0.367519	0.547957
	N8591	N	0.694901	0.305029	0.546931
	N8592	N	0.681004	0.301166	0.702303
	N8593	N	0.734586	0.394586	0.702559
	N8594	N	0.640274	0.230603	0.797313
	N8595	N	0.693850	0.323969	0.797036
	N8596	N	0.640276	0.230601	0.702926
	N8597	N	0.693893	0.323893	0.702119
	N8598	N	0.680987	0.301248	0.797222
	N8599	N	0.734667	0.394518	0.797544
	H8600	H	0.630761	0.515999	0.352057
	H8601	H	0.693356	0.453642	0.351412
	H8602	H	0.664071	0.483093	0.150345
	H8603	H	0.726631	0.420741	0.148603
	H8604	H	0.664197	0.483178	0.350889
	H8605	H	0.726599	0.420540	0.351608
	H8606	H	0.630878	0.516291	0.148892
	H8607	H	0.693319	0.453497	0.148485
	H8608	H	0.666096	0.446463	0.101378
	H8609	H	0.721395	0.538091	0.100400
	H8610	H	0.637455	0.396943	0.400174
	H8611	H	0.691510	0.490131	0.399393
	H8612	H	0.637432	0.397038	0.101205
	H8613	H	0.691764	0.489927	0.100990
	H8614	H	0.666091	0.446440	0.399660
	H8615	H	0.721366	0.538007	0.398555
	H8616	H	0.641540	0.505209	0.545585
	H8617	H	0.703454	0.441653	0.477479
	H8618	H	0.652860	0.493166	0.040855
	H8619	H	0.715585	0.430940	0.041311
	H8620	H	0.653245	0.493729	0.544762
	H8621	H	0.715114	0.430106	0.477438
	H8622	H	0.641254	0.504743	0.040170
	H8623	H	0.703886	0.442422	0.041816
	H8624	H	0.656837	0.430150	0.125014
	H8625	H	0.711868	0.522296	0.304979
	H8626	H	0.646743	0.413197	0.375786
	H8627	H	0.701031	0.505829	0.192950
	H8628	H	0.646978	0.412957	0.125351
	H8629	H	0.701571	0.505573	0.305649
	H8630	H	0.656640	0.430414	0.375702
	H8631	H	0.711415	0.522527	0.192824
	Co8632	Co	0.734612	0.559281	0.125403
	Co8633	Co	0.678702	0.468342	0.125901
	Co8634	Co	0.624910	0.375091	0.375126
	Co8635	Co	0.678735	0.468284	0.375109
	C8636	C	0.629675	0.517109	0.424685
	C8637	C	0.692175	0.454672	0.424135
	C8638	C	0.665197	0.482003	0.077512
	C8639	C	0.727737	0.419590	0.076247
	C8640	C	0.665260	0.482002	0.423595
	C8641	C	0.727740	0.419479	0.424188
	C8642	C	0.629706	0.517311	0.076546
	C8643	C	0.692146	0.454623	0.076191
	C8644	C	0.667046	0.448094	0.174455
	C8645	C	0.722380	0.539615	0.173204
	C8646	C	0.636569	0.395354	0.327005
	C8647	C	0.690607	0.488362	0.326693
	C8648	C	0.636558	0.395408	0.174333
	C8649	C	0.690708	0.488265	0.173990
	C8650	C	0.667037	0.448071	0.326957
	C8651	C	0.722354	0.539585	0.325830
	C8652	C	0.633777	0.513071	0.500793
	C8653	C	0.696253	0.450591	-0.000108
	C8654	C	0.661151	0.486042	0.499828
	C8655	C	0.723670	0.423710	0.000140
	C8656	C	0.663529	0.442016	0.250488
	C8657	C	0.718672	0.533715	0.249070
	C8658	C	0.640093	0.401424	0.250812
	C8659	C	0.694275	0.494277	0.250299
	C8660	C	0.640702	0.506201	0.500573
	C8661	C	0.703195	0.443775	-0.000579
	C8662	C	0.654243	0.492954	0.499836
	C8663	C	0.716749	0.430583	-0.000262
	C8664	C	0.657588	0.431752	0.250406
	C8665	C	0.712463	0.523737	0.248956
	C8666	C	0.646031	0.411688	0.250645
	C8667	C	0.700406	0.504334	0.249689
	C8668	C	0.644133	0.502758	0.525753
	C8669	C	0.706285	0.439656	0.487095
	C8670	C	0.650525	0.496009	0.022961
	C8671	C	0.713144	0.433683	0.023223
	C8672	C	0.650752	0.496319	0.525404
	C8673	C	0.712879	0.433161	0.487297
	C8674	C	0.643922	0.502498	0.022795
	C8675	C	0.706522	0.440130	0.023110
	C8676	C	0.654667	0.426508	0.180366
	C8677	C	0.709498	0.518683	0.280619
	C8678	C	0.648953	0.416917	0.320744
	C8679	C	0.703366	0.509396	0.217666
	C8680	C	0.649062	0.416783	0.180462
	C8681	C	0.703633	0.509268	0.280897
	C8682	C	0.654561	0.426650	0.320483
	C8683	C	0.709230	0.518840	0.217743
	N8684	N	0.623648	0.523139	0.453549
	N8685	N	0.686169	0.460664	0.453279
	N8686	N	0.671216	0.475982	0.048284
	N8687	N	0.733724	0.413496	0.047289
	N8688	N	0.671281	0.475973	0.452751
	N8689	N	0.733781	0.413495	0.453179
	N8690	N	0.623631	0.523223	0.047942
	N8691	N	0.686081	0.460586	0.047562
	N8692	N	0.672224	0.457020	0.203322
	N8693	N	0.727808	0.548282	0.202624
	N8694	N	0.631379	0.386412	0.297862
	N8695	N	0.685319	0.479520	0.297816
	N8696	N	0.631375	0.386459	0.202962
	N8697	N	0.685401	0.479432	0.202748
	N8698	N	0.672220	0.457015	0.298248
	N8699	N	0.727801	0.548259	0.297312
	H8700	H	0.630639	0.515782	0.851864
	H8701	H	0.693314	0.453506	0.851207
	H8702	H	0.664013	0.483039	0.648788
	H8703	H	0.726652	0.420795	0.648851
	H8704	H	0.664006	0.483011	0.852310
	H8705	H	0.726652	0.420728	0.851606
	H8706	H	0.630886	0.516181	0.649585
	H8707	H	0.693306	0.453361	0.649227
	H8708	H	0.666157	0.446324	0.601570
	H8709	H	0.721276	0.538131	0.600858
	H8710	H	0.637654	0.396989	0.899832
	H8711	H	0.691554	0.489764	0.900533
	H8712	H	0.637481	0.397018	0.601911
	H8713	H	0.691470	0.489941	0.601324
	H8714	H	0.666073	0.446369	0.900021
	H8715	H	0.721453	0.537961	0.900220
	H8716	H	0.641969	0.505931	0.960324
	H8717	H	0.704448	0.443453	0.957505
	H8718	H	0.653407	0.493993	0.455068
	H8719	H	0.716459	0.432464	0.522912
	H8720	H	0.653658	0.494496	0.960806
	H8721	H	0.716110	0.432009	0.957989
	H8722	H	0.641745	0.505453	0.455400
	H8723	H	0.704821	0.443967	0.522740
	H8724	H	0.657009	0.429927	0.775724
	H8725	H	0.711605	0.522370	0.778422
	H8726	H	0.646541	0.413504	0.726928
	H8727	H	0.701194	0.505646	0.722942
	H8728	H	0.647056	0.412797	0.775928
	H8729	H	0.701241	0.505652	0.777976
	H8730	H	0.656488	0.430680	0.727239
	H8731	H	0.711651	0.522260	0.722555
	Co8732	Co	0.734558	0.559198	0.625685
	Co8733	Co	0.678687	0.468274	0.625648
	Co8734	Co	0.624881	0.375135	0.875031
	Co8735	Co	0.678642	0.468284	0.875188
	C8736	C	0.629583	0.517061	0.924443
	C8737	C	0.692141	0.454649	0.923934
	C8738	C	0.665196	0.481931	0.576030
	C8739	C	0.727767	0.419597	0.576433
	C8740	C	0.665170	0.481935	0.924910
	C8741	C	0.727749	0.419575	0.924101
	C8742	C	0.629739	0.517229	0.576898
	C8743	C	0.692163	0.454569	0.576726
	C8744	C	0.667023	0.447997	0.674438
	C8745	C	0.722308	0.539628	0.673928
	C8746	C	0.636618	0.395328	0.827098
	C8747	C	0.690572	0.488266	0.827364
	C8748	C	0.636509	0.395381	0.674686
	C8749	C	0.690531	0.488339	0.674587
	C8750	C	0.666984	0.448003	0.827371
	C8751	C	0.722401	0.539528	0.826883
	C8752	C	0.633765	0.513130	1.000378
	C8753	C	0.696259	0.450509	0.500137
	C8754	C	0.661091	0.486099	1.001188
	C8755	C	0.723647	0.423603	0.500214
	C8756	C	0.663471	0.441935	0.751015
	C8757	C	0.718704	0.533662	0.750422
	C8758	C	0.640064	0.401432	0.750884
	C8759	C	0.694179	0.494240	0.751099
	C8760	C	0.640678	0.506270	1.000402
	C8761	C	0.703205	0.443717	0.499711
	C8762	C	0.654167	0.492930	1.000929
	C8763	C	0.716717	0.430428	0.499952
	C8764	C	0.657559	0.431658	0.751313
	C8765	C	0.712470	0.523677	0.750312
	C8766	C	0.646016	0.411696	0.751036
	C8767	C	0.700357	0.504266	0.750861
	C8768	C	0.644335	0.503183	0.977911
	C8769	C	0.706840	0.440732	0.975861
	C8770	C	0.650826	0.496424	0.474446
	C8771	C	0.713623	0.434492	0.512814
	C8772	C	0.650915	0.496657	0.978135
	C8773	C	0.713442	0.434275	0.975891
	C8774	C	0.644226	0.502871	0.475085
	C8775	C	0.707033	0.440986	0.512713
	C8776	C	0.654734	0.426356	0.765236
	C8777	C	0.709363	0.518705	0.766100
	C8778	C	0.648829	0.417030	0.737567
	C8779	C	0.703466	0.509253	0.735155
	C8780	C	0.649111	0.416647	0.765129
	C8781	C	0.703463	0.509309	0.766191
	C8782	C	0.654439	0.426750	0.737642
	C8783	C	0.709348	0.518681	0.734753
	N8784	N	0.623565	0.523077	0.953265
	N8785	N	0.686062	0.460590	0.953059
	N8786	N	0.671220	0.475893	0.547416
	N8787	N	0.733795	0.413557	0.547553
	N8788	N	0.671195	0.475923	0.953692
	N8789	N	0.733737	0.413496	0.952893
	N8790	N	0.623700	0.523231	0.548175
	N8791	N	0.686154	0.460605	0.547963
	N8792	N	0.672168	0.456956	0.703205
	N8793	N	0.727727	0.548316	0.703152
	N8794	N	0.631441	0.386382	0.798355
	N8795	N	0.685219	0.479493	0.798220
	N8796	N	0.631359	0.386432	0.703539
	N8797	N	0.685203	0.479546	0.703177
	N8798	N	0.672145	0.456961	0.798133
	N8799	N	0.727799	0.548260	0.798076
	H8800	H	0.623844	0.668905	0.351656
	H8801	H	0.686588	0.606738	0.352139
	H8802	H	0.657771	0.636843	0.149456
	H8803	H	0.720255	0.574487	0.149176
	H8804	H	0.657809	0.637101	0.351394
	H8805	H	0.720158	0.574160	0.352183
	H8806	H	0.624083	0.669064	0.149379
	H8807	H	0.686460	0.606321	0.148306
	H8808	H	0.658884	0.600490	0.101187
	H8809	H	0.721599	0.682202	0.099807
	H8810	H	0.628931	0.552439	0.399512
	H8811	H	0.686456	0.641529	0.399444
	H8812	H	0.629043	0.552433	0.101920
	H8813	H	0.686548	0.641321	0.101030
	H8814	H	0.658799	0.600407	0.400228
	H8815	H	0.721372	0.682606	0.400379
	H8816	H	0.634351	0.657493	0.515342
	H8817	H	0.697579	0.596383	0.491677
	H8818	H	0.647572	0.648662	0.029833
	H8819	H	0.709264	0.584778	0.019181
	H8820	H	0.646083	0.646219	0.515716
	H8821	H	0.709395	0.585099	0.491785
	H8822	H	0.635666	0.659680	0.029506
	H8823	H	0.697444	0.595888	0.019621
	H8824	H	0.650186	0.583643	0.269686
	H8825	H	0.709966	0.669219	0.209970
	H8826	H	0.637592	0.569260	0.231517
	H8827	H	0.697647	0.655227	0.289758
	H8828	H	0.639811	0.567011	0.270054
	H8829	H	0.697792	0.655044	0.209714
	H8830	H	0.647935	0.586025	0.230678
	H8831	H	0.709813	0.669478	0.290127
	Co8832	Co	0.737458	0.699995	0.124825
	Co8833	Co	0.672112	0.621613	0.126077
	Co8834	Co	0.616161	0.530785	0.375332
	Co8835	Co	0.672083	0.621700	0.375450
	C8836	C	0.622815	0.670120	0.424406
	C8837	C	0.685413	0.607763	0.424823
	C8838	C	0.658912	0.635744	0.077027
	C8839	C	0.721404	0.573341	0.076693
	C8840	C	0.658878	0.635865	0.424340
	C8841	C	0.721321	0.573185	0.424413
	C8842	C	0.622899	0.670035	0.076866
	C8843	C	0.685353	0.607551	0.075863
	C8844	C	0.659819	0.602093	0.174318
	C8845	C	0.722750	0.683646	0.173164
	C8846	C	0.627988	0.550822	0.326999
	C8847	C	0.685320	0.640072	0.326517
	C8848	C	0.628036	0.550805	0.174611
	C8849	C	0.685359	0.639956	0.173520
	C8850	C	0.659797	0.602053	0.327226
	C8851	C	0.722630	0.683861	0.326697
	C8852	C	0.626994	0.666206	0.500503
	C8853	C	0.689509	0.603565	-0.000335
	C8854	C	0.654694	0.639791	0.500804
	C8855	C	0.717260	0.577351	0.000219
	C8856	C	0.656082	0.596170	0.250625
	C8857	C	0.718272	0.678855	0.250073
	C8858	C	0.631647	0.556780	0.250751
	C8859	C	0.689500	0.645280	0.249974
	C8860	C	0.634000	0.659505	0.500421
	C8861	C	0.696522	0.596902	-0.000293
	C8862	C	0.647698	0.646512	0.500938
	C8863	C	0.710228	0.583972	-0.000022
	C8864	C	0.649888	0.586188	0.250557
	C8865	C	0.710907	0.670518	0.250064
	C8866	C	0.637843	0.566751	0.250637
	C8867	C	0.696684	0.653911	0.249981
	C8868	C	0.637194	0.655555	0.509042
	C8869	C	0.700094	0.593769	0.495495
	C8870	C	0.644655	0.650489	0.017197
	C8871	C	0.706707	0.587210	0.010708
	C8872	C	0.643841	0.649196	0.509276
	C8873	C	0.706767	0.587432	0.495464
	C8874	C	0.637943	0.656732	0.017082
	C8875	C	0.700014	0.593527	0.010727
	C8876	C	0.647414	0.580575	0.261428
	C8877	C	0.707278	0.666210	0.227601
	C8878	C	0.640328	0.572391	0.239575
	C8879	C	0.700303	0.658292	0.272380
	C8880	C	0.641558	0.571106	0.261506
	C8881	C	0.700368	0.658163	0.227313
	C8882	C	0.646210	0.581844	0.239247
	C8883	C	0.707212	0.666341	0.272408
	N8884	N	0.616744	0.676083	0.453550
	N8885	N	0.679318	0.613653	0.453714
	N8886	N	0.664931	0.629739	0.048212
	N8887	N	0.727446	0.567366	0.047737
	N8888	N	0.664925	0.629877	0.453300
	N8889	N	0.727426	0.567285	0.453239
	N8890	N	0.616811	0.675952	0.047788
	N8891	N	0.679298	0.613523	0.047380
	N8892	N	0.665239	0.610739	0.203565
	N8893	N	0.729202	0.690834	0.202222
	N8894	N	0.622688	0.542033	0.298289
	N8895	N	0.679191	0.632275	0.297876
	N8896	N	0.622701	0.542019	0.203478
	N8897	N	0.679220	0.632223	0.202665
	N8898	N	0.665231	0.610708	0.298525
	N8899	N	0.729112	0.690981	0.297366
	H8900	H	0.624016	0.668800	0.851776
	H8901	H	0.686621	0.606674	0.851661
	H8902	H	0.657504	0.636615	0.650049
	H8903	H	0.720279	0.574480	0.649058
	H8904	H	0.657739	0.636870	0.852036
	H8905	H	0.720269	0.574391	0.851247
	H8906	H	0.624063	0.669281	0.649642
	H8907	H	0.686515	0.606488	0.650316
	H8908	H	0.658784	0.600537	0.601612
	H8909	H	0.721650	0.682256	0.600272
	H8910	H	0.629273	0.552160	0.900309
	H8911	H	0.686380	0.641663	0.899984
	H8912	H	0.628860	0.552623	0.602602
	H8913	H	0.686501	0.641506	0.600574
	H8914	H	0.658893	0.600536	0.901839
	H8915	H	0.721546	0.682407	0.899988
	H8916	H	0.634294	0.657192	0.971533
	H8917	H	0.697389	0.595980	0.979968
	H8918	H	0.647369	0.648622	0.486027
	H8919	H	0.709131	0.584541	0.508655
	H8920	H	0.646168	0.646083	0.971955
	H8921	H	0.709282	0.584914	0.980622
	H8922	H	0.635577	0.659797	0.484768
	H8923	H	0.697360	0.595773	0.509222
	H8924	H	0.649170	0.584826	0.647403
	H8925	H	0.709344	0.670287	0.707285
	H8926	H	0.638680	0.568071	0.856647
	H8927	H	0.698288	0.654269	0.793071
	H8928	H	0.638815	0.568118	0.646857
	H8929	H	0.697142	0.656158	0.707394
	H8930	H	0.648983	0.584853	0.856572
	H8931	H	0.710524	0.668380	0.793060
	Co8932	Co	0.737452	0.700033	0.625486
	Co8933	Co	0.672076	0.621746	0.626501
	Co8934	Co	0.616135	0.530742	0.875751
	Co8935	Co	0.672123	0.621677	0.875431
	C8936	C	0.622869	0.669932	0.924451
	C8937	C	0.685412	0.607683	0.923887
	C8938	C	0.658706	0.635613	0.577236
	C8939	C	0.721377	0.573336	0.576518
	C8940	C	0.658907	0.635769	0.924645
	C8941	C	0.721398	0.573290	0.923854
	C8942	C	0.622910	0.670284	0.576989
	C8943	C	0.685381	0.607635	0.577377
	C8944	C	0.659801	0.602079	0.674899
	C8945	C	0.722754	0.683654	0.673308
	C8946	C	0.628116	0.550648	0.827565
	C8947	C	0.685285	0.640171	0.826942
	C8948	C	0.627922	0.550888	0.675128
	C8949	C	0.685336	0.640099	0.674103
	C8950	C	0.659859	0.602063	0.828373
	C8951	C	0.722710	0.683723	0.826622
	C8952	C	0.626995	0.665912	1.000706
	C8953	C	0.689512	0.603687	0.500952
	C8954	C	0.654819	0.639846	1.000780
	C8955	C	0.717227	0.577275	0.500492
	C8956	C	0.656137	0.596146	0.751751
	C8957	C	0.718354	0.678808	0.749898
	C8958	C	0.631642	0.556731	0.751495
	C8959	C	0.689479	0.645417	0.750443
	C8960	C	0.634038	0.659311	1.000739
	C8961	C	0.696523	0.596955	0.500652
	C8962	C	0.647795	0.646516	1.000948
	C8963	C	0.710216	0.583966	0.500390
	C8964	C	0.649904	0.586221	0.751767
	C8965	C	0.710969	0.670483	0.749984
	C8966	C	0.637835	0.566731	0.751587
	C8967	C	0.696708	0.654018	0.750258
	C8968	C	0.637181	0.655342	0.984428
	C8969	C	0.699999	0.593600	0.988780
	C8970	C	0.644531	0.650490	0.492456
	C8971	C	0.706640	0.587121	0.505086
	C8972	C	0.643905	0.649091	0.984620
	C8973	C	0.706710	0.587314	0.988943
	C8974	C	0.637869	0.656836	0.491830
	C8975	C	0.699967	0.593455	0.505271
	C8976	C	0.646857	0.581219	0.693116
	C8977	C	0.706939	0.666822	0.726275
	C8978	C	0.640910	0.571742	0.810621
	C8979	C	0.700673	0.657737	0.774160
	C8980	C	0.640997	0.571738	0.692965
	C8981	C	0.700039	0.658804	0.726347
	C8982	C	0.646761	0.581213	0.810557
	C8983	C	0.707590	0.665736	0.774050
	N8984	N	0.616790	0.675882	0.953181
	N8985	N	0.679351	0.613622	0.952979
	N8986	N	0.664829	0.629732	0.548407
	N8987	N	0.727451	0.567380	0.547587
	N8988	N	0.664931	0.629753	0.953732
	N8989	N	0.727435	0.567316	0.952662
	N8990	N	0.616799	0.676152	0.548335
	N8991	N	0.679298	0.613570	0.548513
	N8992	N	0.665262	0.610721	0.703831
	N8993	N	0.729189	0.690912	0.702377
	N8994	N	0.622729	0.541941	0.798614
	N8995	N	0.679195	0.632374	0.798316
	N8996	N	0.622622	0.542078	0.703693
	N8997	N	0.679225	0.632336	0.703270
	N8998	N	0.665271	0.610725	0.798888
	N8999	N	0.729166	0.690968	0.797603
	H9000	H	0.624272	0.805497	0.348763
	H9001	H	0.686400	0.742589	0.348360
	H9002	H	0.660748	0.777715	0.149956
	H9003	H	0.723265	0.715084	0.151102
	H9004	H	0.660603	0.777418	0.350045
	H9005	H	0.723229	0.715215	0.349227
	H9006	H	0.624109	0.805375	0.150989
	H9007	H	0.686601	0.742778	0.151207
	H9008	H	0.658845	0.744998	0.099428
	H9009	H	0.731392	0.743751	0.098388
	H9010	H	0.624131	0.703851	0.399019
	H9011	H	0.693297	0.767103	0.402026
	H9012	H	0.623844	0.704123	0.100275
	H9013	H	0.693383	0.767162	0.098868
	H9014	H	0.659131	0.744309	0.399240
	H9015	H	0.731496	0.743929	0.401532
	H9016	H	0.635644	0.794995	0.649726
	H9017	H	0.697898	0.732107	0.351901
	H9018	H	0.648013	0.785406	-0.147847
	H9019	H	0.710843	0.723543	0.148811
	H9020	H	0.648362	0.785897	0.648586
	H9021	H	0.710683	0.723116	0.352231
	H9022	H	0.635225	0.794375	-0.148203
	H9023	H	0.698015	0.732370	0.148200
	H9024	H	0.647776	0.731077	0.306111
	H9025	H	0.718442	0.750259	0.400454
	H9026	H	0.634778	0.718246	0.191251
	H9027	H	0.705824	0.759387	0.100124
	H9028	H	0.635611	0.716835	0.306322
	H9029	H	0.705828	0.759441	0.400576
	H9030	H	0.646936	0.732391	0.191643
	H9031	H	0.718499	0.750393	0.100024
	Co9032	Co	0.749953	0.749750	0.125588
	Co9033	Co	0.674946	0.762400	0.125182
	Co9034	Co	0.609565	0.684264	0.375258
	Co9035	Co	0.674908	0.762273	0.374099
	C9036	C	0.623222	0.806772	0.423069
	C9037	C	0.685579	0.744060	0.422344
	C9038	C	0.661920	0.776788	0.076423
	C9039	C	0.724487	0.714330	0.076978
	C9040	C	0.661908	0.776687	0.423137
	C9041	C	0.724437	0.714338	0.423087
	C9042	C	0.623111	0.806692	0.076747
	C9043	C	0.685664	0.744151	0.077085
	C9044	C	0.660117	0.746220	0.172648
	C9045	C	0.732907	0.743924	0.172791
	C9046	C	0.622903	0.702466	0.326030
	C9047	C	0.691782	0.767127	0.327555
	C9048	C	0.622758	0.702612	0.173402
	C9049	C	0.691832	0.767151	0.173036
	C9050	C	0.660268	0.745877	0.325918
	C9051	C	0.732940	0.744027	0.327375
	C9052	C	0.627171	0.802283	0.500453
	C9053	C	0.689617	0.739635	0.000227
	C9054	C	0.657431	0.780113	0.500371
	C9055	C	0.719950	0.717727	0.000160
	C9056	C	0.655783	0.741175	0.249053
	C9057	C	0.727722	0.745050	0.250303
	C9058	C	0.627026	0.707770	0.249379
	C9059	C	0.696896	0.765536	0.250507
	C9060	C	0.634495	0.795966	0.500779
	C9061	C	0.696924	0.733276	0.000191
	C9062	C	0.649600	0.785315	0.500430
	C9063	C	0.712104	0.722827	0.000299
	C9064	C	0.648397	0.732877	0.248874
	C9065	C	0.719648	0.749529	0.250456
	C9066	C	0.634236	0.716364	0.248775
	C9067	C	0.704794	0.760546	0.250425
	C9068	C	0.638347	0.793112	0.583205
	C9069	C	0.700676	0.730294	0.417485
	C9070	C	0.645369	0.787534	-0.082295
	C9071	C	0.708123	0.725433	0.082718
	C9072	C	0.645626	0.787923	0.582902
	C9073	C	0.708002	0.725220	0.417649
	C9074	C	0.638054	0.792647	-0.082624
	C9075	C	0.700801	0.730496	0.082705
	C9076	C	0.644976	0.728282	0.281012
	C9077	C	0.715772	0.752287	0.333772
	C9078	C	0.637616	0.721011	0.216471
	C9079	C	0.708584	0.757599	0.166833
	C9080	C	0.638080	0.720241	0.280906
	C9081	C	0.708563	0.757576	0.333858
	C9082	C	0.644500	0.729065	0.216460
	C9083	C	0.715782	0.752294	0.166784
	N9084	N	0.617586	0.813596	0.452003
	N9085	N	0.680000	0.750938	0.451432
	N9086	N	0.668631	0.771933	0.047964
	N9087	N	0.731180	0.709524	0.048146
	N9088	N	0.668612	0.771839	0.451492
	N9089	N	0.731165	0.709547	0.451653
	N9090	N	0.617574	0.813629	0.047663
	N9091	N	0.680074	0.751000	0.047891
	N9092	N	0.666619	0.753328	0.201910
	N9093	N	0.740777	0.743009	0.201114
	N9094	N	0.616706	0.694796	0.297439
	N9095	N	0.684052	0.768844	0.299007
	N9096	N	0.616642	0.694872	0.202516
	N9097	N	0.684071	0.768852	0.201079
	N9098	N	0.666693	0.753119	0.297195
	N9099	N	0.740783	0.743115	0.298767
	H9100	H	0.623885	0.804978	0.848483
	H9101	H	0.686565	0.742746	0.848546
	H9102	H	0.660958	0.778015	0.651083
	H9103	H	0.723237	0.715260	0.650063
	H9104	H	0.660718	0.777582	0.848862
	H9105	H	0.723376	0.715516	0.849391
	H9106	H	0.624006	0.805264	0.651131
	H9107	H	0.686530	0.742820	0.650642
	H9108	H	0.658899	0.745003	0.599535
	H9109	H	0.731510	0.743944	0.597682
	H9110	H	0.624037	0.703987	0.899398
	H9111	H	0.693327	0.766893	0.901751
	H9112	H	0.623799	0.704022	0.600283
	H9113	H	0.693349	0.767008	0.598418
	H9114	H	0.659034	0.744605	0.898898
	H9115	H	0.731482	0.743993	0.901122
	H9116	H	0.635644	0.795119	1.147102
	H9117	H	0.697991	0.732136	0.852369
	H9118	H	0.648395	0.785990	0.351916
	H9119	H	0.710775	0.723455	0.647687
	H9120	H	0.648379	0.786114	1.147534
	H9121	H	0.710783	0.723237	0.852255
	H9122	H	0.635655	0.794975	0.351923
	H9123	H	0.697998	0.732395	0.647596
	H9124	H	0.647618	0.731361	0.781118
	H9125	H	0.718432	0.750106	0.598906
	H9126	H	0.634997	0.717915	0.717009
	H9127	H	0.705764	0.759093	0.899597
	H9128	H	0.635465	0.717176	0.781482
	H9129	H	0.705736	0.759184	0.599305
	H9130	H	0.647226	0.731981	0.716785
	H9131	H	0.718408	0.749961	0.899193
	Co9132	Co	0.750098	0.750107	0.625446
	Co9133	Co	0.674935	0.762441	0.625239
	Co9134	Co	0.609609	0.684142	0.875572
	Co9135	Co	0.674960	0.762376	0.874290
	C9136	C	0.622996	0.806504	0.922627
	C9137	C	0.685696	0.744163	0.923041
	C9138	C	0.662071	0.776971	0.577018
	C9139	C	0.724444	0.714362	0.576549
	C9140	C	0.661905	0.776711	0.922926
	C9141	C	0.724545	0.714509	0.923180
	C9142	C	0.623134	0.806721	0.577354
	C9143	C	0.685633	0.744189	0.576379
	C9144	C	0.660143	0.746244	0.672514
	C9145	C	0.733026	0.744081	0.671996
	C9146	C	0.622866	0.702532	0.826639
	C9147	C	0.691840	0.767028	0.827445
	C9148	C	0.622759	0.702550	0.673480
	C9149	C	0.691829	0.767074	0.672759
	C9150	C	0.660205	0.746079	0.825937
	C9151	C	0.732999	0.744079	0.826517
	C9152	C	0.626993	0.802071	0.999732
	C9153	C	0.689538	0.739571	0.499457
	C9154	C	0.657308	0.779959	0.999510
	C9155	C	0.719867	0.717633	0.499790
	C9156	C	0.655764	0.741265	0.749001
	C9157	C	0.727781	0.745085	0.749135
	C9158	C	0.627029	0.707765	0.749697
	C9159	C	0.696886	0.765327	0.750007
	C9160	C	0.634335	0.795761	0.999490
	C9161	C	0.696860	0.733276	0.499741
	C9162	C	0.649484	0.785155	0.999747
	C9163	C	0.712007	0.722741	0.499887
	C9164	C	0.648426	0.732934	0.748740
	C9165	C	0.719634	0.749369	0.748982
	C9166	C	0.634201	0.716385	0.749475
	C9167	C	0.704748	0.760272	0.749515
	C9168	C	0.638314	0.793058	1.081523
	C9169	C	0.700750	0.730320	0.917934
	C9170	C	0.645650	0.787904	0.417899
	C9171	C	0.708046	0.725372	0.581991
	C9172	C	0.645627	0.787954	1.081901
	C9173	C	0.708092	0.725268	0.918014
	C9174	C	0.638365	0.793058	0.418286
	C9175	C	0.700723	0.730453	0.582019
	C9176	C	0.644885	0.728489	0.766674
	C9177	C	0.715747	0.752066	0.665532
	C9178	C	0.637742	0.720806	0.731217
	C9179	C	0.708514	0.757232	0.832898
	C9180	C	0.637964	0.720469	0.767194
	C9181	C	0.708509	0.757324	0.665697
	C9182	C	0.644643	0.728855	0.731121
	C9183	C	0.715746	0.752014	0.832611
	N9184	N	0.617464	0.813450	0.951562
	N9185	N	0.680115	0.751018	0.951698
	N9186	N	0.668697	0.771999	0.547844
	N9187	N	0.731169	0.709586	0.548183
	N9188	N	0.668607	0.771872	0.951649
	N9189	N	0.731208	0.709560	0.951619
	N9190	N	0.617534	0.813553	0.548193
	N9191	N	0.680050	0.751047	0.547629
	N9192	N	0.666617	0.753385	0.701824
	N9193	N	0.740899	0.743274	0.700816
	N9194	N	0.616711	0.694831	0.798241
	N9195	N	0.684106	0.768831	0.799325
	N9196	N	0.616646	0.694844	0.703158
	N9197	N	0.684091	0.768847	0.701278
	N9198	N	0.666665	0.753270	0.797041
	N9199	N	0.740870	0.743300	0.798269
	H9200	H	0.637446	0.856489	0.348796
	H9201	H	0.699886	0.793881	0.349175
	H9202	H	0.675023	0.830657	0.151992
	H9203	H	0.737485	0.767996	0.151824
	H9204	H	0.674998	0.830495	0.347693
	H9205	H	0.737595	0.768289	0.347770
	H9206	H	0.637466	0.856530	0.150987
	H9207	H	0.699916	0.793927	0.150619
	H9208	H	0.668928	0.806419	0.097896
	H9209	H	0.744233	0.795323	0.097245
	H9210	H	0.630877	0.829766	0.401378
	H9211	H	0.706078	0.818419	0.402374
	H9212	H	0.630866	0.829756	0.098064
	H9213	H	0.706073	0.818403	0.098950
	H9214	H	0.668920	0.806178	0.401730
	H9215	H	0.744229	0.795338	0.401559
	H9216	H	0.649850	0.847914	0.650632
	H9217	H	0.712154	0.785112	0.350293
	H9218	H	0.662792	0.839573	0.149759
	H9219	H	0.725228	0.776599	-0.150754
	H9220	H	0.662887	0.839698	0.650314
	H9221	H	0.725309	0.777025	0.349085
	H9222	H	0.649694	0.847666	0.149649
	H9223	H	0.712225	0.784974	-0.150946
	H9224	H	0.655958	0.812678	0.099742
	H9225	H	0.731706	0.802730	0.399806
	H9226	H	0.643367	0.821992	0.400009
	H9227	H	0.719198	0.812420	0.100086
	H9228	H	0.643332	0.821906	0.099461
	H9229	H	0.718999	0.811822	0.400715
	H9230	H	0.656002	0.812731	0.399710
	H9231	H	0.731894	0.803379	0.099439
	Co9232	Co	0.762631	0.799931	0.125025
	Co9233	Co	0.687516	0.812314	0.125866
	Co9234	Co	0.612473	0.824941	0.374416
	Co9235	Co	0.687476	0.812294	0.373882
	C9236	C	0.636402	0.857733	0.422928
	C9237	C	0.698853	0.795187	0.423434
	C9238	C	0.676104	0.829454	0.076901
	C9239	C	0.738588	0.766905	0.077097
	C9240	C	0.676140	0.829463	0.422620
	C9241	C	0.738676	0.767065	0.422366
	C9242	C	0.636369	0.857730	0.076922
	C9243	C	0.698910	0.795245	0.076140
	C9244	C	0.670435	0.806462	0.172306
	C9245	C	0.745761	0.795220	0.172310
	C9246	C	0.629355	0.829762	0.326973
	C9247	C	0.704555	0.818213	0.327742
	C9248	C	0.629366	0.829788	0.172348
	C9249	C	0.704580	0.818255	0.173167
	C9250	C	0.670420	0.806373	0.327026
	C9251	C	0.745741	0.795214	0.327180
	C9252	C	0.640682	0.853807	0.500172
	C9253	C	0.703248	0.791420	-0.001248
	C9254	C	0.671907	0.833495	0.499865
	C9255	C	0.734366	0.770932	-0.000078
	C9256	C	0.665218	0.807481	0.249657
	C9257	C	0.740679	0.796887	0.249667
	C9258	C	0.634456	0.828149	0.249720
	C9259	C	0.709786	0.817211	0.250496
	C9260	C	0.648496	0.848483	0.500334
	C9261	C	0.711015	0.786008	-0.000906
	C9262	C	0.664141	0.838927	0.499921
	C9263	C	0.726595	0.776313	-0.000479
	C9264	C	0.657136	0.811985	0.249775
	C9265	C	0.732815	0.801924	0.249638
	C9266	C	0.642322	0.823089	0.249849
	C9267	C	0.717893	0.812841	0.250334
	C9268	C	0.652590	0.846101	0.583610
	C9269	C	0.715002	0.783413	0.416938
	C9270	C	0.659990	0.841287	0.082699
	C9271	C	0.722519	0.778613	-0.083921
	C9272	C	0.660108	0.841455	0.583213
	C9273	C	0.722553	0.778856	0.416132
	C9274	C	0.652454	0.845873	0.082563
	C9275	C	0.715032	0.783323	-0.083817
	C9276	C	0.653271	0.814745	0.166222
	C9277	C	0.728977	0.804749	0.333302
	C9278	C	0.646094	0.820121	0.333238
	C9279	C	0.721832	0.810265	0.166745
	C9280	C	0.646069	0.820068	0.166367
	C9281	C	0.721748	0.810011	0.333823
	C9282	C	0.653288	0.814770	0.333272
	C9283	C	0.729084	0.805043	0.166370
	N9284	N	0.630230	0.863713	0.451740
	N9285	N	0.692714	0.801226	0.452082
	N9286	N	0.682253	0.823442	0.048461
	N9287	N	0.744733	0.760923	0.048501
	N9288	N	0.682272	0.823439	0.451176
	N9289	N	0.744828	0.761044	0.450991
	N9290	N	0.630250	0.863803	0.048141
	N9291	N	0.692771	0.801278	0.047779
	N9292	N	0.678285	0.805608	0.200891
	N9293	N	0.753489	0.793479	0.200593
	N9294	N	0.621599	0.831487	0.298638
	N9295	N	0.696696	0.819051	0.299138
	N9296	N	0.621613	0.831514	0.200505
	N9297	N	0.696719	0.819057	0.201355
	N9298	N	0.678287	0.805572	0.298406
	N9299	N	0.753487	0.793459	0.298655
	H9300	H	0.637380	0.856481	0.847867
	H9301	H	0.699959	0.794130	0.847784
	H9302	H	0.675336	0.831043	0.650365
	H9303	H	0.737761	0.768515	0.650692
	H9304	H	0.675227	0.830908	0.849230
	H9305	H	0.737811	0.768506	0.848901
	H9306	H	0.637358	0.856305	0.651870
	H9307	H	0.699898	0.794024	0.651765
	H9308	H	0.669051	0.806658	0.598094
	H9309	H	0.744194	0.795170	0.598558
	H9310	H	0.630836	0.829384	0.901406
	H9311	H	0.706154	0.818538	0.901315
	H9312	H	0.630892	0.829634	0.598112
	H9313	H	0.706110	0.818513	0.598001
	H9314	H	0.669060	0.806499	0.901648
	H9315	H	0.744244	0.795262	0.901803
	H9316	H	0.649755	0.847808	0.848917
	H9317	H	0.712331	0.785482	1.149834
	H9318	H	0.662819	0.839579	0.349381
	H9319	H	0.725334	0.776982	0.649959
	H9320	H	0.662852	0.839677	0.849182
	H9321	H	0.725353	0.777292	1.149683
	H9322	H	0.649716	0.847744	0.349980
	H9323	H	0.712305	0.785270	0.651165
	H9324	H	0.655990	0.812712	0.900549
	H9325	H	0.731633	0.802583	0.900040
	H9326	H	0.643413	0.821892	0.599149
	H9327	H	0.719224	0.812325	0.599710
	H9328	H	0.643344	0.821776	0.900331
	H9329	H	0.719043	0.811927	0.900023
	H9330	H	0.656087	0.812831	0.599295
	H9331	H	0.731816	0.803034	0.599595
	Co9332	Co	0.762629	0.799950	0.624956
	Co9333	Co	0.687586	0.812498	0.625818
	Co9334	Co	0.612473	0.824951	0.874285
	Co9335	Co	0.687590	0.812526	0.874163
	C9336	C	0.636314	0.857709	0.922405
	C9337	C	0.698951	0.795385	0.922102
	C9338	C	0.676278	0.829700	0.576876
	C9339	C	0.738772	0.767252	0.576602
	C9340	C	0.676241	0.829617	0.923109
	C9341	C	0.738745	0.767159	0.922960
	C9342	C	0.636357	0.857658	0.577220
	C9343	C	0.698901	0.795329	0.577699
	C9344	C	0.670529	0.806621	0.672678
	C9345	C	0.745738	0.795175	0.672329
	C9346	C	0.629359	0.829575	0.827095
	C9347	C	0.704637	0.818416	0.827224
	C9348	C	0.629369	0.829666	0.672404
	C9349	C	0.704614	0.818361	0.672425
	C9350	C	0.670524	0.806588	0.827165
	C9351	C	0.745747	0.795142	0.827144
	C9352	C	0.640640	0.853780	0.999363
	C9353	C	0.703196	0.791359	0.500594
	C9354	C	0.671857	0.833445	0.999785
	C9355	C	0.734421	0.771056	0.499415
	C9356	C	0.665318	0.807635	0.749811
	C9357	C	0.740662	0.796777	0.749873
	C9358	C	0.634451	0.827962	0.749647
	C9359	C	0.709858	0.817323	0.749788
	C9360	C	0.648428	0.848402	0.999201
	C9361	C	0.710989	0.785952	0.500540
	C9362	C	0.664083	0.838882	0.999426
	C9363	C	0.726593	0.776373	0.499538
	C9364	C	0.657217	0.811978	0.749866
	C9365	C	0.732788	0.801820	0.749830
	C9366	C	0.642337	0.822950	0.749781
	C9367	C	0.717932	0.812874	0.749780
	C9368	C	0.652486	0.845957	0.915888
	C9369	C	0.715062	0.783651	1.082631
	C9370	C	0.660073	0.841393	0.416574
	C9371	C	0.722530	0.778813	0.583247
	C9372	C	0.660030	0.841372	0.916052
	C9373	C	0.722570	0.778976	1.082665
	C9374	C	0.652530	0.845980	0.416863
	C9375	C	0.715050	0.783528	0.583886
	C9376	C	0.653298	0.814664	0.833643
	C9377	C	0.728963	0.804698	0.833430
	C9378	C	0.646142	0.820056	0.666244
	C9379	C	0.721827	0.810191	0.666452
	C9380	C	0.646081	0.819937	0.833503
	C9381	C	0.721744	0.810011	0.833281
	C9382	C	0.653384	0.814811	0.666231
	C9383	C	0.729044	0.804889	0.666346
	N9384	N	0.630242	0.863832	0.951436
	N9385	N	0.692791	0.801350	0.951009
	N9386	N	0.682377	0.823631	0.548059
	N9387	N	0.744866	0.761140	0.547525
	N9388	N	0.682354	0.823573	0.951921
	N9389	N	0.744834	0.761082	0.951610
	N9390	N	0.630216	0.863674	0.548390
	N9391	N	0.692738	0.801301	0.548774
	N9392	N	0.678394	0.805807	0.701109
	N9393	N	0.753476	0.793463	0.700578
	N9394	N	0.621633	0.831347	0.798699
	N9395	N	0.696778	0.819341	0.798786
	N9396	N	0.621647	0.831394	0.700684
	N9397	N	0.696767	0.819293	0.701235
	N9398	N	0.678405	0.805797	0.798666
	N9399	N	0.753489	0.793453	0.798654
	H9400	H	0.651810	0.909469	0.349318
	H9401	H	0.714287	0.847063	0.350250
	H9402	H	0.688469	0.882109	0.150652
	H9403	H	0.751163	0.819667	0.150721
	H9404	H	0.688493	0.882052	0.348792
	H9405	H	0.750978	0.819519	0.348898
	H9406	H	0.651794	0.909587	0.149938
	H9407	H	0.714362	0.847252	0.149894
	H9408	H	0.681727	0.857906	0.098413
	H9409	H	0.751122	0.920829	0.101149
	H9410	H	0.643601	0.880909	0.401770
	H9411	H	0.716053	0.879969	0.400334
	H9412	H	0.643580	0.880933	0.098414
	H9413	H	0.716045	0.880166	0.100447
	H9414	H	0.681652	0.857591	0.401585
	H9415	H	0.750903	0.921138	0.398551
	H9416	H	0.664434	0.901776	0.352043
	H9417	H	0.726833	0.839125	0.647616
	H9418	H	0.676935	0.892304	0.147687
	H9419	H	0.739536	0.829885	-0.148941
	H9420	H	0.677207	0.892821	0.352173
	H9421	H	0.739637	0.830190	0.647459
	H9422	H	0.664163	0.901362	0.147915
	H9423	H	0.726812	0.838962	-0.149173
	H9424	H	0.669115	0.865317	0.099858
	H9425	H	0.739663	0.907570	0.245925
	H9426	H	0.656696	0.874961	0.400439
	H9427	H	0.727794	0.892828	0.254563
	H9428	H	0.656503	0.874480	0.099945
	H9429	H	0.727530	0.893362	0.245916
	H9430	H	0.669331	0.865739	0.400280
	H9431	H	0.740006	0.906976	0.254389
	Co9432	Co	0.765389	0.940764	0.125029
	Co9433	Co	0.700144	0.862524	0.125462
	Co9434	Co	0.624995	0.874765	0.373985
	Co9435	Co	0.700102	0.862392	0.374196
	C9436	C	0.650603	0.910359	0.423070
	C9437	C	0.713082	0.847965	0.423554
	C9438	C	0.689428	0.880745	0.076656
	C9439	C	0.751988	0.818239	0.076688
	C9440	C	0.689446	0.880660	0.422772
	C9441	C	0.751897	0.818188	0.422956
	C9442	C	0.650565	0.910474	0.076664
	C9443	C	0.713147	0.848084	0.076521
	C9444	C	0.683250	0.857814	0.172614
	C9445	C	0.752235	0.922352	0.173815
	C9446	C	0.642060	0.880794	0.327554
	C9447	C	0.714891	0.878678	0.326963
	C9448	C	0.642074	0.880829	0.173050
	C9449	C	0.714885	0.878755	0.173695
	C9450	C	0.683219	0.857687	0.327272
	C9451	C	0.752138	0.922499	0.326194
	C9452	C	0.655172	0.907151	0.500177
	C9453	C	0.717736	0.844816	-0.000090
	C9454	C	0.685519	0.885201	0.500060
	C9455	C	0.748021	0.822728	-0.000271
	C9456	C	0.678136	0.859418	0.249877
	C9457	C	0.748001	0.917138	0.250043
	C9458	C	0.647294	0.879805	0.250222
	C9459	C	0.719299	0.883611	0.250377
	C9460	C	0.663049	0.902067	0.500484
	C9461	C	0.725571	0.839650	-0.000482
	C9462	C	0.678223	0.891576	0.500498
	C9463	C	0.740700	0.829052	-0.000206
	C9464	C	0.670283	0.864454	0.250042
	C9465	C	0.740817	0.908518	0.250215
	C9466	C	0.655412	0.875430	0.250200
	C9467	C	0.726654	0.891950	0.250668
	C9468	C	0.667098	0.899676	0.417875
	C9469	C	0.729525	0.837106	0.582314
	C9470	C	0.674214	0.894295	0.081998
	C9471	C	0.736823	0.831904	-0.082946
	C9472	C	0.674416	0.894587	0.418085
	C9473	C	0.736832	0.831991	0.581959
	C9474	C	0.666887	0.899371	0.082228
	C9475	C	0.729524	0.837045	-0.083201
	C9476	C	0.666450	0.867285	0.166763
	C9477	C	0.737099	0.904414	0.247975
	C9478	C	0.659353	0.872854	0.333818
	C9479	C	0.730412	0.896023	0.253016
	C9480	C	0.659228	0.872569	0.166759
	C9481	C	0.730221	0.896351	0.248163
	C9482	C	0.666583	0.867570	0.333607
	C9483	C	0.737301	0.904082	0.252687
	N9484	N	0.643882	0.915214	0.451842
	N9485	N	0.706417	0.852912	0.452046
	N9486	N	0.695011	0.873865	0.047856
	N9487	N	0.757560	0.811339	0.047974
	N9488	N	0.694995	0.873753	0.451689
	N9489	N	0.757480	0.811326	0.451940
	N9490	N	0.643904	0.915404	0.048071
	N9491	N	0.706447	0.852942	0.048120
	N9492	N	0.690976	0.856050	0.200822
	N9493	N	0.758347	0.930114	0.202547
	N9494	N	0.634190	0.881612	0.298945
	N9495	N	0.708446	0.871489	0.297699
	N9496	N	0.634227	0.881628	0.201424
	N9497	N	0.708431	0.871557	0.202719
	N9498	N	0.690968	0.855949	0.298712
	N9499	N	0.758291	0.930188	0.297179
	H9500	H	0.651758	0.909675	0.849423
	H9501	H	0.714384	0.847317	0.849868
	H9502	H	0.688509	0.882106	0.650787
	H9503	H	0.751001	0.819456	0.651819
	H9504	H	0.688407	0.881957	0.848419
	H9505	H	0.750955	0.819373	0.848429
	H9506	H	0.651889	0.909712	0.650876
	H9507	H	0.714287	0.847026	0.650886
	H9508	H	0.681685	0.857689	0.598687
	H9509	H	0.751095	0.920856	0.600214
	H9510	H	0.643636	0.881064	0.901357
	H9511	H	0.715979	0.880232	0.898984
	H9512	H	0.643624	0.880852	0.598162
	H9513	H	0.716134	0.879879	0.599713
	H9514	H	0.681721	0.857564	0.901942
	H9515	H	0.750892	0.921033	0.898854
	H9516	H	0.664224	0.901490	0.851406
	H9517	H	0.726845	0.839129	1.148009
	H9518	H	0.677007	0.892258	0.648586
	H9519	H	0.739387	0.829748	0.352032
	H9520	H	0.677027	0.892562	0.851249
	H9521	H	0.739589	0.830087	1.148684
	H9522	H	0.664165	0.901172	0.648422
	H9523	H	0.726584	0.838590	0.352811
	H9524	H	0.669259	0.865287	0.599411
	H9525	H	0.739758	0.907291	0.812559
	H9526	H	0.656627	0.874565	0.900055
	H9527	H	0.727655	0.893017	0.686644
	H9528	H	0.656620	0.874543	0.599083
	H9529	H	0.727617	0.893125	0.812461
	H9530	H	0.669201	0.865493	0.900662
	H9531	H	0.739805	0.907299	0.686335
	Co9532	Co	0.765441	0.940737	0.625109
	Co9533	Co	0.700061	0.862407	0.625535
	Co9534	Co	0.625105	0.875052	0.873998
	Co9535	Co	0.700149	0.862476	0.874609
	C9536	C	0.650571	0.910524	0.922923
	C9537	C	0.713161	0.848143	0.923445
	C9538	C	0.689464	0.880689	0.576856
	C9539	C	0.751930	0.818183	0.577228
	C9540	C	0.689342	0.880582	0.922599
	C9541	C	0.751948	0.818138	0.922947
	C9542	C	0.650613	0.910444	0.576867
	C9543	C	0.713053	0.847996	0.577112
	C9544	C	0.683236	0.857647	0.672938
	C9545	C	0.752233	0.922338	0.672827
	C9546	C	0.642154	0.880878	0.826898
	C9547	C	0.714829	0.878758	0.825849
	C9548	C	0.642121	0.880794	0.672361
	C9549	C	0.714902	0.878596	0.672667
	C9550	C	0.683219	0.857574	0.827529
	C9551	C	0.752120	0.922420	0.825955
	C9552	C	0.655111	0.907179	0.999813
	C9553	C	0.717659	0.844755	0.500571
	C9554	C	0.685412	0.885125	0.999588
	C9555	C	0.747942	0.822653	0.500258
	C9556	C	0.678132	0.859252	0.750035
	C9557	C	0.747996	0.917125	0.749334
	C9558	C	0.647362	0.879816	0.749324
	C9559	C	0.719285	0.883543	0.749172
	C9560	C	0.662919	0.901962	0.999794
	C9561	C	0.725493	0.839562	0.500385
	C9562	C	0.678078	0.891442	0.999591
	C9563	C	0.740641	0.828995	0.499920
	C9564	C	0.670294	0.864302	0.749802
	C9565	C	0.740788	0.908511	0.749548
	C9566	C	0.655451	0.875382	0.749425
	C9567	C	0.726632	0.891915	0.749381
	C9568	C	0.666930	0.899473	0.917122
	C9569	C	0.729552	0.837082	1.082194
	C9570	C	0.674309	0.894277	0.582867
	C9571	C	0.736718	0.831709	0.417869
	C9572	C	0.674247	0.894375	0.917015
	C9573	C	0.736848	0.831933	1.082645
	C9574	C	0.666994	0.899395	0.582958
	C9575	C	0.729397	0.836806	0.418285
	C9576	C	0.666521	0.867215	0.666297
	C9577	C	0.737150	0.904209	0.784987
	C9578	C	0.659323	0.872631	0.833208
	C9579	C	0.730281	0.896157	0.714101
	C9580	C	0.659330	0.872584	0.665989
	C9581	C	0.730274	0.896155	0.784719
	C9582	C	0.666522	0.867326	0.833341
	C9583	C	0.737161	0.904240	0.713965
	N9584	N	0.643907	0.915426	0.951725
	N9585	N	0.706452	0.852945	0.951803
	N9586	N	0.695008	0.873789	0.547807
	N9587	N	0.757504	0.811330	0.548188
	N9588	N	0.694996	0.873809	0.951752
	N9589	N	0.757508	0.811252	0.951675
	N9590	N	0.643902	0.915254	0.548175
	N9591	N	0.706391	0.852906	0.548382
	N9592	N	0.690971	0.855893	0.701083
	N9593	N	0.758376	0.930060	0.701876
	N9594	N	0.634290	0.881704	0.798607
	N9595	N	0.708386	0.871557	0.796923
	N9596	N	0.634280	0.881650	0.700965
	N9597	N	0.708425	0.871434	0.701903
	N9598	N	0.690981	0.855903	0.799181
	N9599	N	0.758308	0.930116	0.797165
	H9600	H	0.773530	0.079714	0.351516
	H9601	H	0.835778	0.016800	0.350845
	H9602	H	0.806495	0.046279	0.149068
	H9603	H	0.869111	-0.016057	0.150090
	H9604	H	0.806491	0.046209	0.350716
	H9605	H	0.869132	-0.016062	0.350850
	H9606	H	0.773362	0.079498	0.148511
	H9607	H	0.835846	0.016996	0.149724
	H9608	H	0.808308	0.010039	0.101116
	H9609	H	0.862081	0.103296	0.100272
	H9610	H	0.778774	-0.038074	0.399413
	H9611	H	0.833990	0.053456	0.398574
	H9612	H	0.778650	-0.037911	0.100843
	H9613	H	0.833555	0.053840	0.100879
	H9614	H	0.808431	0.009949	0.398791
	H9615	H	0.862445	0.102927	0.398751
	H9616	H	0.784942	0.069940	0.495931
	H9617	H	0.846084	0.005211	0.517930
	H9618	H	0.795522	0.056697	-0.054507
	H9619	H	0.858035	-0.005788	0.010975
	H9620	H	0.796504	0.058375	0.496427
	H9621	H	0.857713	-0.006347	0.518128
	H9622	H	0.783933	0.068232	-0.053632
	H9623	H	0.846331	0.005630	0.011098
	H9624	H	0.798652	-0.005639	0.244387
	H9625	H	0.852798	0.087231	0.250310
	H9626	H	0.788410	-0.022430	0.255233
	H9627	H	0.843491	0.069436	0.248859
	H9628	H	0.788274	-0.022283	0.244652
	H9629	H	0.842780	0.070175	0.249780
	H9630	H	0.798757	-0.005734	0.256030
	H9631	H	0.853349	0.086599	0.248834
	Co9632	Co	0.874840	0.125069	0.124989
	Co9633	Co	0.821216	0.031712	0.125620
	Co9634	Co	0.765377	-0.059267	0.374709
	Co9635	Co	0.821266	0.031697	0.374733
	C9636	C	0.772366	0.080755	0.423986
	C9637	C	0.834717	0.017970	0.423600
	C9638	C	0.807676	0.045268	0.076194
	C9639	C	0.870287	-0.017067	0.077353
	C9640	C	0.807642	0.045186	0.423638
	C9641	C	0.870245	-0.017129	0.423624
	C9642	C	0.772231	0.080617	0.076263
	C9643	C	0.834669	0.018064	0.077053
	C9644	C	0.809347	0.011690	0.173726
	C9645	C	0.863175	0.104857	0.173068
	C9646	C	0.777679	-0.039654	0.326170
	C9647	C	0.832974	0.051916	0.325533
	C9648	C	0.777612	-0.039564	0.173607
	C9649	C	0.832762	0.052096	0.173198
	C9650	C	0.809418	0.011657	0.326409
	C9651	C	0.863347	0.104696	0.325900
	C9652	C	0.776371	0.076556	0.500115
	C9653	C	0.838785	0.013950	0.000932
	C9654	C	0.803608	0.049362	0.499811
	C9655	C	0.866226	-0.012944	0.001018
	C9656	C	0.805757	0.005654	0.250119
	C9657	C	0.859780	0.098659	0.249502
	C9658	C	0.781271	-0.033666	0.249996
	C9659	C	0.836377	0.058111	0.249376
	C9660	C	0.783280	0.069678	0.500142
	C9661	C	0.845745	0.007180	0.001228
	C9662	C	0.796717	0.056246	0.499934
	C9663	C	0.859307	-0.006091	0.001060
	C9664	C	0.799574	-0.004312	0.250133
	C9665	C	0.853889	0.088361	0.249635
	C9666	C	0.787490	-0.023744	0.250029
	C9667	C	0.842291	0.068391	0.249236
	C9668	C	0.787120	0.066903	0.497748
	C9669	C	0.848879	0.003134	0.510085
	C9670	C	0.793123	0.059425	-0.030524
	C9671	C	0.855619	-0.003013	0.006682
	C9672	C	0.793653	0.060336	0.497751
	C9673	C	0.855454	-0.003355	0.510002
	C9674	C	0.786552	0.065955	-0.030189
	C9675	C	0.849016	0.003481	0.006797
	C9676	C	0.796449	-0.009247	0.246828
	C9677	C	0.850742	0.083415	0.249805
	C9678	C	0.790629	-0.018782	0.253023
	C9679	C	0.845463	0.073332	0.249083
	C9680	C	0.790580	-0.018702	0.246846
	C9681	C	0.845118	0.073705	0.249669
	C9682	C	0.796494	-0.009297	0.253391
	C9683	C	0.851081	0.083042	0.249177
	N9684	N	0.766305	0.086744	0.452509
	N9685	N	0.828659	0.023973	0.452444
	N9686	N	0.813710	0.039288	0.047338
	N9687	N	0.876355	-0.023055	0.047996
	N9688	N	0.813688	0.039196	0.452762
	N9689	N	0.876318	-0.023079	0.452522
	N9690	N	0.766210	0.086598	0.047406
	N9691	N	0.828626	0.023994	0.047833
	N9692	N	0.814651	0.020496	0.202533
	N9693	N	0.868384	0.113764	0.202086
	N9694	N	0.772243	-0.048320	0.297477
	N9695	N	0.827799	0.042947	0.296955
	N9696	N	0.772218	-0.048280	0.202334
	N9697	N	0.827677	0.043059	0.202235
	N9698	N	0.814703	0.020454	0.297474
	N9699	N	0.868500	0.113666	0.297027
	H9700	H	0.773367	0.079493	0.851587
	H9701	H	0.835877	0.017005	0.852021
	H9702	H	0.806612	0.046523	0.648565
	H9703	H	0.869095	-0.016001	0.648574
	H9704	H	0.806612	0.046485	0.850692
	H9705	H	0.869304	-0.015669	0.852238
	H9706	H	0.773331	0.079419	0.648764
	H9707	H	0.835858	0.017148	0.648249
	H9708	H	0.808201	0.010168	0.600169
	H9709	H	0.862236	0.103114	0.601152
	H9710	H	0.778736	-0.038311	0.898879
	H9711	H	0.833890	0.053524	0.898652
	H9712	H	0.778397	-0.037852	0.600679
	H9713	H	0.833833	0.053551	0.600319
	H9714	H	0.808305	0.009992	0.899634
	H9715	H	0.862184	0.103146	0.899233
	H9716	H	0.784417	0.069272	1.053672
	H9717	H	0.847033	0.006812	0.990763
	H9718	H	0.795054	0.055941	0.503899
	H9719	H	0.858919	-0.004184	0.481062
	H9720	H	0.796082	0.057813	1.053851
	H9721	H	0.858698	-0.004634	0.990887
	H9722	H	0.783487	0.067553	0.503695
	H9723	H	0.847269	0.007292	0.480630
	H9724	H	0.798850	-0.005990	0.714945
	H9725	H	0.852890	0.086975	0.771691
	H9726	H	0.788109	-0.022137	0.785054
	H9727	H	0.843179	0.069625	0.729007
	H9728	H	0.788573	-0.022813	0.715168
	H9729	H	0.842998	0.069797	0.771310
	H9730	H	0.798364	-0.005264	0.785260
	H9731	H	0.852961	0.086935	0.728147
	Co9732	Co	0.874842	0.124983	0.625070
	Co9733	Co	0.821164	0.031700	0.625140
	Co9734	Co	0.765412	-0.059298	0.874652
	Co9735	Co	0.821209	0.031632	0.874729
	C9736	C	0.772248	0.080615	0.924002
	C9737	C	0.834694	0.018057	0.924459
	C9738	C	0.807708	0.045362	0.576100
	C9739	C	0.870233	-0.017101	0.575875
	C9740	C	0.807721	0.045367	0.923675
	C9741	C	0.870378	-0.016911	0.924590
	C9742	C	0.772239	0.080583	0.576149
	C9743	C	0.834759	0.018149	0.575778
	C9744	C	0.809208	0.011743	0.673694
	C9745	C	0.863202	0.104769	0.673888
	C9746	C	0.777704	-0.039771	0.826436
	C9747	C	0.832908	0.051885	0.826276
	C9748	C	0.777529	-0.039553	0.673631
	C9749	C	0.832871	0.051904	0.673391
	C9750	C	0.809262	0.011668	0.826325
	C9751	C	0.863170	0.104766	0.826522
	C9752	C	0.776367	0.076529	1.000112
	C9753	C	0.838862	0.014049	0.499598
	C9754	C	0.803619	0.049449	0.999965
	C9755	C	0.866147	-0.013066	0.499565
	C9756	C	0.805611	0.005761	0.750028
	C9757	C	0.859662	0.098666	0.750135
	C9758	C	0.781294	-0.033757	0.750276
	C9759	C	0.836419	0.058003	0.749848
	C9760	C	0.783256	0.069663	0.999879
	C9761	C	0.845763	0.007139	0.499433
	C9762	C	0.796713	0.056291	0.999930
	C9763	C	0.859243	-0.006167	0.499411
	C9764	C	0.799482	-0.004286	0.750111
	C9765	C	0.853768	0.088384	0.750045
	C9766	C	0.787497	-0.023777	0.750128
	C9767	C	0.842321	0.068283	0.750138
	C9768	C	0.786849	0.066542	1.030241
	C9769	C	0.849408	0.004106	0.995374
	C9770	C	0.792872	0.059021	0.502247
	C9771	C	0.856098	-0.002171	0.488829
	C9772	C	0.793434	0.060043	1.030240
	C9773	C	0.856013	-0.002373	0.995404
	C9774	C	0.786340	0.065583	0.502060
	C9775	C	0.849541	0.004339	0.488989
	C9776	C	0.796516	-0.009476	0.730292
	C9777	C	0.850780	0.083263	0.761926
	C9778	C	0.790447	-0.018606	0.769731
	C9779	C	0.845275	0.073410	0.738144
	C9780	C	0.790706	-0.018980	0.730462
	C9781	C	0.845211	0.073476	0.762069
	C9782	C	0.796265	-0.009120	0.769888
	C9783	C	0.850847	0.083185	0.737929
	N9784	N	0.766216	0.086609	0.952912
	N9785	N	0.828663	0.024020	0.953178
	N9786	N	0.813728	0.039320	0.547419
	N9787	N	0.876309	-0.023069	0.547348
	N9788	N	0.813730	0.039304	0.952665
	N9789	N	0.876416	-0.022937	0.953139
	N9790	N	0.766229	0.086634	0.547143
	N9791	N	0.828678	0.024076	0.546947
	N9792	N	0.814564	0.020505	0.702398
	N9793	N	0.868355	0.113705	0.702545
	N9794	N	0.772267	-0.048412	0.797114
	N9795	N	0.827712	0.042968	0.797188
	N9796	N	0.772170	-0.048276	0.702353
	N9797	N	0.827709	0.042977	0.702255
	N9798	N	0.814606	0.020454	0.797475
	N9799	N	0.868356	0.113708	0.797684
	H9800	H	0.764584	0.235162	0.349874
	H9801	H	0.827150	0.172861	0.350114
	H9802	H	0.797774	0.202213	0.148108
	H9803	H	0.860157	0.139654	0.147661
	H9804	H	0.797990	0.202717	0.350751
	H9805	H	0.860208	0.139573	0.351176
	H9806	H	0.764635	0.235402	0.148571
	H9807	H	0.827120	0.173076	0.146773
	H9808	H	0.799749	0.165651	0.100499
	H9809	H	0.853532	0.259066	0.099756
	H9810	H	0.771332	0.116198	0.399279
	H9811	H	0.825170	0.209420	0.397587
	H9812	H	0.771493	0.116013	0.100205
	H9813	H	0.824821	0.209696	0.099194
	H9814	H	0.799915	0.165715	0.398443
	H9815	H	0.853317	0.259173	0.398495
	H9816	H	0.775090	0.224115	0.458577
	H9817	H	0.837866	0.162177	0.520042
	H9818	H	0.787401	0.213745	0.004478
	H9819	H	0.849227	0.150264	0.037813
	H9820	H	0.786684	0.212576	0.458749
	H9821	H	0.849388	0.150500	0.520146
	H9822	H	0.775760	0.225251	0.004945
	H9823	H	0.837645	0.161909	0.036946
	H9824	H	0.790567	0.149575	0.189421
	H9825	H	0.843573	0.243425	0.304169
	H9826	H	0.780689	0.132246	0.309930
	H9827	H	0.834851	0.225154	0.192555
	H9828	H	0.780684	0.132353	0.190286
	H9829	H	0.833674	0.226261	0.303481
	H9830	H	0.790619	0.149460	0.309685
	H9831	H	0.844765	0.242391	0.193403
	Co9832	Co	0.866216	0.280790	0.124722
	Co9833	Co	0.812400	0.187534	0.124201
	Co9834	Co	0.758761	0.094269	0.374218
	Co9835	Co	0.812488	0.187592	0.373341
	C9836	C	0.763439	0.236458	0.422681
	C9837	C	0.826030	0.174012	0.423026
	C9838	C	0.798906	0.201173	0.075575
	C9839	C	0.861291	0.138627	0.075146
	C9840	C	0.799022	0.201372	0.422930
	C9841	C	0.861283	0.138471	0.423803
	C9842	C	0.763463	0.236555	0.076020
	C9843	C	0.825961	0.174156	0.074322
	C9844	C	0.800707	0.167282	0.172980
	C9845	C	0.854460	0.260675	0.172937
	C9846	C	0.770396	0.114587	0.326056
	C9847	C	0.824141	0.207810	0.324561
	C9848	C	0.770472	0.114506	0.173399
	C9849	C	0.823946	0.207958	0.172214
	C9850	C	0.800794	0.167292	0.325491
	C9851	C	0.854313	0.260739	0.325450
	C9852	C	0.767599	0.232479	0.499274
	C9853	C	0.830058	0.170017	-0.001837
	C9854	C	0.794777	0.205291	0.499291
	C9855	C	0.857253	0.142753	-0.000710
	C9856	C	0.797263	0.161247	0.249527
	C9857	C	0.850876	0.254637	0.249080
	C9858	C	0.773900	0.120634	0.249846
	C9859	C	0.827525	0.213937	0.248454
	C9860	C	0.774471	0.225615	0.499553
	C9861	C	0.836947	0.163108	-0.001467
	C9862	C	0.787907	0.212174	0.499643
	C9863	C	0.850367	0.149670	-0.000868
	C9864	C	0.791396	0.150889	0.249792
	C9865	C	0.844971	0.244321	0.248779
	C9866	C	0.779907	0.130866	0.249691
	C9867	C	0.833428	0.224270	0.248289
	C9868	C	0.777745	0.221892	0.476502
	C9869	C	0.840391	0.159653	0.511346
	C9870	C	0.784648	0.215916	0.002504
	C9871	C	0.846784	0.152920	0.020550
	C9872	C	0.784304	0.215311	0.476515
	C9873	C	0.846899	0.153070	0.511440
	C9874	C	0.778083	0.222468	0.002607
	C9875	C	0.840242	0.159499	0.020254
	C9876	C	0.788438	0.145734	0.215966
	C9877	C	0.841693	0.239457	0.279759
	C9878	C	0.782887	0.135979	0.283540
	C9879	C	0.836712	0.229154	0.217163
	C9880	C	0.782848	0.136033	0.216159
	C9881	C	0.836101	0.229737	0.279390
	C9882	C	0.788451	0.145715	0.283510
	C9883	C	0.842323	0.238865	0.217683
	N9884	N	0.757407	0.242468	0.451378
	N9885	N	0.819945	0.179986	0.451322
	N9886	N	0.804908	0.195162	0.046193
	N9887	N	0.867336	0.132606	0.046687
	N9888	N	0.805006	0.195323	0.451468
	N9889	N	0.867325	0.132453	0.452481
	N9890	N	0.757464	0.242603	0.046960
	N9891	N	0.819904	0.180073	0.045479
	N9892	N	0.805900	0.176259	0.201638
	N9893	N	0.859644	0.269595	0.201812
	N9894	N	0.765254	0.105601	0.297181
	N9895	N	0.818955	0.198853	0.295944
	N9896	N	0.765319	0.105553	0.202237
	N9897	N	0.818850	0.198905	0.201047
	N9898	N	0.805960	0.176259	0.296375
	N9899	N	0.859562	0.269640	0.296654
	H9900	H	0.764552	0.235176	0.851304
	H9901	H	0.827044	0.172733	0.849760
	H9902	H	0.797597	0.201975	0.647961
	H9903	H	0.860264	0.139696	0.648223
	H9904	H	0.797653	0.202196	0.850733
	H9905	H	0.860347	0.139785	0.851337
	H9906	H	0.764654	0.235380	0.647999
	H9907	H	0.827095	0.173043	0.648204
	H9908	H	0.799844	0.165599	0.599701
	H9909	H	0.853588	0.258935	0.599980
	H9910	H	0.771445	0.116224	0.898797
	H9911	H	0.824943	0.209446	0.898095
	H9912	H	0.771465	0.116090	0.600371
	H9913	H	0.825006	0.209609	0.600695
	H9914	H	0.799859	0.165650	0.898003
	H9915	H	0.853306	0.259124	0.898482
	H9916	H	0.775011	0.224039	0.995617
	H9917	H	0.838095	0.162455	0.960381
	H9918	H	0.787334	0.213653	0.541385
	H9919	H	0.849494	0.150333	0.480316
	H9920	H	0.786604	0.212393	0.994925
	H9921	H	0.849718	0.150868	0.960876
	H9922	H	0.775739	0.225284	0.540792
	H9923	H	0.837959	0.161987	0.480451
	H9924	H	0.790554	0.149568	0.743079
	H9925	H	0.843624	0.243433	0.706016
	H9926	H	0.780686	0.132345	0.755355
	H9927	H	0.834846	0.225115	0.792809
	H9928	H	0.780678	0.132311	0.744211
	H9929	H	0.833790	0.226187	0.706277
	H9930	H	0.790515	0.149588	0.754813
	H9931	H	0.844695	0.242310	0.792184
	Co9932	Co	0.866177	0.280799	0.624698
	Co9933	Co	0.812413	0.187578	0.624065
	Co9934	Co	0.758758	0.094265	0.874570
	Co9935	Co	0.812378	0.187634	0.873071
	C9936	C	0.763436	0.236434	0.923698
	C9937	C	0.825904	0.173979	0.921875
	C9938	C	0.798824	0.201023	0.575428
	C9939	C	0.861324	0.138534	0.575733
	C9940	C	0.798824	0.201157	0.923362
	C9941	C	0.861376	0.138681	0.923535
	C9942	C	0.763471	0.236577	0.575466
	C9943	C	0.825996	0.174108	0.575389
	C9944	C	0.800774	0.167282	0.672609
	C9945	C	0.854467	0.260647	0.672828
	C9946	C	0.770448	0.114513	0.825903
	C9947	C	0.824002	0.207818	0.825511
	C9948	C	0.770458	0.114446	0.673189
	C9949	C	0.824024	0.207886	0.673155
	C9950	C	0.800776	0.167292	0.825216
	C9951	C	0.854333	0.260746	0.825553
	C9952	C	0.767561	0.232423	0.999994
	C9953	C	0.830106	0.169998	0.499323
	C9954	C	0.794762	0.205298	0.999592
	C9955	C	0.857210	0.142566	0.500037
	C9956	C	0.797250	0.161190	0.749038
	C9957	C	0.850845	0.254593	0.749063
	C9958	C	0.773981	0.120604	0.749451
	C9959	C	0.827565	0.213964	0.749366
	C9960	C	0.774427	0.225523	1.000101
	C9961	C	0.836995	0.163069	0.499999
	C9962	C	0.787852	0.212120	0.999772
	C9963	C	0.850343	0.149561	0.500083
	C9964	C	0.791373	0.150880	0.749001
	C9965	C	0.844971	0.244323	0.748814
	C9966	C	0.779894	0.130855	0.749464
	C9967	C	0.833471	0.224215	0.749565
	C9968	C	0.777670	0.221752	0.997211
	C9969	C	0.840521	0.159870	0.977251
	C9970	C	0.784655	0.215911	0.522865
	C9971	C	0.846954	0.152936	0.488937
	C9972	C	0.784229	0.215190	0.997229
	C9973	C	0.847048	0.153281	0.977501
	C9974	C	0.778096	0.222506	0.522655
	C9975	C	0.840459	0.159558	0.488905
	C9976	C	0.788415	0.145758	0.745979
	C9977	C	0.841733	0.239469	0.724572
	C9978	C	0.782818	0.136009	0.752386
	C9979	C	0.836730	0.229041	0.773686
	C9980	C	0.782847	0.135967	0.746333
	C9981	C	0.836133	0.229690	0.725003
	C9982	C	0.788386	0.145782	0.752469
	C9983	C	0.842317	0.238828	0.773276
	N9984	N	0.757438	0.242525	0.952157
	N9985	N	0.819870	0.179981	0.950675
	N9986	N	0.804891	0.195106	0.546080
	N9987	N	0.867333	0.132484	0.546751
	N9988	N	0.804864	0.195146	0.951869
	N9989	N	0.867379	0.132641	0.952533
	N9990	N	0.757431	0.242561	0.546370
	N9991	N	0.819929	0.180055	0.546343
	N9992	N	0.805929	0.176240	0.701365
	N9993	N	0.859610	0.269605	0.701912
	N9994	N	0.765255	0.105587	0.797207
	N9995	N	0.818848	0.198905	0.796272
	N9996	N	0.765260	0.105544	0.702153
	N9997	N	0.818865	0.198943	0.701542
	N9998	N	0.805922	0.176255	0.795969
	N9999	N	0.859522	0.269658	0.796777
	H10000	H	0.755926	0.391261	0.350830
	H10001	H	0.818222	0.328349	0.350506
	H10002	H	0.789101	0.358177	0.148243
	H10003	H	0.851710	0.295834	0.148193
	H10004	H	0.789032	0.357982	0.349649
	H10005	H	0.851714	0.295917	0.351230
	H10006	H	0.755855	0.391046	0.148949
	H10007	H	0.818436	0.328764	0.148064
	H10008	H	0.791225	0.321290	0.099882
	H10009	H	0.846460	0.413031	0.100270
	H10010	H	0.762627	0.271861	0.398842
	H10011	H	0.816780	0.364698	0.398087
	H10012	H	0.762414	0.272077	0.100219
	H10013	H	0.816441	0.365207	0.099667
	H10014	H	0.790909	0.321652	0.398455
	H10015	H	0.846465	0.413033	0.398686
	H10016	H	0.766978	0.380763	0.534749
	H10017	H	0.829117	0.317594	0.458504
	H10018	H	0.778604	0.369370	0.071336
	H10019	H	0.841156	0.306970	-0.008205
	H10020	H	0.778579	0.369204	0.534006
	H10021	H	0.840718	0.306055	0.457945
	H10022	H	0.766940	0.380878	0.070946
	H10023	H	0.829537	0.318540	-0.009324
	H10024	H	0.781397	0.305592	0.305078
	H10025	H	0.836792	0.397206	0.279734
	H10026	H	0.772184	0.287870	0.193493
	H10027	H	0.826033	0.380947	0.218981
	H10028	H	0.771483	0.288401	0.304842
	H10029	H	0.826444	0.380516	0.279543
	H10030	H	0.782123	0.305023	0.194019
	H10031	H	0.836410	0.397675	0.219606
	Co10032	Co	0.859662	0.434273	0.124233
	Co10033	Co	0.803685	0.343337	0.124155
	Co10034	Co	0.749903	0.250097	0.373718
	Co10035	Co	0.803687	0.343319	0.373424
	C10036	C	0.754736	0.392278	0.423718
	C10037	C	0.817160	0.329628	0.423022
	C10038	C	0.790238	0.357016	0.075660
	C10039	C	0.852768	0.294564	0.075645
	C10040	C	0.790164	0.356919	0.422468
	C10041	C	0.852762	0.294613	0.423385
	C10042	C	0.754684	0.392210	0.076478
	C10043	C	0.817265	0.329773	0.075117
	C10044	C	0.792072	0.323003	0.172941
	C10045	C	0.847396	0.414637	0.173211
	C10046	C	0.761621	0.270261	0.326021
	C10047	C	0.815705	0.363224	0.325056
	C10048	C	0.761519	0.270366	0.173201
	C10049	C	0.815518	0.363474	0.172524
	C10050	C	0.791923	0.323178	0.325697
	C10051	C	0.847413	0.414630	0.325804
	C10052	C	0.758771	0.388085	0.499627
	C10053	C	0.821328	0.325602	-0.001244
	C10054	C	0.786054	0.360954	0.498757
	C10055	C	0.848570	0.298501	-0.000701
	C10056	C	0.788493	0.317016	0.249329
	C10057	C	0.843682	0.408763	0.249710
	C10058	C	0.765098	0.276424	0.249606
	C10059	C	0.819226	0.369305	0.248874
	C10060	C	0.765681	0.381203	0.499335
	C10061	C	0.828231	0.318728	-0.001032
	C10062	C	0.779125	0.367813	0.498693
	C10063	C	0.841662	0.305369	-0.000583
	C10064	C	0.782581	0.306714	0.249189
	C10065	C	0.837484	0.398785	0.249703
	C10066	C	0.771013	0.286714	0.249190
	C10067	C	0.825399	0.379306	0.249202
	C10068	C	0.769337	0.378025	0.519136
	C10069	C	0.831627	0.315205	0.476464
	C10070	C	0.775887	0.371594	0.040155
	C10071	C	0.838452	0.309190	-0.005191
	C10072	C	0.775888	0.371510	0.518727
	C10073	C	0.838190	0.308651	0.476327
	C10074	C	0.769336	0.378176	0.040076
	C10075	C	0.831876	0.315697	-0.005506
	C10076	C	0.779392	0.301718	0.280528
	C10077	C	0.834476	0.393665	0.266483
	C10078	C	0.774173	0.291670	0.218085
	C10079	C	0.828393	0.384456	0.232613
	C10080	C	0.773772	0.291997	0.280340
	C10081	C	0.828610	0.384210	0.266119
	C10082	C	0.779789	0.301391	0.218076
	C10083	C	0.834264	0.393910	0.232864
	N10084	N	0.748693	0.398275	0.452699
	N10085	N	0.811162	0.335668	0.451627
	N10086	N	0.796216	0.350952	0.046361
	N10087	N	0.858786	0.288542	0.046904
	N10088	N	0.796210	0.350946	0.451404
	N10089	N	0.858752	0.288563	0.452208
	N10090	N	0.748676	0.398239	0.047334
	N10091	N	0.811196	0.335702	0.046166
	N10092	N	0.797222	0.332008	0.201710
	N10093	N	0.852824	0.423303	0.202018
	N10094	N	0.756466	0.261312	0.296933
	N10095	N	0.810326	0.354506	0.296209
	N10096	N	0.756388	0.261404	0.202057
	N10097	N	0.810219	0.354631	0.201266
	N10098	N	0.797120	0.332095	0.296642
	N10099	N	0.852843	0.423290	0.296740
	H10100	H	0.755841	0.391096	0.851069
	H10101	H	0.818209	0.328330	0.849620
	H10102	H	0.789057	0.357968	0.647911
	H10103	H	0.851474	0.295502	0.648364
	H10104	H	0.788971	0.358042	0.850580
	H10105	H	0.851473	0.295559	0.850236
	H10106	H	0.755776	0.390788	0.648778
	H10107	H	0.818449	0.328716	0.647527
	H10108	H	0.791208	0.321272	0.599566
	H10109	H	0.846237	0.413165	0.599599
	H10110	H	0.762551	0.271913	0.898111
	H10111	H	0.816616	0.364796	0.898492
	H10112	H	0.762442	0.271964	0.599934
	H10113	H	0.816537	0.365028	0.599894
	H10114	H	0.790896	0.321693	0.897792
	H10115	H	0.846336	0.413075	0.898921
	H10116	H	0.766322	0.379863	0.928188
	H10117	H	0.828710	0.317107	1.006778
	H10118	H	0.777863	0.368243	0.463539
	H10119	H	0.840724	0.306475	0.540855
	H10120	H	0.777874	0.368185	0.928749
	H10121	H	0.840335	0.305561	1.007102
	H10122	H	0.766213	0.379812	0.463960
	H10123	H	0.829183	0.318106	0.541001
	H10124	H	0.781240	0.305921	0.740564
	H10125	H	0.836961	0.397073	0.730548
	H10126	H	0.772303	0.287503	0.757197
	H10127	H	0.825676	0.381226	0.769323
	H10128	H	0.771376	0.288671	0.740263
	H10129	H	0.826719	0.380261	0.730178
	H10130	H	0.782168	0.304688	0.757885
	H10131	H	0.835973	0.397986	0.769307
	Co10132	Co	0.859588	0.434228	0.624364
	Co10133	Co	0.803713	0.343311	0.624119
	Co10134	Co	0.749934	0.250083	0.874221
	Co10135	Co	0.803645	0.343307	0.873381
	C10136	C	0.754687	0.392237	0.923698
	C10137	C	0.817146	0.329555	0.922374
	C10138	C	0.790180	0.356919	0.575043
	C10139	C	0.852642	0.294389	0.575631
	C10140	C	0.790168	0.356955	0.923076
	C10141	C	0.852655	0.294429	0.923050
	C10142	C	0.754671	0.392053	0.575996
	C10143	C	0.817266	0.329804	0.575155
	C10144	C	0.792045	0.322990	0.672527
	C10145	C	0.847222	0.414695	0.672837
	C10146	C	0.761593	0.270325	0.825238
	C10147	C	0.815624	0.363255	0.825520
	C10148	C	0.761527	0.270377	0.672839
	C10149	C	0.815573	0.363348	0.672768
	C10150	C	0.791906	0.323168	0.825154
	C10151	C	0.847267	0.414654	0.825635
	C10152	C	0.758815	0.388129	1.000062
	C10153	C	0.821323	0.325633	0.499396
	C10154	C	0.786099	0.361090	0.999540
	C10155	C	0.848560	0.298548	0.499566
	C10156	C	0.788462	0.316997	0.749011
	C10157	C	0.843546	0.408828	0.749363
	C10158	C	0.765083	0.276407	0.748847
	C10159	C	0.819212	0.369265	0.749248
	C10160	C	0.765728	0.381319	0.999897
	C10161	C	0.828194	0.318759	0.499539
	C10162	C	0.779149	0.367863	0.999876
	C10163	C	0.841657	0.305384	0.499668
	C10164	C	0.782536	0.306714	0.749350
	C10165	C	0.837358	0.398832	0.749719
	C10166	C	0.771021	0.286684	0.748947
	C10167	C	0.825363	0.379321	0.749332
	C10168	C	0.768967	0.377574	0.959892
	C10169	C	0.831436	0.314915	1.003370
	C10170	C	0.775481	0.370973	0.479036
	C10171	C	0.838239	0.308933	0.522891
	C10172	C	0.775524	0.370996	0.959879
	C10173	C	0.838010	0.308402	1.003786
	C10174	C	0.768930	0.377507	0.479244
	C10175	C	0.831664	0.315467	0.522693
	C10176	C	0.779304	0.301907	0.744202
	C10177	C	0.834532	0.393555	0.738655
	C10178	C	0.774253	0.291521	0.753720
	C10179	C	0.828160	0.384614	0.760487
	C10180	C	0.773717	0.292166	0.744189
	C10181	C	0.828695	0.384081	0.738594
	C10182	C	0.779846	0.301236	0.753940
	C10183	C	0.833966	0.394115	0.760577
	N10184	N	0.748683	0.398270	0.952628
	N10185	N	0.811110	0.335554	0.951397
	N10186	N	0.796218	0.350923	0.546020
	N10187	N	0.858674	0.288415	0.546687
	N10188	N	0.796190	0.350913	0.951643
	N10189	N	0.858717	0.288438	0.951965
	N10190	N	0.748660	0.398152	0.547302
	N10191	N	0.811222	0.335769	0.546304
	N10192	N	0.797205	0.331958	0.701184
	N10193	N	0.852682	0.423338	0.701626
	N10194	N	0.756379	0.261397	0.796546
	N10195	N	0.810290	0.354487	0.796562
	N10196	N	0.756352	0.261426	0.701921
	N10197	N	0.810263	0.354538	0.701414
	N10198	N	0.797111	0.332071	0.796008
	N10199	N	0.852721	0.423308	0.796470
	H10200	H	0.749008	0.544083	0.351564
	H10201	H	0.811494	0.481632	0.350415
	H10202	H	0.782779	0.511905	0.148321
	H10203	H	0.845155	0.449229	0.148879
	H10204	H	0.782911	0.512156	0.350203
	H10205	H	0.845337	0.449582	0.350751
	H10206	H	0.749083	0.544244	0.148732
	H10207	H	0.811546	0.481618	0.148178
	H10208	H	0.784051	0.475472	0.100348
	H10209	H	0.846682	0.557133	0.100048
	H10210	H	0.754228	0.427467	0.399203
	H10211	H	0.811502	0.516429	0.398918
	H10212	H	0.754117	0.427518	0.100037
	H10213	H	0.811455	0.516696	0.099854
	H10214	H	0.783726	0.475773	0.397876
	H10215	H	0.846328	0.557738	0.400299
	H10216	H	0.760122	0.533778	0.399140
	H10217	H	0.822277	0.470789	0.441663
	H10218	H	0.772793	0.524159	-0.040102
	H10219	H	0.834186	0.459835	0.019005
	H10220	H	0.771899	0.522553	0.399244
	H10221	H	0.834092	0.459591	0.441857
	H10222	H	0.760973	0.535335	-0.040292
	H10223	H	0.822411	0.471145	0.017287
	H10224	H	0.774583	0.459569	0.163608
	H10225	H	0.834990	0.544139	0.255433
	H10226	H	0.763432	0.443608	0.334662
	H10227	H	0.822675	0.530328	0.244426
	H10228	H	0.764244	0.442850	0.163771
	H10229	H	0.822805	0.529923	0.254399
	H10230	H	0.773839	0.460317	0.334252
	H10231	H	0.834880	0.544478	0.244734
	Co10232	Co	0.862526	0.574954	0.124689
	Co10233	Co	0.797141	0.496803	0.124377
	Co10234	Co	0.741195	0.405865	0.374397
	Co10235	Co	0.797094	0.496856	0.373723
	C10236	C	0.747850	0.545159	0.424111
	C10237	C	0.810368	0.482764	0.422729
	C10238	C	0.783887	0.510828	0.075494
	C10239	C	0.846325	0.448154	0.076285
	C10240	C	0.783926	0.510948	0.423208
	C10241	C	0.846385	0.448390	0.423417
	C10242	C	0.747921	0.545282	0.076279
	C10243	C	0.810419	0.482781	0.075069
	C10244	C	0.784966	0.477135	0.173018
	C10245	C	0.847781	0.558628	0.173322
	C10246	C	0.753161	0.425815	0.326357
	C10247	C	0.810366	0.515125	0.325747
	C10248	C	0.753118	0.425854	0.173063
	C10249	C	0.810320	0.515250	0.173032
	C10250	C	0.784804	0.477277	0.325206
	C10251	C	0.847601	0.558945	0.326842
	C10252	C	0.751995	0.541133	0.499857
	C10253	C	0.814562	0.478756	-0.001061
	C10254	C	0.779737	0.514860	0.499015
	C10255	C	0.842176	0.452226	0.000311
	C10256	C	0.781198	0.471295	0.248994
	C10257	C	0.843294	0.553896	0.250020
	C10258	C	0.756809	0.431835	0.249624
	C10259	C	0.814509	0.520423	0.249530
	C10260	C	0.759049	0.534520	0.499180
	C10261	C	0.821521	0.471990	-0.000737
	C10262	C	0.772742	0.521567	0.499195
	C10263	C	0.835175	0.458915	0.000162
	C10264	C	0.775015	0.461310	0.249232
	C10265	C	0.835933	0.545512	0.249923
	C10266	C	0.762978	0.441850	0.249644
	C10267	C	0.821756	0.528974	0.249562
	C10268	C	0.762598	0.531302	0.443083
	C10269	C	0.824923	0.468500	0.466643
	C10270	C	0.769761	0.525806	-0.023094
	C10271	C	0.831650	0.462277	0.010280
	C10272	C	0.769277	0.524976	0.442898
	C10273	C	0.831605	0.462176	0.466980
	C10274	C	0.763089	0.532134	-0.022698
	C10275	C	0.824984	0.468650	0.009565
	C10276	C	0.772135	0.456091	0.200991
	C10277	C	0.832323	0.541177	0.252774
	C10278	C	0.765849	0.447019	0.297231
	C10279	C	0.825373	0.533307	0.247012
	C10280	C	0.766274	0.446622	0.201400
	C10281	C	0.825439	0.533118	0.252460
	C10282	C	0.771707	0.456508	0.297006
	C10283	C	0.832262	0.541351	0.247014
	N10284	N	0.741761	0.551042	0.452956
	N10285	N	0.804331	0.488761	0.451523
	N10286	N	0.789969	0.504906	0.046850
	N10287	N	0.852406	0.442254	0.046821
	N10288	N	0.789977	0.504944	0.452194
	N10289	N	0.852420	0.442385	0.452251
	N10290	N	0.741839	0.551204	0.047327
	N10291	N	0.804383	0.488784	0.046075
	N10292	N	0.790377	0.485824	0.201997
	N10293	N	0.854223	0.565843	0.202252
	N10294	N	0.747811	0.417055	0.297301
	N10295	N	0.804193	0.507408	0.296499
	N10296	N	0.747767	0.417109	0.202161
	N10297	N	0.804179	0.507493	0.201589
	N10298	N	0.790271	0.485904	0.296681
	N10299	N	0.854110	0.566046	0.297690
	H10300	H	0.748920	0.543788	0.852207
	H10301	H	0.811578	0.481578	0.849783
	H10302	H	0.782637	0.511793	0.648148
	H10303	H	0.845131	0.449326	0.648285
	H10304	H	0.782722	0.511929	0.850475
	H10305	H	0.845078	0.449396	0.851107
	H10306	H	0.748901	0.543865	0.648506
	H10307	H	0.811557	0.481636	0.647309
	H10308	H	0.783909	0.475595	0.599787
	H10309	H	0.846515	0.557521	0.599277
	H10310	H	0.753951	0.427615	0.898560
	H10311	H	0.811512	0.516342	0.898716
	H10312	H	0.754253	0.427286	0.600399
	H10313	H	0.811515	0.516511	0.600081
	H10314	H	0.783865	0.475526	0.898513
	H10315	H	0.846550	0.557356	0.899957
	H10316	H	0.759018	0.531833	1.039765
	H10317	H	0.822542	0.471063	0.980793
	H10318	H	0.771681	0.522297	0.599422
	H10319	H	0.834441	0.460301	0.557000
	H10320	H	0.770812	0.520655	1.039013
	H10321	H	0.834294	0.459797	0.981144
	H10322	H	0.759905	0.533498	0.599525
	H10323	H	0.822596	0.471450	0.555753
	H10324	H	0.774051	0.459964	0.740009
	H10325	H	0.835460	0.543409	0.757922
	H10326	H	0.763860	0.443066	0.758053
	H10327	H	0.822169	0.531105	0.740126
	H10328	H	0.763657	0.443291	0.740273
	H10329	H	0.823381	0.529128	0.758204
	H10330	H	0.774255	0.459773	0.757672
	H10331	H	0.834337	0.545334	0.740956
	Co10332	Co	0.862516	0.575028	0.624828
	Co10333	Co	0.797104	0.496791	0.624903
	Co10334	Co	0.741177	0.405866	0.874610
	Co10335	Co	0.797102	0.496816	0.873863
	C10336	C	0.747835	0.545054	0.924172
	C10337	C	0.810418	0.482760	0.922476
	C10338	C	0.783783	0.510740	0.575304
	C10339	C	0.846281	0.448231	0.575695
	C10340	C	0.783859	0.510829	0.922972
	C10341	C	0.846287	0.448228	0.923743
	C10342	C	0.747798	0.545057	0.576104
	C10343	C	0.810388	0.482776	0.574888
	C10344	C	0.784861	0.477165	0.672624
	C10345	C	0.847727	0.558813	0.672635
	C10346	C	0.753041	0.425902	0.825791
	C10347	C	0.810369	0.515096	0.825431
	C10348	C	0.753202	0.425720	0.673260
	C10349	C	0.810376	0.515162	0.672767
	C10350	C	0.784852	0.477144	0.825608
	C10351	C	0.847744	0.558761	0.826501
	C10352	C	0.752009	0.541156	1.000428
	C10353	C	0.814497	0.478699	0.498705
	C10354	C	0.779737	0.514811	0.999098
	C10355	C	0.842181	0.452322	0.499517
	C10356	C	0.781173	0.471231	0.749013
	C10357	C	0.843322	0.553894	0.749485
	C10358	C	0.756764	0.431780	0.749455
	C10359	C	0.814543	0.520375	0.749262
	C10360	C	0.759023	0.534450	1.000098
	C10361	C	0.821498	0.472025	0.498651
	C10362	C	0.772714	0.521499	0.999199
	C10363	C	0.835197	0.459038	0.499512
	C10364	C	0.775000	0.461244	0.748719
	C10365	C	0.835962	0.545532	0.749364
	C10366	C	0.762925	0.441795	0.749533
	C10367	C	0.821783	0.528961	0.749209
	C10368	C	0.761997	0.530170	1.022223
	C10369	C	0.825041	0.468639	0.989014
	C10370	C	0.769169	0.524811	0.555533
	C10371	C	0.831780	0.462564	0.531574
	C10372	C	0.768662	0.523832	1.021522
	C10373	C	0.831699	0.462247	0.989378
	C10374	C	0.762502	0.531155	0.555695
	C10375	C	0.825104	0.468909	0.531161
	C10376	C	0.771823	0.456306	0.743857
	C10377	C	0.832622	0.540755	0.753922
	C10378	C	0.766079	0.446752	0.754244
	C10379	C	0.825107	0.533798	0.744236
	C10380	C	0.765946	0.446862	0.744214
	C10381	C	0.825741	0.532707	0.754333
	C10382	C	0.771955	0.456208	0.753893
	C10383	C	0.831972	0.541883	0.744599
	N10384	N	0.741779	0.551057	0.952764
	N10385	N	0.804387	0.488771	0.951348
	N10386	N	0.789859	0.504804	0.546840
	N10387	N	0.852368	0.442315	0.546910
	N10388	N	0.789968	0.504917	0.951944
	N10389	N	0.852370	0.442286	0.951972
	N10390	N	0.741722	0.550992	0.547304
	N10391	N	0.804348	0.488769	0.546198
	N10392	N	0.790248	0.485855	0.701594
	N10393	N	0.854206	0.565968	0.701894
	N10394	N	0.747730	0.417122	0.797166
	N10395	N	0.804183	0.507433	0.796456
	N10396	N	0.747818	0.416999	0.702409
	N10397	N	0.804194	0.507467	0.701626
	N10398	N	0.790251	0.485853	0.796645
	N10399	N	0.854223	0.565927	0.797340
	H10400	H	0.749032	0.680392	0.348531
	H10401	H	0.811638	0.617840	0.349605
	H10402	H	0.785853	0.652797	0.150583
	H10403	H	0.848331	0.590255	0.149699
	H10404	H	0.785583	0.652472	0.349093
	H10405	H	0.848330	0.590209	0.348778
	H10406	H	0.749096	0.680319	0.151307
	H10407	H	0.811513	0.617622	0.150344
	H10408	H	0.783987	0.619985	0.099185
	H10409	H	0.856483	0.618600	0.098127
	H10410	H	0.748921	0.579092	0.399535
	H10411	H	0.818399	0.641884	0.401227
	H10412	H	0.749081	0.578914	0.101806
	H10413	H	0.818465	0.641973	0.097511
	H10414	H	0.784134	0.619735	0.399808
	H10415	H	0.856574	0.619166	0.401386
	H10416	H	0.760392	0.669745	0.351687
	H10417	H	0.823179	0.607549	0.649104
	H10418	H	0.773535	0.661275	-0.148191
	H10419	H	0.835754	0.598207	0.147175
	H10420	H	0.773242	0.660807	0.351116
	H10421	H	0.835936	0.598553	0.648451
	H10422	H	0.760709	0.670212	-0.148405
	H10423	H	0.823023	0.607218	0.147920
	H10424	H	0.772162	0.607228	0.209042
	H10425	H	0.843594	0.625169	0.099298
	H10426	H	0.760382	0.592366	0.291021
	H10427	H	0.830902	0.634207	0.399372
	H10428	H	0.759954	0.593010	0.209204
	H10429	H	0.830953	0.634389	0.099121
	H10430	H	0.772591	0.606526	0.290502
	H10431	H	0.843493	0.625051	0.399837
	Co10432	Co	0.875075	0.624985	0.125723
	Co10433	Co	0.799975	0.637369	0.124817
	Co10434	Co	0.734593	0.559198	0.375069
	Co10435	Co	0.799945	0.637364	0.374639
	C10436	C	0.748094	0.681712	0.422701
	C10437	C	0.810686	0.619196	0.423700
	C10438	C	0.787022	0.651857	0.077097
	C10439	C	0.849535	0.589374	0.076272
	C10440	C	0.786879	0.651696	0.422511
	C10441	C	0.849519	0.589404	0.422653
	C10442	C	0.748178	0.681758	0.076923
	C10443	C	0.810638	0.619095	0.076450
	C10444	C	0.785140	0.621260	0.172683
	C10445	C	0.858057	0.618910	0.172101
	C10446	C	0.747758	0.577684	0.326845
	C10447	C	0.816884	0.642005	0.326899
	C10448	C	0.747834	0.577590	0.174474
	C10449	C	0.816896	0.642059	0.171860
	C10450	C	0.785222	0.621135	0.326172
	C10451	C	0.858074	0.619172	0.327085
	C10452	C	0.752068	0.677218	0.499598
	C10453	C	0.814638	0.614646	-0.000503
	C10454	C	0.782318	0.655009	0.499207
	C10455	C	0.844957	0.592661	-0.000615
	C10456	C	0.780735	0.616347	0.249494
	C10457	C	0.852808	0.619962	0.249408
	C10458	C	0.751922	0.582926	0.250604
	C10459	C	0.821995	0.640382	0.249257
	C10460	C	0.759388	0.670832	0.499288
	C10461	C	0.821935	0.608297	-0.000073
	C10462	C	0.774483	0.660213	0.499068
	C10463	C	0.837111	0.597793	-0.000559
	C10464	C	0.773375	0.607976	0.249819
	C10465	C	0.844730	0.624327	0.249314
	C10466	C	0.759170	0.591493	0.250359
	C10467	C	0.829859	0.635357	0.249142
	C10468	C	0.763204	0.667916	0.416944
	C10469	C	0.825863	0.605554	0.582925
	C10470	C	0.770745	0.663133	-0.082482
	C10471	C	0.833079	0.600292	0.081609
	C10472	C	0.770494	0.662759	0.416833
	C10473	C	0.833169	0.600426	0.582663
	C10474	C	0.763453	0.668294	-0.082603
	C10475	C	0.825749	0.605367	0.082143
	C10476	C	0.769590	0.603985	0.227028
	C10477	C	0.840880	0.627145	0.165945
	C10478	C	0.762935	0.595569	0.273040
	C10479	C	0.833631	0.632360	0.332695
	C10480	C	0.762698	0.595937	0.227431
	C10481	C	0.833655	0.632461	0.165764
	C10482	C	0.769826	0.603610	0.272642
	C10483	C	0.840865	0.627079	0.332870
	N10484	N	0.742565	0.688669	0.452180
	N10485	N	0.805074	0.626054	0.452040
	N10486	N	0.793700	0.646964	0.048089
	N10487	N	0.856209	0.584501	0.047685
	N10488	N	0.793625	0.646938	0.451206
	N10489	N	0.856226	0.584580	0.451111
	N10490	N	0.742579	0.688592	0.047648
	N10491	N	0.805098	0.626017	0.047546
	N10492	N	0.791645	0.628363	0.201914
	N10493	N	0.865922	0.618206	0.200876
	N10494	N	0.741611	0.569931	0.298047
	N10495	N	0.809165	0.643743	0.298398
	N10496	N	0.741651	0.569877	0.203108
	N10497	N	0.809178	0.643771	0.200443
	N10498	N	0.791699	0.628282	0.297066
	N10499	N	0.865927	0.618369	0.298342
	H10500	H	0.749169	0.680298	0.848683
	H10501	H	0.811756	0.618037	0.848332
	H10502	H	0.785764	0.652914	0.649960
	H10503	H	0.848422	0.590408	0.649683
	H10504	H	0.785810	0.652798	0.849371
	H10505	H	0.848308	0.590273	0.849111
	H10506	H	0.749106	0.680462	0.650914
	H10507	H	0.811558	0.617958	0.651916
	H10508	H	0.783917	0.620092	0.598274
	H10509	H	0.856399	0.618745	0.598256
	H10510	H	0.748979	0.579134	0.898658
	H10511	H	0.818377	0.642352	0.901979
	H10512	H	0.749062	0.578904	0.600469
	H10513	H	0.818362	0.642177	0.597905
	H10514	H	0.784206	0.619553	0.898549
	H10515	H	0.856441	0.619041	0.901570
	H10516	H	0.760520	0.669867	1.148177
	H10517	H	0.823052	0.607287	0.852022
	H10518	H	0.773262	0.660919	0.646995
	H10519	H	0.835696	0.598311	0.351077
	H10520	H	0.773344	0.660954	1.148362
	H10521	H	0.835906	0.598535	0.851732
	H10522	H	0.760505	0.669952	0.647033
	H10523	H	0.822948	0.607273	0.351375
	H10524	H	0.772557	0.606660	0.762366
	H10525	H	0.843431	0.625227	0.899591
	H10526	H	0.760090	0.592751	0.734645
	H10527	H	0.830778	0.634414	0.599533
	H10528	H	0.760378	0.592462	0.762947
	H10529	H	0.830831	0.634439	0.899865
	H10530	H	0.772335	0.606886	0.734894
	H10531	H	0.843414	0.625165	0.599643
	Co10532	Co	0.875025	0.624893	0.625402
	Co10533	Co	0.799954	0.637553	0.624787
	Co10534	Co	0.734637	0.559273	0.875012
	Co10535	Co	0.799944	0.637386	0.873867
	C10536	C	0.748242	0.681792	0.922852
	C10537	C	0.810753	0.619234	0.922397
	C10538	C	0.786959	0.651916	0.576086
	C10539	C	0.849581	0.589510	0.575744
	C10540	C	0.787002	0.651861	0.923284
	C10541	C	0.849534	0.589411	0.922501
	C10542	C	0.748166	0.681779	0.577027
	C10543	C	0.810639	0.619249	0.577475
	C10544	C	0.785124	0.621332	0.671831
	C10545	C	0.857938	0.618964	0.672491
	C10546	C	0.747827	0.577648	0.826009
	C10547	C	0.816844	0.642333	0.827359
	C10548	C	0.747856	0.577516	0.673329
	C10549	C	0.816838	0.642251	0.672515
	C10550	C	0.785261	0.621045	0.825377
	C10551	C	0.857948	0.619070	0.827233
	C10552	C	0.752171	0.677262	1.000002
	C10553	C	0.814633	0.614767	0.500801
	C10554	C	0.782456	0.655185	1.000338
	C10555	C	0.844934	0.592657	0.499240
	C10556	C	0.780762	0.616289	0.748607
	C10557	C	0.852722	0.620024	0.749821
	C10558	C	0.752044	0.582823	0.749497
	C10559	C	0.821936	0.640680	0.749910
	C10560	C	0.759524	0.670976	1.000008
	C10561	C	0.821932	0.608381	0.500447
	C10562	C	0.774634	0.660388	1.000233
	C10563	C	0.837074	0.597794	0.499646
	C10564	C	0.773455	0.607916	0.748893
	C10565	C	0.844619	0.624448	0.749623
	C10566	C	0.759246	0.591416	0.749098
	C10567	C	0.829783	0.635592	0.749746
	C10568	C	0.763325	0.668043	1.082559
	C10569	C	0.825820	0.605452	0.917717
	C10570	C	0.770524	0.662835	0.581461
	C10571	C	0.833022	0.600324	0.417308
	C10572	C	0.770616	0.662899	1.082853
	C10573	C	0.833140	0.600354	0.917403
	C10574	C	0.763243	0.667985	0.581508
	C10575	C	0.825718	0.605448	0.417375
	C10576	C	0.769870	0.603623	0.756519
	C10577	C	0.840745	0.627216	0.833025
	C10578	C	0.762816	0.595758	0.741041
	C10579	C	0.833537	0.632547	0.666257
	C10580	C	0.762947	0.595601	0.756658
	C10581	C	0.833565	0.632598	0.833016
	C10582	C	0.769734	0.603782	0.741087
	C10583	C	0.840723	0.627183	0.666181
	N10584	N	0.742633	0.688629	0.951683
	N10585	N	0.805153	0.626086	0.951319
	N10586	N	0.793667	0.647081	0.547625
	N10587	N	0.856265	0.584631	0.547468
	N10588	N	0.793680	0.646947	0.951515
	N10589	N	0.856197	0.584483	0.951219
	N10590	N	0.742579	0.688660	0.548039
	N10591	N	0.805058	0.626118	0.548247
	N10592	N	0.791587	0.628478	0.701258
	N10593	N	0.865801	0.618160	0.701061
	N10594	N	0.741693	0.569909	0.797425
	N10595	N	0.809094	0.643992	0.798898
	N10596	N	0.741725	0.569819	0.702517
	N10597	N	0.809100	0.643959	0.700841
	N10598	N	0.791678	0.628293	0.796366
	N10599	N	0.865801	0.618210	0.798709
	H10600	H	0.762253	0.731371	0.348048
	H10601	H	0.824953	0.669090	0.347720
	H10602	H	0.800171	0.705892	0.151402
	H10603	H	0.862658	0.643254	0.150584
	H10604	H	0.800052	0.705639	0.347888
	H10605	H	0.862842	0.643531	0.348282
	H10606	H	0.762481	0.731542	0.150721
	H10607	H	0.824811	0.668895	0.151083
	H10608	H	0.794069	0.681594	0.097501
	H10609	H	0.869203	0.670328	0.097517
	H10610	H	0.755896	0.704671	0.401647
	H10611	H	0.831125	0.693570	0.401920
	H10612	H	0.755894	0.704639	0.098306
	H10613	H	0.831165	0.693546	0.098657
	H10614	H	0.794015	0.681378	0.400763
	H10615	H	0.869174	0.670213	0.400801
	H10616	H	0.774700	0.722738	0.649607
	H10617	H	0.837269	0.660204	0.348863
	H10618	H	0.787768	0.714272	-0.150802
	H10619	H	0.850387	0.652138	0.149152
	H10620	H	0.787681	0.714445	0.649619
	H10621	H	0.850378	0.652080	0.348625
	H10622	H	0.774670	0.722542	-0.150848
	H10623	H	0.837363	0.660462	0.150019
	H10624	H	0.780971	0.687547	0.400223
	H10625	H	0.856725	0.677844	0.399418
	H10626	H	0.768506	0.697193	0.099075
	H10627	H	0.844147	0.687399	0.099693
	H10628	H	0.768374	0.696755	0.400660
	H10629	H	0.844086	0.687015	0.400105
	H10630	H	0.781065	0.687960	0.099009
	H10631	H	0.856789	0.678132	0.099261
	Co10632	Co	0.887613	0.674962	0.124376
	Co10633	Co	0.812577	0.687477	0.125433
	Co10634	Co	0.737435	0.700004	0.374399
	Co10635	Co	0.812567	0.687467	0.373643
	C10636	C	0.761347	0.732713	0.422433
	C10637	C	0.823899	0.670286	0.422017
	C10638	C	0.801211	0.704596	0.077034
	C10639	C	0.863684	0.642049	0.076423
	C10640	C	0.801152	0.704505	0.422297
	C10641	C	0.863803	0.642198	0.422631
	C10642	C	0.761366	0.732673	0.076227
	C10643	C	0.823840	0.670232	0.076686
	C10644	C	0.795522	0.681571	0.171938
	C10645	C	0.870735	0.670300	0.171682
	C10646	C	0.754378	0.704701	0.327356
	C10647	C	0.829614	0.693443	0.327545
	C10648	C	0.754405	0.704696	0.172760
	C10649	C	0.829618	0.693425	0.172660
	C10650	C	0.795528	0.681524	0.326534
	C10651	C	0.870705	0.670179	0.326225
	C10652	C	0.765685	0.728887	0.499351
	C10653	C	0.828218	0.666402	-0.000410
	C10654	C	0.796857	0.708412	0.499421
	C10655	C	0.859372	0.645903	-0.000729
	C10656	C	0.790313	0.682577	0.249311
	C10657	C	0.865645	0.671870	0.248827
	C10658	C	0.759491	0.703101	0.250174
	C10659	C	0.834850	0.692452	0.250000
	C10660	C	0.773458	0.723517	0.499456
	C10661	C	0.835994	0.661021	-0.000280
	C10662	C	0.789076	0.713841	0.499298
	C10663	C	0.851599	0.651288	-0.000901
	C10664	C	0.782203	0.687001	0.249558
	C10665	C	0.857784	0.676944	0.249014
	C10666	C	0.767363	0.698051	0.250014
	C10667	C	0.842928	0.688009	0.249800
	C10668	C	0.777485	0.721027	0.582695
	C10669	C	0.840053	0.658454	0.415686
	C10670	C	0.785034	0.716207	-0.083877
	C10671	C	0.847552	0.653831	0.082383
	C10672	C	0.784986	0.716343	0.582455
	C10673	C	0.847569	0.653796	0.415557
	C10674	C	0.777529	0.720880	-0.083889
	C10675	C	0.840056	0.658551	0.082912
	C10676	C	0.778312	0.689646	0.333444
	C10677	C	0.853990	0.679832	0.332743
	C10678	C	0.771157	0.695154	0.166090
	C10679	C	0.846816	0.685345	0.166294
	C10680	C	0.771094	0.694931	0.333631
	C10681	C	0.846787	0.685166	0.333074
	C10682	C	0.778359	0.689879	0.165932
	C10683	C	0.854015	0.680018	0.165994
	N10684	N	0.755238	0.738786	0.451169
	N10685	N	0.817777	0.676323	0.451013
	N10686	N	0.807348	0.698586	0.048067
	N10687	N	0.869836	0.636044	0.047792
	N10688	N	0.807297	0.698508	0.450873
	N10689	N	0.869901	0.636114	0.451506
	N10690	N	0.755233	0.738741	0.047486
	N10691	N	0.817702	0.676236	0.048108
	N10692	N	0.803386	0.680719	0.200402
	N10693	N	0.878454	0.668519	0.199942
	N10694	N	0.746641	0.706410	0.298900
	N10695	N	0.821741	0.694258	0.298595
	N10696	N	0.746657	0.706380	0.200813
	N10697	N	0.821753	0.694252	0.201081
	N10698	N	0.803411	0.680671	0.297915
	N10699	N	0.878461	0.668475	0.297896
	H10700	H	0.762467	0.731534	0.847358
	H10701	H	0.825007	0.669163	0.848258
	H10702	H	0.800210	0.705777	0.650797
	H10703	H	0.862548	0.643161	0.650937
	H10704	H	0.800179	0.705859	0.848477
	H10705	H	0.862794	0.643356	0.847783
	H10706	H	0.762495	0.731750	0.650600
	H10707	H	0.824900	0.668990	0.650616
	H10708	H	0.794058	0.681567	0.597649
	H10709	H	0.869169	0.670085	0.598398
	H10710	H	0.755989	0.704669	0.900836
	H10711	H	0.831154	0.693422	0.901286
	H10712	H	0.755861	0.704656	0.597717
	H10713	H	0.831128	0.693350	0.597579
	H10714	H	0.793936	0.681309	0.900793
	H10715	H	0.869227	0.670341	0.901810
	H10716	H	0.774776	0.723004	1.149873
	H10717	H	0.837227	0.660169	0.849601
	H10718	H	0.787801	0.714608	0.349018
	H10719	H	0.850298	0.652067	0.649421
	H10720	H	0.787854	0.714820	1.149679
	H10721	H	0.850264	0.651921	0.849230
	H10722	H	0.774770	0.722798	0.349649
	H10723	H	0.837226	0.660210	0.649459
	H10724	H	0.781018	0.687763	0.899522
	H10725	H	0.856641	0.677671	0.899747
	H10726	H	0.768406	0.696902	0.598607
	H10727	H	0.844115	0.686999	0.598664
	H10728	H	0.768358	0.696938	0.899462
	H10729	H	0.844072	0.687031	0.899421
	H10730	H	0.780955	0.687705	0.598673
	H10731	H	0.856749	0.677815	0.599495
	Co10732	Co	0.887611	0.674917	0.624966
	Co10733	Co	0.812569	0.687410	0.625488
	Co10734	Co	0.737533	0.700023	0.874310
	Co10735	Co	0.812576	0.687411	0.873925
	C10736	C	0.761349	0.732681	0.921852
	C10737	C	0.823919	0.670316	0.922559
	C10738	C	0.801196	0.704537	0.576430
	C10739	C	0.863632	0.641959	0.576544
	C10740	C	0.801189	0.704537	0.922923
	C10741	C	0.863727	0.642076	0.922337
	C10742	C	0.761451	0.732908	0.576281
	C10743	C	0.823875	0.670215	0.576363
	C10744	C	0.795527	0.681542	0.672141
	C10745	C	0.870707	0.670045	0.672796
	C10746	C	0.754432	0.704704	0.826662
	C10747	C	0.829594	0.693314	0.826996
	C10748	C	0.754388	0.704662	0.672060
	C10749	C	0.829584	0.693298	0.671981
	C10750	C	0.795493	0.681440	0.826677
	C10751	C	0.870736	0.670241	0.827518
	C10752	C	0.765676	0.728831	0.998870
	C10753	C	0.828211	0.666358	0.499147
	C10754	C	0.796895	0.708501	0.999890
	C10755	C	0.859385	0.645958	0.499388
	C10756	C	0.790286	0.682547	0.749486
	C10757	C	0.865614	0.671744	0.750056
	C10758	C	0.759485	0.703047	0.749315
	C10759	C	0.834840	0.692248	0.749358
	C10760	C	0.773455	0.723453	0.999348
	C10761	C	0.835992	0.660943	0.499178
	C10762	C	0.789081	0.713867	0.999467
	C10763	C	0.851608	0.651354	0.499109
	C10764	C	0.782174	0.686936	0.749221
	C10765	C	0.857750	0.676769	0.749688
	C10766	C	0.767337	0.697968	0.749217
	C10767	C	0.842926	0.687847	0.749152
	C10768	C	0.777534	0.721132	1.082951
	C10769	C	0.839988	0.658394	0.916650
	C10770	C	0.785055	0.716371	0.416047
	C10771	C	0.847531	0.653815	0.582489
	C10772	C	0.785067	0.716528	1.082603
	C10773	C	0.847506	0.653712	0.916169
	C10774	C	0.777524	0.720996	0.416313
	C10775	C	0.840007	0.658445	0.582577
	C10776	C	0.778299	0.689670	0.832764
	C10777	C	0.853958	0.679714	0.833169
	C10778	C	0.771114	0.695002	0.665445
	C10779	C	0.846767	0.685049	0.665755
	C10780	C	0.771089	0.694967	0.832831
	C10781	C	0.846755	0.685063	0.832776
	C10782	C	0.778314	0.689705	0.665584
	C10783	C	0.853996	0.679744	0.666019
	N10784	N	0.755240	0.738770	0.951017
	N10785	N	0.817786	0.676311	0.951371
	N10786	N	0.807330	0.698515	0.547725
	N10787	N	0.869816	0.636009	0.548147
	N10788	N	0.807316	0.698533	0.951601
	N10789	N	0.869893	0.636106	0.950947
	N10790	N	0.755322	0.738950	0.547778
	N10791	N	0.817784	0.676302	0.547758
	N10792	N	0.803383	0.680669	0.700818
	N10793	N	0.878454	0.668437	0.701080
	N10794	N	0.746680	0.706439	0.798718
	N10795	N	0.821738	0.694165	0.798286
	N10796	N	0.746660	0.706442	0.700687
	N10797	N	0.821732	0.694175	0.700812
	N10798	N	0.803369	0.680654	0.798405
	N10799	N	0.878467	0.668548	0.799133
	H10800	H	0.776854	0.784814	0.348407
	H10801	H	0.839331	0.722318	0.348876
	H10802	H	0.813576	0.757084	0.150264
	H10803	H	0.876202	0.694704	0.150720
	H10804	H	0.813551	0.757185	0.348835
	H10805	H	0.876056	0.694640	0.348989
	H10806	H	0.776841	0.784610	0.150515
	H10807	H	0.839522	0.722397	0.149962
	H10808	H	0.806701	0.732678	0.097589
	H10809	H	0.876126	0.795965	0.099630
	H10810	H	0.768547	0.755874	0.400761
	H10811	H	0.840893	0.755366	0.399689
	H10812	H	0.768549	0.755921	0.097734
	H10813	H	0.841019	0.755113	0.098998
	H10814	H	0.806683	0.733026	0.401093
	H10815	H	0.876087	0.795779	0.398359
	H10816	H	0.789323	0.776872	0.646862
	H10817	H	0.851734	0.713994	0.352005
	H10818	H	0.802160	0.767499	0.146537
	H10819	H	0.864569	0.705103	0.148012
	H10820	H	0.802159	0.767981	0.647188
	H10821	H	0.864436	0.704908	0.351766
	H10822	H	0.789364	0.776377	0.147648
	H10823	H	0.851848	0.714080	0.147231
	H10824	H	0.794124	0.740382	0.399592
	H10825	H	0.865265	0.781440	0.227613
	H10826	H	0.781679	0.750045	0.098640
	H10827	H	0.852177	0.769059	0.270155
	H10828	H	0.781450	0.749414	0.399195
	H10829	H	0.853041	0.767364	0.227713
	H10830	H	0.794335	0.740895	0.098820
	H10831	H	0.864417	0.783166	0.270303
	Co10832	Co	0.890440	0.815754	0.124981
	Co10833	Co	0.825092	0.737381	0.125184
	Co10834	Co	0.749987	0.749824	0.373402
	Co10835	Co	0.825116	0.737543	0.373954
	C10836	C	0.775586	0.785586	0.422279
	C10837	C	0.838113	0.723130	0.422533
	C10838	C	0.814472	0.755671	0.075936
	C10839	C	0.877097	0.693403	0.076881
	C10840	C	0.814450	0.755779	0.422912
	C10841	C	0.876914	0.693188	0.422571
	C10842	C	0.775624	0.785443	0.076879
	C10843	C	0.838206	0.723126	0.076433
	C10844	C	0.808222	0.732731	0.171583
	C10845	C	0.877264	0.797355	0.172699
	C10846	C	0.767024	0.755729	0.326715
	C10847	C	0.839782	0.753889	0.326209
	C10848	C	0.767003	0.755741	0.171702
	C10849	C	0.839834	0.753784	0.172514
	C10850	C	0.808207	0.732852	0.326354
	C10851	C	0.877238	0.797240	0.325549
	C10852	C	0.780113	0.782184	0.498966
	C10853	C	0.842718	0.719748	-0.000419
	C10854	C	0.810460	0.760241	0.499943
	C10855	C	0.873070	0.697799	0.000023
	C10856	C	0.803138	0.734517	0.248826
	C10857	C	0.873063	0.792032	0.248860
	C10858	C	0.772255	0.754760	0.249153
	C10859	C	0.844241	0.758683	0.249311
	C10860	C	0.787984	0.777083	0.499195
	C10861	C	0.850564	0.714607	-0.000677
	C10862	C	0.803119	0.766562	0.499592
	C10863	C	0.865750	0.704101	-0.000134
	C10864	C	0.795270	0.739555	0.249106
	C10865	C	0.865835	0.783462	0.248622
	C10866	C	0.780379	0.750466	0.249082
	C10867	C	0.851590	0.767019	0.249082
	C10868	C	0.792007	0.774757	0.581492
	C10869	C	0.854420	0.711963	0.417682
	C10870	C	0.799356	0.769330	0.081140
	C10871	C	0.861873	0.707024	0.082030
	C10872	C	0.799325	0.769657	0.581579
	C10873	C	0.861735	0.706849	0.417583
	C10874	C	0.792048	0.774431	0.081696
	C10875	C	0.854541	0.712087	0.081743
	C10876	C	0.791451	0.742383	0.332767
	C10877	C	0.862423	0.778789	0.236769
	C10878	C	0.784286	0.747871	0.165294
	C10879	C	0.855007	0.771709	0.260924
	C10880	C	0.784211	0.747608	0.332516
	C10881	C	0.855499	0.770786	0.237062
	C10882	C	0.791530	0.742627	0.165584
	C10883	C	0.861947	0.779683	0.260562
	N10884	N	0.768891	0.790419	0.451144
	N10885	N	0.831433	0.727994	0.451064
	N10886	N	0.820017	0.748735	0.047214
	N10887	N	0.882648	0.686501	0.047938
	N10888	N	0.820053	0.748934	0.451737
	N10889	N	0.882467	0.686305	0.451273
	N10890	N	0.768940	0.790325	0.047997
	N10891	N	0.831509	0.727974	0.048057
	N10892	N	0.815942	0.730939	0.200322
	N10893	N	0.883380	0.805051	0.201949
	N10894	N	0.759167	0.756532	0.298026
	N10895	N	0.833314	0.746730	0.297044
	N10896	N	0.759144	0.756545	0.200568
	N10897	N	0.833333	0.746670	0.201650
	N10898	N	0.815932	0.731052	0.298481
	N10899	N	0.883366	0.804976	0.297017
	H10900	H	0.776848	0.784575	0.849219
	H10901	H	0.839156	0.721855	0.849656
	H10902	H	0.813472	0.757059	0.650856
	H10903	H	0.875938	0.694474	0.650780
	H10904	H	0.813482	0.756917	0.847642
	H10905	H	0.876020	0.694550	0.848296
	H10906	H	0.776718	0.784465	0.649448
	H10907	H	0.839237	0.722073	0.650016
	H10908	H	0.806792	0.732729	0.597587
	H10909	H	0.876161	0.795990	0.599395
	H10910	H	0.768694	0.755930	0.901872
	H10911	H	0.840904	0.755390	0.899550
	H10912	H	0.768689	0.755989	0.598459
	H10913	H	0.841306	0.754650	0.599638
	H10914	H	0.806699	0.732519	0.900596
	H10915	H	0.875917	0.796119	0.898356
	H10916	H	0.789199	0.776288	0.852349
	H10917	H	0.851821	0.713889	0.851633
	H10918	H	0.801955	0.767222	0.351871
	H10919	H	0.864531	0.705112	0.647472
	H10920	H	0.801990	0.767312	0.851606
	H10921	H	0.864652	0.705019	0.851784
	H10922	H	0.789171	0.776167	0.351469
	H10923	H	0.851734	0.713993	0.647800
	H10924	H	0.794284	0.740535	0.599596
	H10925	H	0.864257	0.783247	0.646261
	H10926	H	0.781586	0.749374	0.900299
	H10927	H	0.853259	0.767256	0.852078
	H10928	H	0.781666	0.749630	0.599772
	H10929	H	0.852098	0.768963	0.646625
	H10930	H	0.794235	0.740167	0.900191
	H10931	H	0.865379	0.781552	0.850877
	Co10932	Co	0.890386	0.815780	0.624826
	Co10933	Co	0.825156	0.737465	0.624967
	Co10934	Co	0.750071	0.750006	0.874051
	Co10935	Co	0.825138	0.737365	0.874247
	C10936	C	0.775626	0.785410	0.923134
	C10937	C	0.838041	0.722846	0.923091
	C10938	C	0.814378	0.755666	0.576815
	C10939	C	0.876871	0.693133	0.576351
	C10940	C	0.814423	0.755539	0.921991
	C10941	C	0.876992	0.693263	0.923155
	C10942	C	0.775517	0.785410	0.575851
	C10943	C	0.838041	0.722996	0.576376
	C10944	C	0.808269	0.732645	0.672326
	C10945	C	0.877213	0.797376	0.672497
	C10946	C	0.767148	0.755817	0.827563
	C10947	C	0.839831	0.753823	0.826372
	C10948	C	0.767165	0.755838	0.673154
	C10949	C	0.840029	0.753464	0.673041
	C10950	C	0.808227	0.732497	0.826851
	C10951	C	0.877122	0.797445	0.825149
	C10952	C	0.780183	0.782128	1.000081
	C10953	C	0.842636	0.719755	0.499557
	C10954	C	0.810515	0.760114	0.998817
	C10955	C	0.872919	0.697659	0.499454
	C10956	C	0.803173	0.734199	0.749530
	C10957	C	0.872994	0.792170	0.748645
	C10958	C	0.772392	0.754777	0.750357
	C10959	C	0.844337	0.758541	0.749553
	C10960	C	0.788021	0.776993	0.999890
	C10961	C	0.850451	0.714559	0.499840
	C10962	C	0.803179	0.766418	0.999043
	C10963	C	0.865599	0.703956	0.499626
	C10964	C	0.795290	0.739211	0.749784
	C10965	C	0.865802	0.783561	0.748916
	C10966	C	0.780461	0.750292	0.750207
	C10967	C	0.851664	0.766947	0.749321
	C10968	C	0.791960	0.774357	0.917745
	C10969	C	0.854552	0.711996	0.917288
	C10970	C	0.799232	0.769258	0.417200
	C10971	C	0.861753	0.706891	0.581879
	C10972	C	0.799268	0.769253	0.917370
	C10973	C	0.861885	0.706925	0.917410
	C10974	C	0.791906	0.774346	0.417025
	C10975	C	0.854452	0.712040	0.582004
	C10976	C	0.791520	0.742282	0.666446
	C10977	C	0.861847	0.779752	0.691365
	C10978	C	0.784292	0.747432	0.833665
	C10979	C	0.855605	0.770732	0.806782
	C10980	C	0.784335	0.747639	0.666623
	C10981	C	0.854991	0.771654	0.691767
	C10982	C	0.791486	0.742072	0.833626
	C10983	C	0.862473	0.778819	0.806508
	N10984	N	0.768947	0.790301	0.951483
	N10985	N	0.831396	0.727792	0.951808
	N10986	N	0.820014	0.748855	0.547786
	N10987	N	0.882465	0.686298	0.547646
	N10988	N	0.820014	0.748701	0.951217
	N10989	N	0.882594	0.686412	0.951668
	N10990	N	0.768851	0.790338	0.547432
	N10991	N	0.831369	0.727906	0.547315
	N10992	N	0.816020	0.730932	0.700511
	N10993	N	0.883350	0.805129	0.701743
	N10994	N	0.759294	0.756706	0.798711
	N10995	N	0.833422	0.746546	0.797375
	N10996	N	0.759318	0.756720	0.701358
	N10997	N	0.833546	0.746353	0.702109
	N10998	N	0.816006	0.730829	0.798705
	N10999	N	0.883274	0.805184	0.796808
	H11000	H	0.779700	0.925478	0.350428
	H11001	H	0.842212	0.863049	0.350465
	H11002	H	0.813451	0.893435	0.149185
	H11003	H	0.876090	0.831113	0.149050
	H11004	H	0.813476	0.893430	0.350334
	H11005	H	0.876007	0.831028	0.350901
	H11006	H	0.779731	0.925563	0.148643
	H11007	H	0.842117	0.862807	0.148789
	H11008	H	0.813534	0.858389	0.100768
	H11009	H	0.870843	0.947771	0.100324
	H11010	H	0.778397	0.817802	0.400129
	H11011	H	0.841399	0.899183	0.399224
	H11012	H	0.778592	0.817492	0.100185
	H11013	H	0.840977	0.899676	0.100444
	H11014	H	0.813600	0.858454	0.399214
	H11015	H	0.871032	0.947526	0.398558
	H11016	H	0.791393	0.916324	0.518051
	H11017	H	0.852841	0.851805	0.503932
	H11018	H	0.802682	0.904283	-0.011224
	H11019	H	0.864990	0.841304	0.013385
	H11020	H	0.803253	0.905192	0.517807
	H11021	H	0.864672	0.840686	0.503780
	H11022	H	0.790836	0.915448	-0.011468
	H11023	H	0.853091	0.852402	0.013274
	H11024	H	0.802443	0.844548	0.283769
	H11025	H	0.861725	0.931394	0.256639
	H11026	H	0.790034	0.830953	0.214441
	H11027	H	0.850348	0.915732	0.242519
	H11028	H	0.790219	0.830472	0.284587
	H11029	H	0.851431	0.914625	0.257189
	H11030	H	0.802222	0.845067	0.214860
	H11031	H	0.860749	0.932391	0.242034
	Co11032	Co	0.883801	0.969279	0.125395
	Co11033	Co	0.827881	0.878254	0.125135
	Co11034	Co	0.762606	0.799994	0.374401
	Co11035	Co	0.827885	0.878253	0.374301
	C11036	C	0.778594	0.926655	0.423030
	C11037	C	0.841101	0.864218	0.423423
	C11038	C	0.814600	0.892295	0.076540
	C11039	C	0.877164	0.829959	0.076131
	C11040	C	0.814594	0.892326	0.423039
	C11041	C	0.877143	0.829863	0.423111
	C11042	C	0.778599	0.926698	0.076048
	C11043	C	0.841073	0.864060	0.075929
	C11044	C	0.814681	0.859825	0.173437
	C11045	C	0.871848	0.949303	0.173058
	C11046	C	0.777278	0.816351	0.326742
	C11047	C	0.840313	0.897697	0.325895
	C11048	C	0.777384	0.816179	0.173161
	C11049	C	0.840082	0.897959	0.173318
	C11050	C	0.814703	0.859873	0.326102
	C11051	C	0.871930	0.949167	0.325699
	C11052	C	0.782737	0.922675	0.499474
	C11053	C	0.845236	0.860164	-0.000290
	C11054	C	0.810509	0.896379	0.499403
	C11055	C	0.873018	0.833921	-0.000092
	C11056	C	0.810520	0.854588	0.249960
	C11057	C	0.868265	0.943258	0.249236
	C11058	C	0.781744	0.821189	0.250024
	C11059	C	0.843893	0.903730	0.249703
	C11060	C	0.789748	0.915978	0.499406
	C11061	C	0.852249	0.853476	-0.000314
	C11062	C	0.803486	0.903064	0.499240
	C11063	C	0.866001	0.840616	-0.000246
	C11064	C	0.803318	0.845979	0.249844
	C11065	C	0.862102	0.933232	0.249155
	C11066	C	0.789068	0.829580	0.249945
	C11067	C	0.850058	0.913758	0.249478
	C11068	C	0.793670	0.913369	0.509629
	C11069	C	0.855579	0.849778	0.502117
	C11070	C	0.800038	0.906544	-0.006299
	C11071	C	0.862414	0.843792	0.007496
	C11072	C	0.800351	0.907058	0.509653
	C11073	C	0.862279	0.843450	0.501813
	C11074	C	0.793342	0.912865	-0.006519
	C11075	C	0.855704	0.850053	0.007279
	C11076	C	0.799720	0.841599	0.269030
	C11077	C	0.859271	0.927920	0.253466
	C11078	C	0.792698	0.833885	0.230175
	C11079	C	0.852865	0.919078	0.245250
	C11080	C	0.792793	0.833613	0.269313
	C11081	C	0.853406	0.918482	0.253427
	C11082	C	0.799635	0.841856	0.230284
	C11083	C	0.858702	0.928542	0.245249
	N11084	N	0.772568	0.932657	0.452081
	N11085	N	0.835080	0.870222	0.452493
	N11086	N	0.820658	0.886358	0.047364
	N11087	N	0.883222	0.823979	0.047180
	N11088	N	0.820661	0.886329	0.452241
	N11089	N	0.883175	0.823855	0.452011
	N11090	N	0.772563	0.932677	0.046968
	N11091	N	0.835063	0.870136	0.047276
	N11092	N	0.820795	0.867605	0.201979
	N11093	N	0.877193	0.958074	0.202363
	N11094	N	0.770875	0.809078	0.297549
	N11095	N	0.834818	0.889081	0.297147
	N11096	N	0.770946	0.808980	0.202227
	N11097	N	0.834685	0.889258	0.202245
	N11098	N	0.820827	0.867638	0.296909
	N11099	N	0.877257	0.957992	0.297131
	H11100	H	0.779743	0.925461	0.851202
	H11101	H	0.842351	0.863348	0.850770
	H11102	H	0.813452	0.893515	0.648510
	H11103	H	0.875936	0.830902	0.648221
	H11104	H	0.813566	0.893611	0.851235
	H11105	H	0.875934	0.830887	0.850484
	H11106	H	0.779844	0.925615	0.648373
	H11107	H	0.842411	0.863244	0.648492
	H11108	H	0.813587	0.858449	0.600226
	H11109	H	0.870849	0.947804	0.600907
	H11110	H	0.778556	0.817739	0.899482
	H11111	H	0.841259	0.899479	0.899098
	H11112	H	0.778682	0.817558	0.599742
	H11113	H	0.841115	0.899518	0.600981
	H11114	H	0.813531	0.858582	0.899976
	H11115	H	0.871015	0.947477	0.899230
	H11116	H	0.790565	0.914804	1.011796
	H11117	H	0.853335	0.852844	0.985486
	H11118	H	0.801765	0.902627	0.481540
	H11119	H	0.865432	0.842324	0.494280
	H11120	H	0.802388	0.903642	1.011163
	H11121	H	0.865228	0.841770	0.985099
	H11122	H	0.789998	0.913819	0.481541
	H11123	H	0.853603	0.853431	0.494655
	H11124	H	0.802307	0.844995	0.735130
	H11125	H	0.861601	0.931574	0.743674
	H11126	H	0.790151	0.830555	0.764246
	H11127	H	0.850550	0.915550	0.755866
	H11128	H	0.790106	0.830861	0.735093
	H11129	H	0.851271	0.914843	0.744233
	H11130	H	0.802331	0.844790	0.764447
	H11131	H	0.860903	0.932214	0.755944
	Co11132	Co	0.883755	0.969358	0.625735
	Co11133	Co	0.827848	0.878317	0.625447
	Co11134	Co	0.762665	0.799906	0.874111
	Co11135	Co	0.827916	0.878387	0.874851
	C11136	C	0.778605	0.926637	0.923763
	C11137	C	0.841193	0.864354	0.923646
	C11138	C	0.814604	0.892379	0.575735
	C11139	C	0.877105	0.829798	0.575704
	C11140	C	0.814656	0.892395	0.924023
	C11141	C	0.877098	0.829854	0.923609
	C11142	C	0.778675	0.926729	0.575848
	C11143	C	0.841176	0.864347	0.576121
	C11144	C	0.814711	0.859892	0.673606
	C11145	C	0.871834	0.949360	0.673976
	C11146	C	0.777368	0.816243	0.826500
	C11147	C	0.840202	0.897939	0.826599
	C11148	C	0.777422	0.816178	0.672921
	C11149	C	0.840107	0.897953	0.673825
	C11150	C	0.814675	0.859950	0.826853
	C11151	C	0.871934	0.949226	0.826648
	C11152	C	0.782741	0.922616	0.999940
	C11153	C	0.845262	0.860218	0.499827
	C11154	C	0.810453	0.896381	1.000340
	C11155	C	0.872992	0.833891	0.499415
	C11156	C	0.810502	0.854643	0.750243
	C11157	C	0.868261	0.943302	0.750262
	C11158	C	0.781792	0.821137	0.749837
	C11159	C	0.843828	0.903860	0.750099
	C11160	C	0.789746	0.915962	0.999906
	C11161	C	0.852273	0.853543	0.499722
	C11162	C	0.803470	0.903063	1.000222
	C11163	C	0.866017	0.840601	0.499233
	C11164	C	0.803295	0.846043	0.749950
	C11165	C	0.862096	0.933299	0.750219
	C11166	C	0.789120	0.829532	0.749931
	C11167	C	0.850028	0.913808	0.750070
	C11168	C	0.793199	0.912492	1.006532
	C11169	C	0.855845	0.850326	0.991474
	C11170	C	0.799540	0.905654	0.489097
	C11171	C	0.862728	0.844373	0.496775
	C11172	C	0.799902	0.906183	1.006347
	C11173	C	0.862571	0.844089	0.991622
	C11174	C	0.792847	0.911940	0.489482
	C11175	C	0.856005	0.850651	0.497000
	C11176	C	0.799657	0.841871	0.741658
	C11177	C	0.859191	0.928098	0.746509
	C11178	C	0.792757	0.833682	0.758160
	C11179	C	0.852951	0.919001	0.753529
	C11180	C	0.792772	0.833820	0.741453
	C11181	C	0.853330	0.918622	0.746590
	C11182	C	0.799656	0.841725	0.758284
	C11183	C	0.858809	0.928469	0.753472
	N11184	N	0.772566	0.932615	0.952498
	N11185	N	0.835128	0.870310	0.952587
	N11186	N	0.820682	0.886410	0.547014
	N11187	N	0.883149	0.823824	0.546649
	N11188	N	0.820685	0.886422	0.952953
	N11189	N	0.883179	0.823932	0.952388
	N11190	N	0.772602	0.932669	0.546959
	N11191	N	0.835097	0.870275	0.547487
	N11192	N	0.820841	0.867640	0.702763
	N11193	N	0.877156	0.958131	0.702707
	N11194	N	0.770935	0.809020	0.797402
	N11195	N	0.834745	0.889296	0.797650
	N11196	N	0.770949	0.808979	0.702054
	N11197	N	0.834684	0.889285	0.702579
	N11198	N	0.820818	0.867660	0.797944
	N11199	N	0.877201	0.958062	0.797742
	H11200	H	0.889575	0.110419	0.351523
	H11201	H	0.952098	0.047699	0.352656
	H11202	H	0.922564	0.077155	0.148403
	H11203	H	0.985540	0.015180	0.150116
	H11204	H	0.922838	0.077120	0.350076
	H11205	H	0.985157	0.014701	0.353402
	H11206	H	0.889565	0.110409	0.148123
	H11207	H	0.952025	0.047836	0.149947
	H11208	H	0.924878	0.040687	0.100905
	H11209	H	0.978294	0.134227	0.100346
	H11210	H	0.896377	-0.008730	0.399217
	H11211	H	0.950417	0.084214	0.398929
	H11212	H	0.896414	-0.008799	0.100457
	H11213	H	0.949573	0.084922	0.100571
	H11214	H	0.925036	0.040546	0.399605
	H11215	H	0.978810	0.133764	0.399041
	H11216	H	0.900386	0.099710	0.486776
	H11217	H	0.962569	0.036537	0.484485
	H11218	H	0.911827	0.087871	0.044077
	H11219	H	0.974328	0.025241	-0.101082
	H11220	H	0.912020	0.088175	0.485903
	H11221	H	0.974143	0.024978	0.485129
	H11222	H	0.900232	0.099490	0.044017
	H11223	H	0.962678	0.036692	-0.101477
	H11224	H	0.915744	0.024455	0.261941
	H11225	H	0.969553	0.117639	0.157632
	H11226	H	0.905475	0.007550	0.237211
	H11227	H	0.959073	0.100952	0.341449
	H11228	H	0.905742	0.007339	0.261617
	H11229	H	0.959541	0.100529	0.157318
	H11230	H	0.915498	0.024609	0.238024
	H11231	H	0.968990	0.118081	0.341565
	Co11232	Co	0.991167	0.155923	0.125517
	Co11233	Co	0.937370	0.062664	0.125811
	Co11234	Co	0.883804	-0.030739	0.374907
	Co11235	Co	0.937544	0.062582	0.375134
	C11236	C	0.888431	0.111489	0.423891
	C11237	C	0.950960	0.048839	0.425324
	C11238	C	0.923795	0.076111	0.075931
	C11239	C	0.986516	0.013887	0.077675
	C11240	C	0.923915	0.076130	0.423131
	C11241	C	0.986377	0.013668	0.425690
	C11242	C	0.888413	0.111563	0.075915
	C11243	C	0.950912	0.049008	0.077336
	C11244	C	0.925843	0.042319	0.173869
	C11245	C	0.979409	0.135704	0.173313
	C11246	C	0.895424	-0.010392	0.326206
	C11247	C	0.949305	0.082767	0.326168
	C11248	C	0.895454	-0.010435	0.173594
	C11249	C	0.948870	0.083082	0.173542
	C11250	C	0.925918	0.042245	0.326555
	C11251	C	0.979662	0.135468	0.325899
	C11252	C	0.892493	0.107383	0.499809
	C11253	C	0.955040	0.044939	0.001317
	C11254	C	0.919808	0.080274	0.498986
	C11255	C	0.982320	0.017808	0.001444
	C11256	C	0.922360	0.036194	0.250200
	C11257	C	0.976021	0.129515	0.249597
	C11258	C	0.898917	-0.004277	0.249734
	C11259	C	0.952582	0.089042	0.249712
	C11260	C	0.899408	0.100501	0.499468
	C11261	C	0.961957	0.038076	0.001464
	C11262	C	0.912894	0.087166	0.498951
	C11263	C	0.975439	0.024710	0.001370
	C11264	C	0.916440	0.025925	0.250319
	C11265	C	0.970036	0.119292	0.249449
	C11266	C	0.904818	0.006014	0.249722
	C11267	C	0.958468	0.099347	0.249504
	C11268	C	0.902890	0.097157	0.492291
	C11269	C	0.965231	0.034304	0.492444
	C11270	C	0.909368	0.090505	0.024534
	C11271	C	0.971897	0.027919	-0.056289
	C11272	C	0.909483	0.090690	0.492058
	C11273	C	0.971780	0.027761	0.492440
	C11274	C	0.902776	0.097032	0.024629
	C11275	C	0.965305	0.034401	-0.056309
	C11276	C	0.913519	0.020781	0.256832
	C11277	C	0.967207	0.114029	0.197983
	C11278	C	0.907719	0.011200	0.243237
	C11279	C	0.961297	0.104605	0.300942
	C11280	C	0.907858	0.011113	0.256606
	C11281	C	0.961590	0.104319	0.198012
	C11282	C	0.913377	0.020878	0.243440
	C11283	C	0.966931	0.114284	0.301033
	N11284	N	0.882360	0.117457	0.452685
	N11285	N	0.944912	0.054859	0.453641
	N11286	N	0.929846	0.070152	0.047257
	N11287	N	0.992471	0.007756	0.048742
	N11288	N	0.929982	0.070177	0.452531
	N11289	N	0.992438	0.007698	0.454075
	N11290	N	0.882391	0.117562	0.047117
	N11291	N	0.944909	0.055045	0.048086
	N11292	N	0.931005	0.051249	0.202895
	N11293	N	0.984661	0.144578	0.202230
	N11294	N	0.890330	-0.019432	0.297584
	N11295	N	0.944132	0.073795	0.297714
	N11296	N	0.890339	-0.019432	0.202627
	N11297	N	0.943837	0.074020	0.202808
	N11298	N	0.931038	0.051248	0.297815
	N11299	N	0.984819	0.144452	0.297024
	H11300	H	0.889497	0.110334	0.851355
	H11301	H	0.952122	0.047818	0.852298
	H11302	H	0.922716	0.077196	0.648100
	H11303	H	0.985479	0.015157	0.650166
	H11304	H	0.922899	0.077573	0.850719
	H11305	H	0.985071	0.014408	0.853442
	H11306	H	0.889421	0.110066	0.647957
	H11307	H	0.952084	0.047899	0.650588
	H11308	H	0.924987	0.040669	0.601519
	H11309	H	0.978803	0.133794	0.601056
	H11310	H	0.896366	-0.008698	0.898924
	H11311	H	0.950072	0.084662	0.899926
	H11312	H	0.896353	-0.008752	0.600884
	H11313	H	0.949972	0.084615	0.601879
	H11314	H	0.924922	0.040658	0.900186
	H11315	H	0.978286	0.134327	0.899273
	H11316	H	0.900446	0.099841	0.955223
	H11317	H	0.963032	0.037546	1.104632
	H11318	H	0.912003	0.088009	0.510872
	H11319	H	0.974832	0.026076	0.519319
	H11320	H	0.912121	0.088404	0.954972
	H11321	H	0.974664	0.026052	1.103963
	H11322	H	0.900308	0.099417	0.511747
	H11323	H	0.963206	0.037649	0.518864
	H11324	H	0.915425	0.024757	0.791251
	H11325	H	0.969843	0.117373	0.685981
	H11326	H	0.905804	0.007239	0.707801
	H11327	H	0.958759	0.101346	0.814454
	H11328	H	0.905542	0.007608	0.790719
	H11329	H	0.959914	0.100191	0.685540
	H11330	H	0.915827	0.024312	0.708975
	H11331	H	0.968698	0.118447	0.814287
	Co11332	Co	0.991226	0.155853	0.625604
	Co11333	Co	0.937447	0.062659	0.625688
	Co11334	Co	0.883772	-0.030728	0.874843
	Co11335	Co	0.937475	0.062668	0.875370
	C11336	C	0.888373	0.111511	0.923551
	C11337	C	0.950984	0.049001	0.924826
	C11338	C	0.923871	0.076188	0.575490
	C11339	C	0.986513	0.013884	0.577376
	C11340	C	0.923945	0.076312	0.923472
	C11341	C	0.986289	0.013490	0.925426
	C11342	C	0.888348	0.111332	0.575807
	C11343	C	0.950927	0.048923	0.577831
	C11344	C	0.925922	0.042286	0.674381
	C11345	C	0.979599	0.135556	0.673978
	C11346	C	0.895402	-0.010406	0.826274
	C11347	C	0.949070	0.082968	0.827162
	C11348	C	0.895391	-0.010416	0.673711
	C11349	C	0.949044	0.082955	0.674488
	C11350	C	0.925899	0.042282	0.827091
	C11351	C	0.979357	0.135825	0.826356
	C11352	C	0.892505	0.107422	0.999733
	C11353	C	0.955030	0.044837	0.501923
	C11354	C	0.919747	0.080309	0.999708
	C11355	C	0.982345	0.017803	0.501657
	C11356	C	0.922412	0.036143	0.750577
	C11357	C	0.975990	0.129590	0.750146
	C11358	C	0.898907	-0.004288	0.749685
	C11359	C	0.952613	0.089034	0.750703
	C11360	C	0.899396	0.100560	0.999886
	C11361	C	0.961963	0.038034	0.502137
	C11362	C	0.912861	0.087168	0.999607
	C11363	C	0.975423	0.024654	0.502039
	C11364	C	0.916461	0.025926	0.750333
	C11365	C	0.970081	0.119304	0.750145
	C11366	C	0.904832	0.005960	0.749376
	C11367	C	0.958525	0.099308	0.750335
	C11368	C	0.902931	0.097269	0.974954
	C11369	C	0.965485	0.034855	1.059145
	C11370	C	0.909427	0.090514	0.506076
	C11371	C	0.972156	0.028373	0.511782
	C11372	C	0.909508	0.090719	0.974789
	C11373	C	0.972071	0.028361	1.059191
	C11374	C	0.902847	0.096999	0.506246
	C11375	C	0.965598	0.034911	0.511809
	C11376	C	0.913357	0.020899	0.773168
	C11377	C	0.967418	0.113829	0.713919
	C11378	C	0.907919	0.010979	0.726431
	C11379	C	0.961166	0.104741	0.786394
	C11380	C	0.907711	0.011201	0.772593
	C11381	C	0.961792	0.104111	0.713853
	C11382	C	0.913544	0.020715	0.726719
	C11383	C	0.966794	0.114444	0.786317
	N11384	N	0.882368	0.117530	0.952430
	N11385	N	0.944959	0.055053	0.953531
	N11386	N	0.929939	0.070207	0.547099
	N11387	N	0.992534	0.007863	0.548533
	N11388	N	0.929912	0.070235	0.952609
	N11389	N	0.992354	0.007543	0.954460
	N11390	N	0.882343	0.117403	0.547195
	N11391	N	0.944881	0.054912	0.548472
	N11392	N	0.931038	0.051275	0.703328
	N11393	N	0.984688	0.144604	0.702925
	N11394	N	0.890263	-0.019368	0.797681
	N11395	N	0.943902	0.074037	0.798422
	N11396	N	0.890240	-0.019370	0.702860
	N11397	N	0.943874	0.074012	0.703484
	N11398	N	0.931030	0.051273	0.798290
	N11399	N	0.984550	0.144737	0.797878
	H11400	H	0.880909	0.266256	0.350383
	H11401	H	0.943273	0.203544	0.350914
	H11402	H	0.913787	0.232708	0.147015
	H11403	H	0.976275	0.170123	0.149197
	H11404	H	0.914017	0.232939	0.350391
	H11405	H	0.976799	0.170998	0.351278
	H11406	H	0.880901	0.266128	0.147551
	H11407	H	0.943374	0.203730	0.149688
	H11408	H	0.915851	0.196437	0.100769
	H11409	H	0.971267	0.287924	0.100892
	H11410	H	0.887654	0.146775	0.398652
	H11411	H	0.941443	0.239839	0.399015
	H11412	H	0.887353	0.147006	0.100798
	H11413	H	0.941559	0.239729	0.100413
	H11414	H	0.916130	0.196166	0.399098
	H11415	H	0.971312	0.287968	0.399552
	H11416	H	0.891757	0.255596	0.447290
	H11417	H	0.954433	0.193492	0.545391
	H11418	H	0.903090	0.243455	0.046724
	H11419	H	0.966018	0.181951	0.010285
	H11420	H	0.903350	0.244001	0.447350
	H11421	H	0.966103	0.181956	0.545320
	H11422	H	0.891520	0.255111	0.046610
	H11423	H	0.954443	0.193574	0.010120
	H11424	H	0.906885	0.180036	0.294495
	H11425	H	0.961818	0.272096	0.206140
	H11426	H	0.896530	0.163284	0.206237
	H11427	H	0.950903	0.255812	0.294383
	H11428	H	0.896984	0.162850	0.294086
	H11429	H	0.951511	0.255363	0.205859
	H11430	H	0.906395	0.180507	0.206234
	H11431	H	0.961185	0.272598	0.295059
	Co11432	Co	0.984537	0.309248	0.125125
	Co11433	Co	0.928595	0.218326	0.125415
	Co11434	Co	0.874916	0.124992	0.374515
	Co11435	Co	0.928653	0.218256	0.374763
	C11436	C	0.879682	0.267287	0.422675
	C11437	C	0.942133	0.204600	0.423753
	C11438	C	0.915033	0.231702	0.075157
	C11439	C	0.977517	0.169231	0.076547
	C11440	C	0.915127	0.231873	0.423291
	C11441	C	0.977847	0.169688	0.423972
	C11442	C	0.879732	0.267203	0.075126
	C11443	C	0.942198	0.204836	0.076881
	C11444	C	0.916864	0.198091	0.173743
	C11445	C	0.972288	0.289566	0.173886
	C11446	C	0.886600	0.145219	0.325937
	C11447	C	0.940489	0.238268	0.325958
	C11448	C	0.886456	0.145343	0.173470
	C11449	C	0.940547	0.238183	0.173609
	C11450	C	0.916999	0.197938	0.326431
	C11451	C	0.972316	0.289592	0.326705
	C11452	C	0.883763	0.263089	0.498734
	C11453	C	0.946272	0.200691	0.000550
	C11454	C	0.911024	0.236035	0.499109
	C11455	C	0.973466	0.173488	0.000592
	C11456	C	0.913415	0.191922	0.250129
	C11457	C	0.968614	0.283676	0.250291
	C11458	C	0.890052	0.151408	0.249630
	C11459	C	0.944161	0.244232	0.249618
	C11460	C	0.890680	0.256241	0.498289
	C11461	C	0.953158	0.193799	0.000727
	C11462	C	0.904161	0.242934	0.498459
	C11463	C	0.966565	0.180349	0.000674
	C11464	C	0.907476	0.181702	0.250287
	C11465	C	0.962394	0.273719	0.250226
	C11466	C	0.895979	0.161645	0.249786
	C11467	C	0.950344	0.254224	0.249746
	C11468	C	0.894189	0.252964	0.469229
	C11469	C	0.956836	0.190640	0.525412
	C11470	C	0.900586	0.246026	0.025697
	C11471	C	0.963339	0.184170	0.006061
	C11472	C	0.900774	0.246455	0.469573
	C11473	C	0.963443	0.184194	0.525558
	C11474	C	0.894061	0.252623	0.025481
	C11475	C	0.956777	0.190726	0.006141
	C11476	C	0.904656	0.176393	0.275055
	C11477	C	0.959441	0.268553	0.225429
	C11478	C	0.898783	0.166934	0.225237
	C11479	C	0.953274	0.259371	0.274655
	C11480	C	0.899048	0.166646	0.274749
	C11481	C	0.953596	0.259066	0.225186
	C11482	C	0.904385	0.176680	0.225491
	C11483	C	0.959119	0.268861	0.275055
	N11484	N	0.873633	0.273221	0.452094
	N11485	N	0.936102	0.210641	0.452662
	N11486	N	0.921138	0.225798	0.046550
	N11487	N	0.983631	0.163401	0.047462
	N11488	N	0.921145	0.225873	0.452701
	N11489	N	0.983856	0.163608	0.452638
	N11490	N	0.873689	0.273203	0.046638
	N11491	N	0.936130	0.210760	0.047837
	N11492	N	0.922032	0.207035	0.202646
	N11493	N	0.977730	0.298248	0.202387
	N11494	N	0.881430	0.136291	0.297140
	N11495	N	0.935177	0.229477	0.297146
	N11496	N	0.881341	0.136386	0.202451
	N11497	N	0.935204	0.229443	0.202649
	N11498	N	0.922102	0.206944	0.297788
	N11499	N	0.977735	0.298275	0.297699
	H11500	H	0.880652	0.265847	0.850695
	H11501	H	0.943190	0.203307	0.851337
	H11502	H	0.913957	0.233072	0.648367
	H11503	H	0.976451	0.170354	0.649300
	H11504	H	0.914062	0.232889	0.850814
	H11505	H	0.976663	0.170969	0.852214
	H11506	H	0.880762	0.265858	0.647367
	H11507	H	0.943241	0.203507	0.649237
	H11508	H	0.915931	0.196381	0.601002
	H11509	H	0.971286	0.287930	0.600056
	H11510	H	0.887387	0.146964	0.899193
	H11511	H	0.941603	0.239846	0.899247
	H11512	H	0.887588	0.146861	0.600484
	H11513	H	0.941325	0.240139	0.599916
	H11514	H	0.915992	0.196382	0.899189
	H11515	H	0.971208	0.288047	0.899017
	H11516	H	0.891617	0.255323	0.949762
	H11517	H	0.953725	0.192236	0.991438
	H11518	H	0.903157	0.243671	0.549568
	H11519	H	0.965398	0.180721	0.455283
	H11520	H	0.903220	0.243719	0.950311
	H11521	H	0.965343	0.180618	0.991620
	H11522	H	0.891493	0.255090	0.549865
	H11523	H	0.953681	0.192179	0.455465
	H11524	H	0.906672	0.180251	0.837011
	H11525	H	0.962126	0.271772	0.667249
	H11526	H	0.896653	0.163182	0.663182
	H11527	H	0.950645	0.256181	0.831815
	H11528	H	0.896821	0.163009	0.837072
	H11529	H	0.951726	0.255124	0.667640
	H11530	H	0.906543	0.180414	0.663932
	H11531	H	0.961018	0.272847	0.832025
	Co11532	Co	0.984578	0.309217	0.625011
	Co11533	Co	0.928573	0.218301	0.625328
	Co11534	Co	0.874846	0.125089	0.874413
	Co11535	Co	0.928681	0.218275	0.874466
	C11536	C	0.879607	0.267059	0.922699
	C11537	C	0.942094	0.204610	0.924066
	C11538	C	0.915094	0.231962	0.575727
	C11539	C	0.977682	0.169394	0.576640
	C11540	C	0.915146	0.231801	0.923065
	C11541	C	0.977717	0.169657	0.924499
	C11542	C	0.879629	0.267086	0.575293
	C11543	C	0.942120	0.204597	0.576239
	C11544	C	0.916885	0.198052	0.673809
	C11545	C	0.972317	0.289565	0.672946
	C11546	C	0.886461	0.145308	0.826263
	C11547	C	0.940567	0.238280	0.825972
	C11548	C	0.886548	0.145274	0.673363
	C11549	C	0.940415	0.238429	0.672858
	C11550	C	0.916929	0.198057	0.826516
	C11551	C	0.972268	0.289644	0.826138
	C11552	C	0.883754	0.263049	0.998688
	C11553	C	0.946184	0.200491	0.500020
	C11554	C	0.910993	0.235811	0.999024
	C11555	C	0.973657	0.173610	0.500367
	C11556	C	0.913325	0.192038	0.750224
	C11557	C	0.968648	0.283659	0.749664
	C11558	C	0.889989	0.151435	0.750008
	C11559	C	0.944125	0.244327	0.749360
	C11560	C	0.890657	0.256140	0.998318
	C11561	C	0.953152	0.193669	0.500098
	C11562	C	0.904066	0.242639	0.998566
	C11563	C	0.966711	0.180460	0.500406
	C11564	C	0.907404	0.181777	0.750386
	C11565	C	0.962429	0.273729	0.749663
	C11566	C	0.895935	0.161685	0.750180
	C11567	C	0.950309	0.254303	0.749398
	C11568	C	0.894121	0.252746	0.971129
	C11569	C	0.956397	0.189996	0.995418
	C11570	C	0.900650	0.246234	0.527150
	C11571	C	0.963043	0.183475	0.475014
	C11572	C	0.900669	0.246165	0.971251
	C11573	C	0.962949	0.183417	0.995469
	C11574	C	0.894071	0.252733	0.527078
	C11575	C	0.956430	0.189923	0.475009
	C11576	C	0.904498	0.176565	0.798934
	C11577	C	0.959623	0.268459	0.703401
	C11578	C	0.898855	0.166853	0.701515
	C11579	C	0.953113	0.259583	0.795462
	C11580	C	0.898936	0.166794	0.798745
	C11581	C	0.953738	0.259004	0.703475
	C11582	C	0.904428	0.176626	0.701670
	C11583	C	0.959021	0.269008	0.795896
	N11584	N	0.873614	0.273119	0.952027
	N11585	N	0.936081	0.210634	0.952907
	N11586	N	0.921122	0.225918	0.547104
	N11587	N	0.983757	0.163447	0.547530
	N11588	N	0.921180	0.225838	0.952015
	N11589	N	0.983744	0.163635	0.952990
	N11590	N	0.873597	0.273081	0.546670
	N11591	N	0.936083	0.210624	0.547373
	N11592	N	0.922119	0.206952	0.702562
	N11593	N	0.977681	0.298293	0.701857
	N11594	N	0.881344	0.136349	0.797184
	N11595	N	0.935248	0.229496	0.796947
	N11596	N	0.881393	0.136293	0.702143
	N11597	N	0.935154	0.229596	0.701926
	N11598	N	0.922131	0.206980	0.797655
	N11599	N	0.977658	0.298331	0.797113
	H11600	H	0.874120	0.419398	0.350055
	H11601	H	0.936511	0.356276	0.351738
	H11602	H	0.907652	0.386780	0.147842
	H11603	H	0.970062	0.324002	0.147945
	H11604	H	0.907789	0.386827	0.349571
	H11605	H	0.970367	0.324602	0.351287
	H11606	H	0.874126	0.419188	0.147370
	H11607	H	0.936496	0.356519	0.148752
	H11608	H	0.908715	0.350734	0.100364
	H11609	H	0.971467	0.432294	0.099814
	H11610	H	0.879059	0.302446	0.398377
	H11611	H	0.936460	0.391482	0.398945
	H11612	H	0.879207	0.302335	0.100729
	H11613	H	0.936486	0.391542	0.100603
	H11614	H	0.909034	0.350204	0.399293
	H11615	H	0.971515	0.432514	0.399620
	H11616	H	0.884678	0.408032	0.460735
	H11617	H	0.947727	0.346386	0.496039
	H11618	H	0.896105	0.396194	-0.067537
	H11619	H	0.959645	0.335547	-0.074194
	H11620	H	0.896537	0.396901	0.461548
	H11621	H	0.959556	0.335173	0.496094
	H11622	H	0.884294	0.407407	-0.068328
	H11623	H	0.947807	0.346728	-0.074135
	H11624	H	0.899230	0.334720	0.252983
	H11625	H	0.959793	0.419625	0.275624
	H11626	H	0.888670	0.318260	0.247480
	H11627	H	0.947895	0.404728	0.224795
	H11628	H	0.888870	0.318056	0.252292
	H11629	H	0.947587	0.405446	0.275081
	H11630	H	0.899062	0.334954	0.247698
	H11631	H	0.960088	0.418919	0.224953
	Co11632	Co	0.987451	0.449856	0.124773
	Co11633	Co	0.922093	0.371734	0.125067
	Co11634	Co	0.866150	0.280828	0.374038
	Co11635	Co	0.922166	0.371697	0.374181
	C11636	C	0.872915	0.420316	0.422737
	C11637	C	0.935372	0.357529	0.424047
	C11638	C	0.908788	0.385685	0.075272
	C11639	C	0.971226	0.323110	0.075462
	C11640	C	0.908855	0.385740	0.422359
	C11641	C	0.971398	0.323376	0.423769
	C11642	C	0.872941	0.420228	0.074440
	C11643	C	0.935399	0.357645	0.076186
	C11644	C	0.909816	0.352198	0.173572
	C11645	C	0.972669	0.433656	0.172970
	C11646	C	0.878066	0.300850	0.325946
	C11647	C	0.935330	0.390079	0.326121
	C11648	C	0.878155	0.300762	0.173491
	C11649	C	0.935356	0.390099	0.173373
	C11650	C	0.909989	0.351952	0.326372
	C11651	C	0.972681	0.433740	0.326316
	C11652	C	0.876959	0.416134	0.498656
	C11653	C	0.939465	0.353587	-0.000044
	C11654	C	0.904707	0.389734	0.498573
	C11655	C	0.967216	0.327287	-0.000573
	C11656	C	0.906219	0.346148	0.250056
	C11657	C	0.968289	0.428783	0.249719
	C11658	C	0.881729	0.306778	0.249669
	C11659	C	0.939529	0.395313	0.249964
	C11660	C	0.883969	0.409403	0.498302
	C11661	C	0.946471	0.346840	-0.000021
	C11662	C	0.897679	0.396416	0.498536
	C11663	C	0.960164	0.333932	-0.000391
	C11664	C	0.900020	0.336202	0.250033
	C11665	C	0.960922	0.420420	0.249877
	C11666	C	0.887895	0.316771	0.249834
	C11667	C	0.946734	0.403920	0.249787
	C11668	C	0.887380	0.405824	0.477505
	C11669	C	0.950162	0.343801	0.497889
	C11670	C	0.893835	0.399127	-0.038531
	C11671	C	0.956864	0.337649	-0.041835
	C11672	C	0.894066	0.399508	0.477782
	C11673	C	0.956852	0.337504	0.497845
	C11674	C	0.887167	0.405467	-0.039072
	C11675	C	0.950203	0.343956	-0.041486
	C11676	C	0.896961	0.331161	0.251545
	C11677	C	0.957188	0.416400	0.264087
	C11678	C	0.890960	0.321852	0.248630
	C11679	C	0.950462	0.407966	0.235710
	C11680	C	0.891070	0.321721	0.251370
	C11681	C	0.950287	0.408372	0.263871
	C11682	C	0.896857	0.331292	0.248623
	C11683	C	0.957369	0.415981	0.235620
	N11684	N	0.866826	0.426220	0.451816
	N11685	N	0.929337	0.363557	0.452368
	N11686	N	0.914885	0.379750	0.046697
	N11687	N	0.977325	0.317187	0.046690
	N11688	N	0.914921	0.379787	0.451552
	N11689	N	0.977454	0.317357	0.452298
	N11690	N	0.866878	0.426217	0.045709
	N11691	N	0.929346	0.363660	0.047401
	N11692	N	0.915242	0.360838	0.202546
	N11693	N	0.979133	0.440859	0.201941
	N11694	N	0.872710	0.292093	0.297210
	N11695	N	0.929192	0.382339	0.297224
	N11696	N	0.872764	0.292021	0.202307
	N11697	N	0.929185	0.382373	0.202053
	N11698	N	0.915348	0.360693	0.297471
	N11699	N	0.979148	0.440913	0.297173
	H11700	H	0.873960	0.419091	0.849566
	H11701	H	0.936408	0.356495	0.851196
	H11702	H	0.907654	0.386723	0.648052
	H11703	H	0.970169	0.324186	0.648847
	H11704	H	0.907652	0.386655	0.849681
	H11705	H	0.970297	0.324415	0.851062
	H11706	H	0.873870	0.418794	0.647652
	H11707	H	0.936644	0.356781	0.649042
	H11708	H	0.908961	0.350426	0.599460
	H11709	H	0.971500	0.432314	0.599359
	H11710	H	0.879097	0.302319	0.897902
	H11711	H	0.936579	0.391260	0.899700
	H11712	H	0.879057	0.302364	0.600453
	H11713	H	0.936582	0.391594	0.601025
	H11714	H	0.908853	0.350513	0.898103
	H11715	H	0.971547	0.432364	0.900002
	H11716	H	0.885535	0.409667	1.064231
	H11717	H	0.947023	0.345252	1.073700
	H11718	H	0.896929	0.397752	0.536032
	H11719	H	0.959073	0.334573	0.505288
	H11720	H	0.897373	0.398435	1.065610
	H11721	H	0.958895	0.334118	1.073550
	H11722	H	0.885110	0.408925	0.535060
	H11723	H	0.947253	0.345743	0.505022
	H11724	H	0.898811	0.335260	0.823357
	H11725	H	0.960005	0.419190	0.756140
	H11726	H	0.889063	0.317815	0.673915
	H11727	H	0.947598	0.405341	0.745053
	H11728	H	0.888447	0.318535	0.823475
	H11729	H	0.947873	0.404948	0.756878
	H11730	H	0.899409	0.334513	0.674037
	H11731	H	0.959826	0.419425	0.744164
	Co11732	Co	0.987437	0.449901	0.624531
	Co11733	Co	0.922116	0.371781	0.624241
	Co11734	Co	0.866195	0.280734	0.874216
	Co11735	Co	0.922099	0.371685	0.874137
	C11736	C	0.872861	0.420171	0.922315
	C11737	C	0.935350	0.357605	0.923679
	C11738	C	0.908809	0.385714	0.575062
	C11739	C	0.971291	0.323174	0.575970
	C11740	C	0.908777	0.385605	0.922730
	C11741	C	0.971356	0.323323	0.923535
	C11742	C	0.872805	0.420016	0.575106
	C11743	C	0.935432	0.357776	0.576454
	C11744	C	0.909910	0.352052	0.672467
	C11745	C	0.972663	0.433692	0.672683
	C11746	C	0.878111	0.300721	0.825219
	C11747	C	0.935395	0.389967	0.826697
	C11748	C	0.878095	0.300779	0.673129
	C11749	C	0.935370	0.390102	0.673768
	C11750	C	0.909853	0.352096	0.825178
	C11751	C	0.972693	0.433718	0.826370
	C11752	C	0.876977	0.416101	0.998225
	C11753	C	0.939482	0.353606	0.500566
	C11754	C	0.904665	0.389669	0.998982
	C11755	C	0.967263	0.327288	0.500079
	C11756	C	0.906165	0.346211	0.748807
	C11757	C	0.968252	0.428834	0.749646
	C11758	C	0.881750	0.306722	0.749242
	C11759	C	0.939558	0.395259	0.750518
	C11760	C	0.883999	0.409417	0.998019
	C11761	C	0.946504	0.346917	0.500548
	C11762	C	0.897693	0.396436	0.999073
	C11763	C	0.960246	0.334019	0.500290
	C11764	C	0.899934	0.336272	0.748903
	C11765	C	0.960923	0.420444	0.749997
	C11766	C	0.887888	0.316762	0.748992
	C11767	C	0.946751	0.403867	0.750636
	C11768	C	0.887841	0.406711	1.035715
	C11769	C	0.949771	0.343120	1.041455
	C11770	C	0.894274	0.399980	0.519240
	C11771	C	0.956581	0.337168	0.503174
	C11772	C	0.894513	0.400361	1.036330
	C11773	C	0.956454	0.336852	1.041450
	C11774	C	0.887600	0.406299	0.519123
	C11775	C	0.949892	0.343453	0.503218
	C11776	C	0.896682	0.331454	0.790699
	C11777	C	0.957369	0.416147	0.753583
	C11778	C	0.891159	0.321574	0.707001
	C11779	C	0.950283	0.408281	0.747231
	C11780	C	0.890812	0.321992	0.790772
	C11781	C	0.950461	0.408108	0.753995
	C11782	C	0.897015	0.331044	0.706881
	C11783	C	0.957207	0.416298	0.746810
	N11784	N	0.866825	0.426164	0.951338
	N11785	N	0.929310	0.363607	0.952581
	N11786	N	0.914894	0.379785	0.546420
	N11787	N	0.977391	0.317247	0.546958
	N11788	N	0.914892	0.379731	0.951837
	N11789	N	0.977399	0.317307	0.952347
	N11790	N	0.866751	0.426024	0.546575
	N11791	N	0.929368	0.363696	0.547209
	N11792	N	0.915348	0.360713	0.701445
	N11793	N	0.979140	0.440816	0.701769
	N11794	N	0.872778	0.291963	0.796639
	N11795	N	0.929201	0.382319	0.797364
	N11796	N	0.872761	0.291998	0.701908
	N11797	N	0.929175	0.382404	0.701955
	N11798	N	0.915318	0.360736	0.796332
	N11799	N	0.979171	0.440847	0.796902
	H11800	H	0.873959	0.555193	0.347914
	H11801	H	0.936501	0.492658	0.347693
	H11802	H	0.910955	0.527899	0.149194
	H11803	H	0.973132	0.464943	0.149312
	H11804	H	0.910808	0.527771	0.348676
	H11805	H	0.973266	0.465297	0.349316
	H11806	H	0.874091	0.555167	0.150139
	H11807	H	0.936424	0.492642	0.150820
	H11808	H	0.909176	0.494834	0.098937
	H11809	H	0.981554	0.494186	0.097274
	H11810	H	0.873916	0.454264	0.398718
	H11811	H	0.943361	0.517071	0.401235
	H11812	H	0.874172	0.453803	0.099501
	H11813	H	0.943436	0.517015	0.097097
	H11814	H	0.908986	0.495020	0.400359
	H11815	H	0.981507	0.493799	0.400722
	H11816	H	0.885580	0.544994	0.351089
	H11817	H	0.947969	0.482323	0.647337
	H11818	H	0.898583	0.536357	-0.148452
	H11819	H	0.960962	0.473754	-0.149217
	H11820	H	0.898301	0.535879	0.350620
	H11821	H	0.960749	0.473350	0.648029
	H11822	H	0.885798	0.545309	-0.149326
	H11823	H	0.948203	0.482739	-0.148810
	H11824	H	0.897508	0.481930	0.263530
	H11825	H	0.968586	0.500412	0.399402
	H11826	H	0.885295	0.467504	0.234927
	H11827	H	0.955859	0.509348	0.098671
	H11828	H	0.885280	0.467808	0.263912
	H11829	H	0.955932	0.509447	0.399112
	H11830	H	0.897496	0.481603	0.234160
	H11831	H	0.968518	0.500091	0.099271
	Co11832	Co	1.000111	0.500097	0.125106
	Co11833	Co	0.925050	0.512480	0.124840
	Co11834	Co	0.859596	0.434346	0.374007
	Co11835	Co	0.925003	0.512478	0.373671
	C11836	C	0.873066	0.556566	0.422268
	C11837	C	0.935641	0.494136	0.422021
	C11838	C	0.912106	0.526956	0.075854
	C11839	C	0.974444	0.464220	0.076112
	C11840	C	0.912040	0.526954	0.422366
	C11841	C	0.974463	0.464381	0.423084
	C11842	C	0.873222	0.556659	0.076231
	C11843	C	0.935629	0.494128	0.076425
	C11844	C	0.910284	0.496193	0.172655
	C11845	C	0.983051	0.494145	0.171560
	C11846	C	0.872789	0.452768	0.325507
	C11847	C	0.941898	0.517107	0.326492
	C11848	C	0.872948	0.452520	0.172635
	C11849	C	0.941907	0.517079	0.171515
	C11850	C	0.910194	0.496281	0.326234
	C11851	C	0.983010	0.494013	0.326341
	C11852	C	0.877077	0.552143	0.499128
	C11853	C	0.939653	0.489698	-0.000199
	C11854	C	0.907449	0.530240	0.499124
	C11855	C	0.969954	0.467724	-0.000558
	C11856	C	0.905830	0.491320	0.249321
	C11857	C	0.977808	0.495049	0.248740
	C11858	C	0.877049	0.457893	0.249063
	C11859	C	0.946962	0.515407	0.248773
	C11860	C	0.884382	0.545801	0.499247
	C11861	C	0.946954	0.483384	-0.000397
	C11862	C	0.899572	0.535346	0.498869
	C11863	C	0.962084	0.472834	-0.000842
	C11864	C	0.898489	0.482947	0.249339
	C11865	C	0.969685	0.499409	0.248907
	C11866	C	0.884270	0.466458	0.249276
	C11867	C	0.954802	0.510346	0.248737
	C11868	C	0.888270	0.542957	0.416702
	C11869	C	0.950733	0.480439	0.581790
	C11870	C	0.895752	0.538121	-0.083283
	C11871	C	0.958201	0.475578	-0.083400
	C11872	C	0.895594	0.537875	0.416374
	C11873	C	0.958052	0.475364	0.582475
	C11874	C	0.888447	0.543216	-0.083630
	C11875	C	0.950887	0.480666	-0.083210
	C11876	C	0.894829	0.478820	0.257616
	C11877	C	0.965839	0.502237	0.332647
	C11878	C	0.887926	0.470620	0.241233
	C11879	C	0.958582	0.507433	0.165349
	C11880	C	0.887912	0.470810	0.257475
	C11881	C	0.958612	0.507474	0.332422
	C11882	C	0.894846	0.478617	0.241012
	C11883	C	0.965808	0.502157	0.165595
	N11884	N	0.867549	0.563553	0.451417
	N11885	N	0.930095	0.501079	0.450752
	N11886	N	0.918761	0.522010	0.047263
	N11887	N	0.981153	0.459428	0.047565
	N11888	N	0.918724	0.522083	0.451091
	N11889	N	0.981178	0.459533	0.451572
	N11890	N	0.867621	0.563535	0.047368
	N11891	N	0.930044	0.501003	0.047475
	N11892	N	0.916719	0.503388	0.202095
	N11893	N	0.990900	0.493342	0.199994
	N11894	N	0.866670	0.445004	0.296673
	N11895	N	0.934167	0.518936	0.297865
	N11896	N	0.866754	0.444883	0.201574
	N11897	N	0.934194	0.518942	0.199787
	N11898	N	0.916668	0.503427	0.297172
	N11899	N	0.990882	0.493274	0.297525
	H11900	H	0.874126	0.555364	0.848016
	H11901	H	0.936732	0.493025	0.848125
	H11902	H	0.910780	0.527709	0.649900
	H11903	H	0.973296	0.465373	0.650668
	H11904	H	0.910746	0.527680	0.848970
	H11905	H	0.973406	0.465521	0.848973
	H11906	H	0.874225	0.555457	0.650758
	H11907	H	0.936589	0.492876	0.649885
	H11908	H	0.908992	0.495044	0.599531
	H11909	H	0.981562	0.493839	0.598396
	H11910	H	0.873932	0.454214	0.898719
	H11911	H	0.943445	0.517255	0.900424
	H11912	H	0.874084	0.453949	0.599922
	H11913	H	0.943470	0.517069	0.597276
	H11914	H	0.909029	0.494992	0.899087
	H11915	H	0.981542	0.494115	0.901581
	H11916	H	0.885454	0.544523	1.146562
	H11917	H	0.947910	0.482068	1.147967
	H11918	H	0.898339	0.536047	0.646835
	H11919	H	0.960878	0.473408	0.352415
	H11920	H	0.898218	0.535560	1.146951
	H11921	H	0.960684	0.473090	1.147718
	H11922	H	0.885542	0.544885	0.647730
	H11923	H	0.948062	0.482265	0.351108
	H11924	H	0.897046	0.482627	0.695777
	H11925	H	0.968523	0.500362	0.899828
	H11926	H	0.885752	0.466726	0.803161
	H11927	H	0.955896	0.509331	0.598621
	H11928	H	0.884875	0.468403	0.695678
	H11929	H	0.955895	0.509464	0.899559
	H11930	H	0.897916	0.481025	0.803104
	H11931	H	0.968494	0.500126	0.599283
	Co11932	Co	1.000015	0.499894	0.625229
	Co11933	Co	0.925015	0.512501	0.624248
	Co11934	Co	0.859595	0.434242	0.873473
	Co11935	Co	0.925005	0.512441	0.873512
	C11936	C	0.873235	0.556693	0.922267
	C11937	C	0.935767	0.494265	0.922565
	C11938	C	0.912025	0.526952	0.575973
	C11939	C	0.974486	0.464421	0.576774
	C11940	C	0.912012	0.526831	0.922453
	C11941	C	0.974585	0.464519	0.922517
	C11942	C	0.873184	0.556723	0.576305
	C11943	C	0.935663	0.494216	0.575905
	C11944	C	0.910155	0.496299	0.672603
	C11945	C	0.983007	0.493979	0.672571
	C11946	C	0.872806	0.452654	0.825876
	C11947	C	0.941914	0.517337	0.826392
	C11948	C	0.872879	0.452521	0.672771
	C11949	C	0.941889	0.517177	0.671452
	C11950	C	0.910184	0.496291	0.825929
	C11951	C	0.982987	0.494117	0.827338
	C11952	C	0.877170	0.552158	0.999073
	C11953	C	0.939595	0.489644	0.499069
	C11954	C	0.907511	0.530179	0.999012
	C11955	C	0.969889	0.467629	0.500208
	C11956	C	0.905766	0.491378	0.749453
	C11957	C	0.977790	0.495114	0.749740
	C11958	C	0.877094	0.457790	0.749309
	C11959	C	0.946988	0.515608	0.748818
	C11960	C	0.884508	0.545865	0.998701
	C11961	C	0.946908	0.483308	0.499390
	C11962	C	0.899631	0.535309	0.999153
	C11963	C	0.962045	0.472793	0.500141
	C11964	C	0.898438	0.482999	0.749310
	C11965	C	0.969694	0.499463	0.749503
	C11966	C	0.884297	0.466399	0.749374
	C11967	C	0.954846	0.510511	0.748976
	C11968	C	0.888267	0.542780	1.080992
	C11969	C	0.950725	0.480306	1.082101
	C11970	C	0.895575	0.537901	0.581338
	C11971	C	0.958098	0.475353	0.417533
	C11972	C	0.895583	0.537699	1.081326
	C11973	C	0.958038	0.475198	1.081725
	C11974	C	0.888269	0.543002	0.581686
	C11975	C	0.950777	0.480432	0.417108
	C11976	C	0.894550	0.479202	0.719379
	C11977	C	0.965817	0.502260	0.833082
	C11978	C	0.888166	0.470217	0.779275
	C11979	C	0.958613	0.507489	0.665573
	C11980	C	0.887673	0.471108	0.719221
	C11981	C	0.958613	0.507584	0.832961
	C11982	C	0.895047	0.478292	0.779505
	C11983	C	0.965829	0.502197	0.665868
	N11984	N	0.867618	0.563517	0.951329
	N11985	N	0.930151	0.501129	0.951098
	N11986	N	0.918694	0.522068	0.547545
	N11987	N	0.981172	0.459528	0.547885
	N11988	N	0.918700	0.521917	0.950965
	N11989	N	0.981237	0.459572	0.951181
	N11990	N	0.867580	0.563590	0.547713
	N11991	N	0.930132	0.501139	0.547037
	N11992	N	0.916653	0.503460	0.701370
	N11993	N	0.990857	0.493141	0.701102
	N11994	N	0.866635	0.444984	0.797048
	N11995	N	0.934162	0.519021	0.797906
	N11996	N	0.866680	0.444882	0.701654
	N11997	N	0.934178	0.518950	0.699855
	N11998	N	0.916650	0.503451	0.796555
	N11999	N	0.990857	0.493226	0.798672
	H12000	H	0.887502	0.606565	0.347671
	H12001	H	0.949990	0.544145	0.347766
	H12002	H	0.925174	0.580881	0.151206
	H12003	H	0.987772	0.518531	0.150198
	H12004	H	0.925267	0.581013	0.347575
	H12005	H	0.987757	0.518473	0.348772
	H12006	H	0.887532	0.606701	0.150927
	H12007	H	0.949903	0.544042	0.151102
	H12008	H	0.919047	0.556362	0.097845
	H12009	H	0.994240	0.545221	0.097747
	H12010	H	0.881000	0.579632	0.401006
	H12011	H	0.956175	0.568584	0.401177
	H12012	H	0.880913	0.579486	0.097552
	H12013	H	0.956207	0.568391	0.097808
	H12014	H	0.919077	0.556580	0.401219
	H12015	H	0.994237	0.545208	0.401027
	H12016	H	0.899837	0.597983	0.349644
	H12017	H	0.962250	0.535064	0.349002
	H12018	H	0.912913	0.589634	-0.150900
	H12019	H	0.975272	0.527077	-0.151640
	H12020	H	0.912962	0.589885	0.348972
	H12021	H	0.975341	0.526898	0.349731
	H12022	H	0.899877	0.598003	-0.150633
	H12023	H	0.962210	0.535248	-0.150832
	H12024	H	0.906068	0.562726	0.399460
	H12025	H	0.981895	0.553169	0.099337
	H12026	H	0.893464	0.571830	0.099000
	H12027	H	0.969084	0.561916	0.399534
	H12028	H	0.893451	0.571975	0.399533
	H12029	H	0.969249	0.562358	0.099447
	H12030	H	0.906038	0.562687	0.099126
	H12031	H	0.981719	0.552752	0.399623
	Co12032	Co	1.012605	0.550000	0.124903
	Co12033	Co	0.937611	0.562519	0.125157
	Co12034	Co	0.862514	0.574994	0.374134
	Co12035	Co	0.937670	0.562633	0.373342
	C12036	C	0.886428	0.607812	0.421990
	C12037	C	0.948951	0.545397	0.422155
	C12038	C	0.926187	0.579617	0.076540
	C12039	C	0.988765	0.517285	0.075858
	C12040	C	0.926288	0.579727	0.422251
	C12041	C	0.988729	0.517139	0.422816
	C12042	C	0.886448	0.607828	0.076744
	C12043	C	0.948856	0.545226	0.076891
	C12044	C	0.920555	0.556511	0.172249
	C12045	C	0.995764	0.545160	0.172051
	C12046	C	0.879436	0.579664	0.326606
	C12047	C	0.954673	0.568472	0.326458
	C12048	C	0.879418	0.579586	0.171960
	C12049	C	0.954678	0.568360	0.171741
	C12050	C	0.920573	0.556605	0.326874
	C12051	C	0.995767	0.545164	0.326699
	C12052	C	0.890697	0.603854	0.498862
	C12053	C	0.953184	0.541347	-0.000312
	C12054	C	0.921935	0.583566	0.499191
	C12055	C	0.984421	0.521082	-0.001369
	C12056	C	0.915330	0.557515	0.249589
	C12057	C	0.990681	0.546811	0.249330
	C12058	C	0.884513	0.577956	0.249330
	C12059	C	0.959904	0.567352	0.249309
	C12060	C	0.898496	0.598521	0.499089
	C12061	C	0.960968	0.535941	-0.000501
	C12062	C	0.914175	0.588973	0.498893
	C12063	C	0.976631	0.526422	-0.001275
	C12064	C	0.907198	0.561856	0.249593
	C12065	C	0.982825	0.551878	0.249463
	C12066	C	0.892353	0.572900	0.249420
	C12067	C	0.967988	0.562936	0.249590
	C12068	C	0.902609	0.596108	0.416231
	C12069	C	0.965016	0.533373	0.416211
	C12070	C	0.910098	0.591383	-0.084148
	C12071	C	0.972529	0.528848	-0.084405
	C12072	C	0.910166	0.591555	0.416004
	C12073	C	0.972534	0.528731	0.416369
	C12074	C	0.902603	0.596086	-0.083573
	C12075	C	0.965011	0.533479	-0.083912
	C12076	C	0.903343	0.564697	0.332877
	C12077	C	0.979103	0.554976	0.165901
	C12078	C	0.896139	0.569921	0.166105
	C12079	C	0.971799	0.560059	0.332927
	C12080	C	0.896142	0.570006	0.332834
	C12081	C	0.971887	0.560280	0.166105
	C12082	C	0.903351	0.564629	0.165984
	C12083	C	0.979006	0.554742	0.332942
	N12084	N	0.880325	0.613868	0.450848
	N12085	N	0.942829	0.551436	0.450767
	N12086	N	0.932283	0.573489	0.047375
	N12087	N	0.994894	0.511224	0.047553
	N12088	N	0.932400	0.573681	0.450939
	N12089	N	0.994842	0.511054	0.451592
	N12090	N	0.880319	0.613869	0.048190
	N12091	N	0.942773	0.551334	0.048014
	N12092	N	0.928437	0.555767	0.200816
	N12093	N	1.003511	0.543430	0.200564
	N12094	N	0.871695	0.581398	0.298403
	N12095	N	0.946820	0.569349	0.297776
	N12096	N	0.871692	0.581356	0.200265
	N12097	N	0.946810	0.569280	0.200137
	N12098	N	0.928441	0.555842	0.298269
	N12099	N	1.003497	0.543436	0.298599
	H12100	H	0.887334	0.606326	0.848339
	H12101	H	0.949910	0.543986	0.848266
	H12102	H	0.925192	0.580914	0.651102
	H12103	H	0.987584	0.518218	0.651790
	H12104	H	0.925122	0.580833	0.848026
	H12105	H	0.987654	0.518239	0.846976
	H12106	H	0.887406	0.606491	0.650940
	H12107	H	0.949846	0.543981	0.650964
	H12108	H	0.919066	0.556466	0.597549
	H12109	H	0.994206	0.545066	0.597773
	H12110	H	0.881028	0.579750	0.900377
	H12111	H	0.956168	0.568448	0.900069
	H12112	H	0.880896	0.579525	0.597295
	H12113	H	0.956111	0.568520	0.597026
	H12114	H	0.918974	0.556343	0.900611
	H12115	H	0.994195	0.545548	0.901109
	H12116	H	0.899806	0.597786	1.150615
	H12117	H	0.962249	0.535173	1.149852
	H12118	H	0.912743	0.589474	0.649293
	H12119	H	0.975356	0.527234	0.649914
	H12120	H	0.912912	0.589805	1.149989
	H12121	H	0.975365	0.527190	1.149260
	H12122	H	0.899742	0.597729	0.649558
	H12123	H	0.962314	0.535386	0.649922
	H12124	H	0.905894	0.562558	0.598830
	H12125	H	0.981797	0.553286	0.598105
	H12126	H	0.893420	0.572131	0.899425
	H12127	H	0.968918	0.561859	0.898796
	H12128	H	0.893386	0.571811	0.598042
	H12129	H	0.969149	0.562354	0.597982
	H12130	H	0.906119	0.563057	0.899894
	H12131	H	0.981583	0.552773	0.899349
	Co12132	Co	1.012644	0.549872	0.624961
	Co12133	Co	0.937560	0.562417	0.625488
	Co12134	Co	0.862574	0.574979	0.874384
	Co12135	Co	0.937526	0.562385	0.873573
	C12136	C	0.886328	0.607637	0.922791
	C12137	C	0.948908	0.545307	0.922670
	C12138	C	0.926230	0.579652	0.576628
	C12139	C	0.988642	0.517006	0.577333
	C12140	C	0.926150	0.579572	0.922109
	C12141	C	0.988718	0.517153	0.921746
	C12142	C	0.886391	0.607737	0.576217
	C12143	C	0.948863	0.545255	0.576380
	C12144	C	0.920502	0.556497	0.672036
	C12145	C	0.995732	0.545128	0.672209
	C12146	C	0.879436	0.579771	0.826305
	C12147	C	0.954594	0.568355	0.826375
	C12148	C	0.879408	0.579667	0.671535
	C12149	C	0.954569	0.568392	0.671598
	C12150	C	0.920478	0.556455	0.826505
	C12151	C	0.995732	0.545373	0.826705
	C12152	C	0.890711	0.603824	0.999437
	C12153	C	0.953203	0.541379	0.499212
	C12154	C	0.921897	0.583550	0.999164
	C12155	C	0.984404	0.520985	0.500134
	C12156	C	0.915282	0.557561	0.749253
	C12157	C	0.990627	0.546930	0.749195
	C12158	C	0.884506	0.578076	0.748954
	C12159	C	0.959825	0.567363	0.748790
	C12160	C	0.898512	0.598482	0.999629
	C12161	C	0.960976	0.535966	0.499358
	C12162	C	0.914127	0.588980	0.999310
	C12163	C	0.976609	0.526375	0.499907
	C12164	C	0.907191	0.561988	0.749493
	C12165	C	0.982780	0.551938	0.748789
	C12166	C	0.892366	0.573019	0.748885
	C12167	C	0.967917	0.562915	0.748422
	C12168	C	0.902528	0.595969	1.083431
	C12169	C	0.965051	0.533510	1.082689
	C12170	C	0.910023	0.591313	0.582111
	C12171	C	0.972553	0.528931	0.583119
	C12172	C	0.910096	0.591487	1.083180
	C12173	C	0.972601	0.528959	1.082243
	C12174	C	0.902506	0.595967	0.582498
	C12175	C	0.965035	0.533572	0.582780
	C12176	C	0.903257	0.564622	0.665669
	C12177	C	0.979040	0.554986	0.665089
	C12178	C	0.896175	0.570196	0.832657
	C12179	C	0.971714	0.560040	0.832263
	C12180	C	0.896083	0.569969	0.665252
	C12181	C	0.971825	0.560300	0.664735
	C12182	C	0.903387	0.564911	0.833172
	C12183	C	0.978937	0.554758	0.832321
	N12184	N	0.880247	0.613758	0.951434
	N12185	N	0.942788	0.551350	0.951414
	N12186	N	0.932368	0.573597	0.547858
	N12187	N	0.994772	0.510964	0.548216
	N12188	N	0.932227	0.573451	0.950736
	N12189	N	0.994830	0.511112	0.950484
	N12190	N	0.880271	0.613796	0.547537
	N12191	N	0.942786	0.551345	0.547703
	N12192	N	0.928379	0.555604	0.700703
	N12193	N	1.003479	0.543399	0.700486
	N12194	N	0.871695	0.581476	0.798257
	N12195	N	0.946725	0.569162	0.797921
	N12196	N	0.871696	0.581430	0.700180
	N12197	N	0.946729	0.569199	0.700641
	N12198	N	0.928362	0.555580	0.798235
	N12199	N	1.003472	0.543580	0.798698
	H12200	H	0.901783	0.659595	0.348816
	H12201	H	0.964297	0.597103	0.348630
	H12202	H	0.938499	0.632056	0.150497
	H12203	H	1.000996	0.569657	0.150747
	H12204	H	0.938414	0.631993	0.347395
	H12205	H	1.001122	0.569606	0.347947
	H12206	H	0.901867	0.659788	0.150152
	H12207	H	0.964261	0.596873	0.149744
	H12208	H	0.931673	0.607734	0.097515
	H12209	H	1.001145	0.670776	0.100976
	H12210	H	0.893659	0.631060	0.401637
	H12211	H	0.966032	0.630021	0.399612
	H12212	H	0.893598	0.630945	0.097582
	H12213	H	0.966175	0.629964	0.099733
	H12214	H	0.931678	0.607735	0.401200
	H12215	H	1.000974	0.671057	0.399271
	H12216	H	0.914248	0.651437	0.350695
	H12217	H	0.976748	0.588811	0.351225
	H12218	H	0.927208	0.642670	0.147379
	H12219	H	0.989821	0.580610	0.147474
	H12220	H	0.927069	0.642546	0.351224
	H12221	H	0.989514	0.579939	0.350463
	H12222	H	0.914439	0.651774	0.147561
	H12223	H	0.977069	0.589615	0.146926
	H12224	H	0.919206	0.615468	0.400121
	H12225	H	0.990363	0.656445	0.150304
	H12226	H	0.906719	0.624943	0.098838
	H12227	H	0.977103	0.643896	0.350051
	H12228	H	0.906592	0.624620	0.399716
	H12229	H	0.978204	0.642296	0.150229
	H12230	H	0.919278	0.615641	0.098960
	H12231	H	0.989289	0.658103	0.351337
	Co12232	Co	1.015356	0.690719	0.124811
	Co12233	Co	0.950136	0.612351	0.124588
	Co12234	Co	0.875156	0.625069	0.373631
	Co12235	Co	0.950097	0.612379	0.373684
	C12236	C	0.900561	0.660492	0.422143
	C12237	C	0.963094	0.597959	0.422448
	C12238	C	0.939449	0.630651	0.076375
	C12239	C	1.001949	0.568289	0.076792
	C12240	C	0.939345	0.630628	0.421736
	C12241	C	1.002012	0.568203	0.422022
	C12242	C	0.900657	0.660617	0.076280
	C12243	C	0.963083	0.597844	0.075885
	C12244	C	0.933240	0.607666	0.171852
	C12245	C	1.002242	0.672290	0.173865
	C12246	C	0.892161	0.630959	0.326777
	C12247	C	0.964864	0.628648	0.326181
	C12248	C	0.892138	0.630901	0.171958
	C12249	C	0.964946	0.628604	0.172766
	C12250	C	0.933236	0.607655	0.326637
	C12251	C	1.002151	0.672455	0.326475
	C12252	C	0.905123	0.657163	0.499069
	C12253	C	0.967695	0.594707	-0.001079
	C12254	C	0.935444	0.635203	0.498931
	C12255	C	0.997999	0.572744	-0.000628
	C12256	C	0.928144	0.609374	0.249335
	C12257	C	0.998004	0.667102	0.250269
	C12258	C	0.897383	0.629928	0.249452
	C12259	C	0.969307	0.633534	0.249697
	C12260	C	0.912968	0.652006	0.499009
	C12261	C	0.975536	0.589565	-0.001211
	C12262	C	0.928114	0.641521	0.499177
	C12263	C	0.990686	0.579087	-0.001065
	C12264	C	0.920295	0.614470	0.249497
	C12265	C	0.990825	0.658477	0.250350
	C12266	C	0.905471	0.625544	0.249455
	C12267	C	0.976633	0.641916	0.250116
	C12268	C	0.916948	0.649476	0.416498
	C12269	C	0.979509	0.586950	0.416927
	C12270	C	0.924414	0.644554	0.081970
	C12271	C	0.986981	0.582260	0.081536
	C12272	C	0.924266	0.644397	0.416602
	C12273	C	0.986817	0.581847	0.416388
	C12274	C	0.917107	0.649691	0.082136
	C12275	C	0.979659	0.587324	0.081282
	C12276	C	0.916531	0.617396	0.333179
	C12277	C	0.987479	0.653754	0.194353
	C12278	C	0.909369	0.622883	0.165593
	C12279	C	0.980001	0.646624	0.306399
	C12280	C	0.909308	0.622687	0.332977
	C12281	C	0.980582	0.645708	0.194242
	C12282	C	0.916565	0.617539	0.165943
	C12283	C	0.986913	0.654655	0.306646
	N12284	N	0.893878	0.665369	0.450885
	N12285	N	0.956426	0.602858	0.451214
	N12286	N	0.945008	0.623760	0.047275
	N12287	N	1.007506	0.561375	0.047892
	N12288	N	0.944959	0.623764	0.450822
	N12289	N	1.007557	0.561263	0.451225
	N12290	N	0.893968	0.665447	0.047641
	N12291	N	0.956427	0.602806	0.047340
	N12292	N	0.940967	0.605887	0.200212
	N12293	N	1.008347	0.680040	0.202585
	N12294	N	0.884307	0.631782	0.298342
	N12295	N	0.958423	0.621459	0.296960
	N12296	N	0.884272	0.631741	0.200723
	N12297	N	0.958454	0.621444	0.201656
	N12298	N	0.940948	0.605856	0.298258
	N12299	N	1.008291	0.680150	0.297435
	H12300	H	0.901904	0.659791	0.848841
	H12301	H	0.964375	0.597179	0.848344
	H12302	H	0.938595	0.632173	0.650020
	H12303	H	1.000948	0.569475	0.650460
	H12304	H	0.938531	0.632237	0.848539
	H12305	H	1.000983	0.569486	0.847951
	H12306	H	0.901765	0.659485	0.649628
	H12307	H	0.964460	0.597383	0.650216
	H12308	H	0.931773	0.607922	0.597323
	H12309	H	1.000889	0.671179	0.600565
	H12310	H	0.893643	0.630864	0.900634
	H12311	H	0.966055	0.629995	0.899922
	H12312	H	0.893581	0.630951	0.597281
	H12313	H	0.966004	0.630268	0.599950
	H12314	H	0.931667	0.607480	0.900410
	H12315	H	1.001266	0.670743	0.898772
	H12316	H	0.914236	0.651415	0.852227
	H12317	H	0.976548	0.588344	0.850444
	H12318	H	0.926982	0.642288	0.646623
	H12319	H	0.989650	0.580156	0.647058
	H12320	H	0.927029	0.642395	0.852130
	H12321	H	0.989416	0.579601	0.850872
	H12322	H	0.914150	0.651267	0.647092
	H12323	H	0.976838	0.589053	0.647551
	H12324	H	0.919159	0.615389	0.597983
	H12325	H	0.990076	0.656894	0.789046
	H12326	H	0.906604	0.624656	0.899431
	H12327	H	0.977454	0.643650	0.710570
	H12328	H	0.906610	0.624529	0.598397
	H12329	H	0.977928	0.642661	0.790155
	H12330	H	0.919306	0.615620	0.899253
	H12331	H	0.989595	0.657868	0.711259
	Co12332	Co	1.015409	0.690749	0.624505
	Co12333	Co	0.950174	0.612512	0.624663
	Co12334	Co	0.875028	0.624868	0.873899
	Co12335	Co	0.950122	0.612438	0.873965
	C12336	C	0.900702	0.660632	0.922977
	C12337	C	0.963131	0.598000	0.922224
	C12338	C	0.939425	0.630727	0.575861
	C12339	C	1.001904	0.568110	0.576148
	C12340	C	0.939429	0.630708	0.922190
	C12341	C	1.001961	0.568200	0.922573
	C12342	C	0.900538	0.660427	0.575827
	C12343	C	0.963180	0.598108	0.576325
	C12344	C	0.933289	0.607860	0.671475
	C12345	C	1.002148	0.672497	0.673364
	C12346	C	0.892098	0.630704	0.826659
	C12347	C	0.964868	0.628750	0.826791
	C12348	C	0.892088	0.630784	0.671858
	C12349	C	0.964861	0.628885	0.673233
	C12350	C	0.933223	0.607551	0.826282
	C12351	C	1.002333	0.672272	0.825965
	C12352	C	0.905232	0.657293	1.000087
	C12353	C	0.967683	0.594684	0.499277
	C12354	C	0.935497	0.635186	0.999579
	C12355	C	0.998011	0.572682	0.499040
	C12356	C	0.928154	0.609344	0.748947
	C12357	C	0.998047	0.667121	0.749792
	C12358	C	0.897334	0.629794	0.749167
	C12359	C	0.969282	0.633725	0.750333
	C12360	C	0.913068	0.652151	1.000149
	C12361	C	0.975534	0.589555	0.499366
	C12362	C	0.928192	0.641549	0.999806
	C12363	C	0.990693	0.579016	0.498887
	C12364	C	0.920301	0.614425	0.748957
	C12365	C	0.990853	0.658533	0.750178
	C12366	C	0.905413	0.625390	0.749004
	C12367	C	0.976661	0.641991	0.750363
	C12368	C	0.916993	0.649496	0.917790
	C12369	C	0.979405	0.586746	0.916293
	C12370	C	0.924227	0.644315	0.581414
	C12371	C	0.986870	0.581992	0.581446
	C12372	C	0.924286	0.644338	0.917595
	C12373	C	0.986724	0.581656	0.916515
	C12374	C	0.916909	0.649396	0.581299
	C12375	C	0.979537	0.587068	0.581648
	C12376	C	0.916489	0.617282	0.665406
	C12377	C	0.987385	0.653991	0.772075
	C12378	C	0.909304	0.622710	0.832690
	C12379	C	0.980190	0.646462	0.728217
	C12380	C	0.909275	0.622572	0.665470
	C12381	C	0.980467	0.645958	0.772548
	C12382	C	0.916542	0.617448	0.832378
	C12383	C	0.987076	0.654542	0.728427
	N12384	N	0.894006	0.665481	0.951229
	N12385	N	0.956445	0.602877	0.950748
	N12386	N	0.945005	0.623840	0.546859
	N12387	N	1.007483	0.561214	0.547340
	N12388	N	0.945025	0.623806	0.951318
	N12389	N	1.007554	0.561374	0.951896
	N12390	N	0.893865	0.665350	0.547389
	N12391	N	0.956490	0.602992	0.547838
	N12392	N	0.940991	0.606050	0.699955
	N12393	N	1.008316	0.680157	0.701718
	N12394	N	0.884211	0.631473	0.798076
	N12395	N	0.958405	0.621608	0.797316
	N12396	N	0.884217	0.631533	0.700633
	N12397	N	0.958399	0.621679	0.701954
	N12398	N	0.940963	0.605903	0.798073
	N12399	N	1.008437	0.680015	0.796662
	H12400	H	0.904727	0.800471	0.350909
	H12401	H	0.967214	0.738114	0.351062
	H12402	H	0.938209	0.767851	0.148043
	H12403	H	1.001092	0.706163	0.146961
	H12404	H	0.938507	0.768394	0.351422
	H12405	H	1.000887	0.705836	0.350956
	H12406	H	0.904743	0.800520	0.147931
	H12407	H	0.967517	0.738572	0.147509
	H12408	H	0.938660	0.733341	0.099883
	H12409	H	0.995940	0.822566	0.101057
	H12410	H	0.903441	0.692639	0.398778
	H12411	H	0.966221	0.774294	0.399808
	H12412	H	0.903510	0.692466	0.098776
	H12413	H	0.966047	0.774574	0.100571
	H12414	H	0.938409	0.733517	0.397717
	H12415	H	0.995707	0.822833	0.398922
	H12416	H	0.915585	0.790010	0.551733
	H12417	H	0.978235	0.727776	0.384294
	H12418	H	0.927196	0.778020	-0.038677
	H12419	H	0.989915	0.716160	-0.016024
	H12420	H	0.927345	0.778639	0.551989
	H12421	H	0.990125	0.716624	0.383810
	H12422	H	0.915327	0.789195	-0.039084
	H12423	H	0.978148	0.727457	-0.015759
	H12424	H	0.927131	0.719971	0.146029
	H12425	H	0.985119	0.808042	0.143938
	H12426	H	0.915316	0.705383	0.350620
	H12427	H	0.976920	0.788990	0.357804
	H12428	H	0.914862	0.705921	0.146142
	H12429	H	0.974807	0.791345	0.143207
	H12430	H	0.927468	0.719550	0.350775
	H12431	H	0.987275	0.805732	0.357655
	Co12432	Co	1.008792	0.844284	0.125232
	Co12433	Co	0.952960	0.753265	0.124796
	Co12434	Co	0.887600	0.674956	0.373839
	Co12435	Co	0.952873	0.753178	0.374574
	C12436	C	0.903650	0.801615	0.423552
	C12437	C	0.966194	0.739237	0.423848
	C12438	C	0.939487	0.767082	0.075353
	C12439	C	1.002181	0.704914	0.074891
	C12440	C	0.939646	0.767379	0.424001
	C12441	C	1.002091	0.704778	0.423318
	C12442	C	0.903676	0.801676	0.075404
	C12443	C	0.966301	0.739417	0.075163
	C12444	C	0.939754	0.734835	0.172788
	C12445	C	0.996890	0.824185	0.173863
	C12446	C	0.902318	0.691313	0.325500
	C12447	C	0.965162	0.772787	0.326585
	C12448	C	0.902357	0.691227	0.172353
	C12449	C	0.965090	0.772913	0.173585
	C12450	C	0.939613	0.734919	0.325065
	C12451	C	0.996765	0.824351	0.325996
	C12452	C	0.907808	0.797741	0.499910
	C12453	C	0.970313	0.735203	-0.001200
	C12454	C	0.935555	0.771323	0.500130
	C12455	C	0.998019	0.708827	-0.001340
	C12456	C	0.935503	0.729637	0.248612
	C12457	C	0.993212	0.818285	0.250171
	C12458	C	0.906704	0.696180	0.248646
	C12459	C	0.968802	0.778796	0.250241
	C12460	C	0.914854	0.791031	0.500122
	C12461	C	0.977335	0.728531	-0.001256
	C12462	C	0.928516	0.778032	0.500328
	C12463	C	0.991008	0.715509	-0.001402
	C12464	C	0.928304	0.721006	0.248373
	C12465	C	0.987062	0.808250	0.250473
	C12466	C	0.914057	0.704526	0.248464
	C12467	C	0.974992	0.788764	0.250616
	C12468	C	0.918253	0.787606	0.529174
	C12469	C	0.980839	0.725243	0.434535
	C12470	C	0.924764	0.780860	-0.022015
	C12471	C	0.987437	0.718733	-0.009566
	C12472	C	0.924893	0.781250	0.529406
	C12473	C	0.987523	0.718924	0.434687
	C12474	C	0.918086	0.787144	-0.022296
	C12475	C	0.980779	0.725102	-0.009384
	C12476	C	0.924578	0.716850	0.191010
	C12477	C	0.983362	0.803855	0.190848
	C12478	C	0.917848	0.708599	0.305769
	C12479	C	0.978688	0.793118	0.310434
	C12480	C	0.917662	0.708851	0.191260
	C12481	C	0.977503	0.794404	0.190770
	C12482	C	0.924758	0.716609	0.305799
	C12483	C	0.984544	0.802598	0.310373
	N12484	N	0.897561	0.807565	0.452396
	N12485	N	0.960125	0.745192	0.452839
	N12486	N	0.945669	0.761284	0.046789
	N12487	N	1.008213	0.698876	0.046504
	N12488	N	0.945779	0.761461	0.452482
	N12489	N	1.008171	0.698840	0.452281
	N12490	N	0.897582	0.807631	0.046725
	N12491	N	0.960201	0.745318	0.046517
	N12492	N	0.945867	0.742575	0.201994
	N12493	N	1.002198	0.833004	0.202291
	N12494	N	0.895872	0.684061	0.296658
	N12495	N	0.959737	0.764134	0.297645
	N12496	N	0.895886	0.684038	0.201736
	N12497	N	0.959695	0.764217	0.202564
	N12498	N	0.945790	0.742611	0.296808
	N12499	N	1.002130	0.833088	0.297121
	H12500	H	0.904849	0.800802	0.849903
	H12501	H	0.967249	0.738039	0.850696
	H12502	H	0.938525	0.768389	0.648374
	H12503	H	1.001019	0.705970	0.647810
	H12504	H	0.938845	0.768956	0.850973
	H12505	H	1.001040	0.705750	0.850200
	H12506	H	0.904997	0.801091	0.648649
	H12507	H	0.967305	0.738139	0.649155
	H12508	H	0.938741	0.733267	0.601218
	H12509	H	0.995944	0.822668	0.600308
	H12510	H	0.903625	0.692439	0.899739
	H12511	H	0.966341	0.774482	0.898562
	H12512	H	0.903506	0.692672	0.599738
	H12513	H	0.966034	0.774779	0.600303
	H12514	H	0.938333	0.733832	0.898837
	H12515	H	0.995924	0.822593	0.898852
	H12516	H	0.916075	0.790948	1.037362
	H12517	H	0.978354	0.727742	1.013587
	H12518	H	0.927777	0.779151	0.448952
	H12519	H	0.990031	0.716365	0.614869
	H12520	H	0.927965	0.779842	1.037848
	H12521	H	0.990124	0.716510	1.013392
	H12522	H	0.915965	0.790373	0.448253
	H12523	H	0.978162	0.727492	0.614351
	H12524	H	0.927913	0.718867	0.742328
	H12525	H	0.985562	0.807929	0.814843
	H12526	H	0.914528	0.706757	0.757331
	H12527	H	0.976543	0.789388	0.683401
	H12528	H	0.915806	0.704566	0.742110
	H12529	H	0.975107	0.791309	0.814687
	H12530	H	0.926722	0.720927	0.757278
	H12531	H	0.987002	0.806001	0.683797
	Co12532	Co	1.008753	0.844367	0.625726
	Co12533	Co	0.952953	0.753293	0.625336
	Co12534	Co	0.887674	0.674975	0.874362
	Co12535	Co	0.952949	0.753348	0.874511
	C12536	C	0.903689	0.801760	0.922693
	C12537	C	0.966156	0.739185	0.922968
	C12538	C	0.939649	0.767343	0.575913
	C12539	C	1.002163	0.704876	0.575661
	C12540	C	0.939810	0.767637	0.923858
	C12541	C	1.002131	0.704700	0.922666
	C12542	C	0.903794	0.801910	0.575942
	C12543	C	0.966225	0.739254	0.576344
	C12544	C	0.939774	0.734825	0.673741
	C12545	C	0.996904	0.824298	0.673217
	C12546	C	0.902429	0.691172	0.826397
	C12547	C	0.965234	0.772932	0.826008
	C12548	C	0.902365	0.691264	0.672922
	C12549	C	0.965077	0.773097	0.673157
	C12550	C	0.939573	0.735112	0.826369
	C12551	C	0.996866	0.824282	0.826241
	C12552	C	0.907786	0.797704	0.998861
	C12553	C	0.970339	0.735269	0.499920
	C12554	C	0.935542	0.771355	0.999519
	C12555	C	0.998042	0.708885	0.499303
	C12556	C	0.935492	0.729689	0.750009
	C12557	C	0.993260	0.818352	0.749600
	C12558	C	0.906808	0.696149	0.749760
	C12559	C	0.968790	0.778957	0.749486
	C12560	C	0.914797	0.790945	0.999012
	C12561	C	0.977322	0.728512	0.499626
	C12562	C	0.928509	0.778046	0.999868
	C12563	C	0.991006	0.715540	0.499587
	C12564	C	0.928309	0.721066	0.749957
	C12565	C	0.987127	0.808325	0.749529
	C12566	C	0.914155	0.704516	0.750196
	C12567	C	0.974991	0.788938	0.749388
	C12568	C	0.918516	0.788110	1.020754
	C12569	C	0.980869	0.725235	1.006866
	C12570	C	0.925099	0.781482	0.471223
	C12571	C	0.987476	0.718782	0.564236
	C12572	C	0.925209	0.781859	1.021310
	C12573	C	0.987546	0.718904	1.006732
	C12574	C	0.918459	0.787826	0.471144
	C12575	C	0.980805	0.725112	0.564535
	C12576	C	0.925038	0.716215	0.745665
	C12577	C	0.983601	0.803898	0.786245
	C12578	C	0.917452	0.709309	0.754292
	C12579	C	0.978499	0.793398	0.712464
	C12580	C	0.918150	0.708165	0.745744
	C12581	C	0.977686	0.794491	0.786040
	C12582	C	0.924332	0.717368	0.754213
	C12583	C	0.984422	0.802799	0.712574
	N12584	N	0.897607	0.807707	0.951922
	N12585	N	0.960128	0.745212	0.951974
	N12586	N	0.945767	0.761407	0.547094
	N12587	N	1.008200	0.698893	0.546907
	N12588	N	0.945853	0.761616	0.952621
	N12589	N	1.008186	0.698730	0.951973
	N12590	N	0.897637	0.807716	0.547121
	N12591	N	0.960144	0.745191	0.547576
	N12592	N	0.945852	0.742657	0.702547
	N12593	N	1.002202	0.833110	0.702410
	N12594	N	0.895965	0.683980	0.797186
	N12595	N	0.959798	0.764273	0.797156
	N12596	N	0.895927	0.684020	0.701927
	N12597	N	0.959721	0.764350	0.702050
	N12598	N	0.945749	0.742804	0.797624
	N12599	N	1.002173	0.833092	0.797363
	H12600	H	0.898267	0.954314	0.351862
	H12601	H	0.960812	0.891866	0.351649
	H12602	H	0.931633	0.921529	0.149721
	H12603	H	0.994188	0.859139	0.150142
	H12604	H	0.931721	0.921646	0.352240
	H12605	H	0.994114	0.859102	0.351612
	H12606	H	0.898290	0.954345	0.148969
	H12607	H	0.960726	0.891644	0.149029
	H12608	H	0.933456	0.884974	0.100860
	H12609	H	0.987314	0.978164	0.102432
	H12610	H	0.903552	0.836863	0.399502
	H12611	H	0.958952	0.928415	0.399838
	H12612	H	0.903606	0.837036	0.100415
	H12613	H	0.958740	0.928835	0.101053
	H12614	H	0.933408	0.884946	0.398845
	H12615	H	0.987366	0.978037	0.400133
	H12616	H	0.909140	0.943797	0.547151
	H12617	H	0.971367	0.880664	0.501045
	H12618	H	0.920946	0.932434	0.014304
	H12619	H	0.983323	0.869680	0.010188
	H12620	H	0.920810	0.932225	0.546928
	H12621	H	0.983057	0.869272	0.500621
	H12622	H	0.909260	0.943874	0.013523
	H12623	H	0.971587	0.881071	0.010178
	H12624	H	0.924136	0.868791	0.185176
	H12625	H	0.978712	0.961213	0.339678
	H12626	H	0.912835	0.853147	0.315687
	H12627	H	0.967455	0.945566	0.162421
	H12628	H	0.913756	0.852140	0.185747
	H12629	H	0.968840	0.943966	0.339453
	H12630	H	0.923239	0.869821	0.314916
	H12631	H	0.977368	0.962706	0.162176
	Co12632	Co	0.999908	1.000010	0.126550
	Co12633	Co	0.946256	0.906688	0.125935
	Co12634	Co	0.890370	0.815649	0.374293
	Co12635	Co	0.946192	0.906717	0.374956
	C12636	C	0.897195	0.955509	0.424725
	C12637	C	0.959695	0.893039	0.424134
	C12638	C	0.932785	0.920462	0.077067
	C12639	C	0.995278	0.858034	0.076729
	C12640	C	0.932767	0.920502	0.424841
	C12641	C	0.995288	0.858004	0.423963
	C12642	C	0.897220	0.955536	0.076317
	C12643	C	0.959692	0.892938	0.076348
	C12644	C	0.934419	0.886602	0.173733
	C12645	C	0.988280	0.979740	0.174983
	C12646	C	0.902585	0.835333	0.326239
	C12647	C	0.957930	0.926876	0.327023
	C12648	C	0.902634	0.835414	0.173405
	C12649	C	0.957837	0.927080	0.174094
	C12650	C	0.934375	0.886624	0.326145
	C12651	C	0.988329	0.979682	0.327368
	C12652	C	0.901304	0.951516	0.501099
	C12653	C	0.963823	0.888977	0.000262
	C12654	C	0.928658	0.924525	0.501064
	C12655	C	0.991200	0.862106	0.000375
	C12656	C	0.930745	0.880663	0.250007
	C12657	C	0.984789	0.973630	0.251203
	C12658	C	0.906289	0.841288	0.250150
	C12659	C	0.961393	0.933082	0.250764
	C12660	C	0.908232	0.944660	0.501242
	C12661	C	0.970741	0.882111	0.000294
	C12662	C	0.921724	0.931369	0.501312
	C12663	C	0.984281	0.868948	0.000420
	C12664	C	0.924557	0.870696	0.249676
	C12665	C	0.978843	0.963378	0.251247
	C12666	C	0.912479	0.851254	0.250338
	C12667	C	0.967325	0.943345	0.251126
	C12668	C	0.911683	0.941253	0.527029
	C12669	C	0.974050	0.878479	0.500698
	C12670	C	0.918334	0.934823	0.008521
	C12671	C	0.980780	0.872228	0.005824
	C12672	C	0.918276	0.934774	0.527055
	C12673	C	0.980636	0.871985	0.500490
	C12674	C	0.911740	0.941286	0.008303
	C12675	C	0.974173	0.878664	0.006017
	C12676	C	0.921707	0.865430	0.213473
	C12677	C	0.976254	0.957795	0.300977
	C12678	C	0.915320	0.856534	0.286825
	C12679	C	0.969913	0.948933	0.201464
	C12680	C	0.915814	0.856007	0.213542
	C12681	C	0.970657	0.948062	0.300832
	C12682	C	0.921194	0.865977	0.286399
	C12683	C	0.975508	0.958670	0.201678
	N12684	N	0.891181	0.961560	0.453377
	N12685	N	0.953686	0.899090	0.452900
	N12686	N	0.938829	0.914447	0.048101
	N12687	N	1.001306	0.852004	0.047718
	N12688	N	0.938814	0.914492	0.453582
	N12689	N	1.001313	0.851986	0.452703
	N12690	N	0.891204	0.961564	0.047587
	N12691	N	0.953710	0.899051	0.047641
	N12692	N	0.939708	0.895406	0.202687
	N12693	N	0.993461	0.988663	0.203712
	N12694	N	0.897174	0.826658	0.297040
	N12695	N	0.952741	0.917968	0.297709
	N12696	N	0.897206	0.826713	0.202120
	N12697	N	0.952697	0.918075	0.202671
	N12698	N	0.939668	0.895406	0.297499
	N12699	N	0.993492	0.988649	0.298469
	H12700	H	0.898364	0.954397	0.851687
	H12701	H	0.961013	0.892210	0.851381
	H12702	H	0.931689	0.921516	0.649886
	H12703	H	0.994141	0.859173	0.648266
	H12704	H	0.931740	0.921700	0.851450
	H12705	H	0.994109	0.859000	0.850551
	H12706	H	0.898400	0.954528	0.649926
	H12707	H	0.960846	0.891997	0.649546
	H12708	H	0.933507	0.885036	0.602397
	H12709	H	0.987380	0.978266	0.601430
	H12710	H	0.903640	0.837156	0.898322
	H12711	H	0.959019	0.928615	0.899630
	H12712	H	0.903749	0.836893	0.600142
	H12713	H	0.958683	0.928904	0.601140
	H12714	H	0.933219	0.885329	0.900119
	H12715	H	0.987434	0.978042	0.899835
	H12716	H	0.909082	0.943599	0.986696
	H12717	H	0.971723	0.881309	0.991110
	H12718	H	0.920863	0.932312	0.455466
	H12719	H	0.983608	0.870376	0.499047
	H12720	H	0.920739	0.932136	0.987030
	H12721	H	0.983436	0.869926	0.990572
	H12722	H	0.909205	0.943740	0.455690
	H12723	H	0.971971	0.881801	0.499810
	H12724	H	0.924073	0.869047	0.735820
	H12725	H	0.977995	0.962136	0.648975
	H12726	H	0.913174	0.852955	0.765057
	H12727	H	0.968266	0.944681	0.852428
	H12728	H	0.913635	0.852328	0.735105
	H12729	H	0.968095	0.944995	0.648719
	H12730	H	0.923447	0.869731	0.765520
	H12731	H	0.978196	0.961831	0.852324
	Co12732	Co	0.999928	1.000109	0.626244
	Co12733	Co	0.946238	0.906771	0.625763
	Co12734	Co	0.890367	0.815805	0.874271
	Co12735	Co	0.946286	0.906823	0.875130
	C12736	C	0.897240	0.955548	0.924130
	C12737	C	0.959821	0.893219	0.924155
	C12738	C	0.932778	0.920462	0.577160
	C12739	C	0.995303	0.858042	0.575892
	C12740	C	0.932823	0.920543	0.924352
	C12741	C	0.995240	0.857960	0.923826
	C12742	C	0.897232	0.955627	0.577170
	C12743	C	0.959719	0.893117	0.576704
	C12744	C	0.934460	0.886669	0.674757
	C12745	C	0.988298	0.979845	0.674440
	C12746	C	0.902613	0.835452	0.825831
	C12747	C	0.957960	0.927009	0.826875
	C12748	C	0.902687	0.835330	0.673156
	C12749	C	0.957796	0.927157	0.673912
	C12750	C	0.934329	0.886824	0.827331
	C12751	C	0.988336	0.979749	0.826979
	C12752	C	0.901319	0.951475	1.000260
	C12753	C	0.963815	0.889011	0.500532
	C12754	C	0.928713	0.924572	1.000764
	C12755	C	0.991207	0.862099	0.500021
	C12756	C	0.930817	0.880695	0.751051
	C12757	C	0.984815	0.973685	0.750639
	C12758	C	0.906334	0.841295	0.749467
	C12759	C	0.961402	0.933165	0.750313
	C12760	C	0.908237	0.944615	1.000478
	C12761	C	0.970740	0.882188	0.500511
	C12762	C	0.921754	0.931368	1.000831
	C12763	C	0.984276	0.868905	0.500002
	C12764	C	0.924599	0.870753	0.750723
	C12765	C	0.978886	0.963433	0.750714
	C12766	C	0.912543	0.851278	0.749707
	C12767	C	0.967344	0.943403	0.750371
	C12768	C	0.911660	0.941151	0.992750
	C12769	C	0.974232	0.878817	0.995232
	C12770	C	0.918285	0.934770	0.475575
	C12771	C	0.980959	0.872596	0.499543
	C12772	C	0.918235	0.934663	0.993029
	C12773	C	0.980835	0.872381	0.995156
	C12774	C	0.911720	0.941280	0.475645
	C12775	C	0.974360	0.879072	0.499822
	C12776	C	0.921643	0.865572	0.742297
	C12777	C	0.975888	0.958345	0.693791
	C12778	C	0.915483	0.856487	0.758304
	C12779	C	0.970353	0.948462	0.807689
	C12780	C	0.915786	0.856085	0.741845
	C12781	C	0.970257	0.948637	0.693593
	C12782	C	0.921340	0.865972	0.759029
	C12783	C	0.975975	0.958192	0.807705
	N12784	N	0.891203	0.961572	0.952853
	N12785	N	0.953808	0.899227	0.953140
	N12786	N	0.938788	0.914451	0.547982
	N12787	N	1.001337	0.852035	0.547113
	N12788	N	0.938845	0.914502	0.953193
	N12789	N	1.001274	0.851953	0.952867
	N12790	N	0.891210	0.961641	0.548247
	N12791	N	0.953690	0.899119	0.547648
	N12792	N	0.939743	0.895520	0.703619
	N12793	N	0.993458	0.988792	0.703472
	N12794	N	0.897206	0.826749	0.797326
	N12795	N	0.952751	0.918115	0.797927
	N12796	N	0.897226	0.826688	0.702183
	N12797	N	0.952656	0.918199	0.702795
	N12798	N	0.939675	0.895599	0.798387
	N12799	N	0.993457	0.988738	0.798283
