data_Molecule from HDF5

_cell_length_a		150.377511
_cell_length_b		150.379831
_cell_length_c		14.151577
_cell_angle_alpha	89.998643
_cell_angle_beta	89.986415
_cell_angle_gamma	90.006746
_symmetry_space_group_name_H-M	'P 1'
_symmetry_Int_Tables_number		1

loop_
	_symmetry_equiv_pos_as_xyz
	x,y,z

loop_
	_atom_site_label
	_atom_site_type_symbol
	_atom_site_fract_x
	_atom_site_fract_y
	_atom_site_fract_z
	H0	H	0.014642	0.110211	0.350541
	H1	H	0.077217	0.047901	0.351212
	H2	H	0.047653	0.077052	0.149480
	H3	H	0.110372	0.014619	0.149450
	H4	H	0.047877	0.077274	0.352197
	H5	H	0.110166	0.014546	0.351660
	H6	H	0.014581	0.110281	0.149128
	H7	H	0.077041	0.047668	0.148506
	H8	H	0.047929	0.047592	0.101338
	H9	H	0.110358	0.110334	0.100848
	H10	H	0.014594	0.014802	0.398854
	H11	H	0.077057	0.077252	0.398549
	H12	H	0.014692	0.014547	0.100781
	H13	H	0.077177	0.077043	0.100316
	H14	H	0.047713	0.047988	0.399126
	H15	H	0.110251	0.110321	0.398373
	H16	H	0.024796	0.098909	0.618246
	H17	H	0.087874	0.036914	0.552777
	H18	H	0.036889	0.087868	-0.100601
	H19	H	0.099940	0.025769	0.012235
	H20	H	0.036348	0.087408	0.618908
	H21	H	0.099382	0.025378	0.553108
	H22	H	0.025354	0.099369	-0.100263
	H23	H	0.088476	0.037287	0.012178
	H24	H	0.037820	0.036167	0.330541
	H25	H	0.099815	0.099167	0.240958
	H26	H	0.024632	0.026317	0.171213
	H27	H	0.087715	0.088232	0.257538
	H28	H	0.026344	0.024613	0.329078
	H29	H	0.088262	0.087634	0.240462
	H30	H	0.036165	0.037886	0.171648
	H31	H	0.099214	0.099808	0.257718
	Co32	Co	0.125063	0.125023	0.124641
	Co33	Co	0.062502	0.062437	0.124290
	Co34	Co	-0.000016	0.000013	0.375139
	Co35	Co	0.062480	0.062525	0.374874
	C36	C	0.013525	0.111343	0.423490
	C37	C	0.076070	0.048979	0.423855
	C38	C	0.048843	0.075973	0.076680
	C39	C	0.111457	0.013491	0.076711
	C40	C	0.048988	0.076111	0.424639
	C41	C	0.111321	0.013440	0.424462
	C42	C	0.013475	0.111382	0.076230
	C43	C	0.075991	0.048846	0.076022
	C44	C	0.048993	0.048849	0.174017
	C45	C	0.111464	0.111459	0.173341
	C46	C	0.013547	0.013572	0.325920
	C47	C	0.076063	0.076090	0.325808
	C48	C	0.013575	0.013471	0.173617
	C49	C	0.076111	0.075992	0.173215
	C50	C	0.048890	0.049007	0.326510
	C51	C	0.111408	0.111442	0.325704
	C52	C	0.017560	0.107246	0.499746
	C53	C	0.080169	0.044805	0.000136
	C54	C	0.044869	0.080130	0.500664
	C55	C	0.107340	0.017552	0.000729
	C56	C	0.044836	0.044875	0.250453
	C57	C	0.107374	0.107358	0.249344
	C58	C	0.017643	0.017629	0.249696
	C59	C	0.080167	0.080126	0.249380
	C60	C	0.024450	0.100351	0.499818
	C61	C	0.087046	0.037902	0.000513
	C62	C	0.037937	0.086978	0.500443
	C63	C	0.100489	0.024469	0.000664
	C64	C	0.037948	0.037997	0.250948
	C65	C	0.100483	0.100448	0.249392
	C66	C	0.024512	0.024531	0.249838
	C67	C	0.087067	0.087029	0.249305
	C68	C	0.027581	0.096623	0.566511
	C69	C	0.090402	0.034458	0.529627
	C70	C	0.034400	0.090383	-0.056116
	C71	C	0.097281	0.028125	0.007114
	C72	C	0.034142	0.090129	0.566749
	C73	C	0.096911	0.027915	0.529833
	C74	C	0.027878	0.096914	-0.056163
	C75	C	0.090746	0.034650	0.006843
	C76	C	0.034953	0.034054	0.295602
	C77	C	0.097187	0.096842	0.244782
	C78	C	0.027515	0.028437	0.205769
	C79	C	0.090381	0.090623	0.253962
	C80	C	0.028429	0.027525	0.294853
	C81	C	0.090676	0.090307	0.244652
	C82	C	0.034022	0.035002	0.206270
	C83	C	0.096864	0.097180	0.253825
	N84	N	0.007522	0.117364	0.452019
	N85	N	0.070009	0.054945	0.452403
	N86	N	0.054909	0.070013	0.047740
	N87	N	0.117465	0.007490	0.047954
	N88	N	0.054993	0.070088	0.452865
	N89	N	0.117348	0.007467	0.453094
	N90	N	0.007480	0.117391	0.047349
	N91	N	0.070028	0.054865	0.047134
	N92	N	0.055011	0.054859	0.202410
	N93	N	0.117478	0.117462	0.202286
	N94	N	0.007576	0.007527	0.297483
	N95	N	0.070057	0.070048	0.296871
	N96	N	0.007587	0.007472	0.202729
	N97	N	0.070098	0.069994	0.202186
	N98	N	0.054947	0.054959	0.297414
	N99	N	0.117442	0.117430	0.297274
	H100	H	0.014750	0.110339	0.851244
	H101	H	0.077337	0.047888	0.851775
	H102	H	0.047817	0.077134	0.649248
	H103	H	0.110351	0.014762	0.648950
	H104	H	0.047908	0.077270	0.851100
	H105	H	0.110335	0.014532	0.851997
	H106	H	0.014636	0.110299	0.648672
	H107	H	0.077064	0.047799	0.648459
	H108	H	0.047950	0.047775	0.600722
	H109	H	0.110345	0.110312	0.601770
	H110	H	0.014689	0.014556	0.898748
	H111	H	0.077248	0.077105	0.898715
	H112	H	0.014706	0.014611	0.601094
	H113	H	0.077273	0.077121	0.601609
	H114	H	0.047771	0.047914	0.899285
	H115	H	0.110353	0.110375	0.898586
	H116	H	0.025410	0.099425	1.101010
	H117	H	0.087595	0.036612	0.989004
	H118	H	0.037546	0.088433	0.381868
	H119	H	0.099504	0.025572	0.447010
	H120	H	0.036913	0.087906	1.101226
	H121	H	0.099082	0.025069	0.989194
	H122	H	0.025920	0.099893	0.381753
	H123	H	0.088010	0.037104	0.446231
	H124	H	0.036594	0.037413	0.696363
	H125	H	0.099985	0.099122	0.753641
	H126	H	0.025934	0.024975	0.802191
	H127	H	0.087512	0.088515	0.747549
	H128	H	0.025077	0.025883	0.696535
	H129	H	0.088428	0.087580	0.752996
	H130	H	0.037436	0.036522	0.802141
	H131	H	0.099018	0.100040	0.747397
	Co132	Co	0.125061	0.125016	0.624958
	Co133	Co	0.062572	0.062523	0.625093
	Co134	Co	0.000024	-0.000033	0.875333
	Co135	Co	0.062559	0.062502	0.875091
	C136	C	0.013583	0.111429	0.923885
	C137	C	0.076164	0.048961	0.924031
	C138	C	0.048963	0.076037	0.576473
	C139	C	0.111387	0.013568	0.576320
	C140	C	0.048978	0.076080	0.924045
	C141	C	0.111439	0.013441	0.924530
	C142	C	0.013514	0.111363	0.575834
	C143	C	0.075980	0.048924	0.575635
	C144	C	0.049028	0.048905	0.673563
	C145	C	0.111480	0.111451	0.674234
	C146	C	0.013606	0.013470	0.825858
	C147	C	0.076102	0.076049	0.826226
	C148	C	0.013602	0.013512	0.673867
	C149	C	0.076128	0.076060	0.674131
	C150	C	0.048920	0.048975	0.826061
	C151	C	0.111462	0.111477	0.826391
	C152	C	0.017587	0.107290	1.000218
	C153	C	0.080105	0.044860	0.499738
	C154	C	0.044817	0.080110	1.000379
	C155	C	0.107258	0.017584	0.500220
	C156	C	0.044888	0.044824	0.749720
	C157	C	0.107389	0.107375	0.750284
	C158	C	0.017664	0.017573	0.749835
	C159	C	0.080162	0.080181	0.750195
	C160	C	0.024463	0.100394	1.000060
	C161	C	0.087015	0.037992	0.499686
	C162	C	0.037905	0.086980	1.000195
	C163	C	0.100404	0.024514	0.500051
	C164	C	0.037988	0.037936	0.749522
	C165	C	0.100472	0.100507	0.750301
	C166	C	0.024541	0.024471	0.749369
	C167	C	0.087063	0.087063	0.750192
	C168	C	0.027914	0.096938	1.056552
	C169	C	0.090264	0.034248	0.994032
	C170	C	0.034762	0.090671	0.433768
	C171	C	0.097006	0.028031	0.470163
	C172	C	0.034426	0.090389	1.056636
	C173	C	0.096800	0.027716	0.994065
	C174	C	0.028210	0.097175	0.433385
	C175	C	0.090489	0.034570	0.469898
	C176	C	0.034297	0.034717	0.719995
	C177	C	0.097274	0.096814	0.751822
	C178	C	0.028234	0.027697	0.778899
	C179	C	0.090241	0.090792	0.748687
	C180	C	0.027773	0.028185	0.719781
	C181	C	0.090755	0.090269	0.752030
	C182	C	0.034760	0.034237	0.778749
	C183	C	0.096754	0.097329	0.748878
	N184	N	0.007544	0.117428	0.952402
	N185	N	0.070136	0.054946	0.952380
	N186	N	0.055008	0.070074	0.547787
	N187	N	0.117387	0.007543	0.547940
	N188	N	0.054955	0.070051	0.952793
	N189	N	0.117456	0.007459	0.953162
	N190	N	0.007516	0.117398	0.546829
	N191	N	0.069994	0.054938	0.546982
	N192	N	0.055001	0.054937	0.702473
	N193	N	0.117475	0.117485	0.702815
	N194	N	0.007596	0.007463	0.797246
	N195	N	0.070129	0.070015	0.797468
	N196	N	0.007588	0.007500	0.702426
	N197	N	0.070130	0.070041	0.702874
	N198	N	0.054934	0.054972	0.797441
	N199	N	0.117445	0.117505	0.797478
	H200	H	0.014643	0.235166	0.350633
	H201	H	0.077066	0.172620	0.350487
	H202	H	0.047862	0.202177	0.148743
	H203	H	0.110225	0.139587	0.148623
	H204	H	0.047751	0.202142	0.350688
	H205	H	0.110253	0.139527	0.351375
	H206	H	0.014422	0.235248	0.148770
	H207	H	0.077071	0.172811	0.149345
	H208	H	0.047795	0.172795	0.100502
	H209	H	0.110449	0.235147	0.101803
	H210	H	0.014566	0.139627	0.399166
	H211	H	0.077201	0.202086	0.398272
	H212	H	0.014657	0.139518	0.100472
	H213	H	0.077122	0.202134	0.100214
	H214	H	0.047822	0.172737	0.398588
	H215	H	0.110211	0.235432	0.398293
	H216	H	0.025762	0.224885	0.494633
	H217	H	0.087871	0.161757	0.426878
	H218	H	0.037377	0.213435	0.053125
	H219	H	0.099841	0.150776	-0.047206
	H220	H	0.037285	0.213387	0.493716
	H221	H	0.099451	0.150255	0.427485
	H222	H	0.025879	0.224944	0.053029
	H223	H	0.088277	0.162219	-0.046858
	H224	H	0.036639	0.162277	0.289545
	H225	H	0.099219	0.224749	0.361938
	H226	H	0.025774	0.150041	0.210586
	H227	H	0.088269	0.212755	0.138216
	H228	H	0.025122	0.150727	0.289850
	H229	H	0.087726	0.213178	0.360684
	H230	H	0.037279	0.161574	0.210404
	H231	H	0.099745	0.224295	0.139201
	Co232	Co	0.124955	0.249956	0.124649
	Co233	Co	0.062445	0.187483	0.124638
	Co234	Co	-0.000036	0.124912	0.374784
	Co235	Co	0.062524	0.187455	0.374390
	C236	C	0.013553	0.236363	0.423670
	C237	C	0.076007	0.173821	0.423437
	C238	C	0.048949	0.201075	0.075846
	C239	C	0.111389	0.138503	0.076247
	C240	C	0.048882	0.200998	0.423284
	C241	C	0.111392	0.138507	0.424165
	C242	C	0.013425	0.236372	0.076120
	C243	C	0.075970	0.173895	0.076092
	C244	C	0.048923	0.173888	0.173304
	C245	C	0.111503	0.236332	0.174169
	C246	C	0.013501	0.138508	0.326011
	C247	C	0.076086	0.200975	0.325249
	C248	C	0.013540	0.138449	0.173677
	C249	C	0.076051	0.201019	0.173184
	C250	C	0.048935	0.173871	0.325650
	C251	C	0.111379	0.236477	0.325887
	C252	C	0.017653	0.232361	0.500096
	C253	C	0.080081	0.169732	0.000017
	C254	C	0.044761	0.205081	0.499382
	C255	C	0.107323	0.142623	0.000193
	C256	C	0.044854	0.169769	0.249545
	C257	C	0.107348	0.232336	0.250128
	C258	C	0.017631	0.142557	0.249718
	C259	C	0.080203	0.205072	0.249198
	C260	C	0.024510	0.225460	0.500256
	C261	C	0.086975	0.162874	0.000110
	C262	C	0.037910	0.211993	0.499803
	C263	C	0.100461	0.149515	-0.000063
	C264	C	0.037943	0.162888	0.249476
	C265	C	0.100435	0.225480	0.250035
	C266	C	0.024520	0.149457	0.249695
	C267	C	0.087047	0.211998	0.249097
	C268	C	0.028135	0.222202	0.497093
	C269	C	0.090438	0.159370	0.459463
	C270	C	0.034742	0.215758	0.029806
	C271	C	0.097170	0.153128	-0.026252
	C272	C	0.034656	0.215663	0.496715
	C273	C	0.096948	0.152839	0.459651
	C274	C	0.028178	0.222251	0.029901
	C275	C	0.090605	0.159632	-0.026101
	C276	C	0.034305	0.159645	0.272053
	C277	C	0.096840	0.222133	0.312411
	C278	C	0.028131	0.152720	0.227478
	C279	C	0.090617	0.215351	0.187173
	C280	C	0.027785	0.153098	0.272141
	C281	C	0.090308	0.215596	0.311681
	C282	C	0.034641	0.159260	0.227403
	C283	C	0.097130	0.221889	0.187308
	N284	N	0.007550	0.242401	0.451913
	N285	N	0.070039	0.179893	0.451806
	N286	N	0.054912	0.195027	0.046903
	N287	N	0.117423	0.132517	0.047583
	N288	N	0.054909	0.195012	0.451941
	N289	N	0.117463	0.132529	0.452647
	N290	N	0.007466	0.242407	0.047164
	N291	N	0.069992	0.179884	0.047035
	N292	N	0.054895	0.179920	0.201914
	N293	N	0.117494	0.242371	0.202490
	N294	N	0.007482	0.132501	0.297272
	N295	N	0.070057	0.195008	0.296587
	N296	N	0.007513	0.132468	0.202572
	N297	N	0.070057	0.195019	0.201858
	N298	N	0.054913	0.179903	0.296990
	N299	N	0.117437	0.242449	0.297149
	H300	H	0.014819	0.235463	0.851584
	H301	H	0.077099	0.172713	0.850629
	H302	H	0.047810	0.202192	0.647947
	H303	H	0.110461	0.139714	0.648598
	H304	H	0.047882	0.202202	0.850615
	H305	H	0.110423	0.139773	0.851552
	H306	H	0.014615	0.235393	0.649321
	H307	H	0.077350	0.173007	0.648457
	H308	H	0.047771	0.172909	0.599505
	H309	H	0.110318	0.235232	0.600725
	H310	H	0.014698	0.139540	0.897821
	H311	H	0.077203	0.202001	0.897997
	H312	H	0.014406	0.139822	0.600321
	H313	H	0.077141	0.202099	0.599895
	H314	H	0.047719	0.172755	0.898278
	H315	H	0.110238	0.235280	0.898634
	H316	H	0.025095	0.224016	0.947672
	H317	H	0.087610	0.161601	1.047274
	H318	H	0.036623	0.212606	0.505976
	H319	H	0.099544	0.150578	0.573925
	H320	H	0.036675	0.212568	0.947062
	H321	H	0.099186	0.150146	1.046505
	H322	H	0.025173	0.224134	0.506421
	H323	H	0.088078	0.162115	0.573574
	H324	H	0.036807	0.162171	0.789014
	H325	H	0.098405	0.225451	0.839476
	H326	H	0.025494	0.150313	0.708711
	H327	H	0.089000	0.211933	0.660570
	H328	H	0.025347	0.150592	0.789599
	H329	H	0.086879	0.213948	0.838920
	H330	H	0.037125	0.161782	0.708409
	H331	H	0.100499	0.223463	0.660556
	Co332	Co	0.124878	0.250032	0.624939
	Co333	Co	0.062483	0.187445	0.624301
	Co334	Co	-0.000044	0.124946	0.874541
	Co335	Co	0.062521	0.187452	0.874251
	C336	C	0.013606	0.236459	0.924037
	C337	C	0.075999	0.173847	0.923647
	C338	C	0.048892	0.201002	0.575372
	C339	C	0.111516	0.138612	0.575759
	C340	C	0.048955	0.201076	0.923371
	C341	C	0.111470	0.138579	0.924141
	C342	C	0.013540	0.236462	0.576089
	C343	C	0.076161	0.174012	0.575640
	C344	C	0.048874	0.173991	0.672715
	C345	C	0.111428	0.236354	0.673614
	C346	C	0.013573	0.138464	0.825116
	C347	C	0.076089	0.200944	0.825333
	C348	C	0.013418	0.138593	0.673101
	C349	C	0.076077	0.200992	0.673052
	C350	C	0.048859	0.173943	0.825295
	C351	C	0.111368	0.236388	0.825644
	C352	C	0.017603	0.232307	1.000311
	C353	C	0.080132	0.169827	0.499810
	C354	C	0.044892	0.205174	0.999776
	C355	C	0.107362	0.142598	0.500067
	C356	C	0.044757	0.169886	0.748751
	C357	C	0.107310	0.232305	0.749535
	C358	C	0.017579	0.142617	0.748896
	C359	C	0.080169	0.205053	0.749241
	C360	C	0.024521	0.225455	1.000336
	C361	C	0.087029	0.162926	0.500351
	C362	C	0.037984	0.212059	1.000067
	C363	C	0.100437	0.149489	0.500482
	C364	C	0.037891	0.162962	0.748737
	C365	C	0.100410	0.225435	0.749667
	C366	C	0.024463	0.149526	0.748686
	C367	C	0.087027	0.211963	0.749458
	C368	C	0.027780	0.221764	0.970927
	C369	C	0.090245	0.159274	1.026439
	C370	C	0.034320	0.215257	0.503220
	C371	C	0.097026	0.153049	0.541654
	C372	C	0.034299	0.215239	0.970632
	C373	C	0.096823	0.152786	1.026268
	C374	C	0.027801	0.221783	0.503549
	C375	C	0.090518	0.159562	0.541543
	C376	C	0.034393	0.159581	0.771400
	C377	C	0.096370	0.222535	0.800009
	C378	C	0.027989	0.152890	0.726051
	C379	C	0.091025	0.214882	0.699586
	C380	C	0.027870	0.153053	0.771555
	C381	C	0.089883	0.215983	0.799960
	C382	C	0.034526	0.159420	0.726304
	C383	C	0.097527	0.221417	0.699460
	N384	N	0.007573	0.242466	0.952359
	N385	N	0.070009	0.179857	0.952161
	N386	N	0.054900	0.195017	0.546733
	N387	N	0.117540	0.132602	0.547218
	N388	N	0.054920	0.195027	0.951872
	N389	N	0.117458	0.132557	0.952945
	N390	N	0.007539	0.242461	0.546931
	N391	N	0.070109	0.179986	0.546916
	N392	N	0.054883	0.179981	0.701681
	N393	N	0.117418	0.242383	0.702376
	N394	N	0.007558	0.132452	0.796653
	N395	N	0.070097	0.194939	0.796342
	N396	N	0.007462	0.132523	0.702083
	N397	N	0.070098	0.194967	0.701704
	N398	N	0.054856	0.179976	0.796736
	N399	N	0.117383	0.242388	0.797114
	H400	H	0.014614	0.360180	0.350637
	H401	H	0.076979	0.297700	0.349755
	H402	H	0.047665	0.327059	0.148121
	H403	H	0.110530	0.264783	0.148730
	H404	H	0.047869	0.327189	0.351189
	H405	H	0.110224	0.264759	0.351601
	H406	H	0.014491	0.360152	0.147421
	H407	H	0.077151	0.297791	0.147567
	H408	H	0.047971	0.297764	0.099989
	H409	H	0.110286	0.360300	0.101102
	H410	H	0.014927	0.264445	0.397672
	H411	H	0.076979	0.327325	0.398900
	H412	H	0.014394	0.264883	0.099248
	H413	H	0.077378	0.327005	0.100940
	H414	H	0.047726	0.297761	0.397563
	H415	H	0.110253	0.360406	0.399208
	H416	H	0.025800	0.349884	0.532923
	H417	H	0.088235	0.287321	0.599991
	H418	H	0.037320	0.338236	0.017187
	H419	H	0.098801	0.274740	-0.053390
	H420	H	0.037340	0.338366	0.533930
	H421	H	0.099803	0.275889	0.601027
	H422	H	0.025820	0.349766	0.016798
	H423	H	0.087357	0.286320	-0.053604
	H424	H	0.036714	0.287295	0.346606
	H425	H	0.099176	0.349755	0.186844
	H426	H	0.025753	0.275198	0.149353
	H427	H	0.088301	0.337700	0.313769
	H428	H	0.025240	0.275708	0.346736
	H429	H	0.087692	0.338234	0.187358
	H430	H	0.037312	0.286692	0.148460
	H431	H	0.099846	0.349262	0.313211
	Co432	Co	0.125040	0.374966	0.124887
	Co433	Co	0.062588	0.312503	0.124620
	Co434	Co	0.000012	0.250028	0.374127
	Co435	Co	0.062492	0.312507	0.374477
	C436	C	0.013515	0.361389	0.423204
	C437	C	0.075934	0.298848	0.422526
	C438	C	0.048875	0.325962	0.075430
	C439	C	0.111484	0.263600	0.075985
	C440	C	0.048964	0.326084	0.423890
	C441	C	0.111369	0.263582	0.423855
	C442	C	0.013530	0.361351	0.074732
	C443	C	0.076043	0.298900	0.075189
	C444	C	0.049022	0.298919	0.172734
	C445	C	0.111466	0.361419	0.174172
	C446	C	0.013698	0.263447	0.324913
	C447	C	0.075974	0.326151	0.325843
	C448	C	0.013440	0.263655	0.172476
	C449	C	0.076186	0.325996	0.173781
	C450	C	0.048918	0.298941	0.325007
	C451	C	0.111425	0.361480	0.326589
	C452	C	0.017627	0.357350	0.499344
	C453	C	0.080160	0.294850	-0.000744
	C454	C	0.044883	0.330181	0.500163
	C455	C	0.107270	0.267553	0.000011
	C456	C	0.044850	0.294863	0.248597
	C457	C	0.107346	0.357388	0.250409
	C458	C	0.017685	0.267642	0.248395
	C459	C	0.080168	0.330154	0.250009
	C460	C	0.024531	0.350486	0.499597
	C461	C	0.087006	0.287911	-0.000497
	C462	C	0.038002	0.337078	0.500393
	C463	C	0.100376	0.274421	0.000199
	C464	C	0.037961	0.287980	0.248082
	C465	C	0.100453	0.350511	0.250375
	C466	C	0.024542	0.274542	0.248257
	C467	C	0.087048	0.337042	0.250373
	C468	C	0.028161	0.347233	0.518626
	C469	C	0.090605	0.284677	0.555687
	C470	C	0.034702	0.340577	0.009086
	C471	C	0.096589	0.277523	-0.029849
	C472	C	0.034716	0.340731	0.519079
	C473	C	0.097163	0.278173	0.556340
	C474	C	0.028197	0.347139	0.008986
	C475	C	0.090112	0.284096	-0.030156
	C476	C	0.034372	0.284657	0.303321
	C477	C	0.096837	0.347175	0.214803
	C478	C	0.028151	0.277832	0.192666
	C479	C	0.090672	0.340344	0.285840
	C480	C	0.027838	0.278127	0.303431
	C481	C	0.090334	0.340627	0.214941
	C482	C	0.034675	0.284366	0.192564
	C483	C	0.097183	0.346890	0.285733
	N484	N	0.007542	0.367442	0.451611
	N485	N	0.070002	0.304901	0.451323
	N486	N	0.054907	0.319953	0.047211
	N487	N	0.117467	0.257572	0.047121
	N488	N	0.054958	0.320066	0.452485
	N489	N	0.117338	0.257563	0.452409
	N490	N	0.007532	0.367378	0.046089
	N491	N	0.070062	0.304920	0.046563
	N492	N	0.055029	0.304906	0.201855
	N493	N	0.117523	0.367390	0.202694
	N494	N	0.007648	0.257491	0.296288
	N495	N	0.069986	0.320120	0.296961
	N496	N	0.007490	0.257622	0.201576
	N497	N	0.070125	0.320041	0.202217
	N498	N	0.054954	0.304931	0.296973
	N499	N	0.117504	0.367422	0.297861
	H500	H	0.014793	0.360499	0.849582
	H501	H	0.077162	0.297778	0.850948
	H502	H	0.047891	0.327191	0.648780
	H503	H	0.110236	0.264782	0.648400
	H504	H	0.047870	0.327141	0.850138
	H505	H	0.110001	0.264318	0.851031
	H506	H	0.014696	0.360406	0.648195
	H507	H	0.077232	0.298038	0.647139
	H508	H	0.047932	0.297776	0.600668
	H509	H	0.110267	0.360472	0.601566
	H510	H	0.014947	0.264560	0.898173
	H511	H	0.077143	0.327176	0.898172
	H512	H	0.014654	0.264874	0.601412
	H513	H	0.077247	0.327103	0.600483
	H514	H	0.047717	0.298015	0.898492
	H515	H	0.110331	0.360326	0.898680
	H516	H	0.025260	0.349276	0.980551
	H517	H	0.088591	0.287567	1.053690
	H518	H	0.036787	0.337711	0.466014
	H519	H	0.099030	0.275146	0.398401
	H520	H	0.036756	0.337696	0.980618
	H521	H	0.100009	0.275968	1.053363
	H522	H	0.025192	0.349171	0.465568
	H523	H	0.087476	0.286593	0.397729
	H524	H	0.037514	0.286598	0.661188
	H525	H	0.099299	0.349737	0.803533
	H526	H	0.025018	0.276001	0.838356
	H527	H	0.088292	0.337734	0.695548
	H528	H	0.026008	0.275077	0.660869
	H529	H	0.087780	0.338187	0.803903
	H530	H	0.036479	0.287582	0.837834
	H531	H	0.099802	0.349249	0.696144
	Co532	Co	0.124984	0.374938	0.624963
	Co533	Co	0.062510	0.312524	0.624392
	Co534	Co	0.000063	0.250057	0.874467
	Co535	Co	0.062569	0.312459	0.874566
	C536	C	0.013667	0.361520	0.922372
	C537	C	0.076075	0.298921	0.923156
	C538	C	0.048978	0.326078	0.576092
	C539	C	0.111380	0.263585	0.576059
	C540	C	0.048987	0.325985	0.922880
	C541	C	0.111230	0.263365	0.923829
	C542	C	0.013558	0.361471	0.575394
	C543	C	0.076062	0.298990	0.574736
	C544	C	0.048999	0.298905	0.673342
	C545	C	0.111406	0.361473	0.673929
	C546	C	0.013705	0.263505	0.825593
	C547	C	0.076072	0.326050	0.825444
	C548	C	0.013556	0.263658	0.673503
	C549	C	0.076139	0.326019	0.673240
	C550	C	0.048876	0.299049	0.825913
	C551	C	0.111445	0.361419	0.826142
	C552	C	0.017723	0.357364	0.998604
	C553	C	0.080043	0.294756	0.498572
	C554	C	0.044868	0.330086	0.998824
	C555	C	0.107282	0.267689	0.499879
	C556	C	0.044865	0.294892	0.749867
	C557	C	0.107358	0.357338	0.749924
	C558	C	0.017704	0.267656	0.749613
	C559	C	0.080198	0.330123	0.749353
	C560	C	0.024601	0.350464	0.998803
	C561	C	0.086927	0.287911	0.498634
	C562	C	0.037996	0.336971	0.998868
	C563	C	0.100407	0.274560	0.499881
	C564	C	0.037949	0.288023	0.750058
	C565	C	0.100470	0.350454	0.749937
	C566	C	0.024586	0.274550	0.749742
	C567	C	0.087069	0.337021	0.749479
	C568	C	0.027889	0.346847	0.988632
	C569	C	0.090743	0.284759	1.029845
	C570	C	0.034397	0.340345	0.480912
	C571	C	0.096738	0.277794	0.442890
	C572	C	0.034408	0.340302	0.988508
	C573	C	0.097256	0.278233	1.030124
	C574	C	0.027844	0.346861	0.480558
	C575	C	0.090162	0.284282	0.442467
	C576	C	0.034788	0.284299	0.700319
	C577	C	0.096893	0.347134	0.779983
	C578	C	0.027722	0.278290	0.799334
	C579	C	0.090659	0.340324	0.719531
	C580	C	0.028296	0.277758	0.700142
	C581	C	0.090370	0.340611	0.779832
	C582	C	0.034210	0.284842	0.799480
	C583	C	0.097168	0.346864	0.719717
	N584	N	0.007640	0.367495	0.951277
	N585	N	0.070087	0.304927	0.951896
	N586	N	0.054956	0.320053	0.547195
	N587	N	0.117345	0.257570	0.547306
	N588	N	0.054968	0.319973	0.952149
	N589	N	0.117313	0.257424	0.952525
	N590	N	0.007581	0.367488	0.546404
	N591	N	0.070072	0.304990	0.545982
	N592	N	0.054997	0.304928	0.702003
	N593	N	0.117435	0.367443	0.702707
	N594	N	0.007680	0.257520	0.796988
	N595	N	0.070081	0.320039	0.796753
	N596	N	0.007581	0.257607	0.702128
	N597	N	0.070122	0.320022	0.701930
	N598	N	0.054947	0.304996	0.796868
	N599	N	0.117445	0.367428	0.797591
	H600	H	0.014619	0.485193	0.350174
	H601	H	0.077168	0.422741	0.351449
	H602	H	0.048044	0.452252	0.149502
	H603	H	0.110363	0.389672	0.149109
	H604	H	0.047984	0.452185	0.351048
	H605	H	0.110455	0.389721	0.350823
	H606	H	0.014713	0.485421	0.148508
	H607	H	0.077143	0.422806	0.148412
	H608	H	0.047945	0.422623	0.100815
	H609	H	0.110578	0.485208	0.102163
	H610	H	0.014685	0.389667	0.398630
	H611	H	0.077148	0.452302	0.398300
	H612	H	0.014747	0.389664	0.100293
	H613	H	0.077126	0.452271	0.101311
	H614	H	0.047826	0.422895	0.399646
	H615	H	0.110216	0.485673	0.399260
	H616	H	0.025206	0.474092	0.402027
	H617	H	0.087143	0.411086	0.512335
	H618	H	0.037596	0.463527	-0.002380
	H619	H	0.100247	0.401229	0.000154
	H620	H	0.036730	0.462583	0.402288
	H621	H	0.098575	0.399482	0.511992
	H622	H	0.026016	0.474957	-0.002049
	H623	H	0.088575	0.412636	-0.000690
	H624	H	0.036106	0.413064	0.157764
	H625	H	0.100188	0.473978	0.199995
	H626	H	0.026355	0.399499	0.342072
	H627	H	0.087453	0.463628	0.301616
	H628	H	0.024548	0.401546	0.157283
	H629	H	0.088656	0.462471	0.198951
	H630	H	0.037838	0.411068	0.343315
	H631	H	0.099018	0.475116	0.302274
	Co632	Co	0.125087	0.499994	0.125270
	Co633	Co	0.062528	0.437477	0.124603
	Co634	Co	0.000007	0.374991	0.373583
	Co635	Co	0.062599	0.437498	0.374520
	C636	C	0.013584	0.486355	0.423187
	C637	C	0.076073	0.423879	0.424269
	C638	C	0.049068	0.451119	0.076576
	C639	C	0.111496	0.388568	0.076435
	C640	C	0.049043	0.451054	0.423557
	C641	C	0.111451	0.388545	0.423830
	C642	C	0.013600	0.486476	0.076252
	C643	C	0.076047	0.423906	0.075642
	C644	C	0.048991	0.423859	0.173766
	C645	C	0.111601	0.486349	0.174863
	C646	C	0.013539	0.388556	0.325608
	C647	C	0.076061	0.451162	0.325711
	C648	C	0.013569	0.388567	0.173094
	C649	C	0.076069	0.451122	0.173763
	C650	C	0.048949	0.423984	0.326544
	C651	C	0.111425	0.486605	0.326650
	C652	C	0.017719	0.482333	0.499443
	C653	C	0.080112	0.419785	-0.000365
	C654	C	0.044912	0.455096	0.499448
	C655	C	0.107414	0.392692	0.000311
	C656	C	0.044824	0.419873	0.250382
	C657	C	0.107429	0.482387	0.250895
	C658	C	0.017625	0.392673	0.249513
	C659	C	0.080176	0.455198	0.249805
	C660	C	0.024604	0.475436	0.499154
	C661	C	0.087026	0.412929	-0.000024
	C662	C	0.038014	0.461982	0.498933
	C663	C	0.100495	0.399556	0.000407
	C664	C	0.037932	0.412993	0.250632
	C665	C	0.100511	0.475518	0.251153
	C666	C	0.024524	0.399544	0.249869
	C667	C	0.087071	0.462093	0.250231
	C668	C	0.027853	0.471772	0.444652
	C669	C	0.090021	0.408998	0.507194
	C670	C	0.034840	0.465761	-0.000699
	C671	C	0.097398	0.403368	0.000151
	C672	C	0.034370	0.465236	0.444860
	C673	C	0.096516	0.402457	0.506991
	C674	C	0.028300	0.472272	-0.000998
	C675	C	0.090845	0.409877	-0.000265
	C676	C	0.033985	0.410110	0.198542
	C677	C	0.097403	0.471735	0.222389
	C678	C	0.028455	0.402461	0.302079
	C679	C	0.090214	0.465859	0.279286
	C680	C	0.027476	0.403561	0.198076
	C681	C	0.090862	0.465230	0.221734
	C682	C	0.034980	0.408992	0.302629
	C683	C	0.096748	0.472376	0.279739
	N684	N	0.007614	0.492423	0.451986
	N685	N	0.070089	0.429919	0.452810
	N686	N	0.055000	0.445067	0.047452
	N687	N	0.117496	0.382554	0.047665
	N688	N	0.055018	0.445020	0.452150
	N689	N	0.117447	0.382531	0.452569
	N690	N	0.007588	0.492478	0.047456
	N691	N	0.070053	0.429930	0.046924
	N692	N	0.055039	0.429841	0.202334
	N693	N	0.117627	0.492367	0.203284
	N694	N	0.007531	0.382570	0.296503
	N695	N	0.070072	0.445120	0.297079
	N696	N	0.007542	0.382580	0.201518
	N697	N	0.070083	0.445079	0.202209
	N698	N	0.054996	0.429931	0.297235
	N699	N	0.117496	0.492522	0.297818
	H700	H	0.014540	0.485285	0.851303
	H701	H	0.077168	0.422776	0.850888
	H702	H	0.047802	0.452133	0.647808
	H703	H	0.110279	0.389502	0.648436
	H704	H	0.047691	0.452069	0.851383
	H705	H	0.110424	0.389714	0.851115
	H706	H	0.014955	0.485500	0.648276
	H707	H	0.077389	0.422991	0.649381
	H708	H	0.047646	0.423012	0.601262
	H709	H	0.110362	0.485330	0.601056
	H710	H	0.014888	0.389515	0.897466
	H711	H	0.077070	0.452244	0.898545
	H712	H	0.014502	0.389817	0.599287
	H713	H	0.077412	0.452052	0.600250
	H714	H	0.047753	0.422878	0.898851
	H715	H	0.110397	0.485235	0.899158
	H716	H	0.024996	0.474001	1.004129
	H717	H	0.087355	0.411324	1.000386
	H718	H	0.037371	0.463269	0.595628
	H719	H	0.100410	0.401337	0.488490
	H720	H	0.036465	0.462481	1.004298
	H721	H	0.098855	0.399786	1.000620
	H722	H	0.025845	0.474828	0.595182
	H723	H	0.088919	0.412875	0.488705
	H724	H	0.037407	0.411584	0.722654
	H725	H	0.098577	0.475421	0.864023
	H726	H	0.025006	0.401020	0.776015
	H727	H	0.088930	0.462109	0.635504
	H728	H	0.025984	0.399976	0.722452
	H729	H	0.087091	0.463855	0.864030
	H730	H	0.036517	0.412532	0.776929
	H731	H	0.100517	0.473624	0.635953
	Co732	Co	0.125055	0.500008	0.625207
	Co733	Co	0.062484	0.437457	0.624722
	Co734	Co	0.000040	0.375026	0.873927
	Co735	Co	0.062483	0.437482	0.874461
	C736	C	0.013518	0.486383	0.924122
	C737	C	0.076038	0.423882	0.923598
	C738	C	0.048952	0.450993	0.575651
	C739	C	0.111342	0.388447	0.575600
	C740	C	0.048890	0.451021	0.924120
	C741	C	0.111508	0.388612	0.924016
	C742	C	0.013728	0.486524	0.575465
	C743	C	0.076198	0.424005	0.576322
	C744	C	0.048828	0.424044	0.673748
	C745	C	0.111451	0.486444	0.674245
	C746	C	0.013661	0.388458	0.824593
	C747	C	0.076028	0.451087	0.825712
	C748	C	0.013479	0.388611	0.672247
	C749	C	0.076173	0.450985	0.673083
	C750	C	0.048867	0.424014	0.825962
	C751	C	0.111443	0.486434	0.826192
	C752	C	0.017643	0.482328	1.000237
	C753	C	0.080198	0.419842	0.500442
	C754	C	0.044913	0.455164	1.000744
	C755	C	0.107292	0.392547	0.499825
	C756	C	0.044742	0.419939	0.749784
	C757	C	0.107325	0.482387	0.750106
	C758	C	0.017672	0.392626	0.748338
	C759	C	0.080188	0.455139	0.749480
	C760	C	0.024539	0.475446	1.000664
	C761	C	0.087090	0.412957	0.500465
	C762	C	0.038017	0.462027	1.001140
	C763	C	0.100448	0.399488	0.500120
	C764	C	0.037881	0.413022	0.749884
	C765	C	0.100479	0.475458	0.750085
	C766	C	0.024542	0.399540	0.748918
	C767	C	0.087078	0.462023	0.749646
	C768	C	0.027699	0.471702	1.002692
	C769	C	0.090124	0.409107	1.000445
	C770	C	0.034756	0.465629	0.553145
	C771	C	0.097507	0.403449	0.493539
	C772	C	0.034252	0.465207	1.002805
	C773	C	0.096681	0.402617	1.000437
	C774	C	0.028239	0.472163	0.553138
	C775	C	0.091013	0.409992	0.493765
	C776	C	0.034733	0.409276	0.734692
	C777	C	0.096525	0.472484	0.814180
	C778	C	0.027721	0.403265	0.764363
	C779	C	0.091050	0.464971	0.685778
	C780	C	0.028218	0.402738	0.734427
	C781	C	0.089979	0.465971	0.813858
	C782	C	0.034208	0.409824	0.764756
	C783	C	0.097592	0.471498	0.685866
	N784	N	0.007559	0.492432	0.952944
	N785	N	0.070055	0.429928	0.951971
	N786	N	0.054961	0.444993	0.546989
	N787	N	0.117375	0.382469	0.546988
	N788	N	0.054889	0.444989	0.952387
	N789	N	0.117487	0.382575	0.952531
	N790	N	0.007704	0.492522	0.546787
	N791	N	0.070163	0.429991	0.547449
	N792	N	0.054898	0.429980	0.702576
	N793	N	0.117483	0.492441	0.702854
	N794	N	0.007624	0.382490	0.796062
	N795	N	0.070034	0.445079	0.796895
	N796	N	0.007493	0.382583	0.701280
	N797	N	0.070121	0.445011	0.701769
	N798	N	0.054917	0.429963	0.797078
	N799	N	0.117473	0.492436	0.797560
	H800	H	0.014842	0.610429	0.350910
	H801	H	0.077376	0.547875	0.350772
	H802	H	0.047984	0.577177	0.148611
	H803	H	0.110367	0.514630	0.148856
	H804	H	0.048084	0.577372	0.350578
	H805	H	0.110529	0.514798	0.351319
	H806	H	0.014862	0.610416	0.148660
	H807	H	0.077104	0.547705	0.148014
	H808	H	0.047916	0.547825	0.101414
	H809	H	0.110269	0.610436	0.099971
	H810	H	0.014808	0.514551	0.399514
	H811	H	0.077298	0.577131	0.398044
	H812	H	0.014627	0.514815	0.101846
	H813	H	0.077090	0.577211	0.100421
	H814	H	0.047898	0.547884	0.398957
	H815	H	0.110514	0.610235	0.398129
	H816	H	0.025846	0.599799	0.554177
	H817	H	0.087903	0.536825	0.514783
	H818	H	0.037562	0.588435	0.010743
	H819	H	0.098931	0.524856	0.093347
	H820	H	0.037473	0.588375	0.553836
	H821	H	0.099399	0.525315	0.514338
	H822	H	0.025954	0.599875	0.010176
	H823	H	0.087337	0.536288	0.092820
	H824	H	0.036719	0.537380	0.205309
	H825	H	0.100392	0.598681	0.171109
	H826	H	0.025919	0.525096	0.296829
	H827	H	0.087187	0.588802	0.327174
	H828	H	0.025205	0.525856	0.205349
	H829	H	0.088790	0.587208	0.171380
	H830	H	0.037428	0.536664	0.296214
	H831	H	0.098781	0.600271	0.327029
	Co832	Co	0.125020	0.625075	0.123850
	Co833	Co	0.062532	0.562502	0.124550
	Co834	Co	0.000025	0.499939	0.374915
	Co835	Co	0.062600	0.562502	0.374663
	C836	C	0.013651	0.611464	0.423798
	C837	C	0.076175	0.548936	0.423567
	C838	C	0.049062	0.576112	0.075725
	C839	C	0.111507	0.513519	0.076416
	C840	C	0.049111	0.576161	0.423043
	C841	C	0.111556	0.513585	0.423889
	C842	C	0.013669	0.611468	0.075799
	C843	C	0.076061	0.548892	0.075460
	C844	C	0.049007	0.548926	0.174133
	C845	C	0.111465	0.611479	0.172660
	C846	C	0.013635	0.513525	0.326745
	C847	C	0.076147	0.576081	0.325512
	C848	C	0.013542	0.513661	0.174490
	C849	C	0.076048	0.576094	0.173266
	C850	C	0.048982	0.548959	0.326269
	C851	C	0.111576	0.611402	0.325348
	C852	C	0.017660	0.607307	0.499904
	C853	C	0.080245	0.544867	-0.000499
	C854	C	0.044968	0.580186	0.499064
	C855	C	0.107434	0.517621	0.000230
	C856	C	0.044904	0.544873	0.250318
	C857	C	0.107450	0.607317	0.249199
	C858	C	0.017659	0.517684	0.250809
	C859	C	0.080172	0.580198	0.249384
	C860	C	0.024589	0.600446	0.500252
	C861	C	0.087116	0.537964	-0.000545
	C862	C	0.038083	0.587081	0.499454
	C863	C	0.100573	0.524524	-0.000283
	C864	C	0.038014	0.537968	0.250546
	C865	C	0.100554	0.600447	0.249223
	C866	C	0.024592	0.524560	0.251008
	C867	C	0.087065	0.587091	0.249298
	C868	C	0.028259	0.597193	0.530711
	C869	C	0.090439	0.534402	0.508355
	C870	C	0.034856	0.590750	0.005743
	C871	C	0.096720	0.527607	0.051824
	C872	C	0.034801	0.590689	0.530310
	C873	C	0.096982	0.527883	0.508041
	C874	C	0.028290	0.597221	0.005837
	C875	C	0.090179	0.534127	0.051801
	C876	C	0.034364	0.534730	0.224995
	C877	C	0.097520	0.596582	0.205447
	C878	C	0.028257	0.527780	0.276487
	C879	C	0.090086	0.590976	0.292947
	C880	C	0.027838	0.528219	0.225141
	C881	C	0.090973	0.590075	0.205550
	C882	C	0.034780	0.534300	0.276124
	C883	C	0.096655	0.597456	0.292973
	N884	N	0.007601	0.617427	0.452418
	N885	N	0.070172	0.554946	0.452070
	N886	N	0.055037	0.570081	0.046617
	N887	N	0.117528	0.507526	0.047808
	N888	N	0.055091	0.570111	0.451935
	N889	N	0.117503	0.507538	0.452809
	N890	N	0.007674	0.617477	0.046841
	N891	N	0.070053	0.554887	0.046842
	N892	N	0.055029	0.554941	0.202696
	N893	N	0.117465	0.617496	0.201307
	N894	N	0.007609	0.507540	0.297815
	N895	N	0.070149	0.570060	0.296786
	N896	N	0.007528	0.507638	0.202959
	N897	N	0.070084	0.570076	0.202132
	N898	N	0.055000	0.554985	0.297431
	N899	N	0.117539	0.617445	0.296400
	H900	H	0.014547	0.610042	0.850667
	H901	H	0.077325	0.547782	0.851040
	H902	H	0.047893	0.577269	0.647367
	H903	H	0.110242	0.514624	0.648896
	H904	H	0.047910	0.577198	0.850808
	H905	H	0.110413	0.514597	0.851861
	H906	H	0.014508	0.610192	0.648902
	H907	H	0.077029	0.547680	0.649029
	H908	H	0.047780	0.547798	0.600509
	H909	H	0.110417	0.610320	0.599929
	H910	H	0.014550	0.514770	0.898816
	H911	H	0.077297	0.577068	0.898831
	H912	H	0.014715	0.514623	0.600916
	H913	H	0.077057	0.577257	0.601089
	H914	H	0.047766	0.547871	0.898605
	H915	H	0.110401	0.610294	0.898518
	H916	H	0.025137	0.599062	0.989267
	H917	H	0.088846	0.537650	0.905210
	H918	H	0.036679	0.587647	0.445255
	H919	H	0.099703	0.525570	0.484919
	H920	H	0.036733	0.587622	0.988851
	H921	H	0.100362	0.526142	0.905592
	H922	H	0.025093	0.599130	0.445921
	H923	H	0.088137	0.537058	0.485651
	H924	H	0.036767	0.537205	0.721110
	H925	H	0.099635	0.599415	0.706417
	H926	H	0.025646	0.525284	0.778172
	H927	H	0.087784	0.588225	0.792694
	H928	H	0.025269	0.525700	0.720604
	H929	H	0.088135	0.587915	0.707207
	H930	H	0.037148	0.536841	0.777718
	H931	H	0.099337	0.599712	0.791849
	Co932	Co	0.124976	0.625057	0.624024
	Co933	Co	0.062543	0.562477	0.624504
	Co934	Co	-0.000021	0.499976	0.874876
	Co935	Co	0.062563	0.562461	0.874597
	C936	C	0.013505	0.611265	0.923353
	C937	C	0.076167	0.548952	0.923516
	C938	C	0.049027	0.576110	0.575335
	C939	C	0.111422	0.513514	0.576160
	C940	C	0.049033	0.576127	0.923655
	C941	C	0.111518	0.513508	0.924420
	C942	C	0.013473	0.611329	0.575905
	C943	C	0.076007	0.548875	0.576022
	C944	C	0.048907	0.548933	0.673381
	C945	C	0.111483	0.611442	0.673025
	C946	C	0.013513	0.513593	0.826072
	C947	C	0.076112	0.576057	0.826112
	C948	C	0.013577	0.513549	0.673725
	C949	C	0.076002	0.576147	0.673699
	C950	C	0.048885	0.548969	0.825961
	C951	C	0.111480	0.611443	0.825391
	C952	C	0.017636	0.607284	0.999724
	C953	C	0.080176	0.544792	0.499902
	C954	C	0.044993	0.580216	0.999754
	C955	C	0.107407	0.517637	0.499810
	C956	C	0.044789	0.544896	0.749706
	C957	C	0.107360	0.607395	0.749275
	C958	C	0.017632	0.517658	0.749950
	C959	C	0.080077	0.580247	0.749848
	C960	C	0.024575	0.600418	1.000080
	C961	C	0.087076	0.537913	0.500055
	C962	C	0.038099	0.587110	0.999651
	C963	C	0.100524	0.524513	0.499600
	C964	C	0.037893	0.538019	0.749788
	C965	C	0.100461	0.600514	0.749388
	C966	C	0.024505	0.524553	0.749702
	C967	C	0.086999	0.587114	0.749924
	C968	C	0.027825	0.596759	0.993991
	C969	C	0.090976	0.534869	0.946771
	C970	C	0.034387	0.590336	0.469090
	C971	C	0.097126	0.528012	0.491647
	C972	C	0.034398	0.590290	0.993778
	C973	C	0.097536	0.528358	0.946866
	C974	C	0.027812	0.596811	0.469541
	C975	C	0.090584	0.534529	0.491847
	C976	C	0.034366	0.534645	0.733813
	C977	C	0.097096	0.596980	0.725539
	C978	C	0.028043	0.527888	0.765620
	C979	C	0.090381	0.590634	0.773685
	C980	C	0.027842	0.528112	0.733760
	C981	C	0.090560	0.590478	0.725992
	C982	C	0.034565	0.534432	0.765423
	C983	C	0.096917	0.597141	0.773444
	N984	N	0.007553	0.617342	0.951663
	N985	N	0.070125	0.554920	0.952075
	N986	N	0.055032	0.570073	0.546918
	N987	N	0.117418	0.507478	0.547762
	N988	N	0.055040	0.570095	0.952171
	N989	N	0.117508	0.507514	0.953226
	N990	N	0.007512	0.617366	0.546969
	N991	N	0.070070	0.554910	0.546944
	N992	N	0.054957	0.554911	0.701872
	N993	N	0.117484	0.617459	0.701936
	N994	N	0.007545	0.507553	0.797209
	N995	N	0.070135	0.570023	0.797369
	N996	N	0.007591	0.507534	0.702391
	N997	N	0.070070	0.570062	0.702508
	N998	N	0.054941	0.554940	0.797041
	N999	N	0.117481	0.617446	0.796711
	H1000	H	0.014757	0.735464	0.350206
	H1001	H	0.077181	0.672863	0.350810
	H1002	H	0.047753	0.702159	0.147688
	H1003	H	0.110485	0.639872	0.146411
	H1004	H	0.047846	0.702216	0.350868
	H1005	H	0.110222	0.639680	0.350377
	H1006	H	0.014423	0.735084	0.148747
	H1007	H	0.077243	0.672899	0.148435
	H1008	H	0.047979	0.672823	0.100519
	H1009	H	0.110288	0.735417	0.100478
	H1010	H	0.014827	0.639603	0.398146
	H1011	H	0.077282	0.702123	0.398784
	H1012	H	0.014665	0.639701	0.100728
	H1013	H	0.077047	0.702411	0.101238
	H1014	H	0.047704	0.672885	0.397836
	H1015	H	0.110364	0.735364	0.397618
	H1016	H	0.025403	0.724433	0.458384
	H1017	H	0.088167	0.662273	0.385375
	H1018	H	0.037619	0.713634	-0.090615
	H1019	H	0.099588	0.650704	-0.038697
	H1020	H	0.036890	0.712855	0.457988
	H1021	H	0.099705	0.650793	0.384935
	H1022	H	0.026017	0.725032	-0.090562
	H1023	H	0.088057	0.662216	-0.037613
	H1024	H	0.037050	0.662105	0.281113
	H1025	H	0.099126	0.724901	0.293370
	H1026	H	0.025404	0.650556	0.216713
	H1027	H	0.088351	0.712681	0.206303
	H1028	H	0.025546	0.650500	0.280750
	H1029	H	0.087576	0.713354	0.294632
	H1030	H	0.036952	0.662092	0.216263
	H1031	H	0.099861	0.724247	0.205387
	Co1032	Co	0.125002	0.749991	0.123591
	Co1033	Co	0.062503	0.687583	0.124592
	Co1034	Co	0.000045	0.624987	0.374405
	Co1035	Co	0.062468	0.687526	0.374347
	C1036	C	0.013621	0.736539	0.423329
	C1037	C	0.076068	0.673976	0.423637
	C1038	C	0.048942	0.701115	0.075058
	C1039	C	0.111533	0.638682	0.074110
	C1040	C	0.048965	0.701093	0.423256
	C1041	C	0.111364	0.638582	0.422906
	C1042	C	0.013417	0.736293	0.075592
	C1043	C	0.076069	0.673980	0.075508
	C1044	C	0.049019	0.673919	0.173211
	C1045	C	0.111396	0.736495	0.173140
	C1046	C	0.013653	0.638540	0.325669
	C1047	C	0.076107	0.701021	0.326004
	C1048	C	0.013592	0.638603	0.173218
	C1049	C	0.076005	0.701173	0.174011
	C1050	C	0.048862	0.673973	0.325162
	C1051	C	0.111440	0.736458	0.324964
	C1052	C	0.017728	0.732458	0.499117
	C1053	C	0.080133	0.669866	-0.000659
	C1054	C	0.044914	0.705210	0.498994
	C1055	C	0.107366	0.642676	-0.002156
	C1056	C	0.044887	0.669872	0.248964
	C1057	C	0.107322	0.732388	0.249167
	C1058	C	0.017697	0.642643	0.249325
	C1059	C	0.080135	0.705179	0.250309
	C1060	C	0.024590	0.725527	0.498878
	C1061	C	0.087032	0.662975	-0.001131
	C1062	C	0.038003	0.712102	0.499107
	C1063	C	0.100467	0.649571	-0.002227
	C1064	C	0.037968	0.663017	0.248448
	C1065	C	0.100427	0.725522	0.249420
	C1066	C	0.024567	0.649574	0.248920
	C1067	C	0.087010	0.712085	0.250334
	C1068	C	0.027947	0.721974	0.476119
	C1069	C	0.090617	0.659695	0.435675
	C1070	C	0.034873	0.715885	-0.051257
	C1071	C	0.097080	0.653124	-0.022410
	C1072	C	0.034473	0.715469	0.476174
	C1073	C	0.097153	0.653186	0.435433
	C1074	C	0.028253	0.722309	-0.051548
	C1075	C	0.090546	0.659628	-0.021922
	C1076	C	0.034550	0.659556	0.266909
	C1077	C	0.096785	0.722231	0.274246
	C1078	C	0.027964	0.653030	0.230785
	C1079	C	0.090658	0.715378	0.225332
	C1080	C	0.028021	0.653041	0.266767
	C1081	C	0.090241	0.715718	0.274954
	C1082	C	0.034457	0.659573	0.230316
	C1083	C	0.097192	0.721898	0.225008
	N1084	N	0.007564	0.742502	0.452323
	N1085	N	0.070066	0.679992	0.451991
	N1086	N	0.054990	0.695134	0.046473
	N1087	N	0.117555	0.632680	0.045758
	N1088	N	0.054939	0.695044	0.452046
	N1089	N	0.117359	0.632564	0.451442
	N1090	N	0.007497	0.742393	0.046939
	N1091	N	0.070083	0.680024	0.046793
	N1092	N	0.054976	0.679981	0.202146
	N1093	N	0.117415	0.742503	0.201571
	N1094	N	0.007605	0.632566	0.297023
	N1095	N	0.070118	0.695010	0.297186
	N1096	N	0.007563	0.632615	0.202139
	N1097	N	0.070042	0.695099	0.202391
	N1098	N	0.054881	0.680011	0.296748
	N1099	N	0.117435	0.742486	0.296112
	H1100	H	0.014697	0.735427	0.850320
	H1101	H	0.077217	0.672910	0.850074
	H1102	H	0.047812	0.702180	0.647469
	H1103	H	0.110422	0.639784	0.648003
	H1104	H	0.048233	0.702476	0.850234
	H1105	H	0.110294	0.639641	0.849774
	H1106	H	0.014780	0.735442	0.648018
	H1107	H	0.077271	0.673052	0.648342
	H1108	H	0.047906	0.672868	0.600552
	H1109	H	0.110475	0.735240	0.600217
	H1110	H	0.014592	0.639833	0.897818
	H1111	H	0.077140	0.702220	0.897986
	H1112	H	0.014670	0.639661	0.600249
	H1113	H	0.077181	0.702183	0.600465
	H1114	H	0.047938	0.672757	0.897846
	H1115	H	0.110147	0.735579	0.897398
	H1116	H	0.024885	0.723875	1.088315
	H1117	H	0.087885	0.661848	1.035002
	H1118	H	0.037142	0.713158	0.539798
	H1119	H	0.099422	0.650420	0.613521
	H1120	H	0.036559	0.712511	1.088124
	H1121	H	0.099449	0.650394	1.033915
	H1122	H	0.025606	0.724693	0.539196
	H1123	H	0.087888	0.661941	0.614462
	H1124	H	0.037950	0.661174	0.622043
	H1125	H	0.099713	0.724347	0.834967
	H1126	H	0.024593	0.651471	0.874408
	H1127	H	0.087848	0.713118	0.664187
	H1128	H	0.026351	0.649720	0.622321
	H1129	H	0.088209	0.712869	0.835238
	H1130	H	0.036178	0.662904	0.874182
	H1131	H	0.099309	0.724704	0.663630
	Co1132	Co	0.125050	0.750021	0.623641
	Co1133	Co	0.062525	0.687540	0.624354
	Co1134	Co	0.000029	0.624980	0.874272
	Co1135	Co	0.062489	0.687521	0.874411
	C1136	C	0.013552	0.736482	0.922933
	C1137	C	0.076102	0.673969	0.923158
	C1138	C	0.048938	0.701092	0.574901
	C1139	C	0.111469	0.638650	0.575112
	C1140	C	0.049158	0.701301	0.923014
	C1141	C	0.111455	0.638592	0.922165
	C1142	C	0.013650	0.736513	0.575336
	C1143	C	0.076137	0.674074	0.575435
	C1144	C	0.049008	0.673948	0.673179
	C1145	C	0.111511	0.736421	0.672725
	C1146	C	0.013479	0.638677	0.825289
	C1147	C	0.076028	0.701114	0.825442
	C1148	C	0.013538	0.638580	0.673000
	C1149	C	0.076038	0.701126	0.673213
	C1150	C	0.049019	0.673883	0.825327
	C1151	C	0.111358	0.736604	0.824801
	C1152	C	0.017554	0.732272	0.999085
	C1153	C	0.080175	0.669930	0.499648
	C1154	C	0.044960	0.705279	0.998883
	C1155	C	0.107353	0.642719	0.499280
	C1156	C	0.044923	0.669839	0.748903
	C1157	C	0.107338	0.732421	0.748804
	C1158	C	0.017582	0.642729	0.748851
	C1159	C	0.080126	0.705202	0.749390
	C1160	C	0.024465	0.725404	0.998651
	C1161	C	0.087073	0.663055	0.499843
	C1162	C	0.038044	0.712141	0.998580
	C1163	C	0.100523	0.649649	0.499512
	C1164	C	0.038006	0.662968	0.748409
	C1165	C	0.100465	0.725520	0.749122
	C1166	C	0.024522	0.649593	0.748491
	C1167	C	0.087048	0.712058	0.749413
	C1168	C	0.027651	0.721678	1.048830
	C1169	C	0.090445	0.659425	1.018841
	C1170	C	0.034603	0.715610	0.521660
	C1171	C	0.096991	0.653026	0.563495
	C1172	C	0.034236	0.715228	1.048902
	C1173	C	0.096973	0.652935	1.018360
	C1174	C	0.028080	0.722130	0.521607
	C1175	C	0.090446	0.659530	0.563977
	C1176	C	0.035025	0.659074	0.677534
	C1177	C	0.097136	0.721963	0.797069
	C1178	C	0.027481	0.653526	0.818966
	C1179	C	0.090385	0.715607	0.701638
	C1180	C	0.028475	0.652569	0.677709
	C1181	C	0.090610	0.715433	0.797604
	C1182	C	0.034052	0.660004	0.818888
	C1183	C	0.096928	0.722121	0.701523
	N1184	N	0.007572	0.742502	0.951953
	N1185	N	0.070098	0.680006	0.951886
	N1186	N	0.054921	0.695033	0.546572
	N1187	N	0.117426	0.632610	0.546192
	N1188	N	0.055088	0.695224	0.951877
	N1189	N	0.117509	0.632618	0.951139
	N1190	N	0.007575	0.742484	0.546953
	N1191	N	0.070101	0.680050	0.546570
	N1192	N	0.055015	0.679964	0.702239
	N1193	N	0.117498	0.742456	0.701236
	N1194	N	0.007536	0.632586	0.796827
	N1195	N	0.070016	0.695120	0.796751
	N1196	N	0.007565	0.632535	0.701945
	N1197	N	0.070023	0.695126	0.701949
	N1198	N	0.055027	0.679912	0.796743
	N1199	N	0.117402	0.742572	0.796071
	H1200	H	0.014748	0.860279	0.350837
	H1201	H	0.077121	0.797743	0.350937
	H1202	H	0.048017	0.827418	0.147443
	H1203	H	0.110271	0.764573	0.148371
	H1204	H	0.047953	0.827268	0.350916
	H1205	H	0.110432	0.764799	0.350395
	H1206	H	0.014849	0.860476	0.148296
	H1207	H	0.077319	0.797955	0.149285
	H1208	H	0.047943	0.797784	0.101580
	H1209	H	0.110239	0.860386	0.101463
	H1210	H	0.014736	0.764778	0.398535
	H1211	H	0.077225	0.827118	0.398726
	H1212	H	0.014759	0.764738	0.100821
	H1213	H	0.077011	0.827352	0.101447
	H1214	H	0.047803	0.798077	0.398879
	H1215	H	0.110498	0.860242	0.398894
	H1216	H	0.025860	0.849799	0.522939
	H1217	H	0.088177	0.787014	0.556178
	H1218	H	0.036820	0.837838	0.041117
	H1219	H	0.099683	0.775681	0.047209
	H1220	H	0.037387	0.838248	0.523996
	H1221	H	0.099714	0.775561	0.556078
	H1222	H	0.025319	0.849369	0.040828
	H1223	H	0.088131	0.787146	0.047368
	H1224	H	0.037379	0.786808	0.289491
	H1225	H	0.099122	0.849888	0.307976
	H1226	H	0.025277	0.775805	0.210710
	H1227	H	0.088399	0.837663	0.193010
	H1228	H	0.025850	0.775303	0.288897
	H1229	H	0.087528	0.838459	0.307491
	H1230	H	0.036831	0.787341	0.211328
	H1231	H	0.099969	0.849168	0.193205
	Co1232	Co	0.125016	0.874979	0.124981
	Co1233	Co	0.062540	0.812555	0.124974
	Co1234	Co	-0.000000	0.750028	0.374942
	Co1235	Co	0.062565	0.812508	0.374987
	C1236	C	0.013592	0.861370	0.423603
	C1237	C	0.076029	0.798875	0.423402
	C1238	C	0.049069	0.826187	0.075236
	C1239	C	0.111472	0.763509	0.075612
	C1240	C	0.049040	0.826077	0.423609
	C1241	C	0.111566	0.763665	0.422988
	C1242	C	0.013634	0.861460	0.075382
	C1243	C	0.076088	0.798985	0.076575
	C1244	C	0.048976	0.798952	0.173861
	C1245	C	0.111433	0.861468	0.173926
	C1246	C	0.013563	0.763622	0.326049
	C1247	C	0.076066	0.826126	0.326006
	C1248	C	0.013585	0.763598	0.173589
	C1249	C	0.075974	0.826218	0.173908
	C1250	C	0.048920	0.799068	0.326100
	C1251	C	0.111545	0.861409	0.326238
	C1252	C	0.017663	0.857240	0.499776
	C1253	C	0.080120	0.794778	0.000638
	C1254	C	0.044898	0.830114	0.499784
	C1255	C	0.107385	0.767657	-0.000333
	C1256	C	0.044871	0.794915	0.250215
	C1257	C	0.107412	0.857333	0.250306
	C1258	C	0.017676	0.767679	0.249794
	C1259	C	0.080101	0.830285	0.249999
	C1260	C	0.024567	0.850399	0.499527
	C1261	C	0.087019	0.787950	0.000552
	C1262	C	0.038002	0.836966	0.499846
	C1263	C	0.100501	0.774529	-0.000061
	C1264	C	0.038013	0.787987	0.250375
	C1265	C	0.100517	0.850458	0.250304
	C1266	C	0.024579	0.774569	0.249869
	C1267	C	0.087013	0.837143	0.250086
	C1268	C	0.028221	0.847144	0.513000
	C1269	C	0.090578	0.784506	0.531079
	C1270	C	0.034436	0.840389	0.022509
	C1271	C	0.097135	0.778072	0.026380
	C1272	C	0.034733	0.840592	0.513359
	C1273	C	0.097156	0.778029	0.531393
	C1274	C	0.027871	0.846883	0.022742
	C1275	C	0.090586	0.784598	0.026636
	C1276	C	0.034728	0.784396	0.271971
	C1277	C	0.096821	0.847245	0.282776
	C1278	C	0.027879	0.778146	0.227987
	C1279	C	0.090702	0.840363	0.218019
	C1280	C	0.028209	0.777871	0.271689
	C1281	C	0.090258	0.840764	0.282420
	C1282	C	0.034410	0.784659	0.228390
	C1283	C	0.097274	0.846848	0.218284
	N1284	N	0.007591	0.867379	0.452412
	N1285	N	0.070065	0.804909	0.452361
	N1286	N	0.055044	0.820138	0.046989
	N1287	N	0.117478	0.757555	0.046338
	N1288	N	0.055024	0.820060	0.452498
	N1289	N	0.117540	0.757641	0.451435
	N1290	N	0.007592	0.867440	0.046907
	N1291	N	0.070075	0.804953	0.047570
	N1292	N	0.054987	0.804961	0.202392
	N1293	N	0.117430	0.867483	0.202479
	N1294	N	0.007513	0.757648	0.297515
	N1295	N	0.070046	0.820122	0.297257
	N1296	N	0.007537	0.757624	0.202516
	N1297	N	0.070011	0.820154	0.202689
	N1298	N	0.054946	0.805032	0.296911
	N1299	N	0.117515	0.867436	0.297222
	H1300	H	0.014418	0.860096	0.850452
	H1301	H	0.077183	0.797683	0.851728
	H1302	H	0.047674	0.827041	0.648809
	H1303	H	0.110379	0.764650	0.647287
	H1304	H	0.047877	0.827090	0.850928
	H1305	H	0.110419	0.764781	0.850445
	H1306	H	0.014612	0.860157	0.649075
	H1307	H	0.077106	0.797655	0.648061
	H1308	H	0.048070	0.797710	0.600647
	H1309	H	0.110315	0.860374	0.600685
	H1310	H	0.014450	0.764958	0.898247
	H1311	H	0.077266	0.827217	0.898038
	H1312	H	0.014691	0.764675	0.600325
	H1313	H	0.077078	0.827304	0.600962
	H1314	H	0.047758	0.797913	0.898719
	H1315	H	0.110378	0.860307	0.898980
	H1316	H	0.025564	0.849516	0.957256
	H1317	H	0.087840	0.786797	0.953191
	H1318	H	0.036640	0.837552	0.476246
	H1319	H	0.099431	0.775453	0.442103
	H1320	H	0.037178	0.838083	0.956559
	H1321	H	0.099372	0.775353	0.953250
	H1322	H	0.025174	0.849113	0.476244
	H1323	H	0.087836	0.786874	0.442133
	H1324	H	0.037382	0.786673	0.739668
	H1325	H	0.100176	0.848896	0.739112
	H1326	H	0.025251	0.775866	0.759387
	H1327	H	0.087262	0.838772	0.760388
	H1328	H	0.025742	0.775272	0.739485
	H1329	H	0.088616	0.837412	0.738961
	H1330	H	0.036820	0.787349	0.759061
	H1331	H	0.098817	0.850223	0.760362
	Co1332	Co	0.125023	0.875039	0.624816
	Co1333	Co	0.062562	0.812443	0.624575
	Co1334	Co	-0.000013	0.750064	0.874640
	Co1335	Co	0.062576	0.812511	0.874853
	C1336	C	0.013418	0.861284	0.923336
	C1337	C	0.076025	0.798841	0.924332
	C1338	C	0.048917	0.825964	0.575999
	C1339	C	0.111534	0.763579	0.575100
	C1340	C	0.048981	0.826007	0.923399
	C1341	C	0.111517	0.763597	0.923252
	C1342	C	0.013525	0.861309	0.575873
	C1343	C	0.076014	0.798827	0.575705
	C1344	C	0.049076	0.798864	0.673817
	C1345	C	0.111451	0.861457	0.673531
	C1346	C	0.013479	0.763734	0.825611
	C1347	C	0.076108	0.826078	0.825589
	C1348	C	0.013604	0.763601	0.672998
	C1349	C	0.076006	0.826128	0.673501
	C1350	C	0.048953	0.798978	0.826312
	C1351	C	0.111465	0.861438	0.825732
	C1352	C	0.017615	0.857256	0.999230
	C1353	C	0.080134	0.794740	0.499447
	C1354	C	0.044914	0.830179	0.999098
	C1355	C	0.107462	0.767749	0.499088
	C1356	C	0.044947	0.794845	0.750060
	C1357	C	0.107384	0.857347	0.749584
	C1358	C	0.017641	0.767742	0.749224
	C1359	C	0.080123	0.830194	0.749419
	C1360	C	0.024520	0.850386	0.999128
	C1361	C	0.087022	0.787884	0.499243
	C1362	C	0.038012	0.837040	0.998780
	C1363	C	0.100530	0.774565	0.499304
	C1364	C	0.038052	0.787970	0.749981
	C1365	C	0.100480	0.850487	0.749659
	C1366	C	0.024518	0.774661	0.749498
	C1367	C	0.086980	0.837111	0.749597
	C1368	C	0.028072	0.847024	0.975369
	C1369	C	0.090418	0.784402	0.974168
	C1370	C	0.034325	0.840205	0.486544
	C1371	C	0.096980	0.777931	0.467244
	C1372	C	0.034621	0.840513	0.975064
	C1373	C	0.096979	0.777892	0.973698
	C1374	C	0.027812	0.846755	0.486554
	C1375	C	0.090426	0.784444	0.467425
	C1376	C	0.034711	0.784370	0.744504
	C1377	C	0.097392	0.846697	0.743700
	C1378	C	0.027869	0.778245	0.755169
	C1379	C	0.090080	0.840926	0.755597
	C1380	C	0.028154	0.777884	0.744069
	C1381	C	0.090822	0.840197	0.743732
	C1382	C	0.034435	0.784727	0.755343
	C1383	C	0.096629	0.847430	0.755615
	N1384	N	0.007464	0.867330	0.952517
	N1385	N	0.070041	0.804881	0.952621
	N1386	N	0.054939	0.819978	0.547444
	N1387	N	0.117542	0.757606	0.546177
	N1388	N	0.054983	0.820020	0.952375
	N1389	N	0.117517	0.757602	0.951535
	N1390	N	0.007543	0.867341	0.547233
	N1391	N	0.070068	0.804893	0.547031
	N1392	N	0.055069	0.804881	0.702576
	N1393	N	0.117436	0.867466	0.702354
	N1394	N	0.007484	0.757705	0.796956
	N1395	N	0.070125	0.820032	0.797052
	N1396	N	0.007590	0.757604	0.702031
	N1397	N	0.070062	0.820061	0.702291
	N1398	N	0.055004	0.804946	0.797602
	N1399	N	0.117457	0.867438	0.797029
	H1400	H	0.014541	0.985212	0.350748
	H1401	H	0.077245	0.922852	0.351867
	H1402	H	0.047798	0.952180	0.148400
	H1403	H	0.110624	0.889977	0.148781
	H1404	H	0.047783	0.952102	0.350632
	H1405	H	0.110320	0.889535	0.351856
	H1406	H	0.014670	0.985248	0.148647
	H1407	H	0.077117	0.922792	0.149180
	H1408	H	0.047679	0.922948	0.101105
	H1409	H	0.110312	0.985525	0.101260
	H1410	H	0.014632	0.889656	0.398377
	H1411	H	0.077212	0.952239	0.398579
	H1412	H	0.014609	0.889700	0.101803
	H1413	H	0.077223	0.952091	0.100652
	H1414	H	0.047855	0.922764	0.398604
	H1415	H	0.110443	0.985270	0.398417
	H1416	H	0.025389	0.974439	0.516997
	H1417	H	0.088159	0.912031	0.412249
	H1418	H	0.036087	0.962131	0.068736
	H1419	H	0.099715	0.900757	-0.082063
	H1420	H	0.036991	0.962963	0.516855
	H1421	H	0.099743	0.900557	0.412243
	H1422	H	0.024565	0.973621	0.068168
	H1423	H	0.088195	0.912263	-0.082313
	H1424	H	0.036528	0.912482	0.266968
	H1425	H	0.099010	0.975071	0.203534
	H1426	H	0.025947	0.900053	0.232460
	H1427	H	0.088581	0.962498	0.296093
	H1428	H	0.025058	0.900917	0.266755
	H1429	H	0.087461	0.963551	0.203335
	H1430	H	0.037420	0.911579	0.232075
	H1431	H	0.100093	0.974031	0.295876
	Co1432	Co	0.125048	0.999989	0.125450
	Co1433	Co	0.062463	0.937529	0.125396
	Co1434	Co	0.000022	0.874975	0.374845
	Co1435	Co	0.062496	0.937505	0.374801
	C1436	C	0.013460	0.986364	0.423550
	C1437	C	0.076041	0.923913	0.424313
	C1438	C	0.048892	0.951041	0.075909
	C1439	C	0.111594	0.888696	0.076385
	C1440	C	0.048933	0.951006	0.423399
	C1441	C	0.111428	0.888529	0.424517
	C1442	C	0.013555	0.986396	0.076203
	C1443	C	0.076012	0.923919	0.076413
	C1444	C	0.048854	0.924044	0.173592
	C1445	C	0.111429	0.986500	0.174024
	C1446	C	0.013537	0.888595	0.325970
	C1447	C	0.076087	0.951104	0.325874
	C1448	C	0.013513	0.888618	0.174158
	C1449	C	0.076101	0.951016	0.173509
	C1450	C	0.048949	0.923942	0.325750
	C1451	C	0.111511	0.986378	0.326037
	C1452	C	0.017608	0.982321	0.499852
	C1453	C	0.080130	0.919826	0.000197
	C1454	C	0.044791	0.955131	0.499169
	C1455	C	0.107334	0.892687	0.000645
	C1456	C	0.044800	0.919910	0.249647
	C1457	C	0.107403	0.982311	0.249756
	C1458	C	0.017618	0.892687	0.250044
	C1459	C	0.080190	0.955123	0.249458
	C1460	C	0.024485	0.975444	0.499369
	C1461	C	0.087008	0.912944	0.000362
	C1462	C	0.037914	0.962011	0.498839
	C1463	C	0.100469	0.899572	0.000971
	C1464	C	0.037942	0.913004	0.249524
	C1465	C	0.100480	0.975447	0.249724
	C1466	C	0.024512	0.899559	0.249944
	C1467	C	0.087076	0.962034	0.249457
	C1468	C	0.027925	0.971974	0.509296
	C1469	C	0.090555	0.909526	0.451320
	C1470	C	0.034007	0.964970	0.038202
	C1471	C	0.097139	0.903125	-0.045435
	C1472	C	0.034447	0.965433	0.508951
	C1473	C	0.097098	0.903034	0.451282
	C1474	C	0.027495	0.971516	0.038276
	C1475	C	0.090584	0.909643	-0.045736
	C1476	C	0.034251	0.909793	0.259192
	C1477	C	0.096719	0.972328	0.223680
	C1478	C	0.028241	0.902757	0.240053
	C1479	C	0.090814	0.965224	0.275728
	C1480	C	0.027730	0.903246	0.259597
	C1481	C	0.090211	0.965800	0.223573
	C1482	C	0.034769	0.909294	0.240010
	C1483	C	0.097344	0.971734	0.275591
	N1484	N	0.007468	0.992393	0.452550
	N1485	N	0.069966	0.929902	0.452801
	N1486	N	0.054899	0.945004	0.047463
	N1487	N	0.117529	0.882644	0.047386
	N1488	N	0.054952	0.945041	0.452658
	N1489	N	0.117417	0.882525	0.453100
	N1490	N	0.007556	0.992405	0.047757
	N1491	N	0.070002	0.929909	0.047668
	N1492	N	0.054852	0.930026	0.202289
	N1493	N	0.117450	0.992479	0.203106
	N1494	N	0.007535	0.882580	0.297338
	N1495	N	0.070065	0.945076	0.297684
	N1496	N	0.007522	0.882589	0.202729
	N1497	N	0.070062	0.945041	0.202557
	N1498	N	0.054930	0.929949	0.297269
	N1499	N	0.117481	0.992418	0.297408
	H1500	H	0.014779	0.985486	0.851725
	H1501	H	0.077121	0.922848	0.851189
	H1502	H	0.047622	0.952074	0.647783
	H1503	H	0.110530	0.889843	0.648903
	H1504	H	0.047892	0.952137	0.851463
	H1505	H	0.109945	0.889402	0.852225
	H1506	H	0.014810	0.985423	0.648871
	H1507	H	0.076838	0.922562	0.648888
	H1508	H	0.047674	0.922916	0.601546
	H1509	H	0.110252	0.985421	0.601028
	H1510	H	0.014628	0.889649	0.898552
	H1511	H	0.077280	0.951923	0.899014
	H1512	H	0.014635	0.889640	0.601058
	H1513	H	0.077114	0.952142	0.602054
	H1514	H	0.048075	0.922501	0.898907
	H1515	H	0.110356	0.985308	0.899215
	H1516	H	0.026357	0.975285	0.930963
	H1517	H	0.087718	0.911797	1.082799
	H1518	H	0.036977	0.962986	0.480557
	H1519	H	0.099280	0.900330	0.589228
	H1520	H	0.037848	0.963730	0.930589
	H1521	H	0.099227	0.900255	1.083497
	H1522	H	0.025464	0.974543	0.480997
	H1523	H	0.087770	0.911875	0.589289
	H1524	H	0.036637	0.912307	0.729109
	H1525	H	0.099956	0.974026	0.844423
	H1526	H	0.025779	0.900125	0.770860
	H1527	H	0.087504	0.963432	0.655983
	H1528	H	0.025082	0.900838	0.729394
	H1529	H	0.088487	0.962431	0.844337
	H1530	H	0.037427	0.911509	0.770236
	H1531	H	0.099011	0.974950	0.656047
	Co1532	Co	0.124979	1.000045	0.625577
	Co1533	Co	0.062416	0.937461	0.625301
	Co1534	Co	0.000007	0.874974	0.874830
	Co1535	Co	0.062468	0.937448	0.875061
	C1536	C	0.013621	0.986519	0.924293
	C1537	C	0.076026	0.923942	0.923891
	C1538	C	0.048835	0.951008	0.575484
	C1539	C	0.111530	0.888659	0.576300
	C1540	C	0.048946	0.951019	0.923758
	C1541	C	0.111261	0.888437	0.924306
	C1542	C	0.013564	0.986460	0.576221
	C1543	C	0.075852	0.923759	0.576488
	C1544	C	0.048855	0.923954	0.674078
	C1545	C	0.111386	0.986462	0.673852
	C1546	C	0.013528	0.888540	0.825765
	C1547	C	0.076149	0.950913	0.826245
	C1548	C	0.013557	0.888529	0.673548
	C1549	C	0.076048	0.951011	0.674396
	C1550	C	0.049041	0.923732	0.826356
	C1551	C	0.111455	0.986406	0.826281
	C1552	C	0.017677	0.982355	1.000198
	C1553	C	0.080015	0.919765	0.500469
	C1554	C	0.044833	0.955120	0.999786
	C1555	C	0.107411	0.892690	0.500373
	C1556	C	0.044848	0.919764	0.750233
	C1557	C	0.107348	0.982327	0.750224
	C1558	C	0.017612	0.892617	0.749865
	C1559	C	0.080164	0.955085	0.750359
	C1560	C	0.024551	0.975448	0.999962
	C1561	C	0.086961	0.912905	0.500673
	C1562	C	0.037962	0.961993	0.999793
	C1563	C	0.100469	0.899553	0.500633
	C1564	C	0.037978	0.912864	0.750087
	C1565	C	0.100435	0.975442	0.750375
	C1566	C	0.024468	0.899525	0.750189
	C1567	C	0.087035	0.962006	0.750282
	C1568	C	0.028452	0.972411	0.961155
	C1569	C	0.090301	0.909376	1.046659
	C1570	C	0.034492	0.965482	0.488711
	C1571	C	0.096878	0.902917	0.550387
	C1572	C	0.034983	0.965880	0.961014
	C1573	C	0.096870	0.902867	1.047016
	C1574	C	0.027949	0.972010	0.489085
	C1575	C	0.090345	0.909406	0.550435
	C1576	C	0.034317	0.909646	0.738469
	C1577	C	0.097273	0.971700	0.803004
	C1578	C	0.028155	0.902744	0.761715
	C1579	C	0.090217	0.965738	0.697380
	C1580	C	0.027733	0.903181	0.738451
	C1581	C	0.090745	0.965177	0.803206
	C1582	C	0.034745	0.909200	0.761303
	C1583	C	0.096726	0.972267	0.697382
	N1584	N	0.007601	0.992478	0.953041
	N1585	N	0.070013	0.929907	0.952978
	N1586	N	0.054873	0.945041	0.547357
	N1587	N	0.117473	0.882596	0.547360
	N1588	N	0.054925	0.944981	0.952728
	N1589	N	0.117308	0.882474	0.952678
	N1590	N	0.007523	0.992435	0.547293
	N1591	N	0.069877	0.929808	0.547652
	N1592	N	0.054875	0.929927	0.702941
	N1593	N	0.117429	0.992445	0.702623
	N1594	N	0.007557	0.882509	0.797211
	N1595	N	0.070125	0.944921	0.797518
	N1596	N	0.007564	0.882517	0.702239
	N1597	N	0.070080	0.944971	0.702971
	N1598	N	0.054988	0.929812	0.797619
	N1599	N	0.117473	0.992429	0.797433
	H1600	H	0.139823	0.110393	0.350880
	H1601	H	0.202161	0.047736	0.352113
	H1602	H	0.172706	0.077148	0.149071
	H1603	H	0.235392	0.014750	0.149233
	H1604	H	0.172679	0.077045	0.351226
	H1605	H	0.235163	0.014463	0.352222
	H1606	H	0.139435	0.110112	0.148517
	H1607	H	0.202159	0.047882	0.148882
	H1608	H	0.172720	0.047939	0.101668
	H1609	H	0.235265	0.110347	0.102016
	H1610	H	0.139626	0.014674	0.400245
	H1611	H	0.202160	0.077050	0.399729
	H1612	H	0.139699	0.014741	0.102587
	H1613	H	0.202224	0.077115	0.102193
	H1614	H	0.172981	0.047673	0.400035
	H1615	H	0.235229	0.110416	0.400525
	H1616	H	0.150780	0.099803	0.449865
	H1617	H	0.212229	0.036264	0.584114
	H1618	H	0.162234	0.088282	0.066140
	H1619	H	0.224591	0.025517	0.075121
	H1620	H	0.162245	0.088231	0.450806
	H1621	H	0.223727	0.024742	0.583885
	H1622	H	0.150776	0.099885	0.065643
	H1623	H	0.213062	0.037020	0.074644
	H1624	H	0.162483	0.036459	0.309948
	H1625	H	0.224808	0.099165	0.178312
	H1626	H	0.150038	0.025968	0.191081
	H1627	H	0.212681	0.088261	0.323705
	H1628	H	0.151000	0.024906	0.310189
	H1629	H	0.213380	0.087563	0.177942
	H1630	H	0.161552	0.037461	0.190929
	H1631	H	0.224241	0.099755	0.323774
	Co1632	Co	0.249935	0.124976	0.125741
	Co1633	Co	0.187514	0.062442	0.125535
	Co1634	Co	0.124955	-0.000032	0.375915
	Co1635	Co	0.187521	0.062517	0.375345
	C1636	C	0.138670	0.111496	0.423601
	C1637	C	0.201066	0.048934	0.424432
	C1638	C	0.173907	0.076020	0.076593
	C1639	C	0.236506	0.013615	0.076606
	C1640	C	0.173850	0.075982	0.423859
	C1641	C	0.236353	0.013426	0.424717
	C1642	C	0.138463	0.111306	0.075791
	C1643	C	0.201083	0.048915	0.076032
	C1644	C	0.173875	0.048961	0.174532
	C1645	C	0.236398	0.111417	0.174985
	C1646	C	0.138519	0.013559	0.327789
	C1647	C	0.201093	0.076000	0.326811
	C1648	C	0.138551	0.013597	0.175105
	C1649	C	0.201114	0.076026	0.174556
	C1650	C	0.173998	0.048851	0.327104
	C1651	C	0.236371	0.111458	0.327614
	C1652	C	0.142715	0.107396	0.499858
	C1653	C	0.205150	0.044815	0.000080
	C1654	C	0.169774	0.080106	0.499960
	C1655	C	0.232417	0.017667	0.000401
	C1656	C	0.169828	0.044836	0.250907
	C1657	C	0.232331	0.107311	0.251304
	C1658	C	0.142621	0.017624	0.251526
	C1659	C	0.205181	0.080102	0.250873
	C1660	C	0.149555	0.100473	0.500184
	C1661	C	0.212057	0.037937	0.000156
	C1662	C	0.162871	0.087001	0.500333
	C1663	C	0.225512	0.024531	-0.000166
	C1664	C	0.162966	0.037924	0.250812
	C1665	C	0.225440	0.100433	0.251152
	C1666	C	0.149534	0.024495	0.251356
	C1667	C	0.212051	0.087003	0.251056
	C1668	C	0.153129	0.097160	0.472249
	C1669	C	0.215089	0.034104	0.547203
	C1670	C	0.159699	0.090644	0.036904
	C1671	C	0.222102	0.027985	0.041875
	C1672	C	0.159608	0.090600	0.472400
	C1673	C	0.221606	0.027554	0.547106
	C1674	C	0.153175	0.097185	0.036765
	C1675	C	0.215558	0.034490	0.041926
	C1676	C	0.159796	0.034195	0.284003
	C1677	C	0.222193	0.096786	0.210204
	C1678	C	0.152746	0.028212	0.217367
	C1679	C	0.215332	0.090612	0.291857
	C1680	C	0.153254	0.027685	0.284285
	C1681	C	0.215689	0.090261	0.210076
	C1682	C	0.159276	0.034729	0.217341
	C1683	C	0.221838	0.097153	0.291864
	N1684	N	0.132632	0.117496	0.452066
	N1685	N	0.195070	0.054965	0.453055
	N1686	N	0.179923	0.070007	0.048215
	N1687	N	0.242534	0.007610	0.048251
	N1688	N	0.179867	0.070003	0.452491
	N1689	N	0.242358	0.007453	0.453435
	N1690	N	0.132509	0.117368	0.047223
	N1691	N	0.195073	0.054923	0.047230
	N1692	N	0.179896	0.054939	0.203328
	N1693	N	0.242405	0.117404	0.203655
	N1694	N	0.132498	0.007559	0.298771
	N1695	N	0.195099	0.069994	0.297726
	N1696	N	0.132525	0.007582	0.203646
	N1697	N	0.195102	0.070016	0.202915
	N1698	N	0.179999	0.054866	0.298104
	N1699	N	0.242390	0.117428	0.298638
	H1700	H	0.139805	0.110534	0.851136
	H1701	H	0.202169	0.047900	0.851207
	H1702	H	0.172718	0.077117	0.648619
	H1703	H	0.235551	0.014927	0.648915
	H1704	H	0.172868	0.077199	0.851776
	H1705	H	0.235411	0.014639	0.852070
	H1706	H	0.139685	0.110345	0.648213
	H1707	H	0.202173	0.047838	0.649198
	H1708	H	0.172685	0.047963	0.601633
	H1709	H	0.235374	0.110251	0.602340
	H1710	H	0.139749	0.014643	0.899883
	H1711	H	0.202054	0.077297	0.899007
	H1712	H	0.139669	0.014727	0.601146
	H1713	H	0.202357	0.077053	0.601099
	H1714	H	0.173011	0.047747	0.899823
	H1715	H	0.235242	0.110411	0.898391
	H1716	H	0.150213	0.099245	0.933101
	H1717	H	0.212960	0.037015	0.924760
	H1718	H	0.161617	0.087597	0.550021
	H1719	H	0.225284	0.026263	0.417860
	H1720	H	0.161686	0.087698	0.933788
	H1721	H	0.224532	0.025526	0.925003
	H1722	H	0.150204	0.099221	0.550045
	H1723	H	0.213833	0.037821	0.417623
	H1724	H	0.161618	0.037466	0.669277
	H1725	H	0.224023	0.099971	0.765600
	H1726	H	0.151005	0.025005	0.831825
	H1727	H	0.213513	0.087488	0.735754
	H1728	H	0.150028	0.025984	0.669870
	H1729	H	0.212523	0.088439	0.765692
	H1730	H	0.162598	0.036498	0.831900
	H1731	H	0.225041	0.099013	0.735645
	Co1732	Co	0.249987	0.124958	0.625550
	Co1733	Co	0.187494	0.062549	0.625038
	Co1734	Co	0.125056	0.000010	0.875228
	Co1735	Co	0.187556	0.062511	0.875059
	C1736	C	0.138650	0.111520	0.923520
	C1737	C	0.201080	0.048932	0.924137
	C1738	C	0.173867	0.076021	0.575967
	C1739	C	0.236554	0.013661	0.576658
	C1740	C	0.173990	0.076050	0.924420
	C1741	C	0.236522	0.013564	0.924560
	C1742	C	0.138598	0.111458	0.575627
	C1743	C	0.201078	0.048980	0.576656
	C1744	C	0.173897	0.049021	0.674452
	C1745	C	0.236445	0.111385	0.674589
	C1746	C	0.138602	0.013538	0.826895
	C1747	C	0.201040	0.076110	0.826505
	C1748	C	0.138567	0.013576	0.674345
	C1749	C	0.201195	0.075975	0.674213
	C1750	C	0.174054	0.048910	0.827005
	C1751	C	0.236390	0.111474	0.826382
	C1752	C	0.142656	0.107345	0.999570
	C1753	C	0.205171	0.044874	0.500553
	C1754	C	0.169874	0.080149	1.000289
	C1755	C	0.232340	0.017656	0.500621
	C1756	C	0.169900	0.044876	0.750750
	C1757	C	0.232344	0.107322	0.750676
	C1758	C	0.142690	0.017636	0.750602
	C1759	C	0.205209	0.080108	0.750313
	C1760	C	0.149566	0.100479	0.999532
	C1761	C	0.212058	0.037990	0.500446
	C1762	C	0.162975	0.087035	0.999868
	C1763	C	0.225463	0.024533	0.500469
	C1764	C	0.163058	0.037925	0.750628
	C1765	C	0.225454	0.100422	0.750812
	C1766	C	0.149593	0.024518	0.750629
	C1767	C	0.212080	0.087018	0.750454
	C1768	C	0.152838	0.096859	0.962322
	C1769	C	0.215494	0.034505	0.958013
	C1770	C	0.159296	0.090266	0.528246
	C1771	C	0.222471	0.028428	0.454242
	C1772	C	0.159358	0.090321	0.962263
	C1773	C	0.222027	0.027985	0.958011
	C1774	C	0.152826	0.096837	0.528120
	C1775	C	0.215943	0.034965	0.454011
	C1776	C	0.159310	0.034742	0.705069
	C1777	C	0.221741	0.097245	0.759075
	C1778	C	0.153324	0.027705	0.796079
	C1779	C	0.215800	0.090218	0.742098
	C1780	C	0.152759	0.028239	0.705202
	C1781	C	0.215223	0.090730	0.758926
	C1782	C	0.159884	0.034198	0.796106
	C1783	C	0.222309	0.096740	0.742143
	N1784	N	0.132620	0.117498	0.952443
	N1785	N	0.195072	0.054932	0.952882
	N1786	N	0.179894	0.070027	0.547362
	N1787	N	0.242498	0.007609	0.548069
	N1788	N	0.179966	0.070013	0.953178
	N1789	N	0.242539	0.007580	0.953524
	N1790	N	0.132586	0.117483	0.546998
	N1791	N	0.195080	0.054990	0.548053
	N1792	N	0.179927	0.055021	0.703080
	N1793	N	0.242410	0.117432	0.703085
	N1794	N	0.132607	0.007526	0.797871
	N1795	N	0.195065	0.070066	0.797680
	N1796	N	0.132560	0.007558	0.703023
	N1797	N	0.195148	0.069986	0.702635
	N1798	N	0.180028	0.054936	0.798023
	N1799	N	0.242402	0.117452	0.797541
	H1800	H	0.139661	0.235385	0.350965
	H1801	H	0.201936	0.172653	0.351055
	H1802	H	0.172752	0.202198	0.148214
	H1803	H	0.235283	0.139802	0.149376
	H1804	H	0.172721	0.202141	0.351569
	H1805	H	0.235282	0.139540	0.352096
	H1806	H	0.139704	0.235375	0.148858
	H1807	H	0.202337	0.173070	0.148312
	H1808	H	0.172506	0.173124	0.100622
	H1809	H	0.235309	0.235184	0.101641
	H1810	H	0.139816	0.139373	0.398651
	H1811	H	0.202114	0.202053	0.398784
	H1812	H	0.139590	0.139820	0.101930
	H1813	H	0.202192	0.202076	0.101521
	H1814	H	0.172945	0.172565	0.398803
	H1815	H	0.235221	0.235371	0.399715
	H1816	H	0.150920	0.224978	0.581051
	H1817	H	0.213826	0.162826	0.487901
	H1818	H	0.162767	0.213735	-0.018911
	H1819	H	0.224687	0.150746	0.069430
	H1820	H	0.162425	0.213413	0.581221
	H1821	H	0.225370	0.151277	0.488034
	H1822	H	0.151412	0.225422	-0.019176
	H1823	H	0.213204	0.162330	0.068663
	H1824	H	0.162452	0.161643	0.220742
	H1825	H	0.224165	0.224751	0.303494
	H1826	H	0.149965	0.150857	0.278895
	H1827	H	0.213300	0.212597	0.197584
	H1828	H	0.151043	0.150021	0.221469
	H1829	H	0.212687	0.213141	0.303548
	H1830	H	0.161436	0.162449	0.279405
	H1831	H	0.224747	0.224241	0.197079
	Co1832	Co	0.249952	0.250006	0.125270
	Co1833	Co	0.187489	0.187547	0.124973
	Co1834	Co	0.124992	0.124971	0.374721
	Co1835	Co	0.187474	0.187490	0.374752
	C1836	C	0.138550	0.236503	0.424119
	C1837	C	0.200906	0.173817	0.423763
	C1838	C	0.173884	0.201073	0.075836
	C1839	C	0.236423	0.138563	0.076681
	C1840	C	0.173837	0.201014	0.424061
	C1841	C	0.236393	0.138471	0.424628
	C1842	C	0.138587	0.236468	0.076122
	C1843	C	0.201152	0.174120	0.075943
	C1844	C	0.173771	0.174090	0.173418
	C1845	C	0.236428	0.236381	0.174429
	C1846	C	0.138676	0.138395	0.326032
	C1847	C	0.201075	0.201006	0.326058
	C1848	C	0.138558	0.138598	0.174183
	C1849	C	0.201129	0.201015	0.174122
	C1850	C	0.173989	0.173857	0.326095
	C1851	C	0.236362	0.236461	0.326847
	C1852	C	0.142642	0.232434	0.500409
	C1853	C	0.205177	0.169938	0.000099
	C1854	C	0.169760	0.205116	0.500175
	C1855	C	0.232264	0.142620	0.000710
	C1856	C	0.169761	0.169894	0.249715
	C1857	C	0.232287	0.232353	0.250759
	C1858	C	0.142730	0.142599	0.250293
	C1859	C	0.205215	0.205061	0.250321
	C1860	C	0.149489	0.225507	0.500467
	C1861	C	0.212012	0.163019	0.000612
	C1862	C	0.162883	0.212023	0.500490
	C1863	C	0.225392	0.149526	0.001057
	C1864	C	0.162933	0.162970	0.249904
	C1865	C	0.225390	0.225455	0.250814
	C1866	C	0.149587	0.149488	0.250647
	C1867	C	0.212069	0.211987	0.250689
	C1868	C	0.153195	0.222276	0.545769
	C1869	C	0.215943	0.159958	0.493034
	C1870	C	0.159938	0.215930	-0.010475
	C1871	C	0.222092	0.153089	0.039424
	C1872	C	0.159710	0.215730	0.545790
	C1873	C	0.222471	0.153435	0.493188
	C1874	C	0.153440	0.222481	-0.010582
	C1875	C	0.215604	0.159672	0.039060
	C1876	C	0.159774	0.159289	0.233792
	C1877	C	0.221810	0.222137	0.280407
	C1878	C	0.152716	0.153177	0.266717
	C1879	C	0.215656	0.215306	0.220634
	C1880	C	0.153291	0.152710	0.234006
	C1881	C	0.215314	0.215589	0.280509
	C1882	C	0.159219	0.159744	0.266499
	C1883	C	0.222142	0.221858	0.220808
	N1884	N	0.132546	0.242511	0.452433
	N1885	N	0.194924	0.179840	0.452321
	N1886	N	0.179911	0.195081	0.047014
	N1887	N	0.242430	0.132568	0.048056
	N1888	N	0.179842	0.194995	0.452467
	N1889	N	0.242435	0.132499	0.453255
	N1890	N	0.132570	0.242458	0.047357
	N1891	N	0.195097	0.180085	0.047165
	N1892	N	0.179825	0.180029	0.202303
	N1893	N	0.242440	0.242386	0.203030
	N1894	N	0.132652	0.132437	0.296914
	N1895	N	0.195039	0.195035	0.297034
	N1896	N	0.132569	0.132574	0.202504
	N1897	N	0.195081	0.195036	0.202711
	N1898	N	0.179949	0.179883	0.297369
	N1899	N	0.242401	0.242427	0.298040
	H1900	H	0.139716	0.235402	0.850638
	H1901	H	0.201909	0.172672	0.851352
	H1902	H	0.172747	0.202158	0.648657
	H1903	H	0.235478	0.139708	0.649081
	H1904	H	0.172730	0.202093	0.851130
	H1905	H	0.235101	0.139557	0.852119
	H1906	H	0.139655	0.235493	0.648939
	H1907	H	0.202414	0.173059	0.649075
	H1908	H	0.172793	0.172739	0.601037
	H1909	H	0.235383	0.235170	0.600697
	H1910	H	0.139568	0.139702	0.898679
	H1911	H	0.202263	0.201935	0.898620
	H1912	H	0.139759	0.139551	0.601607
	H1913	H	0.202093	0.202250	0.601773
	H1914	H	0.172772	0.172755	0.899001
	H1915	H	0.235220	0.235286	0.899810
	H1916	H	0.149577	0.223715	1.018809
	H1917	H	0.212735	0.161885	0.932207
	H1918	H	0.161479	0.212557	0.419343
	H1919	H	0.223665	0.149633	0.512420
	H1920	H	0.161127	0.212238	1.019007
	H1921	H	0.224137	0.150254	0.932803
	H1922	H	0.149994	0.224110	0.419262
	H1923	H	0.212061	0.161099	0.512088
	H1924	H	0.162239	0.161706	0.683922
	H1925	H	0.224730	0.224277	0.856166
	H1926	H	0.150119	0.150744	0.817616
	H1927	H	0.212783	0.213086	0.644790
	H1928	H	0.150725	0.150203	0.683395
	H1929	H	0.213153	0.212775	0.855705
	H1930	H	0.161684	0.162262	0.817714
	H1931	H	0.224368	0.224547	0.644427
	Co1932	Co	0.249953	0.249946	0.624995
	Co1933	Co	0.187420	0.187515	0.624645
	Co1934	Co	0.125008	0.125016	0.875297
	Co1935	Co	0.187471	0.187518	0.874653
	C1936	C	0.138576	0.236496	0.923517
	C1937	C	0.200946	0.173896	0.924050
	C1938	C	0.173841	0.201040	0.576163
	C1939	C	0.236490	0.138578	0.576517
	C1940	C	0.173861	0.201027	0.923729
	C1941	C	0.236309	0.138454	0.924792
	C1942	C	0.138552	0.236554	0.576163
	C1943	C	0.201141	0.174038	0.575860
	C1944	C	0.173927	0.173889	0.673623
	C1945	C	0.236481	0.236331	0.673845
	C1946	C	0.138505	0.138572	0.826134
	C1947	C	0.201086	0.200932	0.826056
	C1948	C	0.138605	0.138499	0.674175
	C1949	C	0.201005	0.201073	0.674369
	C1950	C	0.173918	0.173908	0.826270
	C1951	C	0.236400	0.236399	0.826732
	C1952	C	0.142674	0.232390	0.999725
	C1953	C	0.205100	0.169825	0.499945
	C1954	C	0.169769	0.205134	0.999975
	C1955	C	0.232348	0.142607	0.500563
	C1956	C	0.169802	0.169834	0.750074
	C1957	C	0.232370	0.232264	0.750386
	C1958	C	0.142637	0.142637	0.750023
	C1959	C	0.205146	0.205094	0.750411
	C1960	C	0.149548	0.225511	0.999737
	C1961	C	0.212030	0.162962	0.500004
	C1962	C	0.162888	0.212035	0.999948
	C1963	C	0.225477	0.149524	0.500393
	C1964	C	0.162938	0.162945	0.750338
	C1965	C	0.225497	0.225385	0.750592
	C1966	C	0.149525	0.149499	0.750401
	C1967	C	0.212033	0.211987	0.750336
	C1968	C	0.152501	0.221625	1.010329
	C1969	C	0.215318	0.159450	0.962723
	C1970	C	0.159172	0.215251	0.455012
	C1971	C	0.221543	0.152501	0.507148
	C1972	C	0.158978	0.215054	1.010486
	C1973	C	0.221819	0.152881	0.962860
	C1974	C	0.152663	0.221796	0.454827
	C1975	C	0.215007	0.159027	0.506832
	C1976	C	0.159640	0.159331	0.712910
	C1977	C	0.222136	0.221852	0.809615
	C1978	C	0.152805	0.153113	0.788088
	C1979	C	0.215397	0.215513	0.691012
	C1980	C	0.153104	0.152819	0.712971
	C1981	C	0.215586	0.215339	0.809652
	C1982	C	0.159319	0.159656	0.788066
	C1983	C	0.221947	0.222027	0.691178
	N1984	N	0.132557	0.242472	0.952577
	N1985	N	0.194970	0.179940	0.952552
	N1986	N	0.179852	0.195018	0.547230
	N1987	N	0.242487	0.132552	0.547892
	N1988	N	0.179894	0.195056	0.952554
	N1989	N	0.242351	0.132490	0.953250
	N1990	N	0.132543	0.242552	0.547347
	N1991	N	0.195054	0.179977	0.547225
	N1992	N	0.179947	0.179868	0.702204
	N1993	N	0.242448	0.242373	0.702678
	N1994	N	0.132551	0.132532	0.797521
	N1995	N	0.195032	0.194981	0.796911
	N1996	N	0.132622	0.132478	0.703002
	N1997	N	0.194978	0.195075	0.702554
	N1998	N	0.179956	0.179882	0.797371
	N1999	N	0.242409	0.242413	0.797932
	H2000	H	0.139563	0.360238	0.351551
	H2001	H	0.202147	0.297802	0.351721
	H2002	H	0.172774	0.327113	0.148215
	H2003	H	0.235190	0.264514	0.149050
	H2004	H	0.172739	0.327124	0.351822
	H2005	H	0.235092	0.264382	0.351830
	H2006	H	0.139794	0.360389	0.148311
	H2007	H	0.202159	0.297885	0.149070
	H2008	H	0.173013	0.297685	0.101517
	H2009	H	0.235354	0.360291	0.101483
	H2010	H	0.139695	0.264686	0.397820
	H2011	H	0.202094	0.327175	0.399370
	H2012	H	0.139596	0.264696	0.100689
	H2013	H	0.202234	0.327058	0.101507
	H2014	H	0.172640	0.298038	0.399067
	H2015	H	0.235265	0.360269	0.398701
	H2016	H	0.150302	0.349357	0.482742
	H2017	H	0.213161	0.287105	0.521767
	H2018	H	0.162540	0.338549	0.017642
	H2019	H	0.223978	0.275002	0.085798
	H2020	H	0.161754	0.337766	0.482814
	H2021	H	0.224604	0.275515	0.522360
	H2022	H	0.151120	0.350142	0.017417
	H2023	H	0.212489	0.286586	0.085524
	H2024	H	0.161683	0.287310	0.170040
	H2025	H	0.224388	0.349536	0.336860
	H2026	H	0.150845	0.275129	0.329457
	H2027	H	0.213071	0.337828	0.163382
	H2028	H	0.150150	0.275815	0.168871
	H2029	H	0.212888	0.337986	0.336882
	H2030	H	0.162429	0.286638	0.329284
	H2031	H	0.224614	0.349330	0.163364
	Co2032	Co	0.250021	0.374993	0.125322
	Co2033	Co	0.187490	0.312508	0.125052
	Co2034	Co	0.124974	0.250028	0.374868
	Co2035	Co	0.187478	0.312444	0.375359
	C2036	C	0.138544	0.361393	0.424514
	C2037	C	0.201081	0.298904	0.424110
	C2038	C	0.173871	0.326030	0.075670
	C2039	C	0.236332	0.263476	0.076320
	C2040	C	0.173883	0.325983	0.424374
	C2041	C	0.236292	0.263385	0.424369
	C2042	C	0.138639	0.361484	0.075704
	C2043	C	0.201081	0.298988	0.076575
	C2044	C	0.174022	0.298810	0.174219
	C2045	C	0.236465	0.361425	0.173978
	C2046	C	0.138538	0.263566	0.325305
	C2047	C	0.201000	0.326042	0.326729
	C2048	C	0.138484	0.263570	0.173466
	C2049	C	0.201070	0.325977	0.174384
	C2050	C	0.173855	0.298980	0.326245
	C2051	C	0.236429	0.361407	0.326227
	C2052	C	0.142728	0.357393	0.500666
	C2053	C	0.205230	0.294919	0.000667
	C2054	C	0.169807	0.330091	0.500511
	C2055	C	0.232270	0.267584	0.000044
	C2056	C	0.169887	0.294799	0.250103
	C2057	C	0.232368	0.357258	0.249993
	C2058	C	0.142596	0.267660	0.249208
	C2059	C	0.205132	0.330107	0.250527
	C2060	C	0.149584	0.350493	0.500531
	C2061	C	0.212051	0.287970	0.000717
	C2062	C	0.162967	0.337020	0.500480
	C2063	C	0.225380	0.274459	0.000084
	C2064	C	0.162982	0.287906	0.249727
	C2065	C	0.225481	0.350378	0.250090
	C2066	C	0.149510	0.274532	0.249271
	C2067	C	0.212024	0.336972	0.250222
	C2068	C	0.152885	0.346904	0.490501
	C2069	C	0.215569	0.284558	0.512475
	C2070	C	0.159810	0.340803	0.009564
	C2071	C	0.221666	0.277692	0.048294
	C2072	C	0.159395	0.340361	0.490651
	C2073	C	0.222060	0.278001	0.512713
	C2074	C	0.153289	0.347332	0.009318
	C2075	C	0.215193	0.284268	0.048385
	C2076	C	0.159324	0.284644	0.204900
	C2077	C	0.221975	0.346999	0.298585
	C2078	C	0.153180	0.277753	0.294459
	C2079	C	0.215543	0.340362	0.201510
	C2080	C	0.152770	0.278169	0.204381
	C2081	C	0.215417	0.340470	0.298697
	C2082	C	0.159721	0.284264	0.294513
	C2083	C	0.222078	0.346906	0.201531
	N2084	N	0.132514	0.367364	0.453235
	N2085	N	0.195050	0.304889	0.452928
	N2086	N	0.179892	0.320012	0.047157
	N2087	N	0.242384	0.257510	0.047423
	N2088	N	0.179879	0.319972	0.452973
	N2089	N	0.242389	0.257481	0.452997
	N2090	N	0.132594	0.367456	0.047009
	N2091	N	0.195084	0.304969	0.047540
	N2092	N	0.180006	0.304844	0.202870
	N2093	N	0.242422	0.367446	0.202828
	N2094	N	0.132508	0.257573	0.297078
	N2095	N	0.195012	0.320019	0.297983
	N2096	N	0.132457	0.257587	0.202319
	N2097	N	0.195032	0.319997	0.203162
	N2098	N	0.179901	0.304951	0.297560
	N2099	N	0.242393	0.367449	0.297699
	H2100	H	0.139508	0.360187	0.850746
	H2101	H	0.202214	0.297858	0.852000
	H2102	H	0.172709	0.327080	0.649415
	H2103	H	0.235461	0.264755	0.648967
	H2104	H	0.172864	0.327173	0.850697
	H2105	H	0.235284	0.264698	0.850942
	H2106	H	0.139696	0.360401	0.649481
	H2107	H	0.202213	0.297857	0.648888
	H2108	H	0.172805	0.297750	0.601691
	H2109	H	0.235166	0.360434	0.601775
	H2110	H	0.139592	0.264567	0.899120
	H2111	H	0.202289	0.327035	0.898737
	H2112	H	0.139516	0.264745	0.601346
	H2113	H	0.202059	0.327258	0.601159
	H2114	H	0.172794	0.297725	0.898869
	H2115	H	0.235505	0.360179	0.899389
	H2116	H	0.149865	0.348864	0.980380
	H2117	H	0.213433	0.287434	0.915292
	H2118	H	0.162265	0.338275	0.518302
	H2119	H	0.224339	0.275274	0.478788
	H2120	H	0.161379	0.337351	0.980947
	H2121	H	0.224927	0.275816	0.914445
	H2122	H	0.150772	0.349814	0.518659
	H2123	H	0.212955	0.286903	0.478676
	H2124	H	0.162000	0.286989	0.725089
	H2125	H	0.224679	0.349338	0.649485
	H2126	H	0.150389	0.275351	0.775724
	H2127	H	0.212836	0.338067	0.850807
	H2128	H	0.150412	0.275521	0.725186
	H2129	H	0.213174	0.337757	0.648324
	H2130	H	0.161900	0.286924	0.776336
	H2131	H	0.224349	0.349596	0.851159
	Co2132	Co	0.249989	0.374925	0.625457
	Co2133	Co	0.187459	0.312442	0.625144
	Co2134	Co	0.124953	0.249977	0.874675
	Co2135	Co	0.187473	0.312458	0.875122
	C2136	C	0.138495	0.361382	0.923555
	C2137	C	0.201119	0.298996	0.924574
	C2138	C	0.173867	0.325963	0.576584
	C2139	C	0.236468	0.263578	0.576361
	C2140	C	0.173935	0.326049	0.923448
	C2141	C	0.236403	0.263564	0.923953
	C2142	C	0.138627	0.361486	0.576626
	C2143	C	0.201111	0.298930	0.576178
	C2144	C	0.173885	0.298882	0.674239
	C2145	C	0.236302	0.361464	0.674510
	C2146	C	0.138540	0.263491	0.826313
	C2147	C	0.201129	0.325923	0.826206
	C2148	C	0.138478	0.263580	0.673975
	C2149	C	0.201017	0.326018	0.673755
	C2150	C	0.173897	0.298884	0.826682
	C2151	C	0.236467	0.361351	0.826707
	C2152	C	0.142678	0.357353	0.999425
	C2153	C	0.205214	0.294865	0.500044
	C2154	C	0.169814	0.330119	0.999508
	C2155	C	0.232269	0.267528	0.500425
	C2156	C	0.169760	0.294821	0.750576
	C2157	C	0.232301	0.357312	0.750879
	C2158	C	0.142621	0.267617	0.750216
	C2159	C	0.205172	0.330023	0.750054
	C2160	C	0.149526	0.350431	0.998870
	C2161	C	0.212086	0.287959	0.500196
	C2162	C	0.162935	0.336999	0.999394
	C2163	C	0.225404	0.274442	0.500301
	C2164	C	0.162865	0.287940	0.750935
	C2165	C	0.225427	0.350417	0.750927
	C2166	C	0.149493	0.274514	0.750478
	C2167	C	0.212030	0.336940	0.750121
	C2168	C	0.152637	0.346650	0.988560
	C2169	C	0.215720	0.284730	0.952629
	C2170	C	0.159684	0.340649	0.510491
	C2171	C	0.221938	0.277848	0.488154
	C2172	C	0.159149	0.340113	0.988812
	C2173	C	0.222199	0.278153	0.952115
	C2174	C	0.153161	0.347177	0.510545
	C2175	C	0.215469	0.284423	0.488272
	C2176	C	0.159450	0.284508	0.736457
	C2177	C	0.222081	0.346864	0.693657
	C2178	C	0.152907	0.277939	0.764825
	C2179	C	0.215393	0.340484	0.806757
	C2180	C	0.152950	0.277972	0.736464
	C2181	C	0.215560	0.340327	0.693170
	C2182	C	0.159431	0.284458	0.765048
	C2183	C	0.221909	0.347020	0.807201
	N2184	N	0.132523	0.367401	0.952418
	N2185	N	0.195109	0.304982	0.953140
	N2186	N	0.179841	0.319940	0.547923
	N2187	N	0.242480	0.257581	0.547644
	N2188	N	0.179931	0.320022	0.952280
	N2189	N	0.242427	0.257563	0.952558
	N2190	N	0.132554	0.367414	0.547676
	N2191	N	0.195074	0.304918	0.547604
	N2192	N	0.179913	0.304888	0.702901
	N2193	N	0.242333	0.367452	0.702886
	N2194	N	0.132516	0.257504	0.797267
	N2195	N	0.195120	0.319905	0.797586
	N2196	N	0.132480	0.257544	0.702597
	N2197	N	0.195046	0.319971	0.702455
	N2198	N	0.179932	0.304864	0.797859
	N2199	N	0.242424	0.367401	0.797685
	H2200	H	0.139603	0.485136	0.351678
	H2201	H	0.202291	0.422832	0.351587
	H2202	H	0.173079	0.452357	0.148905
	H2203	H	0.235211	0.389584	0.149318
	H2204	H	0.172918	0.452130	0.351991
	H2205	H	0.235192	0.389535	0.352045
	H2206	H	0.139664	0.485299	0.148411
	H2207	H	0.202173	0.422821	0.149489
	H2208	H	0.172759	0.423014	0.101777
	H2209	H	0.235419	0.485280	0.100956
	H2210	H	0.139838	0.389541	0.399389
	H2211	H	0.202369	0.452092	0.398455
	H2212	H	0.139648	0.389788	0.101321
	H2213	H	0.202129	0.452289	0.101627
	H2214	H	0.172953	0.422822	0.399326
	H2215	H	0.235288	0.485357	0.398956
	H2216	H	0.150676	0.474630	0.450985
	H2217	H	0.213580	0.412511	0.430688
	H2218	H	0.161764	0.462735	-0.063937
	H2219	H	0.224461	0.400406	-0.046727
	H2220	H	0.162188	0.463143	0.450923
	H2221	H	0.225015	0.400898	0.430538
	H2222	H	0.150201	0.474213	-0.062591
	H2223	H	0.212906	0.411878	-0.046174
	H2224	H	0.162435	0.411619	0.191419
	H2225	H	0.224407	0.474693	0.145571
	H2226	H	0.150208	0.400852	0.310089
	H2227	H	0.213230	0.462745	0.354760
	H2228	H	0.150963	0.400070	0.191015
	H2229	H	0.212848	0.463187	0.145100
	H2230	H	0.161692	0.412392	0.309569
	H2231	H	0.224816	0.474244	0.354528
	Co2232	Co	0.249981	0.500063	0.125269
	Co2233	Co	0.187564	0.437524	0.125373
	Co2234	Co	0.125062	0.374982	0.375346
	Co2235	Co	0.187584	0.437500	0.375603
	C2236	C	0.138543	0.486363	0.424349
	C2237	C	0.201151	0.423954	0.424350
	C2238	C	0.174080	0.451153	0.075710
	C2239	C	0.236439	0.388493	0.077249
	C2240	C	0.174023	0.451067	0.424608
	C2241	C	0.236399	0.388465	0.424588
	C2242	C	0.138567	0.486417	0.075628
	C2243	C	0.201100	0.423938	0.077077
	C2244	C	0.173895	0.424029	0.174485
	C2245	C	0.236504	0.486435	0.173755
	C2246	C	0.138674	0.388477	0.326338
	C2247	C	0.201153	0.451020	0.326112
	C2248	C	0.138565	0.388614	0.174107
	C2249	C	0.201036	0.451129	0.174214
	C2250	C	0.174011	0.423952	0.326607
	C2251	C	0.236436	0.486469	0.326053
	C2252	C	0.142694	0.482312	0.500430
	C2253	C	0.205178	0.419811	0.001015
	C2254	C	0.169927	0.455192	0.500730
	C2255	C	0.232361	0.392671	0.001231
	C2256	C	0.169891	0.419874	0.250574
	C2257	C	0.232394	0.482360	0.249778
	C2258	C	0.142691	0.392629	0.250283
	C2259	C	0.205173	0.455169	0.249932
	C2260	C	0.149553	0.475403	0.500576
	C2261	C	0.212046	0.412920	0.001514
	C2262	C	0.162986	0.462018	0.500508
	C2263	C	0.225460	0.399537	0.001429
	C2264	C	0.163010	0.412980	0.250736
	C2265	C	0.225522	0.475451	0.249807
	C2266	C	0.149597	0.399505	0.250608
	C2267	C	0.212079	0.462046	0.249733
	C2268	C	0.153078	0.472055	0.472785
	C2269	C	0.215828	0.409810	0.461461
	C2270	C	0.159384	0.465332	-0.035944
	C2271	C	0.221991	0.402920	-0.025628
	C2272	C	0.159619	0.465547	0.472567
	C2273	C	0.222285	0.403200	0.461573
	C2274	C	0.152861	0.471844	-0.035545
	C2275	C	0.215454	0.409439	-0.025557
	C2276	C	0.159800	0.409278	0.217645
	C2277	C	0.221992	0.472096	0.190954
	C2278	C	0.152850	0.403173	0.283691
	C2279	C	0.215639	0.465342	0.308422
	C2280	C	0.153269	0.402757	0.217552
	C2281	C	0.215446	0.465593	0.190958
	C2282	C	0.159367	0.409708	0.283928
	C2283	C	0.222171	0.471872	0.308487
	N2284	N	0.132604	0.492431	0.452948
	N2285	N	0.195138	0.429955	0.452842
	N2286	N	0.180045	0.445084	0.047253
	N2287	N	0.242451	0.382533	0.048096
	N2288	N	0.180041	0.445064	0.453434
	N2289	N	0.242425	0.382496	0.453381
	N2290	N	0.132576	0.492441	0.047149
	N2291	N	0.195110	0.429961	0.047908
	N2292	N	0.179895	0.430043	0.202946
	N2293	N	0.242490	0.492477	0.202644
	N2294	N	0.132645	0.382492	0.297615
	N2295	N	0.195138	0.445012	0.297530
	N2296	N	0.132577	0.382558	0.202490
	N2297	N	0.195073	0.445089	0.203077
	N2298	N	0.179970	0.429994	0.297708
	N2299	N	0.242439	0.492491	0.297590
	H2300	H	0.139729	0.485372	0.851115
	H2301	H	0.202215	0.422712	0.852164
	H2302	H	0.172847	0.452200	0.649326
	H2303	H	0.235265	0.389606	0.649588
	H2304	H	0.172757	0.451939	0.850847
	H2305	H	0.235397	0.389858	0.853138
	H2306	H	0.139760	0.485306	0.649026
	H2307	H	0.202261	0.422845	0.649076
	H2308	H	0.172856	0.422791	0.600528
	H2309	H	0.235372	0.485282	0.601434
	H2310	H	0.139774	0.389628	0.897963
	H2311	H	0.202164	0.452087	0.899691
	H2312	H	0.139578	0.389698	0.600892
	H2313	H	0.202139	0.452210	0.601399
	H2314	H	0.173014	0.422489	0.898302
	H2315	H	0.235418	0.485287	0.899634
	H2316	H	0.150820	0.474742	1.062347
	H2317	H	0.213037	0.412131	1.049488
	H2318	H	0.161923	0.462791	0.549677
	H2319	H	0.223996	0.399943	0.570386
	H2320	H	0.162284	0.463209	1.062836
	H2321	H	0.224575	0.400596	1.050144
	H2322	H	0.150323	0.474257	0.550273
	H2323	H	0.212602	0.411597	0.571064
	H2324	H	0.162212	0.411812	0.675802
	H2325	H	0.225194	0.473862	0.757028
	H2326	H	0.150336	0.400578	0.824104
	H2327	H	0.212183	0.463772	0.744134
	H2328	H	0.150620	0.400303	0.675597
	H2329	H	0.213609	0.462396	0.757115
	H2330	H	0.161900	0.412077	0.823339
	H2331	H	0.223762	0.475263	0.744457
	Co2332	Co	0.249981	0.500031	0.625559
	Co2333	Co	0.187526	0.437470	0.624994
	Co2334	Co	0.125008	0.374962	0.875055
	Co2335	Co	0.187516	0.437420	0.875110
	C2336	C	0.138628	0.486454	0.923693
	C2337	C	0.201093	0.423874	0.924592
	C2338	C	0.174000	0.451096	0.577050
	C2339	C	0.236414	0.388498	0.577034
	C2340	C	0.173910	0.450942	0.923670
	C2341	C	0.236517	0.388625	0.925081
	C2342	C	0.138642	0.486472	0.576568
	C2343	C	0.201122	0.423965	0.576368
	C2344	C	0.173978	0.423881	0.673215
	C2345	C	0.236455	0.486438	0.674415
	C2346	C	0.138546	0.388521	0.825504
	C2347	C	0.201022	0.451040	0.826844
	C2348	C	0.138438	0.388570	0.673447
	C2349	C	0.201024	0.451107	0.674266
	C2350	C	0.174048	0.423733	0.825633
	C2351	C	0.236495	0.486439	0.826762
	C2352	C	0.142664	0.482339	0.999665
	C2353	C	0.205207	0.419866	0.500482
	C2354	C	0.169911	0.455144	0.999597
	C2355	C	0.232338	0.392582	0.500725
	C2356	C	0.169882	0.419736	0.749303
	C2357	C	0.232335	0.482388	0.750631
	C2358	C	0.142567	0.392677	0.749174
	C2359	C	0.205092	0.455203	0.750731
	C2360	C	0.149543	0.475423	0.999789
	C2361	C	0.212088	0.412987	0.500635
	C2362	C	0.163003	0.462031	0.999552
	C2363	C	0.225457	0.399468	0.500553
	C2364	C	0.162990	0.412857	0.749203
	C2365	C	0.225429	0.475505	0.750824
	C2366	C	0.149524	0.399500	0.749277
	C2367	C	0.211978	0.462103	0.750919
	C2368	C	0.153165	0.472108	1.035192
	C2369	C	0.215550	0.409527	1.028795
	C2370	C	0.159449	0.465347	0.528174
	C2371	C	0.221766	0.402683	0.539826
	C2372	C	0.159698	0.465603	1.034991
	C2373	C	0.222082	0.402992	1.028714
	C2374	C	0.152898	0.471853	0.528366
	C2375	C	0.215283	0.409261	0.540009
	C2376	C	0.159610	0.409373	0.707771
	C2377	C	0.222380	0.471686	0.754210
	C2378	C	0.152913	0.402981	0.791096
	C2379	C	0.215017	0.465932	0.747207
	C2380	C	0.153054	0.402857	0.707976
	C2381	C	0.215840	0.465159	0.754473
	C2382	C	0.159488	0.409478	0.790937
	C2383	C	0.221575	0.472441	0.747439
	N2384	N	0.132597	0.492449	0.952437
	N2385	N	0.195101	0.429920	0.953182
	N2386	N	0.180029	0.445107	0.548245
	N2387	N	0.242428	0.382508	0.548134
	N2388	N	0.179933	0.444944	0.952615
	N2389	N	0.242492	0.382604	0.953434
	N2390	N	0.132656	0.492502	0.547751
	N2391	N	0.195120	0.429962	0.547560
	N2392	N	0.180003	0.429855	0.702258
	N2393	N	0.242481	0.492440	0.703135
	N2394	N	0.132521	0.382518	0.797241
	N2395	N	0.195053	0.445020	0.797890
	N2396	N	0.132455	0.382555	0.702429
	N2397	N	0.195039	0.445055	0.702870
	N2398	N	0.180056	0.429757	0.797088
	N2399	N	0.242504	0.492430	0.798041
	H2400	H	0.139855	0.610674	0.349914
	H2401	H	0.202051	0.547756	0.350541
	H2402	H	0.172792	0.577080	0.148441
	H2403	H	0.235329	0.514756	0.148759
	H2404	H	0.172882	0.577229	0.350440
	H2405	H	0.235351	0.514711	0.351914
	H2406	H	0.139539	0.610204	0.148079
	H2407	H	0.202134	0.547671	0.148580
	H2408	H	0.172974	0.547879	0.100518
	H2409	H	0.235000	0.610745	0.101479
	H2410	H	0.139743	0.514776	0.398493
	H2411	H	0.202223	0.577069	0.399604
	H2412	H	0.139611	0.514808	0.100725
	H2413	H	0.202350	0.577179	0.102080
	H2414	H	0.172834	0.547922	0.397753
	H2415	H	0.235632	0.610215	0.399504
	H2416	H	0.150953	0.600160	0.536424
	H2417	H	0.213687	0.537791	0.493582
	H2418	H	0.162107	0.588148	-0.003420
	H2419	H	0.224677	0.525603	-0.088499
	H2420	H	0.162421	0.588523	0.535910
	H2421	H	0.225282	0.526339	0.493892
	H2422	H	0.150622	0.599711	-0.003161
	H2423	H	0.213156	0.537119	-0.089001
	H2424	H	0.161521	0.537665	0.264912
	H2425	H	0.224392	0.599720	0.262266
	H2426	H	0.151087	0.525064	0.233335
	H2427	H	0.213222	0.587902	0.238593
	H2428	H	0.149915	0.526200	0.264725
	H2429	H	0.212936	0.588091	0.262228
	H2430	H	0.162664	0.536490	0.233537
	H2431	H	0.224639	0.599542	0.239284
	Co2432	Co	0.250006	0.624993	0.124749
	Co2433	Co	0.187604	0.562586	0.124548
	Co2434	Co	0.125105	0.500033	0.375347
	Co2435	Co	0.187504	0.562546	0.374426
	C2436	C	0.138642	0.611658	0.422708
	C2437	C	0.200995	0.548931	0.423640
	C2438	C	0.173975	0.576028	0.075938
	C2439	C	0.236399	0.513585	0.076092
	C2440	C	0.173879	0.576080	0.423194
	C2441	C	0.236465	0.513644	0.424529
	C2442	C	0.138505	0.611432	0.075400
	C2443	C	0.201053	0.548904	0.075592
	C2444	C	0.174065	0.548972	0.173164
	C2445	C	0.236240	0.611645	0.174194
	C2446	C	0.138633	0.513649	0.325777
	C2447	C	0.201119	0.576017	0.326578
	C2448	C	0.138544	0.513659	0.173475
	C2449	C	0.201168	0.576080	0.174712
	C2450	C	0.174010	0.548981	0.325352
	C2451	C	0.236557	0.611388	0.326459
	C2452	C	0.142640	0.607509	0.498533
	C2453	C	0.205160	0.544887	-0.000838
	C2454	C	0.169762	0.580171	0.499024
	C2455	C	0.232301	0.517611	0.000050
	C2456	C	0.169965	0.544860	0.249184
	C2457	C	0.232316	0.607456	0.250573
	C2458	C	0.142670	0.517755	0.249333
	C2459	C	0.205229	0.580145	0.251054
	C2460	C	0.149607	0.600669	0.498287
	C2461	C	0.212023	0.537966	-0.000562
	C2462	C	0.162941	0.587171	0.498640
	C2463	C	0.225415	0.524494	-0.000362
	C2464	C	0.163047	0.538008	0.248994
	C2465	C	0.225426	0.600558	0.251018
	C2466	C	0.149514	0.524668	0.249056
	C2467	C	0.212120	0.587039	0.250788
	C2468	C	0.153294	0.597454	0.519423
	C2469	C	0.215864	0.534974	0.496371
	C2470	C	0.159584	0.590569	-0.001895
	C2471	C	0.222070	0.528025	-0.049823
	C2472	C	0.159768	0.590902	0.519526
	C2473	C	0.222407	0.528485	0.496772
	C2474	C	0.153055	0.597096	-0.001897
	C2475	C	0.215566	0.534577	-0.050068
	C2476	C	0.159239	0.534920	0.257659
	C2477	C	0.221929	0.597130	0.257547
	C2478	C	0.153336	0.527791	0.240260
	C2479	C	0.215617	0.590443	0.244355
	C2480	C	0.152673	0.528428	0.257686
	C2481	C	0.215472	0.590548	0.257218
	C2482	C	0.159894	0.534278	0.240427
	C2483	C	0.222090	0.597017	0.244593
	N2484	N	0.132541	0.617597	0.451649
	N2485	N	0.195031	0.555006	0.452169
	N2486	N	0.180022	0.570074	0.047114
	N2487	N	0.242390	0.507548	0.047609
	N2488	N	0.179859	0.570038	0.452228
	N2489	N	0.242469	0.507626	0.453360
	N2490	N	0.132546	0.617477	0.046337
	N2491	N	0.195090	0.554954	0.047037
	N2492	N	0.180055	0.554969	0.201932
	N2493	N	0.242353	0.617568	0.202549
	N2494	N	0.132636	0.507610	0.297559
	N2495	N	0.195099	0.570059	0.297315
	N2496	N	0.132579	0.507608	0.202619
	N2497	N	0.195144	0.570082	0.202751
	N2498	N	0.180031	0.554962	0.296403
	N2499	N	0.242540	0.617411	0.297265
	H2500	H	0.139898	0.610471	0.850771
	H2501	H	0.202303	0.547897	0.850443
	H2502	H	0.172708	0.577274	0.648004
	H2503	H	0.235462	0.514825	0.649183
	H2504	H	0.172824	0.577245	0.852077
	H2505	H	0.235133	0.514414	0.851737
	H2506	H	0.139644	0.610385	0.647146
	H2507	H	0.202226	0.548002	0.648757
	H2508	H	0.172823	0.547948	0.600962
	H2509	H	0.235354	0.610530	0.600451
	H2510	H	0.139888	0.514503	0.898741
	H2511	H	0.202305	0.577232	0.897394
	H2512	H	0.139608	0.514856	0.601557
	H2513	H	0.202255	0.577159	0.600854
	H2514	H	0.173025	0.547903	0.899757
	H2515	H	0.235539	0.610180	0.897403
	H2516	H	0.150376	0.599334	1.003235
	H2517	H	0.212870	0.536936	1.088024
	H2518	H	0.161525	0.587591	0.461469
	H2519	H	0.223742	0.524765	0.506060
	H2520	H	0.161904	0.587833	1.003212
	H2521	H	0.224317	0.525338	1.088055
	H2522	H	0.150058	0.599177	0.461050
	H2523	H	0.212174	0.536296	0.505737
	H2524	H	0.162680	0.536499	0.810496
	H2525	H	0.224303	0.599799	0.713458
	H2526	H	0.150057	0.525994	0.690586
	H2527	H	0.213343	0.587844	0.784060
	H2528	H	0.151185	0.524961	0.810809
	H2529	H	0.212846	0.588173	0.713865
	H2530	H	0.161585	0.537542	0.690877
	H2531	H	0.224754	0.599458	0.785196
	Co2532	Co	0.250087	0.625045	0.624583
	Co2533	Co	0.187440	0.562599	0.624497
	Co2534	Co	0.125015	0.499986	0.875386
	Co2535	Co	0.187601	0.562624	0.874678
	C2536	C	0.138691	0.611557	0.923320
	C2537	C	0.201145	0.549021	0.923081
	C2538	C	0.173792	0.576108	0.575339
	C2539	C	0.236527	0.513718	0.576759
	C2540	C	0.173974	0.576090	0.924181
	C2541	C	0.236308	0.513445	0.924210
	C2542	C	0.138538	0.611504	0.574698
	C2543	C	0.201079	0.549077	0.575902
	C2544	C	0.173938	0.549002	0.673934
	C2545	C	0.236440	0.611586	0.673265
	C2546	C	0.138698	0.513441	0.826396
	C2547	C	0.201173	0.576108	0.825052
	C2548	C	0.138541	0.513649	0.674113
	C2549	C	0.201138	0.576060	0.673056
	C2550	C	0.174044	0.548980	0.826563
	C2551	C	0.236535	0.611420	0.824882
	C2552	C	0.142697	0.607399	0.999662
	C2553	C	0.205093	0.544904	0.499873
	C2554	C	0.169870	0.580149	1.000162
	C2555	C	0.232420	0.517789	0.500447
	C2556	C	0.169907	0.544895	0.750517
	C2557	C	0.232356	0.607455	0.748909
	C2558	C	0.142739	0.517616	0.750337
	C2559	C	0.205263	0.580156	0.748854
	C2560	C	0.149559	0.600474	0.999867
	C2561	C	0.211999	0.538013	0.499636
	C2562	C	0.162971	0.587038	1.000078
	C2563	C	0.225472	0.524630	0.500214
	C2564	C	0.163035	0.537990	0.750895
	C2565	C	0.225480	0.600548	0.749099
	C2566	C	0.149628	0.524503	0.750667
	C2567	C	0.212150	0.587067	0.749137
	C2568	C	0.152914	0.596922	1.001939
	C2569	C	0.215387	0.534447	1.049041
	C2570	C	0.159250	0.590363	0.477557
	C2571	C	0.221571	0.527621	0.503193
	C2572	C	0.159442	0.590388	1.001829
	C2573	C	0.221898	0.527904	1.049025
	C2574	C	0.152783	0.596926	0.477392
	C2575	C	0.215019	0.534129	0.503075
	C2576	C	0.159905	0.534221	0.784434
	C2577	C	0.221928	0.597175	0.729200
	C2578	C	0.152778	0.528248	0.717158
	C2579	C	0.215706	0.590439	0.769141
	C2580	C	0.153380	0.527684	0.784308
	C2581	C	0.215436	0.590624	0.729487
	C2582	C	0.159314	0.534789	0.717255
	C2583	C	0.222186	0.596998	0.769220
	N2584	N	0.132654	0.617548	0.951677
	N2585	N	0.195138	0.555033	0.952007
	N2586	N	0.179799	0.570058	0.547015
	N2587	N	0.242505	0.507673	0.547952
	N2588	N	0.180038	0.570116	0.952558
	N2589	N	0.242322	0.507469	0.953066
	N2590	N	0.132478	0.617495	0.546406
	N2591	N	0.195078	0.555089	0.546935
	N2592	N	0.179949	0.555014	0.702636
	N2593	N	0.242499	0.617533	0.702367
	N2594	N	0.132626	0.507498	0.797513
	N2595	N	0.195137	0.570110	0.796717
	N2596	N	0.132545	0.507620	0.702684
	N2597	N	0.195106	0.570081	0.702019
	N2598	N	0.180017	0.555000	0.797427
	N2599	N	0.242553	0.617432	0.796672
	H2600	H	0.139655	0.735329	0.349607
	H2601	H	0.202316	0.672884	0.350758
	H2602	H	0.172835	0.702285	0.147957
	H2603	H	0.235348	0.639725	0.147589
	H2604	H	0.172591	0.701956	0.349686
	H2605	H	0.235313	0.639645	0.350782
	H2606	H	0.139663	0.735279	0.147239
	H2607	H	0.202096	0.672698	0.146610
	H2608	H	0.172794	0.672903	0.100521
	H2609	H	0.235053	0.735676	0.100977
	H2610	H	0.139719	0.639627	0.397849
	H2611	H	0.202312	0.702112	0.398082
	H2612	H	0.139736	0.639726	0.100193
	H2613	H	0.202029	0.702345	0.100010
	H2614	H	0.172938	0.672781	0.397950
	H2615	H	0.235578	0.735138	0.398208
	H2616	H	0.149937	0.723922	0.513491
	H2617	H	0.212771	0.661728	0.453530
	H2618	H	0.162487	0.713434	0.087402
	H2619	H	0.224246	0.650166	-0.103395
	H2620	H	0.161427	0.712350	0.514247
	H2621	H	0.224187	0.650087	0.453952
	H2622	H	0.151014	0.725003	0.087603
	H2623	H	0.212749	0.661669	-0.103134
	H2624	H	0.161302	0.662764	0.299189
	H2625	H	0.224469	0.724531	0.228311
	H2626	H	0.151209	0.649832	0.199015
	H2627	H	0.213098	0.713039	0.269427
	H2628	H	0.149815	0.651175	0.299813
	H2629	H	0.212941	0.713042	0.228049
	H2630	H	0.162689	0.661426	0.199268
	H2631	H	0.224619	0.724535	0.270045
	Co2632	Co	0.250000	0.750074	0.124786
	Co2633	Co	0.187548	0.687518	0.124080
	Co2634	Co	0.125021	0.625126	0.373804
	Co2635	Co	0.187577	0.687509	0.374017
	C2636	C	0.138593	0.736478	0.422479
	C2637	C	0.201167	0.673990	0.423215
	C2638	C	0.173994	0.701149	0.075336
	C2639	C	0.236524	0.638576	0.075067
	C2640	C	0.173821	0.700932	0.422428
	C2641	C	0.236409	0.638552	0.423574
	C2642	C	0.138573	0.736444	0.074687
	C2643	C	0.201020	0.673874	0.074401
	C2644	C	0.173912	0.674038	0.173076
	C2645	C	0.236329	0.736601	0.173782
	C2646	C	0.138579	0.638607	0.325297
	C2647	C	0.201179	0.701049	0.325149
	C2648	C	0.138589	0.638642	0.173149
	C2649	C	0.201038	0.701152	0.172660
	C2650	C	0.173980	0.673977	0.325691
	C2651	C	0.236590	0.736341	0.325440
	C2652	C	0.142726	0.732420	0.498466
	C2653	C	0.205186	0.669848	-0.001730
	C2654	C	0.169814	0.705121	0.498547
	C2655	C	0.232416	0.642655	-0.001052
	C2656	C	0.169811	0.669965	0.249431
	C2657	C	0.232400	0.732371	0.249671
	C2658	C	0.142663	0.642699	0.249280
	C2659	C	0.205209	0.705172	0.248712
	C2660	C	0.149575	0.725493	0.498220
	C2661	C	0.212082	0.662974	-0.001586
	C2662	C	0.162942	0.712019	0.498540
	C2663	C	0.225527	0.649530	-0.001355
	C2664	C	0.162938	0.663044	0.249596
	C2665	C	0.225472	0.725522	0.249340
	C2666	C	0.149560	0.649592	0.249417
	C2667	C	0.212068	0.712090	0.248692
	C2668	C	0.152693	0.721705	0.506686
	C2669	C	0.215402	0.659354	0.474218
	C2670	C	0.159787	0.715740	0.048709
	C2671	C	0.221900	0.652774	-0.058667
	C2672	C	0.159186	0.715144	0.507181
	C2673	C	0.221868	0.652775	0.474325
	C2674	C	0.153304	0.722311	0.048481
	C2675	C	0.215380	0.659320	-0.058676
	C2676	C	0.159133	0.659945	0.277722
	C2677	C	0.221976	0.722065	0.237570
	C2678	C	0.153383	0.652694	0.221158
	C2679	C	0.215559	0.715544	0.260406
	C2680	C	0.152627	0.653417	0.277658
	C2681	C	0.215461	0.715541	0.237308
	C2682	C	0.159890	0.659229	0.221269
	C2683	C	0.222076	0.722057	0.260648
	N2684	N	0.132592	0.742491	0.451247
	N2685	N	0.195105	0.679959	0.451820
	N2686	N	0.180022	0.695153	0.046922
	N2687	N	0.242541	0.632569	0.046670
	N2688	N	0.179883	0.694987	0.451222
	N2689	N	0.242422	0.632553	0.452286
	N2690	N	0.132562	0.742424	0.045881
	N2691	N	0.195033	0.679898	0.046064
	N2692	N	0.179916	0.680035	0.201801
	N2693	N	0.242407	0.742536	0.202293
	N2694	N	0.132548	0.632637	0.296436
	N2695	N	0.195149	0.695056	0.296616
	N2696	N	0.132546	0.632644	0.201629
	N2697	N	0.195087	0.695079	0.201730
	N2698	N	0.179997	0.679979	0.296651
	N2699	N	0.242549	0.742404	0.296972
	H2700	H	0.139801	0.735425	0.850021
	H2701	H	0.202293	0.672977	0.849687
	H2702	H	0.173140	0.702468	0.647603
	H2703	H	0.235315	0.639617	0.649178
	H2704	H	0.172763	0.702028	0.850104
	H2705	H	0.235251	0.639468	0.850323
	H2706	H	0.139834	0.735454	0.647369
	H2707	H	0.202093	0.672795	0.647705
	H2708	H	0.172830	0.672880	0.600535
	H2709	H	0.235377	0.735351	0.600689
	H2710	H	0.139748	0.639663	0.897411
	H2711	H	0.202350	0.702081	0.897376
	H2712	H	0.139800	0.639650	0.600560
	H2713	H	0.202073	0.702319	0.600662
	H2714	H	0.172690	0.673063	0.898109
	H2715	H	0.235608	0.735237	0.898585
	H2716	H	0.150204	0.724222	0.909737
	H2717	H	0.213359	0.662364	1.100440
	H2718	H	0.162587	0.713585	0.483129
	H2719	H	0.224809	0.650854	0.546348
	H2720	H	0.161627	0.712556	0.909991
	H2721	H	0.224869	0.650820	1.100438
	H2722	H	0.151059	0.725106	0.482990
	H2723	H	0.213333	0.662449	0.546348
	H2724	H	0.162824	0.661293	0.693864
	H2725	H	0.224451	0.724603	0.677712
	H2726	H	0.149766	0.651346	0.804471
	H2727	H	0.213106	0.712956	0.820092
	H2728	H	0.151397	0.649689	0.693781
	H2729	H	0.212925	0.713116	0.677662
	H2730	H	0.161169	0.662948	0.805084
	H2731	H	0.224716	0.724438	0.820521
	Co2732	Co	0.250004	0.750092	0.624977
	Co2733	Co	0.187499	0.687551	0.624070
	Co2734	Co	0.125068	0.625037	0.873746
	Co2735	Co	0.187560	0.687522	0.874283
	C2736	C	0.138627	0.736505	0.922609
	C2737	C	0.201122	0.674019	0.922311
	C2738	C	0.174064	0.701185	0.574717
	C2739	C	0.236427	0.638545	0.576301
	C2740	C	0.173936	0.701020	0.923003
	C2741	C	0.236452	0.638458	0.922965
	C2742	C	0.138686	0.736536	0.574629
	C2743	C	0.201056	0.673961	0.575347
	C2744	C	0.173918	0.674022	0.673305
	C2745	C	0.236493	0.736427	0.673504
	C2746	C	0.138639	0.638524	0.824818
	C2747	C	0.201128	0.701052	0.825045
	C2748	C	0.138688	0.638522	0.672807
	C2749	C	0.201002	0.701166	0.672983
	C2750	C	0.173827	0.674151	0.825243
	C2751	C	0.236603	0.736346	0.825771
	C2752	C	0.142711	0.732369	0.998744
	C2753	C	0.205223	0.669942	0.499433
	C2754	C	0.169903	0.705198	0.999101
	C2755	C	0.232351	0.642648	0.500060
	C2756	C	0.169759	0.670003	0.749227
	C2757	C	0.232472	0.732294	0.749666
	C2758	C	0.142768	0.642615	0.748941
	C2759	C	0.205134	0.705196	0.749015
	C2760	C	0.149619	0.725525	0.998643
	C2761	C	0.212108	0.663053	0.499861
	C2762	C	0.163000	0.712054	0.998889
	C2763	C	0.225462	0.649530	0.500037
	C2764	C	0.162925	0.663090	0.749295
	C2765	C	0.225554	0.725420	0.749354
	C2766	C	0.149600	0.649564	0.749041
	C2767	C	0.212056	0.712053	0.748707
	C2768	C	0.152818	0.721870	0.948856
	C2769	C	0.215692	0.659712	1.055505
	C2770	C	0.159830	0.715804	0.489950
	C2771	C	0.222172	0.653206	0.525894
	C2772	C	0.159320	0.715305	0.948892
	C2773	C	0.222232	0.653180	1.055562
	C2774	C	0.153326	0.722349	0.489776
	C2775	C	0.215688	0.659780	0.526052
	C2776	C	0.159982	0.659133	0.718114
	C2777	C	0.221994	0.722042	0.709107
	C2778	C	0.152575	0.653499	0.780188
	C2779	C	0.215586	0.715464	0.788609
	C2780	C	0.153500	0.652560	0.718220
	C2781	C	0.215464	0.715525	0.708970
	C2782	C	0.159041	0.660083	0.780704
	C2783	C	0.222131	0.721961	0.789191
	N2784	N	0.132591	0.742462	0.951342
	N2785	N	0.195078	0.679975	0.951409
	N2786	N	0.180017	0.695129	0.545973
	N2787	N	0.242414	0.632526	0.547268
	N2788	N	0.179985	0.695073	0.951926
	N2789	N	0.242486	0.632492	0.951984
	N2790	N	0.132635	0.742524	0.546021
	N2791	N	0.195046	0.679956	0.546621
	N2792	N	0.179923	0.680039	0.701909
	N2793	N	0.242510	0.742431	0.702302
	N2794	N	0.132666	0.632509	0.795991
	N2795	N	0.195063	0.695086	0.796542
	N2796	N	0.132655	0.632539	0.701270
	N2797	N	0.194997	0.695141	0.701722
	N2798	N	0.179872	0.680105	0.796438
	N2799	N	0.242577	0.742385	0.797242
	H2800	H	0.139697	0.860289	0.350438
	H2801	H	0.202202	0.797874	0.351213
	H2802	H	0.172859	0.827187	0.149232
	H2803	H	0.235469	0.764819	0.149172
	H2804	H	0.172847	0.827194	0.352016
	H2805	H	0.235101	0.764432	0.351081
	H2806	H	0.139587	0.860205	0.148443
	H2807	H	0.202137	0.797838	0.148478
	H2808	H	0.172839	0.797821	0.100954
	H2809	H	0.235167	0.860517	0.102152
	H2810	H	0.139571	0.764794	0.397575
	H2811	H	0.202183	0.827186	0.398358
	H2812	H	0.139711	0.764712	0.099718
	H2813	H	0.202260	0.827242	0.100965
	H2814	H	0.172868	0.797746	0.398893
	H2815	H	0.235523	0.860170	0.399549
	H2816	H	0.150606	0.849587	0.425335
	H2817	H	0.212786	0.786805	0.483607
	H2818	H	0.162206	0.838224	0.111844
	H2819	H	0.224611	0.775651	0.049398
	H2820	H	0.162170	0.838081	0.426193
	H2821	H	0.224304	0.775274	0.482991
	H2822	H	0.150643	0.849711	0.110856
	H2823	H	0.213113	0.787207	0.049250
	H2824	H	0.162529	0.786351	0.243489
	H2825	H	0.223875	0.850234	0.183432
	H2826	H	0.149872	0.776209	0.256582
	H2827	H	0.213763	0.837273	0.317117
	H2828	H	0.150944	0.774914	0.242158
	H2829	H	0.212324	0.838721	0.182923
	H2830	H	0.161493	0.787584	0.256693
	H2831	H	0.225190	0.848879	0.318134
	Co2832	Co	0.250058	0.875041	0.125553
	Co2833	Co	0.187534	0.812549	0.124790
	Co2834	Co	0.125005	0.750022	0.373497
	Co2835	Co	0.187523	0.812547	0.375084
	C2836	C	0.138571	0.861409	0.423593
	C2837	C	0.201108	0.798981	0.424042
	C2838	C	0.173992	0.826099	0.076546
	C2839	C	0.236488	0.763643	0.076219
	C2840	C	0.173946	0.826081	0.424502
	C2841	C	0.236338	0.763449	0.423788
	C2842	C	0.138471	0.861349	0.075864
	C2843	C	0.201035	0.798962	0.075834
	C2844	C	0.173987	0.798922	0.173761
	C2845	C	0.236379	0.861583	0.174998
	C2846	C	0.138479	0.763688	0.324834
	C2847	C	0.201098	0.826038	0.325455
	C2848	C	0.138546	0.763643	0.172469
	C2849	C	0.201113	0.826078	0.173560
	C2850	C	0.173996	0.798875	0.326349
	C2851	C	0.236534	0.861390	0.326791
	C2852	C	0.142600	0.857302	0.499900
	C2853	C	0.205140	0.794891	-0.000439
	C2854	C	0.169855	0.830133	0.500630
	C2855	C	0.232314	0.767671	0.000076
	C2856	C	0.169919	0.794798	0.250059
	C2857	C	0.232387	0.857390	0.250766
	C2858	C	0.142548	0.767768	0.248826
	C2859	C	0.205185	0.830159	0.249774
	C2860	C	0.149483	0.850408	0.500174
	C2861	C	0.212038	0.788009	-0.000332
	C2862	C	0.162945	0.837028	0.500807
	C2863	C	0.225435	0.774555	-0.000123
	C2864	C	0.163008	0.787938	0.249852
	C2865	C	0.225488	0.850512	0.250734
	C2866	C	0.149469	0.774619	0.249251
	C2867	C	0.212084	0.837047	0.249952
	C2868	C	0.153036	0.847030	0.458358
	C2869	C	0.215414	0.784440	0.490560
	C2870	C	0.159629	0.840620	0.062804
	C2871	C	0.222052	0.778091	0.027551
	C2872	C	0.159591	0.840555	0.458623
	C2873	C	0.221929	0.777901	0.490416
	C2874	C	0.153064	0.847110	0.062517
	C2875	C	0.215546	0.784641	0.027612
	C2876	C	0.159815	0.784175	0.246040
	C2877	C	0.221641	0.847449	0.212745
	C2878	C	0.152664	0.778396	0.253481
	C2879	C	0.215904	0.840125	0.287588
	C2880	C	0.153233	0.777708	0.245354
	C2881	C	0.215136	0.840898	0.212392
	C2882	C	0.159230	0.784868	0.253578
	C2883	C	0.222424	0.846660	0.288164
	N2884	N	0.132557	0.867441	0.452235
	N2885	N	0.195108	0.804996	0.452766
	N2886	N	0.180022	0.820132	0.047363
	N2887	N	0.242471	0.757613	0.047188
	N2888	N	0.179955	0.820062	0.452928
	N2889	N	0.242402	0.757504	0.452440
	N2890	N	0.132466	0.867376	0.047336
	N2891	N	0.195055	0.804979	0.047260
	N2892	N	0.179981	0.804956	0.202553
	N2893	N	0.242423	0.867562	0.203587
	N2894	N	0.132523	0.757637	0.295946
	N2895	N	0.195102	0.820043	0.296821
	N2896	N	0.132550	0.757620	0.201069
	N2897	N	0.195120	0.820053	0.202202
	N2898	N	0.179979	0.804928	0.297687
	N2899	N	0.242478	0.867468	0.298237
	H2900	H	0.139748	0.860453	0.851022
	H2901	H	0.202281	0.797869	0.850434
	H2902	H	0.172867	0.827190	0.648900
	H2903	H	0.235518	0.764919	0.648668
	H2904	H	0.172934	0.827353	0.851637
	H2905	H	0.235290	0.764627	0.851107
	H2906	H	0.139466	0.860133	0.648995
	H2907	H	0.202219	0.797862	0.649174
	H2908	H	0.173048	0.797606	0.601405
	H2909	H	0.235531	0.860262	0.602206
	H2910	H	0.139567	0.764790	0.898114
	H2911	H	0.202267	0.827189	0.898154
	H2912	H	0.139687	0.764734	0.600452
	H2913	H	0.202081	0.827248	0.600439
	H2914	H	0.172768	0.797988	0.899726
	H2915	H	0.235285	0.860380	0.899442
	H2916	H	0.150198	0.849269	0.889736
	H2917	H	0.212865	0.786861	0.949945
	H2918	H	0.161847	0.837875	0.575000
	H2919	H	0.224790	0.775864	0.516641
	H2920	H	0.161813	0.837834	0.890240
	H2921	H	0.224359	0.775285	0.950483
	H2922	H	0.150251	0.849288	0.575084
	H2923	H	0.213267	0.787343	0.516174
	H2924	H	0.161584	0.787508	0.713579
	H2925	H	0.224067	0.849997	0.829899
	H2926	H	0.150952	0.775067	0.787437
	H2927	H	0.213476	0.837604	0.669810
	H2928	H	0.149974	0.776041	0.713050
	H2929	H	0.212552	0.838431	0.829444
	H2930	H	0.162514	0.786537	0.787829
	H2931	H	0.225034	0.849120	0.671191
	Co2932	Co	0.250112	0.874989	0.625684
	Co2933	Co	0.187550	0.812505	0.625057
	Co2934	Co	0.125041	0.750026	0.873600
	Co2935	Co	0.187531	0.812549	0.874614
	C2936	C	0.138560	0.861489	0.923780
	C2937	C	0.201091	0.798997	0.923441
	C2938	C	0.173939	0.826064	0.576359
	C2939	C	0.236565	0.763708	0.575928
	C2940	C	0.174045	0.826184	0.924341
	C2941	C	0.236404	0.763556	0.923851
	C2942	C	0.138459	0.861333	0.576157
	C2943	C	0.201112	0.798984	0.576235
	C2944	C	0.174082	0.798830	0.674203
	C2945	C	0.236556	0.861426	0.674771
	C2946	C	0.138504	0.763657	0.825391
	C2947	C	0.201138	0.826076	0.825377
	C2948	C	0.138558	0.763640	0.673137
	C2949	C	0.201060	0.826106	0.673368
	C2950	C	0.173920	0.799026	0.826577
	C2951	C	0.236439	0.861478	0.826764
	C2952	C	0.142581	0.857313	0.999761
	C2953	C	0.205209	0.794895	0.500082
	C2954	C	0.169908	0.830232	1.000768
	C2955	C	0.232365	0.767666	0.499806
	C2956	C	0.169921	0.794826	0.750463
	C2957	C	0.232405	0.857370	0.750622
	C2958	C	0.142592	0.767783	0.749468
	C2959	C	0.205186	0.830197	0.749273
	C2960	C	0.149491	0.850450	1.000011
	C2961	C	0.212079	0.788016	0.499785
	C2962	C	0.162981	0.837073	1.000814
	C2963	C	0.225511	0.774573	0.499850
	C2964	C	0.163008	0.787964	0.750568
	C2965	C	0.225481	0.850501	0.750280
	C2966	C	0.149505	0.774643	0.749903
	C2967	C	0.212077	0.837097	0.749351
	C2968	C	0.152855	0.846892	0.938257
	C2969	C	0.215412	0.784441	0.972006
	C2970	C	0.159383	0.840403	0.542493
	C2971	C	0.222193	0.778199	0.509277
	C2972	C	0.159404	0.840388	0.938640
	C2973	C	0.221929	0.777898	0.972161
	C2974	C	0.152829	0.846881	0.542247
	C2975	C	0.215657	0.784704	0.508915
	C2976	C	0.159266	0.784808	0.729719
	C2977	C	0.221765	0.847303	0.794705
	C2978	C	0.153240	0.777788	0.771035
	C2979	C	0.215769	0.840304	0.704917
	C2980	C	0.152701	0.778324	0.729428
	C2981	C	0.215255	0.840777	0.794303
	C2982	C	0.159812	0.784254	0.771340
	C2983	C	0.222301	0.846808	0.705537
	N2984	N	0.132515	0.867465	0.952585
	N2985	N	0.195080	0.805009	0.952131
	N2986	N	0.179932	0.820053	0.547752
	N2987	N	0.242536	0.757672	0.547470
	N2988	N	0.180022	0.820159	0.952586
	N2989	N	0.242416	0.757552	0.952493
	N2990	N	0.132490	0.867402	0.547282
	N2991	N	0.195117	0.804997	0.547418
	N2992	N	0.180028	0.804906	0.702678
	N2993	N	0.242554	0.867457	0.703521
	N2994	N	0.132577	0.757601	0.796179
	N2995	N	0.195120	0.820066	0.796909
	N2996	N	0.132601	0.757588	0.701709
	N2997	N	0.195072	0.820085	0.702340
	N2998	N	0.179929	0.805007	0.797535
	N2999	N	0.242473	0.867483	0.798177
	H3000	H	0.139441	0.985152	0.351320
	H3001	H	0.202247	0.922845	0.351761
	H3002	H	0.173022	0.952415	0.147810
	H3003	H	0.235554	0.889834	0.149431
	H3004	H	0.172817	0.952131	0.351098
	H3005	H	0.235212	0.889597	0.352346
	H3006	H	0.139859	0.985586	0.148960
	H3007	H	0.202074	0.922787	0.150449
	H3008	H	0.172672	0.923063	0.101457
	H3009	H	0.235255	0.985455	0.102114
	H3010	H	0.139452	0.889981	0.398083
	H3011	H	0.202416	0.951913	0.399217
	H3012	H	0.139874	0.889596	0.100272
	H3013	H	0.201950	0.952458	0.101579
	H3014	H	0.173077	0.922638	0.398713
	H3015	H	0.235611	0.985107	0.399849
	H3016	H	0.151021	0.975023	0.560665
	H3017	H	0.213179	0.912214	0.567601
	H3018	H	0.162235	0.963291	-0.030527
	H3019	H	0.223291	0.899265	0.114102
	H3020	H	0.162585	0.963554	0.559705
	H3021	H	0.224734	0.900712	0.568230
	H3022	H	0.150690	0.974782	-0.030310
	H3023	H	0.211773	0.910774	0.114152
	H3024	H	0.162770	0.911453	0.204632
	H3025	H	0.225055	0.973983	0.275307
	H3026	H	0.149830	0.901093	0.294164
	H3027	H	0.212580	0.963485	0.225694
	H3028	H	0.151203	0.899942	0.203621
	H3029	H	0.213447	0.962583	0.274694
	H3030	H	0.161446	0.912553	0.294889
	H3031	H	0.224177	0.974919	0.226435
	Co3032	Co	0.250023	1.000039	0.125885
	Co3033	Co	0.187490	0.937566	0.124902
	Co3034	Co	0.125010	0.875024	0.374924
	Co3035	Co	0.187537	0.937467	0.375405
	C3036	C	0.138418	0.986357	0.424399
	C3037	C	0.201139	0.923918	0.424519
	C3038	C	0.174011	0.951183	0.075461
	C3039	C	0.236542	0.888661	0.076923
	C3040	C	0.173971	0.951066	0.423678
	C3041	C	0.236441	0.888522	0.424982
	C3042	C	0.138640	0.986541	0.076347
	C3043	C	0.200995	0.923922	0.077406
	C3044	C	0.173904	0.924031	0.173936
	C3045	C	0.236426	0.986527	0.174890
	C3046	C	0.138436	0.888720	0.325744
	C3047	C	0.201160	0.950956	0.326355
	C3048	C	0.138636	0.888507	0.173050
	C3049	C	0.200913	0.951212	0.174295
	C3050	C	0.174110	0.923828	0.326077
	C3051	C	0.236617	0.986332	0.327059
	C3052	C	0.142611	0.982325	0.500230
	C3053	C	0.205137	0.919833	0.001321
	C3054	C	0.169891	0.955205	0.499739
	C3055	C	0.232334	0.892669	0.001040
	C3056	C	0.169935	0.919817	0.249986
	C3057	C	0.232432	0.982325	0.251102
	C3058	C	0.142629	0.892714	0.249171
	C3059	C	0.205134	0.955186	0.250377
	C3060	C	0.149526	0.975464	0.500190
	C3061	C	0.212053	0.912982	0.001581
	C3062	C	0.163006	0.962086	0.499826
	C3063	C	0.225462	0.899557	0.001318
	C3064	C	0.163025	0.912954	0.249684
	C3065	C	0.225565	0.975417	0.251124
	C3066	C	0.149535	0.899582	0.248906
	C3067	C	0.212051	0.962049	0.250190
	C3068	C	0.153263	0.972327	0.533831
	C3069	C	0.215615	0.909585	0.538527
	C3070	C	0.159629	0.965647	-0.017132
	C3071	C	0.221337	0.902329	0.064548
	C3072	C	0.159828	0.965826	0.533677
	C3073	C	0.222153	0.903079	0.538930
	C3074	C	0.153100	0.972152	-0.016893
	C3075	C	0.214824	0.908864	0.064824
	C3076	C	0.159936	0.909199	0.224149
	C3077	C	0.222347	0.971721	0.264350
	C3078	C	0.152638	0.903313	0.274559
	C3079	C	0.215296	0.965730	0.236735
	C3080	C	0.153375	0.902686	0.223702
	C3081	C	0.215763	0.965233	0.263982
	C3082	C	0.159203	0.909823	0.274800
	C3083	C	0.221853	0.972242	0.237403
	N3084	N	0.132474	0.992405	0.453504
	N3085	N	0.195115	0.929912	0.453130
	N3086	N	0.179974	0.945102	0.046931
	N3087	N	0.242544	0.882657	0.048041
	N3088	N	0.179993	0.945078	0.452708
	N3089	N	0.242492	0.882547	0.453520
	N3090	N	0.132601	0.992495	0.047715
	N3091	N	0.195043	0.929954	0.048312
	N3092	N	0.179948	0.930001	0.202720
	N3093	N	0.242449	0.992506	0.203396
	N3094	N	0.132476	0.882655	0.297157
	N3095	N	0.195090	0.945016	0.297637
	N3096	N	0.132614	0.882520	0.201966
	N3097	N	0.194940	0.945179	0.202836
	N3098	N	0.180083	0.929875	0.297411
	N3099	N	0.242556	0.992394	0.298263
	H3100	H	0.139430	0.985084	0.852123
	H3101	H	0.202299	0.922875	0.852085
	H3102	H	0.172908	0.952289	0.648654
	H3103	H	0.235450	0.889719	0.649880
	H3104	H	0.172650	0.951900	0.851049
	H3105	H	0.235137	0.889520	0.852752
	H3106	H	0.139817	0.985435	0.649500
	H3107	H	0.202064	0.922691	0.649929
	H3108	H	0.172827	0.922874	0.601280
	H3109	H	0.235155	0.985561	0.602505
	H3110	H	0.139469	0.889742	0.898918
	H3111	H	0.202365	0.952038	0.899805
	H3112	H	0.139884	0.889530	0.601913
	H3113	H	0.202185	0.952272	0.601886
	H3114	H	0.172967	0.922696	0.899451
	H3115	H	0.235461	0.985259	0.900256
	H3116	H	0.150298	0.974240	1.031211
	H3117	H	0.214214	0.913198	0.888576
	H3118	H	0.161604	0.962589	0.439464
	H3119	H	0.224382	0.900268	0.435880
	H3120	H	0.161813	0.962700	1.030175
	H3121	H	0.225717	0.901698	0.888796
	H3122	H	0.149998	0.974025	0.440468
	H3123	H	0.212861	0.911786	0.435312
	H3124	H	0.161843	0.912224	0.627110
	H3125	H	0.224731	0.974308	0.701743
	H3126	H	0.150671	0.900294	0.874934
	H3127	H	0.212950	0.963120	0.801529
	H3128	H	0.150398	0.900632	0.626226
	H3129	H	0.213249	0.962748	0.700928
	H3130	H	0.162136	0.911888	0.875730
	H3131	H	0.224411	0.974729	0.802007
	Co3132	Co	0.249987	1.000067	0.626019
	Co3133	Co	0.187513	0.937545	0.625360
	Co3134	Co	0.124915	0.875030	0.875042
	Co3135	Co	0.187513	0.937487	0.875333
	C3136	C	0.138436	0.986304	0.924671
	C3137	C	0.201118	0.923974	0.924953
	C3138	C	0.174020	0.951149	0.575892
	C3139	C	0.236540	0.888584	0.577263
	C3140	C	0.173800	0.950928	0.923402
	C3141	C	0.236346	0.888525	0.924868
	C3142	C	0.138600	0.986507	0.576681
	C3143	C	0.201018	0.923848	0.576996
	C3144	C	0.173911	0.923970	0.674272
	C3145	C	0.236386	0.986565	0.675332
	C3146	C	0.138486	0.888556	0.826074
	C3147	C	0.201185	0.950965	0.826876
	C3148	C	0.138697	0.888452	0.674431
	C3149	C	0.201095	0.951081	0.674621
	C3150	C	0.173965	0.923901	0.826655
	C3151	C	0.236531	0.986410	0.827669
	C3152	C	0.142621	0.982330	1.000514
	C3153	C	0.205162	0.919799	0.500935
	C3154	C	0.169824	0.955142	0.999292
	C3155	C	0.232437	0.892664	0.501391
	C3156	C	0.169802	0.919899	0.750383
	C3157	C	0.232390	0.982367	0.751560
	C3158	C	0.142691	0.892588	0.750549
	C3159	C	0.205223	0.955093	0.750858
	C3160	C	0.149541	0.975439	1.000372
	C3161	C	0.212046	0.912901	0.501196
	C3162	C	0.162955	0.962053	0.999522
	C3163	C	0.225513	0.899522	0.501932
	C3164	C	0.162946	0.912963	0.750646
	C3165	C	0.225489	0.975486	0.751476
	C3166	C	0.149583	0.899496	0.750656
	C3167	C	0.212098	0.961994	0.750957
	C3168	C	0.152876	0.971852	1.017450
	C3169	C	0.216155	0.910193	0.938371
	C3170	C	0.159293	0.965271	0.466480
	C3171	C	0.221967	0.902853	0.464748
	C3172	C	0.159406	0.965358	1.016815
	C3173	C	0.222675	0.903665	0.938205
	C3174	C	0.152728	0.971770	0.466852
	C3175	C	0.215424	0.909353	0.464565
	C3176	C	0.159406	0.909606	0.681068
	C3177	C	0.222151	0.971917	0.723410
	C3178	C	0.153111	0.902868	0.820610
	C3179	C	0.215474	0.965560	0.779156
	C3180	C	0.152917	0.903050	0.680974
	C3181	C	0.215653	0.965353	0.722871
	C3182	C	0.159598	0.909428	0.820669
	C3183	C	0.221964	0.972135	0.779527
	N3184	N	0.132476	0.992365	0.953186
	N3185	N	0.195101	0.929979	0.953362
	N3186	N	0.180026	0.945139	0.547432
	N3187	N	0.242555	0.882583	0.548295
	N3188	N	0.179856	0.944959	0.952317
	N3189	N	0.242420	0.882558	0.953361
	N3190	N	0.132574	0.992486	0.548149
	N3191	N	0.195049	0.929887	0.548028
	N3192	N	0.179949	0.929965	0.702993
	N3193	N	0.242426	0.992528	0.704005
	N3194	N	0.132506	0.882544	0.797312
	N3195	N	0.195117	0.945005	0.798073
	N3196	N	0.132621	0.882474	0.702811
	N3197	N	0.195063	0.945066	0.703084
	N3198	N	0.179996	0.929901	0.797828
	N3199	N	0.242517	0.992416	0.798818
	H3200	H	0.264825	0.110574	0.351402
	H3201	H	0.327115	0.047791	0.352064
	H3202	H	0.297752	0.077106	0.149918
	H3203	H	0.360452	0.014787	0.149738
	H3204	H	0.297799	0.077086	0.351527
	H3205	H	0.360404	0.014699	0.351505
	H3206	H	0.264389	0.110124	0.149980
	H3207	H	0.326976	0.047656	0.149866
	H3208	H	0.297975	0.047557	0.102311
	H3209	H	0.360251	0.110300	0.101727
	H3210	H	0.264514	0.014761	0.399454
	H3211	H	0.327233	0.077127	0.399436
	H3212	H	0.264763	0.014634	0.103032
	H3213	H	0.327052	0.077315	0.101337
	H3214	H	0.297861	0.047903	0.400341
	H3215	H	0.360413	0.110244	0.398951
	H3216	H	0.275070	0.099072	0.490896
	H3217	H	0.337579	0.036578	0.550267
	H3218	H	0.286770	0.087791	-0.081675
	H3219	H	0.349792	0.025723	-0.075763
	H3220	H	0.286621	0.087561	0.491842
	H3221	H	0.349120	0.025080	0.551184
	H3222	H	0.275251	0.099288	-0.081803
	H3223	H	0.338267	0.037239	-0.075827
	H3224	H	0.287445	0.036475	0.253498
	H3225	H	0.350025	0.099008	0.174276
	H3226	H	0.275113	0.025939	0.251373
	H3227	H	0.337498	0.088489	0.326717
	H3228	H	0.275912	0.024990	0.253061
	H3229	H	0.338413	0.087559	0.174740
	H3230	H	0.286707	0.037422	0.250927
	H3231	H	0.349088	0.099967	0.326302
	Co3232	Co	0.375000	0.125041	0.125415
	Co3233	Co	0.312485	0.062492	0.125827
	Co3234	Co	0.250014	-0.000016	0.375881
	Co3235	Co	0.312522	0.062510	0.375695
	C3236	C	0.263665	0.111560	0.424185
	C3237	C	0.326029	0.048934	0.424890
	C3238	C	0.298887	0.076013	0.077263
	C3239	C	0.361516	0.013628	0.077266
	C3240	C	0.298905	0.075986	0.424344
	C3241	C	0.361475	0.013577	0.424321
	C3242	C	0.263425	0.111355	0.077217
	C3243	C	0.325958	0.048803	0.077043
	C3244	C	0.299061	0.048776	0.175012
	C3245	C	0.361470	0.111404	0.174377
	C3246	C	0.263488	0.013603	0.327176
	C3247	C	0.326074	0.076052	0.326505
	C3248	C	0.263611	0.013521	0.175410
	C3249	C	0.325987	0.076147	0.174276
	C3250	C	0.298976	0.048946	0.327443
	C3251	C	0.361548	0.111377	0.326166
	C3252	C	0.267667	0.107330	0.499922
	C3253	C	0.330115	0.044843	0.000952
	C3254	C	0.294852	0.080142	0.500535
	C3255	C	0.357375	0.017663	0.001418
	C3256	C	0.294912	0.044789	0.251476
	C3257	C	0.357430	0.107294	0.250434
	C3258	C	0.267669	0.017622	0.251517
	C3259	C	0.330104	0.080211	0.250405
	C3260	C	0.274549	0.100437	0.499614
	C3261	C	0.337009	0.037957	0.000895
	C3262	C	0.287974	0.087026	0.500107
	C3263	C	0.350481	0.024576	0.001580
	C3264	C	0.288039	0.037905	0.251819
	C3265	C	0.350511	0.100445	0.250371
	C3266	C	0.274559	0.024517	0.251941
	C3267	C	0.337014	0.087067	0.250539
	C3268	C	0.277767	0.096765	0.494892
	C3269	C	0.340262	0.034299	0.528581
	C3270	C	0.284387	0.090395	-0.045297
	C3271	C	0.347193	0.028144	-0.041835
	C3272	C	0.284285	0.090227	0.495106
	C3273	C	0.346782	0.027751	0.528839
	C3274	C	0.277848	0.096919	-0.045415
	C3275	C	0.340634	0.034615	-0.042195
	C3276	C	0.284799	0.034193	0.252757
	C3277	C	0.347303	0.096749	0.207963
	C3278	C	0.277795	0.028222	0.251319
	C3279	C	0.340225	0.090748	0.293280
	C3280	C	0.278230	0.027712	0.252670
	C3281	C	0.340731	0.090262	0.207770
	C3282	C	0.284365	0.034727	0.251320
	C3283	C	0.346782	0.097248	0.293200
	N3284	N	0.257624	0.117514	0.453271
	N3285	N	0.320081	0.054974	0.453521
	N3286	N	0.304863	0.069997	0.048455
	N3287	N	0.367530	0.007626	0.048461
	N3288	N	0.304905	0.069999	0.453205
	N3289	N	0.367474	0.007580	0.453175
	N3290	N	0.257437	0.117375	0.048376
	N3291	N	0.319955	0.054831	0.048428
	N3292	N	0.305025	0.054832	0.203324
	N3293	N	0.367492	0.117391	0.202703
	N3294	N	0.257502	0.007586	0.298208
	N3295	N	0.320092	0.070023	0.297772
	N3296	N	0.257591	0.007534	0.203706
	N3297	N	0.320044	0.070072	0.203061
	N3298	N	0.304990	0.054925	0.298200
	N3299	N	0.367557	0.117371	0.297446
	H3300	H	0.264810	0.110519	0.851926
	H3301	H	0.327322	0.048072	0.852215
	H3302	H	0.297922	0.077236	0.649803
	H3303	H	0.360315	0.014681	0.649565
	H3304	H	0.297847	0.077284	0.851936
	H3305	H	0.360327	0.014666	0.853152
	H3306	H	0.264491	0.110029	0.649145
	H3307	H	0.327300	0.047948	0.649808
	H3308	H	0.298039	0.047621	0.601422
	H3309	H	0.360380	0.110154	0.601975
	H3310	H	0.264749	0.014522	0.899774
	H3311	H	0.327225	0.077062	0.900328
	H3312	H	0.264737	0.014608	0.602313
	H3313	H	0.327060	0.077220	0.602653
	H3314	H	0.297635	0.047869	0.899446
	H3315	H	0.360239	0.110314	0.899133
	H3316	H	0.275755	0.099828	1.084070
	H3317	H	0.337651	0.036825	1.077703
	H3318	H	0.287437	0.088376	0.508713
	H3319	H	0.349887	0.025862	0.449778
	H3320	H	0.287256	0.088288	1.084310
	H3321	H	0.349281	0.025395	1.078104
	H3322	H	0.275953	0.099941	0.508778
	H3323	H	0.338408	0.037377	0.449737
	H3324	H	0.287313	0.036670	0.759689
	H3325	H	0.349021	0.099836	0.773756
	H3326	H	0.275249	0.025728	0.742036
	H3327	H	0.338501	0.087460	0.728694
	H3328	H	0.275842	0.025113	0.759814
	H3329	H	0.337490	0.088337	0.774459
	H3330	H	0.286705	0.037273	0.741468
	H3331	H	0.350056	0.098960	0.728796
	Co3332	Co	0.374976	0.124941	0.625467
	Co3333	Co	0.312555	0.062472	0.625947
	Co3334	Co	0.250067	-0.000020	0.876250
	Co3335	Co	0.312459	0.062466	0.876191
	C3336	C	0.263627	0.111578	0.924993
	C3337	C	0.326153	0.049023	0.924927
	C3338	C	0.298961	0.076066	0.576757
	C3339	C	0.361425	0.013564	0.576866
	C3340	C	0.298946	0.076110	0.924620
	C3341	C	0.361443	0.013574	0.925400
	C3342	C	0.263480	0.111287	0.576102
	C3343	C	0.326142	0.049024	0.576956
	C3344	C	0.299068	0.048853	0.674241
	C3345	C	0.361482	0.111320	0.674391
	C3346	C	0.263647	0.013477	0.826944
	C3347	C	0.326064	0.076001	0.827438
	C3348	C	0.263640	0.013526	0.674802
	C3349	C	0.325998	0.076067	0.675552
	C3350	C	0.298881	0.048973	0.826533
	C3351	C	0.361394	0.111424	0.826831
	C3352	C	0.267672	0.107399	1.001170
	C3353	C	0.330161	0.044854	0.500802
	C3354	C	0.294844	0.080174	1.001121
	C3355	C	0.357343	0.017625	0.500498
	C3356	C	0.294865	0.044863	0.750347
	C3357	C	0.357373	0.107267	0.750509
	C3358	C	0.267718	0.017591	0.750951
	C3359	C	0.330131	0.080123	0.751532
	C3360	C	0.274520	0.100491	1.001112
	C3361	C	0.337040	0.037980	0.500554
	C3362	C	0.287993	0.087084	1.001066
	C3363	C	0.350471	0.024527	0.500455
	C3364	C	0.287996	0.037949	0.750423
	C3365	C	0.350488	0.100394	0.750922
	C3366	C	0.274633	0.024458	0.751013
	C3367	C	0.337032	0.086967	0.751551
	C3368	C	0.278108	0.097179	1.047684
	C3369	C	0.340345	0.034415	1.044147
	C3370	C	0.284772	0.090702	0.505021
	C3371	C	0.347223	0.028214	0.472049
	C3372	C	0.284668	0.090678	1.047566
	C3373	C	0.346892	0.027927	1.044379
	C3374	C	0.278240	0.097218	0.504816
	C3375	C	0.340701	0.034747	0.472184
	C3376	C	0.284734	0.034323	0.755639
	C3377	C	0.346747	0.097179	0.764071
	C3378	C	0.277911	0.028095	0.745798
	C3379	C	0.340780	0.090143	0.738846
	C3380	C	0.278235	0.027775	0.755995
	C3381	C	0.340203	0.090659	0.764164
	C3382	C	0.284392	0.034654	0.745427
	C3383	C	0.347310	0.096684	0.738408
	N3384	N	0.257547	0.117514	0.953677
	N3385	N	0.320088	0.054974	0.953784
	N3386	N	0.304925	0.070026	0.548214
	N3387	N	0.367447	0.007571	0.548296
	N3388	N	0.304922	0.070066	0.953281
	N3389	N	0.367491	0.007612	0.953810
	N3390	N	0.257526	0.117367	0.547927
	N3391	N	0.320157	0.055038	0.548190
	N3392	N	0.305051	0.054858	0.703109
	N3393	N	0.367435	0.117378	0.703195
	N3394	N	0.257640	0.007473	0.798132
	N3395	N	0.320038	0.070034	0.798852
	N3396	N	0.257632	0.007502	0.703522
	N3397	N	0.319980	0.070087	0.704268
	N3398	N	0.304946	0.054933	0.798133
	N3399	N	0.367372	0.117449	0.798237
	H3400	H	0.264848	0.235476	0.351944
	H3401	H	0.327196	0.172795	0.352414
	H3402	H	0.297993	0.202234	0.149166
	H3403	H	0.360186	0.139614	0.149840
	H3404	H	0.297595	0.201815	0.351394
	H3405	H	0.360430	0.139636	0.351601
	H3406	H	0.264604	0.235387	0.149110
	H3407	H	0.327313	0.173022	0.148453
	H3408	H	0.297807	0.172798	0.100792
	H3409	H	0.360305	0.235214	0.101856
	H3410	H	0.264735	0.139664	0.398762
	H3411	H	0.327278	0.201975	0.399824
	H3412	H	0.264601	0.139621	0.101513
	H3413	H	0.327166	0.202129	0.102082
	H3414	H	0.297875	0.172664	0.398593
	H3415	H	0.360268	0.235344	0.399737
	H3416	H	0.275891	0.224865	0.508859
	H3417	H	0.338573	0.162447	0.556662
	H3418	H	0.286687	0.212712	-0.075236
	H3419	H	0.349091	0.150158	0.007709
	H3420	H	0.287342	0.213305	0.507822
	H3421	H	0.349985	0.150809	0.555782
	H3422	H	0.275182	0.224267	-0.075578
	H3423	H	0.337598	0.161723	0.007137
	H3424	H	0.286876	0.162137	0.169047
	H3425	H	0.349947	0.224091	0.233918
	H3426	H	0.275595	0.150302	0.329982
	H3427	H	0.337537	0.213322	0.268449
	H3428	H	0.275401	0.150552	0.169210
	H3429	H	0.338470	0.212525	0.234156
	H3430	H	0.287155	0.161782	0.329705
	H3431	H	0.349034	0.224838	0.268113
	Co3432	Co	0.374961	0.249953	0.125199
	Co3433	Co	0.312462	0.187464	0.125355
	Co3434	Co	0.249981	0.124976	0.375453
	Co3435	Co	0.312436	0.187433	0.375456
	C3436	C	0.263657	0.236533	0.424014
	C3437	C	0.326074	0.173936	0.424718
	C3438	C	0.298981	0.201075	0.076772
	C3439	C	0.361343	0.138538	0.077009
	C3440	C	0.298784	0.200858	0.424177
	C3441	C	0.361439	0.138516	0.424499
	C3442	C	0.263538	0.236476	0.076337
	C3443	C	0.326104	0.174072	0.076168
	C3444	C	0.298910	0.173914	0.173790
	C3445	C	0.361419	0.236391	0.174530
	C3446	C	0.263582	0.138523	0.326289
	C3447	C	0.326142	0.200904	0.327013
	C3448	C	0.263519	0.138525	0.173972
	C3449	C	0.326060	0.201009	0.174708
	C3450	C	0.298950	0.173856	0.326069
	C3451	C	0.361403	0.236447	0.326883
	C3452	C	0.267692	0.232405	0.499902
	C3453	C	0.330117	0.169884	0.000209
	C3454	C	0.294803	0.205098	0.500009
	C3455	C	0.357266	0.142691	0.000822
	C3456	C	0.294831	0.169808	0.249735
	C3457	C	0.357333	0.232336	0.250739
	C3458	C	0.267655	0.142606	0.249850
	C3459	C	0.330162	0.205050	0.250885
	C3460	C	0.274578	0.225507	0.500001
	C3461	C	0.337018	0.163031	0.000484
	C3462	C	0.287934	0.212006	0.499767
	C3463	C	0.350427	0.149615	0.000658
	C3464	C	0.287974	0.162901	0.249611
	C3465	C	0.350450	0.225427	0.251153
	C3466	C	0.274562	0.149486	0.249575
	C3467	C	0.337049	0.211942	0.251105
	C3468	C	0.278211	0.222227	0.504755
	C3469	C	0.340795	0.159740	0.531899
	C3470	C	0.284323	0.215320	-0.041622
	C3471	C	0.346788	0.152854	0.004554
	C3472	C	0.284688	0.215662	0.504583
	C3473	C	0.347300	0.153201	0.531648
	C3474	C	0.277831	0.221881	-0.041826
	C3475	C	0.340258	0.159383	0.004339
	C3476	C	0.284463	0.159548	0.204379
	C3477	C	0.347269	0.221733	0.241435
	C3478	C	0.278085	0.152838	0.294867
	C3479	C	0.340243	0.215633	0.260688
	C3480	C	0.277931	0.153010	0.204548
	C3481	C	0.340770	0.215177	0.241406
	C3482	C	0.284599	0.159379	0.294708
	C3483	C	0.346759	0.222174	0.260641
	N3484	N	0.257590	0.242485	0.452767
	N3485	N	0.320029	0.179918	0.453185
	N3486	N	0.304973	0.195047	0.047710
	N3487	N	0.367340	0.132528	0.048246
	N3488	N	0.304818	0.194893	0.453128
	N3489	N	0.367421	0.132487	0.453461
	N3490	N	0.257545	0.242491	0.047403
	N3491	N	0.320078	0.180052	0.047426
	N3492	N	0.304929	0.179910	0.202841
	N3493	N	0.367430	0.242404	0.203063
	N3494	N	0.257543	0.132546	0.297801
	N3495	N	0.320107	0.194910	0.298209
	N3496	N	0.257490	0.132538	0.203134
	N3497	N	0.320049	0.194986	0.203193
	N3498	N	0.304934	0.179874	0.297649
	N3499	N	0.367427	0.242422	0.298061
	H3500	H	0.264712	0.235369	0.851435
	H3501	H	0.327023	0.172707	0.851977
	H3502	H	0.297965	0.202251	0.649424
	H3503	H	0.360317	0.139530	0.649504
	H3504	H	0.297662	0.201991	0.852076
	H3505	H	0.360301	0.139744	0.852348
	H3506	H	0.264615	0.235288	0.648013
	H3507	H	0.327243	0.172827	0.649162
	H3508	H	0.297876	0.172689	0.601135
	H3509	H	0.360374	0.235327	0.602041
	H3510	H	0.264709	0.139605	0.899547
	H3511	H	0.327399	0.202004	0.898919
	H3512	H	0.264763	0.139566	0.601824
	H3513	H	0.327146	0.202192	0.601814
	H3514	H	0.297793	0.172888	0.900088
	H3515	H	0.360481	0.235229	0.899421
	H3516	H	0.275732	0.224714	1.076631
	H3517	H	0.338298	0.162449	0.993461
	H3518	H	0.286648	0.212626	0.492337
	H3519	H	0.349138	0.150088	0.445550
	H3520	H	0.287182	0.213129	1.077354
	H3521	H	0.349835	0.150926	0.994040
	H3522	H	0.275198	0.224201	0.491799
	H3523	H	0.337609	0.161617	0.445636
	H3524	H	0.287268	0.161635	0.714733
	H3525	H	0.349748	0.224355	0.732295
	H3526	H	0.275223	0.150759	0.786044
	H3527	H	0.337842	0.213082	0.768038
	H3528	H	0.275741	0.150069	0.714572
	H3529	H	0.338292	0.212799	0.731361
	H3530	H	0.286744	0.162293	0.785467
	H3531	H	0.349335	0.224646	0.769159
	Co3532	Co	0.374977	0.249982	0.625250
	Co3533	Co	0.312480	0.187451	0.625671
	Co3534	Co	0.249942	0.125000	0.875461
	Co3535	Co	0.312480	0.187508	0.875138
	C3536	C	0.263585	0.236452	0.924302
	C3537	C	0.325947	0.173903	0.924270
	C3538	C	0.298964	0.201076	0.576407
	C3539	C	0.361395	0.138483	0.577049
	C3540	C	0.298807	0.200943	0.924751
	C3541	C	0.361398	0.138582	0.924794
	C3542	C	0.263521	0.236442	0.575895
	C3543	C	0.326116	0.173976	0.576605
	C3544	C	0.298935	0.173838	0.674156
	C3545	C	0.361462	0.236418	0.674479
	C3546	C	0.263531	0.138518	0.826668
	C3547	C	0.326200	0.200942	0.826442
	C3548	C	0.263570	0.138486	0.674552
	C3549	C	0.326070	0.201028	0.674389
	C3550	C	0.298899	0.173937	0.826527
	C3551	C	0.361544	0.236370	0.826850
	C3552	C	0.267651	0.232359	1.000463
	C3553	C	0.330214	0.169931	0.500699
	C3554	C	0.294792	0.205084	1.000870
	C3555	C	0.357350	0.142602	0.500685
	C3556	C	0.294825	0.169799	0.750536
	C3557	C	0.357405	0.232302	0.750753
	C3558	C	0.267641	0.142583	0.750587
	C3559	C	0.330232	0.205082	0.750264
	C3560	C	0.274535	0.225472	1.000693
	C3561	C	0.337104	0.163028	0.500602
	C3562	C	0.287926	0.212002	1.001121
	C3563	C	0.350481	0.149505	0.500704
	C3564	C	0.287954	0.162883	0.750297
	C3565	C	0.350510	0.225431	0.750812
	C3566	C	0.274567	0.149436	0.750452
	C3567	C	0.337102	0.211988	0.750067
	C3568	C	0.278083	0.222123	1.043500
	C3569	C	0.340645	0.159790	0.996837
	C3570	C	0.284314	0.215283	0.495246
	C3571	C	0.346797	0.152769	0.469822
	C3572	C	0.284597	0.215588	1.043804
	C3573	C	0.347182	0.153265	0.997020
	C3574	C	0.277823	0.221847	0.495368
	C3575	C	0.340312	0.159335	0.469723
	C3576	C	0.284663	0.159257	0.730336
	C3577	C	0.347189	0.221895	0.740394
	C3578	C	0.277859	0.153065	0.770256
	C3579	C	0.340427	0.215525	0.760391
	C3580	C	0.278146	0.152729	0.730352
	C3581	C	0.340667	0.215359	0.739924
	C3582	C	0.284355	0.159604	0.770133
	C3583	C	0.346949	0.222062	0.760908
	N3584	N	0.257578	0.242464	0.952797
	N3585	N	0.319986	0.179950	0.953074
	N3586	N	0.304915	0.195008	0.547854
	N3587	N	0.367380	0.132449	0.548116
	N3588	N	0.304860	0.194972	0.953010
	N3589	N	0.367377	0.132561	0.953606
	N3590	N	0.257508	0.242435	0.547308
	N3591	N	0.320044	0.179934	0.548009
	N3592	N	0.304950	0.179859	0.702713
	N3593	N	0.367477	0.242407	0.702884
	N3594	N	0.257480	0.132551	0.797885
	N3595	N	0.320151	0.194973	0.797887
	N3596	N	0.257492	0.132535	0.703112
	N3597	N	0.320074	0.195017	0.702973
	N3598	N	0.304933	0.179920	0.797462
	N3599	N	0.367518	0.242400	0.797910
	H3600	H	0.264804	0.360518	0.350914
	H3601	H	0.327122	0.297741	0.350999
	H3602	H	0.297607	0.327093	0.149522
	H3603	H	0.360308	0.264615	0.148492
	H3604	H	0.297941	0.327133	0.350839
	H3605	H	0.360401	0.264729	0.352206
	H3606	H	0.264635	0.360287	0.148502
	H3607	H	0.327069	0.297807	0.149562
	H3608	H	0.297858	0.297787	0.102084
	H3609	H	0.360322	0.360495	0.100544
	H3610	H	0.264492	0.264761	0.399275
	H3611	H	0.327381	0.327042	0.398809
	H3612	H	0.264838	0.264420	0.101483
	H3613	H	0.327175	0.327062	0.100814
	H3614	H	0.297880	0.297760	0.399429
	H3615	H	0.360256	0.360296	0.398055
	H3616	H	0.275724	0.349703	0.559326
	H3617	H	0.337460	0.286399	0.441939
	H3618	H	0.287911	0.338991	0.053405
	H3619	H	0.348297	0.274222	0.025670
	H3620	H	0.287238	0.338172	0.559650
	H3621	H	0.348913	0.274794	0.442417
	H3622	H	0.276399	0.350542	0.052866
	H3623	H	0.336765	0.285704	0.026621
	H3624	H	0.287147	0.286814	0.233316
	H3625	H	0.350202	0.348719	0.170184
	H3626	H	0.275417	0.275605	0.266491
	H3627	H	0.337223	0.338829	0.328438
	H3628	H	0.275679	0.275263	0.233626
	H3629	H	0.338781	0.337102	0.170866
	H3630	H	0.286958	0.287064	0.266512
	H3631	H	0.348676	0.350462	0.327844
	Co3632	Co	0.375010	0.375066	0.125491
	Co3633	Co	0.312420	0.312513	0.125243
	Co3634	Co	0.249975	0.249947	0.375546
	Co3635	Co	0.312546	0.312469	0.375824
	C3636	C	0.263630	0.361521	0.423483
	C3637	C	0.326081	0.298937	0.424207
	C3638	C	0.298806	0.326001	0.076834
	C3639	C	0.361432	0.263550	0.075738
	C3640	C	0.298951	0.326006	0.423676
	C3641	C	0.361474	0.263548	0.424101
	C3642	C	0.263560	0.361442	0.076006
	C3643	C	0.325995	0.298907	0.076658
	C3644	C	0.298949	0.298946	0.174559
	C3645	C	0.361419	0.361568	0.173467
	C3646	C	0.263498	0.263569	0.326638
	C3647	C	0.326195	0.325965	0.326172
	C3648	C	0.263667	0.263416	0.174299
	C3649	C	0.326084	0.325979	0.173714
	C3650	C	0.298963	0.298913	0.326631
	C3651	C	0.361392	0.361487	0.325443
	C3652	C	0.267650	0.357329	0.499378
	C3653	C	0.330098	0.294817	0.000525
	C3654	C	0.294765	0.330043	0.499686
	C3655	C	0.357378	0.267691	-0.000277
	C3656	C	0.294887	0.294847	0.250498
	C3657	C	0.357286	0.357455	0.249130
	C3658	C	0.267679	0.267574	0.250624
	C3659	C	0.330253	0.330066	0.249657
	C3660	C	0.274529	0.350419	0.499385
	C3661	C	0.337019	0.287958	0.000127
	C3662	C	0.287916	0.336971	0.499658
	C3663	C	0.350491	0.274586	-0.000367
	C3664	C	0.288050	0.287899	0.250453
	C3665	C	0.350431	0.350552	0.249126
	C3666	C	0.274568	0.274472	0.250501
	C3667	C	0.337088	0.337007	0.249401
	C3668	C	0.278109	0.347096	0.532915
	C3669	C	0.340219	0.284174	0.467803
	C3670	C	0.285017	0.341034	0.030232
	C3671	C	0.346352	0.277309	0.014656
	C3672	C	0.284627	0.340574	0.532972
	C3673	C	0.346698	0.277595	0.467778
	C3674	C	0.278496	0.347580	0.029872
	C3675	C	0.339802	0.283807	0.015032
	C3676	C	0.284628	0.284351	0.240785
	C3677	C	0.347436	0.346598	0.204847
	C3678	C	0.277983	0.278007	0.259659
	C3679	C	0.340058	0.340957	0.293523
	C3680	C	0.278103	0.277826	0.241070
	C3681	C	0.340925	0.340030	0.205067
	C3682	C	0.284517	0.284530	0.259776
	C3683	C	0.346553	0.347538	0.293273
	N3684	N	0.257601	0.367509	0.452503
	N3685	N	0.320116	0.304982	0.453223
	N3686	N	0.304808	0.319997	0.048171
	N3687	N	0.367446	0.257562	0.047387
	N3688	N	0.305002	0.320055	0.452833
	N3689	N	0.367447	0.257519	0.452854
	N3690	N	0.257532	0.367438	0.047292
	N3691	N	0.319987	0.304919	0.048162
	N3692	N	0.304942	0.304951	0.203215
	N3693	N	0.367437	0.367562	0.202639
	N3694	N	0.257508	0.257537	0.297832
	N3695	N	0.320108	0.320031	0.297883
	N3696	N	0.257625	0.257433	0.202961
	N3697	N	0.320052	0.320031	0.202861
	N3698	N	0.304985	0.304919	0.298085
	N3699	N	0.367419	0.367510	0.297444
	H3700	H	0.264727	0.360402	0.850772
	H3701	H	0.327254	0.297895	0.851701
	H3702	H	0.297767	0.327127	0.648995
	H3703	H	0.360214	0.264495	0.648428
	H3704	H	0.297802	0.327169	0.851798
	H3705	H	0.360572	0.264875	0.850695
	H3706	H	0.264610	0.360172	0.648071
	H3707	H	0.327416	0.297973	0.649597
	H3708	H	0.297839	0.297796	0.601323
	H3709	H	0.360315	0.360227	0.601790
	H3710	H	0.264708	0.264671	0.898496
	H3711	H	0.327037	0.327104	0.899499
	H3712	H	0.264709	0.264572	0.600919
	H3713	H	0.327128	0.327156	0.602641
	H3714	H	0.297892	0.297694	0.898904
	H3715	H	0.360319	0.360295	0.900160
	H3716	H	0.274555	0.348545	0.946983
	H3717	H	0.339204	0.288315	0.973031
	H3718	H	0.286752	0.337696	0.439627
	H3719	H	0.350052	0.276068	0.559563
	H3720	H	0.286026	0.336944	0.947452
	H3721	H	0.350764	0.276825	0.972677
	H3722	H	0.275219	0.349257	0.440014
	H3723	H	0.338607	0.287703	0.559745
	H3724	H	0.286356	0.287643	0.671758
	H3725	H	0.349143	0.349738	0.771332
	H3726	H	0.276138	0.274797	0.828124
	H3727	H	0.338248	0.337613	0.730125
	H3728	H	0.274839	0.276084	0.671569
	H3729	H	0.337581	0.338279	0.771555
	H3730	H	0.287678	0.286328	0.828667
	H3731	H	0.349842	0.349042	0.730727
	Co3732	Co	0.374945	0.374982	0.625294
	Co3733	Co	0.312477	0.312530	0.625513
	Co3734	Co	0.250014	0.249972	0.874997
	Co3735	Co	0.312412	0.312444	0.875671
	C3736	C	0.263581	0.361497	0.923427
	C3737	C	0.326066	0.298947	0.924491
	C3738	C	0.298881	0.326019	0.576053
	C3739	C	0.361374	0.263450	0.576169
	C3740	C	0.298907	0.326059	0.924434
	C3741	C	0.361540	0.263682	0.923860
	C3742	C	0.263540	0.361376	0.575582
	C3743	C	0.326235	0.299085	0.576670
	C3744	C	0.298929	0.298903	0.673959
	C3745	C	0.361421	0.361355	0.674732
	C3746	C	0.263573	0.263520	0.825793
	C3747	C	0.325981	0.325991	0.826981
	C3748	C	0.263578	0.263458	0.673674
	C3749	C	0.326004	0.326032	0.675272
	C3750	C	0.298948	0.298846	0.826030
	C3751	C	0.361433	0.361393	0.827143
	C3752	C	0.267695	0.357417	0.999657
	C3753	C	0.330251	0.294936	0.500495
	C3754	C	0.294790	0.330145	1.000554
	C3755	C	0.357306	0.267586	0.500133
	C3756	C	0.294859	0.294786	0.750086
	C3757	C	0.357367	0.357269	0.751057
	C3758	C	0.267667	0.267578	0.749580
	C3759	C	0.330058	0.330114	0.751186
	C3760	C	0.274560	0.350505	0.999882
	C3761	C	0.337093	0.288012	0.500776
	C3762	C	0.287913	0.337019	1.000528
	C3763	C	0.350442	0.274490	0.500635
	C3764	C	0.287972	0.287894	0.750010
	C3765	C	0.350463	0.350373	0.751094
	C3766	C	0.274552	0.274489	0.749564
	C3767	C	0.336952	0.337013	0.750967
	C3768	C	0.277442	0.346468	0.970437
	C3769	C	0.341163	0.285246	0.984844
	C3770	C	0.284371	0.340303	0.466107
	C3771	C	0.347325	0.278303	0.533796
	C3772	C	0.283946	0.339909	0.970554
	C3773	C	0.347724	0.278748	0.984754
	C3774	C	0.277848	0.346835	0.465892
	C3775	C	0.340829	0.284877	0.533814
	C3776	C	0.284167	0.284800	0.705890
	C3777	C	0.346790	0.347117	0.762565
	C3778	C	0.278349	0.277575	0.793664
	C3779	C	0.340617	0.340242	0.739255
	C3780	C	0.277627	0.278298	0.705479
	C3781	C	0.340235	0.340626	0.762415
	C3782	C	0.284854	0.284115	0.793840
	C3783	C	0.347157	0.346746	0.739494
	N3784	N	0.257547	0.367465	0.952375
	N3785	N	0.320026	0.304942	0.953141
	N3786	N	0.304951	0.320073	0.547655
	N3787	N	0.367388	0.257473	0.547451
	N3788	N	0.304865	0.320017	0.953351
	N3789	N	0.367512	0.257632	0.952499
	N3790	N	0.257568	0.367445	0.547365
	N3791	N	0.320201	0.305070	0.548200
	N3792	N	0.304927	0.304942	0.702626
	N3793	N	0.367415	0.367392	0.703175
	N3794	N	0.257557	0.257522	0.797288
	N3795	N	0.319987	0.319989	0.798180
	N3796	N	0.257562	0.257476	0.702377
	N3797	N	0.320014	0.320002	0.703746
	N3798	N	0.304934	0.304917	0.797475
	N3799	N	0.367415	0.367440	0.798309
	H3800	H	0.264771	0.485480	0.351230
	H3801	H	0.327239	0.422918	0.351440
	H3802	H	0.297898	0.452235	0.149677
	H3803	H	0.360377	0.389689	0.149502
	H3804	H	0.297710	0.451997	0.351807
	H3805	H	0.360507	0.389896	0.352301
	H3806	H	0.264623	0.485303	0.149356
	H3807	H	0.327124	0.422796	0.148646
	H3808	H	0.297843	0.422865	0.101826
	H3809	H	0.360127	0.485307	0.102352
	H3810	H	0.264844	0.389439	0.398873
	H3811	H	0.327036	0.452183	0.399196
	H3812	H	0.264671	0.389727	0.102365
	H3813	H	0.327077	0.452200	0.102114
	H3814	H	0.297699	0.422978	0.399529
	H3815	H	0.360329	0.485259	0.400151
	H3816	H	0.276429	0.475350	0.555681
	H3817	H	0.338718	0.412708	0.600274
	H3818	H	0.286971	0.462988	-0.051190
	H3819	H	0.348373	0.399395	0.010651
	H3820	H	0.287913	0.463791	0.555867
	H3821	H	0.350297	0.401218	0.600560
	H3822	H	0.275514	0.474575	-0.051505
	H3823	H	0.336805	0.410812	0.010550
	H3824	H	0.286880	0.412188	0.309091
	H3825	H	0.349867	0.474059	0.263881
	H3826	H	0.275624	0.400322	0.192780
	H3827	H	0.337499	0.463332	0.238654
	H3828	H	0.275409	0.400573	0.309613
	H3829	H	0.338341	0.462539	0.263252
	H3830	H	0.287118	0.411908	0.193007
	H3831	H	0.349062	0.474829	0.239182
	Co3832	Co	0.374929	0.499909	0.125605
	Co3833	Co	0.312455	0.437496	0.125701
	Co3834	Co	0.249992	0.374989	0.375084
	Co3835	Co	0.312452	0.437465	0.375346
	C3836	C	0.263609	0.486499	0.424140
	C3837	C	0.326119	0.423982	0.424123
	C3838	C	0.298972	0.451103	0.076707
	C3839	C	0.361464	0.388635	0.076679
	C3840	C	0.298852	0.450964	0.424766
	C3841	C	0.361539	0.388667	0.424700
	C3842	C	0.263575	0.486515	0.076212
	C3843	C	0.325977	0.423937	0.076333
	C3844	C	0.298912	0.423946	0.174482
	C3845	C	0.361325	0.486397	0.175114
	C3846	C	0.263663	0.388396	0.326386
	C3847	C	0.325928	0.451096	0.326795
	C3848	C	0.263577	0.388540	0.174800
	C3849	C	0.325973	0.451093	0.174795
	C3850	C	0.298831	0.424013	0.326521
	C3851	C	0.361406	0.486374	0.327395
	C3852	C	0.267688	0.482406	0.500237
	C3853	C	0.330061	0.419845	0.000541
	C3854	C	0.294829	0.455117	0.500614
	C3855	C	0.357413	0.392736	0.000216
	C3856	C	0.294788	0.419883	0.250505
	C3857	C	0.357288	0.482292	0.251414
	C3858	C	0.267672	0.392589	0.250808
	C3859	C	0.330031	0.455186	0.250953
	C3860	C	0.274577	0.475507	0.500301
	C3861	C	0.336973	0.412963	0.000560
	C3862	C	0.287939	0.462028	0.500546
	C3863	C	0.350500	0.399599	0.000294
	C3864	C	0.287916	0.412958	0.250789
	C3865	C	0.350395	0.475412	0.251266
	C3866	C	0.274548	0.399509	0.250894
	C3867	C	0.336943	0.462036	0.251081
	C3868	C	0.278525	0.472502	0.531536
	C3869	C	0.340914	0.409892	0.556492
	C3870	C	0.284498	0.465514	-0.028548
	C3871	C	0.346380	0.402414	0.006246
	C3872	C	0.285009	0.465947	0.531562
	C3873	C	0.347454	0.403375	0.556620
	C3874	C	0.277997	0.472072	-0.028903
	C3875	C	0.339810	0.408892	0.006189
	C3876	C	0.284427	0.409600	0.283554
	C3877	C	0.347186	0.471754	0.258272
	C3878	C	0.278057	0.402881	0.218267
	C3879	C	0.340190	0.465663	0.244131
	C3880	C	0.277926	0.403044	0.283625
	C3881	C	0.340641	0.465245	0.258148
	C3882	C	0.284541	0.409443	0.218262
	C3883	C	0.346719	0.472184	0.244435
	N3884	N	0.257543	0.492461	0.452859
	N3885	N	0.320091	0.429974	0.452887
	N3886	N	0.304952	0.445076	0.047870
	N3887	N	0.367503	0.382630	0.047911
	N3888	N	0.304878	0.444974	0.453459
	N3889	N	0.367479	0.382607	0.453339
	N3890	N	0.257607	0.492547	0.047563
	N3891	N	0.319977	0.429937	0.047807
	N3892	N	0.304923	0.429941	0.203412
	N3893	N	0.367371	0.492382	0.203570
	N3894	N	0.257632	0.382411	0.297648
	N3895	N	0.319930	0.445100	0.297932
	N3896	N	0.257595	0.382480	0.203129
	N3897	N	0.319942	0.445112	0.203551
	N3898	N	0.304859	0.430000	0.297748
	N3899	N	0.367432	0.492353	0.298437
	H3900	H	0.264801	0.485434	0.850952
	H3901	H	0.327094	0.422816	0.851688
	H3902	H	0.297989	0.452306	0.649615
	H3903	H	0.360118	0.389516	0.648907
	H3904	H	0.297732	0.452140	0.851879
	H3905	H	0.360582	0.389854	0.851617
	H3906	H	0.264671	0.485358	0.648996
	H3907	H	0.327159	0.422801	0.649564
	H3908	H	0.297785	0.422745	0.602111
	H3909	H	0.360491	0.485173	0.601273
	H3910	H	0.264481	0.389758	0.898651
	H3911	H	0.327180	0.452192	0.900138
	H3912	H	0.264769	0.389482	0.601536
	H3913	H	0.327279	0.452160	0.601353
	H3914	H	0.297803	0.422748	0.899010
	H3915	H	0.360220	0.485390	0.899696
	H3916	H	0.275525	0.474601	1.052213
	H3917	H	0.339091	0.413119	0.990215
	H3918	H	0.286072	0.462105	0.445376
	H3919	H	0.348948	0.399948	0.401119
	H3920	H	0.287007	0.463028	1.052341
	H3921	H	0.350706	0.401703	0.990289
	H3922	H	0.274594	0.473726	0.445215
	H3923	H	0.337320	0.411387	0.400199
	H3924	H	0.286939	0.412088	0.688103
	H3925	H	0.349537	0.474528	0.704459
	H3926	H	0.275492	0.400336	0.813475
	H3927	H	0.338006	0.462982	0.797220
	H3928	H	0.275376	0.400562	0.687737
	H3929	H	0.338058	0.462942	0.704268
	H3930	H	0.286976	0.411890	0.813910
	H3931	H	0.349553	0.474493	0.796898
	Co3932	Co	0.374963	0.500006	0.625477
	Co3933	Co	0.312481	0.437488	0.625651
	Co3934	Co	0.249935	0.375021	0.875029
	Co3935	Co	0.312405	0.437502	0.875095
	C3936	C	0.263652	0.486548	0.923719
	C3937	C	0.325964	0.423939	0.924555
	C3938	C	0.298988	0.451127	0.576755
	C3939	C	0.361349	0.388479	0.576699
	C3940	C	0.298870	0.451058	0.924537
	C3941	C	0.361564	0.388727	0.924155
	C3942	C	0.263581	0.486449	0.576439
	C3943	C	0.326079	0.423944	0.576571
	C3944	C	0.298927	0.423909	0.674458
	C3945	C	0.361486	0.486330	0.674140
	C3946	C	0.263448	0.388609	0.826135
	C3947	C	0.326071	0.451040	0.827060
	C3948	C	0.263603	0.388467	0.674100
	C3949	C	0.326111	0.451029	0.674060
	C3950	C	0.298908	0.423906	0.826694
	C3951	C	0.361350	0.486448	0.826504
	C3952	C	0.267714	0.482440	1.000021
	C3953	C	0.330217	0.419922	0.500291
	C3954	C	0.294830	0.455183	1.000793
	C3955	C	0.357372	0.392677	0.500690
	C3956	C	0.294853	0.419807	0.750556
	C3957	C	0.357345	0.482319	0.750393
	C3958	C	0.267594	0.392619	0.750136
	C3959	C	0.330184	0.455120	0.750635
	C3960	C	0.274573	0.475530	1.000288
	C3961	C	0.337072	0.413011	0.500177
	C3962	C	0.287932	0.462051	1.000659
	C3963	C	0.350490	0.399554	0.500591
	C3964	C	0.287946	0.412934	0.750703
	C3965	C	0.350487	0.475423	0.750436
	C3966	C	0.274502	0.399483	0.750300
	C3967	C	0.337079	0.462010	0.750484
	C3968	C	0.277996	0.472078	1.029425
	C3969	C	0.341078	0.410173	0.994866
	C3970	C	0.283985	0.465019	0.469491
	C3971	C	0.346688	0.402667	0.444560
	C3972	C	0.284491	0.465519	1.029632
	C3973	C	0.347650	0.403681	0.994536
	C3974	C	0.277502	0.471573	0.469329
	C3975	C	0.340152	0.409193	0.444203
	C3976	C	0.284465	0.409563	0.715562
	C3977	C	0.347038	0.471968	0.724567
	C3978	C	0.277965	0.402885	0.785482
	C3979	C	0.340525	0.465444	0.776451
	C3980	C	0.277946	0.403017	0.715146
	C3981	C	0.340530	0.465444	0.724335
	C3982	C	0.284482	0.409429	0.785807
	C3983	C	0.347035	0.471977	0.776438
	N3984	N	0.257668	0.492577	0.952572
	N3985	N	0.319964	0.429953	0.952989
	N3986	N	0.304973	0.445083	0.548164
	N3987	N	0.367354	0.382497	0.547857
	N3988	N	0.304903	0.445060	0.952910
	N3989	N	0.367542	0.382675	0.952984
	N3990	N	0.257522	0.492435	0.547946
	N3991	N	0.320036	0.429933	0.547828
	N3992	N	0.304902	0.429943	0.703211
	N3993	N	0.367436	0.492388	0.702876
	N3994	N	0.257474	0.382565	0.797497
	N3995	N	0.320043	0.445064	0.798117
	N3996	N	0.257550	0.382479	0.702934
	N3997	N	0.320069	0.445062	0.703038
	N3998	N	0.304901	0.429925	0.797945
	N3999	N	0.367355	0.492452	0.797631
	H4000	H	0.264887	0.610449	0.351601
	H4001	H	0.327240	0.547830	0.351611
	H4002	H	0.297981	0.577352	0.148853
	H4003	H	0.360336	0.514661	0.149916
	H4004	H	0.297989	0.577286	0.352150
	H4005	H	0.360245	0.514550	0.351942
	H4006	H	0.264461	0.610115	0.148287
	H4007	H	0.327107	0.547817	0.149738
	H4008	H	0.297650	0.547893	0.101872
	H4009	H	0.360608	0.610088	0.101418
	H4010	H	0.264478	0.514879	0.399284
	H4011	H	0.327122	0.577240	0.399438
	H4012	H	0.264724	0.514609	0.102125
	H4013	H	0.327092	0.577212	0.101373
	H4014	H	0.297859	0.547657	0.398933
	H4015	H	0.360027	0.610436	0.398576
	H4016	H	0.275592	0.599576	0.450256
	H4017	H	0.338451	0.537485	0.495857
	H4018	H	0.287215	0.588162	-0.094454
	H4019	H	0.349262	0.525198	-0.068487
	H4020	H	0.287026	0.587957	0.450500
	H4021	H	0.349957	0.525947	0.495813
	H4022	H	0.275727	0.599689	-0.093697
	H4023	H	0.337783	0.536727	-0.068565
	H4024	H	0.287132	0.536808	0.209767
	H4025	H	0.349823	0.599221	0.270446
	H4026	H	0.275357	0.525645	0.291285
	H4027	H	0.337747	0.588162	0.229114
	H4028	H	0.275609	0.525252	0.210782
	H4029	H	0.338179	0.587774	0.270272
	H4030	H	0.286831	0.537181	0.290737
	H4031	H	0.349356	0.599596	0.229485
	Co4032	Co	0.374982	0.624997	0.125931
	Co4033	Co	0.312444	0.562477	0.125335
	Co4034	Co	0.249995	0.500021	0.375429
	Co4035	Co	0.312461	0.562505	0.375465
	C4036	C	0.263683	0.611536	0.424283
	C4037	C	0.326069	0.548958	0.424435
	C4038	C	0.299050	0.576170	0.075970
	C4039	C	0.361406	0.513530	0.077055
	C4040	C	0.298990	0.576126	0.424867
	C4041	C	0.361375	0.513488	0.424622
	C4042	C	0.263458	0.611361	0.075800
	C4043	C	0.326064	0.548960	0.077112
	C4044	C	0.298864	0.549020	0.174350
	C4045	C	0.361577	0.611284	0.174186
	C4046	C	0.263479	0.513650	0.326671
	C4047	C	0.325978	0.576135	0.326342
	C4048	C	0.263607	0.513526	0.174575
	C4049	C	0.325935	0.576126	0.173982
	C4050	C	0.298948	0.548911	0.326607
	C4051	C	0.361287	0.611451	0.326213
	C4052	C	0.267731	0.607424	0.500596
	C4053	C	0.330208	0.544910	0.000996
	C4054	C	0.294858	0.580167	0.500996
	C4055	C	0.357345	0.517634	0.000991
	C4056	C	0.294829	0.544864	0.250381
	C4057	C	0.357390	0.607271	0.249788
	C4058	C	0.267660	0.517630	0.250817
	C4059	C	0.330068	0.580203	0.249896
	C4060	C	0.274620	0.600539	0.500642
	C4061	C	0.337064	0.538018	0.001225
	C4062	C	0.288000	0.587084	0.500875
	C4063	C	0.350482	0.524517	0.001061
	C4064	C	0.287958	0.537966	0.250368
	C4065	C	0.350521	0.600359	0.249594
	C4066	C	0.274569	0.524503	0.250763
	C4067	C	0.337030	0.587024	0.249556
	C4068	C	0.278041	0.597083	0.472347
	C4069	C	0.340736	0.534753	0.497660
	C4070	C	0.284652	0.590603	-0.052653
	C4071	C	0.346881	0.527831	-0.037952
	C4072	C	0.284554	0.590538	0.472401
	C4073	C	0.347256	0.528212	0.497551
	C4074	C	0.278096	0.597112	-0.052503
	C4075	C	0.340359	0.534372	-0.037828
	C4076	C	0.284604	0.534414	0.227770
	C4077	C	0.347197	0.596788	0.261299
	C4078	C	0.277933	0.528071	0.273511
	C4079	C	0.340365	0.590553	0.238185
	C4080	C	0.278097	0.527860	0.228131
	C4081	C	0.340617	0.590328	0.261189
	C4082	C	0.284437	0.534615	0.273055
	C4083	C	0.346931	0.597024	0.238386
	N4084	N	0.257635	0.617497	0.452541
	N4085	N	0.320046	0.554957	0.453000
	N4086	N	0.305009	0.570129	0.047265
	N4087	N	0.367382	0.507507	0.048221
	N4088	N	0.304939	0.570049	0.453267
	N4089	N	0.367383	0.507488	0.453174
	N4090	N	0.257519	0.617417	0.047034
	N4091	N	0.320060	0.554943	0.048059
	N4092	N	0.304861	0.555034	0.203228
	N4093	N	0.367521	0.617349	0.203354
	N4094	N	0.257486	0.507639	0.297778
	N4095	N	0.319939	0.570161	0.297842
	N4096	N	0.257551	0.507562	0.203138
	N4097	N	0.319904	0.570149	0.202973
	N4098	N	0.304905	0.554967	0.298068
	N4099	N	0.367357	0.617439	0.298102
	H4100	H	0.264936	0.610510	0.851523
	H4101	H	0.327322	0.547957	0.852393
	H4102	H	0.297775	0.576982	0.649871
	H4103	H	0.360415	0.514746	0.649222
	H4104	H	0.297994	0.577315	0.850979
	H4105	H	0.360311	0.514621	0.852088
	H4106	H	0.264648	0.610307	0.649150
	H4107	H	0.327096	0.547733	0.649284
	H4108	H	0.297842	0.547901	0.601508
	H4109	H	0.360213	0.610448	0.601815
	H4110	H	0.264630	0.514717	0.899044
	H4111	H	0.327357	0.576976	0.898778
	H4112	H	0.264635	0.514761	0.601177
	H4113	H	0.327042	0.577225	0.601377
	H4114	H	0.297876	0.547785	0.898520
	H4115	H	0.360326	0.610230	0.899518
	H4116	H	0.275293	0.599289	1.094184
	H4117	H	0.338357	0.537375	1.070907
	H4118	H	0.287105	0.588052	0.551793
	H4119	H	0.348977	0.524963	0.504230
	H4120	H	0.286857	0.587812	1.093442
	H4121	H	0.349791	0.525796	1.070443
	H4122	H	0.275532	0.599502	0.551563
	H4123	H	0.337443	0.536475	0.504652
	H4124	H	0.286551	0.537522	0.676630
	H4125	H	0.349391	0.599659	0.729417
	H4126	H	0.276069	0.524913	0.822080
	H4127	H	0.338097	0.587794	0.770963
	H4128	H	0.274944	0.526077	0.677017
	H4129	H	0.337838	0.588179	0.729298
	H4130	H	0.287539	0.536506	0.821918
	H4131	H	0.349583	0.599328	0.771095
	Co4132	Co	0.374991	0.625040	0.625616
	Co4133	Co	0.312509	0.562486	0.625578
	Co4134	Co	0.250014	0.500059	0.875506
	Co4135	Co	0.312539	0.562479	0.875374
	C4136	C	0.263692	0.611544	0.923907
	C4137	C	0.326167	0.549027	0.924748
	C4138	C	0.298880	0.575985	0.576811
	C4139	C	0.361427	0.513561	0.576740
	C4140	C	0.299068	0.576171	0.923736
	C4141	C	0.361419	0.513549	0.924845
	C4142	C	0.263567	0.611460	0.576525
	C4143	C	0.325996	0.548891	0.576661
	C4144	C	0.298968	0.548944	0.674030
	C4145	C	0.361388	0.611552	0.674609
	C4146	C	0.263573	0.513622	0.826060
	C4147	C	0.326177	0.575966	0.826393
	C4148	C	0.263547	0.513640	0.673843
	C4149	C	0.326007	0.576102	0.674214
	C4150	C	0.298992	0.548896	0.826116
	C4151	C	0.361451	0.611433	0.826916
	C4152	C	0.267680	0.607352	0.999957
	C4153	C	0.330138	0.544845	0.500574
	C4154	C	0.294942	0.580264	0.999877
	C4155	C	0.357292	0.517611	0.500525
	C4156	C	0.294901	0.544844	0.749977
	C4157	C	0.357320	0.607376	0.750650
	C4158	C	0.267673	0.517687	0.749768
	C4159	C	0.330178	0.580143	0.750328
	C4160	C	0.274541	0.600467	1.000012
	C4161	C	0.337032	0.537951	0.500324
	C4162	C	0.288017	0.587082	1.000046
	C4163	C	0.350424	0.524500	0.499981
	C4164	C	0.287980	0.537985	0.749610
	C4165	C	0.350479	0.600454	0.750451
	C4166	C	0.274568	0.524566	0.749528
	C4167	C	0.337047	0.587026	0.750191
	C4168	C	0.277881	0.596911	1.052778
	C4169	C	0.340669	0.534726	1.040084
	C4170	C	0.284562	0.590533	0.529236
	C4171	C	0.346713	0.527687	0.502236
	C4172	C	0.284428	0.590390	1.052654
	C4173	C	0.347178	0.528174	1.040075
	C4174	C	0.278053	0.597077	0.529100
	C4175	C	0.340180	0.534214	0.502492
	C4176	C	0.284239	0.534826	0.708832
	C4177	C	0.346964	0.597106	0.738822
	C4178	C	0.278310	0.527726	0.790192
	C4179	C	0.340555	0.590395	0.761627
	C4180	C	0.277720	0.528306	0.708676
	C4181	C	0.340428	0.590573	0.738588
	C4182	C	0.284841	0.534230	0.790102
	C4183	C	0.347099	0.596916	0.761802
	N4184	N	0.257668	0.617525	0.952262
	N4185	N	0.320130	0.554991	0.953297
	N4186	N	0.304877	0.569964	0.547739
	N4187	N	0.367437	0.507559	0.547919
	N4188	N	0.305025	0.570138	0.952467
	N4189	N	0.367387	0.507525	0.953392
	N4190	N	0.257573	0.617438	0.547565
	N4191	N	0.320014	0.554910	0.547821
	N4192	N	0.305001	0.554909	0.703058
	N4193	N	0.367392	0.617527	0.703418
	N4194	N	0.257541	0.507624	0.797420
	N4195	N	0.320134	0.569998	0.797631
	N4196	N	0.257554	0.507614	0.702766
	N4197	N	0.320036	0.570076	0.703012
	N4198	N	0.305041	0.554878	0.797765
	N4199	N	0.367416	0.617465	0.798441
	H4200	H	0.264483	0.735157	0.351829
	H4201	H	0.327360	0.672996	0.350860
	H4202	H	0.298044	0.702485	0.147829
	H4203	H	0.360387	0.639684	0.149420
	H4204	H	0.297726	0.702132	0.351480
	H4205	H	0.360396	0.639686	0.351627
	H4206	H	0.264746	0.735397	0.148647
	H4207	H	0.327017	0.672666	0.150371
	H4208	H	0.297951	0.672821	0.101423
	H4209	H	0.360292	0.735403	0.101416
	H4210	H	0.264688	0.639748	0.398529
	H4211	H	0.327295	0.702019	0.399653
	H4212	H	0.264569	0.639750	0.100405
	H4213	H	0.327014	0.702367	0.102142
	H4214	H	0.297856	0.672731	0.398487
	H4215	H	0.360359	0.735296	0.398554
	H4216	H	0.275377	0.724442	0.572491
	H4217	H	0.337059	0.661122	0.518260
	H4218	H	0.286854	0.712886	-0.026974
	H4219	H	0.349425	0.650251	-0.046129
	H4220	H	0.286895	0.712845	0.572688
	H4221	H	0.348549	0.649586	0.518845
	H4222	H	0.275299	0.724448	-0.026605
	H4223	H	0.337850	0.661757	-0.046339
	H4224	H	0.287353	0.661720	0.250953
	H4225	H	0.349478	0.724523	0.171487
	H4226	H	0.275181	0.650860	0.248650
	H4227	H	0.338048	0.713025	0.330098
	H4228	H	0.275792	0.650220	0.250315
	H4229	H	0.337900	0.713023	0.172218
	H4230	H	0.286837	0.662248	0.248331
	H4231	H	0.349561	0.724580	0.329593
	Co4232	Co	0.375056	0.750015	0.125658
	Co4233	Co	0.312450	0.687574	0.125340
	Co4234	Co	0.250050	0.625007	0.375154
	Co4235	Co	0.312482	0.687482	0.375548
	C4236	C	0.263460	0.736381	0.424374
	C4237	C	0.326213	0.674072	0.423536
	C4238	C	0.299026	0.701255	0.075438
	C4239	C	0.361496	0.638599	0.076822
	C4240	C	0.298884	0.701018	0.424139
	C4241	C	0.361504	0.638600	0.424314
	C4242	C	0.263635	0.736498	0.075740
	C4243	C	0.325940	0.673858	0.077347
	C4244	C	0.299045	0.673920	0.173915
	C4245	C	0.361432	0.736468	0.174057
	C4246	C	0.263586	0.638614	0.325613
	C4247	C	0.326082	0.701013	0.326954
	C4248	C	0.263526	0.638612	0.173281
	C4249	C	0.325935	0.701211	0.174662
	C4250	C	0.298994	0.673876	0.325935
	C4251	C	0.361484	0.736401	0.326161
	C4252	C	0.267642	0.732398	0.500467
	C4253	C	0.330074	0.669798	0.001196
	C4254	C	0.294816	0.705139	0.500287
	C4255	C	0.357407	0.642694	0.001065
	C4256	C	0.294953	0.669800	0.249720
	C4257	C	0.357351	0.732346	0.250040
	C4258	C	0.267649	0.642712	0.249294
	C4259	C	0.330111	0.705222	0.251016
	C4260	C	0.274520	0.725488	0.500140
	C4261	C	0.336994	0.662926	0.001343
	C4262	C	0.287917	0.712038	0.500207
	C4263	C	0.350504	0.649564	0.001531
	C4264	C	0.288023	0.662954	0.249900
	C4265	C	0.350443	0.725475	0.250353
	C4266	C	0.274517	0.649617	0.249341
	C4267	C	0.337038	0.712073	0.250945
	C4268	C	0.277908	0.721953	0.540796
	C4269	C	0.339995	0.659060	0.510077
	C4270	C	0.284429	0.715494	-0.015539
	C4271	C	0.346961	0.652872	-0.025196
	C4272	C	0.284432	0.715415	0.540632
	C4273	C	0.346517	0.652534	0.510164
	C4274	C	0.277890	0.721986	-0.015684
	C4275	C	0.340403	0.659364	-0.025507
	C4276	C	0.284719	0.659360	0.250438
	C4277	C	0.346975	0.722041	0.206150
	C4278	C	0.277844	0.653191	0.249000
	C4279	C	0.340503	0.715510	0.295194
	C4280	C	0.278149	0.652881	0.250208
	C4281	C	0.340452	0.715506	0.206671
	C4282	C	0.284416	0.659671	0.249194
	C4283	C	0.347034	0.722033	0.294975
	N4284	N	0.257506	0.742449	0.452764
	N4285	N	0.320184	0.680048	0.452509
	N4286	N	0.304964	0.695157	0.047232
	N4287	N	0.367520	0.632604	0.048060
	N4288	N	0.304908	0.695025	0.452816
	N4289	N	0.367455	0.632543	0.453359
	N4290	N	0.257594	0.742501	0.047493
	N4291	N	0.319972	0.679910	0.048482
	N4292	N	0.305037	0.679917	0.202956
	N4293	N	0.367492	0.742427	0.202866
	N4294	N	0.257574	0.632592	0.297102
	N4295	N	0.320029	0.695037	0.297946
	N4296	N	0.257548	0.632574	0.202246
	N4297	N	0.319944	0.695171	0.203084
	N4298	N	0.305005	0.679890	0.297684
	N4299	N	0.367486	0.742405	0.297640
	H4300	H	0.264595	0.735379	0.850774
	H4301	H	0.327180	0.672763	0.852320
	H4302	H	0.297884	0.702310	0.649388
	H4303	H	0.360236	0.639790	0.649264
	H4304	H	0.297646	0.701942	0.850799
	H4305	H	0.360421	0.639738	0.852349
	H4306	H	0.264906	0.735638	0.649151
	H4307	H	0.327163	0.672789	0.648582
	H4308	H	0.297876	0.673003	0.600791
	H4309	H	0.360514	0.735202	0.600956
	H4310	H	0.264724	0.639755	0.898750
	H4311	H	0.327077	0.702207	0.899814
	H4312	H	0.264583	0.639917	0.601578
	H4313	H	0.327203	0.702217	0.601997
	H4314	H	0.297979	0.672713	0.898501
	H4315	H	0.360157	0.735494	0.899528
	H4316	H	0.275728	0.724744	1.024970
	H4317	H	0.338071	0.662172	1.050017
	H4318	H	0.287050	0.713105	0.427362
	H4319	H	0.350544	0.651483	0.479900
	H4320	H	0.287316	0.713295	1.025324
	H4321	H	0.349676	0.650735	1.049727
	H4322	H	0.275567	0.724704	0.427990
	H4323	H	0.339021	0.663053	0.479592
	H4324	H	0.286675	0.662417	0.748272
	H4325	H	0.349243	0.724758	0.655691
	H4326	H	0.275850	0.650237	0.752336
	H4327	H	0.338283	0.712829	0.845772
	H4328	H	0.275198	0.650894	0.748078
	H4329	H	0.337710	0.713260	0.656924
	H4330	H	0.287393	0.661741	0.751137
	H4331	H	0.349834	0.724297	0.844518
	Co4332	Co	0.375035	0.750024	0.625188
	Co4333	Co	0.312549	0.687546	0.625290
	Co4334	Co	0.250072	0.625016	0.874442
	Co4335	Co	0.312514	0.687505	0.875360
	C4336	C	0.263541	0.736500	0.923800
	C4337	C	0.326013	0.673902	0.924994
	C4338	C	0.298962	0.701107	0.576579
	C4339	C	0.361415	0.638630	0.576710
	C4340	C	0.298843	0.700995	0.923308
	C4341	C	0.361513	0.638639	0.925053
	C4342	C	0.263670	0.736626	0.576329
	C4343	C	0.326109	0.673953	0.575845
	C4344	C	0.298970	0.673993	0.673697
	C4345	C	0.361557	0.736382	0.673657
	C4346	C	0.263591	0.638611	0.826309
	C4347	C	0.326002	0.701068	0.827106
	C4348	C	0.263517	0.638683	0.674027
	C4349	C	0.326056	0.701081	0.674649
	C4350	C	0.299031	0.673849	0.826114
	C4351	C	0.361384	0.736527	0.826516
	C4352	C	0.267672	0.732443	0.999635
	C4353	C	0.330259	0.669942	0.499602
	C4354	C	0.294892	0.705228	0.999054
	C4355	C	0.357414	0.642739	0.500294
	C4356	C	0.294901	0.669827	0.749540
	C4357	C	0.357371	0.732338	0.750108
	C4358	C	0.267651	0.642731	0.750267
	C4359	C	0.330169	0.705177	0.751178
	C4360	C	0.274560	0.725523	0.999354
	C4361	C	0.337131	0.663045	0.499355
	C4362	C	0.287991	0.712132	0.999085
	C4363	C	0.350513	0.649608	0.499693
	C4364	C	0.287991	0.662989	0.749604
	C4365	C	0.350472	0.725483	0.750428
	C4366	C	0.274542	0.649587	0.750437
	C4367	C	0.337040	0.712062	0.751252
	C4368	C	0.278146	0.722167	1.013807
	C4369	C	0.340520	0.659611	1.028541
	C4370	C	0.284524	0.715585	0.459321
	C4371	C	0.347615	0.653558	0.488671
	C4372	C	0.284667	0.715659	1.013691
	C4373	C	0.347082	0.653128	1.028670
	C4374	C	0.278006	0.722130	0.459315
	C4375	C	0.341092	0.660091	0.488419
	C4376	C	0.284335	0.659733	0.748828
	C4377	C	0.346861	0.722154	0.697275
	C4378	C	0.278188	0.652849	0.751273
	C4379	C	0.340626	0.715396	0.803890
	C4380	C	0.277798	0.653215	0.749115
	C4381	C	0.340322	0.715631	0.698056
	C4382	C	0.284727	0.659358	0.750708
	C4383	C	0.347180	0.721912	0.803593
	N4384	N	0.257545	0.742501	0.952788
	N4385	N	0.320016	0.679923	0.953596
	N4386	N	0.304958	0.695074	0.547859
	N4387	N	0.367388	0.632565	0.548353
	N4388	N	0.304865	0.695003	0.952557
	N4389	N	0.367531	0.632632	0.953685
	N4390	N	0.257625	0.742573	0.547558
	N4391	N	0.320122	0.679982	0.547361
	N4392	N	0.304992	0.679958	0.703007
	N4393	N	0.367526	0.742401	0.702844
	N4394	N	0.257619	0.632609	0.797549
	N4395	N	0.320007	0.695085	0.797850
	N4396	N	0.257553	0.632649	0.702649
	N4397	N	0.320054	0.695091	0.703202
	N4398	N	0.305017	0.679873	0.797605
	N4399	N	0.367423	0.742476	0.797618
	H4400	H	0.264882	0.860597	0.350989
	H4401	H	0.327395	0.797919	0.352953
	H4402	H	0.297716	0.827059	0.149788
	H4403	H	0.360448	0.764798	0.149285
	H4404	H	0.297834	0.827064	0.351817
	H4405	H	0.360485	0.764863	0.351228
	H4406	H	0.264732	0.860378	0.148784
	H4407	H	0.327076	0.797711	0.148566
	H4408	H	0.297842	0.797817	0.102596
	H4409	H	0.360403	0.860465	0.102113
	H4410	H	0.264810	0.764518	0.399083
	H4411	H	0.327181	0.827252	0.399830
	H4412	H	0.264766	0.764691	0.101496
	H4413	H	0.327236	0.827231	0.102223
	H4414	H	0.297880	0.797837	0.400260
	H4415	H	0.360533	0.860267	0.399167
	H4416	H	0.276399	0.850346	0.417884
	H4417	H	0.337754	0.786740	0.524241
	H4418	H	0.287161	0.838083	0.037033
	H4419	H	0.350091	0.776080	-0.012017
	H4420	H	0.287980	0.838816	0.418268
	H4421	H	0.349225	0.775179	0.523295
	H4422	H	0.275642	0.849604	0.036878
	H4423	H	0.338569	0.787562	-0.011999
	H4424	H	0.286947	0.787159	0.232032
	H4425	H	0.349456	0.849711	0.214928
	H4426	H	0.275541	0.775416	0.268638
	H4427	H	0.338254	0.837836	0.287379
	H4428	H	0.275425	0.775668	0.231091
	H4429	H	0.337935	0.838193	0.215012
	H4430	H	0.287077	0.786911	0.270156
	H4431	H	0.349764	0.849428	0.286573
	Co4432	Co	0.375059	0.875056	0.126264
	Co4433	Co	0.312549	0.812518	0.125872
	Co4434	Co	0.250024	0.750016	0.375100
	Co4435	Co	0.312588	0.812473	0.376004
	C4436	C	0.263684	0.861549	0.423809
	C4437	C	0.326187	0.799019	0.425558
	C4438	C	0.298871	0.826017	0.077060
	C4439	C	0.361519	0.763586	0.076735
	C4440	C	0.298974	0.825978	0.424127
	C4441	C	0.361534	0.763669	0.423989
	C4442	C	0.263602	0.861535	0.076449
	C4443	C	0.326095	0.798899	0.076487
	C4444	C	0.299003	0.798957	0.175136
	C4445	C	0.361488	0.861504	0.174808
	C4446	C	0.263640	0.763513	0.326544
	C4447	C	0.326095	0.826123	0.327107
	C4448	C	0.263620	0.763577	0.174280
	C4449	C	0.326121	0.826091	0.174774
	C4450	C	0.299009	0.798955	0.327476
	C4451	C	0.361542	0.861420	0.326725
	C4452	C	0.267685	0.857338	0.499616
	C4453	C	0.330249	0.794865	0.000479
	C4454	C	0.294889	0.830118	0.499941
	C4455	C	0.357389	0.767639	0.000507
	C4456	C	0.294887	0.794867	0.251483
	C4457	C	0.357422	0.857387	0.250613
	C4458	C	0.267678	0.767693	0.250304
	C4459	C	0.330195	0.830190	0.250999
	C4460	C	0.274590	0.850461	0.499295
	C4461	C	0.337078	0.787917	0.000365
	C4462	C	0.288002	0.837036	0.499597
	C4463	C	0.350506	0.774529	0.000036
	C4464	C	0.287978	0.788018	0.251158
	C4465	C	0.350547	0.850496	0.250504
	C4466	C	0.274547	0.774577	0.249972
	C4467	C	0.337141	0.837051	0.251205
	C4468	C	0.278560	0.847462	0.453678
	C4469	C	0.340382	0.784381	0.514046
	C4470	C	0.284575	0.840554	0.020633
	C4471	C	0.347359	0.778269	-0.006888
	C4472	C	0.285080	0.840939	0.453801
	C4473	C	0.346887	0.777830	0.513507
	C4474	C	0.278055	0.847093	0.020926
	C4475	C	0.340829	0.784786	-0.006814
	C4476	C	0.284489	0.784632	0.240198
	C4477	C	0.347004	0.847132	0.230481
	C4478	C	0.278036	0.777966	0.260862
	C4479	C	0.340665	0.840429	0.271337
	C4480	C	0.277965	0.778087	0.239473
	C4481	C	0.340497	0.840604	0.230750
	C4482	C	0.284564	0.784510	0.261412
	C4483	C	0.347191	0.846951	0.270646
	N4484	N	0.257661	0.867523	0.453014
	N4485	N	0.320146	0.804981	0.453978
	N4486	N	0.304939	0.820030	0.048425
	N4487	N	0.367504	0.757549	0.048114
	N4488	N	0.304981	0.819989	0.453379
	N4489	N	0.367469	0.757597	0.452578
	N4490	N	0.257596	0.867534	0.047679
	N4491	N	0.320144	0.804975	0.047942
	N4492	N	0.305044	0.804920	0.203677
	N4493	N	0.367493	0.867518	0.203705
	N4494	N	0.257661	0.757497	0.297626
	N4495	N	0.320086	0.820115	0.298439
	N4496	N	0.257632	0.757550	0.202856
	N4497	N	0.320124	0.820065	0.203449
	N4498	N	0.305053	0.804910	0.298687
	N4499	N	0.367529	0.867469	0.298166
	H4500	H	0.264776	0.860399	0.851702
	H4501	H	0.327229	0.797895	0.852719
	H4502	H	0.297817	0.827190	0.649037
	H4503	H	0.360197	0.764534	0.649184
	H4504	H	0.297992	0.827209	0.852040
	H4505	H	0.360307	0.764603	0.851968
	H4506	H	0.264626	0.860197	0.648898
	H4507	H	0.327330	0.797848	0.650057
	H4508	H	0.298069	0.797712	0.601915
	H4509	H	0.360358	0.860425	0.602306
	H4510	H	0.264809	0.764636	0.899075
	H4511	H	0.327057	0.827290	0.899374
	H4512	H	0.264688	0.764671	0.600711
	H4513	H	0.327239	0.827245	0.602244
	H4514	H	0.297695	0.798082	0.899814
	H4515	H	0.360492	0.860265	0.898893
	H4516	H	0.275434	0.849421	0.963107
	H4517	H	0.337481	0.786453	1.012970
	H4518	H	0.286148	0.837194	0.580731
	H4519	H	0.349899	0.775857	0.477981
	H4520	H	0.286937	0.837890	0.962883
	H4521	H	0.349005	0.774939	1.011522
	H4522	H	0.274588	0.848657	0.581199
	H4523	H	0.338353	0.787343	0.478079
	H4524	H	0.287005	0.787151	0.783071
	H4525	H	0.349958	0.849256	0.716076
	H4526	H	0.275600	0.775529	0.716214
	H4527	H	0.337606	0.838352	0.785866
	H4528	H	0.275536	0.775563	0.782180
	H4529	H	0.338387	0.837792	0.716287
	H4530	H	0.287110	0.787017	0.717623
	H4531	H	0.349155	0.849877	0.786122
	Co4532	Co	0.375088	0.875006	0.626054
	Co4533	Co	0.312587	0.812564	0.625799
	Co4534	Co	0.250053	0.750050	0.875013
	Co4535	Co	0.312587	0.812552	0.875987
	C4536	C	0.263612	0.861546	0.924288
	C4537	C	0.326138	0.798998	0.924523
	C4538	C	0.298958	0.826041	0.576500
	C4539	C	0.361380	0.763489	0.576299
	C4540	C	0.298998	0.826083	0.924910
	C4541	C	0.361463	0.763488	0.924550
	C4542	C	0.263560	0.861326	0.576018
	C4543	C	0.326153	0.798977	0.577473
	C4544	C	0.299092	0.798915	0.674780
	C4545	C	0.361497	0.861484	0.674915
	C4546	C	0.263695	0.763564	0.826160
	C4547	C	0.326060	0.826171	0.826645
	C4548	C	0.263631	0.763597	0.673604
	C4549	C	0.326142	0.826122	0.674831
	C4550	C	0.298913	0.799072	0.826860
	C4551	C	0.361560	0.861430	0.826446
	C4552	C	0.267698	0.857423	1.000528
	C4553	C	0.330266	0.794922	0.501585
	C4554	C	0.294830	0.830125	1.000660
	C4555	C	0.357377	0.767691	0.500294
	C4556	C	0.294929	0.794913	0.750819
	C4557	C	0.357426	0.857394	0.750700
	C4558	C	0.267757	0.767655	0.749588
	C4559	C	0.330178	0.830210	0.750726
	C4560	C	0.274574	0.850492	1.000344
	C4561	C	0.337124	0.788032	0.501229
	C4562	C	0.287934	0.837014	0.999955
	C4563	C	0.350510	0.774576	0.500521
	C4564	C	0.288028	0.788017	0.750535
	C4565	C	0.350506	0.850516	0.750915
	C4566	C	0.274619	0.774575	0.749343
	C4567	C	0.337065	0.837117	0.750861
	C4568	C	0.277930	0.846970	0.979680
	C4569	C	0.340213	0.784181	1.007110
	C4570	C	0.284050	0.840035	0.545091
	C4571	C	0.347236	0.778201	0.487889
	C4572	C	0.284446	0.840433	0.979323
	C4573	C	0.346750	0.777664	1.006872
	C4574	C	0.277540	0.846566	0.545179
	C4575	C	0.340730	0.784749	0.488088
	C4576	C	0.284550	0.784592	0.768812
	C4577	C	0.347262	0.846909	0.731369
	C4578	C	0.278079	0.778019	0.731299
	C4579	C	0.340294	0.840743	0.770639
	C4580	C	0.278042	0.778060	0.767909
	C4581	C	0.340744	0.840399	0.731261
	C4582	C	0.284585	0.784557	0.731701
	C4583	C	0.346839	0.847237	0.770558
	N4584	N	0.257603	0.867541	0.952944
	N4585	N	0.320168	0.805018	0.953617
	N4586	N	0.304977	0.820035	0.548156
	N4587	N	0.367388	0.757500	0.547320
	N4588	N	0.305007	0.820062	0.953899
	N4589	N	0.367482	0.757491	0.953334
	N4590	N	0.257577	0.867396	0.547724
	N4591	N	0.320122	0.804967	0.548683
	N4592	N	0.305082	0.804937	0.703278
	N4593	N	0.367516	0.867492	0.703636
	N4594	N	0.257662	0.757567	0.797673
	N4595	N	0.320074	0.820132	0.798022
	N4596	N	0.257615	0.757601	0.702572
	N4597	N	0.320111	0.820102	0.703415
	N4598	N	0.304964	0.805055	0.798109
	N4599	N	0.367555	0.867453	0.798107
	H4600	H	0.264645	0.985284	0.352983
	H4601	H	0.327141	0.922785	0.351893
	H4602	H	0.297667	0.952073	0.149992
	H4603	H	0.360397	0.889770	0.150657
	H4604	H	0.297936	0.952314	0.352287
	H4605	H	0.360387	0.889717	0.352863
	H4606	H	0.264629	0.985317	0.149885
	H4607	H	0.327489	0.923255	0.149379
	H4608	H	0.297872	0.922907	0.102517
	H4609	H	0.360585	0.985019	0.101264
	H4610	H	0.264593	0.889772	0.399788
	H4611	H	0.327090	0.952219	0.399678
	H4612	H	0.264778	0.889676	0.101988
	H4613	H	0.327092	0.952133	0.102418
	H4614	H	0.297814	0.922933	0.399877
	H4615	H	0.360071	0.985502	0.399692
	H4616	H	0.275497	0.974561	0.510915
	H4617	H	0.337768	0.911890	0.388706
	H4618	H	0.287169	0.963231	-0.107320
	H4619	H	0.349168	0.900011	0.006645
	H4620	H	0.286986	0.962999	0.510998
	H4621	H	0.349270	0.900303	0.388593
	H4622	H	0.275601	0.974708	-0.107313
	H4623	H	0.337717	0.911577	0.007223
	H4624	H	0.287135	0.912073	0.291617
	H4625	H	0.349126	0.974768	0.209653
	H4626	H	0.275440	0.900486	0.210078
	H4627	H	0.338308	0.962731	0.292154
	H4628	H	0.275672	0.900488	0.291930
	H4629	H	0.337602	0.963248	0.210158
	H4630	H	0.286952	0.912082	0.210237
	H4631	H	0.349862	0.974201	0.291536
	Co4632	Co	0.375008	0.999949	0.125491
	Co4633	Co	0.312518	0.937510	0.125831
	Co4634	Co	0.250016	0.875009	0.375680
	Co4635	Co	0.312507	0.937533	0.376240
	C4636	C	0.263553	0.986428	0.425482
	C4637	C	0.326107	0.923957	0.424723
	C4638	C	0.298866	0.950980	0.077241
	C4639	C	0.361496	0.888594	0.077664
	C4640	C	0.299007	0.951134	0.424825
	C4641	C	0.361481	0.888570	0.425366
	C4642	C	0.263565	0.986438	0.077178
	C4643	C	0.326230	0.924176	0.076854
	C4644	C	0.298999	0.923957	0.175199
	C4645	C	0.361594	0.986270	0.174194
	C4646	C	0.263560	0.888609	0.327022
	C4647	C	0.326037	0.951092	0.327053
	C4648	C	0.263634	0.888560	0.174836
	C4649	C	0.326035	0.951059	0.174943
	C4650	C	0.298969	0.923950	0.327219
	C4651	C	0.361338	0.986502	0.326599
	C4652	C	0.267664	0.982382	0.501358
	C4653	C	0.330220	0.919914	0.001329
	C4654	C	0.294836	0.955154	0.501164
	C4655	C	0.357388	0.892678	0.001432
	C4656	C	0.294926	0.919854	0.251048
	C4657	C	0.357366	0.982308	0.250226
	C4658	C	0.267715	0.892624	0.250968
	C4659	C	0.330125	0.955173	0.250919
	C4660	C	0.274581	0.975522	0.501669
	C4661	C	0.337124	0.913044	0.001717
	C4662	C	0.287958	0.962044	0.501563
	C4663	C	0.350518	0.899592	0.001355
	C4664	C	0.287965	0.913023	0.250715
	C4665	C	0.350459	0.975445	0.250617
	C4666	C	0.274592	0.899546	0.250941
	C4667	C	0.337007	0.962065	0.250996
	C4668	C	0.277999	0.972062	0.506901
	C4669	C	0.340405	0.909430	0.438068
	C4670	C	0.284623	0.965591	-0.059678
	C4671	C	0.346855	0.902754	0.004380
	C4672	C	0.284496	0.965500	0.506843
	C4673	C	0.346908	0.902879	0.438116
	C4674	C	0.278078	0.972115	-0.059660
	C4675	C	0.340347	0.909313	0.004554
	C4676	C	0.284588	0.909539	0.273614
	C4677	C	0.346813	0.972155	0.228019
	C4678	C	0.277971	0.903026	0.228101
	C4679	C	0.340645	0.965355	0.274008
	C4680	C	0.278078	0.903006	0.273638
	C4681	C	0.340264	0.965656	0.228029
	C4682	C	0.284472	0.909567	0.227924
	C4683	C	0.347188	0.971859	0.273885
	N4684	N	0.257579	0.992476	0.454012
	N4685	N	0.320122	0.929984	0.453105
	N4686	N	0.304887	0.944980	0.048542
	N4687	N	0.367472	0.882551	0.048727
	N4688	N	0.304988	0.945109	0.453711
	N4689	N	0.367514	0.882591	0.454033
	N4690	N	0.257557	0.992423	0.048412
	N4691	N	0.320090	0.930031	0.048033
	N4692	N	0.305038	0.929951	0.204299
	N4693	N	0.367566	0.992311	0.203090
	N4694	N	0.257554	0.882590	0.298167
	N4695	N	0.320062	0.945067	0.298503
	N4696	N	0.257605	0.882572	0.203478
	N4697	N	0.320060	0.945039	0.203847
	N4698	N	0.304982	0.929974	0.298706
	N4699	N	0.367412	0.992442	0.298115
	H4700	H	0.264831	0.985363	0.852978
	H4701	H	0.326896	0.922418	0.852877
	H4702	H	0.297711	0.952087	0.650142
	H4703	H	0.360216	0.889578	0.650031
	H4704	H	0.297914	0.952335	0.852148
	H4705	H	0.360243	0.889652	0.852162
	H4706	H	0.264772	0.985502	0.649737
	H4707	H	0.327318	0.923014	0.649261
	H4708	H	0.298047	0.922716	0.602136
	H4709	H	0.360553	0.985228	0.601999
	H4710	H	0.264472	0.889942	0.899438
	H4711	H	0.327192	0.952177	0.900236
	H4712	H	0.264904	0.889478	0.602566
	H4713	H	0.327259	0.952083	0.602956
	H4714	H	0.297799	0.922937	0.899736
	H4715	H	0.360125	0.985556	0.900085
	H4716	H	0.275413	0.974376	1.110683
	H4717	H	0.338493	0.912672	0.995965
	H4718	H	0.287057	0.963036	0.492422
	H4719	H	0.349720	0.900717	0.613653
	H4720	H	0.286924	0.962836	1.110238
	H4721	H	0.349968	0.901098	0.996065
	H4722	H	0.275575	0.974602	0.493091
	H4723	H	0.338280	0.912307	0.613423
	H4724	H	0.286524	0.912577	0.772582
	H4725	H	0.349524	0.974530	0.710456
	H4726	H	0.276078	0.899901	0.730112
	H4727	H	0.338040	0.962982	0.792195
	H4728	H	0.275046	0.901001	0.773009
	H4729	H	0.338025	0.962947	0.710305
	H4730	H	0.287566	0.911527	0.729665
	H4731	H	0.349553	0.974482	0.792293
	Co4732	Co	0.374991	1.000015	0.625870
	Co4733	Co	0.312579	0.937496	0.626230
	Co4734	Co	0.250019	0.875032	0.875628
	Co4735	Co	0.312531	0.937492	0.875829
	C4736	C	0.263669	0.986474	0.925113
	C4737	C	0.325916	0.923751	0.925251
	C4738	C	0.298876	0.951007	0.577473
	C4739	C	0.361393	0.888505	0.577630
	C4740	C	0.298987	0.951109	0.924969
	C4741	C	0.361428	0.888534	0.925104
	C4742	C	0.263622	0.986519	0.577269
	C4743	C	0.326209	0.924069	0.576714
	C4744	C	0.299050	0.923896	0.674939
	C4745	C	0.361549	0.986396	0.674967
	C4746	C	0.263476	0.888695	0.826919
	C4747	C	0.326121	0.951079	0.827724
	C4748	C	0.263730	0.888449	0.675063
	C4749	C	0.326145	0.951014	0.675591
	C4750	C	0.298926	0.924000	0.826858
	C4751	C	0.361339	0.986572	0.827286
	C4752	C	0.267709	0.982375	1.001247
	C4753	C	0.330225	0.919941	0.500776
	C4754	C	0.294872	0.955151	1.001204
	C4755	C	0.357327	0.892613	0.501358
	C4756	C	0.294899	0.919862	0.750897
	C4757	C	0.357368	0.982372	0.750946
	C4758	C	0.267690	0.892660	0.751109
	C4759	C	0.330216	0.955142	0.751549
	C4760	C	0.274571	0.975476	1.001628
	C4761	C	0.337081	0.913016	0.500974
	C4762	C	0.288022	0.962050	1.001449
	C4763	C	0.350456	0.899525	0.501324
	C4764	C	0.288013	0.912989	0.750867
	C4765	C	0.350489	0.975476	0.751146
	C4766	C	0.274576	0.899552	0.751410
	C4767	C	0.337098	0.962052	0.751412
	C4768	C	0.277950	0.971938	1.062800
	C4769	C	0.340809	0.909892	0.998642
	C4770	C	0.284568	0.965522	0.496807
	C4771	C	0.347159	0.903118	0.564243
	C4772	C	0.284491	0.965418	1.062642
	C4773	C	0.347311	0.903332	0.998348
	C4774	C	0.278062	0.972078	0.496825
	C4775	C	0.340660	0.909655	0.564317
	C4776	C	0.284275	0.909824	0.763322
	C4777	C	0.347054	0.972024	0.728316
	C4778	C	0.278322	0.902696	0.739605
	C4779	C	0.340566	0.965488	0.774218
	C4780	C	0.277750	0.903300	0.763457
	C4781	C	0.340542	0.965486	0.728442
	C4782	C	0.284849	0.909236	0.738988
	C4783	C	0.347055	0.972036	0.774226
	N4784	N	0.257630	0.992439	0.953674
	N4785	N	0.319930	0.929797	0.953393
	N4786	N	0.304912	0.945030	0.548798
	N4787	N	0.367467	0.882554	0.549050
	N4788	N	0.304950	0.945048	0.953304
	N4789	N	0.367421	0.882516	0.953481
	N4790	N	0.257612	0.992529	0.548614
	N4791	N	0.320170	0.930053	0.547989
	N4792	N	0.305019	0.929947	0.703574
	N4793	N	0.367491	0.992447	0.703879
	N4794	N	0.257549	0.882603	0.798171
	N4795	N	0.320114	0.945074	0.798974
	N4796	N	0.257704	0.882472	0.703484
	N4797	N	0.320130	0.945023	0.704390
	N4798	N	0.304920	0.930019	0.798249
	N4799	N	0.367393	0.992544	0.798573
	H4800	H	0.389610	0.110231	0.351237
	H4801	H	0.452239	0.047864	0.351249
	H4802	H	0.422760	0.077034	0.149025
	H4803	H	0.485472	0.014823	0.148639
	H4804	H	0.422893	0.077248	0.351696
	H4805	H	0.485311	0.014636	0.351382
	H4806	H	0.389542	0.110212	0.149059
	H4807	H	0.452348	0.047898	0.149082
	H4808	H	0.422677	0.047941	0.101368
	H4809	H	0.485206	0.110311	0.102287
	H4810	H	0.389848	0.014446	0.399861
	H4811	H	0.452043	0.077174	0.398741
	H4812	H	0.389539	0.014784	0.101126
	H4813	H	0.452179	0.077124	0.101533
	H4814	H	0.423002	0.047666	0.400046
	H4815	H	0.485365	0.110395	0.399397
	H4816	H	0.400493	0.099487	0.459047
	H4817	H	0.463130	0.037087	0.505394
	H4818	H	0.411792	0.087813	-0.026435
	H4819	H	0.475072	0.025923	-0.041335
	H4820	H	0.412057	0.087990	0.459900
	H4821	H	0.474654	0.025550	0.505480
	H4822	H	0.400356	0.099366	-0.027011
	H4823	H	0.463584	0.037470	-0.041256
	H4824	H	0.411659	0.037364	0.327738
	H4825	H	0.474724	0.099318	0.249130
	H4826	H	0.400862	0.025121	0.173715
	H4827	H	0.462769	0.088153	0.253107
	H4828	H	0.400144	0.025834	0.326858
	H4829	H	0.463283	0.087684	0.248156
	H4830	H	0.412322	0.036692	0.174124
	H4831	H	0.474270	0.099679	0.253712
	Co4832	Co	0.499987	0.124937	0.125096
	Co4833	Co	0.437456	0.062480	0.125323
	Co4834	Co	0.375001	-0.000052	0.375690
	Co4835	Co	0.437541	0.062505	0.375356
	C4836	C	0.388524	0.111347	0.423968
	C4837	C	0.451076	0.048936	0.424026
	C4838	C	0.423882	0.076003	0.076407
	C4839	C	0.486509	0.013600	0.075911
	C4840	C	0.424024	0.076120	0.424381
	C4841	C	0.486430	0.013562	0.423977
	C4842	C	0.388474	0.111370	0.076213
	C4843	C	0.451122	0.049009	0.076474
	C4844	C	0.423836	0.049002	0.174489
	C4845	C	0.486393	0.111459	0.174673
	C4846	C	0.388672	0.013420	0.326800
	C4847	C	0.451015	0.076098	0.326139
	C4848	C	0.388495	0.013603	0.174104
	C4849	C	0.451070	0.076039	0.174094
	C4850	C	0.424014	0.048866	0.326838
	C4851	C	0.486490	0.111477	0.326859
	C4852	C	0.392655	0.107321	0.500218
	C4853	C	0.455217	0.044873	0.000392
	C4854	C	0.419948	0.080206	0.500731
	C4855	C	0.482329	0.017616	-0.000349
	C4856	C	0.419858	0.044877	0.250908
	C4857	C	0.482358	0.107362	0.251184
	C4858	C	0.392676	0.017586	0.250437
	C4859	C	0.455185	0.080117	0.250105
	C4860	C	0.399529	0.100423	0.500620
	C4861	C	0.462083	0.037983	0.000111
	C4862	C	0.413024	0.087065	0.500833
	C4863	C	0.475464	0.024522	0.000097
	C4864	C	0.412961	0.037982	0.251006
	C4865	C	0.475474	0.100471	0.251513
	C4866	C	0.399562	0.024499	0.250396
	C4867	C	0.462085	0.086983	0.250406
	C4868	C	0.402995	0.096987	0.477454
	C4869	C	0.465580	0.034571	0.503199
	C4870	C	0.409392	0.090404	-0.015018
	C4871	C	0.472333	0.028249	-0.023229
	C4872	C	0.409544	0.090490	0.477611
	C4873	C	0.472085	0.028028	0.503163
	C4874	C	0.402884	0.096939	-0.015113
	C4875	C	0.465823	0.034808	-0.023033
	C4876	C	0.409322	0.034682	0.293941
	C4877	C	0.472155	0.096899	0.249790
	C4878	C	0.403175	0.027776	0.207610
	C4879	C	0.465406	0.090560	0.251971
	C4880	C	0.402814	0.028150	0.293659
	C4881	C	0.465654	0.090332	0.249270
	C4882	C	0.409670	0.034319	0.207782
	C4883	C	0.471912	0.097114	0.252718
	N4884	N	0.382476	0.117318	0.452700
	N4885	N	0.445071	0.054944	0.452751
	N4886	N	0.429926	0.070028	0.047566
	N4887	N	0.492490	0.007566	0.047592
	N4888	N	0.430018	0.070098	0.452983
	N4889	N	0.492434	0.007546	0.452530
	N4890	N	0.382496	0.117421	0.047872
	N4891	N	0.445089	0.054981	0.047869
	N4892	N	0.429864	0.055009	0.203054
	N4893	N	0.492395	0.117482	0.202767
	N4894	N	0.382605	0.007479	0.298025
	N4895	N	0.444984	0.070116	0.297315
	N4896	N	0.382505	0.007577	0.202989
	N4897	N	0.444999	0.070094	0.202791
	N4898	N	0.429966	0.054943	0.298097
	N4899	N	0.492467	0.117484	0.297683
	H4900	H	0.389850	0.110566	0.851393
	H4901	H	0.452142	0.047764	0.851542
	H4902	H	0.422834	0.077060	0.649344
	H4903	H	0.485269	0.014580	0.648394
	H4904	H	0.423083	0.077352	0.851695
	H4905	H	0.485246	0.014542	0.851179
	H4906	H	0.389633	0.110304	0.649172
	H4907	H	0.452153	0.047792	0.649056
	H4908	H	0.422878	0.047763	0.601891
	H4909	H	0.485453	0.110257	0.600751
	H4910	H	0.389847	0.014521	0.899704
	H4911	H	0.452103	0.077186	0.899061
	H4912	H	0.389521	0.014784	0.601984
	H4913	H	0.452124	0.077148	0.600775
	H4914	H	0.422947	0.047711	0.898983
	H4915	H	0.485167	0.110386	0.898788
	H4916	H	0.400632	0.099642	1.026876
	H4917	H	0.462458	0.036487	1.040999
	H4918	H	0.412129	0.088064	0.542083
	H4919	H	0.474456	0.025418	0.494595
	H4920	H	0.412095	0.088048	1.027425
	H4921	H	0.473974	0.024958	1.041455
	H4922	H	0.400558	0.099521	0.541928
	H4923	H	0.462964	0.036985	0.494643
	H4924	H	0.411878	0.037171	0.749457
	H4925	H	0.474166	0.099847	0.679592
	H4926	H	0.400638	0.025353	0.752100
	H4927	H	0.463353	0.087534	0.819026
	H4928	H	0.400298	0.025737	0.750126
	H4929	H	0.462650	0.088318	0.679722
	H4930	H	0.412222	0.036787	0.751962
	H4931	H	0.474843	0.099075	0.819224
	Co4932	Co	0.499994	0.124983	0.624864
	Co4933	Co	0.437465	0.062441	0.625250
	Co4934	Co	0.375017	0.000003	0.875956
	Co4935	Co	0.437493	0.062469	0.875334
	C4936	C	0.388639	0.111573	0.924108
	C4937	C	0.451036	0.048930	0.924314
	C4938	C	0.423989	0.076044	0.576624
	C4939	C	0.486436	0.013515	0.575979
	C4940	C	0.424029	0.076157	0.924326
	C4941	C	0.486421	0.013465	0.923786
	C4942	C	0.388554	0.111408	0.576490
	C4943	C	0.451059	0.048906	0.576453
	C4944	C	0.424000	0.048862	0.674413
	C4945	C	0.486471	0.111362	0.673709
	C4946	C	0.388648	0.013525	0.827038
	C4947	C	0.451034	0.076022	0.826084
	C4948	C	0.388480	0.013660	0.674888
	C4949	C	0.451022	0.076004	0.673544
	C4950	C	0.424033	0.048833	0.826435
	C4951	C	0.486347	0.111437	0.826034
	C4952	C	0.392604	0.107361	1.000052
	C4953	C	0.455153	0.044849	0.500133
	C4954	C	0.419837	0.080134	1.000334
	C4955	C	0.482391	0.017656	0.500109
	C4956	C	0.419973	0.044743	0.750439
	C4957	C	0.482334	0.107336	0.749897
	C4958	C	0.392632	0.017679	0.750888
	C4959	C	0.455130	0.080073	0.749662
	C4960	C	0.399508	0.100469	0.999854
	C4961	C	0.462066	0.037988	0.500042
	C4962	C	0.412939	0.087025	1.000059
	C4963	C	0.475481	0.024523	0.500075
	C4964	C	0.413044	0.037915	0.750421
	C4965	C	0.475432	0.100459	0.749697
	C4966	C	0.399540	0.024544	0.750760
	C4967	C	0.462001	0.086978	0.749545
	C4968	C	0.403047	0.097072	1.015038
	C4969	C	0.465205	0.034246	1.023306
	C4970	C	0.409578	0.090509	0.524047
	C4971	C	0.471991	0.027952	0.497142
	C4972	C	0.409556	0.090534	1.015091
	C4973	C	0.471725	0.027694	1.023198
	C4974	C	0.403015	0.096992	0.523837
	C4975	C	0.465478	0.034488	0.497105
	C4976	C	0.409476	0.034600	0.749905
	C4977	C	0.471799	0.097165	0.710528
	C4978	C	0.403080	0.027905	0.751266
	C4979	C	0.465656	0.090237	0.788676
	C4980	C	0.402924	0.028111	0.750281
	C4981	C	0.465265	0.090642	0.710284
	C4982	C	0.409634	0.034396	0.751159
	C4983	C	0.472175	0.096776	0.788634
	N4984	N	0.382590	0.117544	0.952791
	N4985	N	0.445039	0.054937	0.952996
	N4986	N	0.430001	0.070049	0.547690
	N4987	N	0.492443	0.007530	0.547231
	N4988	N	0.430007	0.070115	0.952891
	N4989	N	0.492442	0.007482	0.952910
	N4990	N	0.382500	0.117369	0.547732
	N4991	N	0.445056	0.054923	0.547710
	N4992	N	0.429956	0.054913	0.702983
	N4993	N	0.492470	0.117372	0.702424
	N4994	N	0.382594	0.007559	0.798419
	N4995	N	0.445066	0.069991	0.797626
	N4996	N	0.382497	0.007644	0.703509
	N4997	N	0.445063	0.069974	0.702531
	N4998	N	0.429976	0.054917	0.797546
	N4999	N	0.492385	0.117420	0.797430
	H5000	H	0.389920	0.235480	0.351760
	H5001	H	0.452001	0.172646	0.351034
	H5002	H	0.422945	0.202202	0.148504
	H5003	H	0.485465	0.139700	0.149646
	H5004	H	0.422915	0.202231	0.351290
	H5005	H	0.485320	0.139629	0.351103
	H5006	H	0.389669	0.235365	0.148825
	H5007	H	0.452182	0.172898	0.149602
	H5008	H	0.422854	0.172795	0.101576
	H5009	H	0.485336	0.235399	0.101329
	H5010	H	0.389815	0.139436	0.399705
	H5011	H	0.452373	0.202050	0.399144
	H5012	H	0.389625	0.139748	0.101787
	H5013	H	0.452151	0.202222	0.100884
	H5014	H	0.422914	0.172697	0.398677
	H5015	H	0.485505	0.235252	0.398464
	H5016	H	0.400559	0.224610	0.548454
	H5017	H	0.462491	0.161475	0.521851
	H5018	H	0.411526	0.212441	-0.037494
	H5019	H	0.474781	0.150717	0.050268
	H5020	H	0.412066	0.213046	0.548144
	H5021	H	0.474062	0.149981	0.521334
	H5022	H	0.399965	0.223955	-0.037236
	H5023	H	0.463199	0.162186	0.049750
	H5024	H	0.411990	0.162047	0.221666
	H5025	H	0.474018	0.225080	0.283231
	H5026	H	0.400635	0.150361	0.278796
	H5027	H	0.463638	0.212396	0.216442
	H5028	H	0.400468	0.150530	0.222333
	H5029	H	0.462505	0.213533	0.284107
	H5030	H	0.412101	0.161945	0.278864
	H5031	H	0.475192	0.223926	0.216582
	Co5032	Co	0.500076	0.250070	0.125537
	Co5033	Co	0.437527	0.187517	0.125273
	Co5034	Co	0.375011	0.124999	0.375608
	Co5035	Co	0.437563	0.187513	0.375326
	C5036	C	0.388708	0.236542	0.424491
	C5037	C	0.450981	0.173821	0.423683
	C5038	C	0.424002	0.201094	0.075592
	C5039	C	0.486567	0.138595	0.077045
	C5040	C	0.424004	0.201096	0.423994
	C5041	C	0.486475	0.138564	0.423631
	C5042	C	0.388568	0.236447	0.076306
	C5043	C	0.451105	0.173964	0.077107
	C5044	C	0.424009	0.173941	0.174047
	C5045	C	0.486478	0.236511	0.174201
	C5046	C	0.388679	0.138433	0.326900
	C5047	C	0.451201	0.201039	0.326162
	C5048	C	0.388584	0.138588	0.174601
	C5049	C	0.451101	0.201118	0.173867
	C5050	C	0.424069	0.173901	0.326207
	C5051	C	0.486554	0.236431	0.326027
	C5052	C	0.392720	0.232393	0.500781
	C5053	C	0.455186	0.169820	0.001421
	C5054	C	0.419895	0.205160	0.500177
	C5055	C	0.482468	0.142706	0.001197
	C5056	C	0.419942	0.169828	0.250088
	C5057	C	0.482427	0.232383	0.249980
	C5058	C	0.392742	0.142597	0.250713
	C5059	C	0.455231	0.205157	0.249957
	C5060	C	0.399596	0.225491	0.500992
	C5061	C	0.462091	0.162942	0.001476
	C5062	C	0.412996	0.212038	0.500353
	C5063	C	0.475553	0.149558	0.001683
	C5064	C	0.413016	0.162963	0.250007
	C5065	C	0.475562	0.225461	0.249889
	C5066	C	0.399624	0.149481	0.250498
	C5067	C	0.462127	0.212038	0.249897
	C5068	C	0.403057	0.222072	0.527599
	C5069	C	0.465237	0.159230	0.511931
	C5070	C	0.409246	0.215189	-0.021198
	C5071	C	0.472195	0.153107	0.028990
	C5072	C	0.409568	0.215531	0.527272
	C5073	C	0.471776	0.152720	0.511844
	C5074	C	0.402718	0.221709	-0.020759
	C5075	C	0.465652	0.159603	0.028757
	C5076	C	0.409524	0.159539	0.234080
	C5077	C	0.471788	0.222319	0.268811
	C5078	C	0.403094	0.152934	0.266252
	C5079	C	0.465914	0.215180	0.231106
	C5080	C	0.403011	0.152978	0.234433
	C5081	C	0.465266	0.215790	0.269103
	C5082	C	0.409620	0.159476	0.266048
	C5083	C	0.472456	0.221688	0.231278
	N5084	N	0.382654	0.242508	0.453202
	N5085	N	0.445032	0.179876	0.452646
	N5086	N	0.429976	0.195037	0.047104
	N5087	N	0.492541	0.132574	0.047839
	N5088	N	0.430001	0.195076	0.452757
	N5089	N	0.492484	0.132568	0.452481
	N5090	N	0.382560	0.242467	0.047652
	N5091	N	0.445109	0.179964	0.047845
	N5092	N	0.430024	0.179943	0.202717
	N5093	N	0.492510	0.242480	0.202916
	N5094	N	0.382612	0.132491	0.297934
	N5095	N	0.445125	0.195067	0.297559
	N5096	N	0.382552	0.132585	0.203108
	N5097	N	0.445083	0.195110	0.202738
	N5098	N	0.430058	0.179918	0.297546
	N5099	N	0.492550	0.242437	0.297678
	H5100	H	0.389706	0.235398	0.851612
	H5101	H	0.452206	0.172706	0.852621
	H5102	H	0.422796	0.202156	0.649217
	H5103	H	0.485483	0.139900	0.648561
	H5104	H	0.422770	0.202032	0.850297
	H5105	H	0.485329	0.139688	0.852141
	H5106	H	0.389523	0.235173	0.649469
	H5107	H	0.452245	0.172891	0.648704
	H5108	H	0.422689	0.172812	0.601776
	H5109	H	0.485237	0.235392	0.601378
	H5110	H	0.389830	0.139496	0.899282
	H5111	H	0.452206	0.202075	0.899224
	H5112	H	0.389413	0.139891	0.602119
	H5113	H	0.452229	0.202133	0.602347
	H5114	H	0.422802	0.172824	0.899596
	H5115	H	0.485195	0.235429	0.899530
	H5116	H	0.401015	0.225056	1.038307
	H5117	H	0.462870	0.161815	0.952235
	H5118	H	0.412134	0.213007	0.453109
	H5119	H	0.475094	0.151072	0.477103
	H5120	H	0.412538	0.213553	1.036763
	H5121	H	0.474466	0.150343	0.953219
	H5122	H	0.400594	0.224532	0.453226
	H5123	H	0.463553	0.162598	0.477278
	H5124	H	0.411263	0.162681	0.697668
	H5125	H	0.475177	0.223851	0.734850
	H5126	H	0.401293	0.149673	0.803552
	H5127	H	0.462332	0.213614	0.766028
	H5128	H	0.399709	0.151140	0.697652
	H5129	H	0.463664	0.212283	0.734687
	H5130	H	0.412814	0.161197	0.803809
	H5131	H	0.473755	0.225179	0.766454
	Co5132	Co	0.500012	0.249995	0.625020
	Co5133	Co	0.437467	0.187473	0.625047
	Co5134	Co	0.374954	0.125027	0.875646
	Co5135	Co	0.437548	0.187434	0.875210
	C5136	C	0.388589	0.236453	0.924340
	C5137	C	0.451116	0.173858	0.925118
	C5138	C	0.423945	0.201054	0.576304
	C5139	C	0.486558	0.138689	0.575897
	C5140	C	0.423897	0.200972	0.923235
	C5141	C	0.486498	0.138579	0.924997
	C5142	C	0.388521	0.236381	0.576770
	C5143	C	0.451098	0.173952	0.575855
	C5144	C	0.423939	0.173896	0.674549
	C5145	C	0.486408	0.236461	0.674301
	C5146	C	0.388595	0.138459	0.826633
	C5147	C	0.451083	0.200969	0.826817
	C5148	C	0.388367	0.138663	0.674519
	C5149	C	0.451111	0.200983	0.674695
	C5150	C	0.423987	0.173900	0.826725
	C5151	C	0.486410	0.236489	0.826594
	C5152	C	0.392650	0.232374	1.000526
	C5153	C	0.455139	0.169813	0.499762
	C5154	C	0.419889	0.205121	0.999327
	C5155	C	0.482436	0.142694	0.499674
	C5156	C	0.419899	0.169767	0.750745
	C5157	C	0.482326	0.232378	0.750614
	C5158	C	0.392591	0.142625	0.750642
	C5159	C	0.455187	0.205071	0.750931
	C5160	C	0.399550	0.225473	1.000527
	C5161	C	0.462058	0.162961	0.499637
	C5162	C	0.412987	0.212028	0.999495
	C5163	C	0.475534	0.149570	0.499508
	C5164	C	0.412991	0.162878	0.750801
	C5165	C	0.475416	0.225495	0.750768
	C5166	C	0.399512	0.149492	0.750792
	C5167	C	0.462061	0.211994	0.750859
	C5168	C	0.403295	0.222305	1.021317
	C5169	C	0.465464	0.159385	0.973939
	C5170	C	0.409575	0.215499	0.473786
	C5171	C	0.472365	0.153328	0.486920
	C5172	C	0.409826	0.215796	1.020766
	C5173	C	0.472008	0.152885	0.974171
	C5174	C	0.403051	0.222034	0.474147
	C5175	C	0.465822	0.159835	0.487019
	C5176	C	0.409111	0.159848	0.720828
	C5177	C	0.472347	0.221660	0.741631
	C5178	C	0.403411	0.152521	0.780635
	C5179	C	0.465110	0.215829	0.759675
	C5180	C	0.402541	0.153345	0.720925
	C5181	C	0.465861	0.215091	0.741816
	C5182	C	0.409969	0.159030	0.780727
	C5183	C	0.471603	0.222378	0.759772
	N5184	N	0.382593	0.242485	0.952932
	N5185	N	0.445099	0.179902	0.953272
	N5186	N	0.429978	0.195065	0.547585
	N5187	N	0.492553	0.132655	0.547250
	N5188	N	0.429926	0.194980	0.952144
	N5189	N	0.492497	0.132555	0.953224
	N5190	N	0.382546	0.242412	0.547953
	N5191	N	0.445101	0.179970	0.547235
	N5192	N	0.429955	0.179907	0.702824
	N5193	N	0.492466	0.242440	0.702745
	N5194	N	0.382521	0.132498	0.797934
	N5195	N	0.445093	0.194949	0.797738
	N5196	N	0.382387	0.132618	0.703085
	N5197	N	0.445107	0.194943	0.703237
	N5198	N	0.429990	0.179908	0.797708
	N5199	N	0.492472	0.242447	0.797757
	H5200	H	0.389513	0.360213	0.350936
	H5201	H	0.452380	0.298064	0.351784
	H5202	H	0.422794	0.327055	0.149258
	H5203	H	0.485463	0.264673	0.149101
	H5204	H	0.422989	0.327261	0.351417
	H5205	H	0.485285	0.264666	0.352100
	H5206	H	0.389780	0.360402	0.149876
	H5207	H	0.452419	0.297979	0.148972
	H5208	H	0.422728	0.297898	0.102139
	H5209	H	0.485272	0.360340	0.101175
	H5210	H	0.389583	0.264725	0.399258
	H5211	H	0.452122	0.327239	0.398918
	H5212	H	0.389820	0.264505	0.101546
	H5213	H	0.452225	0.327128	0.101508
	H5214	H	0.422819	0.297775	0.398783
	H5215	H	0.485257	0.360300	0.398357
	H5216	H	0.400737	0.349683	0.566479
	H5217	H	0.462520	0.286595	0.452208
	H5218	H	0.411728	0.337729	0.030546
	H5219	H	0.474797	0.275742	0.064021
	H5220	H	0.412253	0.338157	0.566504
	H5221	H	0.474110	0.275066	0.452254
	H5222	H	0.400201	0.349263	0.030306
	H5223	H	0.463320	0.287302	0.063992
	H5224	H	0.412606	0.286315	0.345113
	H5225	H	0.474170	0.349724	0.346838
	H5226	H	0.399868	0.276103	0.155873
	H5227	H	0.463255	0.337773	0.152849
	H5228	H	0.401134	0.274765	0.344814
	H5229	H	0.462699	0.338187	0.347062
	H5230	H	0.411318	0.287702	0.155592
	H5231	H	0.474759	0.349311	0.152376
	Co5232	Co	0.499980	0.374980	0.124758
	Co5233	Co	0.437521	0.312459	0.125172
	Co5234	Co	0.375028	0.249973	0.375321
	Co5235	Co	0.437488	0.312448	0.375395
	C5236	C	0.388482	0.361373	0.424031
	C5237	C	0.451184	0.299048	0.424570
	C5238	C	0.423923	0.325990	0.076620
	C5239	C	0.486470	0.263596	0.076111
	C5240	C	0.424031	0.326099	0.424500
	C5241	C	0.486419	0.263520	0.424490
	C5242	C	0.388624	0.361485	0.077077
	C5243	C	0.451202	0.299031	0.076318
	C5244	C	0.423885	0.298963	0.174364
	C5245	C	0.486392	0.361434	0.173529
	C5246	C	0.388542	0.263523	0.326590
	C5247	C	0.451003	0.326083	0.326275
	C5248	C	0.388654	0.263429	0.174392
	C5249	C	0.451078	0.326023	0.174064
	C5250	C	0.423931	0.298899	0.326224
	C5251	C	0.486392	0.361423	0.325794
	C5252	C	0.392665	0.357365	0.500271
	C5253	C	0.455143	0.294861	0.000045
	C5254	C	0.419905	0.330163	0.500507
	C5255	C	0.482353	0.267634	0.000052
	C5256	C	0.419814	0.294851	0.250401
	C5257	C	0.482315	0.357325	0.249600
	C5258	C	0.392677	0.267550	0.250467
	C5259	C	0.455113	0.330149	0.250155
	C5260	C	0.399559	0.350505	0.500181
	C5261	C	0.462036	0.287952	-0.000251
	C5262	C	0.413009	0.337038	0.500333
	C5263	C	0.475440	0.274512	0.000269
	C5264	C	0.412901	0.287965	0.250442
	C5265	C	0.475395	0.350474	0.249812
	C5266	C	0.399541	0.274479	0.250393
	C5267	C	0.462012	0.337025	0.250145
	C5268	C	0.403126	0.347119	0.537240
	C5269	C	0.465276	0.284299	0.473700
	C5270	C	0.409348	0.340329	0.017478
	C5271	C	0.472136	0.278135	0.036045
	C5272	C	0.409659	0.340585	0.537230
	C5273	C	0.471786	0.277759	0.473575
	C5274	C	0.402824	0.346863	0.017698
	C5275	C	0.465641	0.284671	0.035813
	C5276	C	0.409814	0.284127	0.303396
	C5277	C	0.471825	0.347131	0.304384
	C5278	C	0.402610	0.278323	0.197338
	C5279	C	0.465593	0.340374	0.195675
	C5280	C	0.403317	0.277580	0.303331
	C5281	C	0.465320	0.340593	0.304506
	C5282	C	0.409109	0.284879	0.197362
	C5283	C	0.472106	0.346908	0.195311
	N5284	N	0.382481	0.367384	0.452833
	N5285	N	0.445156	0.305023	0.453217
	N5286	N	0.429966	0.320043	0.047592
	N5287	N	0.492477	0.257574	0.047581
	N5288	N	0.429998	0.320050	0.453221
	N5289	N	0.492453	0.257535	0.453086
	N5290	N	0.382608	0.367513	0.048467
	N5291	N	0.445174	0.305024	0.047961
	N5292	N	0.429960	0.304919	0.203005
	N5293	N	0.492386	0.367441	0.202347
	N5294	N	0.382531	0.257512	0.297704
	N5295	N	0.445018	0.320044	0.297648
	N5296	N	0.382606	0.257434	0.202872
	N5297	N	0.445062	0.320016	0.202829
	N5298	N	0.429964	0.304884	0.297599
	N5299	N	0.492389	0.367433	0.297126
	H5300	H	0.389560	0.360228	0.852731
	H5301	H	0.452006	0.297644	0.851414
	H5302	H	0.422731	0.327073	0.649718
	H5303	H	0.485419	0.264825	0.649132
	H5304	H	0.422890	0.327275	0.851633
	H5305	H	0.485228	0.264438	0.850919
	H5306	H	0.389725	0.360464	0.649500
	H5307	H	0.452040	0.297757	0.649329
	H5308	H	0.422891	0.297747	0.601756
	H5309	H	0.485291	0.360339	0.600628
	H5310	H	0.389753	0.264625	0.898777
	H5311	H	0.452088	0.327153	0.898836
	H5312	H	0.389724	0.264640	0.601449
	H5313	H	0.452201	0.327129	0.601431
	H5314	H	0.422860	0.297757	0.898696
	H5315	H	0.485381	0.360203	0.898983
	H5316	H	0.400770	0.349753	0.972464
	H5317	H	0.462747	0.286724	0.935265
	H5318	H	0.411816	0.337912	0.433683
	H5319	H	0.474849	0.275865	0.549913
	H5320	H	0.412258	0.338207	0.971705
	H5321	H	0.474289	0.275179	0.935830
	H5322	H	0.400279	0.349375	0.433993
	H5323	H	0.463363	0.287422	0.549533
	H5324	H	0.412085	0.286905	0.753062
	H5325	H	0.474871	0.348999	0.815697
	H5326	H	0.400513	0.275528	0.746740
	H5327	H	0.462703	0.338350	0.684884
	H5328	H	0.400551	0.275352	0.753047
	H5329	H	0.463358	0.337450	0.815459
	H5330	H	0.412013	0.287022	0.747197
	H5331	H	0.474242	0.349858	0.684405
	Co5332	Co	0.499998	0.375011	0.625118
	Co5333	Co	0.437504	0.312447	0.625328
	Co5334	Co	0.375041	0.250010	0.875282
	Co5335	Co	0.437511	0.312515	0.875260
	C5336	C	0.388513	0.361402	0.925078
	C5337	C	0.450982	0.298862	0.924079
	C5338	C	0.423927	0.326007	0.576623
	C5339	C	0.486481	0.263597	0.576536
	C5340	C	0.423973	0.326087	0.924261
	C5341	C	0.486350	0.263478	0.923937
	C5342	C	0.388582	0.361499	0.576509
	C5343	C	0.451015	0.298881	0.576627
	C5344	C	0.423990	0.298896	0.674112
	C5345	C	0.486411	0.361441	0.673949
	C5346	C	0.388607	0.263526	0.826133
	C5347	C	0.451049	0.326044	0.826282
	C5348	C	0.388600	0.263525	0.674160
	C5349	C	0.451102	0.326015	0.674099
	C5350	C	0.423971	0.298885	0.826202
	C5351	C	0.486449	0.361383	0.826190
	C5352	C	0.392622	0.357352	1.001256
	C5353	C	0.455173	0.294842	0.500748
	C5354	C	0.419832	0.330128	1.000586
	C5355	C	0.482324	0.267627	0.500542
	C5356	C	0.419885	0.294810	0.750090
	C5357	C	0.482369	0.357313	0.749990
	C5358	C	0.392664	0.267633	0.750300
	C5359	C	0.455188	0.330099	0.750245
	C5360	C	0.399518	0.350456	1.001525
	C5361	C	0.462069	0.287961	0.501031
	C5362	C	0.412957	0.337017	1.001295
	C5363	C	0.475458	0.274536	0.500720
	C5364	C	0.413027	0.287890	0.749925
	C5365	C	0.475486	0.350416	0.749695
	C5366	C	0.399580	0.274489	0.750264
	C5367	C	0.462094	0.336978	0.750168
	C5368	C	0.403160	0.347108	0.985205
	C5369	C	0.465350	0.284350	0.963949
	C5370	C	0.409417	0.340443	0.463025
	C5371	C	0.472236	0.278202	0.528139
	C5372	C	0.409702	0.340590	0.985188
	C5373	C	0.471857	0.277818	0.964024
	C5374	C	0.402875	0.346963	0.463157
	C5375	C	0.465697	0.284708	0.528348
	C5376	C	0.409588	0.284401	0.751722
	C5377	C	0.472231	0.346701	0.786754
	C5378	C	0.403033	0.277962	0.748496
	C5379	C	0.465333	0.340673	0.713419
	C5380	C	0.403045	0.277885	0.751658
	C5381	C	0.465726	0.340171	0.786802
	C5382	C	0.409566	0.284471	0.748349
	C5383	C	0.471870	0.347189	0.713012
	N5384	N	0.382546	0.367457	0.953537
	N5385	N	0.445042	0.304942	0.952886
	N5386	N	0.429933	0.320002	0.548034
	N5387	N	0.492482	0.257577	0.547738
	N5388	N	0.429972	0.320082	0.952959
	N5389	N	0.492412	0.257488	0.952849
	N5390	N	0.382554	0.367470	0.547568
	N5391	N	0.445032	0.304894	0.547621
	N5392	N	0.429964	0.304930	0.703094
	N5393	N	0.492385	0.367491	0.702379
	N5394	N	0.382625	0.257488	0.797221
	N5395	N	0.445061	0.320041	0.797224
	N5396	N	0.382598	0.257515	0.702817
	N5397	N	0.445075	0.320030	0.702672
	N5398	N	0.429943	0.304934	0.797659
	N5399	N	0.492413	0.367465	0.797358
	H5400	H	0.389684	0.485269	0.351874
	H5401	H	0.451971	0.422692	0.351136
	H5402	H	0.423040	0.452411	0.148492
	H5403	H	0.485385	0.389686	0.149158
	H5404	H	0.422730	0.452039	0.352269
	H5405	H	0.485303	0.389621	0.351313
	H5406	H	0.389657	0.485320	0.148508
	H5407	H	0.452364	0.423044	0.149578
	H5408	H	0.422817	0.422766	0.101314
	H5409	H	0.485201	0.485422	0.102461
	H5410	H	0.389383	0.390007	0.399417
	H5411	H	0.452296	0.451880	0.400303
	H5412	H	0.389877	0.389462	0.102010
	H5413	H	0.452207	0.452270	0.102074
	H5414	H	0.422749	0.422862	0.398865
	H5415	H	0.485582	0.485229	0.399854
	H5416	H	0.400255	0.474327	0.504159
	H5417	H	0.462289	0.411296	0.453036
	H5418	H	0.412288	0.463239	-0.023758
	H5419	H	0.474601	0.400616	0.033588
	H5420	H	0.411807	0.462844	0.503684
	H5421	H	0.473867	0.399857	0.452269
	H5422	H	0.400654	0.474706	-0.023346
	H5423	H	0.463047	0.412149	0.034529
	H5424	H	0.411480	0.412578	0.175262
	H5425	H	0.475081	0.473953	0.303613
	H5426	H	0.401049	0.399865	0.325842
	H5427	H	0.462469	0.463377	0.199710
	H5428	H	0.399981	0.401031	0.175346
	H5429	H	0.463629	0.462379	0.303520
	H5430	H	0.412528	0.411441	0.326441
	H5431	H	0.473938	0.475017	0.199606
	Co5432	Co	0.499947	0.499949	0.125076
	Co5433	Co	0.437487	0.437569	0.125335
	Co5434	Co	0.374980	0.375010	0.375365
	Co5435	Co	0.437421	0.437507	0.375422
	C5436	C	0.388563	0.486430	0.424443
	C5437	C	0.450940	0.423828	0.424184
	C5438	C	0.424018	0.451188	0.076079
	C5439	C	0.486438	0.388588	0.076352
	C5440	C	0.423875	0.451019	0.424969
	C5441	C	0.486486	0.388570	0.423883
	C5442	C	0.388531	0.486412	0.075693
	C5443	C	0.451130	0.424038	0.076851
	C5444	C	0.423910	0.423913	0.174104
	C5445	C	0.486351	0.486504	0.175136
	C5446	C	0.388422	0.388725	0.326803
	C5447	C	0.451134	0.450915	0.327293
	C5448	C	0.388682	0.388454	0.174470
	C5449	C	0.451069	0.451097	0.175031
	C5450	C	0.423887	0.423958	0.326030
	C5451	C	0.486524	0.486411	0.327208
	C5452	C	0.392636	0.482362	0.500803
	C5453	C	0.455113	0.419863	0.000480
	C5454	C	0.419834	0.455153	0.501014
	C5455	C	0.482315	0.392671	0.000580
	C5456	C	0.419839	0.419833	0.250160
	C5457	C	0.482338	0.482362	0.251568
	C5458	C	0.392664	0.392645	0.250722
	C5459	C	0.455199	0.455069	0.251483
	C5460	C	0.399478	0.475423	0.501167
	C5461	C	0.462017	0.412973	0.000552
	C5462	C	0.412945	0.462019	0.500643
	C5463	C	0.475434	0.399565	0.000663
	C5464	C	0.412955	0.412958	0.250376
	C5465	C	0.475506	0.475397	0.251717
	C5466	C	0.399544	0.399538	0.250716
	C5467	C	0.462135	0.461922	0.251569
	C5468	C	0.402823	0.471878	0.502762
	C5469	C	0.465085	0.409111	0.473694
	C5470	C	0.409621	0.465620	-0.013749
	C5471	C	0.472040	0.403077	0.019327
	C5472	C	0.409383	0.465388	0.502519
	C5473	C	0.471657	0.402634	0.473386
	C5474	C	0.403067	0.472117	-0.013667
	C5475	C	0.465516	0.409599	0.019479
	C5476	C	0.409205	0.409823	0.208359
	C5477	C	0.472389	0.471656	0.280732
	C5478	C	0.403287	0.402659	0.293121
	C5479	C	0.465241	0.465692	0.222306
	C5480	C	0.402686	0.403286	0.208408
	C5481	C	0.465909	0.465102	0.280833
	C5482	C	0.409813	0.409181	0.293038
	C5483	C	0.471736	0.472251	0.222383
	N5484	N	0.382567	0.492446	0.453005
	N5485	N	0.444971	0.429866	0.452683
	N5486	N	0.430037	0.445187	0.047617
	N5487	N	0.492432	0.382582	0.047333
	N5488	N	0.429914	0.445047	0.453565
	N5489	N	0.492475	0.382555	0.452718
	N5490	N	0.382517	0.492447	0.047128
	N5491	N	0.445084	0.430023	0.048025
	N5492	N	0.429904	0.429967	0.202496
	N5493	N	0.492381	0.492489	0.203409
	N5494	N	0.382451	0.382701	0.298073
	N5495	N	0.445056	0.444974	0.298080
	N5496	N	0.382601	0.382543	0.203236
	N5497	N	0.445027	0.445089	0.203183
	N5498	N	0.429887	0.429972	0.297411
	N5499	N	0.492478	0.492456	0.297997
	H5500	H	0.389496	0.485237	0.850925
	H5501	H	0.452055	0.422721	0.851739
	H5502	H	0.422913	0.452245	0.649953
	H5503	H	0.485446	0.389864	0.648238
	H5504	H	0.422812	0.452114	0.850988
	H5505	H	0.485300	0.389692	0.851623
	H5506	H	0.389475	0.485259	0.649728
	H5507	H	0.452256	0.422988	0.649053
	H5508	H	0.422759	0.422799	0.601862
	H5509	H	0.485155	0.485436	0.600982
	H5510	H	0.389628	0.389696	0.899290
	H5511	H	0.452334	0.452037	0.898416
	H5512	H	0.389477	0.389906	0.601534
	H5513	H	0.451904	0.452382	0.601971
	H5514	H	0.422952	0.422704	0.899985
	H5515	H	0.485340	0.485270	0.898787
	H5516	H	0.400151	0.474245	1.022655
	H5517	H	0.462838	0.411873	0.966276
	H5518	H	0.412170	0.463140	0.496998
	H5519	H	0.475135	0.401202	0.547806
	H5520	H	0.411699	0.462760	1.022729
	H5521	H	0.474393	0.400361	0.967016
	H5522	H	0.400650	0.474657	0.497459
	H5523	H	0.463544	0.412626	0.547536
	H5524	H	0.411340	0.412693	0.775720
	H5525	H	0.474784	0.474156	0.872386
	H5526	H	0.401054	0.399896	0.725007
	H5527	H	0.462592	0.463477	0.627124
	H5528	H	0.399725	0.401264	0.775618
	H5529	H	0.463196	0.462684	0.872182
	H5530	H	0.412677	0.411339	0.725535
	H5531	H	0.474094	0.474971	0.627461
	Co5532	Co	0.500004	0.499971	0.625290
	Co5533	Co	0.437471	0.437495	0.625465
	Co5534	Co	0.375035	0.374991	0.875896
	Co5535	Co	0.437514	0.437526	0.875507
	C5536	C	0.388432	0.486372	0.923779
	C5537	C	0.450983	0.423889	0.924251
	C5538	C	0.423994	0.451117	0.577135
	C5539	C	0.486525	0.388689	0.575738
	C5540	C	0.423917	0.451040	0.923741
	C5541	C	0.486375	0.388594	0.924285
	C5542	C	0.388496	0.486413	0.577038
	C5543	C	0.451098	0.424003	0.576370
	C5544	C	0.423883	0.423922	0.674587
	C5545	C	0.486330	0.486534	0.673705
	C5546	C	0.388476	0.388601	0.826496
	C5547	C	0.451127	0.450996	0.826223
	C5548	C	0.388383	0.388703	0.674094
	C5549	C	0.450910	0.451163	0.674124
	C5550	C	0.423966	0.423879	0.827197
	C5551	C	0.486435	0.486442	0.826096
	C5552	C	0.392530	0.482297	0.999693
	C5553	C	0.455103	0.419808	0.500426
	C5554	C	0.419843	0.455153	0.999722
	C5555	C	0.482417	0.392733	0.499775
	C5556	C	0.419850	0.419819	0.750916
	C5557	C	0.482281	0.482406	0.750091
	C5558	C	0.392507	0.392776	0.750388
	C5559	C	0.455121	0.455184	0.750003
	C5560	C	0.399458	0.475434	0.999350
	C5561	C	0.461993	0.412939	0.500324
	C5562	C	0.412932	0.462039	0.999405
	C5563	C	0.475499	0.399581	0.499926
	C5564	C	0.412962	0.412964	0.750995
	C5565	C	0.475406	0.475512	0.749998
	C5566	C	0.399429	0.399622	0.750639
	C5567	C	0.461973	0.462080	0.749942
	C5568	C	0.402770	0.471850	1.012275
	C5569	C	0.465412	0.409452	0.981576
	C5570	C	0.409606	0.465559	0.498931
	C5571	C	0.472358	0.403365	0.526488
	C5572	C	0.409324	0.465347	1.012472
	C5573	C	0.471933	0.402935	0.982051
	C5574	C	0.403033	0.472042	0.499212
	C5575	C	0.465800	0.409849	0.526706
	C5576	C	0.409113	0.409916	0.765065
	C5577	C	0.472132	0.471835	0.818610
	C5578	C	0.403247	0.402669	0.736516
	C5579	C	0.465229	0.465758	0.680928
	C5580	C	0.402546	0.403427	0.764675
	C5581	C	0.465573	0.465321	0.818698
	C5582	C	0.409836	0.409149	0.736735
	C5583	C	0.471767	0.472291	0.681159
	N5584	N	0.382469	0.492416	0.952456
	N5585	N	0.445021	0.429938	0.953061
	N5586	N	0.429985	0.445100	0.548279
	N5587	N	0.492514	0.382643	0.547397
	N5588	N	0.429978	0.445107	0.952846
	N5589	N	0.492395	0.382577	0.952868
	N5590	N	0.382533	0.492436	0.548073
	N5591	N	0.445074	0.429993	0.547421
	N5592	N	0.429868	0.429964	0.703165
	N5593	N	0.492383	0.492470	0.702316
	N5594	N	0.382486	0.382594	0.797711
	N5595	N	0.445087	0.445015	0.797599
	N5596	N	0.382431	0.382650	0.702894
	N5597	N	0.444967	0.445107	0.702918
	N5598	N	0.429938	0.429922	0.798225
	N5599	N	0.492440	0.492434	0.797270
	H5600	H	0.389761	0.610334	0.352296
	H5601	H	0.452134	0.547797	0.352191
	H5602	H	0.422852	0.577280	0.149274
	H5603	H	0.485217	0.514643	0.148390
	H5604	H	0.422694	0.576985	0.351285
	H5605	H	0.485416	0.514778	0.351660
	H5606	H	0.389702	0.610393	0.149756
	H5607	H	0.452233	0.547902	0.148699
	H5608	H	0.422853	0.547859	0.100729
	H5609	H	0.485228	0.610440	0.100690
	H5610	H	0.389615	0.514709	0.398874
	H5611	H	0.452015	0.577199	0.399587
	H5612	H	0.389836	0.514459	0.100767
	H5613	H	0.452222	0.577111	0.101825
	H5614	H	0.422814	0.547740	0.398718
	H5615	H	0.485353	0.610240	0.399051
	H5616	H	0.400830	0.599742	0.582870
	H5617	H	0.462795	0.536874	0.532218
	H5618	H	0.411142	0.587234	0.001988
	H5619	H	0.474655	0.525651	0.011244
	H5620	H	0.412280	0.588117	0.581710
	H5621	H	0.474398	0.525412	0.531513
	H5622	H	0.399637	0.598833	0.002163
	H5623	H	0.463153	0.537191	0.011297
	H5624	H	0.411612	0.537352	0.321615
	H5625	H	0.475134	0.598892	0.358930
	H5626	H	0.400839	0.525133	0.176418
	H5627	H	0.462249	0.588632	0.142096
	H5628	H	0.400081	0.525896	0.322416
	H5629	H	0.463602	0.587381	0.359453
	H5630	H	0.412258	0.536699	0.176176
	H5631	H	0.473844	0.600118	0.141896
	Co5632	Co	0.499975	0.624971	0.125663
	Co5633	Co	0.437484	0.562491	0.125528
	Co5634	Co	0.375005	0.499969	0.375274
	Co5635	Co	0.437441	0.562421	0.375501
	C5636	C	0.388672	0.611470	0.424959
	C5637	C	0.451039	0.548917	0.425031
	C5638	C	0.423956	0.576086	0.076709
	C5639	C	0.486389	0.513497	0.075749
	C5640	C	0.423833	0.575909	0.424032
	C5641	C	0.486489	0.513624	0.424457
	C5642	C	0.388556	0.611447	0.077038
	C5643	C	0.451089	0.548953	0.076284
	C5644	C	0.423893	0.548958	0.173347
	C5645	C	0.486353	0.611466	0.173834
	C5646	C	0.388522	0.513542	0.326226
	C5647	C	0.450974	0.576090	0.326868
	C5648	C	0.388628	0.513414	0.173530
	C5649	C	0.451044	0.576043	0.174582
	C5650	C	0.423882	0.548895	0.326026
	C5651	C	0.486427	0.611362	0.326182
	C5652	C	0.392735	0.607432	0.501489
	C5653	C	0.455131	0.544853	0.000057
	C5654	C	0.419806	0.580077	0.500032
	C5655	C	0.482313	0.517626	-0.000450
	C5656	C	0.419773	0.544876	0.249596
	C5657	C	0.482335	0.607307	0.250057
	C5658	C	0.392657	0.517569	0.249749
	C5659	C	0.455066	0.580147	0.250758
	C5660	C	0.399581	0.600498	0.501220
	C5661	C	0.461996	0.537972	-0.000377
	C5662	C	0.412971	0.587023	0.500056
	C5663	C	0.475435	0.524506	-0.000274
	C5664	C	0.412932	0.537967	0.249329
	C5665	C	0.475421	0.600432	0.249928
	C5666	C	0.399525	0.524463	0.249743
	C5667	C	0.461951	0.587050	0.250742
	C5668	C	0.403164	0.597122	0.546900
	C5669	C	0.465360	0.534408	0.518615
	C5670	C	0.409022	0.590057	0.001814
	C5671	C	0.472117	0.528072	0.006016
	C5672	C	0.409683	0.590584	0.546334
	C5673	C	0.471924	0.527923	0.518471
	C5674	C	0.402504	0.596602	0.001947
	C5675	C	0.465574	0.534600	0.006082
	C5676	C	0.409269	0.534710	0.290067
	C5677	C	0.472327	0.596649	0.311206
	C5678	C	0.403141	0.527763	0.208567
	C5679	C	0.465045	0.590846	0.189872
	C5680	C	0.402750	0.528172	0.290266
	C5681	C	0.465778	0.590158	0.311491
	C5682	C	0.409664	0.534309	0.208347
	C5683	C	0.471595	0.597336	0.189338
	N5684	N	0.382625	0.617471	0.453224
	N5685	N	0.445000	0.554894	0.453412
	N5686	N	0.429965	0.570093	0.048130
	N5687	N	0.492363	0.507488	0.047055
	N5688	N	0.429844	0.569924	0.452737
	N5689	N	0.492508	0.507610	0.453028
	N5690	N	0.382584	0.617491	0.048326
	N5691	N	0.445091	0.554987	0.047931
	N5692	N	0.429906	0.554937	0.202470
	N5693	N	0.492330	0.617493	0.202699
	N5694	N	0.382534	0.507525	0.297635
	N5695	N	0.444977	0.570051	0.298162
	N5696	N	0.382592	0.507444	0.202524
	N5697	N	0.445031	0.570017	0.203180
	N5698	N	0.429889	0.554917	0.297345
	N5699	N	0.492386	0.617439	0.297544
	H5700	H	0.389507	0.610254	0.852308
	H5701	H	0.452206	0.547934	0.851664
	H5702	H	0.422917	0.577208	0.648461
	H5703	H	0.485292	0.514559	0.649898
	H5704	H	0.422705	0.577062	0.852248
	H5705	H	0.485315	0.514667	0.850962
	H5706	H	0.389682	0.610397	0.649845
	H5707	H	0.451978	0.547619	0.649919
	H5708	H	0.422576	0.548102	0.601916
	H5709	H	0.485276	0.610368	0.602585
	H5710	H	0.389698	0.514686	0.899210
	H5711	H	0.451913	0.577467	0.898897
	H5712	H	0.389790	0.514670	0.602094
	H5713	H	0.452233	0.576983	0.601516
	H5714	H	0.423095	0.547586	0.899898
	H5715	H	0.485311	0.610285	0.899023
	H5716	H	0.401177	0.600165	0.999637
	H5717	H	0.462739	0.536792	0.987528
	H5718	H	0.411771	0.587813	0.417788
	H5719	H	0.474656	0.525534	0.470739
	H5720	H	0.412710	0.588661	1.000209
	H5721	H	0.474242	0.525241	0.988086
	H5722	H	0.400286	0.599415	0.418912
	H5723	H	0.463149	0.537050	0.470665
	H5724	H	0.411805	0.537321	0.750541
	H5725	H	0.474682	0.599316	0.766306
	H5726	H	0.400822	0.525123	0.752283
	H5727	H	0.462728	0.588171	0.734964
	H5728	H	0.400366	0.525737	0.749773
	H5729	H	0.463115	0.587864	0.765584
	H5730	H	0.412286	0.536672	0.752493
	H5731	H	0.474309	0.599622	0.734812
	Co5732	Co	0.500000	0.624974	0.625230
	Co5733	Co	0.437446	0.562462	0.625420
	Co5734	Co	0.374941	0.500015	0.875385
	Co5735	Co	0.437501	0.562516	0.875592
	C5736	C	0.388454	0.611362	0.924861
	C5737	C	0.451069	0.548984	0.924166
	C5738	C	0.423957	0.576041	0.576093
	C5739	C	0.486434	0.513507	0.576903
	C5740	C	0.423873	0.575987	0.924689
	C5741	C	0.486423	0.513530	0.923334
	C5742	C	0.388625	0.611527	0.577197
	C5743	C	0.450936	0.548812	0.577282
	C5744	C	0.423799	0.549045	0.674702
	C5745	C	0.486464	0.611454	0.674765
	C5746	C	0.388511	0.513565	0.826775
	C5747	C	0.450897	0.576233	0.826287
	C5748	C	0.388555	0.513559	0.674586
	C5749	C	0.451060	0.575992	0.674255
	C5750	C	0.424102	0.548786	0.827040
	C5751	C	0.486474	0.611423	0.826734
	C5752	C	0.392573	0.607277	1.000717
	C5753	C	0.455109	0.544812	0.501397
	C5754	C	0.419783	0.580129	1.000759
	C5755	C	0.482376	0.517646	0.500879
	C5756	C	0.419899	0.544783	0.751040
	C5757	C	0.482379	0.607341	0.750786
	C5758	C	0.392643	0.517640	0.750600
	C5759	C	0.455046	0.580203	0.750139
	C5760	C	0.399482	0.600409	1.000845
	C5761	C	0.461984	0.537899	0.501386
	C5762	C	0.412890	0.587004	1.000941
	C5763	C	0.475463	0.524527	0.501149
	C5764	C	0.413001	0.537904	0.751458
	C5765	C	0.475487	0.600450	0.750584
	C5766	C	0.399582	0.524483	0.751070
	C5767	C	0.461956	0.587068	0.750022
	C5768	C	0.403375	0.597378	1.000289
	C5769	C	0.465331	0.534378	0.993016
	C5770	C	0.409399	0.590379	0.454216
	C5771	C	0.472102	0.528037	0.484051
	C5772	C	0.409870	0.590830	1.000543
	C5773	C	0.471859	0.527840	0.993112
	C5774	C	0.402891	0.596931	0.454629
	C5775	C	0.465534	0.534517	0.484218
	C5776	C	0.409434	0.534620	0.750840
	C5777	C	0.472115	0.596916	0.759209
	C5778	C	0.403156	0.527750	0.752081
	C5779	C	0.465351	0.590598	0.741346
	C5780	C	0.402940	0.528077	0.750413
	C5781	C	0.465549	0.590415	0.758995
	C5782	C	0.409641	0.534317	0.752234
	C5783	C	0.471900	0.597111	0.741591
	N5784	N	0.382516	0.617446	0.953743
	N5785	N	0.445082	0.555006	0.953110
	N5786	N	0.429916	0.570002	0.547413
	N5787	N	0.492454	0.507543	0.547987
	N5788	N	0.429923	0.570034	0.953357
	N5789	N	0.492384	0.507509	0.952216
	N5790	N	0.382595	0.617512	0.548183
	N5791	N	0.444946	0.554849	0.548170
	N5792	N	0.429861	0.555018	0.703376
	N5793	N	0.492495	0.617433	0.703433
	N5794	N	0.382458	0.507610	0.798052
	N5795	N	0.444923	0.570156	0.797882
	N5796	N	0.382498	0.507587	0.703228
	N5797	N	0.445021	0.570017	0.703040
	N5798	N	0.430019	0.554872	0.798179
	N5799	N	0.492501	0.617404	0.798237
	H5800	H	0.389690	0.735355	0.350695
	H5801	H	0.452231	0.672901	0.351670
	H5802	H	0.422703	0.702115	0.149579
	H5803	H	0.485436	0.639767	0.149438
	H5804	H	0.422732	0.702149	0.351886
	H5805	H	0.485409	0.639774	0.350919
	H5806	H	0.389914	0.735548	0.149322
	H5807	H	0.452252	0.672843	0.148242
	H5808	H	0.422853	0.672733	0.101054
	H5809	H	0.485391	0.735302	0.101280
	H5810	H	0.389651	0.639478	0.400659
	H5811	H	0.451856	0.702432	0.398381
	H5812	H	0.389610	0.639688	0.102678
	H5813	H	0.452315	0.702049	0.101294
	H5814	H	0.422901	0.672735	0.399197
	H5815	H	0.485287	0.735402	0.398369
	H5816	H	0.400655	0.724770	0.450450
	H5817	H	0.462583	0.661597	0.581173
	H5818	H	0.411831	0.712810	0.061746
	H5819	H	0.475281	0.651238	-0.017096
	H5820	H	0.412246	0.713272	0.450265
	H5821	H	0.474049	0.650034	0.580825
	H5822	H	0.400469	0.724457	0.061413
	H5823	H	0.463747	0.662760	-0.017560
	H5824	H	0.411135	0.662806	0.267543
	H5825	H	0.474887	0.724144	0.209386
	H5826	H	0.401227	0.649614	0.234059
	H5827	H	0.462605	0.713317	0.290733
	H5828	H	0.399566	0.651355	0.268529
	H5829	H	0.463263	0.712686	0.209750
	H5830	H	0.412745	0.661160	0.233115
	H5831	H	0.474078	0.724853	0.290279
	Co5832	Co	0.500059	0.750006	0.124942
	Co5833	Co	0.437534	0.687430	0.124875
	Co5834	Co	0.374971	0.624900	0.375906
	Co5835	Co	0.437506	0.687534	0.375281
	C5836	C	0.388572	0.736479	0.423704
	C5837	C	0.451077	0.674011	0.424053
	C5838	C	0.423884	0.700972	0.076872
	C5839	C	0.486495	0.638618	0.076516
	C5840	C	0.423909	0.701093	0.424422
	C5841	C	0.486499	0.638608	0.424129
	C5842	C	0.388747	0.736565	0.076578
	C5843	C	0.451111	0.673922	0.075766
	C5844	C	0.423950	0.673938	0.173889
	C5845	C	0.486485	0.736424	0.173803
	C5846	C	0.388518	0.638511	0.327554
	C5847	C	0.450924	0.701180	0.325854
	C5848	C	0.388499	0.638605	0.175345
	C5849	C	0.451152	0.700971	0.173744
	C5850	C	0.423964	0.673936	0.326509
	C5851	C	0.486429	0.736487	0.325832
	C5852	C	0.392634	0.732390	0.499925
	C5853	C	0.455170	0.669857	-0.000273
	C5854	C	0.419896	0.705236	0.500579
	C5855	C	0.482403	0.642623	0.000248
	C5856	C	0.419803	0.669876	0.250219
	C5857	C	0.482334	0.732392	0.249747
	C5858	C	0.392564	0.642681	0.251612
	C5859	C	0.455142	0.705134	0.249776
	C5860	C	0.399505	0.725488	0.500339
	C5861	C	0.462064	0.662944	0.000510
	C5862	C	0.412980	0.712099	0.500972
	C5863	C	0.475506	0.649524	0.000527
	C5864	C	0.412954	0.662943	0.250469
	C5865	C	0.475427	0.725512	0.249593
	C5866	C	0.399514	0.649529	0.251605
	C5867	C	0.462002	0.712051	0.249768
	C5868	C	0.403093	0.722175	0.472327
	C5869	C	0.465270	0.659292	0.545687
	C5870	C	0.409458	0.715369	0.035072
	C5871	C	0.472434	0.653417	-0.009357
	C5872	C	0.409620	0.715647	0.472364
	C5873	C	0.471784	0.652744	0.545556
	C5874	C	0.402973	0.721936	0.034988
	C5875	C	0.465916	0.659922	-0.009298
	C5876	C	0.409044	0.659958	0.260452
	C5877	C	0.472173	0.721847	0.226961
	C5878	C	0.403421	0.652530	0.241707
	C5879	C	0.465256	0.715708	0.272818
	C5880	C	0.402510	0.653442	0.260851
	C5881	C	0.465654	0.715308	0.226937
	C5882	C	0.409959	0.659055	0.241140
	C5883	C	0.471779	0.722229	0.272451
	N5884	N	0.382552	0.742481	0.452557
	N5885	N	0.445047	0.679985	0.452869
	N5886	N	0.429899	0.694941	0.048012
	N5887	N	0.492496	0.632575	0.047800
	N5888	N	0.429946	0.695111	0.452980
	N5889	N	0.492461	0.632573	0.452767
	N5890	N	0.382703	0.742525	0.047741
	N5891	N	0.445052	0.679892	0.046946
	N5892	N	0.429956	0.679941	0.202671
	N5893	N	0.492490	0.742434	0.202364
	N5894	N	0.382486	0.632534	0.298497
	N5895	N	0.444993	0.695101	0.297042
	N5896	N	0.382495	0.632574	0.204105
	N5897	N	0.445124	0.694974	0.202330
	N5898	N	0.429974	0.679927	0.297607
	N5899	N	0.492489	0.742451	0.297148
	H5900	H	0.389668	0.735133	0.851783
	H5901	H	0.452128	0.672761	0.851391
	H5902	H	0.422915	0.702293	0.649335
	H5903	H	0.485202	0.639561	0.649333
	H5904	H	0.422794	0.702083	0.851280
	H5905	H	0.485331	0.639654	0.851214
	H5906	H	0.389566	0.735254	0.649105
	H5907	H	0.452218	0.672808	0.649096
	H5908	H	0.422889	0.672805	0.601198
	H5909	H	0.485353	0.735235	0.601434
	H5910	H	0.389551	0.639732	0.899766
	H5911	H	0.452199	0.702018	0.899881
	H5912	H	0.389580	0.639753	0.601588
	H5913	H	0.452068	0.702249	0.602478
	H5914	H	0.422738	0.672876	0.898722
	H5915	H	0.485310	0.735335	0.899432
	H5916	H	0.400730	0.724616	0.940130
	H5917	H	0.462226	0.661177	1.018209
	H5918	H	0.411869	0.712896	0.552096
	H5919	H	0.474904	0.650960	0.419414
	H5920	H	0.412198	0.713083	0.940307
	H5921	H	0.473837	0.649722	1.018427
	H5922	H	0.400302	0.724385	0.550828
	H5923	H	0.463402	0.662509	0.419275
	H5924	H	0.412117	0.662039	0.750561
	H5925	H	0.475103	0.723794	0.691056
	H5926	H	0.400406	0.650421	0.748789
	H5927	H	0.462356	0.713604	0.810667
	H5928	H	0.400487	0.650511	0.750612
	H5929	H	0.463547	0.712306	0.691303
	H5930	H	0.412047	0.661890	0.749077
	H5931	H	0.473899	0.725103	0.810860
	Co5932	Co	0.500062	0.749949	0.625223
	Co5933	Co	0.437514	0.687553	0.625228
	Co5934	Co	0.375005	0.625033	0.875955
	Co5935	Co	0.437479	0.687421	0.874981
	C5936	C	0.388604	0.736353	0.924362
	C5937	C	0.451063	0.673887	0.923725
	C5938	C	0.424009	0.701154	0.576682
	C5939	C	0.486400	0.638509	0.576505
	C5940	C	0.423925	0.700957	0.924169
	C5941	C	0.486443	0.638559	0.923962
	C5942	C	0.388506	0.736419	0.576100
	C5943	C	0.451076	0.673965	0.576249
	C5944	C	0.423984	0.673909	0.673862
	C5945	C	0.486485	0.736372	0.674214
	C5946	C	0.388505	0.638612	0.826809
	C5947	C	0.451058	0.701010	0.826982
	C5948	C	0.388514	0.638613	0.674547
	C5949	C	0.450997	0.701128	0.674969
	C5950	C	0.423917	0.673937	0.826057
	C5951	C	0.486473	0.736422	0.826626
	C5952	C	0.392760	0.732377	1.000683
	C5953	C	0.455169	0.669895	0.500052
	C5954	C	0.419869	0.705067	1.000556
	C5955	C	0.482340	0.642678	0.500435
	C5956	C	0.419903	0.669799	0.749958
	C5957	C	0.482367	0.732324	0.750485
	C5958	C	0.392615	0.642660	0.750590
	C5959	C	0.455110	0.705161	0.751233
	C5960	C	0.399602	0.725445	1.000902
	C5961	C	0.462062	0.663021	0.500277
	C5962	C	0.412975	0.711963	1.000996
	C5963	C	0.475444	0.649553	0.500350
	C5964	C	0.412998	0.662891	0.749828
	C5965	C	0.475478	0.725444	0.750479
	C5966	C	0.399527	0.649547	0.750173
	C5967	C	0.462013	0.712014	0.751144
	C5968	C	0.403141	0.722068	0.966707
	C5969	C	0.465110	0.659062	1.010596
	C5970	C	0.409423	0.715449	0.529552
	C5971	C	0.472239	0.653241	0.455048
	C5972	C	0.409632	0.715510	0.966831
	C5973	C	0.471626	0.652539	1.010505
	C5974	C	0.402874	0.721946	0.529000
	C5975	C	0.465739	0.659808	0.454844
	C5976	C	0.409559	0.659505	0.750345
	C5977	C	0.472355	0.721620	0.717367
	C5978	C	0.402965	0.652954	0.749285
	C5979	C	0.465157	0.715817	0.784521
	C5980	C	0.403012	0.653008	0.750547
	C5981	C	0.465811	0.715103	0.717470
	C5982	C	0.409516	0.659440	0.749412
	C5983	C	0.471697	0.722347	0.784123
	N5984	N	0.382627	0.742404	0.953021
	N5985	N	0.445018	0.679858	0.952397
	N5986	N	0.429994	0.695135	0.547786
	N5987	N	0.492414	0.632514	0.547534
	N5988	N	0.429910	0.694945	0.952823
	N5989	N	0.492462	0.632538	0.952797
	N5990	N	0.382512	0.742450	0.547475
	N5991	N	0.445044	0.679953	0.547662
	N5992	N	0.429970	0.679936	0.702475
	N5993	N	0.492513	0.742341	0.702711
	N5994	N	0.382507	0.632584	0.798138
	N5995	N	0.445023	0.695036	0.797858
	N5996	N	0.382512	0.632586	0.703406
	N5997	N	0.445003	0.695108	0.703460
	N5998	N	0.429915	0.679964	0.797162
	N5999	N	0.492503	0.742372	0.797651
	H6000	H	0.389643	0.860348	0.352177
	H6001	H	0.452536	0.798022	0.352148
	H6002	H	0.423165	0.827376	0.150038
	H6003	H	0.485275	0.764564	0.148663
	H6004	H	0.423026	0.827277	0.352180
	H6005	H	0.485424	0.764599	0.351868
	H6006	H	0.389724	0.860310	0.149500
	H6007	H	0.452142	0.797829	0.149967
	H6008	H	0.422979	0.797735	0.102506
	H6009	H	0.485235	0.860394	0.102161
	H6010	H	0.389636	0.764609	0.399793
	H6011	H	0.452150	0.827104	0.399415
	H6012	H	0.389594	0.764830	0.102007
	H6013	H	0.452306	0.827093	0.101834
	H6014	H	0.422776	0.797826	0.399916
	H6015	H	0.485290	0.860297	0.399401
	H6016	H	0.401665	0.850693	0.554129
	H6017	H	0.462472	0.786373	0.472028
	H6018	H	0.412572	0.838421	-0.045815
	H6019	H	0.474762	0.775763	0.010701
	H6020	H	0.413197	0.839166	0.554669
	H6021	H	0.474045	0.774924	0.471718
	H6022	H	0.400945	0.849865	-0.046977
	H6023	H	0.463230	0.787297	0.011108
	H6024	H	0.411615	0.787443	0.267763
	H6025	H	0.474414	0.849618	0.278718
	H6026	H	0.400897	0.775091	0.232007
	H6027	H	0.463051	0.837893	0.221881
	H6028	H	0.400100	0.775909	0.268710
	H6029	H	0.462834	0.838101	0.279343
	H6030	H	0.412434	0.786584	0.232824
	H6031	H	0.474591	0.849378	0.220865
	Co6032	Co	0.499968	0.874972	0.125808
	Co6033	Co	0.437505	0.812484	0.126125
	Co6034	Co	0.374946	0.750003	0.375078
	Co6035	Co	0.437541	0.812485	0.375609
	C6036	C	0.388615	0.861448	0.424835
	C6037	C	0.451273	0.799044	0.424691
	C6038	C	0.424127	0.826201	0.077160
	C6039	C	0.486452	0.763525	0.076040
	C6040	C	0.424082	0.826106	0.425050
	C6041	C	0.486497	0.763479	0.424623
	C6042	C	0.388563	0.861444	0.077048
	C6043	C	0.451113	0.798978	0.077262
	C6044	C	0.424070	0.798875	0.174897
	C6045	C	0.486373	0.861464	0.174764
	C6046	C	0.388523	0.763579	0.326830
	C6047	C	0.451041	0.826069	0.326615
	C6048	C	0.388495	0.763682	0.174708
	C6049	C	0.451114	0.826059	0.174492
	C6050	C	0.423956	0.798925	0.327042
	C6051	C	0.486413	0.861441	0.326822
	C6052	C	0.392736	0.857390	0.500744
	C6053	C	0.455238	0.794931	0.001131
	C6054	C	0.419962	0.830170	0.501019
	C6055	C	0.482412	0.767693	0.000203
	C6056	C	0.419930	0.794804	0.250774
	C6057	C	0.482314	0.857375	0.250652
	C6058	C	0.392606	0.767703	0.250840
	C6059	C	0.455144	0.830161	0.250737
	C6060	C	0.399632	0.850480	0.500504
	C6061	C	0.462137	0.788033	0.000658
	C6062	C	0.413061	0.837051	0.500820
	C6063	C	0.475524	0.774604	0.000402
	C6064	C	0.412990	0.787960	0.250488
	C6065	C	0.475419	0.850480	0.250167
	C6066	C	0.399531	0.774545	0.250556
	C6067	C	0.461997	0.837078	0.250844
	C6068	C	0.403694	0.847677	0.530767
	C6069	C	0.465247	0.784161	0.484775
	C6070	C	0.409805	0.840750	-0.025282
	C6071	C	0.472198	0.778163	0.006462
	C6072	C	0.410197	0.841136	0.530904
	C6073	C	0.471789	0.777657	0.484472
	C6074	C	0.403225	0.847226	-0.025752
	C6075	C	0.465674	0.784682	0.006681
	C6076	C	0.409317	0.784740	0.260432
	C6077	C	0.471938	0.847070	0.266348
	C6078	C	0.403224	0.777779	0.240386
	C6079	C	0.465504	0.840445	0.234416
	C6080	C	0.402770	0.778233	0.260638
	C6081	C	0.465391	0.840568	0.266778
	C6082	C	0.409763	0.784283	0.240453
	C6083	C	0.472028	0.846960	0.233976
	N6084	N	0.382594	0.867465	0.453634
	N6085	N	0.445233	0.805036	0.453202
	N6086	N	0.430050	0.820098	0.048397
	N6087	N	0.492482	0.757540	0.047246
	N6088	N	0.430059	0.820055	0.453452
	N6089	N	0.492494	0.757477	0.453156
	N6090	N	0.382535	0.867431	0.048499
	N6091	N	0.445114	0.804975	0.048522
	N6092	N	0.430018	0.804915	0.204054
	N6093	N	0.492419	0.867432	0.203407
	N6094	N	0.382519	0.757591	0.297953
	N6095	N	0.445049	0.820072	0.297758
	N6096	N	0.382516	0.757642	0.203310
	N6097	N	0.445067	0.820084	0.203156
	N6098	N	0.429962	0.804942	0.298663
	N6099	N	0.492449	0.867426	0.298214
	H6100	H	0.389531	0.860152	0.852111
	H6101	H	0.452290	0.797944	0.852199
	H6102	H	0.422818	0.827137	0.649577
	H6103	H	0.485481	0.764700	0.649401
	H6104	H	0.422821	0.827017	0.852269
	H6105	H	0.485457	0.764838	0.851408
	H6106	H	0.389717	0.860367	0.649437
	H6107	H	0.452085	0.797610	0.649578
	H6108	H	0.422741	0.797879	0.602835
	H6109	H	0.485559	0.860177	0.602171
	H6110	H	0.389873	0.764395	0.899389
	H6111	H	0.452266	0.827254	0.898171
	H6112	H	0.389547	0.764791	0.602040
	H6113	H	0.452041	0.827364	0.601070
	H6114	H	0.422965	0.797780	0.900176
	H6115	H	0.485164	0.860403	0.898456
	H6116	H	0.400068	0.849036	1.048006
	H6117	H	0.462870	0.786891	0.990559
	H6118	H	0.411001	0.836863	0.447398
	H6119	H	0.475135	0.776019	0.529509
	H6120	H	0.411693	0.837577	1.048549
	H6121	H	0.474361	0.775332	0.990236
	H6122	H	0.399495	0.848381	0.446577
	H6123	H	0.463664	0.787546	0.529548
	H6124	H	0.411739	0.787286	0.688564
	H6125	H	0.474551	0.849539	0.673931
	H6126	H	0.400843	0.775139	0.815791
	H6127	H	0.462964	0.838044	0.825546
	H6128	H	0.400223	0.775723	0.688058
	H6129	H	0.463040	0.838011	0.673444
	H6130	H	0.412346	0.786730	0.815473
	H6131	H	0.474432	0.849575	0.825188
	Co6132	Co	0.500008	0.875006	0.625544
	Co6133	Co	0.437532	0.812445	0.625671
	Co6134	Co	0.375066	0.749931	0.875287
	Co6135	Co	0.437563	0.812529	0.875723
	C6136	C	0.388482	0.861360	0.924608
	C6137	C	0.451167	0.799030	0.925161
	C6138	C	0.424002	0.826042	0.577070
	C6139	C	0.486532	0.763542	0.576503
	C6140	C	0.423963	0.826018	0.925158
	C6141	C	0.486524	0.763668	0.924206
	C6142	C	0.388634	0.861468	0.576810
	C6143	C	0.451059	0.798834	0.576758
	C6144	C	0.423940	0.798939	0.675380
	C6145	C	0.486570	0.861377	0.674385
	C6146	C	0.388694	0.763423	0.826595
	C6147	C	0.451102	0.826079	0.825492
	C6148	C	0.388518	0.763645	0.674531
	C6149	C	0.450969	0.826113	0.673633
	C6150	C	0.424052	0.798883	0.827501
	C6151	C	0.486393	0.861478	0.826292
	C6152	C	0.392622	0.857314	1.000765
	C6153	C	0.455228	0.794852	0.500819
	C6154	C	0.419964	0.830213	1.001093
	C6155	C	0.482396	0.767574	0.500700
	C6156	C	0.419940	0.794794	0.751719
	C6157	C	0.482354	0.857336	0.750146
	C6158	C	0.392700	0.767621	0.750819
	C6159	C	0.455158	0.830183	0.749399
	C6160	C	0.399518	0.850427	1.000621
	C6161	C	0.462115	0.787940	0.500951
	C6162	C	0.413055	0.837082	1.001118
	C6163	C	0.475558	0.774522	0.500715
	C6164	C	0.413025	0.787921	0.751932
	C6165	C	0.475456	0.850473	0.749513
	C6166	C	0.399592	0.774510	0.751312
	C6167	C	0.462038	0.837070	0.749127
	C6168	C	0.402758	0.846764	1.027289
	C6169	C	0.465466	0.784477	0.994826
	C6170	C	0.409006	0.839865	0.470515
	C6171	C	0.472439	0.778284	0.516773
	C6172	C	0.409328	0.840277	1.027514
	C6173	C	0.471975	0.777938	0.994582
	C6174	C	0.402489	0.846382	0.470248
	C6175	C	0.465889	0.784783	0.517115
	C6176	C	0.409386	0.784652	0.716129
	C6177	C	0.472045	0.847033	0.707070
	C6178	C	0.403204	0.777791	0.787283
	C6179	C	0.465452	0.840518	0.791787
	C6180	C	0.402874	0.778122	0.716189
	C6181	C	0.465514	0.840506	0.706787
	C6182	C	0.409719	0.784322	0.787526
	C6183	C	0.471967	0.847050	0.791986
	N6184	N	0.382488	0.867376	0.953355
	N6185	N	0.445148	0.805024	0.953873
	N6186	N	0.429996	0.820003	0.548224
	N6187	N	0.492539	0.757521	0.547830
	N6188	N	0.429952	0.819985	0.953807
	N6189	N	0.492540	0.757635	0.952556
	N6190	N	0.382628	0.867474	0.548332
	N6191	N	0.445096	0.804895	0.548202
	N6192	N	0.429963	0.804956	0.703735
	N6193	N	0.492531	0.867408	0.703396
	N6194	N	0.382606	0.757492	0.797565
	N6195	N	0.445102	0.820053	0.797324
	N6196	N	0.382513	0.757616	0.703019
	N6197	N	0.445031	0.820065	0.702731
	N6198	N	0.430014	0.804930	0.798561
	N6199	N	0.492416	0.867473	0.798001
	H6200	H	0.389636	0.985305	0.353204
	H6201	H	0.452209	0.922827	0.351809
	H6202	H	0.422840	0.952256	0.148149
	H6203	H	0.485387	0.889645	0.149258
	H6204	H	0.423016	0.952338	0.352567
	H6205	H	0.485342	0.889655	0.351503
	H6206	H	0.389776	0.985369	0.148770
	H6207	H	0.452286	0.922890	0.149877
	H6208	H	0.422742	0.922963	0.102343
	H6209	H	0.485497	0.985179	0.101429
	H6210	H	0.389527	0.889768	0.399845
	H6211	H	0.452331	0.952009	0.398619
	H6212	H	0.389933	0.889552	0.102520
	H6213	H	0.452105	0.952364	0.102389
	H6214	H	0.422978	0.922797	0.399623
	H6215	H	0.485257	0.985343	0.398822
	H6216	H	0.399986	0.974029	0.585350
	H6217	H	0.463132	0.912095	0.463467
	H6218	H	0.412168	0.963140	-0.123368
	H6219	H	0.474767	0.900701	0.058727
	H6220	H	0.411573	0.962556	0.585306
	H6221	H	0.474715	0.900633	0.463976
	H6222	H	0.400667	0.974680	-0.123324
	H6223	H	0.463211	0.912191	0.058227
	H6224	H	0.411489	0.912600	0.235392
	H6225	H	0.474209	0.974794	0.237472
	H6226	H	0.401047	0.899976	0.267786
	H6227	H	0.463287	0.962679	0.263225
	H6228	H	0.399946	0.901100	0.234973
	H6229	H	0.462691	0.963257	0.237847
	H6230	H	0.412511	0.911533	0.267427
	H6231	H	0.474836	0.974184	0.262161
	Co6232	Co	0.500024	0.999996	0.125342
	Co6233	Co	0.437492	0.937536	0.125594
	Co6234	Co	0.375031	0.875004	0.376524
	Co6235	Co	0.437525	0.937512	0.375262
	C6236	C	0.388536	0.986409	0.425473
	C6237	C	0.451065	0.923939	0.424412
	C6238	C	0.423972	0.951101	0.075823
	C6239	C	0.486473	0.888574	0.077076
	C6240	C	0.424007	0.951121	0.424844
	C6241	C	0.486451	0.888599	0.424595
	C6242	C	0.388653	0.986488	0.076317
	C6243	C	0.451094	0.923988	0.077534
	C6244	C	0.423905	0.923978	0.174584
	C6245	C	0.486517	0.986378	0.174183
	C6246	C	0.388516	0.888607	0.327063
	C6247	C	0.451129	0.950987	0.326376
	C6248	C	0.388722	0.888476	0.175108
	C6249	C	0.451029	0.951151	0.174521
	C6250	C	0.424002	0.923917	0.326780
	C6251	C	0.486397	0.986452	0.326536
	C6252	C	0.392614	0.982325	0.501533
	C6253	C	0.455143	0.919885	0.001567
	C6254	C	0.419849	0.955126	0.500982
	C6255	C	0.482409	0.892716	0.001213
	C6256	C	0.419851	0.919852	0.250843
	C6257	C	0.482345	0.982353	0.250114
	C6258	C	0.392707	0.892633	0.251278
	C6259	C	0.455159	0.955126	0.250540
	C6260	C	0.399517	0.975452	0.501614
	C6261	C	0.462037	0.912998	0.001286
	C6262	C	0.412979	0.962029	0.501528
	C6263	C	0.475512	0.899590	0.001427
	C6264	C	0.412928	0.913007	0.251124
	C6265	C	0.475470	0.975452	0.250029
	C6266	C	0.399549	0.899539	0.251369
	C6267	C	0.462032	0.962020	0.250625
	C6268	C	0.402734	0.971763	0.548533
	C6269	C	0.465547	0.909565	0.479756
	C6270	C	0.409606	0.965559	-0.069324
	C6271	C	0.472163	0.903136	0.033296
	C6272	C	0.409262	0.965234	0.548459
	C6273	C	0.472116	0.903084	0.480016
	C6274	C	0.403076	0.972088	-0.069379
	C6275	C	0.465629	0.909649	0.033096
	C6276	C	0.409200	0.909845	0.241925
	C6277	C	0.471844	0.972177	0.243050
	C6278	C	0.403271	0.902723	0.260618
	C6279	C	0.465654	0.965321	0.257646
	C6280	C	0.402681	0.903304	0.242094
	C6281	C	0.465307	0.965660	0.243265
	C6282	C	0.409779	0.909266	0.260381
	C6283	C	0.472202	0.971825	0.257338
	N6284	N	0.382508	0.992409	0.453917
	N6285	N	0.445045	0.929924	0.453070
	N6286	N	0.429959	0.945059	0.047382
	N6287	N	0.492446	0.882545	0.047968
	N6288	N	0.429974	0.945045	0.453115
	N6289	N	0.492414	0.882535	0.453066
	N6290	N	0.382636	0.992487	0.047774
	N6291	N	0.445074	0.929983	0.048826
	N6292	N	0.429910	0.929977	0.203207
	N6293	N	0.492488	0.992401	0.202988
	N6294	N	0.382587	0.882537	0.298309
	N6295	N	0.445065	0.945031	0.297617
	N6296	N	0.382692	0.882485	0.203570
	N6297	N	0.445010	0.945125	0.202996
	N6298	N	0.429967	0.929942	0.297800
	N6299	N	0.492417	0.992434	0.297868
	H6300	H	0.389480	0.985116	0.852085
	H6301	H	0.452116	0.922704	0.852958
	H6302	H	0.422697	0.951999	0.649122
	H6303	H	0.485468	0.889683	0.650134
	H6304	H	0.422797	0.952133	0.851167
	H6305	H	0.485391	0.889816	0.852715
	H6306	H	0.389648	0.985374	0.649624
	H6307	H	0.452038	0.922706	0.649129
	H6308	H	0.422687	0.922839	0.602379
	H6309	H	0.485251	0.985392	0.602326
	H6310	H	0.389464	0.889828	0.900245
	H6311	H	0.452094	0.952212	0.899427
	H6312	H	0.389695	0.889636	0.602911
	H6313	H	0.452158	0.952177	0.602547
	H6314	H	0.423039	0.922709	0.900853
	H6315	H	0.485408	0.985341	0.899654
	H6316	H	0.400430	0.974386	1.122804
	H6317	H	0.462786	0.911860	0.944465
	H6318	H	0.412400	0.963399	0.417895
	H6319	H	0.474445	0.900414	0.538114
	H6320	H	0.411944	0.962851	1.122280
	H6321	H	0.474337	0.900403	0.944946
	H6322	H	0.400937	0.974958	0.418132
	H6323	H	0.462840	0.911866	0.538521
	H6324	H	0.412533	0.911501	0.862185
	H6325	H	0.474343	0.974706	0.817278
	H6326	H	0.400018	0.900995	0.641052
	H6327	H	0.463132	0.962835	0.685597
	H6328	H	0.400905	0.900072	0.862074
	H6329	H	0.462834	0.963232	0.817521
	H6330	H	0.411510	0.912535	0.641546
	H6331	H	0.474648	0.974318	0.685048
	Co6332	Co	0.499966	0.999975	0.625275
	Co6333	Co	0.437539	0.937526	0.625748
	Co6334	Co	0.375023	0.875003	0.876340
	Co6335	Co	0.437555	0.937487	0.876110
	C6336	C	0.388496	0.986355	0.924552
	C6337	C	0.451023	0.923909	0.925566
	C6338	C	0.423858	0.950942	0.576551
	C6339	C	0.486513	0.888613	0.576863
	C6340	C	0.423953	0.951045	0.923849
	C6341	C	0.486469	0.888644	0.924949
	C6342	C	0.388516	0.986424	0.577334
	C6343	C	0.450986	0.923862	0.576457
	C6344	C	0.423931	0.923946	0.675427
	C6345	C	0.486439	0.986469	0.674717
	C6346	C	0.388464	0.888709	0.827649
	C6347	C	0.451017	0.951107	0.826902
	C6348	C	0.388583	0.888616	0.675582
	C6349	C	0.451034	0.951077	0.674936
	C6350	C	0.424100	0.923859	0.827558
	C6351	C	0.486528	0.986431	0.826658
	C6352	C	0.392712	0.982355	1.000239
	C6353	C	0.455137	0.919816	0.500369
	C6354	C	0.419896	0.955176	0.999796
	C6355	C	0.482436	0.892729	0.500798
	C6356	C	0.419923	0.919820	0.751653
	C6357	C	0.482390	0.982333	0.750962
	C6358	C	0.392620	0.892757	0.751642
	C6359	C	0.455121	0.955203	0.750903
	C6360	C	0.399591	0.975455	0.999692
	C6361	C	0.462015	0.912937	0.500555
	C6362	C	0.412978	0.962027	0.999495
	C6363	C	0.475523	0.899571	0.500879
	C6364	C	0.413017	0.912946	0.752130
	C6365	C	0.475485	0.975468	0.751397
	C6366	C	0.399543	0.899599	0.751793
	C6367	C	0.462013	0.962077	0.751155
	C6368	C	0.402954	0.971935	1.068368
	C6369	C	0.465393	0.909451	0.969619
	C6370	C	0.409756	0.965730	0.454703
	C6371	C	0.471972	0.902935	0.521747
	C6372	C	0.409481	0.965405	1.068377
	C6373	C	0.471930	0.902941	0.969900
	C6374	C	0.403220	0.972245	0.454865
	C6375	C	0.465404	0.909433	0.521646
	C6376	C	0.409811	0.909259	0.813795
	C6377	C	0.471931	0.972153	0.788190
	C6378	C	0.402730	0.903314	0.689916
	C6379	C	0.465555	0.965418	0.714110
	C6380	C	0.403274	0.902753	0.813789
	C6381	C	0.465391	0.965633	0.788324
	C6382	C	0.409282	0.909804	0.690005
	C6383	C	0.472095	0.971931	0.714321
	N6384	N	0.382554	0.992414	0.953386
	N6385	N	0.445011	0.929914	0.954123
	N6386	N	0.429880	0.944942	0.547677
	N6387	N	0.492436	0.882533	0.547969
	N6388	N	0.429946	0.945019	0.952768
	N6389	N	0.492452	0.882592	0.953376
	N6390	N	0.382502	0.992417	0.548584
	N6391	N	0.445006	0.929886	0.547828
	N6392	N	0.429995	0.929917	0.703672
	N6393	N	0.492473	0.992438	0.703245
	N6394	N	0.382493	0.882665	0.798793
	N6395	N	0.445030	0.945082	0.798181
	N6396	N	0.382589	0.882594	0.704204
	N6397	N	0.445049	0.945049	0.703742
	N6398	N	0.430089	0.929855	0.798527
	N6399	N	0.492546	0.992408	0.797681
	H6400	H	0.514847	0.110424	0.352266
	H6401	H	0.577200	0.047767	0.351586
	H6402	H	0.547652	0.076941	0.149785
	H6403	H	0.610339	0.014672	0.148280
	H6404	H	0.547774	0.077032	0.351642
	H6405	H	0.610341	0.014558	0.351573
	H6406	H	0.514649	0.110257	0.149100
	H6407	H	0.577478	0.048016	0.147914
	H6408	H	0.547864	0.047783	0.101679
	H6409	H	0.610146	0.110528	0.102187
	H6410	H	0.514572	0.014776	0.398657
	H6411	H	0.577367	0.077011	0.398918
	H6412	H	0.514935	0.014443	0.101705
	H6413	H	0.577097	0.077311	0.101222
	H6414	H	0.547981	0.047760	0.399210
	H6415	H	0.610402	0.110404	0.398790
	H6416	H	0.525360	0.099339	0.554773
	H6417	H	0.587946	0.036823	0.471992
	H6418	H	0.536444	0.087437	0.026135
	H6419	H	0.599384	0.025306	-0.032707
	H6420	H	0.536874	0.087796	0.554732
	H6421	H	0.599553	0.025378	0.472362
	H6422	H	0.524931	0.098973	0.026106
	H6423	H	0.587878	0.036812	-0.032376
	H6424	H	0.537840	0.036219	0.246508
	H6425	H	0.599839	0.099316	0.218752
	H6426	H	0.524688	0.026343	0.254596
	H6427	H	0.587693	0.088247	0.282471
	H6428	H	0.526278	0.024720	0.246246
	H6429	H	0.588355	0.087692	0.217968
	H6430	H	0.536236	0.037833	0.254941
	H6431	H	0.599208	0.099835	0.282422
	Co6432	Co	0.624963	0.125075	0.125310
	Co6433	Co	0.562580	0.062448	0.125098
	Co6434	Co	0.500003	-0.000006	0.374888
	Co6435	Co	0.562545	0.062472	0.375118
	C6436	C	0.513675	0.111493	0.424269
	C6437	C	0.576074	0.048867	0.424050
	C6438	C	0.548877	0.075925	0.076780
	C6439	C	0.611499	0.013529	0.075820
	C6440	C	0.548939	0.076005	0.424466
	C6441	C	0.611441	0.013489	0.424440
	C6442	C	0.513590	0.111412	0.076349
	C6443	C	0.576221	0.048998	0.075640
	C6444	C	0.548986	0.048929	0.174317
	C6445	C	0.611333	0.111577	0.174476
	C6446	C	0.513537	0.013584	0.326064
	C6447	C	0.576200	0.075968	0.326268
	C6448	C	0.513712	0.013425	0.173913
	C6449	C	0.576077	0.076101	0.174019
	C6450	C	0.549027	0.048920	0.326416
	C6451	C	0.611451	0.111516	0.326231
	C6452	C	0.517728	0.107362	0.500545
	C6453	C	0.580205	0.044802	-0.000576
	C6454	C	0.544924	0.080175	0.500465
	C6455	C	0.607449	0.017663	-0.000317
	C6456	C	0.544877	0.044875	0.250564
	C6457	C	0.607324	0.107444	0.250437
	C6458	C	0.517712	0.017612	0.250189
	C6459	C	0.580211	0.080112	0.250156
	C6460	C	0.524595	0.100451	0.500950
	C6461	C	0.587141	0.037996	-0.000733
	C6462	C	0.537992	0.087020	0.500683
	C6463	C	0.600602	0.024563	-0.000321
	C6464	C	0.538010	0.037971	0.250646
	C6465	C	0.600460	0.100509	0.250548
	C6466	C	0.524566	0.024536	0.250408
	C6467	C	0.587076	0.087031	0.250432
	C6468	C	0.527919	0.096913	0.531176
	C6469	C	0.590474	0.034389	0.484250
	C6470	C	0.534254	0.090195	0.014901
	C6471	C	0.597009	0.027908	-0.018388
	C6472	C	0.534421	0.090360	0.531121
	C6473	C	0.597018	0.027882	0.484480
	C6474	C	0.527751	0.096748	0.014919
	C6475	C	0.590483	0.034443	-0.018367
	C6476	C	0.534981	0.034060	0.248361
	C6477	C	0.597202	0.096904	0.232608
	C6478	C	0.527565	0.028446	0.252920
	C6479	C	0.590330	0.090667	0.268695
	C6480	C	0.528433	0.027550	0.248164
	C6481	C	0.590692	0.090361	0.232331
	C6482	C	0.534120	0.034951	0.253102
	C6483	C	0.596843	0.097200	0.268593
	N6484	N	0.507659	0.117485	0.452846
	N6485	N	0.570090	0.054883	0.452865
	N6486	N	0.554890	0.069948	0.048054
	N6487	N	0.617491	0.007510	0.047331
	N6488	N	0.554981	0.070011	0.452888
	N6489	N	0.617495	0.007503	0.452908
	N6490	N	0.507562	0.117416	0.047568
	N6491	N	0.570148	0.054933	0.047044
	N6492	N	0.555024	0.054905	0.202758
	N6493	N	0.617366	0.117562	0.203030
	N6494	N	0.507545	0.007558	0.297166
	N6495	N	0.570150	0.069974	0.297519
	N6496	N	0.507669	0.007463	0.202508
	N6497	N	0.570077	0.070058	0.202613
	N6498	N	0.555043	0.054902	0.297598
	N6499	N	0.617441	0.117519	0.297601
	H6500	H	0.514856	0.110468	0.851560
	H6501	H	0.576989	0.047528	0.850905
	H6502	H	0.547996	0.077196	0.649332
	H6503	H	0.610470	0.014595	0.649319
	H6504	H	0.548014	0.077326	0.851411
	H6505	H	0.610502	0.014687	0.851238
	H6506	H	0.514472	0.110240	0.648576
	H6507	H	0.577199	0.047694	0.649447
	H6508	H	0.547848	0.047899	0.600953
	H6509	H	0.610441	0.110180	0.601679
	H6510	H	0.514622	0.014766	0.898934
	H6511	H	0.577122	0.077160	0.899590
	H6512	H	0.514699	0.014606	0.600425
	H6513	H	0.577168	0.077235	0.601751
	H6514	H	0.547767	0.047841	0.898210
	H6515	H	0.610331	0.110289	0.899816
	H6516	H	0.526203	0.100218	0.974701
	H6517	H	0.588382	0.037262	1.031439
	H6518	H	0.537215	0.088111	0.445804
	H6519	H	0.599546	0.025367	0.528830
	H6520	H	0.537732	0.088656	0.974614
	H6521	H	0.599821	0.025718	1.031500
	H6522	H	0.525742	0.099683	0.446170
	H6523	H	0.588004	0.036880	0.528781
	H6524	H	0.536971	0.037027	0.718013
	H6525	H	0.599360	0.099694	0.840222
	H6526	H	0.525506	0.025502	0.780835
	H6527	H	0.588138	0.087836	0.661813
	H6528	H	0.525557	0.025340	0.718223
	H6529	H	0.587792	0.088196	0.840106
	H6530	H	0.536997	0.037126	0.781742
	H6531	H	0.599748	0.099272	0.661948
	Co6532	Co	0.624995	0.124976	0.625568
	Co6533	Co	0.562567	0.062509	0.625196
	Co6534	Co	0.500054	-0.000026	0.875269
	Co6535	Co	0.562468	0.062453	0.875153
	C6536	C	0.513699	0.111515	0.924313
	C6537	C	0.575964	0.048765	0.923432
	C6538	C	0.549056	0.076114	0.576431
	C6539	C	0.611510	0.013505	0.576444
	C6540	C	0.549023	0.076101	0.924547
	C6541	C	0.611567	0.013556	0.923609
	C6542	C	0.513493	0.111402	0.576365
	C6543	C	0.576070	0.048828	0.576453
	C6544	C	0.548946	0.048989	0.673662
	C6545	C	0.611505	0.111365	0.674662
	C6546	C	0.513566	0.013607	0.825973
	C6547	C	0.576025	0.076062	0.826667
	C6548	C	0.513599	0.013527	0.673526
	C6549	C	0.576060	0.076105	0.674283
	C6550	C	0.548891	0.048955	0.825744
	C6551	C	0.611478	0.111419	0.827324
	C6552	C	0.517772	0.107427	1.000398
	C6553	C	0.580142	0.044721	0.500148
	C6554	C	0.544870	0.080132	1.000672
	C6555	C	0.607367	0.017561	0.500462
	C6556	C	0.544834	0.044899	0.749589
	C6557	C	0.607394	0.107305	0.751180
	C6558	C	0.517692	0.017616	0.749518
	C6559	C	0.580160	0.080173	0.750605
	C6560	C	0.524648	0.100531	1.000612
	C6561	C	0.587038	0.037842	0.500098
	C6562	C	0.538008	0.087059	1.000715
	C6563	C	0.600489	0.024439	0.500390
	C6564	C	0.537932	0.038001	0.749563
	C6565	C	0.600503	0.100444	0.751120
	C6566	C	0.524598	0.024500	0.749150
	C6567	C	0.587029	0.087082	0.750655
	C6568	C	0.528443	0.097416	0.986170
	C6569	C	0.590730	0.034672	1.017074
	C6570	C	0.534633	0.090562	0.470223
	C6571	C	0.597040	0.027889	0.516450
	C6572	C	0.534947	0.090858	0.986301
	C6573	C	0.597265	0.028140	1.017420
	C6574	C	0.528126	0.097108	0.470282
	C6575	C	0.590471	0.034382	0.516211
	C6576	C	0.534510	0.034496	0.731839
	C6577	C	0.596940	0.097111	0.801025
	C6578	C	0.528013	0.027999	0.767083
	C6579	C	0.590596	0.090405	0.700940
	C6580	C	0.528029	0.027939	0.731669
	C6581	C	0.590363	0.090614	0.800775
	C6582	C	0.534494	0.034568	0.767408
	C6583	C	0.597161	0.096900	0.701149
	N6584	N	0.507609	0.117457	0.952712
	N6585	N	0.569981	0.054791	0.952294
	N6586	N	0.555065	0.070090	0.547666
	N6587	N	0.617537	0.007518	0.547580
	N6588	N	0.554967	0.070037	0.953014
	N6589	N	0.617539	0.007544	0.952446
	N6590	N	0.507532	0.117414	0.547349
	N6591	N	0.570096	0.054866	0.547772
	N6592	N	0.554966	0.054979	0.702466
	N6593	N	0.617482	0.117400	0.703332
	N6594	N	0.507534	0.007597	0.797506
	N6595	N	0.570047	0.070058	0.797683
	N6596	N	0.507551	0.007556	0.702558
	N6597	N	0.570072	0.070085	0.702894
	N6598	N	0.554916	0.054971	0.797133
	N6599	N	0.617465	0.117449	0.798329
	H6600	H	0.514731	0.235332	0.351740
	H6601	H	0.577168	0.172823	0.351875
	H6602	H	0.547924	0.202323	0.149387
	H6603	H	0.610117	0.139462	0.148696
	H6604	H	0.548057	0.202321	0.351060
	H6605	H	0.610365	0.139803	0.351682
	H6606	H	0.514712	0.235376	0.149027
	H6607	H	0.577314	0.173038	0.148856
	H6608	H	0.547863	0.172805	0.101105
	H6609	H	0.610467	0.235236	0.101621
	H6610	H	0.514805	0.139532	0.398119
	H6611	H	0.577074	0.202321	0.399768
	H6612	H	0.514514	0.139719	0.100254
	H6613	H	0.577189	0.202305	0.102003
	H6614	H	0.547792	0.172871	0.399027
	H6615	H	0.610346	0.235387	0.398909
	H6616	H	0.525867	0.224803	0.419843
	H6617	H	0.587786	0.161873	0.457410
	H6618	H	0.537842	0.213897	0.060910
	H6619	H	0.600030	0.151041	-0.022791
	H6620	H	0.537457	0.213361	0.418994
	H6621	H	0.599292	0.150328	0.456635
	H6622	H	0.526335	0.225453	0.060728
	H6623	H	0.588578	0.162614	-0.022706
	H6624	H	0.537012	0.162002	0.261613
	H6625	H	0.599567	0.224459	0.217562
	H6626	H	0.525426	0.150524	0.235738
	H6627	H	0.587925	0.213263	0.283997
	H6628	H	0.525518	0.150506	0.261027
	H6629	H	0.587971	0.213026	0.218105
	H6630	H	0.536969	0.162023	0.236856
	H6631	H	0.599533	0.224662	0.283752
	Co6632	Co	0.625052	0.250029	0.124900
	Co6633	Co	0.562550	0.187604	0.125358
	Co6634	Co	0.500047	0.124988	0.375260
	Co6635	Co	0.562527	0.187508	0.375196
	C6636	C	0.513575	0.236406	0.424268
	C6637	C	0.576100	0.173958	0.424518
	C6638	C	0.548990	0.201138	0.076709
	C6639	C	0.611326	0.138511	0.075883
	C6640	C	0.549077	0.201196	0.423859
	C6641	C	0.611494	0.138628	0.424674
	C6642	C	0.513638	0.236510	0.076689
	C6643	C	0.576093	0.174057	0.076295
	C6644	C	0.548973	0.173958	0.173894
	C6645	C	0.611566	0.236410	0.174492
	C6646	C	0.513680	0.138490	0.325443
	C6647	C	0.575972	0.201187	0.327112
	C6648	C	0.513520	0.138581	0.173400
	C6649	C	0.576037	0.201183	0.174735
	C6650	C	0.548937	0.173971	0.326237
	C6651	C	0.611498	0.236511	0.326597
	C6652	C	0.517659	0.232294	0.500142
	C6653	C	0.580099	0.169907	0.000273
	C6654	C	0.544969	0.205265	0.499795
	C6655	C	0.607291	0.142689	0.000150
	C6656	C	0.544844	0.169868	0.249986
	C6657	C	0.607427	0.232385	0.250682
	C6658	C	0.517699	0.142644	0.249026
	C6659	C	0.580109	0.205301	0.251104
	C6660	C	0.524588	0.225436	0.499904
	C6661	C	0.586997	0.163027	0.000479
	C6662	C	0.538063	0.212113	0.499423
	C6663	C	0.600407	0.149588	0.000487
	C6664	C	0.537955	0.162999	0.249461
	C6665	C	0.600531	0.225523	0.250929
	C6666	C	0.524521	0.149572	0.248598
	C6667	C	0.586999	0.212182	0.251250
	C6668	C	0.528222	0.222187	0.454813
	C6669	C	0.590410	0.159441	0.476228
	C6670	C	0.534989	0.215999	0.034240
	C6671	C	0.597280	0.153358	-0.012624
	C6672	C	0.534777	0.215707	0.454424
	C6673	C	0.596914	0.152891	0.476412
	C6674	C	0.528450	0.222522	0.034317
	C6675	C	0.590762	0.159886	-0.012406
	C6676	C	0.534506	0.159540	0.256196
	C6677	C	0.597056	0.222015	0.232290
	C6678	C	0.527959	0.153046	0.241739
	C6679	C	0.590459	0.215675	0.269669
	C6680	C	0.527978	0.153017	0.255658
	C6681	C	0.590480	0.215521	0.232457
	C6682	C	0.534494	0.159564	0.242214
	C6683	C	0.597037	0.222167	0.269643
	N6684	N	0.507559	0.242403	0.452990
	N6685	N	0.570102	0.179992	0.452985
	N6686	N	0.554920	0.195082	0.047611
	N6687	N	0.617416	0.132594	0.047227
	N6688	N	0.555025	0.195121	0.452620
	N6689	N	0.617480	0.132604	0.453233
	N6690	N	0.507626	0.242522	0.047930
	N6691	N	0.570044	0.180031	0.047590
	N6692	N	0.554961	0.179975	0.202680
	N6693	N	0.617581	0.242415	0.202597
	N6694	N	0.507649	0.132504	0.297281
	N6695	N	0.570021	0.195170	0.298071
	N6696	N	0.507557	0.132549	0.202643
	N6697	N	0.570043	0.195179	0.203195
	N6698	N	0.554954	0.179966	0.297577
	N6699	N	0.617528	0.242493	0.297488
	H6700	H	0.514686	0.235439	0.851523
	H6701	H	0.576923	0.172741	0.851759
	H6702	H	0.547836	0.202139	0.649044
	H6703	H	0.610302	0.139595	0.649567
	H6704	H	0.547747	0.202248	0.851839
	H6705	H	0.610569	0.140001	0.851697
	H6706	H	0.514758	0.235279	0.648394
	H6707	H	0.577201	0.172986	0.649952
	H6708	H	0.547792	0.172740	0.601366
	H6709	H	0.610469	0.235267	0.601143
	H6710	H	0.514564	0.139591	0.899683
	H6711	H	0.577185	0.202132	0.898574
	H6712	H	0.514792	0.139504	0.602004
	H6713	H	0.577173	0.202179	0.602007
	H6714	H	0.547719	0.172943	0.899242
	H6715	H	0.610338	0.235341	0.898921
	H6716	H	0.524497	0.223572	0.939358
	H6717	H	0.587394	0.161539	1.023806
	H6718	H	0.536770	0.212739	0.579750
	H6719	H	0.599681	0.150710	0.545236
	H6720	H	0.536047	0.212146	0.939466
	H6721	H	0.598885	0.150029	1.023378
	H6722	H	0.525204	0.224181	0.579918
	H6723	H	0.588167	0.162283	0.545093
	H6724	H	0.537004	0.161999	0.789350
	H6725	H	0.599759	0.224285	0.745285
	H6726	H	0.525361	0.150457	0.712272
	H6727	H	0.587825	0.213123	0.754539
	H6728	H	0.525556	0.150400	0.789166
	H6729	H	0.588201	0.212812	0.745897
	H6730	H	0.536849	0.162012	0.712159
	H6731	H	0.599388	0.224579	0.755311
	Co6732	Co	0.624987	0.250017	0.625118
	Co6733	Co	0.562470	0.187533	0.625064
	Co6734	Co	0.499962	0.124909	0.875036
	Co6735	Co	0.562451	0.187539	0.875124
	C6736	C	0.513596	0.236520	0.924385
	C6737	C	0.575897	0.173918	0.924291
	C6738	C	0.548958	0.201096	0.576177
	C6739	C	0.611461	0.138521	0.576866
	C6740	C	0.548892	0.201090	0.924183
	C6741	C	0.611525	0.138762	0.924157
	C6742	C	0.513579	0.236388	0.575957
	C6743	C	0.576122	0.174032	0.576885
	C6744	C	0.548904	0.173890	0.674358
	C6745	C	0.611532	0.236362	0.673963
	C6746	C	0.513513	0.138473	0.826701
	C6747	C	0.576003	0.201092	0.826086
	C6748	C	0.513635	0.138437	0.674578
	C6749	C	0.575995	0.201100	0.674336
	C6750	C	0.548861	0.173984	0.826381
	C6751	C	0.611460	0.236402	0.825925
	C6752	C	0.517679	0.232431	1.000397
	C6753	C	0.580196	0.169933	0.500854
	C6754	C	0.544828	0.205194	1.000562
	C6755	C	0.607388	0.142699	0.500921
	C6756	C	0.544824	0.169830	0.750354
	C6757	C	0.607445	0.232248	0.749895
	C6758	C	0.517649	0.142527	0.750863
	C6759	C	0.580053	0.205179	0.750270
	C6760	C	0.524502	0.225493	1.000220
	C6761	C	0.587084	0.163041	0.501016
	C6762	C	0.537935	0.212067	1.000389
	C6763	C	0.600486	0.149584	0.501131
	C6764	C	0.537923	0.162932	0.750567
	C6765	C	0.600516	0.225381	0.749893
	C6766	C	0.524515	0.149455	0.750922
	C6767	C	0.587038	0.211994	0.750133
	C6768	C	0.527431	0.221509	0.965979
	C6769	C	0.590151	0.159282	1.013437
	C6770	C	0.534412	0.215372	0.544485
	C6771	C	0.597144	0.153121	0.525743
	C6772	C	0.533954	0.214987	0.966244
	C6773	C	0.596654	0.152746	1.013351
	C6774	C	0.527865	0.221855	0.544586
	C6775	C	0.590628	0.159660	0.525869
	C6776	C	0.534495	0.159481	0.772207
	C6777	C	0.597168	0.221857	0.747603
	C6778	C	0.527901	0.152942	0.729194
	C6779	C	0.590423	0.215510	0.752860
	C6780	C	0.528002	0.152935	0.772355
	C6781	C	0.590618	0.215367	0.747559
	C6782	C	0.534391	0.159493	0.728955
	C6783	C	0.596963	0.222006	0.752736
	N6784	N	0.507613	0.242538	0.953206
	N6785	N	0.569925	0.179949	0.952857
	N6786	N	0.554942	0.195060	0.547306
	N6787	N	0.617457	0.132533	0.547879
	N6788	N	0.554889	0.195087	0.952785
	N6789	N	0.617534	0.132757	0.952653
	N6790	N	0.507577	0.242382	0.547494
	N6791	N	0.570110	0.180044	0.547856
	N6792	N	0.554879	0.179947	0.702717
	N6793	N	0.617438	0.242454	0.702802
	N6794	N	0.507509	0.132473	0.797750
	N6795	N	0.569952	0.195123	0.797579
	N6796	N	0.507579	0.132447	0.703010
	N6797	N	0.569953	0.195114	0.702936
	N6798	N	0.554865	0.180001	0.797540
	N6799	N	0.617422	0.242467	0.797224
	H6800	H	0.514701	0.360267	0.352203
	H6801	H	0.577177	0.297995	0.350534
	H6802	H	0.547640	0.326877	0.148409
	H6803	H	0.610480	0.264761	0.149305
	H6804	H	0.548009	0.327412	0.351986
	H6805	H	0.610322	0.264678	0.350518
	H6806	H	0.514886	0.360619	0.148211
	H6807	H	0.577127	0.297770	0.148908
	H6808	H	0.547709	0.297860	0.102115
	H6809	H	0.610255	0.360394	0.100591
	H6810	H	0.514729	0.264637	0.399827
	H6811	H	0.577186	0.327273	0.398762
	H6812	H	0.514595	0.264833	0.101703
	H6813	H	0.577204	0.327057	0.100179
	H6814	H	0.547861	0.297844	0.399075
	H6815	H	0.610322	0.360325	0.398222
	H6816	H	0.525250	0.349281	0.511413
	H6817	H	0.588256	0.287349	0.538191
	H6818	H	0.537048	0.338037	0.070733
	H6819	H	0.599474	0.275553	0.114539
	H6820	H	0.536738	0.337732	0.511422
	H6821	H	0.599725	0.275776	0.537903
	H6822	H	0.525621	0.349654	0.070656
	H6823	H	0.587862	0.286988	0.114638
	H6824	H	0.537267	0.286821	0.298395
	H6825	H	0.598906	0.350080	0.212446
	H6826	H	0.525414	0.275586	0.203748
	H6827	H	0.588561	0.337488	0.286100
	H6828	H	0.525684	0.275354	0.298859
	H6829	H	0.587390	0.338534	0.212893
	H6830	H	0.536994	0.287086	0.204264
	H6831	H	0.600056	0.349000	0.286004
	Co6832	Co	0.624995	0.375018	0.124652
	Co6833	Co	0.562481	0.312461	0.124714
	Co6834	Co	0.500028	0.250022	0.375467
	Co6835	Co	0.562525	0.312571	0.374749
	C6836	C	0.513548	0.361426	0.424505
	C6837	C	0.576088	0.298986	0.423022
	C6838	C	0.548804	0.325894	0.075932
	C6839	C	0.611498	0.263629	0.076601
	C6840	C	0.549011	0.326154	0.424631
	C6841	C	0.611412	0.263525	0.423334
	C6842	C	0.513685	0.361591	0.075679
	C6843	C	0.576020	0.298901	0.076196
	C6844	C	0.548934	0.298936	0.174563
	C6845	C	0.611390	0.361487	0.173164
	C6846	C	0.513620	0.263620	0.326878
	C6847	C	0.576061	0.326152	0.325754
	C6848	C	0.513545	0.263694	0.174554
	C6849	C	0.576090	0.326037	0.173041
	C6850	C	0.549010	0.298944	0.326634
	C6851	C	0.611448	0.361440	0.325608
	C6852	C	0.517590	0.357296	0.500416
	C6853	C	0.580106	0.294810	0.000284
	C6854	C	0.544813	0.330141	0.500933
	C6855	C	0.607352	0.267672	0.000418
	C6856	C	0.544934	0.294815	0.250914
	C6857	C	0.607316	0.357387	0.249371
	C6858	C	0.517690	0.267714	0.250678
	C6859	C	0.580134	0.330190	0.249291
	C6860	C	0.524471	0.350406	0.500748
	C6861	C	0.586989	0.287931	0.000457
	C6862	C	0.537929	0.337022	0.501060
	C6863	C	0.600506	0.274594	0.000307
	C6864	C	0.538040	0.287935	0.251202
	C6865	C	0.600447	0.350487	0.249613
	C6866	C	0.524598	0.274559	0.250848
	C6867	C	0.587038	0.337062	0.249282
	C6868	C	0.527826	0.346859	0.506924
	C6869	C	0.590617	0.284673	0.521006
	C6870	C	0.534558	0.340529	0.039316
	C6871	C	0.596987	0.278043	0.064057
	C6872	C	0.534360	0.340333	0.506848
	C6873	C	0.597126	0.278134	0.521011
	C6874	C	0.528062	0.347081	0.039158
	C6875	C	0.590416	0.284527	0.064441
	C6876	C	0.534672	0.284422	0.277690
	C6877	C	0.596709	0.347324	0.228821
	C6878	C	0.528005	0.278044	0.224477
	C6879	C	0.590804	0.340235	0.269972
	C6880	C	0.528131	0.277926	0.277522
	C6881	C	0.590178	0.340809	0.228842
	C6882	C	0.534540	0.284556	0.224765
	C6883	C	0.597317	0.346756	0.269947
	N6884	N	0.507583	0.367471	0.452858
	N6885	N	0.570101	0.305001	0.452082
	N6886	N	0.554849	0.319917	0.047092
	N6887	N	0.617493	0.257616	0.047848
	N6888	N	0.554995	0.320122	0.452837
	N6889	N	0.617408	0.257525	0.452395
	N6890	N	0.507613	0.367529	0.046974
	N6891	N	0.570030	0.304909	0.047363
	N6892	N	0.554948	0.304944	0.202831
	N6893	N	0.617436	0.367440	0.202080
	N6894	N	0.507580	0.257650	0.298349
	N6895	N	0.570060	0.320128	0.297022
	N6896	N	0.507551	0.257672	0.203518
	N6897	N	0.570065	0.320058	0.202027
	N6898	N	0.555011	0.304947	0.297516
	N6899	N	0.617472	0.367407	0.296904
	H6900	H	0.514470	0.360223	0.850600
	H6901	H	0.577150	0.297759	0.851583
	H6902	H	0.547699	0.326995	0.649456
	H6903	H	0.610167	0.264689	0.648479
	H6904	H	0.548002	0.327355	0.851509
	H6905	H	0.610343	0.264681	0.851447
	H6906	H	0.514660	0.360414	0.648556
	H6907	H	0.577110	0.297833	0.647866
	H6908	H	0.547924	0.297776	0.600803
	H6909	H	0.610227	0.360551	0.600366
	H6910	H	0.514704	0.264773	0.898240
	H6911	H	0.577105	0.327302	0.899274
	H6912	H	0.514641	0.264699	0.601128
	H6913	H	0.577393	0.327003	0.601073
	H6914	H	0.547791	0.297851	0.898556
	H6915	H	0.610337	0.360337	0.898862
	H6916	H	0.525379	0.349465	0.927842
	H6917	H	0.587999	0.286960	0.886486
	H6918	H	0.537154	0.338153	0.490195
	H6919	H	0.599077	0.275133	0.460468
	H6920	H	0.536870	0.337899	0.928147
	H6921	H	0.599638	0.275574	0.886011
	H6922	H	0.525650	0.349687	0.490408
	H6923	H	0.587608	0.286630	0.460431
	H6924	H	0.536759	0.287309	0.792208
	H6925	H	0.599206	0.349894	0.754202
	H6926	H	0.525577	0.275424	0.705259
	H6927	H	0.588290	0.337707	0.745726
	H6928	H	0.525264	0.275807	0.792837
	H6929	H	0.587750	0.338342	0.754959
	H6930	H	0.537136	0.286890	0.705370
	H6931	H	0.599800	0.349278	0.744551
	Co6932	Co	0.625049	0.375052	0.624555
	Co6933	Co	0.562524	0.312508	0.624732
	Co6934	Co	0.500037	0.250045	0.875099
	Co6935	Co	0.562506	0.312486	0.874911
	C6936	C	0.513461	0.361385	0.923289
	C6937	C	0.576031	0.298889	0.924192
	C6938	C	0.548872	0.325964	0.576883
	C6939	C	0.611345	0.263525	0.576047
	C6940	C	0.548977	0.326097	0.923763
	C6941	C	0.611427	0.263583	0.924253
	C6942	C	0.513540	0.361483	0.576159
	C6943	C	0.576048	0.298914	0.575189
	C6944	C	0.548981	0.298922	0.673260
	C6945	C	0.611418	0.361608	0.673361
	C6946	C	0.513573	0.263638	0.825835
	C6947	C	0.576053	0.326135	0.826433
	C6948	C	0.513527	0.263635	0.673619
	C6949	C	0.576191	0.325974	0.673988
	C6950	C	0.548903	0.298958	0.825635
	C6951	C	0.611480	0.361517	0.825895
	C6952	C	0.517666	0.357408	0.999260
	C6953	C	0.580147	0.294856	0.499060
	C6954	C	0.544780	0.330051	0.999830
	C6955	C	0.607289	0.267593	0.499376
	C6956	C	0.544827	0.294909	0.749523
	C6957	C	0.607373	0.357444	0.749525
	C6958	C	0.517610	0.267731	0.749649
	C6959	C	0.580203	0.330164	0.750202
	C6960	C	0.524564	0.350505	0.999091
	C6961	C	0.587019	0.287968	0.499196
	C6962	C	0.537932	0.336994	0.999535
	C6963	C	0.600391	0.274476	0.499146
	C6964	C	0.537911	0.288057	0.749139
	C6965	C	0.600478	0.350570	0.749392
	C6966	C	0.524514	0.274620	0.749413
	C6967	C	0.587068	0.337093	0.750096
	C6968	C	0.527953	0.347007	0.959261
	C6969	C	0.590513	0.284510	0.936316
	C6970	C	0.534583	0.340560	0.494856
	C6971	C	0.596762	0.277754	0.477617
	C6972	C	0.534426	0.340427	0.959353
	C6973	C	0.597083	0.278031	0.936306
	C6974	C	0.528053	0.347092	0.494762
	C6975	C	0.590281	0.284303	0.477671
	C6976	C	0.534341	0.284728	0.773508
	C6977	C	0.596868	0.347289	0.752486
	C6978	C	0.528052	0.277988	0.724726
	C6979	C	0.590689	0.340368	0.747264
	C6980	C	0.527832	0.278197	0.773621
	C6981	C	0.590358	0.340733	0.752762
	C6982	C	0.534560	0.284520	0.724567
	C6983	C	0.597194	0.346937	0.746921
	N6984	N	0.507488	0.367422	0.952295
	N6985	N	0.570041	0.304899	0.952628
	N6986	N	0.554912	0.320007	0.547706
	N6987	N	0.617360	0.257504	0.547617
	N6988	N	0.554960	0.320039	0.952373
	N6989	N	0.617455	0.257572	0.952950
	N6990	N	0.507570	0.367519	0.547382
	N6991	N	0.570070	0.304963	0.546594
	N6992	N	0.554994	0.304918	0.701886
	N6993	N	0.617428	0.367599	0.702313
	N6994	N	0.507552	0.257619	0.797398
	N6995	N	0.570068	0.320103	0.797599
	N6996	N	0.507548	0.257612	0.702364
	N6997	N	0.570152	0.320008	0.702706
	N6998	N	0.554958	0.304946	0.796978
	N6999	N	0.617471	0.367542	0.797316
	H7000	H	0.514708	0.485387	0.351506
	H7001	H	0.577413	0.423092	0.350677
	H7002	H	0.547988	0.452262	0.149086
	H7003	H	0.609990	0.389464	0.149249
	H7004	H	0.547706	0.452051	0.351006
	H7005	H	0.610293	0.389624	0.351010
	H7006	H	0.514594	0.485298	0.148714
	H7007	H	0.577052	0.422777	0.147329
	H7008	H	0.547633	0.422971	0.100722
	H7009	H	0.610259	0.485465	0.101350
	H7010	H	0.514679	0.389626	0.398725
	H7011	H	0.577031	0.452360	0.398632
	H7012	H	0.514507	0.389819	0.101335
	H7013	H	0.577304	0.452075	0.100722
	H7014	H	0.547905	0.422725	0.398810
	H7015	H	0.610485	0.485261	0.398893
	H7016	H	0.525298	0.474364	0.430414
	H7017	H	0.588019	0.412045	0.507220
	H7018	H	0.537447	0.463303	0.082149
	H7019	H	0.599166	0.400258	0.073200
	H7020	H	0.536864	0.462839	0.430308
	H7021	H	0.599462	0.400443	0.507406
	H7022	H	0.525858	0.474747	0.083261
	H7023	H	0.587696	0.411838	0.072468
	H7024	H	0.536532	0.412521	0.321696
	H7025	H	0.599914	0.474118	0.228257
	H7026	H	0.525830	0.400070	0.179673
	H7027	H	0.587578	0.463531	0.271152
	H7028	H	0.525047	0.400973	0.321760
	H7029	H	0.588441	0.462548	0.227312
	H7030	H	0.537342	0.411554	0.178886
	H7031	H	0.599065	0.475078	0.271232
	Co7032	Co	0.625031	0.500008	0.124711
	Co7033	Co	0.562493	0.437519	0.124841
	Co7034	Co	0.499990	0.374944	0.374854
	Co7035	Co	0.562460	0.437526	0.374244
	C7036	C	0.513555	0.486445	0.423664
	C7037	C	0.576165	0.424087	0.423544
	C7038	C	0.548986	0.451126	0.076163
	C7039	C	0.611221	0.388450	0.076285
	C7040	C	0.548847	0.450978	0.423494
	C7041	C	0.611382	0.388492	0.423664
	C7042	C	0.513509	0.486404	0.076002
	C7043	C	0.576022	0.423956	0.075120
	C7044	C	0.548822	0.424015	0.173843
	C7045	C	0.611403	0.486519	0.173972
	C7046	C	0.513519	0.388557	0.326528
	C7047	C	0.576003	0.451126	0.325813
	C7048	C	0.513438	0.388676	0.174113
	C7049	C	0.576141	0.450986	0.173423
	C7050	C	0.548955	0.423903	0.326146
	C7051	C	0.611498	0.486425	0.326131
	C7052	C	0.517581	0.482287	0.499419
	C7053	C	0.580153	0.419947	-0.000926
	C7054	C	0.544778	0.455082	0.499461
	C7055	C	0.607175	0.392564	0.000041
	C7056	C	0.544796	0.419874	0.250211
	C7057	C	0.607320	0.482411	0.250080
	C7058	C	0.517555	0.392693	0.250418
	C7059	C	0.580166	0.455151	0.249603
	C7060	C	0.524477	0.475405	0.499084
	C7061	C	0.586942	0.412973	-0.000922
	C7062	C	0.537873	0.461960	0.499222
	C7063	C	0.600297	0.399470	-0.000343
	C7064	C	0.537909	0.412982	0.250459
	C7065	C	0.600434	0.475541	0.249735
	C7066	C	0.524486	0.399551	0.250571
	C7067	C	0.587052	0.462043	0.249784
	C7068	C	0.527878	0.471906	0.460707
	C7069	C	0.590492	0.409531	0.503914
	C7070	C	0.534699	0.465647	0.046712
	C7071	C	0.596774	0.402841	0.040712
	C7072	C	0.534404	0.465371	0.460628
	C7073	C	0.596979	0.402962	0.503978
	C7074	C	0.528175	0.472173	0.046885
	C7075	C	0.590262	0.409380	0.040188
	C7076	C	0.534247	0.409785	0.290366
	C7077	C	0.597227	0.471818	0.237295
	C7078	C	0.528164	0.402756	0.210776
	C7079	C	0.590257	0.465770	0.262099
	C7080	C	0.527722	0.403256	0.290403
	C7081	C	0.590718	0.465264	0.237157
	C7082	C	0.534679	0.409281	0.210608
	C7083	C	0.596745	0.472338	0.261971
	N7084	N	0.507543	0.492451	0.452795
	N7085	N	0.570097	0.430038	0.452106
	N7086	N	0.554960	0.445087	0.047189
	N7087	N	0.617328	0.382550	0.047557
	N7088	N	0.554871	0.445009	0.452096
	N7089	N	0.617398	0.382526	0.452451
	N7090	N	0.507508	0.492412	0.047399
	N7091	N	0.570013	0.429986	0.046868
	N7092	N	0.554864	0.429988	0.202160
	N7093	N	0.617452	0.492500	0.202733
	N7094	N	0.507478	0.382567	0.297564
	N7095	N	0.570083	0.445048	0.297093
	N7096	N	0.507423	0.382643	0.202716
	N7097	N	0.570154	0.444986	0.202165
	N7098	N	0.554930	0.429935	0.296945
	N7099	N	0.617500	0.492448	0.297347
	H7100	H	0.514721	0.485316	0.851369
	H7101	H	0.577180	0.422943	0.850973
	H7102	H	0.547776	0.452183	0.647663
	H7103	H	0.610251	0.389601	0.648770
	H7104	H	0.547773	0.452130	0.850976
	H7105	H	0.610280	0.389767	0.850833
	H7106	H	0.514636	0.485161	0.648186
	H7107	H	0.576942	0.422616	0.648879
	H7108	H	0.547407	0.423199	0.601320
	H7109	H	0.610278	0.485382	0.600759
	H7110	H	0.514676	0.389646	0.899101
	H7111	H	0.577037	0.452252	0.898460
	H7112	H	0.514967	0.389446	0.601511
	H7113	H	0.577293	0.452015	0.599693
	H7114	H	0.548093	0.422509	0.899219
	H7115	H	0.610314	0.485295	0.898885
	H7116	H	0.525047	0.474117	0.918425
	H7117	H	0.588108	0.412212	0.925675
	H7118	H	0.537057	0.463005	0.567312
	H7119	H	0.599464	0.400477	0.492060
	H7120	H	0.536515	0.462592	0.918680
	H7121	H	0.599561	0.400652	0.925896
	H7122	H	0.525561	0.474567	0.566947
	H7123	H	0.587987	0.412060	0.492391
	H7124	H	0.537486	0.411537	0.800103
	H7125	H	0.598906	0.475167	0.760217
	H7126	H	0.525016	0.400848	0.700014
	H7127	H	0.588734	0.462169	0.739317
	H7128	H	0.526081	0.399922	0.801179
	H7129	H	0.587358	0.463711	0.760227
	H7130	H	0.536398	0.412508	0.699926
	H7131	H	0.600226	0.473738	0.739127
	Co7132	Co	0.625007	0.499998	0.624666
	Co7133	Co	0.562446	0.437495	0.624793
	Co7134	Co	0.499915	0.375030	0.875056
	Co7135	Co	0.562458	0.437526	0.874346
	C7136	C	0.513551	0.486434	0.924114
	C7137	C	0.576099	0.424051	0.923260
	C7138	C	0.548891	0.451055	0.575378
	C7139	C	0.611354	0.388490	0.575936
	C7140	C	0.548880	0.451034	0.924011
	C7141	C	0.611360	0.388581	0.923760
	C7142	C	0.513511	0.486307	0.575827
	C7143	C	0.575917	0.423848	0.575965
	C7144	C	0.548696	0.424128	0.673694
	C7145	C	0.611394	0.486474	0.673571
	C7146	C	0.513527	0.388528	0.826350
	C7147	C	0.575994	0.451082	0.825565
	C7148	C	0.513683	0.388426	0.674101
	C7149	C	0.576140	0.450978	0.672907
	C7150	C	0.549050	0.423790	0.825892
	C7151	C	0.611428	0.486438	0.826009
	C7152	C	0.517610	0.482315	1.000171
	C7153	C	0.580149	0.419866	0.499781
	C7154	C	0.544817	0.455129	1.000152
	C7155	C	0.607229	0.392586	0.499786
	C7156	C	0.544785	0.419863	0.749984
	C7157	C	0.607372	0.482363	0.749827
	C7158	C	0.517720	0.392533	0.750347
	C7159	C	0.580157	0.455107	0.749386
	C7160	C	0.524484	0.475421	1.000350
	C7161	C	0.587046	0.413001	0.499711
	C7162	C	0.537940	0.462027	1.000519
	C7163	C	0.600388	0.399512	0.499777
	C7164	C	0.537929	0.412941	0.749954
	C7165	C	0.600517	0.475439	0.749870
	C7166	C	0.524607	0.399406	0.750357
	C7167	C	0.587055	0.461986	0.749784
	C7168	C	0.527695	0.471778	0.954331
	C7169	C	0.590473	0.409588	0.957947
	C7170	C	0.534488	0.465458	0.537103
	C7171	C	0.596960	0.402985	0.495516
	C7172	C	0.534252	0.465277	0.954306
	C7173	C	0.596967	0.403035	0.958044
	C7174	C	0.527978	0.472001	0.537156
	C7175	C	0.590480	0.409575	0.495807
	C7176	C	0.534766	0.409228	0.778353
	C7177	C	0.596654	0.472380	0.755770
	C7178	C	0.527729	0.403154	0.722140
	C7179	C	0.590911	0.465016	0.743901
	C7180	C	0.528321	0.402620	0.778452
	C7181	C	0.590147	0.465830	0.755937
	C7182	C	0.534193	0.409752	0.721844
	C7183	C	0.597438	0.471545	0.744129
	N7184	N	0.507530	0.492421	0.952533
	N7185	N	0.570078	0.430066	0.952126
	N7186	N	0.554919	0.445052	0.546857
	N7187	N	0.617385	0.382520	0.547108
	N7188	N	0.554909	0.445052	0.952448
	N7189	N	0.617379	0.382602	0.952388
	N7190	N	0.507513	0.492365	0.547661
	N7191	N	0.569937	0.429902	0.547025
	N7192	N	0.554789	0.430048	0.702424
	N7193	N	0.617384	0.492500	0.702106
	N7194	N	0.507448	0.382608	0.797440
	N7195	N	0.570010	0.445080	0.796622
	N7196	N	0.507548	0.382544	0.702687
	N7197	N	0.570106	0.445001	0.701630
	N7198	N	0.554984	0.429862	0.797092
	N7199	N	0.617401	0.492486	0.797163
	H7200	H	0.514730	0.610338	0.350712
	H7201	H	0.576948	0.547593	0.350488
	H7202	H	0.547737	0.577082	0.148938
	H7203	H	0.610119	0.514476	0.148156
	H7204	H	0.547768	0.577151	0.351458
	H7205	H	0.610357	0.514651	0.351075
	H7206	H	0.514667	0.610345	0.149540
	H7207	H	0.577284	0.547994	0.148267
	H7208	H	0.547939	0.547630	0.101886
	H7209	H	0.610190	0.610403	0.100204
	H7210	H	0.514461	0.514876	0.398790
	H7211	H	0.577328	0.576948	0.398770
	H7212	H	0.514845	0.514404	0.100801
	H7213	H	0.576879	0.577403	0.100415
	H7214	H	0.547889	0.547718	0.399231
	H7215	H	0.610438	0.610184	0.397607
	H7216	H	0.526135	0.600194	0.490949
	H7217	H	0.587851	0.536805	0.474254
	H7218	H	0.536930	0.587959	0.004144
	H7219	H	0.599679	0.525749	-0.028223
	H7220	H	0.537661	0.588668	0.491902
	H7221	H	0.599428	0.525305	0.473474
	H7222	H	0.525405	0.599512	0.004327
	H7223	H	0.588168	0.537278	-0.027844
	H7224	H	0.537128	0.536947	0.198746
	H7225	H	0.600679	0.598286	0.270423
	H7226	H	0.525366	0.525496	0.300123
	H7227	H	0.586738	0.589192	0.227430
	H7228	H	0.525548	0.525480	0.198974
	H7229	H	0.589123	0.586789	0.270226
	H7230	H	0.536925	0.536948	0.300870
	H7231	H	0.598328	0.600615	0.227042
	Co7232	Co	0.624977	0.624999	0.124394
	Co7233	Co	0.562457	0.562435	0.125108
	Co7234	Co	0.500005	0.500026	0.375634
	Co7235	Co	0.562479	0.562481	0.375083
	C7236	C	0.513583	0.611436	0.423600
	C7237	C	0.575945	0.548812	0.423332
	C7238	C	0.548905	0.576026	0.076051
	C7239	C	0.611323	0.513433	0.075752
	C7240	C	0.548918	0.576034	0.423769
	C7241	C	0.611455	0.513535	0.423826
	C7242	C	0.513563	0.611425	0.076530
	C7243	C	0.576103	0.548988	0.075586
	C7244	C	0.549024	0.548772	0.174403
	C7245	C	0.611366	0.611453	0.172917
	C7246	C	0.513456	0.513650	0.325726
	C7247	C	0.576122	0.575942	0.325778
	C7248	C	0.513637	0.513425	0.173374
	C7249	C	0.575894	0.576177	0.173170
	C7250	C	0.549009	0.548789	0.326438
	C7251	C	0.611503	0.611343	0.325124
	C7252	C	0.517667	0.607334	0.499749
	C7253	C	0.580089	0.544809	-0.000403
	C7254	C	0.544798	0.580092	0.499810
	C7255	C	0.607319	0.517586	-0.000043
	C7256	C	0.544964	0.544683	0.250512
	C7257	C	0.607333	0.607299	0.249097
	C7258	C	0.517638	0.517628	0.249452
	C7259	C	0.580074	0.580168	0.249481
	C7260	C	0.524537	0.600426	0.499660
	C7261	C	0.587003	0.537942	-0.000487
	C7262	C	0.537936	0.586996	0.499717
	C7263	C	0.600448	0.524494	-0.000303
	C7264	C	0.538021	0.537838	0.250152
	C7265	C	0.600427	0.600435	0.249008
	C7266	C	0.524523	0.524514	0.249617
	C7267	C	0.586977	0.587041	0.249373
	C7268	C	0.528358	0.597376	0.494907
	C7269	C	0.590387	0.534354	0.484998
	C7270	C	0.534456	0.590451	0.002436
	C7271	C	0.597117	0.528113	-0.015963
	C7272	C	0.534868	0.590839	0.494921
	C7273	C	0.596933	0.527859	0.485075
	C7274	C	0.527953	0.596994	0.002713
	C7275	C	0.590593	0.534645	-0.016074
	C7276	C	0.534574	0.534436	0.221442
	C7277	C	0.597653	0.596323	0.261174
	C7278	C	0.527929	0.527947	0.278241
	C7279	C	0.589783	0.591131	0.237249
	C7280	C	0.528006	0.527958	0.221196
	C7281	C	0.591088	0.589828	0.261156
	C7282	C	0.534492	0.534426	0.278491
	C7283	C	0.596337	0.597624	0.236988
	N7284	N	0.507549	0.617416	0.452552
	N7285	N	0.570042	0.554902	0.452295
	N7286	N	0.554946	0.570042	0.047341
	N7287	N	0.617403	0.507480	0.047039
	N7288	N	0.554958	0.570053	0.452484
	N7289	N	0.617490	0.507548	0.452461
	N7290	N	0.507572	0.617439	0.047931
	N7291	N	0.570052	0.554939	0.047178
	N7292	N	0.555013	0.554804	0.203024
	N7293	N	0.617403	0.617420	0.201500
	N7294	N	0.507499	0.507597	0.297140
	N7295	N	0.570121	0.569931	0.296980
	N7296	N	0.507589	0.507478	0.202321
	N7297	N	0.569985	0.570074	0.202076
	N7298	N	0.555002	0.554829	0.297573
	N7299	N	0.617488	0.617351	0.296230
	H7300	H	0.514646	0.610368	0.851201
	H7301	H	0.576917	0.547620	0.851118
	H7302	H	0.547698	0.577047	0.648543
	H7303	H	0.610387	0.514716	0.648664
	H7304	H	0.547792	0.577206	0.851017
	H7305	H	0.610479	0.514915	0.851393
	H7306	H	0.514591	0.610157	0.648477
	H7307	H	0.577331	0.547879	0.648831
	H7308	H	0.547914	0.547716	0.601186
	H7309	H	0.610235	0.610433	0.601866
	H7310	H	0.514453	0.514755	0.899189
	H7311	H	0.577335	0.577054	0.898621
	H7312	H	0.514780	0.514484	0.601358
	H7313	H	0.577094	0.577277	0.600661
	H7314	H	0.547662	0.548115	0.899027
	H7315	H	0.610359	0.610384	0.898738
	H7316	H	0.525526	0.599550	0.995297
	H7317	H	0.587758	0.536763	1.026734
	H7318	H	0.536309	0.587220	0.507987
	H7319	H	0.599576	0.525569	0.524526
	H7320	H	0.537031	0.587990	0.995883
	H7321	H	0.599265	0.525183	1.027494
	H7322	H	0.524783	0.598761	0.508223
	H7323	H	0.588023	0.537065	0.524571
	H7324	H	0.537159	0.536914	0.626064
	H7325	H	0.599941	0.599142	0.708138
	H7326	H	0.525255	0.525590	0.874454
	H7327	H	0.587604	0.588368	0.791940
	H7328	H	0.525624	0.525438	0.625675
	H7329	H	0.588464	0.587575	0.708009
	H7330	H	0.536767	0.537168	0.874860
	H7331	H	0.599072	0.599990	0.792532
	Co7332	Co	0.624958	0.625090	0.624370
	Co7333	Co	0.562544	0.562473	0.624633
	Co7334	Co	0.499987	0.499986	0.874691
	Co7335	Co	0.562500	0.562506	0.875075
	C7336	C	0.513557	0.611442	0.924045
	C7337	C	0.575903	0.548797	0.923721
	C7338	C	0.548886	0.575981	0.575898
	C7339	C	0.611474	0.513572	0.575896
	C7340	C	0.548933	0.576088	0.923714
	C7341	C	0.611500	0.513643	0.923801
	C7342	C	0.513508	0.611361	0.575988
	C7343	C	0.576133	0.548945	0.575977
	C7344	C	0.548985	0.548857	0.674115
	C7345	C	0.611380	0.611520	0.674278
	C7346	C	0.513434	0.513657	0.826153
	C7347	C	0.576170	0.575998	0.826011
	C7348	C	0.513594	0.513511	0.674230
	C7349	C	0.576046	0.576094	0.673479
	C7350	C	0.548851	0.549058	0.826191
	C7351	C	0.611447	0.611472	0.826135
	C7352	C	0.517642	0.607337	1.000220
	C7353	C	0.580110	0.544771	0.499532
	C7354	C	0.544839	0.580152	0.999976
	C7355	C	0.607359	0.517633	0.499798
	C7356	C	0.544827	0.544874	0.750439
	C7357	C	0.607347	0.607417	0.750390
	C7358	C	0.517561	0.517713	0.750314
	C7359	C	0.580174	0.580143	0.749766
	C7360	C	0.524541	0.600455	1.000329
	C7361	C	0.586970	0.537849	0.499217
	C7362	C	0.537916	0.587009	1.000045
	C7363	C	0.600443	0.524510	0.499492
	C7364	C	0.537898	0.538004	0.750342
	C7365	C	0.600456	0.600514	0.750461
	C7366	C	0.524466	0.524596	0.750263
	C7367	C	0.587059	0.587053	0.749942
	C7368	C	0.527997	0.597021	0.997540
	C7369	C	0.590333	0.534351	1.014644
	C7370	C	0.534105	0.590038	0.504558
	C7371	C	0.597035	0.528035	0.513561
	C7372	C	0.534503	0.590478	0.997466
	C7373	C	0.596861	0.527811	1.015047
	C7374	C	0.527572	0.596566	0.504520
	C7375	C	0.590485	0.534521	0.513547
	C7376	C	0.534551	0.534486	0.680424
	C7377	C	0.597252	0.596806	0.726722
	C7378	C	0.527822	0.528105	0.819880
	C7379	C	0.590270	0.590736	0.773681
	C7380	C	0.528036	0.527960	0.680368
	C7381	C	0.590742	0.590270	0.726413
	C7382	C	0.534360	0.534617	0.820055
	C7383	C	0.596776	0.597282	0.773850
	N7384	N	0.507560	0.617459	0.953086
	N7385	N	0.569932	0.554835	0.952570
	N7386	N	0.554944	0.570027	0.547240
	N7387	N	0.617491	0.507570	0.547062
	N7388	N	0.554961	0.570085	0.952454
	N7389	N	0.617490	0.507603	0.952158
	N7390	N	0.507501	0.617368	0.547359
	N7391	N	0.570142	0.554974	0.547112
	N7392	N	0.554995	0.554890	0.702319
	N7393	N	0.617407	0.617526	0.702570
	N7394	N	0.507471	0.507599	0.797414
	N7395	N	0.570151	0.569975	0.797334
	N7396	N	0.507561	0.507526	0.702691
	N7397	N	0.570072	0.570051	0.702292
	N7398	N	0.554903	0.555017	0.797187
	N7399	N	0.617461	0.617487	0.797172
	H7400	H	0.514848	0.735483	0.351082
	H7401	H	0.577272	0.672983	0.350922
	H7402	H	0.547987	0.702328	0.149029
	H7403	H	0.610551	0.639886	0.148228
	H7404	H	0.547909	0.702290	0.351396
	H7405	H	0.609986	0.639447	0.350083
	H7406	H	0.514655	0.735291	0.148758
	H7407	H	0.577133	0.672779	0.149208
	H7408	H	0.547607	0.672950	0.101821
	H7409	H	0.610494	0.735024	0.101338
	H7410	H	0.514727	0.639586	0.399158
	H7411	H	0.577096	0.702253	0.399141
	H7412	H	0.514630	0.639718	0.102184
	H7413	H	0.577162	0.702011	0.100853
	H7414	H	0.547965	0.672710	0.398939
	H7415	H	0.610116	0.735457	0.398873
	H7416	H	0.525431	0.724362	0.490138
	H7417	H	0.587625	0.661776	0.544016
	H7418	H	0.536614	0.712572	-0.113008
	H7419	H	0.598733	0.649799	0.012721
	H7420	H	0.537015	0.712904	0.491008
	H7421	H	0.599151	0.650258	0.542705
	H7422	H	0.525132	0.724107	-0.113076
	H7423	H	0.587242	0.661347	0.012686
	H7424	H	0.536820	0.662176	0.236881
	H7425	H	0.600359	0.723540	0.205935
	H7426	H	0.525660	0.650245	0.263844
	H7427	H	0.587047	0.713852	0.294906
	H7428	H	0.525266	0.650645	0.237327
	H7429	H	0.588858	0.712041	0.205767
	H7430	H	0.537207	0.661727	0.263759
	H7431	H	0.598520	0.725369	0.294272
	Co7432	Co	0.624906	0.749996	0.124699
	Co7433	Co	0.562482	0.687444	0.125024
	Co7434	Co	0.499974	0.624961	0.375463
	Co7435	Co	0.562441	0.687442	0.375161
	C7436	C	0.513648	0.736461	0.423962
	C7437	C	0.576111	0.674019	0.423799
	C7438	C	0.549034	0.701140	0.076449
	C7439	C	0.611565	0.638677	0.075649
	C7440	C	0.548981	0.701099	0.424308
	C7441	C	0.611236	0.638444	0.422916
	C7442	C	0.513590	0.736465	0.075933
	C7443	C	0.576016	0.673915	0.076174
	C7444	C	0.548808	0.673963	0.174212
	C7445	C	0.611527	0.736262	0.173859
	C7446	C	0.513548	0.638509	0.326789
	C7447	C	0.576003	0.701078	0.326297
	C7448	C	0.513505	0.638552	0.174826
	C7449	C	0.576037	0.700984	0.173753
	C7450	C	0.548970	0.673858	0.326236
	C7451	C	0.611333	0.736476	0.326273
	C7452	C	0.517641	0.732282	0.500047
	C7453	C	0.580113	0.669815	0.000133
	C7454	C	0.544875	0.705121	0.500654
	C7455	C	0.607317	0.642630	-0.000272
	C7456	C	0.544834	0.669804	0.250354
	C7457	C	0.607337	0.732282	0.250005
	C7458	C	0.517584	0.642632	0.250904
	C7459	C	0.580106	0.705127	0.249950
	C7460	C	0.524535	0.725397	0.500363
	C7461	C	0.587011	0.662942	0.000329
	C7462	C	0.537973	0.711996	0.500753
	C7463	C	0.600413	0.649504	0.000077
	C7464	C	0.537933	0.662915	0.250214
	C7465	C	0.600423	0.725432	0.250056
	C7466	C	0.524474	0.649526	0.250816
	C7467	C	0.586999	0.711999	0.250078
	C7468	C	0.527971	0.721913	0.494732
	C7469	C	0.590267	0.659396	0.524239
	C7470	C	0.534293	0.715254	-0.063204
	C7471	C	0.596577	0.652596	0.007049
	C7472	C	0.534504	0.715403	0.495115
	C7473	C	0.596771	0.652860	0.523995
	C7474	C	0.527764	0.721790	-0.063186
	C7475	C	0.590059	0.659124	0.007247
	C7476	C	0.534375	0.659577	0.242917
	C7477	C	0.597477	0.721466	0.225394
	C7478	C	0.528049	0.652835	0.258057
	C7479	C	0.589945	0.715960	0.274933
	C7480	C	0.527843	0.653066	0.243308
	C7481	C	0.590950	0.714954	0.225563
	C7482	C	0.534585	0.659347	0.257644
	C7483	C	0.596463	0.722485	0.274877
	N7484	N	0.507624	0.742447	0.452562
	N7485	N	0.570045	0.679954	0.452448
	N7486	N	0.555024	0.695105	0.047478
	N7487	N	0.617546	0.632647	0.046692
	N7488	N	0.554969	0.695065	0.452859
	N7489	N	0.617305	0.632497	0.451718
	N7490	N	0.507613	0.742470	0.047296
	N7491	N	0.570035	0.679951	0.047465
	N7492	N	0.554866	0.679954	0.202575
	N7493	N	0.617508	0.742297	0.202535
	N7494	N	0.507536	0.632504	0.298239
	N7495	N	0.570021	0.695038	0.297549
	N7496	N	0.507499	0.632545	0.203440
	N7497	N	0.570028	0.695007	0.202660
	N7498	N	0.554938	0.679913	0.297401
	N7499	N	0.617389	0.742418	0.297663
	H7500	H	0.514849	0.735480	0.851003
	H7501	H	0.577134	0.672740	0.851213
	H7502	H	0.547806	0.702150	0.649752
	H7503	H	0.610479	0.639918	0.647824
	H7504	H	0.547598	0.701944	0.851075
	H7505	H	0.610016	0.639442	0.850797
	H7506	H	0.514506	0.735156	0.648724
	H7507	H	0.577023	0.672732	0.648530
	H7508	H	0.547855	0.672745	0.600677
	H7509	H	0.610189	0.735400	0.601445
	H7510	H	0.514543	0.639848	0.898609
	H7511	H	0.577076	0.702206	0.899462
	H7512	H	0.514710	0.639542	0.601516
	H7513	H	0.577075	0.702156	0.600945
	H7514	H	0.547737	0.672777	0.898476
	H7515	H	0.610330	0.735274	0.898441
	H7516	H	0.525910	0.724898	1.113453
	H7517	H	0.588684	0.662638	0.987976
	H7518	H	0.537010	0.713008	0.510462
	H7519	H	0.599697	0.650729	0.455022
	H7520	H	0.537420	0.713392	1.113471
	H7521	H	0.600246	0.651121	0.987756
	H7522	H	0.525432	0.724469	0.510180
	H7523	H	0.588216	0.662280	0.455063
	H7524	H	0.537790	0.661133	0.733829
	H7525	H	0.599363	0.724552	0.673537
	H7526	H	0.524515	0.651444	0.765504
	H7527	H	0.588032	0.712973	0.825723
	H7528	H	0.526209	0.649652	0.733507
	H7529	H	0.587786	0.713095	0.674633
	H7530	H	0.536119	0.662916	0.765170
	H7531	H	0.599578	0.724437	0.825931
	Co7532	Co	0.624978	0.750004	0.624896
	Co7533	Co	0.562512	0.687486	0.625127
	Co7534	Co	0.500009	0.625014	0.875880
	Co7535	Co	0.562471	0.687486	0.875085
	C7536	C	0.513666	0.736562	0.923929
	C7537	C	0.576008	0.673894	0.923840
	C7538	C	0.548956	0.701046	0.576639
	C7539	C	0.611449	0.638675	0.575260
	C7540	C	0.548832	0.700962	0.923831
	C7541	C	0.611300	0.638445	0.923517
	C7542	C	0.513491	0.736310	0.576052
	C7543	C	0.575970	0.673886	0.575820
	C7544	C	0.548962	0.673902	0.673170
	C7545	C	0.611343	0.736464	0.673870
	C7546	C	0.513482	0.638631	0.826131
	C7547	C	0.576042	0.701089	0.826465
	C7548	C	0.513555	0.638493	0.674193
	C7549	C	0.576034	0.701075	0.674178
	C7550	C	0.548901	0.673929	0.825550
	C7551	C	0.611416	0.736395	0.825852
	C7552	C	0.517715	0.732410	0.999852
	C7553	C	0.580143	0.669888	0.499768
	C7554	C	0.544864	0.705124	1.000122
	C7555	C	0.607243	0.642647	0.499185
	C7556	C	0.544830	0.669832	0.749179
	C7557	C	0.607315	0.732364	0.749901
	C7558	C	0.517604	0.642689	0.750035
	C7559	C	0.580098	0.705158	0.750131
	C7560	C	0.524545	0.725462	0.999899
	C7561	C	0.586999	0.662982	0.499402
	C7562	C	0.537958	0.711992	1.000037
	C7563	C	0.600372	0.649554	0.499292
	C7564	C	0.537928	0.662976	0.749239
	C7565	C	0.600427	0.725469	0.749935
	C7566	C	0.524452	0.649589	0.749593
	C7567	C	0.586974	0.712079	0.749907
	C7568	C	0.528198	0.722230	1.063450
	C7569	C	0.590863	0.659875	0.993432
	C7570	C	0.534507	0.715464	0.506307
	C7571	C	0.597109	0.653138	0.474289
	C7572	C	0.534728	0.715699	1.063611
	C7573	C	0.597362	0.653316	0.993450
	C7574	C	0.527963	0.721958	0.506079
	C7575	C	0.590583	0.659656	0.474390
	C7576	C	0.534913	0.659055	0.740491
	C7577	C	0.596908	0.722049	0.707330
	C7578	C	0.527427	0.653518	0.758402
	C7579	C	0.590485	0.715510	0.792410
	C7580	C	0.528337	0.652555	0.740580
	C7581	C	0.590368	0.715564	0.707324
	C7582	C	0.533979	0.660041	0.758124
	C7583	C	0.597027	0.721990	0.792487
	N7584	N	0.507660	0.742540	0.952595
	N7585	N	0.570032	0.679939	0.952558
	N7586	N	0.554971	0.695053	0.547860
	N7587	N	0.617426	0.632634	0.546390
	N7588	N	0.554876	0.694986	0.952400
	N7589	N	0.617397	0.632527	0.952035
	N7590	N	0.507534	0.742358	0.547214
	N7591	N	0.569982	0.679906	0.547108
	N7592	N	0.554952	0.679914	0.702144
	N7593	N	0.617386	0.742450	0.702458
	N7594	N	0.507534	0.632562	0.797522
	N7595	N	0.570081	0.695017	0.797752
	N7596	N	0.507570	0.632491	0.703053
	N7597	N	0.570060	0.695028	0.702867
	N7598	N	0.554927	0.679925	0.797135
	N7599	N	0.617433	0.742392	0.797061
	H7600	H	0.514826	0.860477	0.351009
	H7601	H	0.577262	0.797885	0.350684
	H7602	H	0.547786	0.827049	0.149425
	H7603	H	0.610202	0.764700	0.148064
	H7604	H	0.547621	0.826816	0.351142
	H7605	H	0.610373	0.764619	0.350600
	H7606	H	0.514481	0.860110	0.149823
	H7607	H	0.577121	0.797673	0.148435
	H7608	H	0.547636	0.798085	0.101529
	H7609	H	0.609985	0.860553	0.101410
	H7610	H	0.514643	0.764804	0.398427
	H7611	H	0.577176	0.827214	0.399203
	H7612	H	0.514839	0.764551	0.100140
	H7613	H	0.577121	0.827250	0.101201
	H7614	H	0.548051	0.797637	0.398467
	H7615	H	0.610451	0.860152	0.398403
	H7616	H	0.525627	0.849646	0.501478
	H7617	H	0.588003	0.786991	0.534198
	H7618	H	0.537492	0.838502	0.063596
	H7619	H	0.599843	0.775876	0.042617
	H7620	H	0.537126	0.838094	0.501754
	H7621	H	0.599500	0.775453	0.534379
	H7622	H	0.525960	0.849990	0.063651
	H7623	H	0.588374	0.787439	0.043083
	H7624	H	0.537285	0.786845	0.196185
	H7625	H	0.599544	0.849453	0.236001
	H7626	H	0.525309	0.775736	0.302923
	H7627	H	0.587815	0.838211	0.264147
	H7628	H	0.525723	0.775365	0.195335
	H7629	H	0.588019	0.837917	0.235572
	H7630	H	0.536905	0.787208	0.302896
	H7631	H	0.599377	0.849678	0.263971
	Co7632	Co	0.625019	0.875041	0.124794
	Co7633	Co	0.562561	0.812512	0.125363
	Co7634	Co	0.500111	0.749999	0.374785
	Co7635	Co	0.562565	0.812499	0.374891
	C7636	C	0.513644	0.861519	0.424219
	C7637	C	0.576112	0.798924	0.423588
	C7638	C	0.548934	0.826012	0.076632
	C7639	C	0.611365	0.763537	0.075441
	C7640	C	0.548839	0.825854	0.423942
	C7641	C	0.611444	0.763549	0.423394
	C7642	C	0.513439	0.861322	0.077216
	C7643	C	0.576037	0.798878	0.075994
	C7644	C	0.548877	0.799089	0.174087
	C7645	C	0.611274	0.861595	0.173829
	C7646	C	0.513563	0.763651	0.325410
	C7647	C	0.576066	0.826111	0.326318
	C7648	C	0.513677	0.763536	0.173176
	C7649	C	0.576032	0.826149	0.174047
	C7650	C	0.549085	0.798849	0.326255
	C7651	C	0.611505	0.861382	0.325968
	C7652	C	0.517660	0.857355	0.500418
	C7653	C	0.580166	0.794845	-0.000281
	C7654	C	0.544859	0.830067	0.499998
	C7655	C	0.607304	0.767636	-0.000831
	C7656	C	0.544900	0.794879	0.250156
	C7657	C	0.607297	0.857407	0.250112
	C7658	C	0.517695	0.767716	0.249216
	C7659	C	0.580122	0.830240	0.250221
	C7660	C	0.524550	0.850439	0.500115
	C7661	C	0.587063	0.787990	-0.000248
	C7662	C	0.537958	0.836956	0.499682
	C7663	C	0.600469	0.774558	-0.000870
	C7664	C	0.538035	0.787988	0.249823
	C7665	C	0.600395	0.850553	0.250093
	C7666	C	0.524581	0.774605	0.249262
	C7667	C	0.586984	0.837133	0.250107
	C7668	C	0.528058	0.847070	0.500936
	C7669	C	0.590464	0.784436	0.518921
	C7670	C	0.534786	0.840756	0.035990
	C7671	C	0.597229	0.778203	0.023485
	C7672	C	0.534569	0.840523	0.500717
	C7673	C	0.596992	0.777948	0.518911
	C7674	C	0.528263	0.847289	0.036179
	C7675	C	0.590707	0.784746	0.023806
	C7676	C	0.534687	0.784456	0.219449
	C7677	C	0.597011	0.847033	0.242023
	C7678	C	0.527921	0.778133	0.279271
	C7679	C	0.590365	0.840653	0.257893
	C7680	C	0.528143	0.777955	0.219388
	C7681	C	0.590482	0.840512	0.242208
	C7682	C	0.534464	0.784640	0.279600
	C7683	C	0.596893	0.847172	0.257824
	N7684	N	0.507636	0.867520	0.453113
	N7685	N	0.570102	0.804950	0.452326
	N7686	N	0.554984	0.820066	0.047813
	N7687	N	0.617327	0.757495	0.046931
	N7688	N	0.554900	0.819916	0.452773
	N7689	N	0.617474	0.757566	0.451978
	N7690	N	0.507486	0.867390	0.048475
	N7691	N	0.570050	0.804907	0.047752
	N7692	N	0.554946	0.805020	0.202795
	N7693	N	0.617358	0.867536	0.202173
	N7694	N	0.507576	0.757621	0.296746
	N7695	N	0.570091	0.820088	0.297310
	N7696	N	0.507651	0.757563	0.201979
	N7697	N	0.570063	0.820120	0.202692
	N7698	N	0.555070	0.804877	0.297573
	N7699	N	0.617492	0.867398	0.296966
	H7700	H	0.514849	0.860573	0.852670
	H7701	H	0.577286	0.797930	0.851397
	H7702	H	0.548138	0.827394	0.648914
	H7703	H	0.610224	0.764544	0.648119
	H7704	H	0.547785	0.827071	0.851818
	H7705	H	0.610308	0.764592	0.850360
	H7706	H	0.514665	0.860180	0.649855
	H7707	H	0.576990	0.797593	0.648521
	H7708	H	0.547737	0.797916	0.602241
	H7709	H	0.610292	0.860422	0.600622
	H7710	H	0.514544	0.764758	0.898981
	H7711	H	0.577029	0.827415	0.898412
	H7712	H	0.514889	0.764464	0.601587
	H7713	H	0.577237	0.827009	0.601026
	H7714	H	0.547936	0.797777	0.899595
	H7715	H	0.610350	0.860346	0.899550
	H7716	H	0.525032	0.849017	0.937686
	H7717	H	0.587621	0.786598	0.957217
	H7718	H	0.536888	0.837731	0.498237
	H7719	H	0.599455	0.775350	0.465496
	H7720	H	0.536587	0.837530	0.937793
	H7721	H	0.599140	0.775112	0.956353
	H7722	H	0.525388	0.849266	0.498275
	H7723	H	0.587878	0.786853	0.465847
	H7724	H	0.536301	0.787651	0.745415
	H7725	H	0.600442	0.848594	0.816158
	H7726	H	0.526231	0.774810	0.755441
	H7727	H	0.587137	0.838970	0.682442
	H7728	H	0.524816	0.776068	0.745705
	H7729	H	0.588929	0.837069	0.815786
	H7730	H	0.537746	0.786401	0.755587
	H7731	H	0.598579	0.850523	0.683048
	Co7732	Co	0.624995	0.875036	0.624840
	Co7733	Co	0.562497	0.812461	0.625440
	Co7734	Co	0.500025	0.750044	0.874888
	Co7735	Co	0.562508	0.812501	0.875428
	C7736	C	0.513622	0.861537	0.925039
	C7737	C	0.576108	0.799000	0.923970
	C7738	C	0.549088	0.826131	0.576216
	C7739	C	0.611378	0.763527	0.575545
	C7740	C	0.548942	0.826005	0.924466
	C7741	C	0.611402	0.763484	0.923051
	C7742	C	0.513549	0.861381	0.576803
	C7743	C	0.575974	0.798781	0.575656
	C7744	C	0.548901	0.798978	0.674691
	C7745	C	0.611400	0.861490	0.673759
	C7746	C	0.513529	0.763592	0.826107
	C7747	C	0.575985	0.826171	0.825789
	C7748	C	0.513697	0.763446	0.674205
	C7749	C	0.576103	0.825985	0.673772
	C7750	C	0.548996	0.798908	0.826668
	C7751	C	0.611443	0.861445	0.826123
	C7752	C	0.517605	0.857320	1.001033
	C7753	C	0.580094	0.794779	0.499554
	C7754	C	0.544848	0.830114	1.000555
	C7755	C	0.607343	0.767607	0.499547
	C7756	C	0.544841	0.794861	0.750557
	C7757	C	0.607343	0.857390	0.750001
	C7758	C	0.517710	0.767610	0.750115
	C7759	C	0.580158	0.830147	0.749510
	C7760	C	0.524555	0.850481	1.000928
	C7761	C	0.587004	0.787866	0.499555
	C7762	C	0.537983	0.837026	1.000674
	C7763	C	0.600408	0.774468	0.499598
	C7764	C	0.537953	0.787973	0.750363
	C7765	C	0.600446	0.850498	0.749738
	C7766	C	0.524590	0.774497	0.750194
	C7767	C	0.587041	0.837050	0.749330
	C7768	C	0.527770	0.846766	0.965544
	C7769	C	0.590302	0.784322	0.975573
	C7770	C	0.534467	0.840319	0.498881
	C7771	C	0.596930	0.777867	0.480368
	C7772	C	0.534288	0.840225	0.965486
	C7773	C	0.596817	0.777778	0.975187
	C7774	C	0.527951	0.846857	0.498929
	C7775	C	0.590425	0.784381	0.480290
	C7776	C	0.534127	0.784843	0.747902
	C7777	C	0.597518	0.846503	0.786750
	C7778	C	0.528427	0.777613	0.753018
	C7779	C	0.589979	0.841023	0.712028
	C7780	C	0.527617	0.778295	0.747706
	C7781	C	0.590993	0.839983	0.786599
	C7782	C	0.534915	0.784182	0.753214
	C7783	C	0.596491	0.847550	0.712151
	N7784	N	0.507594	0.867519	0.953737
	N7785	N	0.570100	0.804996	0.953169
	N7786	N	0.555041	0.820075	0.547467
	N7787	N	0.617425	0.757531	0.546855
	N7788	N	0.554970	0.820039	0.953055
	N7789	N	0.617369	0.757480	0.952219
	N7790	N	0.507571	0.867452	0.548195
	N7791	N	0.570020	0.804871	0.547402
	N7792	N	0.554928	0.804965	0.703256
	N7793	N	0.617433	0.867471	0.702453
	N7794	N	0.507563	0.757562	0.797313
	N7795	N	0.570016	0.820126	0.797634
	N7796	N	0.507671	0.757462	0.702712
	N7797	N	0.570078	0.820020	0.702952
	N7798	N	0.554984	0.804923	0.797878
	N7799	N	0.617457	0.867455	0.797327
	H7800	H	0.514683	0.985278	0.351080
	H7801	H	0.577015	0.922643	0.351933
	H7802	H	0.547814	0.952019	0.148852
	H7803	H	0.610189	0.889606	0.149038
	H7804	H	0.547894	0.952204	0.350297
	H7805	H	0.610228	0.889507	0.350649
	H7806	H	0.514698	0.985320	0.149353
	H7807	H	0.577095	0.922836	0.149194
	H7808	H	0.547834	0.922784	0.100595
	H7809	H	0.610348	0.985179	0.101555
	H7810	H	0.514660	0.889694	0.399087
	H7811	H	0.577105	0.952121	0.398879
	H7812	H	0.514644	0.889650	0.101964
	H7813	H	0.577361	0.951986	0.102345
	H7814	H	0.547816	0.922771	0.398500
	H7815	H	0.610151	0.985491	0.399747
	H7816	H	0.526001	0.974938	0.511519
	H7817	H	0.588280	0.912408	0.613025
	H7818	H	0.537012	0.962813	0.070303
	H7819	H	0.599428	0.900427	0.093699
	H7820	H	0.537563	0.963483	0.510477
	H7821	H	0.599745	0.900772	0.613120
	H7822	H	0.525516	0.974365	0.070992
	H7823	H	0.587935	0.911953	0.094452
	H7824	H	0.537001	0.911962	0.188880
	H7825	H	0.600043	0.973974	0.347723
	H7826	H	0.525494	0.900507	0.311101
	H7827	H	0.587402	0.963502	0.153658
	H7828	H	0.525401	0.900508	0.189513
	H7829	H	0.588608	0.962343	0.347186
	H7830	H	0.536995	0.912001	0.310663
	H7831	H	0.598855	0.975072	0.153891
	Co7832	Co	0.625013	0.999907	0.124790
	Co7833	Co	0.562481	0.937476	0.124929
	Co7834	Co	0.500006	0.875005	0.375653
	Co7835	Co	0.562482	0.937431	0.375121
	C7836	C	0.513543	0.986406	0.423835
	C7837	C	0.575977	0.923842	0.424292
	C7838	C	0.548886	0.950986	0.076089
	C7839	C	0.611355	0.888500	0.075989
	C7840	C	0.548966	0.951038	0.423039
	C7841	C	0.611370	0.888473	0.423465
	C7842	C	0.513574	0.986394	0.076524
	C7843	C	0.576011	0.923946	0.076504
	C7844	C	0.548931	0.923923	0.173462
	C7845	C	0.611388	0.986403	0.174437
	C7846	C	0.513509	0.888587	0.326524
	C7847	C	0.576055	0.950974	0.326650
	C7848	C	0.513504	0.888553	0.174536
	C7849	C	0.576160	0.950917	0.174651
	C7850	C	0.548917	0.923904	0.325743
	C7851	C	0.611313	0.986549	0.326737
	C7852	C	0.517640	0.982314	0.499896
	C7853	C	0.580135	0.919836	0.000335
	C7854	C	0.544873	0.955159	0.498815
	C7855	C	0.607249	0.892586	-0.000236
	C7856	C	0.544827	0.919845	0.249590
	C7857	C	0.607239	0.982400	0.250831
	C7858	C	0.517582	0.892656	0.250405
	C7859	C	0.580214	0.955018	0.250945
	C7860	C	0.524537	0.975446	0.499508
	C7861	C	0.586997	0.912940	0.000388
	C7862	C	0.538012	0.962061	0.498612
	C7863	C	0.600367	0.899485	-0.000195
	C7864	C	0.537951	0.912938	0.249809
	C7865	C	0.600402	0.975458	0.250746
	C7866	C	0.524496	0.899528	0.250232
	C7867	C	0.587074	0.961932	0.250857
	C7868	C	0.528251	0.972256	0.505883
	C7869	C	0.590641	0.909708	0.563549
	C7870	C	0.534509	0.965403	0.040148
	C7871	C	0.596938	0.902926	0.052673
	C7872	C	0.534811	0.965749	0.505485
	C7873	C	0.597126	0.903136	0.563369
	C7874	C	0.528013	0.971930	0.040061
	C7875	C	0.590409	0.909453	0.053053
	C7876	C	0.534486	0.909485	0.215668
	C7877	C	0.597322	0.971659	0.305232
	C7878	C	0.527958	0.903001	0.284047
	C7879	C	0.590158	0.965743	0.196438
	C7880	C	0.527945	0.902967	0.215867
	C7881	C	0.590830	0.965096	0.305116
	C7882	C	0.534510	0.909497	0.283900
	C7883	C	0.596635	0.972318	0.196503
	N7884	N	0.507542	0.992419	0.452742
	N7885	N	0.569976	0.929871	0.453051
	N7886	N	0.554908	0.944976	0.047073
	N7887	N	0.617367	0.882504	0.047280
	N7888	N	0.554943	0.945037	0.452078
	N7889	N	0.617422	0.882526	0.452223
	N7890	N	0.507559	0.992389	0.047734
	N7891	N	0.570001	0.929935	0.047459
	N7892	N	0.554929	0.929928	0.202297
	N7893	N	0.617390	0.992431	0.202704
	N7894	N	0.507466	0.882601	0.298060
	N7895	N	0.570030	0.944988	0.297731
	N7896	N	0.507469	0.882574	0.203239
	N7897	N	0.570105	0.944951	0.202761
	N7898	N	0.554923	0.929915	0.297125
	N7899	N	0.617353	0.992522	0.297705
	H7900	H	0.514828	0.985304	0.851788
	H7901	H	0.577109	0.922743	0.850750
	H7902	H	0.547859	0.952264	0.648082
	H7903	H	0.610293	0.889628	0.648206
	H7904	H	0.547947	0.952226	0.851039
	H7905	H	0.610211	0.889604	0.850561
	H7906	H	0.514647	0.985208	0.648970
	H7907	H	0.577395	0.923057	0.649245
	H7908	H	0.547586	0.923023	0.601187
	H7909	H	0.610261	0.985328	0.601292
	H7910	H	0.514456	0.889857	0.899644
	H7911	H	0.577141	0.952210	0.898526
	H7912	H	0.514735	0.889637	0.601770
	H7913	H	0.577080	0.952075	0.601347
	H7914	H	0.547945	0.922676	0.898876
	H7915	H	0.610382	0.985255	0.898686
	H7916	H	0.525523	0.974511	0.930308
	H7917	H	0.587916	0.912010	0.906970
	H7918	H	0.536506	0.962477	0.486783
	H7919	H	0.599171	0.900123	0.385935
	H7920	H	0.537000	0.962936	0.930301
	H7921	H	0.599434	0.900491	0.906528
	H7922	H	0.524984	0.974004	0.487618
	H7923	H	0.587758	0.911731	0.386748
	H7924	H	0.537546	0.911493	0.821401
	H7925	H	0.598519	0.975320	0.762821
	H7926	H	0.524872	0.901074	0.678879
	H7927	H	0.588894	0.962128	0.737468
	H7928	H	0.526051	0.899984	0.822022
	H7929	H	0.587013	0.963763	0.762855
	H7930	H	0.536374	0.912603	0.678478
	H7931	H	0.600339	0.973706	0.737512
	Co7932	Co	0.625074	0.999922	0.624978
	Co7933	Co	0.562445	0.937465	0.625112
	Co7934	Co	0.499991	0.874962	0.875808
	Co7935	Co	0.562527	0.937482	0.874929
	C7936	C	0.513628	0.986405	0.924354
	C7937	C	0.576021	0.923913	0.924005
	C7938	C	0.548960	0.951112	0.575223
	C7939	C	0.611408	0.888540	0.575482
	C7940	C	0.548951	0.951088	0.923903
	C7941	C	0.611348	0.888477	0.923670
	C7942	C	0.513527	0.986375	0.576306
	C7943	C	0.576175	0.924073	0.576424
	C7944	C	0.548798	0.924043	0.673792
	C7945	C	0.611412	0.986438	0.673930
	C7946	C	0.513473	0.888644	0.826881
	C7947	C	0.576049	0.951051	0.825955
	C7948	C	0.513592	0.888531	0.674380
	C7949	C	0.575997	0.951021	0.673826
	C7950	C	0.548985	0.923882	0.826105
	C7951	C	0.611486	0.986388	0.826132
	C7952	C	0.517649	0.982301	1.000500
	C7953	C	0.580149	0.919885	0.500321
	C7954	C	0.544828	0.955079	1.000036
	C7955	C	0.607310	0.892607	0.499307
	C7956	C	0.544818	0.919875	0.749995
	C7957	C	0.607337	0.982344	0.750082
	C7958	C	0.517652	0.892660	0.750686
	C7959	C	0.580105	0.955134	0.749787
	C7960	C	0.524559	0.975419	1.000548
	C7961	C	0.587049	0.913000	0.499946
	C7962	C	0.537954	0.961999	1.000181
	C7963	C	0.600414	0.899498	0.499499
	C7964	C	0.537912	0.913036	0.750104
	C7965	C	0.600416	0.975490	0.750088
	C7966	C	0.524498	0.899582	0.750402
	C7967	C	0.586985	0.962033	0.749815
	C7968	C	0.528001	0.972009	0.960863
	C7969	C	0.590428	0.909504	0.947834
	C7970	C	0.534271	0.965231	0.492204
	C7971	C	0.596834	0.902785	0.436067
	C7972	C	0.534497	0.965476	0.960611
	C7973	C	0.596934	0.902945	0.947566
	C7974	C	0.527718	0.971735	0.492633
	C7975	C	0.590355	0.909350	0.436293
	C7976	C	0.534774	0.909279	0.790036
	C7977	C	0.596454	0.972477	0.757113
	C7978	C	0.527617	0.903346	0.710218
	C7979	C	0.590959	0.965022	0.742908
	C7980	C	0.528257	0.902737	0.790394
	C7981	C	0.589923	0.965946	0.757012
	C7982	C	0.534139	0.909879	0.710069
	C7983	C	0.597471	0.971564	0.742981
	N7984	N	0.507604	0.992422	0.952794
	N7985	N	0.570014	0.929913	0.952627
	N7986	N	0.554933	0.945062	0.546941
	N7987	N	0.617425	0.882547	0.546874
	N7988	N	0.554948	0.945055	0.952513
	N7989	N	0.617361	0.882489	0.952360
	N7990	N	0.507512	0.992380	0.547718
	N7991	N	0.570103	0.930029	0.547825
	N7992	N	0.554846	0.930003	0.702745
	N7993	N	0.617458	0.992414	0.702473
	N7994	N	0.507521	0.882594	0.798195
	N7995	N	0.570048	0.945038	0.797437
	N7996	N	0.507591	0.882530	0.703444
	N7997	N	0.569992	0.945040	0.702846
	N7998	N	0.554961	0.929890	0.797522
	N7999	N	0.617498	0.992385	0.797377
	H8000	H	0.639511	0.110210	0.351680
	H8001	H	0.702225	0.048021	0.352360
	H8002	H	0.672802	0.077140	0.149462
	H8003	H	0.735132	0.014547	0.149435
	H8004	H	0.672893	0.077348	0.351999
	H8005	H	0.735254	0.014694	0.350465
	H8006	H	0.639786	0.110535	0.149327
	H8007	H	0.702029	0.047768	0.149670
	H8008	H	0.672793	0.047886	0.101715
	H8009	H	0.735120	0.110558	0.102139
	H8010	H	0.639603	0.014707	0.398569
	H8011	H	0.702079	0.077207	0.399113
	H8012	H	0.639655	0.014661	0.101171
	H8013	H	0.702209	0.077115	0.102778
	H8014	H	0.672923	0.047733	0.399696
	H8015	H	0.735503	0.110226	0.398661
	H8016	H	0.649794	0.098759	0.553389
	H8017	H	0.713266	0.037412	0.430311
	H8018	H	0.662157	0.088034	-0.035151
	H8019	H	0.724839	0.025939	-0.073590
	H8020	H	0.661365	0.087327	0.553315
	H8021	H	0.724870	0.025920	0.430100
	H8022	H	0.650634	0.099577	-0.035026
	H8023	H	0.713259	0.037387	-0.073130
	H8024	H	0.661547	0.037434	0.235278
	H8025	H	0.724740	0.099322	0.338481
	H8026	H	0.650901	0.025018	0.265470
	H8027	H	0.712783	0.088235	0.162244
	H8028	H	0.649981	0.025976	0.234156
	H8029	H	0.713191	0.087833	0.338983
	H8030	H	0.662510	0.036490	0.265756
	H8031	H	0.724307	0.099722	0.162257
	Co8032	Co	0.749945	0.125068	0.125386
	Co8033	Co	0.687444	0.062533	0.125847
	Co8034	Co	0.625079	-0.000029	0.375013
	Co8035	Co	0.687454	0.062530	0.375659
	C8036	C	0.638460	0.111344	0.424337
	C8037	C	0.701049	0.049043	0.424729
	C8038	C	0.673922	0.076085	0.076619
	C8039	C	0.736327	0.013471	0.076688
	C8040	C	0.674013	0.076176	0.424492
	C8041	C	0.736375	0.013579	0.423596
	C8042	C	0.638616	0.111560	0.076986
	C8043	C	0.700975	0.048912	0.076949
	C8044	C	0.673931	0.048937	0.174627
	C8045	C	0.736311	0.111556	0.174602
	C8046	C	0.638508	0.013598	0.325925
	C8047	C	0.700990	0.076111	0.326751
	C8048	C	0.638534	0.013571	0.173788
	C8049	C	0.701040	0.076081	0.175053
	C8050	C	0.673999	0.048868	0.326808
	C8051	C	0.736499	0.111390	0.326358
	C8052	C	0.642635	0.107299	0.500507
	C8053	C	0.705101	0.044836	0.000952
	C8054	C	0.669962	0.080236	0.500565
	C8055	C	0.732301	0.017635	0.000644
	C8056	C	0.669875	0.044815	0.250781
	C8057	C	0.732342	0.107372	0.250542
	C8058	C	0.642574	0.017694	0.249759
	C8059	C	0.705112	0.080170	0.250957
	C8060	C	0.649548	0.100451	0.500625
	C8061	C	0.711987	0.037941	0.000953
	C8062	C	0.663030	0.087076	0.501001
	C8063	C	0.725424	0.024527	0.000886
	C8064	C	0.662979	0.037928	0.250813
	C8065	C	0.725454	0.100480	0.250549
	C8066	C	0.649501	0.024566	0.249818
	C8067	C	0.712004	0.087075	0.250694
	C8068	C	0.652600	0.096642	0.530149
	C8069	C	0.715643	0.034762	0.461044
	C8070	C	0.659578	0.090548	-0.019263
	C8071	C	0.722171	0.028217	-0.040663
	C8072	C	0.659126	0.090123	0.530328
	C8073	C	0.722195	0.028257	0.460694
	C8074	C	0.653051	0.097075	-0.019219
	C8075	C	0.715641	0.034737	-0.040753
	C8076	C	0.659263	0.034754	0.241794
	C8077	C	0.722112	0.096900	0.300122
	C8078	C	0.653242	0.027736	0.258556
	C8079	C	0.715355	0.090638	0.201217
	C8080	C	0.652708	0.028263	0.241404
	C8081	C	0.715574	0.090408	0.299959
	C8082	C	0.659782	0.034244	0.258989
	C8083	C	0.721887	0.097141	0.201185
	N8084	N	0.632500	0.117373	0.453458
	N8085	N	0.695051	0.055049	0.453634
	N8086	N	0.679954	0.070099	0.047850
	N8087	N	0.742388	0.007511	0.048062
	N8088	N	0.679967	0.070095	0.453010
	N8089	N	0.742368	0.007564	0.452285
	N8090	N	0.632564	0.117544	0.048066
	N8091	N	0.695010	0.054951	0.048237
	N8092	N	0.679945	0.054930	0.203287
	N8093	N	0.742344	0.117547	0.203025
	N8094	N	0.632540	0.007538	0.297189
	N8095	N	0.694976	0.070115	0.298039
	N8096	N	0.632543	0.007530	0.202424
	N8097	N	0.694993	0.070103	0.203499
	N8098	N	0.679989	0.054886	0.298136
	N8099	N	0.742455	0.117445	0.297517
	H8100	H	0.639531	0.110282	0.852224
	H8101	H	0.702199	0.047864	0.852586
	H8102	H	0.672751	0.077152	0.648685
	H8103	H	0.735399	0.014831	0.648554
	H8104	H	0.672864	0.077266	0.851814
	H8105	H	0.735442	0.014861	0.852114
	H8106	H	0.639747	0.110338	0.649621
	H8107	H	0.702160	0.047846	0.648800
	H8108	H	0.672823	0.047769	0.602353
	H8109	H	0.735173	0.110441	0.601139
	H8110	H	0.639551	0.014715	0.898517
	H8111	H	0.702172	0.077148	0.898575
	H8112	H	0.639721	0.014686	0.601681
	H8113	H	0.702141	0.077155	0.600924
	H8114	H	0.672918	0.047846	0.900365
	H8115	H	0.735335	0.110264	0.898893
	H8116	H	0.650290	0.099508	1.036650
	H8117	H	0.712594	0.036616	1.075189
	H8118	H	0.662803	0.088816	0.448152
	H8119	H	0.724064	0.025170	0.569321
	H8120	H	0.661848	0.088017	1.037089
	H8121	H	0.724199	0.025153	1.075491
	H8122	H	0.651225	0.100297	0.448407
	H8123	H	0.712489	0.036633	0.569564
	H8124	H	0.661408	0.037625	0.818374
	H8125	H	0.724552	0.099420	0.703495
	H8126	H	0.650978	0.025042	0.684618
	H8127	H	0.712833	0.088234	0.796276
	H8128	H	0.649825	0.026097	0.816446
	H8129	H	0.713090	0.087822	0.703071
	H8130	H	0.662593	0.036481	0.685608
	H8131	H	0.724332	0.099756	0.796888
	Co8132	Co	0.749960	0.125072	0.625062
	Co8133	Co	0.687472	0.062482	0.625359
	Co8134	Co	0.625079	-0.000049	0.874804
	Co8135	Co	0.687545	0.062536	0.875636
	C8136	C	0.638484	0.111431	0.924707
	C8137	C	0.701062	0.048961	0.924827
	C8138	C	0.673940	0.076072	0.576353
	C8139	C	0.736450	0.013662	0.575971
	C8140	C	0.673962	0.076144	0.924584
	C8141	C	0.736488	0.013648	0.924548
	C8142	C	0.638573	0.111432	0.576985
	C8143	C	0.701020	0.048962	0.576308
	C8144	C	0.673956	0.048916	0.675148
	C8145	C	0.736367	0.111518	0.673715
	C8146	C	0.638503	0.013601	0.825976
	C8147	C	0.701073	0.076065	0.825942
	C8148	C	0.638585	0.013563	0.674175
	C8149	C	0.701025	0.076060	0.673964
	C8150	C	0.673954	0.048965	0.827458
	C8151	C	0.736449	0.111407	0.826063
	C8152	C	0.642623	0.107399	1.000880
	C8153	C	0.705095	0.044866	0.500275
	C8154	C	0.669856	0.080210	1.000756
	C8155	C	0.732294	0.017721	0.499761
	C8156	C	0.669826	0.044876	0.751404
	C8157	C	0.732314	0.107417	0.749938
	C8158	C	0.642610	0.017694	0.750430
	C8159	C	0.705153	0.080153	0.749814
	C8160	C	0.649492	0.100488	1.000799
	C8161	C	0.711998	0.038000	0.500118
	C8162	C	0.662960	0.087098	1.000767
	C8163	C	0.725431	0.024629	0.499774
	C8164	C	0.662930	0.037994	0.751764
	C8165	C	0.725412	0.100532	0.750189
	C8166	C	0.649479	0.024595	0.750868
	C8167	C	0.712018	0.087079	0.749840
	C8168	C	0.652864	0.097021	1.020841
	C8169	C	0.715268	0.034293	1.042577
	C8170	C	0.659960	0.090938	0.471411
	C8171	C	0.721774	0.027846	0.539175
	C8172	C	0.659388	0.090497	1.020990
	C8173	C	0.721808	0.027778	1.042618
	C8174	C	0.653418	0.097456	0.471338
	C8175	C	0.715219	0.034355	0.539144
	C8176	C	0.659166	0.034860	0.788787
	C8177	C	0.722025	0.096976	0.724123
	C8178	C	0.653263	0.027722	0.714008
	C8179	C	0.715376	0.090631	0.775868
	C8180	C	0.652619	0.028350	0.788242
	C8181	C	0.715506	0.090444	0.724081
	C8182	C	0.659797	0.034243	0.714382
	C8183	C	0.721878	0.097165	0.776153
	N8184	N	0.632496	0.117472	0.953123
	N8185	N	0.695052	0.054983	0.953593
	N8186	N	0.679925	0.070038	0.547838
	N8187	N	0.742406	0.007600	0.547073
	N8188	N	0.679983	0.070134	0.953099
	N8189	N	0.742480	0.007608	0.953163
	N8190	N	0.632556	0.117402	0.548219
	N8191	N	0.695034	0.054981	0.547805
	N8192	N	0.679974	0.054902	0.703582
	N8193	N	0.742431	0.117488	0.702523
	N8194	N	0.632551	0.007536	0.796985
	N8195	N	0.695047	0.070074	0.797394
	N8196	N	0.632607	0.007515	0.702657
	N8197	N	0.695021	0.070066	0.702896
	N8198	N	0.679978	0.054935	0.798359
	N8199	N	0.742488	0.117405	0.797526
	H8200	H	0.639521	0.235177	0.351933
	H8201	H	0.702170	0.172982	0.351398
	H8202	H	0.672835	0.202230	0.149519
	H8203	H	0.735404	0.139775	0.148751
	H8204	H	0.672876	0.202315	0.352078
	H8205	H	0.735244	0.139616	0.350764
	H8206	H	0.639775	0.235495	0.149609
	H8207	H	0.702159	0.172747	0.148400
	H8208	H	0.672786	0.172895	0.101588
	H8209	H	0.735470	0.235231	0.101213
	H8210	H	0.639529	0.139895	0.399449
	H8211	H	0.702102	0.202308	0.398835
	H8212	H	0.639813	0.139589	0.101613
	H8213	H	0.702350	0.202039	0.100724
	H8214	H	0.672966	0.172796	0.398862
	H8215	H	0.735378	0.235362	0.398743
	H8216	H	0.649541	0.223536	0.553924
	H8217	H	0.712486	0.161609	0.610774
	H8218	H	0.662156	0.213196	-0.084040
	H8219	H	0.724283	0.150192	-0.043860
	H8220	H	0.661231	0.212212	0.553486
	H8221	H	0.724064	0.150150	0.610543
	H8222	H	0.650635	0.224665	-0.083872
	H8223	H	0.712733	0.161712	-0.044869
	H8224	H	0.662976	0.161041	0.241542
	H8225	H	0.724151	0.224975	0.201830
	H8226	H	0.649614	0.151513	0.258942
	H8227	H	0.713503	0.212548	0.299170
	H8228	H	0.651379	0.149612	0.240747
	H8229	H	0.712574	0.213486	0.201231
	H8230	H	0.661197	0.162960	0.258884
	H8231	H	0.725006	0.224029	0.299518
	Co8232	Co	0.749954	0.250048	0.124746
	Co8233	Co	0.687596	0.187475	0.125331
	Co8234	Co	0.625037	0.125043	0.375647
	Co8235	Co	0.687524	0.187599	0.375358
	C8236	C	0.638504	0.236386	0.424038
	C8237	C	0.701072	0.174045	0.424119
	C8238	C	0.674000	0.201082	0.076777
	C8239	C	0.736453	0.138635	0.075923
	C8240	C	0.674020	0.201177	0.424307
	C8241	C	0.736370	0.138569	0.423668
	C8242	C	0.638632	0.236506	0.076546
	C8243	C	0.701036	0.173872	0.075755
	C8244	C	0.673964	0.173992	0.174188
	C8245	C	0.736517	0.236427	0.173795
	C8246	C	0.638503	0.138714	0.326668
	C8247	C	0.701006	0.201186	0.325974
	C8248	C	0.638636	0.138567	0.174415
	C8249	C	0.701112	0.201067	0.173732
	C8250	C	0.674058	0.173930	0.326250
	C8251	C	0.736490	0.236448	0.326035
	C8252	C	0.642603	0.232337	0.500266
	C8253	C	0.705093	0.169781	-0.000225
	C8254	C	0.669959	0.205270	0.500468
	C8255	C	0.732329	0.142669	-0.000158
	C8256	C	0.669928	0.169846	0.250146
	C8257	C	0.732439	0.232336	0.249974
	C8258	C	0.642672	0.142735	0.250398
	C8259	C	0.705138	0.205239	0.249748
	C8260	C	0.649484	0.225436	0.500424
	C8261	C	0.712017	0.162947	-0.000419
	C8262	C	0.663014	0.212104	0.500693
	C8263	C	0.725422	0.149536	-0.000570
	C8264	C	0.663039	0.162958	0.250146
	C8265	C	0.725542	0.225454	0.250388
	C8266	C	0.649559	0.149612	0.249794
	C8267	C	0.712083	0.212066	0.249961
	C8268	C	0.652484	0.221526	0.530355
	C8269	C	0.715179	0.159287	0.562025
	C8270	C	0.659606	0.215555	-0.046831
	C8271	C	0.721852	0.152838	-0.025175
	C8272	C	0.659057	0.215046	0.530545
	C8273	C	0.721742	0.152805	0.561986
	C8274	C	0.653088	0.222105	-0.046866
	C8275	C	0.715321	0.159354	-0.025060
	C8276	C	0.660072	0.159004	0.244780
	C8277	C	0.721837	0.222270	0.222876
	C8278	C	0.652529	0.153563	0.255151
	C8279	C	0.715792	0.215240	0.277729
	C8280	C	0.653514	0.152504	0.244681
	C8281	C	0.715297	0.215754	0.222566
	C8282	C	0.659077	0.160067	0.254947
	C8283	C	0.722313	0.221757	0.277658
	N8284	N	0.632527	0.242435	0.452670
	N8285	N	0.695087	0.180071	0.453139
	N8286	N	0.680032	0.195090	0.048037
	N8287	N	0.742438	0.132610	0.047226
	N8288	N	0.680035	0.195173	0.453120
	N8289	N	0.742413	0.132592	0.452194
	N8290	N	0.632602	0.242484	0.047511
	N8291	N	0.695054	0.179912	0.047341
	N8292	N	0.679978	0.179993	0.202677
	N8293	N	0.742473	0.242480	0.202499
	N8294	N	0.632535	0.132674	0.297979
	N8295	N	0.695005	0.195167	0.297301
	N8296	N	0.632612	0.132584	0.203044
	N8297	N	0.695074	0.195096	0.202653
	N8298	N	0.680044	0.179951	0.297503
	N8299	N	0.742439	0.242503	0.297351
	H8300	H	0.639637	0.235261	0.851216
	H8301	H	0.702218	0.172858	0.851699
	H8302	H	0.673009	0.202310	0.648839
	H8303	H	0.735374	0.139815	0.648773
	H8304	H	0.672683	0.202009	0.852070
	H8305	H	0.735334	0.139619	0.851409
	H8306	H	0.639601	0.235318	0.648475
	H8307	H	0.701992	0.172735	0.648621
	H8308	H	0.672898	0.172815	0.600989
	H8309	H	0.735396	0.235329	0.600976
	H8310	H	0.639675	0.139811	0.899029
	H8311	H	0.702197	0.202320	0.898637
	H8312	H	0.639690	0.139686	0.600607
	H8313	H	0.702081	0.202315	0.601936
	H8314	H	0.672894	0.172738	0.899006
	H8315	H	0.735392	0.235276	0.899466
	H8316	H	0.650328	0.224321	1.084349
	H8317	H	0.713185	0.162278	1.043767
	H8318	H	0.662922	0.213908	0.446596
	H8319	H	0.724939	0.150923	0.389866
	H8320	H	0.661872	0.212817	1.085575
	H8321	H	0.724705	0.150709	1.043433
	H8322	H	0.651322	0.225358	0.446981
	H8323	H	0.713392	0.162422	0.389947
	H8324	H	0.662846	0.161271	0.731809
	H8325	H	0.724222	0.224912	0.766595
	H8326	H	0.649708	0.151282	0.768439
	H8327	H	0.713381	0.212702	0.733523
	H8328	H	0.651291	0.149794	0.730992
	H8329	H	0.712603	0.213469	0.766507
	H8330	H	0.661325	0.162748	0.768209
	H8331	H	0.724988	0.224099	0.733506
	Co8332	Co	0.750024	0.250054	0.624796
	Co8333	Co	0.687527	0.187570	0.626045
	Co8334	Co	0.625000	0.125101	0.875366
	Co8335	Co	0.687508	0.187524	0.875239
	C8336	C	0.638557	0.236406	0.924164
	C8337	C	0.701041	0.173923	0.924147
	C8338	C	0.674075	0.201202	0.576325
	C8339	C	0.736439	0.138654	0.575859
	C8340	C	0.673921	0.200976	0.924629
	C8341	C	0.736426	0.138557	0.924019
	C8342	C	0.638511	0.236446	0.576173
	C8343	C	0.700978	0.173911	0.576149
	C8344	C	0.673960	0.173970	0.673864
	C8345	C	0.736504	0.236437	0.674050
	C8346	C	0.638514	0.138668	0.825906
	C8347	C	0.701093	0.201140	0.826073
	C8348	C	0.638540	0.138614	0.673602
	C8349	C	0.701031	0.201152	0.674395
	C8350	C	0.673965	0.173928	0.826306
	C8351	C	0.736513	0.236402	0.826582
	C8352	C	0.642691	0.232344	1.000406
	C8353	C	0.705096	0.169886	0.500046
	C8354	C	0.669875	0.205158	1.000634
	C8355	C	0.732343	0.142676	0.499699
	C8356	C	0.669883	0.169863	0.749835
	C8357	C	0.732450	0.232326	0.750297
	C8358	C	0.642611	0.142745	0.749730
	C8359	C	0.705152	0.205223	0.750094
	C8360	C	0.649555	0.225448	1.000396
	C8361	C	0.711974	0.162974	0.500074
	C8362	C	0.662973	0.212010	1.000527
	C8363	C	0.725455	0.149573	0.499944
	C8364	C	0.663013	0.162953	0.749454
	C8365	C	0.725507	0.225463	0.750009
	C8366	C	0.649556	0.149588	0.749697
	C8367	C	0.712058	0.212120	0.750112
	C8368	C	0.652922	0.221885	1.047570
	C8369	C	0.715580	0.159643	1.024301
	C8370	C	0.660000	0.216000	0.470504
	C8371	C	0.722227	0.153267	0.438187
	C8372	C	0.659431	0.215335	1.047945
	C8373	C	0.722114	0.153129	1.024158
	C8374	C	0.653432	0.222476	0.470592
	C8375	C	0.715671	0.159756	0.438360
	C8376	C	0.660000	0.159102	0.739314
	C8377	C	0.721817	0.222263	0.759339
	C8378	C	0.652591	0.153425	0.760037
	C8379	C	0.715737	0.215335	0.740671
	C8380	C	0.653448	0.152602	0.739307
	C8381	C	0.715288	0.215767	0.759531
	C8382	C	0.659134	0.159936	0.760045
	C8383	C	0.722267	0.221827	0.740590
	N8384	N	0.632579	0.242438	0.952606
	N8385	N	0.695034	0.179918	0.952802
	N8386	N	0.680066	0.195188	0.547706
	N8387	N	0.742447	0.132628	0.547304
	N8388	N	0.679970	0.195042	0.953275
	N8389	N	0.742419	0.132546	0.952559
	N8390	N	0.632528	0.242473	0.547360
	N8391	N	0.695027	0.179987	0.547712
	N8392	N	0.679893	0.180040	0.702816
	N8393	N	0.742479	0.242507	0.702894
	N8394	N	0.632517	0.132649	0.797328
	N8395	N	0.695102	0.195092	0.798038
	N8396	N	0.632530	0.132618	0.702384
	N8397	N	0.695073	0.195097	0.703448
	N8398	N	0.679911	0.180010	0.797551
	N8399	N	0.742475	0.242487	0.797822
	H8400	H	0.639678	0.360271	0.351219
	H8401	H	0.702152	0.297844	0.350083
	H8402	H	0.672912	0.327287	0.148497
	H8403	H	0.735324	0.264647	0.148584
	H8404	H	0.672623	0.326994	0.351405
	H8405	H	0.735455	0.264845	0.351421
	H8406	H	0.639701	0.360354	0.148453
	H8407	H	0.702209	0.297905	0.148708
	H8408	H	0.672897	0.297798	0.100605
	H8409	H	0.735482	0.360219	0.100663
	H8410	H	0.639644	0.264813	0.398594
	H8411	H	0.702183	0.327205	0.398141
	H8412	H	0.639761	0.264642	0.101738
	H8413	H	0.702185	0.327139	0.100423
	H8414	H	0.672732	0.297926	0.398001
	H8415	H	0.735247	0.360411	0.398223
	H8416	H	0.650699	0.349662	0.546275
	H8417	H	0.712447	0.286421	0.488504
	H8418	H	0.661776	0.337829	-0.051334
	H8419	H	0.724404	0.275327	-0.060743
	H8420	H	0.662205	0.338136	0.546751
	H8421	H	0.724050	0.275026	0.488651
	H8422	H	0.650350	0.349403	-0.051395
	H8423	H	0.712861	0.286841	-0.062023
	H8424	H	0.661792	0.287244	0.317520
	H8425	H	0.724584	0.349401	0.234560
	H8426	H	0.650706	0.275354	0.180805
	H8427	H	0.712930	0.338039	0.265018
	H8428	H	0.650279	0.275706	0.318451
	H8429	H	0.713068	0.337916	0.235026
	H8430	H	0.662175	0.286921	0.180101
	H8431	H	0.724458	0.349568	0.264250
	Co8432	Co	0.749995	0.375006	0.124450
	Co8433	Co	0.687458	0.312503	0.124156
	Co8434	Co	0.625033	0.250050	0.374893
	Co8435	Co	0.687503	0.312500	0.374571
	C8436	C	0.638556	0.361428	0.423639
	C8437	C	0.701025	0.298916	0.423076
	C8438	C	0.673960	0.326114	0.075793
	C8439	C	0.736423	0.263591	0.076085
	C8440	C	0.673891	0.325997	0.424079
	C8441	C	0.736517	0.263683	0.424174
	C8442	C	0.638566	0.361472	0.075892
	C8443	C	0.701073	0.298987	0.075870
	C8444	C	0.673949	0.298960	0.173296
	C8445	C	0.736517	0.361363	0.173346
	C8446	C	0.638533	0.263684	0.326258
	C8447	C	0.701076	0.326081	0.325465
	C8448	C	0.638587	0.263586	0.174079
	C8449	C	0.701056	0.326046	0.173280
	C8450	C	0.673867	0.299022	0.325300
	C8451	C	0.736377	0.361462	0.325568
	C8452	C	0.642695	0.357380	0.499799
	C8453	C	0.705100	0.294853	-0.000101
	C8454	C	0.669908	0.330182	0.499987
	C8455	C	0.732366	0.267727	0.000297
	C8456	C	0.669801	0.294910	0.249327
	C8457	C	0.732345	0.357334	0.249274
	C8458	C	0.642637	0.267736	0.249899
	C8459	C	0.705107	0.330131	0.249386
	C8460	C	0.649608	0.350528	0.499960
	C8461	C	0.711965	0.287939	0.000337
	C8462	C	0.663008	0.337077	0.500318
	C8463	C	0.725427	0.274575	0.000637
	C8464	C	0.662943	0.288006	0.249438
	C8465	C	0.725476	0.350433	0.249117
	C8466	C	0.649555	0.274580	0.249683
	C8467	C	0.712011	0.337016	0.249586
	C8468	C	0.653138	0.347147	0.526163
	C8469	C	0.715186	0.284210	0.493380
	C8470	C	0.659386	0.340406	-0.029067
	C8471	C	0.721936	0.277920	-0.034089
	C8472	C	0.659628	0.340587	0.526283
	C8473	C	0.721758	0.277726	0.493923
	C8474	C	0.652892	0.346957	-0.029156
	C8475	C	0.715391	0.284417	-0.034307
	C8476	C	0.659391	0.284645	0.287780
	C8477	C	0.722086	0.346928	0.240861
	C8478	C	0.653107	0.277936	0.211190
	C8479	C	0.715450	0.340525	0.257986
	C8480	C	0.652882	0.278105	0.288044
	C8481	C	0.715540	0.340436	0.241149
	C8482	C	0.659614	0.284473	0.210848
	C8483	C	0.721994	0.347032	0.257696
	N8484	N	0.632554	0.367462	0.452172
	N8485	N	0.695022	0.304906	0.452026
	N8486	N	0.679965	0.320096	0.047006
	N8487	N	0.742434	0.257601	0.046978
	N8488	N	0.679947	0.320043	0.452538
	N8489	N	0.742459	0.257611	0.452822
	N8490	N	0.632493	0.367428	0.047291
	N8491	N	0.695067	0.305004	0.046819
	N8492	N	0.679938	0.304987	0.202067
	N8493	N	0.742489	0.367380	0.202329
	N8494	N	0.632521	0.257670	0.297691
	N8495	N	0.695036	0.320086	0.297018
	N8496	N	0.632554	0.257617	0.202771
	N8497	N	0.695030	0.320043	0.201938
	N8498	N	0.679878	0.305028	0.296850
	N8499	N	0.742399	0.367431	0.296950
	H8500	H	0.639588	0.360380	0.851061
	H8501	H	0.702119	0.297779	0.850545
	H8502	H	0.673109	0.327426	0.648459
	H8503	H	0.735321	0.264728	0.648843
	H8504	H	0.672578	0.327010	0.851169
	H8505	H	0.735538	0.264942	0.851459
	H8506	H	0.639835	0.360560	0.648101
	H8507	H	0.702047	0.297732	0.648646
	H8508	H	0.672869	0.297927	0.600678
	H8509	H	0.735179	0.360630	0.600399
	H8510	H	0.639708	0.264624	0.899094
	H8511	H	0.702346	0.327108	0.897961
	H8512	H	0.639631	0.264827	0.600524
	H8513	H	0.702015	0.327359	0.600543
	H8514	H	0.672778	0.298016	0.899105
	H8515	H	0.735500	0.360203	0.897679
	H8516	H	0.650668	0.349732	1.050628
	H8517	H	0.712953	0.287090	1.062579
	H8518	H	0.661935	0.337932	0.453833
	H8519	H	0.725020	0.276099	0.510751
	H8520	H	0.662139	0.338145	1.050450
	H8521	H	0.724530	0.275606	1.062289
	H8522	H	0.650473	0.349505	0.453244
	H8523	H	0.713412	0.287540	0.509835
	H8524	H	0.662248	0.286868	0.780910
	H8525	H	0.724194	0.349931	0.728896
	H8526	H	0.650184	0.275832	0.719953
	H8527	H	0.713333	0.337664	0.769081
	H8528	H	0.650769	0.275316	0.780702
	H8529	H	0.712681	0.338378	0.728914
	H8530	H	0.661694	0.287410	0.719894
	H8531	H	0.724887	0.349191	0.768835
	Co8532	Co	0.750004	0.375146	0.624310
	Co8533	Co	0.687536	0.312505	0.624865
	Co8534	Co	0.625012	0.250014	0.875016
	Co8535	Co	0.687516	0.312557	0.874528
	C8536	C	0.638510	0.361462	0.923562
	C8537	C	0.701028	0.298926	0.923413
	C8538	C	0.674127	0.326204	0.575724
	C8539	C	0.736447	0.263610	0.576181
	C8540	C	0.673795	0.325963	0.923717
	C8541	C	0.736536	0.263734	0.924112
	C8542	C	0.638646	0.361556	0.575688
	C8543	C	0.700988	0.298858	0.575521
	C8544	C	0.673911	0.298994	0.673834
	C8545	C	0.736377	0.361657	0.673017
	C8546	C	0.638551	0.263588	0.826222
	C8547	C	0.701168	0.326043	0.825178
	C8548	C	0.638510	0.263676	0.673709
	C8549	C	0.701005	0.326179	0.673131
	C8550	C	0.673871	0.299047	0.826318
	C8551	C	0.736537	0.361441	0.825360
	C8552	C	0.642667	0.357417	0.999589
	C8553	C	0.705108	0.294788	0.499219
	C8554	C	0.669784	0.330105	0.999791
	C8555	C	0.732381	0.267739	0.500204
	C8556	C	0.669793	0.294962	0.750098
	C8557	C	0.732353	0.357431	0.749052
	C8558	C	0.642598	0.267748	0.750096
	C8559	C	0.705192	0.330212	0.749069
	C8560	C	0.649557	0.350519	0.999485
	C8561	C	0.712008	0.287953	0.499371
	C8562	C	0.662898	0.337017	0.999690
	C8563	C	0.725504	0.274611	0.500211
	C8564	C	0.662919	0.288052	0.750442
	C8565	C	0.725490	0.350537	0.748951
	C8566	C	0.649490	0.274631	0.750263
	C8567	C	0.712076	0.337095	0.748936
	C8568	C	0.653063	0.347142	1.028039
	C8569	C	0.715438	0.284553	1.035244
	C8570	C	0.659503	0.340486	0.474124
	C8571	C	0.722304	0.278349	0.506130
	C8572	C	0.659566	0.340597	1.028367
	C8573	C	0.721984	0.278052	1.035353
	C8574	C	0.652987	0.347029	0.474018
	C8575	C	0.715716	0.284821	0.505624
	C8576	C	0.659611	0.284443	0.767392
	C8577	C	0.721877	0.347282	0.737759
	C8578	C	0.652801	0.278209	0.733512
	C8579	C	0.715701	0.340348	0.760260
	C8580	C	0.653106	0.277904	0.767446
	C8581	C	0.715337	0.340754	0.737631
	C8582	C	0.659299	0.284761	0.733467
	C8583	C	0.722238	0.346882	0.760036
	N8584	N	0.632452	0.367420	0.952484
	N8585	N	0.695052	0.304972	0.951762
	N8586	N	0.680092	0.320158	0.547042
	N8587	N	0.742425	0.257584	0.547514
	N8588	N	0.679867	0.320010	0.952246
	N8589	N	0.742498	0.257678	0.952485
	N8590	N	0.632602	0.367532	0.546875
	N8591	N	0.695003	0.304876	0.546869
	N8592	N	0.679942	0.304987	0.702514
	N8593	N	0.742383	0.367648	0.702016
	N8594	N	0.632550	0.257601	0.797347
	N8595	N	0.695131	0.320062	0.796659
	N8596	N	0.632506	0.257661	0.702320
	N8597	N	0.695040	0.320150	0.702177
	N8598	N	0.679912	0.305020	0.797394
	N8599	N	0.742485	0.367501	0.796838
	H8600	H	0.639688	0.485325	0.350807
	H8601	H	0.702022	0.422867	0.350480
	H8602	H	0.672547	0.451989	0.148786
	H8603	H	0.735303	0.389577	0.147998
	H8604	H	0.672933	0.452245	0.351150
	H8605	H	0.735201	0.389562	0.350286
	H8606	H	0.639792	0.485447	0.147938
	H8607	H	0.702203	0.422917	0.148030
	H8608	H	0.672813	0.422850	0.100197
	H8609	H	0.735512	0.485278	0.100407
	H8610	H	0.639617	0.389731	0.398668
	H8611	H	0.702052	0.452299	0.398388
	H8612	H	0.639897	0.389365	0.101078
	H8613	H	0.702177	0.452153	0.100319
	H8614	H	0.672755	0.422877	0.398015
	H8615	H	0.735409	0.485373	0.397502
	H8616	H	0.650776	0.474778	0.507212
	H8617	H	0.713126	0.412190	0.592846
	H8618	H	0.662273	0.463227	0.076737
	H8619	H	0.724466	0.400390	0.065981
	H8620	H	0.662371	0.463290	0.507952
	H8621	H	0.724586	0.400605	0.592663
	H8622	H	0.650772	0.474794	0.077079
	H8623	H	0.712957	0.411894	0.066710
	H8624	H	0.661518	0.412465	0.205678
	H8625	H	0.724738	0.474381	0.171921
	H8626	H	0.651071	0.399987	0.292697
	H8627	H	0.712898	0.463092	0.326530
	H8628	H	0.650071	0.400843	0.206176
	H8629	H	0.713213	0.462865	0.171999
	H8630	H	0.662556	0.411552	0.292823
	H8631	H	0.724480	0.474566	0.325498
	Co8632	Co	0.750001	0.500071	0.123706
	Co8633	Co	0.687477	0.437542	0.124144
	Co8634	Co	0.624994	0.374990	0.374740
	Co8635	Co	0.687494	0.437532	0.374320
	C8636	C	0.638566	0.486424	0.423482
	C8637	C	0.700996	0.423979	0.422801
	C8638	C	0.673804	0.451005	0.075613
	C8639	C	0.736427	0.388532	0.075258
	C8640	C	0.673994	0.451124	0.424236
	C8641	C	0.736343	0.388486	0.422833
	C8642	C	0.638598	0.486511	0.075215
	C8643	C	0.701076	0.423989	0.075705
	C8644	C	0.673934	0.423969	0.173293
	C8645	C	0.736549	0.486431	0.173111
	C8646	C	0.638558	0.388568	0.325847
	C8647	C	0.701008	0.451136	0.325499
	C8648	C	0.638683	0.388397	0.173609
	C8649	C	0.701082	0.451057	0.173109
	C8650	C	0.673916	0.423983	0.325396
	C8651	C	0.736490	0.486464	0.324973
	C8652	C	0.642647	0.482319	0.499600
	C8653	C	0.705131	0.419842	0.000020
	C8654	C	0.669870	0.455169	0.500197
	C8655	C	0.732324	0.392607	-0.000560
	C8656	C	0.669865	0.419869	0.249314
	C8657	C	0.732401	0.482367	0.248931
	C8658	C	0.642759	0.392551	0.249530
	C8659	C	0.705170	0.455156	0.249351
	C8660	C	0.649537	0.475448	0.499992
	C8661	C	0.712009	0.412916	0.000118
	C8662	C	0.662999	0.462056	0.500095
	C8663	C	0.725403	0.399495	-0.000207
	C8664	C	0.662999	0.412940	0.249180
	C8665	C	0.725540	0.475450	0.248818
	C8666	C	0.649656	0.399439	0.249359
	C8667	C	0.712089	0.462012	0.249378
	C8668	C	0.653158	0.472181	0.504077
	C8669	C	0.715549	0.409620	0.551102
	C8670	C	0.659616	0.465643	0.042581
	C8671	C	0.721953	0.402925	0.037190
	C8672	C	0.659709	0.465673	0.504297
	C8673	C	0.722023	0.403028	0.551063
	C8674	C	0.653096	0.472172	0.042558
	C8675	C	0.715449	0.409450	0.037454
	C8676	C	0.659274	0.409720	0.225063
	C8677	C	0.722187	0.471925	0.205809
	C8678	C	0.653348	0.402658	0.273406
	C8679	C	0.715486	0.465505	0.292396
	C8680	C	0.652782	0.403152	0.225143
	C8681	C	0.715636	0.465412	0.206009
	C8682	C	0.659830	0.409229	0.273344
	C8683	C	0.722020	0.472038	0.291947
	N8684	N	0.632553	0.492414	0.452164
	N8685	N	0.695012	0.429972	0.451973
	N8686	N	0.679860	0.445019	0.046860
	N8687	N	0.742504	0.382597	0.046598
	N8688	N	0.679996	0.445113	0.452733
	N8689	N	0.742375	0.382523	0.451781
	N8690	N	0.632596	0.492501	0.046692
	N8691	N	0.695085	0.430030	0.046882
	N8692	N	0.679897	0.430038	0.201886
	N8693	N	0.742520	0.492464	0.201742
	N8694	N	0.632512	0.382605	0.297234
	N8695	N	0.695017	0.445113	0.296770
	N8696	N	0.632580	0.382493	0.202631
	N8697	N	0.695055	0.445062	0.201643
	N8698	N	0.679893	0.430043	0.296651
	N8699	N	0.742488	0.492483	0.296334
	H8700	H	0.639527	0.485239	0.850133
	H8701	H	0.702190	0.422797	0.851512
	H8702	H	0.672751	0.452124	0.649126
	H8703	H	0.735093	0.389653	0.647508
	H8704	H	0.673005	0.452373	0.850008
	H8705	H	0.735430	0.389742	0.850540
	H8706	H	0.639650	0.485324	0.648383
	H8707	H	0.702318	0.422968	0.647512
	H8708	H	0.672720	0.423011	0.600901
	H8709	H	0.735344	0.485301	0.601284
	H8710	H	0.639832	0.389500	0.899300
	H8711	H	0.702149	0.452187	0.898170
	H8712	H	0.639640	0.389785	0.601023
	H8713	H	0.702174	0.452216	0.600479
	H8714	H	0.672910	0.422763	0.898582
	H8715	H	0.735285	0.485413	0.898314
	H8716	H	0.650228	0.474303	0.920575
	H8717	H	0.712961	0.412031	0.933951
	H8718	H	0.661655	0.462640	0.492932
	H8719	H	0.724214	0.400299	0.404011
	H8720	H	0.661744	0.462734	0.920955
	H8721	H	0.724489	0.400481	0.933785
	H8722	H	0.650156	0.474142	0.492457
	H8723	H	0.712802	0.411947	0.404298
	H8724	H	0.662699	0.411431	0.799494
	H8725	H	0.723872	0.475199	0.698778
	H8726	H	0.649813	0.401184	0.700438
	H8727	H	0.713650	0.462387	0.800880
	H8728	H	0.651210	0.399780	0.800462
	H8729	H	0.712312	0.463625	0.699238
	H8730	H	0.661284	0.412757	0.699626
	H8731	H	0.725196	0.473864	0.800993
	Co8732	Co	0.750002	0.499967	0.624118
	Co8733	Co	0.687532	0.437526	0.624733
	Co8734	Co	0.625010	0.375094	0.874924
	Co8735	Co	0.687536	0.437501	0.874482
	C8736	C	0.638462	0.486400	0.923046
	C8737	C	0.701084	0.423931	0.924157
	C8738	C	0.673933	0.451046	0.576146
	C8739	C	0.736299	0.388525	0.574981
	C8740	C	0.673984	0.451165	0.923133
	C8741	C	0.736481	0.388614	0.923256
	C8742	C	0.638551	0.486419	0.575762
	C8743	C	0.701131	0.424034	0.574874
	C8744	C	0.673870	0.424055	0.673655
	C8745	C	0.736467	0.486389	0.673588
	C8746	C	0.638671	0.388503	0.826417
	C8747	C	0.701031	0.451089	0.825428
	C8748	C	0.638585	0.388637	0.674102
	C8749	C	0.701042	0.451094	0.673179
	C8750	C	0.673975	0.423942	0.825875
	C8751	C	0.736430	0.486465	0.825657
	C8752	C	0.642599	0.482335	0.998967
	C8753	C	0.705171	0.419918	0.498606
	C8754	C	0.669831	0.455164	0.999272
	C8755	C	0.732250	0.392604	0.498523
	C8756	C	0.669805	0.419952	0.749779
	C8757	C	0.732376	0.482343	0.749626
	C8758	C	0.642695	0.392649	0.750602
	C8759	C	0.705120	0.455187	0.749292
	C8760	C	0.649509	0.475464	0.998781
	C8761	C	0.712031	0.413019	0.498461
	C8762	C	0.662929	0.462048	0.998990
	C8763	C	0.725374	0.399496	0.498093
	C8764	C	0.662919	0.413050	0.749550
	C8765	C	0.725473	0.475457	0.749661
	C8766	C	0.649542	0.399597	0.750600
	C8767	C	0.712024	0.462058	0.749756
	C8768	C	0.652837	0.471925	0.954857
	C8769	C	0.715466	0.409501	0.962871
	C8770	C	0.659344	0.465298	0.496060
	C8771	C	0.721832	0.402911	0.445237
	C8772	C	0.659343	0.465385	0.954927
	C8773	C	0.721980	0.402981	0.962635
	C8774	C	0.652780	0.471788	0.496061
	C8775	C	0.715339	0.409486	0.445455
	C8776	C	0.659877	0.409203	0.777873
	C8777	C	0.721646	0.472374	0.721189
	C8778	C	0.652616	0.403437	0.722089
	C8779	C	0.715832	0.465148	0.778496
	C8780	C	0.653377	0.402656	0.778424
	C8781	C	0.715108	0.465856	0.721391
	C8782	C	0.659120	0.409968	0.721546
	C8783	C	0.722374	0.471648	0.778469
	N8784	N	0.632518	0.492449	0.952032
	N8785	N	0.695110	0.429997	0.952354
	N8786	N	0.679956	0.445065	0.547363
	N8787	N	0.742335	0.382539	0.546716
	N8788	N	0.679959	0.445107	0.951877
	N8789	N	0.742533	0.382627	0.951767
	N8790	N	0.632550	0.492420	0.546986
	N8791	N	0.695086	0.429996	0.546396
	N8792	N	0.679943	0.429995	0.702333
	N8793	N	0.742499	0.492400	0.702244
	N8794	N	0.632641	0.382518	0.797294
	N8795	N	0.695051	0.445060	0.796598
	N8796	N	0.632584	0.382597	0.702467
	N8797	N	0.695057	0.445066	0.701955
	N8798	N	0.679998	0.429931	0.797131
	N8799	N	0.742464	0.492444	0.796930
	H8800	H	0.639655	0.610440	0.350722
	H8801	H	0.701875	0.547638	0.350861
	H8802	H	0.672740	0.577083	0.148686
	H8803	H	0.735332	0.514664	0.147725
	H8804	H	0.672665	0.577102	0.349668
	H8805	H	0.735251	0.514676	0.350377
	H8806	H	0.639467	0.610170	0.147912
	H8807	H	0.702342	0.548053	0.147706
	H8808	H	0.672835	0.547823	0.099756
	H8809	H	0.735110	0.610453	0.100318
	H8810	H	0.639729	0.514681	0.398234
	H8811	H	0.702053	0.577248	0.398369
	H8812	H	0.639612	0.514678	0.100501
	H8813	H	0.702358	0.577081	0.101080
	H8814	H	0.672879	0.547723	0.397776
	H8815	H	0.735396	0.610262	0.398574
	H8816	H	0.649713	0.599000	0.424605
	H8817	H	0.714072	0.538193	0.483154
	H8818	H	0.661569	0.587571	0.030172
	H8819	H	0.724453	0.525431	0.121677
	H8820	H	0.661169	0.587432	0.424061
	H8821	H	0.725699	0.526747	0.482938
	H8822	H	0.650076	0.599156	0.029800
	H8823	H	0.712902	0.536925	0.122213
	H8824	H	0.662651	0.536351	0.294244
	H8825	H	0.725010	0.599068	0.251980
	H8826	H	0.649888	0.526061	0.202330
	H8827	H	0.712533	0.588433	0.248359
	H8828	H	0.651121	0.524871	0.293956
	H8829	H	0.713519	0.587524	0.251501
	H8830	H	0.661443	0.537629	0.202373
	H8831	H	0.724135	0.599890	0.247895
	Co8832	Co	0.749923	0.625001	0.124418
	Co8833	Co	0.687492	0.562565	0.124070
	Co8834	Co	0.625045	0.500044	0.374485
	Co8835	Co	0.687442	0.562540	0.374034
	C8836	C	0.638486	0.611478	0.423690
	C8837	C	0.700895	0.548855	0.423462
	C8838	C	0.673847	0.576018	0.075709
	C8839	C	0.736454	0.513602	0.074830
	C8840	C	0.673858	0.576089	0.422857
	C8841	C	0.736403	0.513571	0.423257
	C8842	C	0.638445	0.611361	0.075436
	C8843	C	0.701072	0.549054	0.075234
	C8844	C	0.673952	0.548926	0.172759
	C8845	C	0.736299	0.611542	0.173114
	C8846	C	0.638624	0.513579	0.325405
	C8847	C	0.701011	0.576097	0.325703
	C8848	C	0.638580	0.513573	0.173272
	C8849	C	0.701147	0.576003	0.173532
	C8850	C	0.673975	0.548861	0.324927
	C8851	C	0.736450	0.611465	0.325725
	C8852	C	0.642557	0.607388	0.499928
	C8853	C	0.705079	0.544828	-0.000812
	C8854	C	0.669817	0.580224	0.499201
	C8855	C	0.732409	0.517755	-0.001440
	C8856	C	0.669902	0.544803	0.248630
	C8857	C	0.732292	0.607418	0.249668
	C8858	C	0.642661	0.517662	0.249342
	C8859	C	0.705180	0.580134	0.249748
	C8860	C	0.649474	0.600540	0.499853
	C8861	C	0.711987	0.537974	-0.001251
	C8862	C	0.662917	0.587095	0.499688
	C8863	C	0.725504	0.524606	-0.001420
	C8864	C	0.662995	0.537919	0.248341
	C8865	C	0.725482	0.600455	0.249830
	C8866	C	0.649563	0.524556	0.248990
	C8867	C	0.712114	0.586982	0.249685
	C8868	C	0.652508	0.596744	0.457667
	C8869	C	0.716085	0.535176	0.490582
	C8870	C	0.659236	0.590268	0.016657
	C8871	C	0.721974	0.527989	0.067678
	C8872	C	0.659060	0.590233	0.457344
	C8873	C	0.722662	0.528685	0.490394
	C8874	C	0.652720	0.596809	0.016523
	C8875	C	0.715416	0.534499	0.067739
	C8876	C	0.659881	0.534149	0.274292
	C8877	C	0.722321	0.596740	0.250724
	C8878	C	0.652671	0.528336	0.222914
	C8879	C	0.715305	0.590674	0.249111
	C8880	C	0.653338	0.527665	0.274447
	C8881	C	0.715811	0.590197	0.250727
	C8882	C	0.659216	0.534824	0.222694
	C8883	C	0.721827	0.597209	0.248813
	N8884	N	0.632447	0.617445	0.452561
	N8885	N	0.694935	0.554930	0.451851
	N8886	N	0.679870	0.570021	0.046727
	N8887	N	0.742487	0.507622	0.046100
	N8888	N	0.679883	0.570113	0.451613
	N8889	N	0.742428	0.507568	0.451782
	N8890	N	0.632520	0.617430	0.046782
	N8891	N	0.695029	0.555013	0.046437
	N8892	N	0.679964	0.554934	0.201492
	N8893	N	0.742325	0.617542	0.201697
	N8894	N	0.632608	0.507559	0.296991
	N8895	N	0.695009	0.570103	0.296810
	N8896	N	0.632600	0.507540	0.202129
	N8897	N	0.695103	0.570040	0.201920
	N8898	N	0.679978	0.554900	0.296406
	N8899	N	0.742408	0.617497	0.296710
	H8900	H	0.639910	0.610537	0.850886
	H8901	H	0.702082	0.547676	0.850391
	H8902	H	0.672851	0.577338	0.647981
	H8903	H	0.735489	0.514900	0.647941
	H8904	H	0.672765	0.577106	0.850907
	H8905	H	0.735505	0.514823	0.849721
	H8906	H	0.639662	0.610430	0.648826
	H8907	H	0.702172	0.548028	0.647760
	H8908	H	0.672805	0.547867	0.600666
	H8909	H	0.735285	0.610390	0.600092
	H8910	H	0.639584	0.514738	0.897840
	H8911	H	0.702050	0.577238	0.898251
	H8912	H	0.639826	0.514465	0.599957
	H8913	H	0.702230	0.577011	0.600746
	H8914	H	0.673064	0.547612	0.897471
	H8915	H	0.735336	0.610202	0.897906
	H8916	H	0.650778	0.599800	0.969786
	H8917	H	0.713027	0.537033	0.875117
	H8918	H	0.662711	0.588705	0.575370
	H8919	H	0.723336	0.524434	0.514871
	H8920	H	0.662280	0.588285	0.970097
	H8921	H	0.724581	0.525549	0.875086
	H8922	H	0.651208	0.600203	0.576051
	H8923	H	0.711702	0.535888	0.515311
	H8924	H	0.662173	0.536860	0.748708
	H8925	H	0.724491	0.599453	0.737420
	H8926	H	0.650361	0.525576	0.748458
	H8927	H	0.712850	0.588113	0.761389
	H8928	H	0.650610	0.525324	0.748197
	H8929	H	0.713050	0.587900	0.737087
	H8930	H	0.661922	0.537073	0.749181
	H8931	H	0.724403	0.599582	0.760810
	Co8932	Co	0.749933	0.625007	0.624597
	Co8933	Co	0.687460	0.562546	0.623954
	Co8934	Co	0.624955	0.500016	0.874536
	Co8935	Co	0.687465	0.562496	0.874272
	C8936	C	0.638655	0.611540	0.923203
	C8937	C	0.700959	0.548870	0.923089
	C8938	C	0.673955	0.576194	0.575334
	C8939	C	0.736508	0.513660	0.575240
	C8940	C	0.673853	0.576028	0.923370
	C8941	C	0.736563	0.513710	0.922435
	C8942	C	0.638476	0.611469	0.576130
	C8943	C	0.701055	0.549052	0.575205
	C8944	C	0.673947	0.548946	0.673185
	C8945	C	0.736400	0.611470	0.672625
	C8946	C	0.638503	0.513612	0.825034
	C8947	C	0.701039	0.576077	0.825699
	C8948	C	0.638625	0.513491	0.672935
	C8949	C	0.701107	0.575970	0.673413
	C8950	C	0.674063	0.548811	0.824908
	C8951	C	0.736431	0.611383	0.825082
	C8952	C	0.642620	0.607330	0.999433
	C8953	C	0.705113	0.544897	0.499459
	C8954	C	0.669751	0.580096	0.999663
	C8955	C	0.732337	0.517687	0.499239
	C8956	C	0.669902	0.544768	0.748980
	C8957	C	0.732300	0.607356	0.748895
	C8958	C	0.642638	0.517665	0.748865
	C8959	C	0.705164	0.580113	0.749547
	C8960	C	0.649484	0.600425	0.999529
	C8961	C	0.712001	0.538004	0.499424
	C8962	C	0.662867	0.586979	0.999890
	C8963	C	0.725491	0.524614	0.499359
	C8964	C	0.662990	0.537888	0.748904
	C8965	C	0.725413	0.600480	0.748887
	C8966	C	0.649560	0.524520	0.748774
	C8967	C	0.711987	0.587042	0.749440
	C8968	C	0.653098	0.597152	0.982887
	C8969	C	0.715493	0.534562	0.929570
	C8970	C	0.659894	0.590895	0.542228
	C8971	C	0.721375	0.527428	0.508281
	C8972	C	0.659621	0.590623	0.983086
	C8973	C	0.722061	0.528068	0.929371
	C8974	C	0.653375	0.597439	0.542349
	C8975	C	0.714787	0.533909	0.508188
	C8976	C	0.659610	0.534394	0.748805
	C8977	C	0.722009	0.596977	0.742450
	C8978	C	0.652950	0.528029	0.748719
	C8979	C	0.715395	0.590560	0.755918
	C8980	C	0.653064	0.527880	0.748720
	C8981	C	0.715470	0.590464	0.742664
	C8982	C	0.659494	0.534546	0.749036
	C8983	C	0.721918	0.597093	0.755629
	N8984	N	0.632630	0.617519	0.952117
	N8985	N	0.694959	0.554884	0.951617
	N8986	N	0.679950	0.570186	0.546534
	N8987	N	0.742491	0.507614	0.546765
	N8988	N	0.679877	0.570039	0.951786
	N8989	N	0.742519	0.507655	0.951343
	N8990	N	0.632449	0.617443	0.547214
	N8991	N	0.695048	0.555038	0.546421
	N8992	N	0.679928	0.554960	0.701591
	N8993	N	0.742396	0.617445	0.701733
	N8994	N	0.632516	0.507563	0.796615
	N8995	N	0.695079	0.570011	0.797092
	N8996	N	0.632595	0.507493	0.701880
	N8997	N	0.695121	0.569942	0.702455
	N8998	N	0.679989	0.554899	0.796181
	N8999	N	0.742436	0.617385	0.796481
	H9000	H	0.639770	0.735384	0.351619
	H9001	H	0.701985	0.672699	0.350763
	H9002	H	0.672653	0.701994	0.148624
	H9003	H	0.735134	0.639498	0.147411
	H9004	H	0.672984	0.702373	0.351091
	H9005	H	0.735096	0.639568	0.350851
	H9006	H	0.639532	0.735283	0.149110
	H9007	H	0.702329	0.672902	0.147575
	H9008	H	0.672874	0.672687	0.100794
	H9009	H	0.735347	0.735177	0.101067
	H9010	H	0.639690	0.639529	0.398697
	H9011	H	0.702082	0.702209	0.398300
	H9012	H	0.639487	0.639853	0.101379
	H9013	H	0.702178	0.702136	0.100360
	H9014	H	0.672676	0.672992	0.398832
	H9015	H	0.734985	0.735441	0.398647
	H9016	H	0.649734	0.723867	0.437835
	H9017	H	0.713295	0.662309	0.521105
	H9018	H	0.662315	0.713239	-0.032190
	H9019	H	0.724255	0.650277	0.024011
	H9020	H	0.661321	0.712400	0.437878
	H9021	H	0.724777	0.650724	0.520457
	H9022	H	0.650762	0.724770	-0.032045
	H9023	H	0.712836	0.661867	0.024299
	H9024	H	0.661976	0.661946	0.173340
	H9025	H	0.724033	0.724895	0.201125
	H9026	H	0.650465	0.650582	0.327369
	H9027	H	0.713353	0.712506	0.298511
	H9028	H	0.650472	0.650423	0.173603
	H9029	H	0.712499	0.713334	0.201745
	H9030	H	0.661949	0.662137	0.327267
	H9031	H	0.724859	0.724048	0.297568
	Co9032	Co	0.749950	0.749967	0.125663
	Co9033	Co	0.687478	0.687488	0.124424
	Co9034	Co	0.624913	0.624963	0.374500
	Co9035	Co	0.687476	0.687522	0.374255
	C9036	C	0.638578	0.736442	0.424240
	C9037	C	0.700938	0.673877	0.423632
	C9038	C	0.673843	0.700986	0.076001
	C9039	C	0.736274	0.638471	0.074605
	C9040	C	0.674015	0.701169	0.423822
	C9041	C	0.736291	0.638509	0.423623
	C9042	C	0.638468	0.736425	0.076335
	C9043	C	0.701127	0.673989	0.075296
	C9044	C	0.673955	0.673883	0.173494
	C9045	C	0.736451	0.736381	0.173411
	C9046	C	0.638566	0.638470	0.326204
	C9047	C	0.700986	0.701085	0.325341
	C9048	C	0.638473	0.638614	0.174003
	C9049	C	0.701041	0.701055	0.172729
	C9050	C	0.673849	0.674028	0.326095
	C9051	C	0.736260	0.736496	0.325846
	C9052	C	0.642521	0.732280	0.500474
	C9053	C	0.705118	0.669905	-0.000882
	C9054	C	0.669799	0.705150	0.499918
	C9055	C	0.732277	0.642587	-0.001758
	C9056	C	0.669785	0.669885	0.250008
	C9057	C	0.732297	0.732334	0.249300
	C9058	C	0.642621	0.642643	0.250266
	C9059	C	0.705088	0.705140	0.249190
	C9060	C	0.649396	0.725372	0.500224
	C9061	C	0.712011	0.663004	-0.001069
	C9062	C	0.662875	0.712004	0.499859
	C9063	C	0.725391	0.649481	-0.001651
	C9064	C	0.662892	0.663011	0.250109
	C9065	C	0.725402	0.725454	0.249024
	C9066	C	0.649457	0.649578	0.250356
	C9067	C	0.711974	0.712016	0.249631
	C9068	C	0.652526	0.721611	0.465282
	C9069	C	0.715606	0.659671	0.511729
	C9070	C	0.659650	0.715626	-0.018070
	C9071	C	0.721859	0.652874	0.012703
	C9072	C	0.659078	0.715115	0.465278
	C9073	C	0.722114	0.653129	0.511749
	C9074	C	0.653136	0.722173	-0.017752
	C9075	C	0.715379	0.659434	0.012819
	C9076	C	0.659441	0.659513	0.207185
	C9077	C	0.721715	0.722224	0.222099
	C9078	C	0.652927	0.653081	0.293568
	C9079	C	0.715672	0.715229	0.276750
	C9080	C	0.652934	0.652963	0.207081
	C9081	C	0.715186	0.715697	0.222688
	C9082	C	0.659446	0.659617	0.293266
	C9083	C	0.722207	0.721757	0.276495
	N9084	N	0.632578	0.742496	0.452429
	N9085	N	0.694999	0.679958	0.452423
	N9086	N	0.679853	0.695000	0.047234
	N9087	N	0.742303	0.632474	0.046366
	N9088	N	0.679965	0.695112	0.452376
	N9089	N	0.742342	0.632541	0.452166
	N9090	N	0.632470	0.742419	0.047535
	N9091	N	0.695077	0.680001	0.047168
	N9092	N	0.679957	0.679898	0.202133
	N9093	N	0.742414	0.742386	0.202796
	N9094	N	0.632566	0.632459	0.297419
	N9095	N	0.694990	0.695085	0.296460
	N9096	N	0.632531	0.632536	0.202636
	N9097	N	0.695010	0.695083	0.201810
	N9098	N	0.679893	0.679979	0.296955
	N9099	N	0.742302	0.742465	0.297838
	H9100	H	0.639712	0.735317	0.851381
	H9101	H	0.702028	0.672794	0.850900
	H9102	H	0.672501	0.701933	0.648902
	H9103	H	0.735394	0.639752	0.648977
	H9104	H	0.672889	0.702249	0.851045
	H9105	H	0.735386	0.639691	0.849524
	H9106	H	0.639427	0.735234	0.649196
	H9107	H	0.702186	0.672986	0.648680
	H9108	H	0.672887	0.672800	0.600428
	H9109	H	0.735442	0.735046	0.601942
	H9110	H	0.639684	0.639666	0.899034
	H9111	H	0.702335	0.701915	0.899194
	H9112	H	0.639629	0.639740	0.601319
	H9113	H	0.702074	0.702310	0.601649
	H9114	H	0.672667	0.672839	0.898611
	H9115	H	0.735203	0.735429	0.900037
	H9116	H	0.650185	0.724249	1.032147
	H9117	H	0.713184	0.662219	0.973452
	H9118	H	0.662585	0.713574	0.562047
	H9119	H	0.724070	0.650170	0.479248
	H9120	H	0.661689	0.712692	1.032017
	H9121	H	0.724589	0.650618	0.973068
	H9122	H	0.650919	0.724987	0.562493
	H9123	H	0.712549	0.661699	0.479047
	H9124	H	0.661419	0.662608	0.838376
	H9125	H	0.725294	0.723686	0.661539
	H9126	H	0.651070	0.649824	0.661556
	H9127	H	0.712255	0.713676	0.840164
	H9128	H	0.649875	0.651094	0.837891
	H9129	H	0.713783	0.712134	0.661683
	H9130	H	0.662609	0.661382	0.661552
	H9131	H	0.723737	0.725271	0.840484
	Co9132	Co	0.749898	0.749905	0.625365
	Co9133	Co	0.687451	0.687553	0.625095
	Co9134	Co	0.625013	0.624978	0.874859
	Co9135	Co	0.687407	0.687509	0.874774
	C9136	C	0.638552	0.736451	0.924077
	C9137	C	0.700964	0.673930	0.923462
	C9138	C	0.673769	0.700957	0.576067
	C9139	C	0.736422	0.638612	0.576090
	C9140	C	0.673961	0.701131	0.923755
	C9141	C	0.736431	0.638553	0.922253
	C9142	C	0.638413	0.736377	0.576201
	C9143	C	0.701037	0.674023	0.576002
	C9144	C	0.673977	0.673895	0.673238
	C9145	C	0.736459	0.736286	0.674861
	C9146	C	0.638606	0.638520	0.826040
	C9147	C	0.701119	0.700890	0.826556
	C9148	C	0.638553	0.638556	0.673993
	C9149	C	0.701009	0.701071	0.674263
	C9150	C	0.673841	0.673938	0.825762
	C9151	C	0.736340	0.736471	0.827509
	C9152	C	0.642614	0.732362	1.000265
	C9153	C	0.705067	0.669852	0.499820
	C9154	C	0.669837	0.705169	0.999914
	C9155	C	0.732252	0.642628	0.499922
	C9156	C	0.669819	0.669827	0.749368
	C9157	C	0.732309	0.732307	0.751207
	C9158	C	0.642677	0.642602	0.749893
	C9159	C	0.705158	0.705070	0.750598
	C9160	C	0.649502	0.725476	1.000370
	C9161	C	0.711965	0.662953	0.499843
	C9162	C	0.662927	0.712040	0.999994
	C9163	C	0.725353	0.649504	0.499771
	C9164	C	0.662922	0.662930	0.749530
	C9165	C	0.725457	0.725379	0.751152
	C9166	C	0.649546	0.649525	0.749806
	C9167	C	0.712063	0.711941	0.751031
	C9168	C	0.652776	0.721869	1.018124
	C9169	C	0.715565	0.659616	0.984763
	C9170	C	0.659749	0.715754	0.534836
	C9171	C	0.721704	0.652791	0.488224
	C9172	C	0.659296	0.715342	1.017867
	C9173	C	0.722041	0.653051	0.984301
	C9174	C	0.653196	0.722247	0.535081
	C9175	C	0.715204	0.659338	0.488289
	C9176	C	0.659173	0.659853	0.799312
	C9177	C	0.722443	0.721500	0.700722
	C9178	C	0.653303	0.652610	0.700282
	C9179	C	0.715056	0.715830	0.800993
	C9180	C	0.652664	0.653335	0.799473
	C9181	C	0.715941	0.714954	0.700972
	C9182	C	0.659815	0.659132	0.700204
	C9183	C	0.721570	0.722358	0.801264
	N9184	N	0.632530	0.742458	0.952523
	N9185	N	0.694967	0.679938	0.952368
	N9186	N	0.679847	0.695010	0.547257
	N9187	N	0.742429	0.632619	0.546944
	N9188	N	0.679926	0.695081	0.952526
	N9189	N	0.742402	0.632514	0.951424
	N9190	N	0.632486	0.742459	0.547127
	N9191	N	0.695049	0.680042	0.547146
	N9192	N	0.679949	0.679900	0.702318
	N9193	N	0.742436	0.742335	0.703426
	N9194	N	0.632580	0.632510	0.797430
	N9195	N	0.695071	0.694931	0.797447
	N9196	N	0.632559	0.632518	0.702601
	N9197	N	0.695012	0.695039	0.702839
	N9198	N	0.679873	0.679932	0.797130
	N9199	N	0.742355	0.742453	0.798270
	H9200	H	0.639528	0.860171	0.352181
	H9201	H	0.702070	0.797743	0.350371
	H9202	H	0.672516	0.827022	0.148186
	H9203	H	0.735254	0.764526	0.150354
	H9204	H	0.672771	0.827146	0.352465
	H9205	H	0.735547	0.764852	0.351479
	H9206	H	0.639651	0.860293	0.148372
	H9207	H	0.702048	0.797801	0.149319
	H9208	H	0.672650	0.797890	0.101201
	H9209	H	0.735507	0.860184	0.101923
	H9210	H	0.639675	0.764627	0.397552
	H9211	H	0.702130	0.827060	0.398660
	H9212	H	0.639541	0.764680	0.100440
	H9213	H	0.702185	0.827115	0.101340
	H9214	H	0.672621	0.797838	0.397619
	H9215	H	0.735183	0.860428	0.399011
	H9216	H	0.650036	0.848926	0.453257
	H9217	H	0.713454	0.787431	0.473698
	H9218	H	0.662117	0.838179	0.049850
	H9219	H	0.724313	0.775294	0.112793
	H9220	H	0.661549	0.837425	0.453203
	H9221	H	0.724899	0.775896	0.473324
	H9222	H	0.650602	0.849667	0.050363
	H9223	H	0.712752	0.786776	0.113286
	H9224	H	0.661739	0.787203	0.300591
	H9225	H	0.724676	0.849282	0.306456
	H9226	H	0.650678	0.775144	0.198441
	H9227	H	0.712809	0.838130	0.194099
	H9228	H	0.650289	0.775612	0.300059
	H9229	H	0.713214	0.837709	0.307206
	H9230	H	0.662138	0.786732	0.198853
	H9231	H	0.724375	0.849631	0.193527
	Co9232	Co	0.750013	0.874924	0.125457
	Co9233	Co	0.687396	0.812518	0.124730
	Co9234	Co	0.625026	0.749982	0.374614
	Co9235	Co	0.687402	0.812470	0.374960
	C9236	C	0.638504	0.861321	0.424379
	C9237	C	0.700994	0.798940	0.423225
	C9238	C	0.673775	0.825973	0.075652
	C9239	C	0.736345	0.763478	0.077285
	C9240	C	0.673849	0.826030	0.424919
	C9241	C	0.736498	0.763656	0.424269
	C9242	C	0.638543	0.861420	0.075654
	C9243	C	0.700920	0.798932	0.076523
	C9244	C	0.673835	0.798957	0.173671
	C9245	C	0.736497	0.861318	0.174596
	C9246	C	0.638575	0.763476	0.325098
	C9247	C	0.700990	0.825997	0.325905
	C9248	C	0.638478	0.763511	0.173106
	C9249	C	0.701010	0.826021	0.173993
	C9250	C	0.673806	0.798953	0.325439
	C9251	C	0.736341	0.861450	0.326430
	C9252	C	0.642621	0.857315	0.500727
	C9253	C	0.705031	0.794794	0.000890
	C9254	C	0.669820	0.830122	0.501160
	C9255	C	0.732243	0.767608	0.001378
	C9256	C	0.669743	0.794825	0.249347
	C9257	C	0.732329	0.857308	0.250448
	C9258	C	0.642651	0.767576	0.248889
	C9259	C	0.705106	0.830081	0.250111
	C9260	C	0.649535	0.850415	0.500866
	C9261	C	0.711890	0.787905	0.001411
	C9262	C	0.662958	0.837049	0.501327
	C9263	C	0.725346	0.774498	0.001544
	C9264	C	0.662857	0.787945	0.249515
	C9265	C	0.725450	0.850391	0.249936
	C9266	C	0.649488	0.774499	0.249317
	C9267	C	0.712048	0.836946	0.250213
	C9268	C	0.652721	0.846675	0.473944
	C9269	C	0.715697	0.784741	0.484925
	C9270	C	0.659519	0.840541	0.027415
	C9271	C	0.721826	0.777863	0.064250
	C9272	C	0.659251	0.840187	0.474191
	C9273	C	0.722219	0.778221	0.485234
	C9274	C	0.652999	0.847076	0.027609
	C9275	C	0.715274	0.784379	0.064286
	C9276	C	0.659341	0.784616	0.278369
	C9277	C	0.722093	0.846830	0.281914
	C9278	C	0.653041	0.777788	0.220930
	C9279	C	0.715420	0.840492	0.218476
	C9280	C	0.652819	0.778082	0.278087
	C9281	C	0.715584	0.840288	0.281972
	C9282	C	0.659536	0.784344	0.220969
	C9283	C	0.721923	0.847042	0.218187
	N9284	N	0.632526	0.867391	0.452733
	N9285	N	0.694988	0.804929	0.452253
	N9286	N	0.679821	0.820014	0.047122
	N9287	N	0.742338	0.757489	0.048129
	N9288	N	0.679838	0.819960	0.453240
	N9289	N	0.742463	0.757599	0.453181
	N9290	N	0.632558	0.867474	0.047096
	N9291	N	0.694961	0.804957	0.047301
	N9292	N	0.679855	0.804949	0.202569
	N9293	N	0.742462	0.867371	0.203303
	N9294	N	0.632576	0.757462	0.296517
	N9295	N	0.694940	0.820025	0.297227
	N9296	N	0.632486	0.757507	0.202093
	N9297	N	0.694962	0.820035	0.202459
	N9298	N	0.679834	0.804939	0.297168
	N9299	N	0.742371	0.867461	0.297842
	H9300	H	0.639609	0.860382	0.850315
	H9301	H	0.702220	0.797798	0.851737
	H9302	H	0.672884	0.827180	0.649394
	H9303	H	0.735064	0.764423	0.649188
	H9304	H	0.672813	0.827160	0.851435
	H9305	H	0.735355	0.764771	0.852240
	H9306	H	0.639631	0.860335	0.648961
	H9307	H	0.702161	0.797801	0.648040
	H9308	H	0.672822	0.797626	0.602485
	H9309	H	0.735344	0.860101	0.600657
	H9310	H	0.639662	0.764577	0.899905
	H9311	H	0.702010	0.827169	0.898568
	H9312	H	0.639511	0.764743	0.602019
	H9313	H	0.702126	0.827013	0.600852
	H9314	H	0.672750	0.797848	0.899402
	H9315	H	0.735054	0.860436	0.898208
	H9316	H	0.650180	0.849253	0.947797
	H9317	H	0.712975	0.787061	0.889986
	H9318	H	0.662589	0.838589	0.548851
	H9319	H	0.724001	0.775017	0.526457
	H9320	H	0.661679	0.837707	0.947716
	H9321	H	0.724511	0.775583	0.890295
	H9322	H	0.650945	0.850067	0.548607
	H9323	H	0.712458	0.786564	0.525772
	H9324	H	0.661486	0.787470	0.780781
	H9325	H	0.724520	0.849409	0.670151
	H9326	H	0.650920	0.774928	0.720248
	H9327	H	0.712706	0.838014	0.828958
	H9328	H	0.649986	0.775958	0.781242
	H9329	H	0.712995	0.837865	0.670992
	H9330	H	0.662407	0.786469	0.720348
	H9331	H	0.724265	0.849575	0.828914
	Co9332	Co	0.750020	0.874865	0.625009
	Co9333	Co	0.687408	0.812397	0.624863
	Co9334	Co	0.624949	0.749962	0.874807
	Co9335	Co	0.687457	0.812479	0.875036
	C9336	C	0.638531	0.861464	0.923232
	C9337	C	0.701015	0.798914	0.924339
	C9338	C	0.673922	0.826039	0.576827
	C9339	C	0.736285	0.763440	0.576494
	C9340	C	0.673920	0.826044	0.923865
	C9341	C	0.736386	0.763605	0.925077
	C9342	C	0.638555	0.861437	0.576703
	C9343	C	0.701067	0.798976	0.575407
	C9344	C	0.673940	0.798808	0.674849
	C9345	C	0.736449	0.861284	0.673580
	C9346	C	0.638509	0.763537	0.826958
	C9347	C	0.700966	0.826048	0.825855
	C9348	C	0.638451	0.763613	0.674593
	C9349	C	0.701012	0.825979	0.673813
	C9350	C	0.673909	0.798919	0.826703
	C9351	C	0.736307	0.861454	0.825571
	C9352	C	0.642602	0.857338	0.999243
	C9353	C	0.705155	0.794907	0.499236
	C9354	C	0.669768	0.830129	0.999497
	C9355	C	0.732311	0.767634	0.500349
	C9356	C	0.669817	0.794810	0.751057
	C9357	C	0.732291	0.857294	0.749666
	C9358	C	0.642573	0.767666	0.750984
	C9359	C	0.705080	0.830091	0.749735
	C9360	C	0.649437	0.850415	0.999071
	C9361	C	0.712003	0.787962	0.499529
	C9362	C	0.662851	0.836991	0.998893
	C9363	C	0.725413	0.774513	0.500005
	C9364	C	0.662911	0.787949	0.751056
	C9365	C	0.725357	0.850429	0.749908
	C9366	C	0.649470	0.774517	0.750831
	C9367	C	0.711939	0.837018	0.750003
	C9368	C	0.652763	0.846813	0.970176
	C9369	C	0.715405	0.784540	0.939113
	C9370	C	0.659806	0.840812	0.528173
	C9371	C	0.721687	0.777722	0.514573
	C9372	C	0.659283	0.840281	0.970133
	C9373	C	0.721949	0.778035	0.939172
	C9374	C	0.653264	0.847295	0.528005
	C9375	C	0.715158	0.784240	0.514328
	C9376	C	0.659200	0.784768	0.767890
	C9377	C	0.721962	0.846965	0.705319
	C9378	C	0.653186	0.777657	0.733791
	C9379	C	0.715305	0.840504	0.794420
	C9380	C	0.652680	0.778240	0.767911
	C9381	C	0.715447	0.840432	0.705521
	C9382	C	0.659718	0.784176	0.733912
	C9383	C	0.721829	0.847038	0.794273
	N9384	N	0.632556	0.867495	0.952222
	N9385	N	0.694995	0.804923	0.952532
	N9386	N	0.679876	0.819965	0.547770
	N9387	N	0.742331	0.757455	0.547856
	N9388	N	0.679908	0.820061	0.952660
	N9389	N	0.742384	0.757579	0.953530
	N9390	N	0.632583	0.867478	0.547618
	N9391	N	0.695044	0.804967	0.546897
	N9392	N	0.679969	0.804789	0.702900
	N9393	N	0.742470	0.867281	0.702032
	N9394	N	0.632499	0.757563	0.797868
	N9395	N	0.694971	0.820017	0.797167
	N9396	N	0.632442	0.757609	0.703383
	N9397	N	0.694992	0.819965	0.702573
	N9398	N	0.679972	0.804854	0.797484
	N9399	N	0.742397	0.867390	0.796892
	H9400	H	0.639728	0.985286	0.351149
	H9401	H	0.702304	0.922840	0.350501
	H9402	H	0.672816	0.952118	0.148435
	H9403	H	0.735441	0.889719	0.149373
	H9404	H	0.673064	0.952223	0.351519
	H9405	H	0.735258	0.889517	0.352097
	H9406	H	0.639589	0.985196	0.149199
	H9407	H	0.702113	0.922659	0.149067
	H9408	H	0.672804	0.922865	0.101673
	H9409	H	0.735314	0.985359	0.100231
	H9410	H	0.639705	0.889625	0.398793
	H9411	H	0.702078	0.952233	0.398061
	H9412	H	0.639742	0.889634	0.102272
	H9413	H	0.702127	0.952121	0.100198
	H9414	H	0.672973	0.922742	0.398790
	H9415	H	0.735349	0.985308	0.397734
	H9416	H	0.650123	0.973982	0.498892
	H9417	H	0.714066	0.912986	0.468047
	H9418	H	0.662082	0.962990	0.041953
	H9419	H	0.724941	0.900834	0.002750
	H9420	H	0.661661	0.962439	0.499673
	H9421	H	0.725488	0.901351	0.468913
	H9422	H	0.650599	0.974504	0.042131
	H9423	H	0.713411	0.912329	0.002658
	H9424	H	0.662216	0.911797	0.324517
	H9425	H	0.725741	0.973280	0.290825
	H9426	H	0.650317	0.900679	0.176736
	H9427	H	0.711708	0.964314	0.206787
	H9428	H	0.650690	0.900254	0.324799
	H9429	H	0.714160	0.961771	0.290554
	H9430	H	0.661817	0.912267	0.176567
	H9431	H	0.723290	0.975727	0.207235
	Co9432	Co	0.750030	0.999983	0.124943
	Co9433	Co	0.687512	0.937389	0.124973
	Co9434	Co	0.625029	0.874959	0.374841
	Co9435	Co	0.687562	0.937465	0.375039
	C9436	C	0.638593	0.986376	0.423955
	C9437	C	0.701158	0.923919	0.423612
	C9438	C	0.673975	0.950970	0.075984
	C9439	C	0.736528	0.888554	0.076596
	C9440	C	0.674079	0.951075	0.424088
	C9441	C	0.736397	0.888445	0.424577
	C9442	C	0.638559	0.986346	0.076319
	C9443	C	0.701033	0.923797	0.076559
	C9444	C	0.673918	0.923979	0.174039
	C9445	C	0.736447	0.986413	0.173227
	C9446	C	0.638593	0.888542	0.326480
	C9447	C	0.701010	0.951124	0.325139
	C9448	C	0.638579	0.888529	0.174435
	C9449	C	0.701032	0.951056	0.173241
	C9450	C	0.674009	0.923922	0.326285
	C9451	C	0.736487	0.986395	0.325101
	C9452	C	0.642687	0.982273	0.499969
	C9453	C	0.705150	0.919760	0.000732
	C9454	C	0.669914	0.955081	0.500203
	C9455	C	0.732425	0.892601	0.000712
	C9456	C	0.669810	0.919880	0.250247
	C9457	C	0.732403	0.982322	0.249181
	C9458	C	0.642701	0.892625	0.250474
	C9459	C	0.705092	0.955202	0.248937
	C9460	C	0.649569	0.975387	0.499843
	C9461	C	0.712068	0.912888	0.000910
	C9462	C	0.662986	0.961924	0.500148
	C9463	C	0.725520	0.899480	0.000964
	C9464	C	0.662936	0.912992	0.250284
	C9465	C	0.725489	0.975445	0.249048
	C9466	C	0.649571	0.899510	0.250340
	C9467	C	0.711996	0.962091	0.248645
	C9468	C	0.652778	0.971699	0.499264
	C9469	C	0.716086	0.910004	0.482075
	C9470	C	0.659605	0.965463	0.023419
	C9471	C	0.722268	0.903153	0.001818
	C9472	C	0.659292	0.965145	0.499734
	C9473	C	0.722570	0.903429	0.482320
	C9474	C	0.653090	0.972002	0.023875
	C9475	C	0.715754	0.909674	0.001966
	C9476	C	0.659660	0.909408	0.292003
	C9477	C	0.722674	0.971325	0.272303
	C9478	C	0.652891	0.903087	0.209062
	C9479	C	0.714783	0.966214	0.225316
	C9480	C	0.653126	0.902859	0.291780
	C9481	C	0.716115	0.964837	0.272124
	C9482	C	0.659425	0.909637	0.209093
	C9483	C	0.721313	0.972723	0.225465
	N9484	N	0.632599	0.992381	0.452645
	N9485	N	0.695136	0.929912	0.452340
	N9486	N	0.679956	0.944937	0.047293
	N9487	N	0.742484	0.882512	0.047636
	N9488	N	0.680087	0.945077	0.452848
	N9489	N	0.742374	0.882429	0.453003
	N9490	N	0.632564	0.992358	0.047575
	N9491	N	0.695028	0.929804	0.047497
	N9492	N	0.679953	0.929925	0.202799
	N9493	N	0.742463	0.992419	0.201870
	N9494	N	0.632543	0.882577	0.297715
	N9495	N	0.695058	0.945050	0.296764
	N9496	N	0.632545	0.882553	0.203100
	N9497	N	0.695060	0.945025	0.202273
	N9498	N	0.679992	0.929934	0.297379
	N9499	N	0.742483	0.992436	0.296624
	H9500	H	0.639856	0.985459	0.851810
	H9501	H	0.702323	0.922754	0.852048
	H9502	H	0.672743	0.951869	0.648980
	H9503	H	0.735387	0.889514	0.648831
	H9504	H	0.672761	0.952113	0.851350
	H9505	H	0.735311	0.889536	0.851711
	H9506	H	0.639726	0.985233	0.648832
	H9507	H	0.702285	0.922819	0.649339
	H9508	H	0.672822	0.922902	0.600041
	H9509	H	0.735431	0.985318	0.601149
	H9510	H	0.639612	0.889730	0.898621
	H9511	H	0.702174	0.952149	0.899093
	H9512	H	0.639716	0.889638	0.601183
	H9513	H	0.702242	0.952166	0.601784
	H9514	H	0.672849	0.922789	0.897638
	H9515	H	0.735443	0.985330	0.899860
	H9516	H	0.650584	0.974548	0.959666
	H9517	H	0.712666	0.911533	0.998650
	H9518	H	0.662476	0.963305	0.500715
	H9519	H	0.723429	0.899264	0.532483
	H9520	H	0.662123	0.963053	0.959915
	H9521	H	0.724185	0.899990	0.999023
	H9522	H	0.650966	0.974868	0.501409
	H9523	H	0.712051	0.910913	0.531917
	H9524	H	0.661801	0.912220	0.770467
	H9525	H	0.723741	0.975309	0.668944
	H9526	H	0.650722	0.900322	0.728807
	H9527	H	0.713910	0.962149	0.832299
	H9528	H	0.650330	0.900655	0.770742
	H9529	H	0.712175	0.963840	0.668928
	H9530	H	0.662280	0.911824	0.727341
	H9531	H	0.725495	0.973669	0.832218
	Co9532	Co	0.749921	1.000076	0.625113
	Co9533	Co	0.687603	0.937519	0.624855
	Co9534	Co	0.625015	0.875046	0.874792
	Co9535	Co	0.687552	0.937456	0.874915
	C9536	C	0.638699	0.986463	0.924364
	C9537	C	0.701142	0.923841	0.924392
	C9538	C	0.673926	0.950928	0.576260
	C9539	C	0.736437	0.888434	0.576550
	C9540	C	0.673950	0.950952	0.923908
	C9541	C	0.736442	0.888481	0.924389
	C9542	C	0.638606	0.986334	0.576155
	C9543	C	0.701137	0.923902	0.576189
	C9544	C	0.673953	0.923983	0.673035
	C9545	C	0.736489	0.986388	0.674380
	C9546	C	0.638571	0.888598	0.826083
	C9547	C	0.701059	0.951027	0.826656
	C9548	C	0.638620	0.888530	0.673866
	C9549	C	0.701096	0.951030	0.674326
	C9550	C	0.673966	0.923908	0.825118
	C9551	C	0.736512	0.986405	0.826729
	C9552	C	0.642740	0.982348	1.000369
	C9553	C	0.705234	0.919813	0.499866
	C9554	C	0.669912	0.955072	0.999946
	C9555	C	0.732342	0.892557	0.500584
	C9556	C	0.669878	0.919873	0.748980
	C9557	C	0.732441	0.982285	0.750703
	C9558	C	0.642712	0.892636	0.749836
	C9559	C	0.705192	0.955104	0.750616
	C9560	C	0.649632	0.975486	1.000729
	C9561	C	0.712111	0.912924	0.499669
	C9562	C	0.663043	0.961998	0.999998
	C9563	C	0.725456	0.899421	0.500284
	C9564	C	0.662989	0.912991	0.749104
	C9565	C	0.725535	0.975403	0.750689
	C9566	C	0.649602	0.899538	0.749663
	C9567	C	0.712080	0.961999	0.750736
	C9568	C	0.653096	0.972037	0.977742
	C9569	C	0.715344	0.909221	0.999904
	C9570	C	0.659771	0.965601	0.500419
	C9571	C	0.721440	0.902301	0.518050
	C9572	C	0.659618	0.965492	0.977393
	C9573	C	0.721848	0.902676	0.999863
	C9574	C	0.653254	0.972140	0.500719
	C9575	C	0.714979	0.908876	0.517788
	C9576	C	0.659404	0.909623	0.761176
	C9577	C	0.721579	0.972419	0.704908
	C9578	C	0.653170	0.902886	0.737873
	C9579	C	0.716007	0.964991	0.796382
	C9580	C	0.652903	0.903079	0.761608
	C9581	C	0.715055	0.965896	0.705024
	C9582	C	0.659672	0.909433	0.737246
	C9583	C	0.722542	0.971514	0.796517
	N9584	N	0.632650	0.992445	0.952982
	N9585	N	0.695093	0.929848	0.952710
	N9586	N	0.679982	0.944978	0.547309
	N9587	N	0.742404	0.882417	0.547662
	N9588	N	0.679928	0.944935	0.952413
	N9589	N	0.742441	0.882478	0.952943
	N9590	N	0.632591	0.992331	0.547546
	N9591	N	0.695130	0.929908	0.547546
	N9592	N	0.679972	0.929986	0.702061
	N9593	N	0.742434	0.992467	0.703080
	N9594	N	0.632566	0.882580	0.797242
	N9595	N	0.695050	0.945039	0.797897
	N9596	N	0.632610	0.882541	0.702699
	N9597	N	0.695080	0.945032	0.702887
	N9598	N	0.679984	0.929931	0.796807
	N9599	N	0.742450	0.992486	0.797873
	H9600	H	0.764530	0.110194	0.351483
	H9601	H	0.827087	0.047749	0.351127
	H9602	H	0.797606	0.077027	0.148654
	H9603	H	0.860220	0.014573	0.148820
	H9604	H	0.797649	0.077040	0.351376
	H9605	H	0.860198	0.014654	0.351779
	H9606	H	0.764779	0.110525	0.150379
	H9607	H	0.827329	0.048048	0.149059
	H9608	H	0.797963	0.047767	0.101559
	H9609	H	0.860119	0.110452	0.100497
	H9610	H	0.764802	0.014588	0.398211
	H9611	H	0.827118	0.077222	0.399347
	H9612	H	0.764707	0.014619	0.101606
	H9613	H	0.827134	0.077157	0.100916
	H9614	H	0.797485	0.048072	0.398254
	H9615	H	0.860388	0.110217	0.398416
	H9616	H	0.776352	0.100323	0.432200
	H9617	H	0.837878	0.036993	0.416709
	H9618	H	0.787183	0.088165	-0.002560
	H9619	H	0.849252	0.025246	0.038432
	H9620	H	0.787823	0.088777	0.432005
	H9621	H	0.849362	0.025465	0.416278
	H9622	H	0.775716	0.099691	-0.001822
	H9623	H	0.837786	0.036823	0.038852
	H9624	H	0.786142	0.037790	0.290010
	H9625	H	0.850339	0.098578	0.131227
	H9626	H	0.776372	0.024656	0.210009
	H9627	H	0.837103	0.088916	0.367781
	H9628	H	0.774738	0.026185	0.289558
	H9629	H	0.838747	0.087066	0.131760
	H9630	H	0.787790	0.036300	0.210303
	H9631	H	0.848595	0.100425	0.367165
	Co9632	Co	0.875009	0.124992	0.124704
	Co9633	Co	0.812441	0.062537	0.125337
	Co9634	Co	0.749997	0.000001	0.375074
	Co9635	Co	0.812437	0.062509	0.375225
	C9636	C	0.763491	0.111400	0.424261
	C9637	C	0.825997	0.048920	0.424115
	C9638	C	0.798853	0.075992	0.076088
	C9639	C	0.861330	0.013493	0.076207
	C9640	C	0.798804	0.075984	0.424560
	C9641	C	0.861358	0.013525	0.424495
	C9642	C	0.763640	0.111548	0.077243
	C9643	C	0.826134	0.049063	0.076611
	C9644	C	0.798972	0.048913	0.174091
	C9645	C	0.861338	0.111514	0.173218
	C9646	C	0.763677	0.013475	0.325954
	C9647	C	0.825976	0.076059	0.326522
	C9648	C	0.763579	0.013506	0.173832
	C9649	C	0.826004	0.076021	0.174075
	C9650	C	0.798744	0.049094	0.326008
	C9651	C	0.861433	0.111368	0.325439
	C9652	C	0.767619	0.107372	0.500893
	C9653	C	0.830154	0.044925	0.000679
	C9654	C	0.794760	0.080135	0.500473
	C9655	C	0.857254	0.017614	-0.000033
	C9656	C	0.794771	0.044901	0.250219
	C9657	C	0.857303	0.107321	0.249050
	C9658	C	0.767728	0.017578	0.249671
	C9659	C	0.830100	0.080141	0.250248
	C9660	C	0.774497	0.100472	0.500837
	C9661	C	0.837002	0.038005	0.000213
	C9662	C	0.787877	0.087020	0.500492
	C9663	C	0.850391	0.024520	-0.000162
	C9664	C	0.787887	0.038021	0.249931
	C9665	C	0.850414	0.100433	0.248906
	C9666	C	0.774590	0.024493	0.249489
	C9667	C	0.836984	0.087027	0.249964
	C9668	C	0.778434	0.097486	0.462270
	C9669	C	0.840413	0.034513	0.453355
	C9670	C	0.784638	0.090605	-0.001524
	C9671	C	0.846857	0.027863	0.021618
	C9672	C	0.784916	0.090923	0.462026
	C9673	C	0.846931	0.027966	0.453236
	C9674	C	0.778108	0.097128	-0.001025
	C9675	C	0.840357	0.034423	0.021852
	C9676	C	0.784028	0.034957	0.272249
	C9677	C	0.847447	0.096469	0.182818
	C9678	C	0.778465	0.027527	0.227089
	C9679	C	0.839955	0.090986	0.315784
	C9680	C	0.777557	0.028381	0.272027
	C9681	C	0.840896	0.089947	0.183258
	C9682	C	0.784927	0.034114	0.227433
	C9683	C	0.846486	0.097519	0.315275
	N9684	N	0.757528	0.117451	0.452665
	N9685	N	0.820000	0.054923	0.452654
	N9686	N	0.804901	0.070013	0.047528
	N9687	N	0.867346	0.007500	0.047734
	N9688	N	0.804858	0.070009	0.453265
	N9689	N	0.867352	0.007542	0.453074
	N9690	N	0.757613	0.117538	0.048303
	N9691	N	0.820074	0.055020	0.048110
	N9692	N	0.804946	0.054937	0.202975
	N9693	N	0.867366	0.117493	0.202167
	N9694	N	0.757641	0.007497	0.297498
	N9695	N	0.819962	0.070063	0.297916
	N9696	N	0.757585	0.007504	0.202829
	N9697	N	0.819978	0.070057	0.202917
	N9698	N	0.804814	0.055052	0.297318
	N9699	N	0.867402	0.117417	0.297021
	H9700	H	0.764543	0.110183	0.851594
	H9701	H	0.827102	0.047835	0.852319
	H9702	H	0.797792	0.077210	0.649507
	H9703	H	0.860134	0.014645	0.649080
	H9704	H	0.798058	0.077334	0.851393
	H9705	H	0.860303	0.014677	0.851223
	H9706	H	0.764687	0.110406	0.649593
	H9707	H	0.827120	0.047850	0.649470
	H9708	H	0.797866	0.047706	0.601380
	H9709	H	0.860292	0.110327	0.601246
	H9710	H	0.764791	0.014610	0.898451
	H9711	H	0.827269	0.076986	0.899246
	H9712	H	0.764564	0.014777	0.601748
	H9713	H	0.827032	0.077246	0.602087
	H9714	H	0.797684	0.047901	0.899014
	H9715	H	0.860257	0.110229	0.899003
	H9716	H	0.775418	0.099460	1.003184
	H9717	H	0.838119	0.037273	0.961240
	H9718	H	0.786068	0.087122	0.568846
	H9719	H	0.849554	0.025568	0.583249
	H9720	H	0.786975	0.087941	1.002688
	H9721	H	0.849572	0.025685	0.960787
	H9722	H	0.774595	0.098748	0.568948
	H9723	H	0.838030	0.037078	0.583193
	H9724	H	0.787248	0.036800	0.780158
	H9725	H	0.849360	0.099559	0.732661
	H9726	H	0.775247	0.025611	0.719808
	H9727	H	0.838026	0.087905	0.769317
	H9728	H	0.775734	0.025281	0.780027
	H9729	H	0.837867	0.088044	0.731939
	H9730	H	0.786825	0.037126	0.720020
	H9731	H	0.849465	0.099451	0.767860
	Co9732	Co	0.874897	0.124974	0.624733
	Co9733	Co	0.812414	0.062473	0.625202
	Co9734	Co	0.749988	0.000026	0.875556
	Co9735	Co	0.812431	0.062457	0.875419
	C9736	C	0.763524	0.111390	0.924486
	C9737	C	0.826030	0.048971	0.924800
	C9738	C	0.798886	0.076076	0.576681
	C9739	C	0.861331	0.013528	0.576675
	C9740	C	0.799072	0.076156	0.924101
	C9741	C	0.861368	0.013545	0.923947
	C9742	C	0.763544	0.111516	0.577104
	C9743	C	0.826026	0.048963	0.576571
	C9744	C	0.798948	0.048869	0.674057
	C9745	C	0.861390	0.111402	0.673883
	C9746	C	0.763560	0.013543	0.826050
	C9747	C	0.826052	0.075922	0.826563
	C9748	C	0.763471	0.013604	0.674213
	C9749	C	0.825943	0.076033	0.674485
	C9750	C	0.798842	0.048957	0.826279
	C9751	C	0.861334	0.111409	0.826256
	C9752	C	0.767686	0.107398	1.000910
	C9753	C	0.830141	0.044875	0.500352
	C9754	C	0.794892	0.080163	0.999959
	C9755	C	0.857264	0.017639	0.500459
	C9756	C	0.794813	0.044817	0.749961
	C9757	C	0.857214	0.107379	0.749967
	C9758	C	0.767618	0.017653	0.750131
	C9759	C	0.830082	0.080094	0.750652
	C9760	C	0.774572	0.100523	1.000875
	C9761	C	0.836999	0.037981	0.500096
	C9762	C	0.788024	0.087073	1.000015
	C9763	C	0.850396	0.024515	0.500007
	C9764	C	0.787959	0.037905	0.750036
	C9765	C	0.850347	0.100485	0.750130
	C9766	C	0.774532	0.024501	0.749920
	C9767	C	0.836973	0.086969	0.750727
	C9768	C	0.777977	0.097007	1.002251
	C9769	C	0.840538	0.034667	0.978320
	C9770	C	0.783961	0.090013	0.539020
	C9771	C	0.847018	0.028009	0.546716
	C9772	C	0.784515	0.090473	1.001874
	C9773	C	0.847027	0.028092	0.978064
	C9774	C	0.777449	0.096561	0.539011
	C9775	C	0.840495	0.034564	0.546780
	C9776	C	0.784634	0.034365	0.766777
	C9777	C	0.846867	0.097025	0.740128
	C9778	C	0.777868	0.028039	0.733077
	C9779	C	0.840460	0.090399	0.760912
	C9780	C	0.778127	0.027820	0.766647
	C9781	C	0.840361	0.090468	0.740391
	C9782	C	0.784388	0.034572	0.732910
	C9783	C	0.846950	0.096969	0.760600
	N9784	N	0.757549	0.117442	0.953065
	N9785	N	0.820011	0.054976	0.953445
	N9786	N	0.804909	0.070072	0.547849
	N9787	N	0.867342	0.007526	0.547975
	N9788	N	0.805002	0.070097	0.952820
	N9789	N	0.867372	0.007535	0.952656
	N9790	N	0.757528	0.117495	0.547956
	N9791	N	0.820019	0.054957	0.547725
	N9792	N	0.804932	0.054875	0.702984
	N9793	N	0.867436	0.117367	0.702763
	N9794	N	0.757531	0.007553	0.797497
	N9795	N	0.820045	0.069953	0.797875
	N9796	N	0.757471	0.007599	0.702928
	N9797	N	0.819962	0.070013	0.703226
	N9798	N	0.804851	0.054948	0.797646
	N9799	N	0.867391	0.117373	0.797675
	H9800	H	0.764635	0.235397	0.350542
	H9801	H	0.827250	0.172952	0.351658
	H9802	H	0.798016	0.202296	0.149017
	H9803	H	0.860195	0.139581	0.148894
	H9804	H	0.797754	0.202167	0.349699
	H9805	H	0.860229	0.139608	0.351965
	H9806	H	0.764566	0.235305	0.149398
	H9807	H	0.827262	0.172839	0.148864
	H9808	H	0.797777	0.172786	0.101904
	H9809	H	0.860255	0.235411	0.101659
	H9810	H	0.764676	0.139659	0.399816
	H9811	H	0.827202	0.202139	0.399351
	H9812	H	0.764511	0.139766	0.101496
	H9813	H	0.827059	0.202309	0.100975
	H9814	H	0.797855	0.172720	0.398826
	H9815	H	0.860544	0.235160	0.398572
	H9816	H	0.776025	0.225062	0.485465
	H9817	H	0.837402	0.161526	0.551136
	H9818	H	0.787693	0.213766	-0.062543
	H9819	H	0.849444	0.150357	-0.065082
	H9820	H	0.787570	0.213590	0.485282
	H9821	H	0.848933	0.149997	0.550632
	H9822	H	0.776151	0.225259	-0.062784
	H9823	H	0.837852	0.161810	-0.065642
	H9824	H	0.786108	0.162846	0.356322
	H9825	H	0.849245	0.224713	0.130481
	H9826	H	0.776261	0.149713	0.144250
	H9827	H	0.838177	0.212769	0.369959
	H9828	H	0.774583	0.151294	0.356456
	H9829	H	0.837646	0.213279	0.130272
	H9830	H	0.787798	0.161196	0.144133
	H9831	H	0.849759	0.224268	0.369995
	Co9832	Co	0.874959	0.250017	0.124463
	Co9833	Co	0.812468	0.187530	0.125201
	Co9834	Co	0.749996	0.125018	0.374956
	Co9835	Co	0.812512	0.187510	0.374642
	C9836	C	0.763536	0.236470	0.423785
	C9837	C	0.826077	0.174020	0.424280
	C9838	C	0.799050	0.201174	0.076272
	C9839	C	0.861352	0.138491	0.075773
	C9840	C	0.798897	0.201047	0.422840
	C9841	C	0.861369	0.138575	0.424297
	C9842	C	0.763483	0.236445	0.076288
	C9843	C	0.826052	0.173965	0.076314
	C9844	C	0.798958	0.173926	0.174037
	C9845	C	0.861382	0.236461	0.174036
	C9846	C	0.763540	0.138605	0.326509
	C9847	C	0.826042	0.201081	0.326402
	C9848	C	0.763468	0.138660	0.174283
	C9849	C	0.825988	0.201163	0.173983
	C9850	C	0.798970	0.173912	0.326239
	C9851	C	0.861524	0.236355	0.326195
	C9852	C	0.767618	0.232362	0.499692
	C9853	C	0.830094	0.169802	0.000074
	C9854	C	0.794839	0.205143	0.499134
	C9855	C	0.857321	0.142618	-0.000390
	C9856	C	0.794853	0.169836	0.250316
	C9857	C	0.857318	0.232342	0.250331
	C9858	C	0.767590	0.142735	0.250570
	C9859	C	0.830111	0.205211	0.250419
	C9860	C	0.774498	0.225473	0.499645
	C9861	C	0.837010	0.162929	0.000245
	C9862	C	0.787992	0.212053	0.499558
	C9863	C	0.850462	0.149525	-0.000153
	C9864	C	0.787942	0.162982	0.250402
	C9865	C	0.850443	0.225457	0.250382
	C9866	C	0.774482	0.149594	0.250454
	C9867	C	0.837007	0.212058	0.250561
	C9868	C	0.778265	0.222319	0.491620
	C9869	C	0.840131	0.159256	0.528694
	C9870	C	0.784904	0.215946	-0.034894
	C9871	C	0.846949	0.152913	-0.036724
	C9872	C	0.784825	0.215812	0.491679
	C9873	C	0.846672	0.152737	0.528844
	C9874	C	0.778334	0.222435	-0.035291
	C9875	C	0.840411	0.159425	-0.036659
	C9876	C	0.784026	0.159987	0.309859
	C9877	C	0.846861	0.222141	0.183164
	C9878	C	0.778405	0.152577	0.190937
	C9879	C	0.840588	0.215391	0.317613
	C9880	C	0.777479	0.153476	0.309838
	C9881	C	0.840321	0.215622	0.183234
	C9882	C	0.784938	0.159096	0.190859
	C9883	C	0.847162	0.221880	0.317418
	N9884	N	0.757555	0.242494	0.452720
	N9885	N	0.820060	0.180035	0.452831
	N9886	N	0.804986	0.195123	0.047390
	N9887	N	0.867346	0.132477	0.047231
	N9888	N	0.804887	0.195022	0.451763
	N9889	N	0.867377	0.132557	0.452679
	N9890	N	0.757523	0.242492	0.047482
	N9891	N	0.820075	0.180002	0.047604
	N9892	N	0.804949	0.179940	0.202665
	N9893	N	0.867427	0.242435	0.202357
	N9894	N	0.757515	0.132612	0.297481
	N9895	N	0.820029	0.195113	0.297396
	N9896	N	0.757464	0.132672	0.203052
	N9897	N	0.819997	0.195147	0.202664
	N9898	N	0.804988	0.179901	0.297315
	N9899	N	0.867508	0.242372	0.296999
	H9900	H	0.764731	0.235352	0.851535
	H9901	H	0.827138	0.172708	0.851096
	H9902	H	0.797882	0.202303	0.648438
	H9903	H	0.860316	0.139683	0.648242
	H9904	H	0.797677	0.202125	0.851902
	H9905	H	0.860430	0.139710	0.850373
	H9906	H	0.764635	0.235315	0.648502
	H9907	H	0.827033	0.172810	0.648878
	H9908	H	0.798014	0.172572	0.601421
	H9909	H	0.860125	0.235414	0.600955
	H9910	H	0.764797	0.139542	0.898461
	H9911	H	0.827070	0.201960	0.898859
	H9912	H	0.764624	0.139733	0.601842
	H9913	H	0.826913	0.202314	0.601181
	H9914	H	0.797529	0.173119	0.898469
	H9915	H	0.860513	0.235067	0.899054
	H9916	H	0.774757	0.223780	1.062523
	H9917	H	0.838094	0.162027	1.065939
	H9918	H	0.786483	0.212558	0.514161
	H9919	H	0.850098	0.151127	0.450203
	H9920	H	0.786366	0.212384	1.063070
	H9921	H	0.849634	0.150562	1.066047
	H9922	H	0.774905	0.224002	0.514238
	H9923	H	0.838575	0.162632	0.449902
	H9924	H	0.787348	0.161777	0.758919
	H9925	H	0.849023	0.224860	0.714431
	H9926	H	0.775212	0.150694	0.742475
	H9927	H	0.838276	0.212626	0.785064
	H9928	H	0.775831	0.150286	0.758957
	H9929	H	0.837465	0.213392	0.715074
	H9930	H	0.786785	0.162168	0.742202
	H9931	H	0.849885	0.224043	0.784908
	Co9932	Co	0.875020	0.249909	0.624701
	Co9933	Co	0.812441	0.187519	0.624623
	Co9934	Co	0.750011	0.124953	0.875076
	Co9935	Co	0.812410	0.187447	0.875117
	C9936	C	0.763577	0.236497	0.923967
	C9937	C	0.826001	0.173890	0.923908
	C9938	C	0.798944	0.201110	0.575599
	C9939	C	0.861437	0.138608	0.575713
	C9940	C	0.798902	0.201088	0.924308
	C9941	C	0.861474	0.138571	0.923357
	C9942	C	0.763523	0.236438	0.575841
	C9943	C	0.825977	0.173955	0.576217
	C9944	C	0.799036	0.173784	0.673814
	C9945	C	0.861355	0.236474	0.673492
	C9946	C	0.763614	0.138508	0.826348
	C9947	C	0.825990	0.201009	0.826250
	C9948	C	0.763544	0.138588	0.674163
	C9949	C	0.825914	0.201155	0.673943
	C9950	C	0.798770	0.174066	0.826022
	C9951	C	0.861558	0.236309	0.826229
	C9952	C	0.767620	0.232375	1.000183
	C9953	C	0.830118	0.169887	0.500312
	C9954	C	0.794893	0.205242	1.000522
	C9955	C	0.857320	0.142709	0.500213
	C9956	C	0.794855	0.169839	0.749994
	C9957	C	0.857377	0.232305	0.749865
	C9958	C	0.767660	0.142619	0.750187
	C9959	C	0.830060	0.205165	0.750035
	C9960	C	0.774493	0.225483	1.000172
	C9961	C	0.837005	0.163005	0.500400
	C9962	C	0.787999	0.212129	1.000536
	C9963	C	0.850432	0.149601	0.500492
	C9964	C	0.787971	0.162944	0.750548
	C9965	C	0.850451	0.225440	0.749789
	C9966	C	0.774554	0.149501	0.750298
	C9967	C	0.836957	0.212031	0.749883
	C9968	C	0.777589	0.221660	1.035417
	C9969	C	0.840524	0.159545	1.037063
	C9970	C	0.784234	0.215253	0.507768
	C9971	C	0.847305	0.153366	0.472051
	C9972	C	0.784125	0.215150	1.035576
	C9973	C	0.847069	0.153033	1.037067
	C9974	C	0.777675	0.221750	0.507859
	C9975	C	0.840771	0.159886	0.472032
	C9976	C	0.784686	0.159365	0.755171
	C9977	C	0.846726	0.222241	0.730135
	C9978	C	0.777841	0.153082	0.745937
	C9979	C	0.840647	0.215263	0.769526
	C9980	C	0.778164	0.152843	0.755047
	C9981	C	0.840179	0.215734	0.730091
	C9982	C	0.784361	0.159610	0.746108
	C9983	C	0.847190	0.221785	0.769493
	N9984	N	0.757561	0.242506	0.952666
	N9985	N	0.820019	0.179935	0.952605
	N9986	N	0.804915	0.195069	0.547091
	N9987	N	0.867431	0.132597	0.547137
	N9988	N	0.804916	0.195077	0.952643
	N9989	N	0.867430	0.132524	0.952416
	N9990	N	0.757539	0.242452	0.547334
	N9991	N	0.820013	0.179991	0.547625
	N9992	N	0.804977	0.179871	0.702616
	N9993	N	0.867386	0.242455	0.702211
	N9994	N	0.757563	0.132540	0.797576
	N9995	N	0.819957	0.195044	0.797494
	N9996	N	0.757530	0.132586	0.702785
	N9997	N	0.819923	0.195110	0.702767
	N9998	N	0.804837	0.180006	0.797113
	N9999	N	0.867508	0.242360	0.797478
	H10000	H	0.764549	0.360291	0.351538
	H10001	H	0.827217	0.297910	0.350820
	H10002	H	0.797867	0.327125	0.147610
	H10003	H	0.860151	0.264462	0.148081
	H10004	H	0.797812	0.327288	0.351032
	H10005	H	0.860446	0.264690	0.350948
	H10006	H	0.764573	0.360300	0.148322
	H10007	H	0.827129	0.297783	0.148355
	H10008	H	0.798117	0.297620	0.100158
	H10009	H	0.860312	0.360425	0.100135
	H10010	H	0.764674	0.264664	0.398504
	H10011	H	0.826964	0.327360	0.398621
	H10012	H	0.764583	0.264743	0.100873
	H10013	H	0.827236	0.327020	0.100019
	H10014	H	0.797805	0.297885	0.398774
	H10015	H	0.860479	0.360160	0.397400
	H10016	H	0.774740	0.348875	0.438851
	H10017	H	0.837579	0.286608	0.452120
	H10018	H	0.786685	0.337563	-0.037449
	H10019	H	0.849117	0.275087	0.067576
	H10020	H	0.786286	0.337387	0.438256
	H10021	H	0.849132	0.275100	0.452178
	H10022	H	0.775158	0.349089	-0.037368
	H10023	H	0.837582	0.286558	0.067726
	H10024	H	0.787089	0.287038	0.258411
	H10025	H	0.850475	0.348521	0.300726
	H10026	H	0.775339	0.275628	0.239994
	H10027	H	0.836987	0.338994	0.196835
	H10028	H	0.775561	0.275499	0.258873
	H10029	H	0.838928	0.337039	0.300761
	H10030	H	0.786984	0.287039	0.239620
	H10031	H	0.848559	0.350422	0.196610
	Co10032	Co	0.875037	0.375056	0.123584
	Co10033	Co	0.812536	0.312511	0.124631
	Co10034	Co	0.749963	0.250048	0.374805
	Co10035	Co	0.812484	0.312535	0.374545
	C10036	C	0.763454	0.361428	0.423961
	C10037	C	0.826129	0.299002	0.423589
	C10038	C	0.798986	0.326054	0.075323
	C10039	C	0.861357	0.263456	0.075261
	C10040	C	0.798931	0.326176	0.423649
	C10041	C	0.861542	0.263585	0.423835
	C10042	C	0.763455	0.361375	0.075675
	C10043	C	0.826054	0.298908	0.075736
	C10044	C	0.799089	0.298806	0.173268
	C10045	C	0.861466	0.361467	0.172847
	C10046	C	0.763524	0.263609	0.325806
	C10047	C	0.825984	0.326184	0.325550
	C10048	C	0.763479	0.263654	0.173435
	C10049	C	0.826126	0.326044	0.173110
	C10050	C	0.798917	0.298958	0.325604
	C10051	C	0.861546	0.361329	0.324919
	C10052	C	0.767566	0.357388	0.500117
	C10053	C	0.830164	0.294846	-0.000583
	C10054	C	0.794871	0.330248	0.500000
	C10055	C	0.857360	0.267657	-0.000663
	C10056	C	0.794899	0.294821	0.249448
	C10057	C	0.857438	0.357310	0.248735
	C10058	C	0.767583	0.267749	0.249609
	C10059	C	0.830139	0.330197	0.249171
	C10060	C	0.774481	0.350505	0.500511
	C10061	C	0.837020	0.287946	-0.000268
	C10062	C	0.787948	0.337112	0.500296
	C10063	C	0.850456	0.274520	-0.000247
	C10064	C	0.788010	0.287927	0.249331
	C10065	C	0.850508	0.350458	0.248674
	C10066	C	0.774499	0.274613	0.249188
	C10067	C	0.837031	0.337088	0.249025
	C10068	C	0.777557	0.346711	0.465824
	C10069	C	0.840293	0.284289	0.473215
	C10070	C	0.784350	0.340269	-0.021135
	C10071	C	0.846769	0.277737	0.037870
	C10072	C	0.784099	0.340203	0.465472
	C10073	C	0.846854	0.277809	0.473088
	C10074	C	0.777789	0.346766	-0.020921
	C10075	C	0.840234	0.284260	0.037919
	C10076	C	0.784572	0.284491	0.254270
	C10077	C	0.847581	0.346477	0.278065
	C10078	C	0.777922	0.278053	0.243953
	C10079	C	0.839948	0.341061	0.219633
	C10080	C	0.778000	0.278006	0.254478
	C10081	C	0.841026	0.339995	0.278199
	C10082	C	0.784488	0.284531	0.244067
	C10083	C	0.846501	0.347539	0.219613
	N10084	N	0.757457	0.367441	0.452465
	N10085	N	0.820090	0.305019	0.452131
	N10086	N	0.805011	0.320052	0.046565
	N10087	N	0.867384	0.257481	0.046735
	N10088	N	0.804918	0.320120	0.452015
	N10089	N	0.867509	0.257549	0.452684
	N10090	N	0.757455	0.367354	0.046887
	N10091	N	0.820052	0.304927	0.047079
	N10092	N	0.805048	0.304867	0.202217
	N10093	N	0.867490	0.367484	0.201569
	N10094	N	0.757505	0.257641	0.297060
	N10095	N	0.820003	0.320157	0.296886
	N10096	N	0.757465	0.257668	0.202287
	N10097	N	0.820110	0.320063	0.202022
	N10098	N	0.804951	0.304953	0.296971
	N10099	N	0.867523	0.367386	0.296510
	H10100	H	0.764730	0.360317	0.850831
	H10101	H	0.827217	0.297887	0.850516
	H10102	H	0.797911	0.327297	0.648480
	H10103	H	0.860358	0.264704	0.649057
	H10104	H	0.798005	0.327289	0.851055
	H10105	H	0.860435	0.264738	0.850572
	H10106	H	0.764595	0.360494	0.648116
	H10107	H	0.827045	0.297786	0.648437
	H10108	H	0.797761	0.297885	0.601039
	H10109	H	0.860414	0.360302	0.599609
	H10110	H	0.764661	0.264707	0.898762
	H10111	H	0.827319	0.327129	0.897092
	H10112	H	0.764627	0.264783	0.601381
	H10113	H	0.827072	0.327359	0.601235
	H10114	H	0.797909	0.297776	0.897835
	H10115	H	0.860315	0.360352	0.896709
	H10116	H	0.775793	0.349817	1.036763
	H10117	H	0.838418	0.287438	0.932594
	H10118	H	0.787646	0.338762	0.562490
	H10119	H	0.850130	0.276067	0.548156
	H10120	H	0.787426	0.338419	1.036268
	H10121	H	0.849908	0.275886	0.932742
	H10122	H	0.776106	0.350296	0.562187
	H10123	H	0.838497	0.287476	0.548241
	H10124	H	0.786476	0.287729	0.700185
	H10125	H	0.849304	0.349755	0.789925
	H10126	H	0.776022	0.274868	0.801291
	H10127	H	0.838190	0.337906	0.707068
	H10128	H	0.774903	0.276225	0.699969
	H10129	H	0.837730	0.338214	0.790729
	H10130	H	0.787594	0.286329	0.801087
	H10131	H	0.849745	0.349370	0.706460
	Co10132	Co	0.875012	0.375029	0.623700
	Co10133	Co	0.812496	0.312548	0.624438
	Co10134	Co	0.750001	0.250047	0.875090
	Co10135	Co	0.812518	0.312559	0.874547
	C10136	C	0.763520	0.361382	0.923523
	C10137	C	0.826092	0.298974	0.923354
	C10138	C	0.798986	0.326180	0.575839
	C10139	C	0.861492	0.263575	0.576185
	C10140	C	0.799056	0.326164	0.923582
	C10141	C	0.861511	0.263611	0.923325
	C10142	C	0.763486	0.361538	0.575731
	C10143	C	0.826033	0.298931	0.575632
	C10144	C	0.798967	0.298974	0.673521
	C10145	C	0.861497	0.361455	0.672362
	C10146	C	0.763546	0.263593	0.826146
	C10147	C	0.826133	0.326053	0.824936
	C10148	C	0.763537	0.263637	0.673755
	C10149	C	0.825994	0.326174	0.673297
	C10150	C	0.799035	0.298900	0.825597
	C10151	C	0.861449	0.361482	0.824237
	C10152	C	0.767558	0.357276	0.999727
	C10153	C	0.830191	0.294909	0.499714
	C10154	C	0.794937	0.330190	0.999530
	C10155	C	0.857436	0.267681	0.499792
	C10156	C	0.794933	0.294820	0.749595
	C10157	C	0.857345	0.357393	0.748273
	C10158	C	0.767610	0.267730	0.749968
	C10159	C	0.830140	0.330209	0.749035
	C10160	C	0.774483	0.350404	0.999795
	C10161	C	0.837080	0.288006	0.499885
	C10162	C	0.788014	0.337050	0.999568
	C10163	C	0.850557	0.274604	0.499826
	C10164	C	0.788000	0.287988	0.749944
	C10165	C	0.850444	0.350510	0.748227
	C10166	C	0.774527	0.274588	0.750301
	C10167	C	0.837041	0.337098	0.748417
	C10168	C	0.778156	0.347203	1.020392
	C10169	C	0.840703	0.284720	0.961959
	C10170	C	0.784852	0.340946	0.535388
	C10171	C	0.847372	0.278311	0.526975
	C10172	C	0.784709	0.340704	1.020280
	C10173	C	0.847236	0.278188	0.962022
	C10174	C	0.778309	0.347460	0.535289
	C10175	C	0.840814	0.284806	0.527089
	C10176	C	0.784242	0.284929	0.721967
	C10177	C	0.846892	0.347174	0.771849
	C10178	C	0.778294	0.277650	0.778815
	C10179	C	0.840606	0.340450	0.724946
	C10180	C	0.777671	0.278427	0.722176
	C10181	C	0.840367	0.340645	0.772278
	C10182	C	0.784849	0.284155	0.778424
	C10183	C	0.847137	0.346962	0.724774
	N10184	N	0.757476	0.367368	0.952094
	N10185	N	0.820095	0.304989	0.951853
	N10186	N	0.804967	0.320135	0.547005
	N10187	N	0.867486	0.257545	0.547659
	N10188	N	0.805055	0.320129	0.952090
	N10189	N	0.867483	0.257569	0.951911
	N10190	N	0.757492	0.367535	0.546733
	N10191	N	0.820046	0.304968	0.547105
	N10192	N	0.804951	0.305011	0.702242
	N10193	N	0.867507	0.367448	0.701074
	N10194	N	0.757583	0.257560	0.797372
	N10195	N	0.820099	0.320065	0.796472
	N10196	N	0.757575	0.257591	0.702435
	N10197	N	0.820014	0.320132	0.701943
	N10198	N	0.805008	0.304927	0.797075
	N10199	N	0.867496	0.367453	0.795649
	H10200	H	0.764762	0.485431	0.350023
	H10201	H	0.827173	0.422811	0.351295
	H10202	H	0.797924	0.452332	0.148185
	H10203	H	0.860426	0.389769	0.147548
	H10204	H	0.797800	0.452114	0.349861
	H10205	H	0.860378	0.389789	0.350547
	H10206	H	0.764895	0.485700	0.147523
	H10207	H	0.827267	0.422950	0.148540
	H10208	H	0.797811	0.422870	0.101000
	H10209	H	0.860194	0.485537	0.099989
	H10210	H	0.764748	0.389684	0.398222
	H10211	H	0.827357	0.452040	0.398035
	H10212	H	0.764624	0.389728	0.099953
	H10213	H	0.827080	0.452410	0.099962
	H10214	H	0.797920	0.422785	0.397389
	H10215	H	0.860227	0.485487	0.397721
	H10216	H	0.776151	0.475143	0.514239
	H10217	H	0.837631	0.411731	0.480237
	H10218	H	0.786446	0.462373	0.122813
	H10219	H	0.849865	0.400894	-0.097250
	H10220	H	0.787606	0.463627	0.514187
	H10221	H	0.849163	0.400226	0.480237
	H10222	H	0.774974	0.473952	0.123238
	H10223	H	0.838344	0.412434	-0.096557
	H10224	H	0.787196	0.411831	0.231223
	H10225	H	0.849632	0.474445	0.293379
	H10226	H	0.775317	0.400725	0.266810
	H10227	H	0.837899	0.463214	0.205833
	H10228	H	0.775631	0.400347	0.230742
	H10229	H	0.838217	0.462791	0.294037
	H10230	H	0.786855	0.412252	0.266715
	H10231	H	0.849271	0.474858	0.205123
	Co10232	Co	0.875067	0.500049	0.124171
	Co10233	Co	0.812502	0.437534	0.124144
	Co10234	Co	0.750010	0.374985	0.374476
	Co10235	Co	0.812526	0.437507	0.374271
	C10236	C	0.763609	0.486518	0.422504
	C10237	C	0.826052	0.423949	0.423759
	C10238	C	0.798937	0.451118	0.075291
	C10239	C	0.861496	0.388601	0.074679
	C10240	C	0.798926	0.451059	0.422469
	C10241	C	0.861461	0.388648	0.423109
	C10242	C	0.763707	0.486633	0.075173
	C10243	C	0.826095	0.424035	0.075502
	C10244	C	0.798966	0.423978	0.173274
	C10245	C	0.861368	0.486595	0.172787
	C10246	C	0.763607	0.388544	0.325308
	C10247	C	0.826181	0.450985	0.325111
	C10248	C	0.763561	0.388551	0.172708
	C10249	C	0.826046	0.451160	0.173049
	C10250	C	0.799024	0.423915	0.325092
	C10251	C	0.861368	0.486560	0.325015
	C10252	C	0.767656	0.482386	0.498436
	C10253	C	0.830216	0.419917	-0.000621
	C10254	C	0.794836	0.455192	0.498378
	C10255	C	0.857345	0.392658	-0.001611
	C10256	C	0.794880	0.419867	0.249002
	C10257	C	0.857281	0.482518	0.248908
	C10258	C	0.767686	0.392631	0.248883
	C10259	C	0.830216	0.455127	0.249204
	C10260	C	0.774523	0.475483	0.497989
	C10261	C	0.837103	0.413052	-0.000797
	C10262	C	0.787947	0.462059	0.497623
	C10263	C	0.850494	0.399556	-0.001569
	C10264	C	0.787969	0.412995	0.248979
	C10265	C	0.850388	0.475616	0.248936
	C10266	C	0.774528	0.399573	0.248925
	C10267	C	0.837104	0.462035	0.249593
	C10268	C	0.778323	0.472365	0.506940
	C10269	C	0.840243	0.409353	0.488943
	C10270	C	0.784192	0.465153	0.068434
	C10271	C	0.847210	0.403222	-0.055253
	C10272	C	0.784854	0.465847	0.506850
	C10273	C	0.846779	0.402844	0.488700
	C10274	C	0.777704	0.471699	0.068742
	C10275	C	0.840713	0.409802	-0.054650
	C10276	C	0.784611	0.409449	0.238860
	C10277	C	0.847065	0.472027	0.273789
	C10278	C	0.777875	0.403137	0.258969
	C10279	C	0.840421	0.465637	0.224892
	C10280	C	0.778076	0.402923	0.238822
	C10281	C	0.840626	0.465427	0.274071
	C10282	C	0.784414	0.409659	0.258823
	C10283	C	0.846868	0.472236	0.224701
	N10284	N	0.757564	0.492482	0.451345
	N10285	N	0.820075	0.429997	0.452200
	N10286	N	0.804942	0.445090	0.046794
	N10287	N	0.867495	0.382614	0.045923
	N10288	N	0.804935	0.445065	0.451522
	N10289	N	0.867497	0.382636	0.451441
	N10290	N	0.757645	0.492573	0.046073
	N10291	N	0.820045	0.429956	0.046694
	N10292	N	0.805019	0.429948	0.201955
	N10293	N	0.867442	0.492532	0.201591
	N10294	N	0.757598	0.382522	0.296769
	N10295	N	0.820153	0.444996	0.296407
	N10296	N	0.757582	0.382533	0.201732
	N10297	N	0.820070	0.445107	0.201588
	N10298	N	0.805057	0.429901	0.296617
	N10299	N	0.867440	0.492504	0.296295
	H10300	H	0.764634	0.485180	0.850747
	H10301	H	0.827345	0.422918	0.850527
	H10302	H	0.797766	0.452266	0.647499
	H10303	H	0.860442	0.389703	0.648308
	H10304	H	0.797699	0.451966	0.850005
	H10305	H	0.860334	0.389647	0.849640
	H10306	H	0.764606	0.485234	0.647232
	H10307	H	0.827022	0.422797	0.648362
	H10308	H	0.797993	0.422828	0.600107
	H10309	H	0.860587	0.485233	0.600442
	H10310	H	0.764703	0.389800	0.897947
	H10311	H	0.827101	0.452242	0.898625
	H10312	H	0.764788	0.389783	0.600081
	H10313	H	0.827235	0.452266	0.600623
	H10314	H	0.798039	0.422787	0.898031
	H10315	H	0.860351	0.485395	0.897998
	H10316	H	0.776032	0.475166	0.876037
	H10317	H	0.837674	0.411621	1.094251
	H10318	H	0.786411	0.462400	0.481700
	H10319	H	0.849743	0.400703	0.519025
	H10320	H	0.787533	0.463590	0.875654
	H10321	H	0.849162	0.400087	1.094007
	H10322	H	0.774844	0.473908	0.481572
	H10323	H	0.838175	0.412184	0.519210
	H10324	H	0.786938	0.412142	0.756662
	H10325	H	0.849880	0.474220	0.773447
	H10326	H	0.775729	0.400398	0.741738
	H10327	H	0.837804	0.463301	0.725638
	H10328	H	0.775376	0.400633	0.756341
	H10329	H	0.838348	0.462706	0.774293
	H10330	H	0.787278	0.411936	0.741750
	H10331	H	0.849311	0.474805	0.725657
	Co10332	Co	0.875025	0.499991	0.624369
	Co10333	Co	0.812513	0.437621	0.624086
	Co10334	Co	0.750070	0.375046	0.874380
	Co10335	Co	0.812568	0.437521	0.874335
	C10336	C	0.763570	0.486400	0.923123
	C10337	C	0.826122	0.423999	0.923107
	C10338	C	0.798918	0.451134	0.574773
	C10339	C	0.861488	0.388617	0.575420
	C10340	C	0.798830	0.450947	0.922887
	C10341	C	0.861449	0.388543	0.922180
	C10342	C	0.763539	0.486416	0.574662
	C10343	C	0.825964	0.423946	0.575909
	C10344	C	0.799055	0.423903	0.672925
	C10345	C	0.861578	0.486348	0.673215
	C10346	C	0.763583	0.388650	0.825124
	C10347	C	0.826077	0.451091	0.825758
	C10348	C	0.763639	0.388637	0.672807
	C10349	C	0.826120	0.451103	0.673230
	C10350	C	0.799069	0.423898	0.825345
	C10351	C	0.861458	0.486452	0.825267
	C10352	C	0.767728	0.482432	0.999278
	C10353	C	0.830065	0.419840	0.500115
	C10354	C	0.794773	0.455094	0.999092
	C10355	C	0.857355	0.392669	0.499351
	C10356	C	0.794974	0.419806	0.749041
	C10357	C	0.857426	0.482297	0.749381
	C10358	C	0.767679	0.392700	0.749058
	C10359	C	0.830202	0.455177	0.749662
	C10360	C	0.774583	0.475487	0.999240
	C10361	C	0.836953	0.412937	0.500085
	C10362	C	0.787908	0.462007	0.998958
	C10363	C	0.850443	0.399547	0.499423
	C10364	C	0.788076	0.412935	0.749128
	C10365	C	0.850539	0.475429	0.749408
	C10366	C	0.774599	0.399562	0.749200
	C10367	C	0.837087	0.462050	0.749904
	C10368	C	0.778304	0.472375	0.930148
	C10369	C	0.840348	0.409354	1.052507
	C10370	C	0.784143	0.465155	0.488785
	C10371	C	0.847111	0.403127	0.510716
	C10372	C	0.784778	0.465807	0.929668
	C10373	C	0.846872	0.402797	1.052208
	C10374	C	0.777634	0.471701	0.488772
	C10375	C	0.840559	0.409612	0.510698
	C10376	C	0.784516	0.409586	0.753273
	C10377	C	0.847234	0.471854	0.763311
	C10378	C	0.778151	0.402946	0.744948
	C10379	C	0.840382	0.465629	0.736182
	C10380	C	0.777970	0.403074	0.753342
	C10381	C	0.840690	0.465340	0.763451
	C10382	C	0.784693	0.409452	0.745241
	C10383	C	0.846921	0.472142	0.735875
	N10384	N	0.757559	0.492427	0.951471
	N10385	N	0.820078	0.429952	0.951762
	N10386	N	0.804934	0.445123	0.546244
	N10387	N	0.867498	0.382612	0.546356
	N10388	N	0.804892	0.444994	0.951769
	N10389	N	0.867478	0.382558	0.951036
	N10390	N	0.757511	0.492406	0.546235
	N10391	N	0.820016	0.429990	0.546914
	N10392	N	0.805017	0.429964	0.701868
	N10393	N	0.867508	0.492387	0.701943
	N10394	N	0.757574	0.382649	0.796414
	N10395	N	0.820104	0.445080	0.796782
	N10396	N	0.757595	0.382648	0.701435
	N10397	N	0.820114	0.445099	0.701810
	N10398	N	0.805017	0.429942	0.796541
	N10399	N	0.867460	0.492449	0.796317
	H10400	H	0.764427	0.610246	0.350159
	H10401	H	0.827285	0.547878	0.350842
	H10402	H	0.797958	0.577232	0.148110
	H10403	H	0.860362	0.514804	0.148516
	H10404	H	0.797719	0.577102	0.350564
	H10405	H	0.860149	0.514443	0.350231
	H10406	H	0.764735	0.610393	0.148674
	H10407	H	0.827067	0.547800	0.148275
	H10408	H	0.797734	0.547987	0.100392
	H10409	H	0.860406	0.610271	0.101385
	H10410	H	0.764568	0.514766	0.397702
	H10411	H	0.827180	0.577107	0.398193
	H10412	H	0.764784	0.514596	0.100536
	H10413	H	0.827235	0.577157	0.100705
	H10414	H	0.797898	0.547805	0.398569
	H10415	H	0.860237	0.610421	0.398365
	H10416	H	0.775397	0.599460	0.549154
	H10417	H	0.837753	0.536725	0.577594
	H10418	H	0.787292	0.588264	-0.055236
	H10419	H	0.849563	0.525487	0.013592
	H10420	H	0.786864	0.587881	0.549629
	H10421	H	0.849176	0.525116	0.577514
	H10422	H	0.775772	0.599788	-0.055129
	H10423	H	0.838058	0.537013	0.013359
	H10424	H	0.786822	0.537208	0.168502
	H10425	H	0.850075	0.598991	0.185937
	H10426	H	0.775787	0.525185	0.329891
	H10427	H	0.837529	0.588399	0.311981
	H10428	H	0.775380	0.525604	0.168037
	H10429	H	0.838501	0.587510	0.185815
	H10430	H	0.787276	0.536789	0.330492
	H10431	H	0.849095	0.599884	0.312185
	Co10432	Co	0.875062	0.624989	0.124441
	Co10433	Co	0.812518	0.562574	0.124238
	Co10434	Co	0.749994	0.500036	0.374241
	Co10435	Co	0.812467	0.562520	0.374283
	C10436	C	0.763430	0.611430	0.422738
	C10437	C	0.826135	0.549052	0.423356
	C10438	C	0.799015	0.576110	0.075199
	C10439	C	0.861457	0.513595	0.075673
	C10440	C	0.798890	0.575989	0.423108
	C10441	C	0.861320	0.513412	0.423234
	C10442	C	0.763542	0.611455	0.075952
	C10443	C	0.826026	0.548935	0.075429
	C10444	C	0.798894	0.549020	0.173265
	C10445	C	0.861503	0.611404	0.173593
	C10446	C	0.763569	0.513595	0.325340
	C10447	C	0.826092	0.576041	0.325595
	C10448	C	0.763689	0.513506	0.172995
	C10449	C	0.826126	0.576034	0.173362
	C10450	C	0.798966	0.548928	0.325551
	C10451	C	0.861389	0.611482	0.325866
	C10452	C	0.767686	0.607438	0.498732
	C10453	C	0.830176	0.544909	-0.000266
	C10454	C	0.794777	0.580122	0.499033
	C10455	C	0.857314	0.517637	-0.000292
	C10456	C	0.794849	0.544892	0.249440
	C10457	C	0.857368	0.607358	0.249632
	C10458	C	0.767746	0.517584	0.249333
	C10459	C	0.830176	0.580122	0.249412
	C10460	C	0.774530	0.600530	0.498353
	C10461	C	0.837049	0.538019	-0.000385
	C10462	C	0.787903	0.587006	0.498637
	C10463	C	0.850439	0.524548	-0.000363
	C10464	C	0.787961	0.537988	0.249144
	C10465	C	0.850519	0.600437	0.249220
	C10466	C	0.774618	0.524506	0.249190
	C10467	C	0.837076	0.587007	0.249351
	C10468	C	0.777897	0.596984	0.526914
	C10469	C	0.840343	0.534383	0.543217
	C10470	C	0.784654	0.590621	-0.031116
	C10471	C	0.847047	0.527994	0.007465
	C10472	C	0.784421	0.590427	0.527110
	C10473	C	0.846832	0.527806	0.543270
	C10474	C	0.778133	0.597170	-0.030871
	C10475	C	0.840536	0.534536	0.007317
	C10476	C	0.784431	0.534616	0.203747
	C10477	C	0.847339	0.596733	0.213933
	C10478	C	0.778184	0.527844	0.294601
	C10479	C	0.840283	0.590690	0.284565
	C10480	C	0.777945	0.528069	0.203684
	C10481	C	0.840811	0.590211	0.213730
	C10482	C	0.784676	0.534385	0.294502
	C10483	C	0.846813	0.597213	0.284385
	N10484	N	0.757452	0.617438	0.451878
	N10485	N	0.820105	0.555010	0.451689
	N10486	N	0.805013	0.570091	0.046276
	N10487	N	0.867444	0.507588	0.046835
	N10488	N	0.804939	0.570033	0.451850
	N10489	N	0.867401	0.507465	0.451794
	N10490	N	0.757525	0.617465	0.047472
	N10491	N	0.820021	0.554949	0.046713
	N10492	N	0.804924	0.555014	0.201845
	N10493	N	0.867511	0.617409	0.202438
	N10494	N	0.757554	0.507583	0.296501
	N10495	N	0.820113	0.570012	0.296755
	N10496	N	0.757626	0.507543	0.201742
	N10497	N	0.820133	0.570024	0.202007
	N10498	N	0.804966	0.554958	0.296605
	N10499	N	0.867448	0.617456	0.297063
	H10500	H	0.764675	0.610296	0.851551
	H10501	H	0.827368	0.547946	0.850509
	H10502	H	0.797777	0.577330	0.647376
	H10503	H	0.860535	0.514761	0.648035
	H10504	H	0.797688	0.576991	0.850424
	H10505	H	0.860167	0.514670	0.851011
	H10506	H	0.764776	0.610502	0.647561
	H10507	H	0.827192	0.547880	0.648888
	H10508	H	0.797683	0.548015	0.600719
	H10509	H	0.860300	0.610418	0.600477
	H10510	H	0.764821	0.514566	0.897571
	H10511	H	0.827288	0.576910	0.898078
	H10512	H	0.764556	0.514767	0.599257
	H10513	H	0.827044	0.577286	0.600515
	H10514	H	0.797928	0.547830	0.897963
	H10515	H	0.860383	0.610315	0.897681
	H10516	H	0.775234	0.599217	1.054610
	H10517	H	0.837924	0.537116	0.986294
	H10518	H	0.787008	0.588141	0.446939
	H10519	H	0.849805	0.525763	0.421755
	H10520	H	0.786758	0.587687	1.054491
	H10521	H	0.849354	0.525527	0.986232
	H10522	H	0.775515	0.599637	0.446886
	H10523	H	0.838329	0.537349	0.421935
	H10524	H	0.787109	0.536882	0.692618
	H10525	H	0.849545	0.599515	0.809265
	H10526	H	0.775484	0.525651	0.805404
	H10527	H	0.837988	0.587956	0.689080
	H10528	H	0.775592	0.525347	0.691997
	H10529	H	0.837993	0.587979	0.810171
	H10530	H	0.786966	0.537202	0.806299
	H10531	H	0.849522	0.599458	0.689067
	Co10532	Co	0.875026	0.625036	0.624511
	Co10533	Co	0.812446	0.562537	0.624115
	Co10534	Co	0.750022	0.500016	0.874032
	Co10535	Co	0.812496	0.562445	0.873784
	C10536	C	0.763518	0.611427	0.924018
	C10537	C	0.826178	0.549007	0.923427
	C10538	C	0.798935	0.576100	0.574955
	C10539	C	0.861494	0.513561	0.575448
	C10540	C	0.798907	0.576005	0.923233
	C10541	C	0.861363	0.513538	0.923391
	C10542	C	0.763622	0.611571	0.575189
	C10543	C	0.826081	0.549012	0.575919
	C10544	C	0.798805	0.549025	0.673351
	C10545	C	0.861420	0.611490	0.673353
	C10546	C	0.763672	0.513511	0.824556
	C10547	C	0.826129	0.575922	0.825236
	C10548	C	0.763529	0.513606	0.672201
	C10549	C	0.826001	0.576085	0.673151
	C10550	C	0.798925	0.548908	0.825233
	C10551	C	0.861443	0.611429	0.825269
	C10552	C	0.767589	0.607331	0.999988
	C10553	C	0.830234	0.544950	0.499822
	C10554	C	0.794894	0.580165	0.999488
	C10555	C	0.857273	0.517561	0.499432
	C10556	C	0.794803	0.544891	0.749432
	C10557	C	0.857305	0.607391	0.749228
	C10558	C	0.767680	0.517626	0.748347
	C10559	C	0.830164	0.580105	0.749287
	C10560	C	0.774511	0.600475	0.999726
	C10561	C	0.837096	0.538030	0.499870
	C10562	C	0.787948	0.587005	0.999748
	C10563	C	0.850424	0.524486	0.499467
	C10564	C	0.787939	0.537979	0.749287
	C10565	C	0.850449	0.600471	0.749317
	C10566	C	0.774546	0.524557	0.748592
	C10567	C	0.837028	0.587023	0.749358
	C10568	C	0.777836	0.596873	1.030427
	C10569	C	0.840461	0.534557	0.992257
	C10570	C	0.784515	0.590537	0.469610
	C10571	C	0.847186	0.528148	0.456078
	C10572	C	0.784349	0.590323	1.030570
	C10573	C	0.846959	0.527999	0.992016
	C10574	C	0.778009	0.597109	0.469769
	C10575	C	0.840693	0.534730	0.456266
	C10576	C	0.784538	0.534435	0.717247
	C10577	C	0.847019	0.597013	0.782989
	C10578	C	0.777956	0.528087	0.780659
	C10579	C	0.840471	0.590473	0.715559
	C10580	C	0.778038	0.527903	0.717211
	C10581	C	0.840474	0.590499	0.783130
	C10582	C	0.784467	0.534600	0.781157
	C10583	C	0.847014	0.596981	0.715615
	N10584	N	0.757528	0.617452	0.952587
	N10585	N	0.820099	0.554968	0.951683
	N10586	N	0.804949	0.570088	0.546506
	N10587	N	0.867500	0.507541	0.546581
	N10588	N	0.804928	0.570002	0.951668
	N10589	N	0.867386	0.507552	0.951785
	N10590	N	0.757550	0.617512	0.546646
	N10591	N	0.820071	0.554998	0.546962
	N10592	N	0.804853	0.555010	0.701902
	N10593	N	0.867448	0.617467	0.702002
	N10594	N	0.757614	0.507532	0.796141
	N10595	N	0.820110	0.569944	0.796432
	N10596	N	0.757540	0.507582	0.701099
	N10597	N	0.820034	0.570050	0.701737
	N10598	N	0.804924	0.554921	0.796382
	N10599	N	0.867490	0.617412	0.796556
	H10600	H	0.764537	0.735407	0.350641
	H10601	H	0.827190	0.673010	0.351079
	H10602	H	0.797608	0.701916	0.148207
	H10603	H	0.860179	0.639528	0.148472
	H10604	H	0.797926	0.702254	0.349857
	H10605	H	0.860363	0.639717	0.350582
	H10606	H	0.764610	0.735239	0.148388
	H10607	H	0.827145	0.672793	0.147613
	H10608	H	0.797823	0.672781	0.100990
	H10609	H	0.860407	0.735224	0.101362
	H10610	H	0.764590	0.639807	0.398578
	H10611	H	0.827190	0.702143	0.397785
	H10612	H	0.764673	0.639630	0.100036
	H10613	H	0.827040	0.702209	0.099943
	H10614	H	0.797738	0.672864	0.398501
	H10615	H	0.860230	0.735401	0.399197
	H10616	H	0.775523	0.724561	0.556989
	H10617	H	0.837960	0.662006	0.549541
	H10618	H	0.786831	0.712870	0.024063
	H10619	H	0.849581	0.650601	0.009008
	H10620	H	0.787091	0.713054	0.556787
	H10621	H	0.849481	0.650540	0.548683
	H10622	H	0.775245	0.724365	0.024465
	H10623	H	0.838121	0.662197	0.008970
	H10624	H	0.786571	0.662346	0.321666
	H10625	H	0.848880	0.725111	0.295682
	H10626	H	0.775862	0.650147	0.177090
	H10627	H	0.838759	0.712168	0.203042
	H10628	H	0.775005	0.650900	0.320652
	H10629	H	0.837312	0.713642	0.295498
	H10630	H	0.787384	0.661711	0.177741
	H10631	H	0.850281	0.723717	0.203905
	Co10632	Co	0.875014	0.749960	0.125138
	Co10633	Co	0.812487	0.687476	0.124233
	Co10634	Co	0.749981	0.625031	0.374275
	Co10635	Co	0.812485	0.687553	0.374439
	C10636	C	0.763478	0.736463	0.423693
	C10637	C	0.826084	0.674043	0.423792
	C10638	C	0.798849	0.700958	0.075478
	C10639	C	0.861338	0.638450	0.075581
	C10640	C	0.798970	0.701150	0.422785
	C10641	C	0.861458	0.638621	0.423450
	C10642	C	0.763494	0.736384	0.075842
	C10643	C	0.826045	0.673920	0.075114
	C10644	C	0.798937	0.673915	0.173398
	C10645	C	0.861501	0.736349	0.174180
	C10646	C	0.763478	0.638685	0.325700
	C10647	C	0.826074	0.701030	0.325304
	C10648	C	0.763518	0.638590	0.173208
	C10649	C	0.825999	0.701076	0.173102
	C10650	C	0.798885	0.673991	0.325881
	C10651	C	0.861409	0.736419	0.326105
	C10652	C	0.767626	0.732388	0.499485
	C10653	C	0.830176	0.669897	-0.001092
	C10654	C	0.794836	0.705247	0.498739
	C10655	C	0.857273	0.642576	-0.000806
	C10656	C	0.794832	0.669840	0.249712
	C10657	C	0.857427	0.732271	0.250081
	C10658	C	0.767583	0.642739	0.249242
	C10659	C	0.830128	0.705118	0.249065
	C10660	C	0.774514	0.725511	0.499022
	C10661	C	0.837041	0.663001	-0.001190
	C10662	C	0.787929	0.712118	0.498549
	C10663	C	0.850416	0.649488	-0.001106
	C10664	C	0.787941	0.662964	0.249678
	C10665	C	0.850511	0.725396	0.249612
	C10666	C	0.774512	0.649579	0.248896
	C10667	C	0.837051	0.711984	0.249155
	C10668	C	0.778001	0.722085	0.531446
	C10669	C	0.840462	0.659530	0.527480
	C10670	C	0.784389	0.715415	0.013583
	C10671	C	0.847053	0.653043	0.004683
	C10672	C	0.784535	0.715563	0.531316
	C10673	C	0.846990	0.653025	0.527271
	C10674	C	0.777845	0.721930	0.014017
	C10675	C	0.840578	0.659630	0.004358
	C10676	C	0.784266	0.659732	0.289753
	C10677	C	0.846652	0.722319	0.275401
	C10678	C	0.778174	0.652831	0.208849
	C10679	C	0.840928	0.715016	0.223435
	C10680	C	0.777741	0.653211	0.289389
	C10681	C	0.840124	0.715810	0.275316
	C10682	C	0.784726	0.659339	0.209347
	C10683	C	0.847468	0.721526	0.223996
	N10684	N	0.757473	0.742432	0.452843
	N10685	N	0.820046	0.680041	0.452255
	N10686	N	0.804900	0.694989	0.046823
	N10687	N	0.867367	0.632454	0.046947
	N10688	N	0.804930	0.695116	0.452040
	N10689	N	0.867501	0.632647	0.452249
	N10690	N	0.757479	0.742399	0.047499
	N10691	N	0.820005	0.679906	0.046518
	N10692	N	0.804921	0.679946	0.202141
	N10693	N	0.867480	0.742385	0.202821
	N10694	N	0.757493	0.632651	0.297091
	N10695	N	0.820049	0.695033	0.296625
	N10696	N	0.757482	0.632614	0.202118
	N10697	N	0.820008	0.695052	0.201934
	N10698	N	0.804900	0.679982	0.296992
	N10699	N	0.867400	0.742449	0.297488
	H10700	H	0.764664	0.735303	0.851647
	H10701	H	0.827304	0.672996	0.850381
	H10702	H	0.797650	0.702222	0.648156
	H10703	H	0.860302	0.639697	0.648814
	H10704	H	0.798062	0.702352	0.851021
	H10705	H	0.860322	0.639746	0.850152
	H10706	H	0.764602	0.735257	0.648467
	H10707	H	0.826945	0.672799	0.648636
	H10708	H	0.797686	0.672830	0.601335
	H10709	H	0.860411	0.735219	0.601460
	H10710	H	0.764732	0.639537	0.899154
	H10711	H	0.827143	0.702131	0.898124
	H10712	H	0.764587	0.639751	0.601030
	H10713	H	0.827075	0.702179	0.601086
	H10714	H	0.797635	0.672925	0.899617
	H10715	H	0.860458	0.735101	0.898719
	H10716	H	0.775656	0.724539	0.976300
	H10717	H	0.837716	0.661780	0.987956
	H10718	H	0.786939	0.713148	0.441387
	H10719	H	0.849480	0.650610	0.450355
	H10720	H	0.787265	0.713099	0.976090
	H10721	H	0.849211	0.650235	0.988487
	H10722	H	0.775347	0.724606	0.441932
	H10723	H	0.837912	0.662080	0.450348
	H10724	H	0.785949	0.662903	0.697549
	H10725	H	0.849411	0.724493	0.792197
	H10726	H	0.776455	0.649477	0.804220
	H10727	H	0.838094	0.712798	0.707997
	H10728	H	0.774524	0.651313	0.696803
	H10729	H	0.837879	0.713028	0.791507
	H10730	H	0.787939	0.661068	0.805101
	H10731	H	0.849708	0.724226	0.708122
	Co10732	Co	0.874999	0.749936	0.625135
	Co10733	Co	0.812397	0.687532	0.624768
	Co10734	Co	0.749996	0.624931	0.874440
	Co10735	Co	0.812470	0.687498	0.874570
	C10736	C	0.763542	0.736421	0.923878
	C10737	C	0.826131	0.674037	0.922848
	C10738	C	0.798839	0.701148	0.575469
	C10739	C	0.861422	0.638598	0.576060
	C10740	C	0.799053	0.701169	0.923584
	C10741	C	0.861406	0.638536	0.922972
	C10742	C	0.763511	0.736395	0.575823
	C10743	C	0.825964	0.673924	0.575743
	C10744	C	0.798805	0.673988	0.674259
	C10745	C	0.861499	0.736342	0.674082
	C10746	C	0.763601	0.638429	0.826313
	C10747	C	0.826028	0.701047	0.825354
	C10748	C	0.763523	0.638561	0.673590
	C10749	C	0.825996	0.701063	0.673451
	C10750	C	0.798791	0.674024	0.826821
	C10751	C	0.861528	0.736291	0.826240
	C10752	C	0.767638	0.732319	0.999871
	C10753	C	0.830093	0.669927	0.499904
	C10754	C	0.794859	0.705163	0.999723
	C10755	C	0.857332	0.642653	0.499673
	C10756	C	0.794714	0.669910	0.750692
	C10757	C	0.857421	0.732232	0.750138
	C10758	C	0.767668	0.642557	0.750184
	C10759	C	0.830099	0.705141	0.749404
	C10760	C	0.774508	0.725413	1.000183
	C10761	C	0.836992	0.663029	0.500060
	C10762	C	0.787944	0.712024	0.999983
	C10763	C	0.850442	0.649569	0.499684
	C10764	C	0.787872	0.662977	0.750987
	C10765	C	0.850522	0.725351	0.749836
	C10766	C	0.774522	0.649475	0.750548
	C10767	C	0.837028	0.711992	0.749574
	C10768	C	0.778059	0.722022	0.986781
	C10769	C	0.840351	0.659408	0.992805
	C10770	C	0.784431	0.715563	0.466638
	C10771	C	0.846985	0.653054	0.472089
	C10772	C	0.784600	0.715512	0.986601
	C10773	C	0.846837	0.652824	0.992937
	C10774	C	0.777908	0.722079	0.466784
	C10775	C	0.840445	0.659565	0.472226
	C10776	C	0.783922	0.659995	0.720633
	C10777	C	0.846999	0.721974	0.773249
	C10778	C	0.778488	0.652414	0.780742
	C10779	C	0.840591	0.715333	0.726083
	C10780	C	0.777417	0.653446	0.720565
	C10781	C	0.840433	0.715488	0.773346
	C10782	C	0.784993	0.658974	0.781084
	C10783	C	0.847129	0.721843	0.726380
	N10784	N	0.757511	0.742409	0.952632
	N10785	N	0.820063	0.679978	0.951819
	N10786	N	0.804853	0.695111	0.547189
	N10787	N	0.867461	0.632627	0.547409
	N10788	N	0.805032	0.695135	0.952140
	N10789	N	0.867393	0.632525	0.951754
	N10790	N	0.757483	0.742392	0.547438
	N10791	N	0.819975	0.679970	0.547128
	N10792	N	0.804800	0.680001	0.702657
	N10793	N	0.867457	0.742380	0.702767
	N10794	N	0.757570	0.632467	0.797331
	N10795	N	0.820029	0.695028	0.796861
	N10796	N	0.757505	0.632552	0.702404
	N10797	N	0.820004	0.695034	0.702342
	N10798	N	0.804795	0.680025	0.797764
	N10799	N	0.867486	0.742358	0.797690
	H10800	H	0.764528	0.860193	0.350665
	H10801	H	0.827155	0.797592	0.352223
	H10802	H	0.797860	0.827140	0.149205
	H10803	H	0.860463	0.764750	0.148901
	H10804	H	0.797881	0.827060	0.350140
	H10805	H	0.860112	0.764480	0.352553
	H10806	H	0.764893	0.860388	0.149268
	H10807	H	0.827240	0.797819	0.148487
	H10808	H	0.797800	0.797761	0.101100
	H10809	H	0.860223	0.860483	0.101460
	H10810	H	0.764712	0.764615	0.398268
	H10811	H	0.827289	0.827111	0.397871
	H10812	H	0.764365	0.764865	0.101134
	H10813	H	0.827126	0.827117	0.101088
	H10814	H	0.797849	0.797647	0.398814
	H10815	H	0.860214	0.860424	0.398853
	H10816	H	0.774691	0.848599	0.519937
	H10817	H	0.838101	0.787062	0.472027
	H10818	H	0.786630	0.837479	-0.083227
	H10819	H	0.849768	0.775697	-0.015999
	H10820	H	0.786219	0.837087	0.519839
	H10821	H	0.849577	0.775465	0.472289
	H10822	H	0.775052	0.848913	-0.083750
	H10823	H	0.838199	0.787181	-0.016024
	H10824	H	0.786291	0.787689	0.244329
	H10825	H	0.849431	0.849707	0.182929
	H10826	H	0.776050	0.774871	0.255402
	H10827	H	0.837940	0.837924	0.316276
	H10828	H	0.774719	0.776211	0.244562
	H10829	H	0.837901	0.838106	0.181941
	H10830	H	0.787624	0.786376	0.255545
	H10831	H	0.849417	0.849508	0.316465
	Co10832	Co	0.874958	0.875038	0.125283
	Co10833	Co	0.812493	0.812415	0.125366
	Co10834	Co	0.749928	0.750002	0.375505
	Co10835	Co	0.812502	0.812425	0.375223
	C10836	C	0.763502	0.861373	0.423420
	C10837	C	0.826014	0.798783	0.425026
	C10838	C	0.798946	0.825972	0.076450
	C10839	C	0.861502	0.763583	0.076373
	C10840	C	0.798944	0.826025	0.423376
	C10841	C	0.861302	0.763488	0.424851
	C10842	C	0.763648	0.861436	0.076350
	C10843	C	0.826097	0.798885	0.076055
	C10844	C	0.798913	0.798911	0.173770
	C10845	C	0.861319	0.861545	0.174168
	C10846	C	0.763515	0.763563	0.325805
	C10847	C	0.826065	0.826004	0.325732
	C10848	C	0.763346	0.763707	0.173657
	C10849	C	0.825992	0.826009	0.173642
	C10850	C	0.798949	0.798855	0.326122
	C10851	C	0.861322	0.861518	0.326283
	C10852	C	0.767619	0.857299	0.499380
	C10853	C	0.830155	0.794770	-0.000011
	C10854	C	0.794840	0.830072	0.499281
	C10855	C	0.857392	0.767648	0.000466
	C10856	C	0.794821	0.794812	0.249784
	C10857	C	0.857227	0.857447	0.250191
	C10858	C	0.767509	0.767725	0.249708
	C10859	C	0.830052	0.830156	0.249457
	C10860	C	0.774476	0.850364	0.499157
	C10861	C	0.837082	0.787933	0.000133
	C10862	C	0.787907	0.836928	0.499030
	C10863	C	0.850537	0.774569	0.000596
	C10864	C	0.787933	0.787918	0.249690
	C10865	C	0.850354	0.850529	0.249908
	C10866	C	0.774448	0.774573	0.249961
	C10867	C	0.836958	0.837047	0.249244
	C10868	C	0.777511	0.846478	0.510786
	C10869	C	0.840521	0.784510	0.485045
	C10870	C	0.784312	0.840180	-0.046760
	C10871	C	0.847199	0.778110	-0.008636
	C10872	C	0.784022	0.839955	0.510882
	C10873	C	0.847060	0.778003	0.485242
	C10874	C	0.777761	0.846690	-0.046932
	C10875	C	0.840653	0.784608	-0.009075
	C10876	C	0.784105	0.784877	0.246917
	C10877	C	0.846905	0.847110	0.212168
	C10878	C	0.778273	0.777648	0.253248
	C10879	C	0.840410	0.840455	0.286671
	C10880	C	0.777554	0.778383	0.247045
	C10881	C	0.840398	0.840550	0.211710
	C10882	C	0.784831	0.784149	0.253051
	C10883	C	0.846928	0.846997	0.287159
	N10884	N	0.757567	0.867440	0.452419
	N10885	N	0.819990	0.804803	0.452999
	N10886	N	0.804934	0.819956	0.047687
	N10887	N	0.867465	0.757526	0.047637
	N10888	N	0.804974	0.820034	0.452468
	N10889	N	0.867327	0.757475	0.453279
	N10890	N	0.757583	0.867387	0.047930
	N10891	N	0.820076	0.804871	0.047397
	N10892	N	0.804923	0.804901	0.202745
	N10893	N	0.867376	0.867517	0.202985
	N10894	N	0.757459	0.757586	0.297398
	N10895	N	0.820070	0.819967	0.297442
	N10896	N	0.757373	0.757652	0.202516
	N10897	N	0.820024	0.819971	0.202751
	N10898	N	0.804932	0.804891	0.297589
	N10899	N	0.867380	0.867501	0.297621
	H10900	H	0.764525	0.860163	0.851224
	H10901	H	0.827168	0.797760	0.851766
	H10902	H	0.797859	0.827169	0.648479
	H10903	H	0.860428	0.764659	0.649806
	H10904	H	0.797924	0.827108	0.851451
	H10905	H	0.860394	0.764670	0.851805
	H10906	H	0.764751	0.860276	0.648408
	H10907	H	0.827187	0.797914	0.649879
	H10908	H	0.797677	0.797995	0.600550
	H10909	H	0.860193	0.860349	0.601580
	H10910	H	0.764671	0.764650	0.898514
	H10911	H	0.827153	0.826994	0.899489
	H10912	H	0.764553	0.764752	0.600910
	H10913	H	0.827080	0.827189	0.602146
	H10914	H	0.797959	0.797547	0.898189
	H10915	H	0.860507	0.860072	0.899185
	H10916	H	0.775938	0.849877	1.084225
	H10917	H	0.837806	0.786764	1.016206
	H10918	H	0.787752	0.838672	0.478001
	H10919	H	0.849521	0.775511	0.530809
	H10920	H	0.787464	0.838388	1.084065
	H10921	H	0.849445	0.775325	1.017240
	H10922	H	0.776218	0.850177	0.478149
	H10923	H	0.837919	0.787007	0.530997
	H10924	H	0.786810	0.787139	0.781643
	H10925	H	0.849741	0.849179	0.770398
	H10926	H	0.775642	0.775304	0.715969
	H10927	H	0.837600	0.838209	0.730249
	H10928	H	0.775269	0.775617	0.781996
	H10929	H	0.838159	0.837742	0.770813
	H10930	H	0.787190	0.786834	0.715520
	H10931	H	0.849173	0.849668	0.729880
	Co10932	Co	0.874940	0.875002	0.625331
	Co10933	Co	0.812458	0.812521	0.625061
	Co10934	Co	0.749929	0.749992	0.875572
	Co10935	Co	0.812481	0.812414	0.875273
	C10936	C	0.763481	0.861324	0.923867
	C10937	C	0.826054	0.798862	0.924100
	C10938	C	0.798917	0.826050	0.575694
	C10939	C	0.861458	0.763573	0.577089
	C10940	C	0.798990	0.825968	0.924067
	C10941	C	0.861457	0.763547	0.924336
	C10942	C	0.763597	0.861396	0.575686
	C10943	C	0.826035	0.798954	0.577105
	C10944	C	0.798854	0.798988	0.673358
	C10945	C	0.861396	0.861418	0.674246
	C10946	C	0.763516	0.763539	0.825928
	C10947	C	0.826011	0.825967	0.826930
	C10948	C	0.763447	0.763570	0.673687
	C10949	C	0.825976	0.826058	0.674812
	C10950	C	0.798990	0.798780	0.825358
	C10951	C	0.861552	0.861283	0.826535
	C10952	C	0.767668	0.857277	0.999980
	C10953	C	0.830129	0.794811	0.501448
	C10954	C	0.794866	0.830075	1.000313
	C10955	C	0.857323	0.767649	0.501338
	C10956	C	0.794856	0.794772	0.749172
	C10957	C	0.857394	0.857250	0.750353
	C10958	C	0.767551	0.767670	0.749551
	C10959	C	0.830027	0.830143	0.750904
	C10960	C	0.774560	0.850413	0.999869
	C10961	C	0.837048	0.787949	0.501626
	C10962	C	0.788027	0.837003	1.000325
	C10963	C	0.850454	0.774552	0.501850
	C10964	C	0.787953	0.787896	0.748798
	C10965	C	0.850453	0.850396	0.750129
	C10966	C	0.774474	0.774537	0.749091
	C10967	C	0.836926	0.837037	0.750647
	C10968	C	0.778252	0.847198	1.046997
	C10969	C	0.840413	0.784382	1.009465
	C10970	C	0.784864	0.840835	0.487403
	C10971	C	0.847012	0.778005	0.518270
	C10972	C	0.784818	0.840698	1.047113
	C10973	C	0.846978	0.777903	1.009619
	C10974	C	0.778334	0.847337	0.487326
	C10975	C	0.840475	0.784513	0.518173
	C10976	C	0.784386	0.784552	0.767030
	C10977	C	0.847130	0.846829	0.761674
	C10978	C	0.778054	0.777869	0.730223
	C10979	C	0.840250	0.840583	0.739132
	C10980	C	0.777839	0.778046	0.767590
	C10981	C	0.840558	0.840340	0.761872
	C10982	C	0.784606	0.784380	0.730077
	C10983	C	0.846826	0.847070	0.738781
	N10984	N	0.757482	0.867321	0.952943
	N10985	N	0.820062	0.804872	0.952932
	N10986	N	0.804974	0.820077	0.547150
	N10987	N	0.867428	0.757535	0.547766
	N10988	N	0.804959	0.819951	0.953069
	N10989	N	0.867425	0.757498	0.953065
	N10990	N	0.757641	0.867457	0.547150
	N10991	N	0.820006	0.804901	0.547991
	N10992	N	0.804883	0.804962	0.702337
	N10993	N	0.867406	0.867429	0.702846
	N10994	N	0.757515	0.757504	0.797561
	N10995	N	0.819986	0.819970	0.797885
	N10996	N	0.757485	0.757514	0.702503
	N10997	N	0.819987	0.820019	0.703330
	N10998	N	0.804968	0.804842	0.797124
	N10999	N	0.867507	0.867362	0.797826
	H11000	H	0.764750	0.985463	0.351798
	H11001	H	0.827266	0.923078	0.351203
	H11002	H	0.798080	0.952468	0.148916
	H11003	H	0.860211	0.889561	0.148112
	H11004	H	0.797654	0.952102	0.352376
	H11005	H	0.860323	0.889662	0.351015
	H11006	H	0.764658	0.985286	0.148761
	H11007	H	0.827017	0.922692	0.149187
	H11008	H	0.797939	0.922764	0.101621
	H11009	H	0.860354	0.985239	0.102505
	H11010	H	0.764825	0.889507	0.399240
	H11011	H	0.827025	0.952221	0.399944
	H11012	H	0.764494	0.889840	0.101801
	H11013	H	0.827244	0.952085	0.102342
	H11014	H	0.797839	0.922695	0.398947
	H11015	H	0.860149	0.985528	0.400124
	H11016	H	0.774941	0.973913	0.398431
	H11017	H	0.838961	0.913100	0.506366
	H11018	H	0.787822	0.963790	0.013548
	H11019	H	0.849548	0.900484	-0.041633
	H11020	H	0.786474	0.962411	0.398737
	H11021	H	0.850496	0.901579	0.506375
	H11022	H	0.776302	0.975333	0.013587
	H11023	H	0.838037	0.912076	-0.040750
	H11024	H	0.787330	0.911665	0.261051
	H11025	H	0.848939	0.975050	0.272656
	H11026	H	0.775224	0.900723	0.239313
	H11027	H	0.838514	0.962459	0.230772
	H11028	H	0.775709	0.900248	0.262007
	H11029	H	0.837460	0.963471	0.272369
	H11030	H	0.786777	0.912211	0.238619
	H11031	H	0.849939	0.974086	0.230864
	Co11032	Co	0.874895	0.999935	0.125255
	Co11033	Co	0.812458	0.937504	0.125753
	Co11034	Co	0.749995	0.874968	0.375133
	Co11035	Co	0.812407	0.937537	0.375770
	C11036	C	0.763617	0.986563	0.424494
	C11037	C	0.826078	0.924057	0.423966
	C11038	C	0.799063	0.951206	0.076268
	C11039	C	0.861343	0.888509	0.075611
	C11040	C	0.798849	0.951044	0.424744
	C11041	C	0.861416	0.888614	0.424011
	C11042	C	0.763563	0.986424	0.076020
	C11043	C	0.825957	0.923863	0.076286
	C11044	C	0.798950	0.923909	0.174445
	C11045	C	0.861379	0.986409	0.175057
	C11046	C	0.763632	0.888435	0.326469
	C11047	C	0.825986	0.951105	0.327068
	C11048	C	0.763467	0.888593	0.174493
	C11049	C	0.826092	0.951037	0.175049
	C11050	C	0.798911	0.923872	0.326576
	C11051	C	0.861289	0.986562	0.327243
	C11052	C	0.767653	0.982449	0.500433
	C11053	C	0.830119	0.919885	-0.000068
	C11054	C	0.794811	0.955184	0.501121
	C11055	C	0.857290	0.892623	-0.000489
	C11056	C	0.794837	0.919811	0.250302
	C11057	C	0.857237	0.982417	0.251349
	C11058	C	0.767653	0.892603	0.250629
	C11059	C	0.830143	0.955112	0.251153
	C11060	C	0.774515	0.975537	0.500449
	C11061	C	0.837020	0.912994	-0.000283
	C11062	C	0.787945	0.962086	0.501211
	C11063	C	0.850413	0.899532	-0.000449
	C11064	C	0.787998	0.912874	0.250017
	C11065	C	0.850379	0.975491	0.251618
	C11066	C	0.774537	0.899496	0.250748
	C11067	C	0.837041	0.962000	0.251480
	C11068	C	0.777684	0.971703	0.443419
	C11069	C	0.841001	0.910132	0.503305
	C11070	C	0.784935	0.965912	0.007743
	C11071	C	0.847017	0.903020	-0.023385
	C11072	C	0.784224	0.965177	0.443665
	C11073	C	0.847517	0.903602	0.503509
	C11074	C	0.778399	0.972429	0.007627
	C11075	C	0.840496	0.909552	-0.023098
	C11076	C	0.784685	0.909287	0.256543
	C11077	C	0.846671	0.972316	0.263473
	C11078	C	0.777844	0.903075	0.244046
	C11079	C	0.840762	0.965203	0.240045
	C11080	C	0.778126	0.902796	0.256942
	C11081	C	0.840177	0.965767	0.263276
	C11082	C	0.784404	0.909570	0.243620
	C11083	C	0.847250	0.971751	0.240097
	N11084	N	0.757582	0.992552	0.453101
	N11085	N	0.820053	0.930033	0.453047
	N11086	N	0.805035	0.945158	0.047738
	N11087	N	0.867386	0.882522	0.047001
	N11088	N	0.804887	0.945074	0.453467
	N11089	N	0.867444	0.882637	0.452982
	N11090	N	0.757606	0.992468	0.047298
	N11091	N	0.819967	0.929910	0.047906
	N11092	N	0.804923	0.929955	0.203571
	N11093	N	0.867334	0.992467	0.203448
	N11094	N	0.757595	0.882472	0.297516
	N11095	N	0.819945	0.945112	0.298200
	N11096	N	0.757524	0.882531	0.202942
	N11097	N	0.820010	0.945068	0.203380
	N11098	N	0.804885	0.929938	0.298197
	N11099	N	0.867290	0.992544	0.298142
	H11100	H	0.764749	0.985354	0.851305
	H11101	H	0.827383	0.923114	0.851571
	H11102	H	0.797886	0.952242	0.649398
	H11103	H	0.860213	0.889715	0.648436
	H11104	H	0.797505	0.951810	0.851191
	H11105	H	0.860409	0.889703	0.850935
	H11106	H	0.764505	0.985311	0.649397
	H11107	H	0.826949	0.922591	0.648153
	H11108	H	0.797614	0.922973	0.601066
	H11109	H	0.860359	0.985236	0.600841
	H11110	H	0.764578	0.889624	0.898922
	H11111	H	0.827131	0.952163	0.899774
	H11112	H	0.764593	0.889581	0.602026
	H11113	H	0.827227	0.952053	0.601458
	H11114	H	0.797837	0.922692	0.899336
	H11115	H	0.860149	0.985498	0.899448
	H11116	H	0.774540	0.973547	0.985531
	H11117	H	0.837891	0.911974	1.040798
	H11118	H	0.787565	0.963750	0.603955
	H11119	H	0.848393	0.899449	0.491861
	H11120	H	0.786095	0.962047	0.985957
	H11121	H	0.849396	0.900422	1.040940
	H11122	H	0.776020	0.975247	0.602393
	H11123	H	0.836861	0.910959	0.492748
	H11124	H	0.787788	0.911098	0.678188
	H11125	H	0.850023	0.974004	0.849832
	H11126	H	0.774474	0.901384	0.823204
	H11127	H	0.837368	0.963463	0.651367
	H11128	H	0.776286	0.899568	0.677681
	H11129	H	0.838559	0.962435	0.850501
	H11130	H	0.786011	0.912876	0.823506
	H11131	H	0.848855	0.975062	0.650023
	Co11132	Co	0.874920	1.000004	0.625368
	Co11133	Co	0.812494	0.937462	0.625303
	Co11134	Co	0.749970	0.874862	0.875203
	Co11135	Co	0.812407	0.937459	0.875334
	C11136	C	0.763602	0.986469	0.923753
	C11137	C	0.826126	0.924073	0.924009
	C11138	C	0.798970	0.951121	0.577071
	C11139	C	0.861365	0.888620	0.575742
	C11140	C	0.798761	0.950896	0.923896
	C11141	C	0.861431	0.888581	0.923464
	C11142	C	0.763484	0.986480	0.576581
	C11143	C	0.825934	0.923812	0.575814
	C11144	C	0.798781	0.923997	0.674150
	C11145	C	0.861407	0.986398	0.674091
	C11146	C	0.763447	0.888501	0.826227
	C11147	C	0.826055	0.950969	0.826999
	C11148	C	0.763436	0.888491	0.674490
	C11149	C	0.826098	0.950935	0.674388
	C11150	C	0.798890	0.923857	0.826492
	C11151	C	0.861289	0.986524	0.826389
	C11152	C	0.767637	0.982318	0.999755
	C11153	C	0.830064	0.919815	0.499547
	C11154	C	0.794819	0.955135	1.000108
	C11155	C	0.857308	0.892715	0.499519
	C11156	C	0.794735	0.919822	0.750449
	C11157	C	0.857270	0.982360	0.750265
	C11158	C	0.767515	0.892628	0.750500
	C11159	C	0.830193	0.955018	0.750767
	C11160	C	0.774496	0.975416	0.999639
	C11161	C	0.836955	0.912952	0.499320
	C11162	C	0.787914	0.961983	1.000023
	C11163	C	0.850403	0.899599	0.499223
	C11164	C	0.787845	0.912932	0.750798
	C11165	C	0.850386	0.975465	0.750455
	C11166	C	0.774416	0.899501	0.750931
	C11167	C	0.836996	0.961980	0.750681
	C11168	C	0.777463	0.971481	0.991905
	C11169	C	0.840415	0.909496	1.022291
	C11170	C	0.784807	0.965908	0.558473
	C11171	C	0.846355	0.902438	0.495092
	C11172	C	0.783966	0.964926	0.992033
	C11173	C	0.846924	0.902956	1.022490
	C11174	C	0.778273	0.972431	0.557870
	C11175	C	0.839844	0.908963	0.495287
	C11176	C	0.784889	0.908972	0.709987
	C11177	C	0.847251	0.971713	0.806072
	C11178	C	0.777372	0.903433	0.791699
	C11179	C	0.840091	0.965769	0.694949
	C11180	C	0.778371	0.902426	0.710143
	C11181	C	0.840732	0.965173	0.806385
	C11182	C	0.783885	0.909987	0.791704
	C11183	C	0.846611	0.972309	0.694713
	N11184	N	0.757618	0.992487	0.952595
	N11185	N	0.820056	0.930025	0.952808
	N11186	N	0.804977	0.945119	0.548184
	N11187	N	0.867400	0.882622	0.547572
	N11188	N	0.804846	0.944974	0.952936
	N11189	N	0.867434	0.882564	0.952359
	N11190	N	0.757507	0.992517	0.547957
	N11191	N	0.819977	0.929881	0.547661
	N11192	N	0.804819	0.929973	0.702683
	N11193	N	0.867388	0.992427	0.702706
	N11194	N	0.757487	0.882448	0.797631
	N11195	N	0.820042	0.944973	0.798092
	N11196	N	0.757463	0.882457	0.703100
	N11197	N	0.820080	0.944950	0.703067
	N11198	N	0.804880	0.929893	0.797691
	N11199	N	0.867307	0.992504	0.797548
	H11200	H	0.889552	0.110255	0.351114
	H11201	H	0.951902	0.047702	0.350990
	H11202	H	0.922525	0.076927	0.148503
	H11203	H	0.985274	0.014625	0.149093
	H11204	H	0.922785	0.077204	0.351722
	H11205	H	0.985395	0.014735	0.350796
	H11206	H	0.889658	0.110427	0.147804
	H11207	H	0.952151	0.047861	0.148020
	H11208	H	0.922711	0.047901	0.100710
	H11209	H	0.985060	0.110572	0.100385
	H11210	H	0.889617	0.014695	0.398362
	H11211	H	0.952046	0.077188	0.398351
	H11212	H	0.889609	0.014646	0.101202
	H11213	H	0.952245	0.076966	0.100505
	H11214	H	0.922898	0.047776	0.398914
	H11215	H	0.985453	0.110048	0.397589
	H11216	H	0.900698	0.099822	0.536299
	H11217	H	0.963389	0.037469	0.525151
	H11218	H	0.912281	0.088385	0.002903
	H11219	H	0.974568	0.025548	-0.063009
	H11220	H	0.912249	0.088292	0.536590
	H11221	H	0.974930	0.025974	0.525284
	H11222	H	0.900798	0.099944	0.001969
	H11223	H	0.963013	0.037044	-0.063661
	H11224	H	0.911594	0.037358	0.218557
	H11225	H	0.974639	0.099262	0.262057
	H11226	H	0.900913	0.025043	0.280695
	H11227	H	0.962791	0.088164	0.236075
	H11228	H	0.900028	0.025850	0.218114
	H11229	H	0.963105	0.087744	0.262160
	H11230	H	0.912425	0.036539	0.281645
	H11231	H	0.974317	0.099665	0.235482
	Co11232	Co	0.999942	0.124989	0.124603
	Co11233	Co	0.937464	0.062494	0.124938
	Co11234	Co	0.874957	0.000025	0.375470
	Co11235	Co	0.937412	0.062537	0.374761
	C11236	C	0.888450	0.111415	0.423723
	C11237	C	0.950890	0.048858	0.423371
	C11238	C	0.923748	0.075923	0.075790
	C11239	C	0.986413	0.013551	0.076179
	C11240	C	0.923875	0.076078	0.424348
	C11241	C	0.986411	0.013588	0.423929
	C11242	C	0.888569	0.111464	0.075286
	C11243	C	0.951030	0.048940	0.075466
	C11244	C	0.923847	0.048959	0.173987
	C11245	C	0.986281	0.111544	0.172884
	C11246	C	0.888500	0.013523	0.325917
	C11247	C	0.950969	0.076049	0.325632
	C11248	C	0.888509	0.013488	0.173667
	C11249	C	0.951068	0.075952	0.173516
	C11250	C	0.923927	0.048885	0.326381
	C11251	C	0.986476	0.111292	0.324737
	C11252	C	0.892603	0.107365	0.499714
	C11253	C	0.955081	0.044814	-0.000724
	C11254	C	0.919728	0.080138	0.500645
	C11255	C	0.982351	0.017644	-0.000231
	C11256	C	0.919792	0.044832	0.250146
	C11257	C	0.982301	0.107305	0.248633
	C11258	C	0.892611	0.017595	0.249754
	C11259	C	0.955118	0.080117	0.249462
	C11260	C	0.899434	0.100431	0.499900
	C11261	C	0.961987	0.037915	-0.000917
	C11262	C	0.912847	0.087007	0.500463
	C11263	C	0.975451	0.024519	-0.000936
	C11264	C	0.912950	0.037908	0.249983
	C11265	C	0.975424	0.100429	0.248427
	C11266	C	0.899495	0.024482	0.249702
	C11267	C	0.962017	0.086980	0.249281
	C11268	C	0.903066	0.097166	0.520444
	C11269	C	0.965675	0.034766	0.513843
	C11270	C	0.909643	0.090670	0.001323
	C11271	C	0.972013	0.027989	-0.035987
	C11272	C	0.909583	0.090627	0.520824
	C11273	C	0.972195	0.028238	0.513999
	C11274	C	0.903164	0.097223	0.001157
	C11275	C	0.965490	0.034521	-0.035866
	C11276	C	0.909262	0.034659	0.232200
	C11277	C	0.972046	0.096868	0.256120
	C11278	C	0.903199	0.027717	0.267357
	C11279	C	0.965369	0.090542	0.241750
	C11280	C	0.902709	0.028141	0.232141
	C11281	C	0.965536	0.090304	0.256446
	C11282	C	0.909745	0.034223	0.267631
	C11283	C	0.971875	0.097099	0.241139
	N11284	N	0.882428	0.117405	0.452359
	N11285	N	0.944937	0.054929	0.452287
	N11286	N	0.929820	0.069964	0.047389
	N11287	N	0.992449	0.007535	0.047481
	N11288	N	0.929892	0.070078	0.453000
	N11289	N	0.992436	0.007603	0.452869
	N11290	N	0.882565	0.117474	0.046651
	N11291	N	0.944996	0.054917	0.046895
	N11292	N	0.929870	0.054935	0.202582
	N11293	N	0.992317	0.117517	0.201719
	N11294	N	0.882510	0.007516	0.297386
	N11295	N	0.945012	0.070024	0.297018
	N11296	N	0.882498	0.007486	0.202526
	N11297	N	0.945050	0.069992	0.202331
	N11298	N	0.929901	0.054919	0.297339
	N11299	N	0.992407	0.117392	0.296501
	H11300	H	0.889666	0.110337	0.850666
	H11301	H	0.952064	0.047699	0.850683
	H11302	H	0.922574	0.076970	0.649403
	H11303	H	0.985177	0.014605	0.648847
	H11304	H	0.922867	0.077174	0.851053
	H11305	H	0.985391	0.014592	0.850760
	H11306	H	0.889688	0.110462	0.648298
	H11307	H	0.952261	0.047987	0.648224
	H11308	H	0.922826	0.047696	0.601099
	H11309	H	0.985216	0.110318	0.601113
	H11310	H	0.889642	0.014573	0.899391
	H11311	H	0.952119	0.077289	0.898464
	H11312	H	0.889644	0.014622	0.601506
	H11313	H	0.952186	0.077102	0.600640
	H11314	H	0.922692	0.047868	0.899109
	H11315	H	0.985394	0.110198	0.898656
	H11316	H	0.900121	0.099111	0.997794
	H11317	H	0.962891	0.036879	1.061444
	H11318	H	0.911581	0.087649	0.464169
	H11319	H	0.973969	0.025007	0.473592
	H11320	H	0.911582	0.087518	0.997205
	H11321	H	0.974387	0.025371	1.061113
	H11322	H	0.900053	0.099139	0.463513
	H11323	H	0.962456	0.036557	0.473602
	H11324	H	0.911876	0.037011	0.691033
	H11325	H	0.974613	0.099287	0.764038
	H11326	H	0.900603	0.025351	0.810121
	H11327	H	0.962820	0.088168	0.735711
	H11328	H	0.900314	0.025535	0.691564
	H11329	H	0.963111	0.087778	0.763185
	H11330	H	0.912019	0.036946	0.810748
	H11331	H	0.974282	0.099756	0.736061
	Co11332	Co	0.999969	0.124917	0.624652
	Co11333	Co	0.937396	0.062464	0.624829
	Co11334	Co	0.874971	-0.000035	0.875109
	Co11335	Co	0.937439	0.062475	0.875152
	C11336	C	0.888561	0.111413	0.923297
	C11337	C	0.950957	0.048864	0.923200
	C11338	C	0.923771	0.075969	0.576809
	C11339	C	0.986303	0.013519	0.576129
	C11340	C	0.923902	0.076033	0.923676
	C11341	C	0.986461	0.013536	0.923769
	C11342	C	0.888542	0.111533	0.575481
	C11343	C	0.951080	0.049020	0.575617
	C11344	C	0.923916	0.048872	0.673649
	C11345	C	0.986326	0.111433	0.673683
	C11346	C	0.888516	0.013492	0.826628
	C11347	C	0.951001	0.076073	0.825974
	C11348	C	0.888527	0.013533	0.674462
	C11349	C	0.951041	0.075964	0.673413
	C11350	C	0.923861	0.048954	0.826018
	C11351	C	0.986418	0.111365	0.826108
	C11352	C	0.892623	0.107346	0.999448
	C11353	C	0.955062	0.044868	0.499383
	C11354	C	0.919735	0.080042	0.999772
	C11355	C	0.982256	0.017606	0.499693
	C11356	C	0.919806	0.044807	0.749827
	C11357	C	0.982264	0.107329	0.749962
	C11358	C	0.892611	0.017622	0.750786
	C11359	C	0.955104	0.080116	0.749627
	C11360	C	0.899512	0.100445	0.999837
	C11361	C	0.961961	0.037960	0.499340
	C11362	C	0.912861	0.086966	0.999910
	C11363	C	0.975381	0.024520	0.499242
	C11364	C	0.912892	0.037949	0.750058
	C11365	C	0.975394	0.100453	0.750044
	C11366	C	0.899489	0.024499	0.750826
	C11367	C	0.962007	0.086967	0.749619
	C11368	C	0.902754	0.096760	0.998798
	C11369	C	0.965417	0.034427	1.033716
	C11370	C	0.909206	0.090256	0.479938
	C11371	C	0.971687	0.027725	0.484827
	C11372	C	0.909242	0.090211	0.998646
	C11373	C	0.971941	0.027906	1.033883
	C11374	C	0.902687	0.096789	0.479568
	C11375	C	0.965167	0.034258	0.484814
	C11376	C	0.909398	0.034527	0.717127
	C11377	C	0.972043	0.096885	0.757883
	C11378	C	0.903002	0.027920	0.784013
	C11379	C	0.965354	0.090550	0.741825
	C11380	C	0.902877	0.027987	0.717439
	C11381	C	0.965530	0.090330	0.757449
	C11382	C	0.909532	0.034448	0.783741
	C11383	C	0.971869	0.097106	0.742049
	N11384	N	0.882540	0.117434	0.952023
	N11385	N	0.944960	0.054887	0.952027
	N11386	N	0.929834	0.070025	0.547805
	N11387	N	0.992361	0.007541	0.547601
	N11388	N	0.929922	0.070037	0.952618
	N11389	N	0.992500	0.007570	0.952758
	N11390	N	0.882519	0.117502	0.546735
	N11391	N	0.945024	0.054990	0.547073
	N11392	N	0.929890	0.054901	0.702349
	N11393	N	0.992357	0.117424	0.702423
	N11394	N	0.882529	0.007487	0.797607
	N11395	N	0.945031	0.070026	0.797423
	N11396	N	0.882536	0.007512	0.702864
	N11397	N	0.945053	0.069964	0.702200
	N11398	N	0.929847	0.054963	0.797355
	N11399	N	0.992403	0.117374	0.797199
	H11400	H	0.889798	0.235419	0.349907
	H11401	H	0.952093	0.172720	0.350971
	H11402	H	0.922667	0.202029	0.148646
	H11403	H	0.985259	0.139661	0.147755
	H11404	H	0.922759	0.202057	0.350648
	H11405	H	0.985310	0.139530	0.350660
	H11406	H	0.889496	0.235188	0.148419
	H11407	H	0.951915	0.172637	0.148465
	H11408	H	0.922594	0.172866	0.101942
	H11409	H	0.985291	0.235306	0.100222
	H11410	H	0.889514	0.139746	0.399090
	H11411	H	0.952203	0.202136	0.397958
	H11412	H	0.889635	0.139712	0.101661
	H11413	H	0.951998	0.202273	0.100379
	H11414	H	0.923036	0.172523	0.399227
	H11415	H	0.985275	0.235311	0.398368
	H11416	H	0.899557	0.223540	0.603603
	H11417	H	0.962593	0.161483	0.481242
	H11418	H	0.911774	0.212767	-0.014913
	H11419	H	0.973945	0.149973	-0.039123
	H11420	H	0.911080	0.212013	0.603866
	H11421	H	0.974083	0.149985	0.481206
	H11422	H	0.900231	0.224231	-0.015193
	H11423	H	0.962425	0.161493	-0.038904
	H11424	H	0.911088	0.162897	0.311773
	H11425	H	0.974569	0.224461	0.240409
	H11426	H	0.901321	0.149618	0.190753
	H11427	H	0.962845	0.213084	0.257621
	H11428	H	0.899514	0.151397	0.312115
	H11429	H	0.963060	0.212901	0.240919
	H11430	H	0.912861	0.161104	0.190473
	H11431	H	0.974437	0.224600	0.257271
	Co11432	Co	0.999938	0.250021	0.124388
	Co11433	Co	0.937466	0.187471	0.124449
	Co11434	Co	0.874887	0.125002	0.374708
	Co11435	Co	0.937532	0.187472	0.374541
	C11436	C	0.888637	0.236432	0.422633
	C11437	C	0.951033	0.173865	0.423478
	C11438	C	0.923855	0.200985	0.076021
	C11439	C	0.986400	0.138569	0.075121
	C11440	C	0.923925	0.200982	0.423320
	C11441	C	0.986427	0.138464	0.423231
	C11442	C	0.888479	0.236388	0.075699
	C11443	C	0.950937	0.173826	0.075332
	C11444	C	0.923834	0.173943	0.174323
	C11445	C	0.986420	0.236476	0.172987
	C11446	C	0.888453	0.138607	0.326256
	C11447	C	0.951053	0.201033	0.325255
	C11448	C	0.888532	0.138587	0.174204
	C11449	C	0.950960	0.201083	0.172841
	C11450	C	0.924032	0.173803	0.326788
	C11451	C	0.986410	0.236473	0.325429
	C11452	C	0.892656	0.232267	0.498701
	C11453	C	0.955141	0.169820	-0.001111
	C11454	C	0.919923	0.205087	0.499366
	C11455	C	0.982363	0.142678	-0.000786
	C11456	C	0.919836	0.169809	0.250802
	C11457	C	0.982306	0.232373	0.249165
	C11458	C	0.892610	0.142661	0.250578
	C11459	C	0.955122	0.205157	0.248957
	C11460	C	0.899559	0.225367	0.498871
	C11461	C	0.962041	0.162942	-0.001399
	C11462	C	0.913005	0.211974	0.498911
	C11463	C	0.975450	0.149535	-0.001203
	C11464	C	0.912924	0.162946	0.251059
	C11465	C	0.975441	0.225488	0.248961
	C11466	C	0.899471	0.149551	0.251180
	C11467	C	0.962004	0.212029	0.248941
	C11468	C	0.902481	0.221422	0.557552
	C11469	C	0.965264	0.159198	0.489015
	C11470	C	0.909359	0.215362	-0.008491
	C11471	C	0.971664	0.152692	-0.022523
	C11472	C	0.908995	0.214914	0.557695
	C11473	C	0.971788	0.152658	0.488990
	C11474	C	0.902834	0.221879	-0.008507
	C11475	C	0.965159	0.159233	-0.022607
	C11476	C	0.908962	0.159984	0.285151
	C11477	C	0.972043	0.221977	0.244185
	C11478	C	0.903413	0.152513	0.216993
	C11479	C	0.965414	0.215527	0.253654
	C11480	C	0.902404	0.153477	0.285105
	C11481	C	0.965512	0.215428	0.244321
	C11482	C	0.909965	0.159021	0.217006
	C11483	C	0.971952	0.222071	0.253685
	N11484	N	0.882584	0.242385	0.451839
	N11485	N	0.945078	0.179898	0.452367
	N11486	N	0.929873	0.194994	0.047174
	N11487	N	0.992434	0.132548	0.046605
	N11488	N	0.929981	0.194996	0.452166
	N11489	N	0.992378	0.132424	0.452203
	N11490	N	0.882514	0.242419	0.046870
	N11491	N	0.945005	0.179886	0.046563
	N11492	N	0.929907	0.179915	0.202691
	N11493	N	0.992393	0.242485	0.201996
	N11494	N	0.882477	0.132586	0.297381
	N11495	N	0.945024	0.195039	0.296560
	N11496	N	0.882503	0.132590	0.202599
	N11497	N	0.944976	0.195067	0.201736
	N11498	N	0.930019	0.179818	0.297819
	N11499	N	0.992389	0.242487	0.296919
	H11500	H	0.889945	0.235450	0.850953
	H11501	H	0.952435	0.173126	0.850043
	H11502	H	0.923026	0.202234	0.648391
	H11503	H	0.985304	0.139623	0.648087
	H11504	H	0.922926	0.202252	0.851268
	H11505	H	0.985335	0.139685	0.850804
	H11506	H	0.889701	0.235205	0.647660
	H11507	H	0.952284	0.172832	0.647575
	H11508	H	0.922917	0.172762	0.600659
	H11509	H	0.985391	0.235381	0.600687
	H11510	H	0.889603	0.139735	0.898038
	H11511	H	0.952206	0.202223	0.899015
	H11512	H	0.889588	0.139673	0.600635
	H11513	H	0.952279	0.202073	0.601175
	H11514	H	0.922852	0.172838	0.898681
	H11515	H	0.985394	0.235443	0.898402
	H11516	H	0.900807	0.224836	1.014092
	H11517	H	0.963481	0.162495	1.036323
	H11518	H	0.913003	0.213797	0.394005
	H11519	H	0.975067	0.151010	0.517409
	H11520	H	0.912371	0.213289	1.014646
	H11521	H	0.975012	0.150953	1.036600
	H11522	H	0.901440	0.225299	0.393240
	H11523	H	0.963502	0.162452	0.516598
	H11524	H	0.911341	0.162640	0.758156
	H11525	H	0.973945	0.225194	0.745390
	H11526	H	0.901192	0.149781	0.740998
	H11527	H	0.963650	0.212424	0.754005
	H11528	H	0.899883	0.151085	0.757407
	H11529	H	0.962468	0.213602	0.745354
	H11530	H	0.912719	0.161321	0.741072
	H11531	H	0.975068	0.224033	0.754210
	Co11532	Co	1.000004	0.250052	0.624706
	Co11533	Co	0.937558	0.187476	0.624900
	Co11534	Co	0.874961	0.124968	0.874705
	Co11535	Co	0.937501	0.187542	0.874492
	C11536	C	0.888684	0.236522	0.923434
	C11537	C	0.951181	0.174074	0.922950
	C11538	C	0.924043	0.201088	0.575574
	C11539	C	0.986445	0.138521	0.575516
	C11540	C	0.923978	0.201109	0.924113
	C11541	C	0.986455	0.138589	0.923248
	C11542	C	0.888565	0.236315	0.575134
	C11543	C	0.951152	0.173932	0.575356
	C11544	C	0.923971	0.173893	0.673577
	C11545	C	0.986471	0.236495	0.673436
	C11546	C	0.888507	0.138551	0.825338
	C11547	C	0.951103	0.201113	0.826332
	C11548	C	0.888521	0.138515	0.673490
	C11549	C	0.951135	0.201012	0.674008
	C11550	C	0.923939	0.173937	0.825832
	C11551	C	0.986457	0.236506	0.825824
	C11552	C	0.892666	0.232374	0.999593
	C11553	C	0.955186	0.169801	0.499147
	C11554	C	0.919856	0.205169	1.000162
	C11555	C	0.982370	0.142616	0.499161
	C11556	C	0.919867	0.169809	0.749736
	C11557	C	0.982368	0.232445	0.749732
	C11558	C	0.892648	0.142591	0.749304
	C11559	C	0.955199	0.205146	0.749941
	C11560	C	0.899530	0.225468	0.999416
	C11561	C	0.962068	0.162916	0.499100
	C11562	C	0.912957	0.212057	1.000022
	C11563	C	0.975470	0.149466	0.499153
	C11564	C	0.913014	0.162889	0.749956
	C11565	C	0.975469	0.225553	0.749797
	C11566	C	0.899545	0.149477	0.749387
	C11567	C	0.962098	0.212038	0.749471
	C11568	C	0.903162	0.222197	1.007686
	C11569	C	0.965759	0.159777	1.019678
	C11570	C	0.910062	0.215919	0.440072
	C11571	C	0.972310	0.153213	0.509224
	C11572	C	0.909694	0.215675	1.007980
	C11573	C	0.972284	0.153246	1.019869
	C11574	C	0.903532	0.222424	0.439904
	C11575	C	0.965781	0.159741	0.509166
	C11576	C	0.909178	0.159829	0.754498
	C11577	C	0.971710	0.222406	0.747401
	C11578	C	0.903372	0.152553	0.744953
	C11579	C	0.965860	0.215195	0.752006
	C11580	C	0.902635	0.153319	0.753987
	C11581	C	0.965218	0.215838	0.747190
	C11582	C	0.909916	0.159081	0.744985
	C11583	C	0.972345	0.221750	0.752123
	N11584	N	0.882623	0.242492	0.951977
	N11585	N	0.945148	0.180026	0.951822
	N11586	N	0.930068	0.195088	0.547144
	N11587	N	0.992392	0.132451	0.547021
	N11588	N	0.929919	0.195034	0.952790
	N11589	N	0.992462	0.132569	0.951802
	N11590	N	0.882536	0.242331	0.546659
	N11591	N	0.945144	0.179943	0.547054
	N11592	N	0.929930	0.179950	0.702186
	N11593	N	0.992481	0.242494	0.702151
	N11594	N	0.882484	0.132563	0.797072
	N11595	N	0.945086	0.195089	0.797733
	N11596	N	0.882502	0.132527	0.702192
	N11597	N	0.945097	0.195034	0.702754
	N11598	N	0.929924	0.179965	0.796988
	N11599	N	0.992480	0.242511	0.797145
	H11600	H	0.889549	0.360305	0.349333
	H11601	H	0.952037	0.297762	0.350141
	H11602	H	0.922751	0.327022	0.147885
	H11603	H	0.985230	0.264556	0.147816
	H11604	H	0.922807	0.327123	0.350563
	H11605	H	0.985362	0.264659	0.350740
	H11606	H	0.889713	0.360375	0.147571
	H11607	H	0.952304	0.297941	0.146784
	H11608	H	0.922871	0.297702	0.099906
	H11609	H	0.985245	0.360455	0.099212
	H11610	H	0.889591	0.264684	0.397674
	H11611	H	0.952142	0.327216	0.397344
	H11612	H	0.889683	0.264566	0.100618
	H11613	H	0.952124	0.327211	0.100594
	H11614	H	0.922754	0.297908	0.397830
	H11615	H	0.985344	0.360339	0.397641
	H11616	H	0.900592	0.349510	0.408712
	H11617	H	0.962955	0.287058	0.473922
	H11618	H	0.912093	0.338036	0.027575
	H11619	H	0.974670	0.275653	-0.114827
	H11620	H	0.912074	0.337975	0.409196
	H11621	H	0.974424	0.275507	0.474022
	H11622	H	0.900605	0.349567	0.027226
	H11623	H	0.963157	0.287157	-0.115303
	H11624	H	0.911613	0.287334	0.179807
	H11625	H	0.975022	0.349055	0.336045
	H11626	H	0.900677	0.275320	0.317086
	H11627	H	0.962480	0.338557	0.160128
	H11628	H	0.900112	0.275799	0.181024
	H11629	H	0.963505	0.337519	0.336094
	H11630	H	0.912283	0.286752	0.317572
	H11631	H	0.973932	0.350130	0.160120
	Co11632	Co	1.000023	0.375004	0.123960
	Co11633	Co	0.937511	0.312515	0.123896
	Co11634	Co	0.875004	0.249943	0.374767
	Co11635	Co	0.937472	0.312525	0.374145
	C11636	C	0.888530	0.361411	0.422346
	C11637	C	0.950979	0.298909	0.422690
	C11638	C	0.923909	0.326019	0.075258
	C11639	C	0.986379	0.263531	0.075017
	C11640	C	0.923918	0.326036	0.423052
	C11641	C	0.986490	0.263581	0.423330
	C11642	C	0.888590	0.361484	0.075064
	C11643	C	0.951112	0.299006	0.074316
	C11644	C	0.923972	0.298900	0.172640
	C11645	C	0.986352	0.361539	0.172263
	C11646	C	0.888529	0.263561	0.325240
	C11647	C	0.951068	0.326059	0.324982
	C11648	C	0.888579	0.263480	0.173068
	C11649	C	0.951055	0.326071	0.172916
	C11650	C	0.923898	0.299001	0.325185
	C11651	C	0.986415	0.361459	0.324561
	C11652	C	0.892656	0.357350	0.498167
	C11653	C	0.955145	0.294860	-0.001889
	C11654	C	0.919859	0.330125	0.498906
	C11655	C	0.982376	0.267714	-0.001257
	C11656	C	0.919873	0.294853	0.248911
	C11657	C	0.982268	0.357446	0.248380
	C11658	C	0.892639	0.267641	0.249031
	C11659	C	0.955170	0.330145	0.248741
	C11660	C	0.899572	0.350465	0.498217
	C11661	C	0.962041	0.287974	-0.001732
	C11662	C	0.912984	0.337030	0.498748
	C11663	C	0.975488	0.274591	-0.001238
	C11664	C	0.912968	0.288005	0.248803
	C11665	C	0.975390	0.350547	0.248263
	C11666	C	0.899479	0.274566	0.248914
	C11667	C	0.961990	0.337095	0.248357
	C11668	C	0.903062	0.347003	0.448134
	C11669	C	0.965421	0.284485	0.484737
	C11670	C	0.909588	0.340550	0.014980
	C11671	C	0.972116	0.278100	-0.065150
	C11672	C	0.909585	0.340492	0.448396
	C11673	C	0.971950	0.277962	0.484886
	C11674	C	0.903064	0.347086	0.014970
	C11675	C	0.965576	0.284604	-0.065358
	C11676	C	0.909301	0.284711	0.210624
	C11677	C	0.972247	0.346795	0.297528
	C11678	C	0.903085	0.277901	0.287255
	C11679	C	0.965140	0.340844	0.198815
	C11680	C	0.902744	0.278186	0.210698
	C11681	C	0.965738	0.340255	0.297489
	C11682	C	0.909642	0.284420	0.287103
	C11683	C	0.971657	0.347379	0.198790
	N11684	N	0.882550	0.367451	0.451252
	N11685	N	0.945013	0.304950	0.451586
	N11686	N	0.929950	0.320072	0.046377
	N11687	N	0.992414	0.257549	0.046279
	N11688	N	0.929946	0.320058	0.451591
	N11689	N	0.992532	0.257595	0.451916
	N11690	N	0.882574	0.367452	0.046188
	N11691	N	0.945078	0.304989	0.045884
	N11692	N	0.929954	0.304923	0.201136
	N11693	N	0.992418	0.367474	0.201193
	N11694	N	0.882558	0.257524	0.296861
	N11695	N	0.945056	0.320057	0.296488
	N11696	N	0.882573	0.257496	0.202128
	N11697	N	0.945055	0.320061	0.201663
	N11698	N	0.929912	0.304995	0.296451
	N11699	N	0.992450	0.367435	0.295989
	H11700	H	0.889780	0.360388	0.850017
	H11701	H	0.952124	0.297768	0.849442
	H11702	H	0.922920	0.327214	0.647577
	H11703	H	0.985254	0.264665	0.647851
	H11704	H	0.922902	0.327203	0.850682
	H11705	H	0.985488	0.264788	0.849728
	H11706	H	0.889699	0.360375	0.647354
	H11707	H	0.952396	0.298071	0.647533
	H11708	H	0.922943	0.297771	0.599485
	H11709	H	0.985363	0.360264	0.601194
	H11710	H	0.889710	0.264686	0.897814
	H11711	H	0.952227	0.327090	0.898339
	H11712	H	0.889712	0.264564	0.599613
	H11713	H	0.952238	0.327213	0.601041
	H11714	H	0.922752	0.297949	0.897897
	H11715	H	0.985161	0.360586	0.897997
	H11716	H	0.900491	0.349498	0.971091
	H11717	H	0.962863	0.286881	1.112161
	H11718	H	0.911926	0.338008	0.588070
	H11719	H	0.974454	0.275432	0.522606
	H11720	H	0.912009	0.337956	0.971129
	H11721	H	0.974419	0.275401	1.112822
	H11722	H	0.900402	0.349528	0.587039
	H11723	H	0.962912	0.286914	0.521954
	H11724	H	0.912452	0.286654	0.634263
	H11725	H	0.974358	0.349664	0.809394
	H11726	H	0.900037	0.275944	0.861615
	H11727	H	0.963172	0.337878	0.689952
	H11728	H	0.900928	0.275115	0.634801
	H11729	H	0.962945	0.338047	0.808264
	H11730	H	0.911534	0.287471	0.861630
	H11731	H	0.974626	0.349469	0.690260
	Co11732	Co	0.999968	0.374971	0.623724
	Co11733	Co	0.937556	0.312535	0.623949
	Co11734	Co	0.875013	0.249979	0.874321
	Co11735	Co	0.937470	0.312511	0.873801
	C11736	C	0.888616	0.361466	0.922747
	C11737	C	0.951017	0.298911	0.922191
	C11738	C	0.923975	0.326085	0.575073
	C11739	C	0.986437	0.263559	0.575230
	C11740	C	0.924008	0.326141	0.923240
	C11741	C	0.986517	0.263658	0.922577
	C11742	C	0.888612	0.361462	0.574241
	C11743	C	0.951172	0.299051	0.574880
	C11744	C	0.923977	0.298934	0.672310
	C11745	C	0.986431	0.361417	0.673727
	C11746	C	0.888586	0.263549	0.825112
	C11747	C	0.951129	0.325986	0.825799
	C11748	C	0.888582	0.263496	0.672538
	C11749	C	0.951113	0.326034	0.673384
	C11750	C	0.923865	0.299009	0.824778
	C11751	C	0.986319	0.361585	0.825203
	C11752	C	0.892698	0.357386	0.999090
	C11753	C	0.955145	0.294861	0.498723
	C11754	C	0.919886	0.330184	0.999237
	C11755	C	0.982350	0.267638	0.499228
	C11756	C	0.919813	0.294916	0.748353
	C11757	C	0.982289	0.357423	0.749764
	C11758	C	0.892644	0.267642	0.748521
	C11759	C	0.955249	0.330079	0.749711
	C11760	C	0.899595	0.350509	0.999240
	C11761	C	0.961993	0.287935	0.498551
	C11762	C	0.913009	0.337068	0.999534
	C11763	C	0.975398	0.274463	0.498863
	C11764	C	0.912936	0.287999	0.748265
	C11765	C	0.975417	0.350538	0.749744
	C11766	C	0.899530	0.274545	0.748250
	C11767	C	0.962101	0.337005	0.749558
	C11768	C	0.902994	0.347029	0.983499
	C11769	C	0.965422	0.284466	1.062454
	C11770	C	0.909480	0.340460	0.548684
	C11771	C	0.971940	0.277894	0.512002
	C11772	C	0.909513	0.340488	0.983908
	C11773	C	0.971969	0.277965	1.062612
	C11774	C	0.902990	0.347010	0.548175
	C11775	C	0.965440	0.284452	0.511540
	C11776	C	0.909729	0.284315	0.684227
	C11777	C	0.971916	0.347100	0.782976
	C11778	C	0.902715	0.278240	0.811704
	C11779	C	0.965593	0.340404	0.716220
	C11780	C	0.903220	0.277776	0.684481
	C11781	C	0.965449	0.340521	0.782760
	C11782	C	0.909229	0.284768	0.811979
	C11783	C	0.972060	0.346988	0.716254
	N11784	N	0.882566	0.367431	0.951372
	N11785	N	0.945010	0.304912	0.951217
	N11786	N	0.930012	0.320102	0.546395
	N11787	N	0.992502	0.257599	0.546901
	N11788	N	0.930011	0.320126	0.951869
	N11789	N	0.992482	0.257629	0.951467
	N11790	N	0.882594	0.367477	0.545915
	N11791	N	0.945128	0.305015	0.546423
	N11792	N	0.929996	0.304934	0.701291
	N11793	N	0.992460	0.367419	0.701826
	N11794	N	0.882584	0.257514	0.796724
	N11795	N	0.945098	0.320032	0.796778
	N11796	N	0.882589	0.257485	0.701807
	N11797	N	0.945081	0.320065	0.701951
	N11798	N	0.929909	0.304988	0.796247
	N11799	N	0.992405	0.367522	0.796366
	H11800	H	0.889732	0.485206	0.350683
	H11801	H	0.952198	0.422806	0.350057
	H11802	H	0.922845	0.452323	0.147014
	H11803	H	0.985386	0.389783	0.148617
	H11804	H	0.922821	0.452165	0.350674
	H11805	H	0.985185	0.389502	0.349914
	H11806	H	0.889974	0.485571	0.147513
	H11807	H	0.952148	0.422917	0.147479
	H11808	H	0.922847	0.422951	0.100284
	H11809	H	0.985347	0.485360	0.100141
	H11810	H	0.889682	0.389669	0.397907
	H11811	H	0.952032	0.452288	0.398202
	H11812	H	0.889860	0.389648	0.099938
	H11813	H	0.952297	0.452171	0.101086
	H11814	H	0.922957	0.422632	0.397567
	H11815	H	0.985365	0.485340	0.398747
	H11816	H	0.900884	0.474923	0.441211
	H11817	H	0.963489	0.412409	0.551000
	H11818	H	0.912310	0.463259	-0.054250
	H11819	H	0.974532	0.400462	0.051597
	H11820	H	0.912328	0.463334	0.441407
	H11821	H	0.975009	0.400904	0.551317
	H11822	H	0.900749	0.474720	-0.054946
	H11823	H	0.962972	0.411961	0.051517
	H11824	H	0.912057	0.411957	0.325414
	H11825	H	0.974932	0.474179	0.348980
	H11826	H	0.900559	0.400496	0.171868
	H11827	H	0.962629	0.463380	0.150565
	H11828	H	0.900468	0.400481	0.325120
	H11829	H	0.963392	0.462670	0.349322
	H11830	H	0.912079	0.412036	0.171678
	H11831	H	0.974162	0.474899	0.149850
	Co11832	Co	1.000039	0.500053	0.124850
	Co11833	Co	0.937512	0.437575	0.124426
	Co11834	Co	0.874990	0.375048	0.373668
	Co11835	Co	0.937501	0.437545	0.374603
	C11836	C	0.888582	0.486400	0.423307
	C11837	C	0.951061	0.423939	0.422771
	C11838	C	0.923960	0.451120	0.074745
	C11839	C	0.986488	0.388620	0.075617
	C11840	C	0.923892	0.451049	0.423489
	C11841	C	0.986373	0.388458	0.422688
	C11842	C	0.888690	0.486604	0.074849
	C11843	C	0.951102	0.424003	0.075222
	C11844	C	0.923968	0.424022	0.172879
	C11845	C	0.986450	0.486476	0.172873
	C11846	C	0.888546	0.388612	0.324933
	C11847	C	0.951009	0.451143	0.325733
	C11848	C	0.888644	0.388592	0.172416
	C11849	C	0.951106	0.451110	0.173577
	C11850	C	0.924054	0.423871	0.325230
	C11851	C	0.986444	0.486466	0.325621
	C11852	C	0.892657	0.482348	0.499512
	C11853	C	0.955189	0.419887	-0.000756
	C11854	C	0.919825	0.455135	0.499855
	C11855	C	0.982360	0.392663	-0.000704
	C11856	C	0.919918	0.419851	0.248993
	C11857	C	0.982365	0.482381	0.249279
	C11858	C	0.892679	0.392697	0.248840
	C11859	C	0.955152	0.455190	0.249794
	C11860	C	0.899579	0.475486	0.500044
	C11861	C	0.962037	0.412944	-0.000445
	C11862	C	0.912991	0.462063	0.500257
	C11863	C	0.975452	0.399531	-0.000171
	C11864	C	0.913062	0.412939	0.249027
	C11865	C	0.975508	0.475480	0.249276
	C11866	C	0.899605	0.399535	0.249123
	C11867	C	0.962076	0.462063	0.249851
	C11868	C	0.903200	0.472234	0.467268
	C11869	C	0.965773	0.409735	0.527790
	C11870	C	0.909661	0.465618	-0.031277
	C11871	C	0.972001	0.402935	0.028615
	C11872	C	0.909727	0.465703	0.467213
	C11873	C	0.972314	0.403198	0.527916
	C11874	C	0.903124	0.472145	-0.031433
	C11875	C	0.965495	0.409490	0.028703
	C11876	C	0.909585	0.409488	0.291800
	C11877	C	0.972261	0.471828	0.305068
	C11878	C	0.903050	0.402995	0.205889
	C11879	C	0.965329	0.465710	0.194051
	C11880	C	0.903039	0.402968	0.291776
	C11881	C	0.965730	0.465321	0.305339
	C11882	C	0.909590	0.409513	0.205820
	C11883	C	0.971860	0.472225	0.193715
	N11884	N	0.882564	0.492421	0.451741
	N11885	N	0.945064	0.429934	0.451869
	N11886	N	0.929974	0.445114	0.046257
	N11887	N	0.992482	0.382589	0.046864
	N11888	N	0.929894	0.445031	0.451986
	N11889	N	0.992379	0.382461	0.451274
	N11890	N	0.882645	0.492567	0.046262
	N11891	N	0.945123	0.430018	0.046707
	N11892	N	0.929991	0.429982	0.202067
	N11893	N	0.992430	0.492516	0.201753
	N11894	N	0.882516	0.382670	0.295860
	N11895	N	0.944976	0.445160	0.296847
	N11896	N	0.882577	0.382637	0.201104
	N11897	N	0.945019	0.445159	0.202150
	N11898	N	0.930017	0.429931	0.296796
	N11899	N	0.992432	0.492496	0.296767
	H11900	H	0.889475	0.485119	0.849704
	H11901	H	0.952052	0.422807	0.851122
	H11902	H	0.922869	0.452148	0.648600
	H11903	H	0.985516	0.389806	0.647581
	H11904	H	0.922824	0.452194	0.850169
	H11905	H	0.985215	0.389597	0.849611
	H11906	H	0.889747	0.485370	0.647960
	H11907	H	0.952317	0.422784	0.647745
	H11908	H	0.922680	0.422924	0.600814
	H11909	H	0.985223	0.485427	0.600600
	H11910	H	0.889608	0.389732	0.897448
	H11911	H	0.952020	0.452344	0.897522
	H11912	H	0.889892	0.389569	0.600043
	H11913	H	0.952171	0.452080	0.600277
	H11914	H	0.922893	0.422794	0.898384
	H11915	H	0.985384	0.485265	0.897870
	H11916	H	0.900199	0.474344	1.052211
	H11917	H	0.963009	0.412122	0.948272
	H11918	H	0.911729	0.462639	0.559401
	H11919	H	0.974122	0.400042	0.447189
	H11920	H	0.911713	0.462812	1.051776
	H11921	H	0.974524	0.400589	0.947739
	H11922	H	0.900219	0.474145	0.558919
	H11923	H	0.962566	0.411561	0.446703
	H11924	H	0.912065	0.411946	0.750154
	H11925	H	0.974832	0.474079	0.818748
	H11926	H	0.900359	0.400629	0.749063
	H11927	H	0.962510	0.463541	0.680576
	H11928	H	0.900612	0.400421	0.749741
	H11929	H	0.963345	0.462549	0.817791
	H11930	H	0.911858	0.412164	0.749558
	H11931	H	0.974054	0.475070	0.680272
	Co11932	Co	1.000060	0.499947	0.624792
	Co11933	Co	0.937518	0.437434	0.624456
	Co11934	Co	0.875036	0.374977	0.873796
	Co11935	Co	0.937511	0.437520	0.874117
	C11936	C	0.888437	0.486362	0.922296
	C11937	C	0.951046	0.423952	0.923377
	C11938	C	0.923934	0.451028	0.575616
	C11939	C	0.986546	0.388618	0.574787
	C11940	C	0.923958	0.451085	0.922712
	C11941	C	0.986401	0.388528	0.922778
	C11942	C	0.888586	0.486462	0.575539
	C11943	C	0.951131	0.423937	0.575154
	C11944	C	0.923860	0.423974	0.673458
	C11945	C	0.986405	0.486499	0.673309
	C11946	C	0.888553	0.388574	0.825141
	C11947	C	0.950954	0.451169	0.824836
	C11948	C	0.888686	0.388487	0.672790
	C11949	C	0.951034	0.451043	0.673079
	C11950	C	0.923965	0.423924	0.825803
	C11951	C	0.986480	0.486416	0.825313
	C11952	C	0.892651	0.482376	0.998579
	C11953	C	0.955179	0.419840	0.498806
	C11954	C	0.919838	0.455204	0.998547
	C11955	C	0.982381	0.392653	0.498809
	C11956	C	0.919835	0.419881	0.749856
	C11957	C	0.982308	0.482400	0.749166
	C11958	C	0.892684	0.392630	0.749206
	C11959	C	0.955072	0.455229	0.748991
	C11960	C	0.899550	0.475507	0.998704
	C11961	C	0.962065	0.412950	0.498600
	C11962	C	0.912960	0.462086	0.998502
	C11963	C	0.975529	0.399541	0.498914
	C11964	C	0.912920	0.413022	0.750220
	C11965	C	0.975396	0.475540	0.749289
	C11966	C	0.899545	0.399538	0.749740
	C11967	C	0.961971	0.462121	0.749251
	C11968	C	0.902815	0.471929	1.028598
	C11969	C	0.965500	0.409554	0.970929
	C11970	C	0.909377	0.465311	0.533305
	C11971	C	0.971811	0.402744	0.469643
	C11972	C	0.909361	0.465409	1.028496
	C11973	C	0.972021	0.403030	0.970889
	C11974	C	0.902858	0.471838	0.533142
	C11975	C	0.965255	0.409269	0.469621
	C11976	C	0.909540	0.409496	0.750208
	C11977	C	0.972188	0.471816	0.787928
	C11978	C	0.902896	0.403075	0.749459
	C11979	C	0.965189	0.465826	0.710861
	C11980	C	0.903043	0.402955	0.750289
	C11981	C	0.965658	0.465283	0.787865
	C11982	C	0.909411	0.409600	0.749853
	C11983	C	0.971711	0.472362	0.710691
	N11984	N	0.882495	0.492424	0.951214
	N11985	N	0.945092	0.429993	0.952140
	N11986	N	0.929925	0.445010	0.546731
	N11987	N	0.992469	0.382554	0.545974
	N11988	N	0.929970	0.445091	0.951742
	N11989	N	0.992461	0.382547	0.951555
	N11990	N	0.882574	0.492446	0.546769
	N11991	N	0.945087	0.429907	0.546734
	N11992	N	0.929926	0.429937	0.701902
	N11993	N	0.992499	0.492423	0.701962
	N11994	N	0.882576	0.382554	0.796146
	N11995	N	0.944986	0.445123	0.796256
	N11996	N	0.882660	0.382508	0.701245
	N11997	N	0.945023	0.445050	0.701727
	N11998	N	0.929983	0.429917	0.796793
	N11999	N	0.992523	0.492389	0.796928
	H12000	H	0.889606	0.610224	0.351028
	H12001	H	0.952217	0.547805	0.350366
	H12002	H	0.922652	0.577050	0.147268
	H12003	H	0.985372	0.514758	0.148374
	H12004	H	0.922898	0.577281	0.351021
	H12005	H	0.985277	0.514526	0.351480
	H12006	H	0.889611	0.610302	0.148057
	H12007	H	0.952360	0.548034	0.148389
	H12008	H	0.922839	0.547964	0.100670
	H12009	H	0.985558	0.610308	0.100726
	H12010	H	0.889700	0.514658	0.398489
	H12011	H	0.952226	0.577209	0.397996
	H12012	H	0.889713	0.514625	0.100766
	H12013	H	0.952264	0.577206	0.100806
	H12014	H	0.922737	0.547981	0.398428
	H12015	H	0.985328	0.610385	0.398632
	H12016	H	0.899661	0.598686	0.378855
	H12017	H	0.962664	0.536583	0.525911
	H12018	H	0.911890	0.587886	-0.015721
	H12019	H	0.974565	0.525575	-0.015797
	H12020	H	0.911164	0.587122	0.379162
	H12021	H	0.974161	0.525029	0.525862
	H12022	H	0.900511	0.599615	-0.015697
	H12023	H	0.962974	0.536990	-0.015220
	H12024	H	0.912388	0.536716	0.190908
	H12025	H	0.974783	0.599209	0.281584
	H12026	H	0.900185	0.525936	0.307462
	H12027	H	0.962711	0.588446	0.217645
	H12028	H	0.900828	0.525158	0.191652
	H12029	H	0.963241	0.587694	0.282197
	H12030	H	0.911666	0.537503	0.307357
	H12031	H	0.974275	0.599907	0.218190
	Co12032	Co	1.000089	0.624979	0.124267
	Co12033	Co	0.937546	0.562526	0.124167
	Co12034	Co	0.875015	0.499963	0.374307
	Co12035	Co	0.937494	0.562520	0.374412
	C12036	C	0.888501	0.611368	0.423600
	C12037	C	0.951047	0.548893	0.423099
	C12038	C	0.923881	0.575955	0.074638
	C12039	C	0.986482	0.513611	0.075802
	C12040	C	0.923970	0.576090	0.423666
	C12041	C	0.986425	0.513484	0.424235
	C12042	C	0.888608	0.611453	0.075299
	C12043	C	0.951128	0.548994	0.075483
	C12044	C	0.923927	0.549037	0.173509
	C12045	C	0.986552	0.611431	0.173572
	C12046	C	0.888608	0.513575	0.325650
	C12047	C	0.951076	0.576075	0.325572
	C12048	C	0.888613	0.513569	0.173551
	C12049	C	0.951109	0.576051	0.173128
	C12050	C	0.923867	0.549034	0.325571
	C12051	C	0.986425	0.611494	0.325754
	C12052	C	0.892639	0.607314	0.499746
	C12053	C	0.955104	0.544778	-0.000768
	C12054	C	0.919810	0.580117	0.500029
	C12055	C	0.982391	0.517673	-0.000477
	C12056	C	0.919843	0.544950	0.249434
	C12057	C	0.982351	0.607399	0.249523
	C12058	C	0.892685	0.517676	0.249559
	C12059	C	0.955173	0.580129	0.249520
	C12060	C	0.899567	0.600452	0.499517
	C12061	C	0.962020	0.537934	-0.000576
	C12062	C	0.912937	0.587016	0.500112
	C12063	C	0.975532	0.524574	-0.000592
	C12064	C	0.912947	0.538057	0.249318
	C12065	C	0.975475	0.600484	0.249565
	C12066	C	0.899545	0.524616	0.249334
	C12067	C	0.962034	0.587059	0.249773
	C12068	C	0.902558	0.596551	0.431677
	C12069	C	0.965291	0.534262	0.514171
	C12070	C	0.909505	0.590459	-0.009456
	C12071	C	0.972059	0.528023	-0.008869
	C12072	C	0.909056	0.590008	0.432113
	C12073	C	0.971825	0.527732	0.514443
	C12074	C	0.903018	0.597031	-0.009554
	C12075	C	0.965481	0.534505	-0.008817
	C12076	C	0.909690	0.534382	0.216745
	C12077	C	0.972179	0.596839	0.267446
	C12078	C	0.902799	0.528282	0.281793
	C12079	C	0.965333	0.590739	0.231782
	C12080	C	0.903183	0.527850	0.216833
	C12081	C	0.965641	0.590322	0.267868
	C12082	C	0.909306	0.534814	0.281659
	C12083	C	0.971865	0.597251	0.232138
	N12084	N	0.882521	0.617422	0.452391
	N12085	N	0.945037	0.554902	0.451788
	N12086	N	0.929927	0.570005	0.046187
	N12087	N	0.992470	0.507595	0.047273
	N12088	N	0.929989	0.570112	0.452069
	N12089	N	0.992437	0.507485	0.452848
	N12090	N	0.882572	0.617439	0.046807
	N12091	N	0.945057	0.554927	0.046692
	N12092	N	0.929948	0.555032	0.202195
	N12093	N	0.992523	0.617455	0.202445
	N12094	N	0.882623	0.507526	0.296919
	N12095	N	0.945050	0.570057	0.296748
	N12096	N	0.882636	0.507538	0.202255
	N12097	N	0.945084	0.570041	0.201626
	N12098	N	0.929911	0.555029	0.296925
	N12099	N	0.992446	0.617497	0.296915
	H12100	H	0.889852	0.610607	0.849792
	H12101	H	0.951846	0.547503	0.850496
	H12102	H	0.922801	0.577089	0.648661
	H12103	H	0.985428	0.514670	0.649246
	H12104	H	0.922853	0.577291	0.850118
	H12105	H	0.985383	0.514696	0.850795
	H12106	H	0.889725	0.610338	0.648827
	H12107	H	0.952194	0.547776	0.648353
	H12108	H	0.922817	0.547789	0.600963
	H12109	H	0.985220	0.610478	0.600974
	H12110	H	0.889372	0.514863	0.898811
	H12111	H	0.952270	0.577049	0.898017
	H12112	H	0.889594	0.514728	0.601235
	H12113	H	0.952077	0.577271	0.601125
	H12114	H	0.922948	0.547719	0.897786
	H12115	H	0.985586	0.610081	0.898901
	H12116	H	0.900587	0.599671	1.012115
	H12117	H	0.963043	0.536999	1.014299
	H12118	H	0.912842	0.588766	0.621082
	H12119	H	0.974883	0.525817	0.472758
	H12120	H	0.912050	0.588050	1.012479
	H12121	H	0.974575	0.525550	1.014221
	H12122	H	0.901384	0.600375	0.620875
	H12123	H	0.963377	0.537364	0.472225
	H12124	H	0.911652	0.537304	0.763609
	H12125	H	0.975088	0.598896	0.858769
	H12126	H	0.900814	0.525096	0.736930
	H12127	H	0.962502	0.588483	0.641112
	H12128	H	0.899949	0.525940	0.763995
	H12129	H	0.963581	0.587321	0.858457
	H12130	H	0.912481	0.536523	0.735819
	H12131	H	0.974050	0.600024	0.640352
	Co12132	Co	0.999986	0.624979	0.624638
	Co12133	Co	0.937539	0.562486	0.624207
	Co12134	Co	0.874958	0.500035	0.874350
	Co12135	Co	0.937513	0.562441	0.873923
	C12136	C	0.888677	0.611578	0.923069
	C12137	C	0.950888	0.548724	0.923138
	C12138	C	0.923938	0.576005	0.576085
	C12139	C	0.986513	0.513564	0.576389
	C12140	C	0.923962	0.576044	0.922576
	C12141	C	0.986476	0.513572	0.923486
	C12142	C	0.888593	0.611451	0.575994
	C12143	C	0.951075	0.548892	0.575199
	C12144	C	0.923949	0.548896	0.673241
	C12145	C	0.986370	0.611491	0.673762
	C12146	C	0.888410	0.513674	0.825993
	C12147	C	0.951112	0.575968	0.825631
	C12148	C	0.888512	0.513616	0.673707
	C12149	C	0.950999	0.576095	0.673407
	C12150	C	0.924013	0.548876	0.825097
	C12151	C	0.986565	0.611277	0.826050
	C12152	C	0.892750	0.607454	0.998968
	C12153	C	0.955136	0.544783	0.499069
	C12154	C	0.919811	0.580082	0.998624
	C12155	C	0.982408	0.517635	0.500239
	C12156	C	0.919898	0.544783	0.749399
	C12157	C	0.982395	0.607284	0.749918
	C12158	C	0.892554	0.517699	0.749974
	C12159	C	0.955151	0.580118	0.749696
	C12160	C	0.899620	0.600539	0.998478
	C12161	C	0.962048	0.537913	0.499369
	C12162	C	0.912961	0.587012	0.998454
	C12163	C	0.975502	0.524504	0.499827
	C12164	C	0.913000	0.537884	0.749679
	C12165	C	0.975517	0.600362	0.749794
	C12166	C	0.899453	0.524581	0.750230
	C12167	C	0.962064	0.586990	0.749793
	C12168	C	0.903081	0.597093	1.006159
	C12169	C	0.965527	0.534519	1.007724
	C12170	C	0.910005	0.590923	0.567972
	C12171	C	0.972240	0.528177	0.484610
	C12172	C	0.909566	0.590515	1.006138
	C12173	C	0.972074	0.528013	1.007791
	C12174	C	0.903476	0.597453	0.567772
	C12175	C	0.965698	0.534694	0.484409
	C12176	C	0.909285	0.534701	0.757373
	C12177	C	0.972338	0.596623	0.810881
	C12178	C	0.903173	0.527780	0.742831
	C12179	C	0.965236	0.590707	0.688790
	C12180	C	0.902706	0.528240	0.757924
	C12181	C	0.965807	0.590105	0.810924
	C12182	C	0.909765	0.534236	0.742314
	C12183	C	0.971770	0.597227	0.688518
	N12184	N	0.882605	0.617529	0.952118
	N12185	N	0.944922	0.554770	0.951975
	N12186	N	0.929970	0.570058	0.546910
	N12187	N	0.992501	0.507535	0.547750
	N12188	N	0.929965	0.570048	0.951150
	N12189	N	0.992465	0.507567	0.952423
	N12190	N	0.882561	0.617462	0.547311
	N12191	N	0.945059	0.554906	0.546418
	N12192	N	0.929949	0.554915	0.701681
	N12193	N	0.992399	0.617486	0.702588
	N12194	N	0.882453	0.507609	0.797153
	N12195	N	0.945077	0.569993	0.796742
	N12196	N	0.882504	0.507574	0.702298
	N12197	N	0.945007	0.570068	0.702040
	N12198	N	0.929983	0.554900	0.796146
	N12199	N	0.992499	0.617361	0.797261
	H12200	H	0.889675	0.735293	0.350891
	H12201	H	0.952074	0.672719	0.350261
	H12202	H	0.922818	0.702085	0.148552
	H12203	H	0.985164	0.639459	0.148474
	H12204	H	0.922823	0.702151	0.351256
	H12205	H	0.985329	0.639576	0.349525
	H12206	H	0.889618	0.735213	0.149200
	H12207	H	0.952112	0.672723	0.148467
	H12208	H	0.922774	0.672955	0.101043
	H12209	H	0.985608	0.735160	0.100710
	H12210	H	0.889570	0.639731	0.398732
	H12211	H	0.952157	0.702308	0.397075
	H12212	H	0.889733	0.639681	0.101308
	H12213	H	0.952181	0.702145	0.100479
	H12214	H	0.922911	0.672817	0.398771
	H12215	H	0.985211	0.735456	0.398223
	H12216	H	0.900749	0.724759	0.594898
	H12217	H	0.962634	0.661624	0.397175
	H12218	H	0.912339	0.713274	0.069473
	H12219	H	0.973718	0.649555	-0.064933
	H12220	H	0.912227	0.713187	0.595105
	H12221	H	0.974167	0.650126	0.397930
	H12222	H	0.900824	0.724844	0.069488
	H12223	H	0.962200	0.661082	-0.064866
	H12224	H	0.912440	0.661600	0.234987
	H12225	H	0.974563	0.724458	0.260718
	H12226	H	0.900180	0.650832	0.265565
	H12227	H	0.962942	0.713080	0.237801
	H12228	H	0.900857	0.650089	0.234294
	H12229	H	0.962987	0.712984	0.260222
	H12230	H	0.911715	0.662360	0.265610
	H12231	H	0.974521	0.724607	0.238024
	Co12232	Co	1.000026	0.750012	0.124942
	Co12233	Co	0.937522	0.687475	0.124392
	Co12234	Co	0.874974	0.624998	0.374765
	Co12235	Co	0.937489	0.687584	0.374496
	C12236	C	0.888526	0.736443	0.423571
	C12237	C	0.950994	0.673920	0.422842
	C12238	C	0.923935	0.700976	0.075596
	C12239	C	0.986410	0.638450	0.075832
	C12240	C	0.923934	0.701058	0.423657
	C12241	C	0.986427	0.638499	0.422629
	C12242	C	0.888590	0.736421	0.075973
	C12243	C	0.951038	0.673891	0.075990
	C12244	C	0.923959	0.673962	0.173641
	C12245	C	0.986573	0.736332	0.173489
	C12246	C	0.888523	0.638592	0.325974
	C12247	C	0.951043	0.701118	0.325013
	C12248	C	0.888599	0.638559	0.173999
	C12249	C	0.951069	0.701034	0.172619
	C12250	C	0.924001	0.673927	0.325918
	C12251	C	0.986386	0.736490	0.325768
	C12252	C	0.892684	0.732403	0.499815
	C12253	C	0.955196	0.669806	-0.000114
	C12254	C	0.919837	0.705154	0.499843
	C12255	C	0.982412	0.642659	-0.000154
	C12256	C	0.919917	0.669827	0.249916
	C12257	C	0.982391	0.732313	0.249532
	C12258	C	0.892655	0.642615	0.250220
	C12259	C	0.955148	0.705147	0.248609
	C12260	C	0.899576	0.725498	0.499605
	C12261	C	0.962073	0.662916	-0.000037
	C12262	C	0.912947	0.712034	0.499940
	C12263	C	0.975517	0.649518	-0.000126
	C12264	C	0.912988	0.662960	0.250205
	C12265	C	0.975470	0.725441	0.249699
	C12266	C	0.899568	0.649522	0.250325
	C12267	C	0.962017	0.712061	0.248832
	C12268	C	0.903135	0.722163	0.553125
	C12269	C	0.965298	0.659317	0.441745
	C12270	C	0.909720	0.715649	0.038823
	C12271	C	0.971596	0.652467	-0.036291
	C12272	C	0.909631	0.715605	0.553057
	C12273	C	0.971825	0.652785	0.441930
	C12274	C	0.903218	0.722199	0.038627
	C12275	C	0.965054	0.658992	-0.036305
	C12276	C	0.909761	0.659305	0.241336
	C12277	C	0.972027	0.721969	0.255677
	C12278	C	0.902838	0.653187	0.259125
	C12279	C	0.965456	0.715560	0.242841
	C12280	C	0.903233	0.652785	0.241553
	C12281	C	0.965468	0.715470	0.255202
	C12282	C	0.909350	0.659719	0.258910
	C12283	C	0.972013	0.722053	0.243195
	N12284	N	0.882472	0.742388	0.452400
	N12285	N	0.945027	0.679937	0.451877
	N12286	N	0.929966	0.694988	0.046848
	N12287	N	0.992454	0.632475	0.046999
	N12288	N	0.929951	0.695063	0.452425
	N12289	N	0.992433	0.632514	0.451808
	N12290	N	0.882579	0.742421	0.047349
	N12291	N	0.945061	0.679896	0.046986
	N12292	N	0.929969	0.679975	0.202517
	N12293	N	0.992518	0.742399	0.202527
	N12294	N	0.882509	0.632589	0.297372
	N12295	N	0.945026	0.695119	0.296753
	N12296	N	0.882560	0.632558	0.202332
	N12297	N	0.945055	0.695028	0.201682
	N12298	N	0.930000	0.679949	0.297043
	N12299	N	0.992424	0.742478	0.297161
	H12300	H	0.889907	0.735604	0.849974
	H12301	H	0.952355	0.672857	0.850886
	H12302	H	0.922782	0.702033	0.648064
	H12303	H	0.985420	0.639808	0.648374
	H12304	H	0.922909	0.702161	0.850415
	H12305	H	0.985620	0.639894	0.851392
	H12306	H	0.889866	0.735423	0.648739
	H12307	H	0.952445	0.672963	0.647517
	H12308	H	0.922933	0.672826	0.601501
	H12309	H	0.985315	0.735354	0.600723
	H12310	H	0.889712	0.639635	0.899128
	H12311	H	0.951839	0.702494	0.898321
	H12312	H	0.889752	0.639724	0.600831
	H12313	H	0.952508	0.701813	0.600946
	H12314	H	0.922732	0.672875	0.898016
	H12315	H	0.985240	0.735406	0.898965
	H12316	H	0.900360	0.724320	0.930254
	H12317	H	0.963833	0.662851	1.064601
	H12318	H	0.911813	0.712750	0.404968
	H12319	H	0.974874	0.650829	0.600573
	H12320	H	0.911828	0.712746	0.929834
	H12321	H	0.975331	0.651304	1.064441
	H12322	H	0.900296	0.724327	0.404911
	H12323	H	0.963409	0.662348	0.600777
	H12324	H	0.911650	0.662367	0.709905
	H12325	H	0.973833	0.725159	0.691272
	H12326	H	0.900829	0.650188	0.789932
	H12327	H	0.963611	0.712343	0.807360
	H12328	H	0.900116	0.650823	0.709515
	H12329	H	0.962414	0.713547	0.690828
	H12330	H	0.912385	0.661715	0.790840
	H12331	H	0.975032	0.723998	0.808350
	Co12332	Co	1.000020	0.750018	0.624745
	Co12333	Co	0.937521	0.687473	0.624728
	Co12334	Co	0.874984	0.624987	0.874256
	Co12335	Co	0.937517	0.687462	0.874872
	C12336	C	0.888747	0.736612	0.923429
	C12337	C	0.951157	0.673951	0.923539
	C12338	C	0.923916	0.701002	0.575762
	C12339	C	0.986470	0.638627	0.575473
	C12340	C	0.923960	0.701029	0.923233
	C12341	C	0.986613	0.638663	0.923695
	C12342	C	0.888628	0.736497	0.576204
	C12343	C	0.951193	0.674042	0.574935
	C12344	C	0.924004	0.673924	0.673794
	C12345	C	0.986451	0.736457	0.673555
	C12346	C	0.888569	0.638539	0.826144
	C12347	C	0.950928	0.701177	0.825768
	C12348	C	0.888576	0.638570	0.673500
	C12349	C	0.951272	0.700824	0.673459
	C12350	C	0.923911	0.673954	0.825995
	C12351	C	0.986423	0.736496	0.826067
	C12352	C	0.892784	0.732459	0.999506
	C12353	C	0.955173	0.669883	0.498679
	C12354	C	0.919856	0.705070	0.999450
	C12355	C	0.982348	0.642631	0.498923
	C12356	C	0.919848	0.669860	0.749908
	C12357	C	0.982321	0.732394	0.749844
	C12358	C	0.892663	0.642652	0.749978
	C12359	C	0.955245	0.705076	0.749672
	C12360	C	0.899654	0.725528	0.999434
	C12361	C	0.962054	0.662982	0.498637
	C12362	C	0.913019	0.712019	0.999384
	C12363	C	0.975472	0.649524	0.498976
	C12364	C	0.912957	0.662982	0.749804
	C12365	C	0.975422	0.725514	0.749631
	C12366	C	0.899545	0.649539	0.749898
	C12367	C	0.962086	0.711988	0.749220
	C12368	C	0.902957	0.721912	0.960508
	C12369	C	0.965963	0.659971	1.036408
	C12370	C	0.909403	0.715361	0.446467
	C12371	C	0.972223	0.653180	0.555921
	C12372	C	0.909451	0.715360	0.960449
	C12373	C	0.972499	0.653440	1.036457
	C12374	C	0.902896	0.721910	0.446254
	C12375	C	0.965689	0.659692	0.555757
	C12376	C	0.909293	0.659700	0.727190
	C12377	C	0.971651	0.722369	0.716803
	C12378	C	0.903191	0.652829	0.772476
	C12379	C	0.965828	0.715152	0.781800
	C12380	C	0.902764	0.653166	0.727343
	C12381	C	0.965161	0.715797	0.716748
	C12382	C	0.909709	0.659372	0.772444
	C12383	C	0.972313	0.721730	0.782020
	N12384	N	0.882666	0.742534	0.952519
	N12385	N	0.945127	0.679927	0.952023
	N12386	N	0.929935	0.695011	0.546881
	N12387	N	0.992447	0.632566	0.546906
	N12388	N	0.929979	0.695020	0.952024
	N12389	N	0.992574	0.632596	0.952085
	N12390	N	0.882547	0.742431	0.547549
	N12391	N	0.945146	0.680022	0.546686
	N12392	N	0.930027	0.679903	0.702728
	N12393	N	0.992491	0.742423	0.702427
	N12394	N	0.882549	0.632576	0.797169
	N12395	N	0.944989	0.695110	0.796845
	N12396	N	0.882564	0.632567	0.702356
	N12397	N	0.945191	0.694910	0.702312
	N12398	N	0.929965	0.679921	0.797145
	N12399	N	0.992477	0.742445	0.797271
	H12400	H	0.889529	0.860220	0.351166
	H12401	H	0.952015	0.797817	0.350019
	H12402	H	0.923160	0.827405	0.149107
	H12403	H	0.985405	0.764712	0.148981
	H12404	H	0.922838	0.827265	0.351912
	H12405	H	0.985323	0.764650	0.351589
	H12406	H	0.889651	0.860426	0.149414
	H12407	H	0.952206	0.797916	0.149232
	H12408	H	0.922602	0.798027	0.101267
	H12409	H	0.985357	0.860365	0.100738
	H12410	H	0.889720	0.764698	0.398401
	H12411	H	0.951858	0.827417	0.399307
	H12412	H	0.889555	0.764753	0.101087
	H12413	H	0.952468	0.826949	0.101208
	H12414	H	0.922987	0.797682	0.398257
	H12415	H	0.985366	0.860400	0.398674
	H12416	H	0.900971	0.850072	0.578104
	H12417	H	0.963625	0.787675	0.482147
	H12418	H	0.913259	0.839222	-0.006142
	H12419	H	0.974802	0.775788	-0.036091
	H12420	H	0.912552	0.838621	0.578246
	H12421	H	0.975108	0.776069	0.482676
	H12422	H	0.901638	0.850692	-0.005726
	H12423	H	0.963183	0.787209	-0.036270
	H12424	H	0.911901	0.787036	0.138991
	H12425	H	0.973955	0.849938	0.214761
	H12426	H	0.900611	0.775399	0.359760
	H12427	H	0.963482	0.837678	0.285686
	H12428	H	0.900409	0.775495	0.139824
	H12429	H	0.962462	0.838412	0.215139
	H12430	H	0.912050	0.786998	0.360271
	H12431	H	0.975087	0.849108	0.284882
	Co12432	Co	1.000023	0.874999	0.124704
	Co12433	Co	0.937517	0.812488	0.124793
	Co12434	Co	0.874932	0.750002	0.375199
	Co12435	Co	0.937449	0.812515	0.375124
	C12436	C	0.888468	0.861382	0.423867
	C12437	C	0.951051	0.798951	0.423311
	C12438	C	0.924108	0.826217	0.076274
	C12439	C	0.986466	0.763583	0.075892
	C12440	C	0.923952	0.826116	0.424620
	C12441	C	0.986449	0.763559	0.424318
	C12442	C	0.888553	0.861478	0.076852
	C12443	C	0.951102	0.798955	0.076222
	C12444	C	0.923824	0.799050	0.173807
	C12445	C	0.986441	0.861427	0.173619
	C12446	C	0.888550	0.763541	0.325929
	C12447	C	0.950924	0.826219	0.326532
	C12448	C	0.888472	0.763579	0.173713
	C12449	C	0.951205	0.825990	0.174024
	C12450	C	0.924016	0.798884	0.325735
	C12451	C	0.986437	0.861446	0.325452
	C12452	C	0.892609	0.857344	0.500362
	C12453	C	0.955148	0.794872	0.000198
	C12454	C	0.919872	0.830178	0.501060
	C12455	C	0.982341	0.767610	0.000134
	C12456	C	0.919815	0.794874	0.249912
	C12457	C	0.982380	0.857383	0.249611
	C12458	C	0.892615	0.767626	0.249719
	C12459	C	0.955114	0.830177	0.250319
	C12460	C	0.899533	0.850480	0.500479
	C12461	C	0.962031	0.787960	0.000328
	C12462	C	0.912983	0.837075	0.500952
	C12463	C	0.975465	0.774547	0.000394
	C12464	C	0.912941	0.787970	0.249943
	C12465	C	0.975486	0.850476	0.249927
	C12466	C	0.899531	0.774484	0.249766
	C12467	C	0.962018	0.837077	0.250347
	C12468	C	0.903245	0.847346	0.543961
	C12469	C	0.965865	0.784855	0.489563
	C12470	C	0.910180	0.841176	-0.003079
	C12471	C	0.972153	0.778133	-0.020200
	C12472	C	0.909797	0.840844	0.544376
	C12473	C	0.972372	0.778313	0.489940
	C12474	C	0.903606	0.847650	-0.002652
	C12475	C	0.965628	0.784635	-0.020159
	C12476	C	0.909435	0.784541	0.187924
	C12477	C	0.971721	0.847226	0.230403
	C12478	C	0.903027	0.777933	0.311575
	C12479	C	0.965776	0.840332	0.269991
	C12480	C	0.902965	0.777960	0.187896
	C12481	C	0.965180	0.840746	0.230457
	C12482	C	0.909541	0.784483	0.311611
	C12483	C	0.972308	0.846827	0.269700
	N12484	N	0.882474	0.867416	0.452591
	N12485	N	0.945099	0.805000	0.452395
	N12486	N	0.930054	0.820137	0.047383
	N12487	N	0.992463	0.757573	0.047242
	N12488	N	0.929907	0.820039	0.452695
	N12489	N	0.992449	0.757529	0.452902
	N12490	N	0.882560	0.867495	0.048040
	N12491	N	0.945054	0.804946	0.047288
	N12492	N	0.929894	0.805003	0.202315
	N12493	N	0.992463	0.867433	0.202098
	N12494	N	0.882524	0.757535	0.297588
	N12495	N	0.944983	0.820129	0.297687
	N12496	N	0.882494	0.757546	0.202633
	N12497	N	0.945148	0.820004	0.202542
	N12498	N	0.930014	0.804893	0.297001
	N12499	N	0.992472	0.867446	0.296912
	H12500	H	0.889405	0.860091	0.852433
	H12501	H	0.951981	0.797647	0.851295
	H12502	H	0.922824	0.827124	0.649228
	H12503	H	0.985224	0.764622	0.648855
	H12504	H	0.922588	0.826978	0.851608
	H12505	H	0.985196	0.764587	0.850975
	H12506	H	0.889712	0.860521	0.649178
	H12507	H	0.952459	0.798074	0.648170
	H12508	H	0.922793	0.797941	0.600311
	H12509	H	0.985117	0.860556	0.601126
	H12510	H	0.889698	0.764655	0.898487
	H12511	H	0.952093	0.827214	0.898753
	H12512	H	0.889665	0.764590	0.600502
	H12513	H	0.952180	0.827176	0.601894
	H12514	H	0.922889	0.797718	0.897490
	H12515	H	0.985459	0.860103	0.898535
	H12516	H	0.899185	0.848242	1.006683
	H12517	H	0.962789	0.786821	1.036572
	H12518	H	0.911540	0.837440	0.423257
	H12519	H	0.973877	0.774822	0.517266
	H12520	H	0.910829	0.836813	1.006665
	H12521	H	0.974308	0.775295	1.037035
	H12522	H	0.899987	0.848956	0.422980
	H12523	H	0.962379	0.786397	0.517153
	H12524	H	0.912053	0.786986	0.757837
	H12525	H	0.974366	0.849594	0.710458
	H12526	H	0.900351	0.775636	0.740096
	H12527	H	0.963031	0.837828	0.790232
	H12528	H	0.900579	0.775358	0.757826
	H12529	H	0.962874	0.838077	0.711185
	H12530	H	0.911798	0.787263	0.739469
	H12531	H	0.974604	0.849314	0.789895
	Co12532	Co	1.000023	0.874979	0.624916
	Co12533	Co	0.937499	0.812529	0.624692
	Co12534	Co	0.875023	0.749977	0.874940
	Co12535	Co	0.937488	0.812480	0.874736
	C12536	C	0.888405	0.861304	0.924759
	C12537	C	0.950980	0.798818	0.923937
	C12538	C	0.923922	0.826031	0.576559
	C12539	C	0.986400	0.763540	0.576387
	C12540	C	0.923824	0.825983	0.924021
	C12541	C	0.986350	0.763511	0.923784
	C12542	C	0.888569	0.861541	0.576475
	C12543	C	0.951273	0.799090	0.575520
	C12544	C	0.923890	0.799036	0.672833
	C12545	C	0.986324	0.861537	0.673696
	C12546	C	0.888587	0.763563	0.825668
	C12547	C	0.950967	0.826097	0.826182
	C12548	C	0.888576	0.763538	0.673202
	C12549	C	0.951025	0.826086	0.674271
	C12550	C	0.923937	0.798914	0.825057
	C12551	C	0.986478	0.861327	0.826335
	C12552	C	0.892591	0.857312	1.000718
	C12553	C	0.955232	0.794905	0.499184
	C12554	C	0.919897	0.830198	1.000220
	C12555	C	0.982379	0.767669	0.500271
	C12556	C	0.919776	0.794943	0.748712
	C12557	C	0.982294	0.857362	0.749831
	C12558	C	0.892632	0.767672	0.749157
	C12559	C	0.955095	0.830165	0.750190
	C12560	C	0.899487	0.850416	1.000721
	C12561	C	0.962085	0.787973	0.499198
	C12562	C	0.912968	0.837054	1.000477
	C12563	C	0.975484	0.774545	0.499894
	C12564	C	0.912904	0.788019	0.748612
	C12565	C	0.975438	0.850467	0.749796
	C12566	C	0.899524	0.774581	0.748746
	C12567	C	0.962001	0.837018	0.750439
	C12568	C	0.902268	0.846320	1.004147
	C12569	C	0.965367	0.784379	1.020805
	C12570	C	0.909263	0.840223	0.456987
	C12571	C	0.971667	0.777608	0.509594
	C12572	C	0.908820	0.839826	1.004042
	C12573	C	0.971914	0.777901	1.020977
	C12574	C	0.902710	0.846723	0.456910
	C12575	C	0.965172	0.784165	0.509363
	C12576	C	0.909543	0.784486	0.753636
	C12577	C	0.971944	0.847056	0.727968
	C12578	C	0.902892	0.778108	0.743592
	C12579	C	0.965535	0.840384	0.772452
	C12580	C	0.903041	0.777952	0.753736
	C12581	C	0.965401	0.840536	0.728394
	C12582	C	0.909408	0.784641	0.743362
	C12583	C	0.972055	0.846931	0.772228
	N12584	N	0.882445	0.867356	0.953318
	N12585	N	0.944977	0.804864	0.952517
	N12586	N	0.929919	0.820004	0.547324
	N12587	N	0.992401	0.757532	0.547675
	N12588	N	0.929874	0.819987	0.952446
	N12589	N	0.992395	0.757523	0.952431
	N12590	N	0.882530	0.867496	0.547445
	N12591	N	0.945234	0.805081	0.547240
	N12592	N	0.929947	0.804972	0.701910
	N12593	N	0.992373	0.867479	0.702617
	N12594	N	0.882578	0.757531	0.797091
	N12595	N	0.944958	0.820114	0.797455
	N12596	N	0.882579	0.757501	0.702358
	N12597	N	0.945010	0.820088	0.702897
	N12598	N	0.929973	0.804901	0.796757
	N12599	N	0.992454	0.867346	0.797684
	H12600	H	0.889666	0.985311	0.351153
	H12601	H	0.952111	0.922877	0.350587
	H12602	H	0.922827	0.952098	0.148926
	H12603	H	0.985441	0.889778	0.148368
	H12604	H	0.922786	0.952246	0.351010
	H12605	H	0.985514	0.889734	0.351719
	H12606	H	0.889500	0.985244	0.150248
	H12607	H	0.951984	0.922755	0.147893
	H12608	H	0.922978	0.922563	0.101125
	H12609	H	0.985380	0.985139	0.101364
	H12610	H	0.889567	0.889841	0.399239
	H12611	H	0.952287	0.951953	0.398787
	H12612	H	0.889745	0.889593	0.101835
	H12613	H	0.952034	0.952306	0.100937
	H12614	H	0.922516	0.923161	0.397962
	H12615	H	0.985268	0.985355	0.399910
	H12616	H	0.900119	0.974166	0.499824
	H12617	H	0.962712	0.911704	0.391968
	H12618	H	0.911776	0.962755	-0.024159
	H12619	H	0.974691	0.900688	-0.039606
	H12620	H	0.911608	0.962561	0.499831
	H12621	H	0.974209	0.900153	0.392264
	H12622	H	0.900222	0.974294	-0.023642
	H12623	H	0.963117	0.912156	-0.038819
	H12624	H	0.912443	0.911573	0.191263
	H12625	H	0.974180	0.974722	0.285309
	H12626	H	0.900007	0.900941	0.308220
	H12627	H	0.963296	0.962706	0.215075
	H12628	H	0.900948	0.899985	0.191311
	H12629	H	0.962645	0.963221	0.284568
	H12630	H	0.911537	0.912496	0.308069
	H12631	H	0.974859	0.974154	0.216434
	Co12632	Co	0.999970	0.999946	0.125245
	Co12633	Co	0.937469	0.937474	0.124595
	Co12634	Co	0.874948	0.875053	0.375538
	Co12635	Co	0.937474	0.937480	0.374652
	C12636	C	0.888524	0.986432	0.424251
	C12637	C	0.951037	0.923933	0.423414
	C12638	C	0.923906	0.951048	0.076210
	C12639	C	0.986458	0.888614	0.075799
	C12640	C	0.923869	0.951038	0.423614
	C12641	C	0.986514	0.888576	0.424198
	C12642	C	0.888438	0.986357	0.077157
	C12643	C	0.950953	0.923870	0.075171
	C12644	C	0.924024	0.923792	0.173558
	C12645	C	0.986463	0.986350	0.174412
	C12646	C	0.888482	0.888664	0.326358
	C12647	C	0.951081	0.950966	0.325838
	C12648	C	0.888563	0.888557	0.174481
	C12649	C	0.950931	0.951149	0.173824
	C12650	C	0.923767	0.924095	0.325531
	C12651	C	0.986407	0.986444	0.326992
	C12652	C	0.892616	0.982375	0.500543
	C12653	C	0.955105	0.919848	-0.000545
	C12654	C	0.919749	0.955088	0.499744
	C12655	C	0.982353	0.892639	-0.000418
	C12656	C	0.919824	0.919854	0.249548
	C12657	C	0.982362	0.982306	0.250903
	C12658	C	0.892627	0.892668	0.250372
	C12659	C	0.955100	0.955144	0.249859
	C12660	C	0.899517	0.975500	0.500490
	C12661	C	0.962021	0.912978	-0.000526
	C12662	C	0.912898	0.962029	0.499896
	C12663	C	0.975476	0.899546	-0.000726
	C12664	C	0.912908	0.912991	0.249563
	C12665	C	0.975501	0.975396	0.250933
	C12666	C	0.899542	0.899539	0.250029
	C12667	C	0.962051	0.961980	0.250162
	C12668	C	0.902770	0.971846	0.500026
	C12669	C	0.965338	0.909320	0.439287
	C12670	C	0.909363	0.965364	-0.013080
	C12671	C	0.972102	0.903082	-0.022793
	C12672	C	0.909282	0.965289	0.499866
	C12673	C	0.971859	0.902806	0.439346
	C12674	C	0.902823	0.971876	-0.012859
	C12675	C	0.965566	0.909608	-0.022428
	C12676	C	0.909749	0.909296	0.216772
	C12677	C	0.971873	0.972085	0.270118
	C12678	C	0.902741	0.903222	0.282612
	C12679	C	0.965698	0.965278	0.230740
	C12680	C	0.903253	0.902736	0.216759
	C12681	C	0.965323	0.965573	0.269761
	C12682	C	0.909230	0.909782	0.282418
	C12683	C	0.972230	0.971804	0.231321
	N12684	N	0.882518	0.992471	0.452725
	N12685	N	0.945008	0.929946	0.452404
	N12686	N	0.929910	0.945042	0.047386
	N12687	N	0.992468	0.882579	0.047327
	N12688	N	0.929850	0.945014	0.452060
	N12689	N	0.992514	0.882564	0.452646
	N12690	N	0.882454	0.992363	0.048122
	N12691	N	0.944991	0.929920	0.046478
	N12692	N	0.930010	0.929839	0.202035
	N12693	N	0.992412	0.992411	0.202913
	N12694	N	0.882453	0.882655	0.298038
	N12695	N	0.945046	0.945015	0.297080
	N12696	N	0.882511	0.882582	0.203078
	N12697	N	0.944943	0.945123	0.202489
	N12698	N	0.929843	0.930040	0.296926
	N12699	N	0.992392	0.992478	0.297888
	H12700	H	0.889695	0.985306	0.852179
	H12701	H	0.952127	0.922895	0.851079
	H12702	H	0.922711	0.952159	0.647996
	H12703	H	0.985178	0.889521	0.648553
	H12704	H	0.922758	0.952172	0.851359
	H12705	H	0.985235	0.889537	0.851006
	H12706	H	0.889736	0.985520	0.649186
	H12707	H	0.952105	0.922903	0.648349
	H12708	H	0.922879	0.922707	0.602059
	H12709	H	0.985274	0.985312	0.601355
	H12710	H	0.889880	0.889554	0.899312
	H12711	H	0.952164	0.952154	0.898155
	H12712	H	0.889516	0.889897	0.601606
	H12713	H	0.952136	0.952088	0.600183
	H12714	H	0.922757	0.922926	0.899950
	H12715	H	0.985112	0.985462	0.899224
	H12716	H	0.900630	0.974681	1.025863
	H12717	H	0.962821	0.911941	1.038177
	H12718	H	0.912226	0.963332	0.499245
	H12719	H	0.974867	0.900870	0.607651
	H12720	H	0.912248	0.963226	1.026174
	H12721	H	0.974332	0.900424	1.038516
	H12722	H	0.900742	0.974902	0.500329
	H12723	H	0.963292	0.912352	0.607052
	H12724	H	0.912753	0.911214	0.693667
	H12725	H	0.975093	0.973829	0.830230
	H12726	H	0.899709	0.901341	0.808966
	H12727	H	0.962332	0.963665	0.667965
	H12728	H	0.901229	0.899718	0.693174
	H12729	H	0.963596	0.962256	0.829489
	H12730	H	0.911267	0.912833	0.808912
	H12731	H	0.973823	0.975208	0.668549
	Co12732	Co	0.999981	1.000001	0.624904
	Co12733	Co	0.937402	0.937479	0.624901
	Co12734	Co	0.874992	0.874986	0.875175
	Co12735	Co	0.937462	0.937519	0.874589
	C12736	C	0.888536	0.986382	0.924864
	C12737	C	0.951048	0.923985	0.923372
	C12738	C	0.923836	0.950994	0.575714
	C12739	C	0.986359	0.888461	0.576153
	C12740	C	0.923881	0.951072	0.924103
	C12741	C	0.986376	0.888497	0.923693
	C12742	C	0.888577	0.986535	0.576452
	C12743	C	0.951033	0.923925	0.575690
	C12744	C	0.923914	0.923867	0.674688
	C12745	C	0.986437	0.986457	0.674312
	C12746	C	0.888629	0.888481	0.826723
	C12747	C	0.951057	0.951039	0.825286
	C12748	C	0.888447	0.888650	0.674379
	C12749	C	0.951021	0.951030	0.673199
	C12750	C	0.923838	0.923995	0.826994
	C12751	C	0.986362	0.986526	0.826545
	C12752	C	0.892573	0.982293	1.001250
	C12753	C	0.955104	0.919826	0.499475
	C12754	C	0.919824	0.955138	1.000422
	C12755	C	0.982356	0.892584	0.500227
	C12756	C	0.919759	0.919838	0.751147
	C12757	C	0.982316	0.982390	0.750336
	C12758	C	0.892626	0.892675	0.750626
	C12759	C	0.955116	0.955123	0.749055
	C12760	C	0.899475	0.975405	1.001064
	C12761	C	0.962039	0.912947	0.499500
	C12762	C	0.912932	0.962022	1.000715
	C12763	C	0.975473	0.899531	0.499984
	C12764	C	0.912933	0.912935	0.751209
	C12765	C	0.975406	0.975504	0.749837
	C12766	C	0.899499	0.899558	0.750894
	C12767	C	0.962006	0.962033	0.748817
	C12768	C	0.903051	0.972096	1.015077
	C12769	C	0.965390	0.909476	1.021298
	C12770	C	0.909639	0.965676	0.499865
	C12771	C	0.972198	0.903177	0.560420
	C12772	C	0.909589	0.965595	1.014929
	C12773	C	0.971933	0.902974	1.021203
	C12774	C	0.903138	0.972235	0.500425
	C12775	C	0.965673	0.909690	0.560017
	C12776	C	0.909906	0.909053	0.718841
	C12777	C	0.972318	0.971663	0.794714
	C12778	C	0.902535	0.903440	0.783457
	C12779	C	0.965139	0.965871	0.703522
	C12780	C	0.903366	0.902536	0.718701
	C12781	C	0.965830	0.965091	0.794456
	C12782	C	0.909078	0.909959	0.783619
	C12783	C	0.971616	0.972439	0.704314
	N12784	N	0.882503	0.992394	0.953263
	N12785	N	0.945060	0.929988	0.952098
	N12786	N	0.929837	0.944988	0.547036
	N12787	N	0.992424	0.882484	0.547494
	N12788	N	0.929909	0.945046	0.952443
	N12789	N	0.992421	0.882509	0.952341
	N12790	N	0.882545	0.992528	0.547590
	N12791	N	0.945003	0.929940	0.547102
	N12792	N	0.929886	0.929888	0.703048
	N12793	N	0.992479	0.992442	0.702967
	N12794	N	0.882596	0.882513	0.798080
	N12795	N	0.945037	0.945024	0.796881
	N12796	N	0.882481	0.882615	0.702861
	N12797	N	0.945018	0.945015	0.702165
	N12798	N	0.929859	0.929949	0.797685
	N12799	N	0.992431	0.992459	0.797907
