data_Molecule from HDF5

_cell_length_a		74.640504
_cell_length_b		13.351538
_cell_length_c		35.367211
_cell_angle_alpha	90.004162
_cell_angle_beta	92.807111
_cell_angle_gamma	90.003637
_symmetry_space_group_name_H-M	'P 1'
_symmetry_Int_Tables_number		1

loop_
	_symmetry_equiv_pos_as_xyz
	x,y,z

loop_
	_atom_site_label
	_atom_site_type_symbol
	_atom_site_fract_x
	_atom_site_fract_y
	_atom_site_fract_z
	Al0	Al	0.124958	-0.500026	0.124850
	Al1	Al	0.124983	-0.250078	0.124784
	Al2	Al	0.009991	-0.249640	-0.064415
	Al3	Al	0.009967	-0.500785	-0.064582
	O4	O	0.142635	-0.459205	0.163089
	O5	O	0.125830	-0.375220	0.101170
	O6	O	0.124181	-0.125149	0.148763
	O7	O	0.220942	-0.459267	0.279734
	O8	O	0.105312	-0.459564	0.153394
	O9	O	0.019632	-0.459399	0.221077
	O10	O	0.105345	-0.291238	0.153513
	O11	O	0.107253	-0.208959	0.087050
	O12	O	0.028919	-0.208944	-0.029498
	O13	O	0.142801	-0.291055	0.162755
	O14	O	0.144442	-0.209007	0.095931
	O15	O	0.230349	-0.209846	0.028905
	O16	O	0.019676	-0.290862	0.221518
	O17	O	0.107283	-0.040748	0.086714
	O18	O	0.028926	-0.040659	-0.029702
	O19	O	0.230391	-0.041552	0.028918
	O20	O	0.144632	-0.040412	0.096579
	O21	O	0.220982	-0.291388	0.279685
	O22	O	0.000699	-0.124936	0.226099
	O23	O	0.249192	-0.375399	0.024000
	C24	C	0.189566	-0.286005	0.233102
	C25	C	0.197451	-0.375083	0.245307
	C26	C	0.189218	-0.464024	0.234078
	C27	C	0.173647	-0.464257	0.210884
	C28	C	0.165833	-0.375321	0.198471
	C29	C	0.174004	-0.286401	0.209876
	C30	C	0.149269	-0.375341	0.172754
	C31	C	0.214290	-0.375168	0.270179
	C32	C	0.098136	-0.375207	0.159135
	C33	C	0.079851	-0.375266	0.174228
	C34	C	0.071211	-0.286055	0.181368
	C35	C	0.054050	-0.286302	0.194648
	C36	C	0.045172	-0.375500	0.200782
	C37	C	0.053827	-0.464819	0.193695
	C38	C	0.070986	-0.464609	0.180412
	C39	C	0.026831	-0.375094	0.215707
	C40	C	0.100724	-0.125012	0.077074
	C41	C	0.084071	-0.125052	0.051420
	C42	C	0.076122	-0.036063	0.039494
	C43	C	0.060502	-0.036149	0.016368
	C44	C	0.052453	-0.125265	0.004752
	C45	C	0.060559	-0.214417	0.016228
	C46	C	0.076165	-0.214276	0.039351
	C47	C	0.035563	-0.124671	-0.020078
	C48	C	0.151729	-0.124545	0.090647
	C49	C	0.170088	-0.124696	0.075882
	C50	C	0.178756	-0.213927	0.068951
	C51	C	0.195993	-0.214187	0.055920
	C52	C	0.204836	-0.125216	0.049650
	C53	C	0.196144	-0.035902	0.056391
	C54	C	0.178920	-0.035606	0.069503
	C55	C	0.223194	-0.125480	0.034724
	H56	H	0.202580	-0.283054	0.050519
	H57	H	0.171968	-0.282731	0.073802
	H58	H	0.195741	-0.217018	0.241716
	H59	H	0.168123	-0.217578	0.200336
	H60	H	0.126715	-0.375033	0.075331
	H61	H	0.123483	-0.125238	0.174598
	H62	H	0.001351	-0.125291	0.200328
	H63	H	0.248322	-0.375517	0.049692
	H64	H	0.082256	-0.283328	0.048259
	H65	H	0.054559	-0.283530	0.007106
	H66	H	0.047409	-0.217314	0.200286
	H67	H	0.077964	-0.217217	0.176468
	H68	H	0.054441	0.032838	0.007184
	H69	H	0.082109	0.033027	0.048440
	H70	H	0.077584	-0.533218	0.174663
	H71	H	0.047093	-0.533779	0.198688
	H72	H	0.167467	-0.533284	0.202173
	H73	H	0.195127	-0.533130	0.243529
	H74	H	0.172318	0.033405	0.074913
	H75	H	0.202920	0.032813	0.051373
	Al76	Al	0.124908	0.000009	0.124964
	Al77	Al	0.124966	0.249941	0.125028
	Al78	Al	0.009962	0.250230	-0.064573
	Al79	Al	0.009943	-0.000634	-0.064661
	O80	O	0.142550	0.040652	0.163275
	O81	O	0.125716	0.124906	0.101303
	O82	O	0.124270	0.374896	0.148775
	O83	O	0.220988	0.040348	0.279637
	O84	O	0.105262	0.040700	0.153590
	O85	O	0.019561	0.040672	0.221040
	O86	O	0.105316	0.209158	0.153776
	O87	O	0.107184	0.290879	0.087063
	O88	O	0.028952	0.290593	-0.029776
	O89	O	0.142750	0.209079	0.163004
	O90	O	0.144584	0.290517	0.096219
	O91	O	0.230331	0.289823	0.029009
	O92	O	0.019655	0.209218	0.221379
	O93	O	0.107280	0.459038	0.086927
	O94	O	0.028902	0.458762	-0.029733
	O95	O	0.230467	0.458237	0.029316
	O96	O	0.144581	0.458876	0.096322
	O97	O	0.221121	0.208460	0.279357
	O98	O	0.000707	0.374987	0.226115
	O99	O	0.249279	0.124633	0.024114
	C100	C	0.189613	0.213585	0.233136
	C101	C	0.197477	0.124299	0.245155
	C102	C	0.189305	0.035134	0.233807
	C103	C	0.173706	0.035198	0.210665
	C104	C	0.165874	0.124482	0.198515
	C105	C	0.174027	0.213660	0.209917
	C106	C	0.149230	0.124830	0.172886
	C107	C	0.214384	0.124422	0.270047
	C108	C	0.098096	0.124913	0.159289
	C109	C	0.079812	0.124833	0.174345
	C110	C	0.071103	0.214138	0.181041
	C111	C	0.053948	0.214215	0.194342
	C112	C	0.045163	0.124950	0.200802
	C113	C	0.053858	0.035663	0.193952
	C114	C	0.071003	0.035589	0.180640
	C115	C	0.026828	0.125024	0.215622
	C116	C	0.100687	0.374898	0.077085
	C117	C	0.084093	0.374949	0.051358
	C118	C	0.076137	0.463943	0.039262
	C119	C	0.060567	0.463752	0.016066
	C120	C	0.052530	0.374728	0.004366
	C121	C	0.060538	0.285697	0.016216
	C122	C	0.076095	0.285993	0.039436
	C123	C	0.035640	0.374673	-0.020336
	C124	C	0.151776	0.374711	0.090588
	C125	C	0.170127	0.374496	0.075717
	C126	C	0.178824	0.285200	0.068943
	C127	C	0.196017	0.285214	0.055909
	C128	C	0.204848	0.374228	0.049572
	C129	C	0.196146	0.463532	0.056331
	C130	C	0.178941	0.463701	0.069357
	C131	C	0.223204	0.374157	0.034791
	H132	H	0.202631	0.216256	0.050488
	H133	H	0.172091	0.216225	0.073828
	H134	H	0.195764	0.282894	0.241934
	H135	H	0.168153	0.282908	0.200480
	H136	H	0.126452	0.125091	0.075625
	H137	H	0.123544	0.374891	0.174549
	H138	H	0.001649	0.374971	0.200348
	H139	H	0.248366	0.124798	0.049766
	H140	H	0.082088	0.217205	0.048683
	H141	H	0.054497	0.216660	0.007175
	H142	H	0.047252	0.283405	0.199569
	H143	H	0.077791	0.282856	0.175736
	H144	H	0.054567	0.532831	0.006892
	H145	H	0.082165	0.532903	0.048368
	H146	H	0.077567	-0.033344	0.175027
	H147	H	0.047157	-0.033247	0.198924
	H148	H	0.167632	-0.033767	0.201794
	H149	H	0.195219	-0.034072	0.243085
	H150	H	0.172218	0.532639	0.074696
	H151	H	0.202880	0.532175	0.051294
	Al152	Al	0.114954	-0.500433	0.439354
	Al153	Al	0.114988	-0.249374	0.439568
	Al154	Al	-0.000014	-0.249822	0.250017
	Al155	Al	-0.000055	-0.499782	0.249928
	O156	O	0.135398	-0.459261	0.470757
	O157	O	0.114922	-0.374900	0.415351
	O158	O	0.115655	-0.124976	0.463521
	O159	O	0.229022	-0.459428	0.470740
	O160	O	0.096191	-0.458815	0.470507
	O161	O	0.008673	-0.458522	0.531884
	O162	O	0.096183	-0.290587	0.470588
	O163	O	0.095878	-0.208643	0.404974
	O164	O	0.017653	-0.208974	0.288239
	O165	O	0.135509	-0.290879	0.470800
	O166	O	0.133676	-0.208943	0.406874
	O167	O	0.221168	-0.209535	0.345583
	O168	O	0.008634	-0.290081	0.531736
	O169	O	0.096076	-0.040398	0.404573
	O170	O	0.017793	-0.040474	0.288018
	O171	O	0.221239	-0.041142	0.345497
	O172	O	0.133711	-0.040608	0.407059
	O173	O	0.229044	-0.291166	0.470547
	O174	O	-0.010206	-0.124634	0.540237
	O175	O	0.240698	-0.375425	0.338523
	C176	C	0.191462	-0.285124	0.469021
	C177	C	0.200979	-0.375026	0.468437
	C178	C	0.191452	-0.464963	0.469240
	C179	C	0.172915	-0.465004	0.471340
	C180	C	0.163450	-0.374943	0.472370
	C181	C	0.172945	-0.285080	0.471073
	C182	C	0.143379	-0.375221	0.471506
	C183	C	0.221074	-0.375141	0.469772
	C184	C	0.088792	-0.374661	0.475569
	C185	C	0.069966	-0.374681	0.488485
	C186	C	0.060905	-0.284936	0.493752
	C187	C	0.043327	-0.284928	0.505003
	C188	C	0.034384	-0.374600	0.511296
	C189	C	0.043312	-0.464471	0.505276
	C190	C	0.060906	-0.464480	0.493995
	C191	C	0.015878	-0.374211	0.525851
	C192	C	0.089303	-0.124591	0.395282
	C193	C	0.072418	-0.124677	0.370376
	C194	C	0.064474	-0.035703	0.358459
	C195	C	0.048907	-0.035658	0.335304
	C196	C	0.040844	-0.124863	0.323639
	C197	C	0.048775	-0.213931	0.335632
	C198	C	0.064330	-0.213889	0.358773
	C199	C	0.024256	-0.124844	0.297864
	C200	C	0.140932	-0.124826	0.401071
	C201	C	0.159408	-0.124969	0.386106
	C202	C	0.168377	-0.214858	0.380081
	C203	C	0.185947	-0.215165	0.368846
	C204	C	0.195020	-0.125299	0.363468
	C205	C	0.185949	-0.035409	0.368634
	C206	C	0.168370	-0.035181	0.379856
	C207	C	0.213812	-0.125449	0.350489
	H208	H	0.192731	-0.285143	0.364563
	H209	H	0.161589	-0.284673	0.384484
	H210	H	0.198604	-0.214796	0.467996
	H211	H	0.165841	-0.214767	0.471766
	H212	H	0.115033	-0.374222	0.389439
	H213	H	0.117030	-0.125138	0.489433
	H214	H	-0.009898	-0.124339	0.514253
	H215	H	0.242003	-0.375962	0.364240
	H216	H	0.070325	-0.282722	0.368016
	H217	H	0.042774	-0.282749	0.326500
	H218	H	0.036557	-0.214857	0.509049
	H219	H	0.067671	-0.215275	0.489085
	H220	H	0.042982	0.033144	0.325828
	H221	H	0.070553	0.033234	0.367381
	H222	H	0.067695	-0.534553	0.489512
	H223	H	0.036501	-0.534130	0.509580
	H224	H	0.165754	-0.535060	0.472262
	H225	H	0.198612	-0.535036	0.468482
	H226	H	0.161606	0.034883	0.384140
	H227	H	0.192796	0.034114	0.364116
	Al228	Al	0.115031	-0.000465	0.439651
	Al229	Al	0.114924	0.250389	0.439580
	Al230	Al	-0.000073	0.249983	0.249932
	Al231	Al	0.000016	0.000399	0.249928
	O232	O	0.135424	0.040756	0.471292
	O233	O	0.114982	0.124828	0.415458
	O234	O	0.115677	0.375071	0.463555
	O235	O	0.229076	0.040552	0.470286
	O236	O	0.096045	0.040840	0.470225
	O237	O	0.008534	0.041009	0.531573
	O238	O	0.095964	0.209086	0.470364
	O239	O	0.096027	0.291091	0.404693
	O240	O	0.017609	0.290957	0.288056
	O241	O	0.135388	0.209030	0.471242
	O242	O	0.133688	0.290339	0.407388
	O243	O	0.221051	0.290655	0.345324
	O244	O	0.008625	0.209365	0.531674
	O245	O	0.095968	0.459205	0.404637
	O246	O	0.017693	0.459121	0.287926
	O247	O	0.221136	0.458933	0.345386
	O248	O	0.133545	0.458742	0.406537
	O249	O	0.229097	0.208696	0.470478
	O250	O	-0.010118	0.375233	0.540039
	O251	O	0.240601	0.125306	0.338468
	C252	C	0.191500	0.214581	0.469067
	C253	C	0.201033	0.124867	0.468258
	C254	C	0.191508	0.035129	0.469153
	C255	C	0.172983	0.035037	0.471189
	C256	C	0.163442	0.124795	0.472309
	C257	C	0.172968	0.214575	0.471125
	C258	C	0.143383	0.124957	0.471682
	C259	C	0.221139	0.124717	0.469579
	C260	C	0.088586	0.124843	0.475288
	C261	C	0.069834	0.124992	0.488406
	C262	C	0.060782	0.214888	0.493720
	C263	C	0.043226	0.214884	0.504923
	C264	C	0.034297	0.125057	0.511122
	C265	C	0.043290	0.035256	0.505353
	C266	C	0.060831	0.035332	0.494146
	C267	C	0.015799	0.125076	0.525845
	C268	C	0.089310	0.375017	0.395211
	C269	C	0.072456	0.375143	0.370323
	C270	C	0.064499	0.464248	0.358390
	C271	C	0.048890	0.464248	0.335186
	C272	C	0.040769	0.375195	0.323635
	C273	C	0.048695	0.286192	0.335721
	C274	C	0.064292	0.286171	0.358931
	C275	C	0.024193	0.375041	0.297878
	C276	C	0.140858	0.374560	0.401203
	C277	C	0.159379	0.374790	0.386474
	C278	C	0.168382	0.284874	0.380413
	C279	C	0.185940	0.284837	0.369083
	C280	C	0.194937	0.374749	0.363632
	C281	C	0.185853	0.464645	0.369038
	C282	C	0.168306	0.464684	0.380399
	C283	C	0.213701	0.374910	0.350284
	H284	H	0.192730	0.215033	0.364362
	H285	H	0.161603	0.215086	0.384793
	H286	H	0.198702	0.284530	0.468040
	H287	H	0.165855	0.284565	0.471818
	H288	H	0.115123	0.124807	0.389372
	H289	H	0.117191	0.374945	0.489543
	H290	H	-0.009921	0.375098	0.514007
	H291	H	0.241938	0.125026	0.364369
	H292	H	0.070194	0.217062	0.368209
	H293	H	0.042618	0.217193	0.326840
	H294	H	0.036409	0.284760	0.509321
	H295	H	0.067620	0.284722	0.489148
	H296	H	0.043012	0.533416	0.325850
	H297	H	0.070593	0.533251	0.367352
	H298	H	0.067628	-0.034194	0.489880
	H299	H	0.036545	-0.034597	0.509828
	H300	H	0.165852	-0.034810	0.472077
	H301	H	0.198621	-0.034973	0.468362
	H302	H	0.161519	0.534518	0.384669
	H303	H	0.192613	0.534349	0.364302
	Al304	Al	0.125012	-0.500149	0.624892
	Al305	Al	0.124967	-0.250119	0.624792
	Al306	Al	-0.010014	-0.250236	0.564295
	Al307	Al	-0.010070	-0.499045	0.564213
	O308	O	0.145928	-0.459163	0.654266
	O309	O	0.123862	-0.375318	0.600466
	O310	O	0.126045	-0.125115	0.648976
	O311	O	0.239487	-0.460162	0.654132
	O312	O	0.106799	-0.459211	0.658406
	O313	O	0.018195	-0.458678	0.716338
	O314	O	0.106774	-0.290983	0.658296
	O315	O	0.104032	-0.209166	0.595296
	O316	O	0.010436	-0.208759	0.595746
	O317	O	0.145908	-0.291127	0.654204
	O318	O	0.143207	-0.209320	0.591292
	O319	O	0.231731	-0.209266	0.533595
	O320	O	0.018300	-0.290260	0.716805
	O321	O	0.104115	-0.040916	0.595237
	O322	O	0.010511	-0.040160	0.595417
	O323	O	0.231755	-0.040976	0.533517
	O324	O	0.143120	-0.040891	0.591175
	O325	O	0.239495	-0.292029	0.653861
	O326	O	-0.001051	-0.124803	0.726205
	O327	O	0.251094	-0.375232	0.524305
	C328	C	0.202004	-0.285990	0.653826
	C329	C	0.211476	-0.375986	0.652830
	C330	C	0.201955	-0.465691	0.654043
	C331	C	0.183449	-0.465262	0.656012
	C332	C	0.173948	-0.375329	0.656516
	C333	C	0.183499	-0.285610	0.655795
	C334	C	0.153881	-0.375062	0.655154
	C335	C	0.231561	-0.376000	0.653450
	C336	C	0.099369	-0.375034	0.663698
	C337	C	0.080590	-0.375140	0.677315
	C338	C	0.071448	-0.285183	0.682532
	C339	C	0.053653	-0.284848	0.692570
	C340	C	0.044458	-0.374648	0.697686
	C341	C	0.053598	-0.464626	0.692491
	C342	C	0.071387	-0.464898	0.682435
	C343	C	0.025631	-0.374495	0.711179
	C344	C	0.096101	-0.124968	0.594441
	C345	C	0.075967	-0.124819	0.593137
	C346	C	0.066463	-0.034970	0.593933
	C347	C	0.047964	-0.034922	0.595962
	C348	C	0.038457	-0.124824	0.597065
	C349	C	0.047945	-0.214741	0.595964
	C350	C	0.066466	-0.214813	0.593947
	C351	C	0.018371	-0.124542	0.596138
	C352	C	0.150551	-0.125104	0.585971
	C353	C	0.169423	-0.125115	0.572726
	C354	C	0.178556	-0.215103	0.567397
	C355	C	0.196348	-0.214987	0.557521
	C356	C	0.205547	-0.125019	0.552416
	C357	C	0.196409	-0.035009	0.557658
	C358	C	0.178616	-0.035173	0.567547
	C359	C	0.224379	-0.125114	0.538942
	H360	H	0.203229	-0.284928	0.553587
	H361	H	0.171728	-0.285618	0.571073
	H362	H	0.209207	-0.216323	0.652875
	H363	H	0.176392	-0.215704	0.656529
	H364	H	0.122209	-0.374920	0.574629
	H365	H	0.127428	-0.124899	0.674962
	H366	H	-0.002517	-0.124942	0.700248
	H367	H	0.252468	-0.375115	0.550212
	H368	H	0.073620	-0.284930	0.593253
	H369	H	0.040792	-0.284724	0.596933
	H370	H	0.046857	-0.214414	0.696521
	H371	H	0.078284	-0.214538	0.678671
	H372	H	0.040810	0.034864	0.596937
	H373	H	0.073622	0.034996	0.593131
	H374	H	0.078194	-0.534979	0.678589
	H375	H	0.046763	-0.534704	0.696405
	H376	H	0.176242	-0.535184	0.656866
	H377	H	0.209045	-0.536009	0.653228
	H378	H	0.171739	0.034926	0.571417
	H379	H	0.203267	0.035091	0.553979
	Al380	Al	0.125016	-0.000062	0.624828
	Al381	Al	0.124953	0.249972	0.624700
	Al382	Al	-0.010032	0.249675	0.564205
	Al383	Al	-0.010073	0.000693	0.564389
	O384	O	0.146002	0.040814	0.654275
	O385	O	0.123810	0.124762	0.600444
	O386	O	0.126054	0.374881	0.649004
	O387	O	0.239484	0.040254	0.653962
	O388	O	0.106823	0.040948	0.658596
	O389	O	0.018216	0.041381	0.716523
	O390	O	0.106799	0.209124	0.658503
	O391	O	0.103934	0.290646	0.595388
	O392	O	0.010372	0.291418	0.595896
	O393	O	0.145980	0.209038	0.653998
	O394	O	0.143220	0.290810	0.591350
	O395	O	0.231801	0.290673	0.533520
	O396	O	0.018292	0.209509	0.716583
	O397	O	0.104000	0.459051	0.595294
	O398	O	0.010398	0.459723	0.595661
	O399	O	0.231805	0.458895	0.533755
	O400	O	0.143084	0.458803	0.591136
	O401	O	0.239573	0.208820	0.653936
	O402	O	-0.001020	0.375389	0.725914
	O403	O	0.251072	0.124610	0.524121
	C404	C	0.202040	0.214476	0.653742
	C405	C	0.211506	0.124400	0.652615
	C406	C	0.202001	0.034361	0.653749
	C407	C	0.183494	0.034767	0.655734
	C408	C	0.174016	0.124967	0.656445
	C409	C	0.183550	0.214957	0.655686
	C410	C	0.153919	0.125017	0.655012
	C411	C	0.231591	0.124502	0.653307
	C412	C	0.099467	0.125028	0.663929
	C413	C	0.080621	0.125029	0.677381
	C414	C	0.071509	0.215086	0.682761
	C415	C	0.053702	0.215110	0.692649
	C416	C	0.044476	0.125094	0.697768
	C417	C	0.053597	0.035094	0.692450
	C418	C	0.071405	0.035013	0.682532
	C419	C	0.025590	0.125295	0.711092
	C420	C	0.096045	0.374929	0.594454
	C421	C	0.075954	0.375043	0.593092
	C422	C	0.066456	0.465094	0.593734
	C423	C	0.047945	0.465275	0.595710
	C424	C	0.038423	0.375397	0.596989
	C425	C	0.047899	0.285315	0.596120
	C426	C	0.066409	0.285170	0.594158
	C427	C	0.018330	0.375561	0.596259
	C428	C	0.150550	0.374889	0.585815
	C429	C	0.169406	0.374674	0.572497
	C430	C	0.178616	0.284786	0.567571
	C431	C	0.196407	0.284665	0.557666
	C432	C	0.205562	0.374634	0.552243
	C433	C	0.196395	0.464481	0.557484
	C434	C	0.178583	0.464464	0.567295
	C435	C	0.224399	0.374759	0.538922
	H436	H	0.203207	0.214552	0.553735
	H437	H	0.171700	0.214446	0.571147
	H438	H	0.209190	0.284557	0.652693
	H439	H	0.176396	0.284921	0.656225
	H440	H	0.122342	0.124146	0.574432
	H441	H	0.127516	0.374610	0.674904
	H442	H	-0.002060	0.374816	0.699869
	H443	H	0.252443	0.124700	0.550042
	H444	H	0.073562	0.214833	0.593610
	H445	H	0.040730	0.215300	0.597228
	H446	H	0.046877	0.285461	0.696418
	H447	H	0.078417	0.285400	0.679089
	H448	H	0.040776	0.535249	0.596454
	H449	H	0.073609	0.534934	0.592863
	H450	H	0.078227	-0.035333	0.678654
	H451	H	0.046664	-0.035177	0.696069
	H452	H	0.176312	-0.035282	0.656415
	H453	H	0.209118	-0.035977	0.652786
	H454	H	0.171678	0.534955	0.570784
	H455	H	0.203187	0.534765	0.553440
	Al456	Al	0.135045	-0.500265	0.810742
	Al457	Al	0.135051	-0.251026	0.810672
	Al458	Al	0.000122	-0.249572	0.750439
	Al459	Al	0.000062	-0.499766	0.750182
	O460	O	0.154003	-0.459685	0.845715
	O461	O	0.134359	-0.375766	0.786721
	O462	O	0.135082	-0.125987	0.834947
	O463	O	0.232207	-0.459824	0.962404
	O464	O	0.116388	-0.459461	0.843280
	O465	O	0.028913	-0.459160	0.904795
	O466	O	0.116379	-0.291097	0.843278
	O467	O	0.114633	-0.209682	0.779330
	O468	O	0.021029	-0.208669	0.780162
	O469	O	0.153987	-0.291766	0.845562
	O470	O	0.153892	-0.209704	0.779703
	O471	O	0.241247	-0.210047	0.717677
	O472	O	0.028879	-0.290777	0.904834
	O473	O	0.114674	-0.041213	0.779257
	O474	O	0.021088	-0.040221	0.779666
	O475	O	0.241348	-0.041627	0.718016
	O476	O	0.153999	-0.041175	0.780152
	O477	O	0.232309	-0.291541	0.962293
	O478	O	0.009331	-0.125192	0.911424
	O479	O	0.260150	-0.375521	0.709457
	C480	C	0.201205	-0.286580	0.914836
	C481	C	0.209201	-0.375525	0.926680
	C482	C	0.201089	-0.464238	0.915110
	C483	C	0.185493	-0.464473	0.892001
	C484	C	0.177543	-0.375463	0.879948
	C485	C	0.185582	-0.286779	0.891697
	C486	C	0.160700	-0.375683	0.855142
	C487	C	0.225739	-0.375607	0.952500
	C488	C	0.109152	-0.375209	0.849123
	C489	C	0.090621	-0.375410	0.863755
	C490	C	0.081728	-0.285473	0.870278
	C491	C	0.064179	-0.285289	0.881602
	C492	C	0.055055	-0.375065	0.886710
	C493	C	0.064019	-0.464970	0.880823
	C494	C	0.081585	-0.465094	0.869513
	C495	C	0.036267	-0.374945	0.899761
	C496	C	0.106723	-0.125381	0.778669
	C497	C	0.086630	-0.125114	0.777983
	C498	C	0.077140	-0.034976	0.778656
	C499	C	0.058600	-0.034977	0.780721
	C500	C	0.049066	-0.124822	0.782013
	C501	C	0.058553	-0.214980	0.781360
	C502	C	0.077086	-0.214976	0.779265
	C503	C	0.029002	-0.124473	0.780758
	C504	C	0.161324	-0.125389	0.774998
	C505	C	0.180126	-0.125436	0.761890
	C506	C	0.189126	-0.215267	0.756352
	C507	C	0.206681	-0.215261	0.744952
	C508	C	0.215629	-0.125484	0.738837
	C509	C	0.206704	-0.035622	0.745053
	C510	C	0.189159	-0.035570	0.756455
	C511	C	0.234106	-0.125948	0.723884
	H512	H	0.213450	-0.285050	0.740406
	H513	H	0.182335	-0.285041	0.760697
	H514	H	0.207133	-0.217769	0.924081
	H515	H	0.179558	-0.217924	0.882648
	H516	H	0.133144	-0.375971	0.760795
	H517	H	0.134865	-0.125923	0.861078
	H518	H	0.008020	-0.125391	0.885504
	H519	H	0.260509	-0.375287	0.735443
	H520	H	0.084229	-0.284954	0.778607
	H521	H	0.051429	-0.285060	0.782384
	H522	H	0.057432	-0.215752	0.886252
	H523	H	0.088570	-0.215570	0.866089
	H524	H	0.051489	0.035216	0.781253
	H525	H	0.084270	0.035160	0.777434
	H526	H	0.088237	-0.535133	0.864669
	H527	H	0.057161	-0.534586	0.884935
	H528	H	0.179413	-0.533489	0.883283
	H529	H	0.206962	-0.533517	0.924567
	H530	H	0.182365	0.034096	0.760960
	H531	H	0.213476	0.034267	0.740679
	Al532	Al	0.135011	-0.000117	0.810965
	Al533	Al	0.135006	0.248790	0.811101
	Al534	Al	0.000087	0.250195	0.750217
	Al535	Al	0.000042	0.000297	0.750267
	O536	O	0.153925	0.040277	0.846087
	O537	O	0.134385	0.124216	0.786922
	O538	O	0.135077	0.374635	0.835074
	O539	O	0.232414	0.040429	0.962206
	O540	O	0.116287	0.039948	0.843256
	O541	O	0.028751	0.040660	0.904137
	O542	O	0.116433	0.208472	0.843600
	O543	O	0.114438	0.289448	0.779678
	O544	O	0.020903	0.291312	0.779783
	O545	O	0.153960	0.208404	0.845956
	O546	O	0.153847	0.290104	0.780071
	O547	O	0.241284	0.290028	0.718064
	O548	O	0.028848	0.209195	0.904404
	O549	O	0.114643	0.457815	0.779339
	O550	O	0.021037	0.459560	0.779384
	O551	O	0.241289	0.458452	0.718100
	O552	O	0.153763	0.458382	0.779597
	O553	O	0.232515	0.208584	0.962026
	O554	O	0.009289	0.374834	0.911300
	O555	O	0.260105	0.124371	0.709546
	C556	C	0.201328	0.213093	0.914515
	C557	C	0.209272	0.124162	0.926536
	C558	C	0.201227	0.035077	0.914851
	C559	C	0.185594	0.035115	0.891826
	C560	C	0.177564	0.124123	0.880185
	C561	C	0.185698	0.213136	0.891523
	C562	C	0.160654	0.124344	0.855337
	C563	C	0.225918	0.124487	0.952237
	C564	C	0.109118	0.124286	0.849332
	C565	C	0.090617	0.124653	0.864017
	C566	C	0.081696	0.214581	0.870286
	C567	C	0.064107	0.214644	0.881419
	C568	C	0.055013	0.124793	0.886477
	C569	C	0.063951	0.034809	0.880544
	C570	C	0.081555	0.034773	0.869429
	C571	C	0.036219	0.124843	0.899441
	C572	C	0.106592	0.373828	0.778872
	C573	C	0.086528	0.374282	0.778037
	C574	C	0.077062	0.464376	0.778971
	C575	C	0.058541	0.464664	0.780965
	C576	C	0.048954	0.374771	0.781871
	C577	C	0.058430	0.284764	0.781214
	C578	C	0.076958	0.284428	0.779285
	C579	C	0.028912	0.375254	0.780471
	C580	C	0.161202	0.374087	0.774849
	C581	C	0.180040	0.374112	0.761787
	C582	C	0.189124	0.284451	0.756404
	C583	C	0.206665	0.284478	0.745033
	C584	C	0.215611	0.374266	0.738938
	C585	C	0.206627	0.464005	0.745014
	C586	C	0.189070	0.463821	0.756368
	C587	C	0.234084	0.374318	0.723891
	H588	H	0.213402	0.214420	0.740407
	H589	H	0.182373	0.214467	0.760771
	H590	H	0.207457	0.282145	0.923285
	H591	H	0.179776	0.282210	0.882202
	H592	H	0.132778	0.124083	0.761234
	H593	H	0.135108	0.375190	0.861204
	H594	H	0.007862	0.374893	0.885521
	H595	H	0.260151	0.124265	0.735419
	H596	H	0.084091	0.214069	0.778666
	H597	H	0.051267	0.214714	0.782206
	H598	H	0.057394	0.284577	0.886181
	H599	H	0.088534	0.284830	0.866381
	H600	H	0.051445	0.534823	0.781801
	H601	H	0.084291	0.534086	0.778061
	H602	H	0.088316	-0.035285	0.864787
	H603	H	0.057100	-0.034846	0.884612
	H604	H	0.179580	-0.033687	0.882697
	H605	H	0.207253	-0.033902	0.923922
	H606	H	0.182238	0.533797	0.760656
	H607	H	0.213342	0.533973	0.740413
	Al608	Al	0.365071	-0.500946	0.189967
	Al609	Al	0.365043	-0.250535	0.189998
	Al610	Al	0.250049	-0.250277	0.000313
	Al611	Al	0.250011	-0.500582	0.000268
	O612	O	0.385591	-0.460135	0.221289
	O613	O	0.364845	-0.375649	0.165910
	O614	O	0.365795	-0.125616	0.213894
	O615	O	0.479086	-0.459215	0.220500
	O616	O	0.346144	-0.459889	0.220806
	O617	O	0.258612	-0.459185	0.281862
	O618	O	0.346217	-0.291486	0.221067
	O619	O	0.346096	-0.209550	0.154915
	O620	O	0.267776	-0.209446	0.038452
	O621	O	0.385427	-0.291864	0.221577
	O622	O	0.383714	-0.209944	0.157487
	O623	O	0.471160	-0.209112	0.095612
	O624	O	0.258673	-0.290960	0.281979
	O625	O	0.346128	-0.041575	0.155060
	O626	O	0.267830	-0.041255	0.038285
	O627	O	0.471073	-0.040863	0.095263
	O628	O	0.383646	-0.041387	0.157267
	O629	O	0.479113	-0.290938	0.220678
	O630	O	0.239868	-0.125143	0.290232
	O631	O	0.490667	-0.375249	0.088685
	C632	C	0.441591	-0.285222	0.219249
	C633	C	0.451118	-0.375047	0.218428
	C634	C	0.441608	-0.465017	0.219213
	C635	C	0.423090	-0.465130	0.221254
	C636	C	0.413563	-0.375324	0.222458
	C637	C	0.423069	-0.285363	0.221312
	C638	C	0.393479	-0.375734	0.221976
	C639	C	0.471174	-0.374986	0.219742
	C640	C	0.338809	-0.375653	0.226030
	C641	C	0.320005	-0.375558	0.238896
	C642	C	0.310980	-0.285666	0.244248
	C643	C	0.293408	-0.285419	0.255457
	C644	C	0.284421	-0.375058	0.261472
	C645	C	0.293334	-0.464962	0.255277
	C646	C	0.310912	-0.465152	0.244121
	C647	C	0.265874	-0.375158	0.276094
	C648	C	0.339453	-0.125619	0.145461
	C649	C	0.322551	-0.125228	0.120623
	C650	C	0.314583	-0.035954	0.108806
	C651	C	0.298960	-0.036000	0.085679
	C652	C	0.290952	-0.125171	0.073830
	C653	C	0.298886	-0.214254	0.085815
	C654	C	0.314504	-0.214429	0.108892
	C655	C	0.274261	-0.125367	0.048322
	C656	C	0.390880	-0.125844	0.151428
	C657	C	0.409379	-0.125638	0.136512
	C658	C	0.418397	-0.215407	0.130475
	C659	C	0.435934	-0.215009	0.119084
	C660	C	0.444939	-0.124994	0.113460
	C661	C	0.435828	-0.035261	0.118855
	C662	C	0.418274	-0.035695	0.130261
	C663	C	0.463726	-0.124978	0.100436
	H664	H	0.442743	-0.284598	0.114742
	H665	H	0.411718	-0.285374	0.135038
	H666	H	0.448750	-0.215098	0.218390
	H667	H	0.415905	-0.215522	0.222151
	H668	H	0.364839	-0.375485	0.139851
	H669	H	0.367106	-0.125128	0.239486
	H670	H	0.240021	-0.125836	0.264299
	H671	H	0.491945	-0.375558	0.114444
	H672	H	0.320517	-0.283704	0.118072
	H673	H	0.292741	-0.283304	0.077013
	H674	H	0.286665	-0.215510	0.259884
	H675	H	0.317824	-0.215999	0.239909
	H676	H	0.292935	0.033065	0.076589
	H677	H	0.320643	0.033161	0.117830
	H678	H	0.317665	-0.535162	0.239679
	H679	H	0.286521	-0.534878	0.259516
	H680	H	0.415933	-0.535013	0.222000
	H681	H	0.448769	-0.535048	0.218242
	H682	H	0.411463	0.033906	0.134778
	H683	H	0.442544	0.034638	0.114203
	Al684	Al	0.365023	-0.001211	0.189864
	Al685	Al	0.365027	0.249783	0.189782
	Al686	Al	0.250060	0.249687	0.000434
	Al687	Al	0.250048	-0.000407	0.000359
	O688	O	0.385484	0.040289	0.221133
	O689	O	0.364856	0.123983	0.165612
	O690	O	0.365741	0.374449	0.213829
	O691	O	0.478995	0.040586	0.221000
	O692	O	0.346223	0.040200	0.220904
	O693	O	0.258614	0.041225	0.281895
	O694	O	0.346283	0.208556	0.221035
	O695	O	0.346105	0.290592	0.154969
	O696	O	0.267778	0.290768	0.038340
	O697	O	0.385411	0.208837	0.221416
	O698	O	0.383730	0.290054	0.157349
	O699	O	0.471131	0.290486	0.095653
	O700	O	0.258570	0.209595	0.281763
	O701	O	0.346163	0.458638	0.154708
	O702	O	0.267791	0.458929	0.038230
	O703	O	0.471112	0.459095	0.095541
	O704	O	0.383778	0.458552	0.157451
	O705	O	0.479080	0.208812	0.220894
	O706	O	0.239854	0.374749	0.290112
	O707	O	0.490797	0.124674	0.088527
	C708	C	0.441496	0.215154	0.219619
	C709	C	0.450986	0.125186	0.218570
	C710	C	0.441437	0.035242	0.219347
	C711	C	0.422950	0.035287	0.221361
	C712	C	0.413449	0.125198	0.222702
	C713	C	0.422980	0.215153	0.221685
	C714	C	0.393391	0.124799	0.221911
	C715	C	0.471094	0.124811	0.220033
	C716	C	0.338809	0.124454	0.225838
	C717	C	0.320004	0.124833	0.238619
	C718	C	0.310929	0.214566	0.243701
	C719	C	0.293342	0.214825	0.254805
	C720	C	0.284342	0.125335	0.261089
	C721	C	0.293312	0.035520	0.255213
	C722	C	0.310922	0.035326	0.244150
	C723	C	0.265827	0.125431	0.275911
	C724	C	0.339467	0.374509	0.145313
	C725	C	0.322495	0.374513	0.120711
	C726	C	0.314570	0.463517	0.108875
	C727	C	0.298967	0.463693	0.085749
	C728	C	0.290939	0.374858	0.073847
	C729	C	0.298834	0.285766	0.085808
	C730	C	0.314418	0.285717	0.109018
	C731	C	0.274298	0.374965	0.048158
	C732	C	0.390917	0.374262	0.151431
	C733	C	0.409417	0.374581	0.136468
	C734	C	0.418373	0.284797	0.130362
	C735	C	0.435899	0.284889	0.118962
	C736	C	0.444927	0.374796	0.113540
	C737	C	0.435879	0.464646	0.118936
	C738	C	0.418365	0.464491	0.130315
	C739	C	0.463719	0.374835	0.100595
	H740	H	0.442695	0.215018	0.114401
	H741	H	0.411587	0.214737	0.134716
	H742	H	0.448672	0.285123	0.219011
	H743	H	0.415812	0.285074	0.222734
	H744	H	0.365101	0.124248	0.139604
	H745	H	0.367265	0.374383	0.239739
	H746	H	0.239859	0.374795	0.264247
	H747	H	0.492475	0.124159	0.114349
	H748	H	0.320427	0.216601	0.117921
	H749	H	0.292793	0.216995	0.076904
	H750	H	0.286584	0.284584	0.258957
	H751	H	0.317695	0.284523	0.239110
	H752	H	0.293043	0.532685	0.076636
	H753	H	0.320685	0.532659	0.117608
	H754	H	0.317697	-0.034514	0.239929
	H755	H	0.286487	-0.034140	0.259687
	H756	H	0.415830	-0.034875	0.222118
	H757	H	0.448605	-0.034748	0.218463
	H758	H	0.411533	0.534632	0.134671
	H759	H	0.442655	0.534536	0.114251
	Al760	Al	0.375014	-0.500314	0.375139
	Al761	Al	0.374991	-0.250284	0.374849
	Al762	Al	0.240044	-0.250559	0.314552
	Al763	Al	0.239975	-0.499840	0.314284
	O764	O	0.395850	-0.459140	0.404648
	O765	O	0.373883	-0.375349	0.350817
	O766	O	0.376028	-0.125180	0.399215
	O767	O	0.489546	-0.459116	0.404167
	O768	O	0.356748	-0.459372	0.408498
	O769	O	0.268229	-0.459303	0.466520
	O770	O	0.356797	-0.291323	0.408490
	O771	O	0.354023	-0.208937	0.345383
	O772	O	0.260438	-0.209073	0.345943
	O773	O	0.395934	-0.290821	0.404377
	O774	O	0.393229	-0.209163	0.341452
	O775	O	0.481837	-0.209012	0.283807
	O776	O	0.268254	-0.290976	0.466651
	O777	O	0.354019	-0.041012	0.345576
	O778	O	0.260356	-0.040621	0.346011
	O779	O	0.481864	-0.040968	0.284060
	O780	O	0.393089	-0.040896	0.340901
	O781	O	0.489521	-0.290726	0.404164
	O782	O	0.248866	-0.125445	0.475729
	O783	O	0.501155	-0.375140	0.274556
	C784	C	0.451964	-0.285125	0.403961
	C785	C	0.461482	-0.374991	0.402717
	C786	C	0.451973	-0.464871	0.403866
	C787	C	0.433447	-0.465016	0.405964
	C788	C	0.423905	-0.375141	0.406835
	C789	C	0.433435	-0.285234	0.406052
	C790	C	0.403822	-0.374957	0.405439
	C791	C	0.481559	-0.374933	0.403524
	C792	C	0.349413	-0.375193	0.413873
	C793	C	0.330561	-0.375169	0.427371
	C794	C	0.321442	-0.285207	0.432746
	C795	C	0.303631	-0.285251	0.442763
	C796	C	0.294443	-0.375123	0.447687
	C797	C	0.303566	-0.465004	0.442365
	C798	C	0.321353	-0.464993	0.432390
	C799	C	0.275599	-0.375024	0.461291
	C800	C	0.346071	-0.125023	0.344635
	C801	C	0.326004	-0.124897	0.343264
	C802	C	0.316486	-0.034912	0.344111
	C803	C	0.297970	-0.034938	0.346127
	C804	C	0.288427	-0.124718	0.347286
	C805	C	0.297923	-0.214643	0.345890
	C806	C	0.316436	-0.214784	0.343888
	C807	C	0.268370	-0.124791	0.346492
	C808	C	0.400568	-0.124912	0.335963
	C809	C	0.419418	-0.124715	0.322623
	C810	C	0.428596	-0.214600	0.317573
	C811	C	0.446415	-0.214772	0.307837
	C812	C	0.455599	-0.124927	0.302690
	C813	C	0.446450	-0.034874	0.307773
	C814	C	0.428596	-0.034781	0.317478
	C815	C	0.474464	-0.124959	0.289340
	H816	H	0.453228	-0.285039	0.303979
	H817	H	0.421751	-0.284849	0.321236
	H818	H	0.459079	-0.215075	0.403204
	H819	H	0.426220	-0.215248	0.406917
	H820	H	0.372263	-0.375906	0.324941
	H821	H	0.377357	-0.125410	0.425184
	H822	H	0.247051	-0.125090	0.449898
	H823	H	0.502766	-0.375166	0.300338
	H824	H	0.323595	-0.284950	0.343251
	H825	H	0.290766	-0.284893	0.346765
	H826	H	0.296782	-0.215125	0.446622
	H827	H	0.328266	-0.214888	0.428766
	H828	H	0.290827	0.035585	0.347262
	H829	H	0.323640	0.035008	0.343640
	H830	H	0.328052	-0.535450	0.428155
	H831	H	0.296668	-0.535133	0.445925
	H832	H	0.426291	-0.535007	0.406670
	H833	H	0.459124	-0.534966	0.403024
	H834	H	0.421738	0.035371	0.321052
	H835	H	0.453329	0.035345	0.303848
	Al836	Al	0.374970	-0.000290	0.374945
	Al837	Al	0.375019	0.249770	0.375198
	Al838	Al	0.239989	0.249581	0.314355
	Al839	Al	0.239964	0.000387	0.314394
	O840	O	0.396021	0.039985	0.404278
	O841	O	0.373894	0.124630	0.350822
	O842	O	0.376068	0.374567	0.399422
	O843	O	0.489586	0.040343	0.404141
	O844	O	0.356774	0.040498	0.408590
	O845	O	0.268175	0.040664	0.466388
	O846	O	0.356789	0.208704	0.408664
	O847	O	0.354028	0.290391	0.345819
	O848	O	0.260434	0.290449	0.345822
	O849	O	0.395980	0.208400	0.404318
	O850	O	0.393228	0.290895	0.341617
	O851	O	0.481770	0.290625	0.283803
	O852	O	0.268114	0.208952	0.466380
	O853	O	0.354044	0.458556	0.345598
	O854	O	0.260461	0.459036	0.345687
	O855	O	0.481748	0.458949	0.283531
	O856	O	0.393133	0.458919	0.341488
	O857	O	0.489593	0.208984	0.403730
	O858	O	0.248931	0.374948	0.475800
	O859	O	0.501191	0.124975	0.274603
	C860	C	0.452069	0.214475	0.403818
	C861	C	0.461580	0.124675	0.402740
	C862	C	0.452099	0.034625	0.403931
	C863	C	0.433539	0.034518	0.405974
	C864	C	0.424045	0.124303	0.406903
	C865	C	0.433520	0.214374	0.405894
	C866	C	0.403919	0.124230	0.405246
	C867	C	0.481676	0.124690	0.403502
	C868	C	0.349436	0.124560	0.414137
	C869	C	0.330562	0.124687	0.427250
	C870	C	0.321437	0.214724	0.432630
	C871	C	0.303629	0.214815	0.442522
	C872	C	0.294407	0.124824	0.447687
	C873	C	0.303538	0.034856	0.442400
	C874	C	0.321353	0.034761	0.432440
	C875	C	0.275498	0.124922	0.460953
	C876	C	0.346092	0.374494	0.344859
	C877	C	0.325979	0.374785	0.343353
	C878	C	0.316510	0.464763	0.343918
	C879	C	0.297977	0.464811	0.345934
	C880	C	0.288458	0.374917	0.347305
	C881	C	0.297928	0.284971	0.346363
	C882	C	0.316459	0.284742	0.344313
	C883	C	0.268364	0.374775	0.346347
	C884	C	0.400524	0.374832	0.336081
	C885	C	0.419414	0.375383	0.322912
	C886	C	0.428528	0.285199	0.317592
	C887	C	0.446334	0.284899	0.307663
	C888	C	0.455538	0.374719	0.302391
	C889	C	0.446443	0.464869	0.307840
	C890	C	0.428655	0.465201	0.317791
	C891	C	0.474398	0.374950	0.289103
	H892	H	0.453183	0.214595	0.303910
	H893	H	0.421636	0.215111	0.321346
	H894	H	0.459172	0.284538	0.402943
	H895	H	0.426378	0.284465	0.406459
	H896	H	0.372401	0.124632	0.324714
	H897	H	0.377312	0.374186	0.425373
	H898	H	0.247529	0.374891	0.449764
	H899	H	0.502572	0.124654	0.300502
	H900	H	0.323578	0.214429	0.343888
	H901	H	0.290783	0.214733	0.347356
	H902	H	0.296779	0.285143	0.446234
	H903	H	0.328311	0.284862	0.429056
	H904	H	0.290869	0.534890	0.346693
	H905	H	0.323638	0.534663	0.343067
	H906	H	0.328214	-0.035432	0.428676
	H907	H	0.296646	-0.035211	0.445933
	H908	H	0.426397	-0.035484	0.406637
	H909	H	0.459225	-0.035461	0.403218
	H910	H	0.421842	0.535485	0.321667
	H911	H	0.453354	0.535148	0.304319
	Al912	Al	0.385027	-0.499862	0.560492
	Al913	Al	0.384964	-0.250657	0.560677
	Al914	Al	0.249985	-0.250064	0.500214
	Al915	Al	0.249980	-0.500048	0.500074
	O916	O	0.404038	-0.459290	0.595170
	O917	O	0.384250	-0.375296	0.536595
	O918	O	0.385055	-0.125295	0.584757
	O919	O	0.482248	-0.459252	0.711952
	O920	O	0.366259	-0.459793	0.592939
	O921	O	0.278827	-0.459976	0.654624
	O922	O	0.366403	-0.291405	0.593423
	O923	O	0.364450	-0.209706	0.529298
	O924	O	0.270897	-0.208998	0.529961
	O925	O	0.404046	-0.291258	0.595276
	O926	O	0.403777	-0.209437	0.529612
	O927	O	0.491343	-0.209101	0.468224
	O928	O	0.278784	-0.291781	0.654467
	O929	O	0.364520	-0.041170	0.529088
	O930	O	0.270989	-0.040715	0.529351
	O931	O	0.491281	-0.040723	0.468156
	O932	O	0.403853	-0.040881	0.529551
	O933	O	0.482381	-0.291039	0.711798
	O934	O	0.259305	-0.125797	0.661102
	O935	O	0.510119	-0.375167	0.459882
	C936	C	0.451148	-0.285888	0.664788
	C937	C	0.459096	-0.375055	0.676612
	C938	C	0.451071	-0.464193	0.664843
	C939	C	0.435475	-0.463956	0.641669
	C940	C	0.427504	-0.374936	0.629877
	C941	C	0.435540	-0.285827	0.641616
	C942	C	0.410688	-0.375293	0.604887
	C943	C	0.475746	-0.375081	0.702124
	C944	C	0.359147	-0.375462	0.599028
	C945	C	0.340604	-0.375607	0.613755
	C946	C	0.331606	-0.285890	0.619809
	C947	C	0.314044	-0.286050	0.631041
	C948	C	0.305006	-0.375853	0.636485
	C949	C	0.314068	-0.465637	0.630930
	C950	C	0.331621	-0.465471	0.619700
	C951	C	0.286190	-0.375747	0.649546
	C952	C	0.356575	-0.125355	0.528572
	C953	C	0.336514	-0.125342	0.527978
	C954	C	0.327033	-0.035284	0.528824
	C955	C	0.308515	-0.035215	0.530861
	C956	C	0.298977	-0.125191	0.532043
	C957	C	0.308453	-0.215212	0.531304
	C958	C	0.326995	-0.215368	0.529274
	C959	C	0.278868	-0.125087	0.530491
	C960	C	0.411221	-0.125274	0.524599
	C961	C	0.430008	-0.125332	0.511629
	C962	C	0.439061	-0.215014	0.506220
	C963	C	0.456613	-0.214928	0.494924
	C964	C	0.465559	-0.124986	0.488861
	C965	C	0.456573	-0.035217	0.494855
	C966	C	0.439042	-0.035407	0.506131
	C967	C	0.484074	-0.124980	0.474077
	H968	H	0.463393	-0.284549	0.490624
	H969	H	0.432258	-0.284856	0.510618
	H970	H	0.457172	-0.217013	0.673843
	H971	H	0.429555	-0.217019	0.632566
	H972	H	0.383052	-0.374776	0.510799
	H973	H	0.384669	-0.125231	0.610693
	H974	H	0.258158	-0.125781	0.635227
	H975	H	0.510352	-0.374947	0.485787
	H976	H	0.334127	-0.285708	0.528570
	H977	H	0.301284	-0.285087	0.532212
	H978	H	0.307192	-0.216690	0.635487
	H979	H	0.338348	-0.215971	0.615275
	H980	H	0.301418	0.035058	0.531447
	H981	H	0.334186	0.034679	0.527810
	H982	H	0.338424	-0.535076	0.615141
	H983	H	0.307318	-0.535511	0.635263
	H984	H	0.429431	-0.532902	0.632623
	H985	H	0.457052	-0.533321	0.674001
	H986	H	0.432258	0.034385	0.510477
	H987	H	0.463355	0.034430	0.490410
	Al988	Al	0.384971	0.000019	0.560627
	Al989	Al	0.385071	0.249090	0.560823
	Al990	Al	0.250028	0.250195	0.500023
	Al991	Al	0.250016	-0.000361	0.499946
	O992	O	0.403833	0.040977	0.595770
	O993	O	0.384319	0.124786	0.536667
	O994	O	0.385042	0.374718	0.584816
	O995	O	0.482402	0.040306	0.711862
	O996	O	0.366242	0.039966	0.593101
	O997	O	0.278720	0.040316	0.654222
	O998	O	0.366326	0.208230	0.593230
	O999	O	0.364589	0.289884	0.529236
	O1000	O	0.271019	0.290707	0.529398
	O1001	O	0.403939	0.209043	0.595787
	O1002	O	0.403885	0.290038	0.529782
	O1003	O	0.491362	0.290211	0.467971
	O1004	O	0.278743	0.208636	0.654452
	O1005	O	0.364589	0.458514	0.528971
	O1006	O	0.270964	0.458869	0.529477
	O1007	O	0.491288	0.458859	0.467879
	O1008	O	0.403873	0.458540	0.529644
	O1009	O	0.482316	0.208436	0.711845
	O1010	O	0.259133	0.374597	0.661520
	O1011	O	0.510255	0.125138	0.459628
	C1012	C	0.451241	0.213838	0.664650
	C1013	C	0.459197	0.124561	0.676405
	C1014	C	0.451194	0.035571	0.664471
	C1015	C	0.435535	0.035389	0.641481
	C1016	C	0.427466	0.124407	0.630026
	C1017	C	0.435573	0.213554	0.641634
	C1018	C	0.410570	0.124818	0.605265
	C1019	C	0.475789	0.124285	0.702034
	C1020	C	0.359023	0.124237	0.599037
	C1021	C	0.340585	0.124530	0.613820
	C1022	C	0.331620	0.214253	0.620049
	C1023	C	0.314090	0.214330	0.631356
	C1024	C	0.304938	0.124646	0.636503
	C1025	C	0.314012	0.034934	0.631071
	C1026	C	0.331569	0.034781	0.619795
	C1027	C	0.286211	0.124376	0.649435
	C1028	C	0.356659	0.374267	0.528561
	C1029	C	0.336593	0.374359	0.527687
	C1030	C	0.327141	0.464370	0.528760
	C1031	C	0.308596	0.464650	0.530790
	C1032	C	0.299051	0.374864	0.531723
	C1033	C	0.308541	0.284739	0.530908
	C1034	C	0.327073	0.284476	0.528890
	C1035	C	0.278951	0.374887	0.530291
	C1036	C	0.411293	0.374330	0.524788
	C1037	C	0.430066	0.374196	0.511705
	C1038	C	0.439181	0.284365	0.506538
	C1039	C	0.456725	0.284377	0.495231
	C1040	C	0.465632	0.374308	0.488742
	C1041	C	0.456610	0.464183	0.494508
	C1042	C	0.439057	0.464128	0.505860
	C1043	C	0.484124	0.374399	0.473942
	H1044	H	0.463533	0.214544	0.491110
	H1045	H	0.432439	0.214866	0.511275
	H1046	H	0.457253	0.283229	0.673777
	H1047	H	0.429567	0.282757	0.632574
	H1048	H	0.382800	0.125224	0.510817
	H1049	H	0.384897	0.374769	0.610721
	H1050	H	0.257383	0.374553	0.635739
	H1051	H	0.510410	0.125161	0.485594
	H1052	H	0.334181	0.214322	0.528128
	H1053	H	0.301372	0.214602	0.531813
	H1054	H	0.307355	0.284125	0.635910
	H1055	H	0.338455	0.283784	0.615785
	H1056	H	0.301496	0.534726	0.531512
	H1057	H	0.334271	0.534534	0.527948
	H1058	H	0.338342	-0.035350	0.615518
	H1059	H	0.307168	-0.034710	0.635480
	H1060	H	0.429540	-0.033746	0.632453
	H1061	H	0.457210	-0.033613	0.673461
	H1062	H	0.432133	0.533716	0.510014
	H1063	H	0.463323	0.534234	0.489781
	Al1064	Al	0.374969	-0.500794	0.875014
	Al1065	Al	0.374895	-0.250652	0.875054
	Al1066	Al	0.259911	-0.250427	0.685235
	Al1067	Al	0.259985	-0.501132	0.685623
	O1068	O	0.392641	-0.459806	0.913173
	O1069	O	0.375715	-0.375598	0.851283
	O1070	O	0.374196	-0.125381	0.898680
	O1071	O	0.471044	-0.459659	1.029457
	O1072	O	0.355289	-0.460176	0.903713
	O1073	O	0.269606	-0.460179	0.971346
	O1074	O	0.355341	-0.291321	0.903824
	O1075	O	0.357193	-0.209346	0.836936
	O1076	O	0.278947	-0.209433	0.720145
	O1077	O	0.392647	-0.291470	0.913216
	O1078	O	0.394605	-0.209407	0.846577
	O1079	O	0.480318	-0.209919	0.778677
	O1080	O	0.269648	-0.291565	0.971610
	O1081	O	0.357240	-0.041316	0.836993
	O1082	O	0.278935	-0.041693	0.720073
	O1083	O	0.480346	-0.041512	0.778789
	O1084	O	0.394594	-0.041023	0.846364
	O1085	O	0.471013	-0.291436	1.029537
	O1086	O	0.250836	-0.125408	0.976600
	O1087	O	0.499233	-0.375182	0.773914
	C1088	C	0.439354	-0.286570	0.983825
	C1089	C	0.447453	-0.375576	0.995242
	C1090	C	0.439531	-0.464833	0.983217
	C1091	C	0.423925	-0.464782	0.960099
	C1092	C	0.415799	-0.375751	0.948747
	C1093	C	0.423749	-0.286638	0.960691
	C1094	C	0.399171	-0.375541	0.923057
	C1095	C	0.464314	-0.375538	1.020150
	C1096	C	0.348154	-0.375748	0.909386
	C1097	C	0.329812	-0.375809	0.924404
	C1098	C	0.321069	-0.286378	0.931268
	C1099	C	0.303867	-0.286310	0.944460
	C1100	C	0.295150	-0.375871	0.950849
	C1101	C	0.303894	-0.465306	0.944130
	C1102	C	0.321058	-0.465253	0.930928
	C1103	C	0.276817	-0.375993	0.965841
	C1104	C	0.350687	-0.125329	0.827069
	C1105	C	0.334043	-0.125039	0.801565
	C1106	C	0.325938	-0.036383	0.789902
	C1107	C	0.310398	-0.036426	0.766726
	C1108	C	0.302474	-0.125372	0.754643
	C1109	C	0.310627	-0.214179	0.766061
	C1110	C	0.326174	-0.213935	0.789255
	C1111	C	0.285617	-0.125573	0.729694
	C1112	C	0.401787	-0.125154	0.840828
	C1113	C	0.420104	-0.125671	0.825751
	C1114	C	0.428918	-0.214822	0.819344
	C1115	C	0.446088	-0.214756	0.806143
	C1116	C	0.454810	-0.125622	0.799315
	C1117	C	0.445983	-0.036593	0.805574
	C1118	C	0.428805	-0.036511	0.818830
	C1119	C	0.473154	-0.125802	0.784477
	H1120	H	0.452851	-0.283422	0.801224
	H1121	H	0.422332	-0.283829	0.824962
	H1122	H	0.445268	-0.217572	0.993089
	H1123	H	0.417681	-0.217835	0.951783
	H1124	H	0.376397	-0.376016	0.825579
	H1125	H	0.373653	-0.125486	0.924592
	H1126	H	0.251442	-0.124959	0.950712
	H1127	H	0.498348	-0.375726	0.799678
	H1128	H	0.332332	-0.282654	0.798010
	H1129	H	0.304768	-0.282888	0.756521
	H1130	H	0.297210	-0.217486	0.950210
	H1131	H	0.327790	-0.217434	0.926187
	H1132	H	0.304290	0.032331	0.757769
	H1133	H	0.331864	0.032480	0.799215
	H1134	H	0.327678	-0.534190	0.925549
	H1135	H	0.297230	-0.534112	0.949233
	H1136	H	0.418011	-0.533926	0.950703
	H1137	H	0.445637	-0.533667	0.992032
	H1138	H	0.422085	0.032341	0.824056
	H1139	H	0.452644	0.032242	0.800216
	Al1140	Al	0.374961	-0.000311	0.875058
	Al1141	Al	0.374987	0.249283	0.875003
	Al1142	Al	0.259931	0.249827	0.685504
	Al1143	Al	0.259919	-0.001057	0.685274
	O1144	O	0.392670	0.039797	0.913258
	O1145	O	0.375889	0.124381	0.851298
	O1146	O	0.374117	0.374211	0.898860
	O1147	O	0.471094	0.040204	1.029194
	O1148	O	0.355330	0.040546	0.903505
	O1149	O	0.269636	0.040271	0.971583
	O1150	O	0.355316	0.208852	0.903642
	O1151	O	0.357360	0.290133	0.836954
	O1152	O	0.278923	0.289883	0.720419
	O1153	O	0.392610	0.208189	0.913268
	O1154	O	0.394672	0.290935	0.846654
	O1155	O	0.480373	0.290674	0.778622
	O1156	O	0.269735	0.208632	0.971912
	O1157	O	0.357217	0.458589	0.837049
	O1158	O	0.278917	0.458163	0.720647
	O1159	O	0.480319	0.459361	0.778444
	O1160	O	0.394601	0.459104	0.846242
	O1161	O	0.470986	0.208214	1.029720
	O1162	O	0.250850	0.374401	0.976724
	O1163	O	0.499182	0.124549	0.773683
	C1164	C	0.439313	0.212983	0.983794
	C1165	C	0.447477	0.124241	0.995119
	C1166	C	0.439443	0.035267	0.983428
	C1167	C	0.423851	0.035019	0.960381
	C1168	C	0.415822	0.123851	0.948706
	C1169	C	0.423727	0.212831	0.960738
	C1170	C	0.399200	0.124017	0.923031
	C1171	C	0.464361	0.124291	1.019999
	C1172	C	0.348124	0.124692	0.909195
	C1173	C	0.329826	0.124310	0.924213
	C1174	C	0.321088	0.213420	0.931167
	C1175	C	0.303938	0.213752	0.944432
	C1176	C	0.295143	0.124450	0.950829
	C1177	C	0.303898	0.035222	0.944016
	C1178	C	0.321065	0.034981	0.930718
	C1179	C	0.276856	0.124473	0.965905
	C1180	C	0.350725	0.374238	0.827050
	C1181	C	0.334195	0.374072	0.801249
	C1182	C	0.326168	0.463137	0.789482
	C1183	C	0.310542	0.463208	0.766316
	C1184	C	0.302547	0.373933	0.754598
	C1185	C	0.310575	0.284845	0.766276
	C1186	C	0.326204	0.284949	0.789391
	C1187	C	0.285612	0.374056	0.730034
	C1188	C	0.401811	0.375046	0.840772
	C1189	C	0.420188	0.374879	0.825744
	C1190	C	0.429031	0.285454	0.819421
	C1191	C	0.446204	0.285450	0.806195
	C1192	C	0.454846	0.374818	0.799101
	C1193	C	0.446053	0.464153	0.805607
	C1194	C	0.428890	0.464144	0.818850
	C1195	C	0.473165	0.374922	0.784179
	H1196	H	0.452931	0.216354	0.801176
	H1197	H	0.422394	0.216778	0.825123
	H1198	H	0.445303	0.281638	0.993039
	H1199	H	0.417614	0.281632	0.951854
	H1200	H	0.377226	0.123774	0.825751
	H1201	H	0.372883	0.373838	0.924486
	H1202	H	0.251730	0.374650	0.951045
	H1203	H	0.498537	0.124675	0.799539
	H1204	H	0.332173	0.216125	0.798447
	H1205	H	0.304544	0.215638	0.757271
	H1206	H	0.297350	0.282646	0.950028
	H1207	H	0.327728	0.282648	0.926088
	H1208	H	0.304435	0.532379	0.757514
	H1209	H	0.332120	0.532483	0.798628
	H1210	H	0.327708	-0.033823	0.925156
	H1211	H	0.297180	-0.033488	0.949263
	H1212	H	0.417803	-0.033684	0.951364
	H1213	H	0.445512	-0.033368	0.992388
	H1214	H	0.422175	0.533236	0.823980
	H1215	H	0.452690	0.533338	0.800094
	Al1216	Al	0.624948	-0.500029	0.124640
	Al1217	Al	0.624946	-0.250153	0.124802
	Al1218	Al	0.489907	-0.250870	0.064714
	Al1219	Al	0.489982	-0.499722	0.064489
	O1220	O	0.645945	-0.459391	0.154044
	O1221	O	0.623918	-0.374797	0.100428
	O1222	O	0.626124	-0.124887	0.149044
	O1223	O	0.739554	-0.459151	0.153807
	O1224	O	0.606897	-0.458882	0.158702
	O1225	O	0.518224	-0.459452	0.216760
	O1226	O	0.606678	-0.290588	0.158294
	O1227	O	0.604074	-0.208970	0.095156
	O1228	O	0.510400	-0.209307	0.096117
	O1229	O	0.645929	-0.291140	0.154509
	O1230	O	0.643246	-0.209158	0.091270
	O1231	O	0.731875	-0.208337	0.033658
	O1232	O	0.518170	-0.291208	0.216535
	O1233	O	0.603999	-0.040700	0.095455
	O1234	O	0.510467	-0.040785	0.096045
	O1235	O	0.731745	-0.040270	0.033215
	O1236	O	0.643136	-0.040870	0.091041
	O1237	O	0.739497	-0.290523	0.153774
	O1238	O	0.498997	-0.124919	0.225995
	O1239	O	0.751111	-0.374107	0.024136
	C1240	C	0.702005	-0.285174	0.153472
	C1241	C	0.711519	-0.375172	0.152613
	C1242	C	0.702049	-0.465220	0.153659
	C1243	C	0.683526	-0.465342	0.155772
	C1244	C	0.673977	-0.375393	0.156624
	C1245	C	0.683469	-0.285326	0.155552
	C1246	C	0.653871	-0.375193	0.155289
	C1247	C	0.731588	-0.374982	0.153226
	C1248	C	0.599411	-0.374876	0.163906
	C1249	C	0.580601	-0.375131	0.177525
	C1250	C	0.571432	-0.285186	0.182592
	C1251	C	0.553649	-0.285153	0.192578
	C1252	C	0.544498	-0.375200	0.197917
	C1253	C	0.553627	-0.465070	0.192576
	C1254	C	0.571420	-0.465007	0.182553
	C1255	C	0.525606	-0.375290	0.211321
	C1256	C	0.596097	-0.125013	0.094577
	C1257	C	0.576003	-0.125269	0.093176
	C1258	C	0.566476	-0.035435	0.094064
	C1259	C	0.547945	-0.035272	0.096168
	C1260	C	0.538441	-0.125243	0.097264
	C1261	C	0.547946	-0.215103	0.096000
	C1262	C	0.566471	-0.215254	0.093885
	C1263	C	0.518377	-0.125246	0.096723
	C1264	C	0.650573	-0.124953	0.085845
	C1265	C	0.669436	-0.124680	0.072515
	C1266	C	0.678682	-0.214293	0.067478
	C1267	C	0.696433	-0.214159	0.057632
	C1268	C	0.705597	-0.124321	0.052381
	C1269	C	0.696358	-0.034501	0.057363
	C1270	C	0.678594	-0.034819	0.067187
	C1271	C	0.724432	-0.124341	0.038790
	H1272	H	0.703326	-0.284069	0.053895
	H1273	H	0.671867	-0.284438	0.071366
	H1274	H	0.709130	-0.215286	0.152475
	H1275	H	0.676356	-0.215229	0.156252
	H1276	H	0.622648	-0.374978	0.074365
	H1277	H	0.627629	-0.124793	0.174920
	H1278	H	0.497940	-0.124808	0.199993
	H1279	H	0.752602	-0.373330	0.050128
	H1280	H	0.573576	-0.285429	0.092794
	H1281	H	0.540723	-0.285392	0.096486
	H1282	H	0.546832	-0.215000	0.196394
	H1283	H	0.578256	-0.215022	0.178607
	H1284	H	0.540824	0.034687	0.096996
	H1285	H	0.573641	0.034439	0.093087
	H1286	H	0.578229	-0.535407	0.178541
	H1287	H	0.546773	-0.535162	0.196301
	H1288	H	0.676354	-0.535253	0.156526
	H1289	H	0.709223	-0.535143	0.152660
	H1290	H	0.671675	0.035185	0.070931
	H1291	H	0.703207	0.035585	0.053407
	Al1292	Al	0.624940	0.000064	0.124777
	Al1293	Al	0.624959	0.249915	0.124812
	Al1294	Al	0.489957	0.249118	0.064567
	Al1295	Al	0.489986	0.000286	0.064339
	O1296	O	0.645857	0.041081	0.154396
	O1297	O	0.623780	0.124926	0.100537
	O1298	O	0.626191	0.375182	0.148868
	O1299	O	0.739530	0.040833	0.153713
	O1300	O	0.606855	0.041253	0.158665
	O1301	O	0.518259	0.041220	0.216743
	O1302	O	0.606686	0.209357	0.158047
	O1303	O	0.604031	0.291332	0.095221
	O1304	O	0.510350	0.290483	0.096173
	O1305	O	0.645909	0.209203	0.154521
	O1306	O	0.643251	0.290783	0.091329
	O1307	O	0.731952	0.291438	0.033855
	O1308	O	0.518277	0.209351	0.216786
	O1309	O	0.603946	0.459553	0.095291
	O1310	O	0.510382	0.458874	0.096102
	O1311	O	0.731795	0.459675	0.033585
	O1312	O	0.643101	0.459144	0.090847
	O1313	O	0.739518	0.209061	0.153372
	O1314	O	0.498798	0.374869	0.226029
	O1315	O	0.751179	0.125509	0.024218
	C1316	C	0.701979	0.214696	0.153667
	C1317	C	0.711473	0.124777	0.152537
	C1318	C	0.701926	0.034905	0.153537
	C1319	C	0.683409	0.035165	0.155653
	C1320	C	0.673927	0.125107	0.156675
	C1321	C	0.683455	0.215057	0.155748
	C1322	C	0.653800	0.125066	0.155211
	C1323	C	0.731560	0.124854	0.153007
	C1324	C	0.599409	0.125321	0.163781
	C1325	C	0.580586	0.125330	0.177253
	C1326	C	0.571385	0.215334	0.182483
	C1327	C	0.553607	0.215364	0.192486
	C1328	C	0.544437	0.125352	0.197776
	C1329	C	0.553618	0.035504	0.192530
	C1330	C	0.571388	0.035540	0.182484
	C1331	C	0.525643	0.125173	0.211386
	C1332	C	0.596046	0.375332	0.094510
	C1333	C	0.575959	0.375098	0.093129
	C1334	C	0.566406	0.465058	0.094236
	C1335	C	0.547893	0.465033	0.096393
	C1336	C	0.538383	0.374937	0.097279
	C1337	C	0.547912	0.285001	0.095880
	C1338	C	0.566427	0.285037	0.093727
	C1339	C	0.518327	0.374740	0.096775
	C1340	C	0.650549	0.375104	0.085737
	C1341	C	0.669423	0.374984	0.072364
	C1342	C	0.678619	0.285259	0.067247
	C1343	C	0.696476	0.285411	0.057427
	C1344	C	0.705629	0.375373	0.052362
	C1345	C	0.696476	0.465225	0.057524
	C1346	C	0.678633	0.464881	0.067421
	C1347	C	0.724487	0.375370	0.039110
	H1348	H	0.703308	0.215042	0.053541
	H1349	H	0.671765	0.214798	0.070830
	H1350	H	0.709140	0.284589	0.152824
	H1351	H	0.676327	0.285119	0.156700
	H1352	H	0.622168	0.124902	0.074721
	H1353	H	0.628125	0.375139	0.174747
	H1354	H	0.497183	0.374640	0.200116
	H1355	H	0.752851	0.125593	0.050086
	H1356	H	0.573614	0.215027	0.092417
	H1357	H	0.540741	0.214835	0.096323
	H1358	H	0.546724	0.285385	0.196337
	H1359	H	0.578252	0.285488	0.178633
	H1360	H	0.540705	0.535146	0.097269
	H1361	H	0.573487	0.535372	0.093221
	H1362	H	0.578285	-0.034548	0.178627
	H1363	H	0.546815	-0.035134	0.196397
	H1364	H	0.676272	-0.034974	0.156567
	H1365	H	0.709058	-0.035123	0.152659
	H1366	H	0.671794	0.534937	0.071001
	H1367	H	0.703307	0.535535	0.053664
	Al1368	Al	0.635032	-0.499035	0.310765
	Al1369	Al	0.635107	-0.249984	0.310776
	Al1370	Al	0.500039	-0.250138	0.250287
	Al1371	Al	0.499988	-0.500188	0.250231
	O1372	O	0.654000	-0.458358	0.345451
	O1373	O	0.634445	-0.374495	0.286710
	O1374	O	0.635150	-0.124673	0.334856
	O1375	O	0.732311	-0.458973	0.462174
	O1376	O	0.616285	-0.458990	0.343018
	O1377	O	0.528824	-0.458949	0.404553
	O1378	O	0.616467	-0.290693	0.343518
	O1379	O	0.614617	-0.208848	0.279333
	O1380	O	0.520994	-0.208860	0.279704
	O1381	O	0.654018	-0.290240	0.345766
	O1382	O	0.653868	-0.208291	0.279711
	O1383	O	0.741249	-0.208982	0.217550
	O1384	O	0.528884	-0.290692	0.405014
	O1385	O	0.614597	-0.040603	0.279298
	O1386	O	0.521019	-0.040588	0.279769
	O1387	O	0.741315	-0.040614	0.217718
	O1388	O	0.653907	-0.040160	0.279863
	O1389	O	0.732301	-0.290734	0.462257
	O1390	O	0.509250	-0.125183	0.411749
	O1391	O	0.760029	-0.374498	0.209219
	C1392	C	0.701125	-0.285705	0.414999
	C1393	C	0.709090	-0.374748	0.426799
	C1394	C	0.701178	-0.463635	0.414642
	C1395	C	0.685582	-0.463600	0.391520
	C1396	C	0.677495	-0.374588	0.380113
	C1397	C	0.685530	-0.285661	0.391903
	C1398	C	0.660664	-0.374273	0.355160
	C1399	C	0.725738	-0.374806	0.452491
	C1400	C	0.609194	-0.374703	0.349285
	C1401	C	0.590679	-0.374720	0.364120
	C1402	C	0.581762	-0.285003	0.370258
	C1403	C	0.564211	-0.284873	0.381551
	C1404	C	0.555131	-0.374618	0.387035
	C1405	C	0.564080	-0.464427	0.381187
	C1406	C	0.581634	-0.464448	0.369864
	C1407	C	0.536283	-0.374797	0.399821
	C1408	C	0.606691	-0.124681	0.278712
	C1409	C	0.586572	-0.124525	0.278108
	C1410	C	0.577054	-0.034545	0.279257
	C1411	C	0.558512	-0.034560	0.281277
	C1412	C	0.549028	-0.124558	0.282094
	C1413	C	0.558556	-0.214537	0.281033
	C1414	C	0.577073	-0.214553	0.278979
	C1415	C	0.528911	-0.124761	0.280659
	C1416	C	0.661300	-0.124336	0.274774
	C1417	C	0.680044	-0.124524	0.261647
	C1418	C	0.689061	-0.214388	0.256140
	C1419	C	0.706617	-0.214439	0.244655
	C1420	C	0.715595	-0.124679	0.238487
	C1421	C	0.706641	-0.034927	0.244620
	C1422	C	0.689097	-0.035003	0.255993
	C1423	C	0.734063	-0.124735	0.223673
	H1424	H	0.713458	-0.284245	0.240428
	H1425	H	0.682317	-0.283958	0.260761
	H1426	H	0.707174	-0.216960	0.424167
	H1427	H	0.679520	-0.216471	0.382902
	H1428	H	0.633220	-0.374188	0.260828
	H1429	H	0.634998	-0.124927	0.360923
	H1430	H	0.507919	-0.125063	0.385689
	H1431	H	0.760349	-0.374919	0.235297
	H1432	H	0.584220	-0.284736	0.277947
	H1433	H	0.551444	-0.284581	0.281643
	H1434	H	0.557418	-0.215044	0.385933
	H1435	H	0.588529	-0.214998	0.365917
	H1436	H	0.551333	0.035375	0.282138
	H1437	H	0.584158	0.035499	0.278436
	H1438	H	0.588389	-0.534309	0.365275
	H1439	H	0.557248	-0.533939	0.385305
	H1440	H	0.679639	-0.532649	0.382134
	H1441	H	0.707231	-0.532748	0.423503
	H1442	H	0.682346	0.034847	0.260545
	H1443	H	0.713401	0.035078	0.240280
	Al1444	Al	0.635061	0.000828	0.310754
	Al1445	Al	0.635085	0.250128	0.310973
	Al1446	Al	0.500052	0.249819	0.250418
	Al1447	Al	0.500000	0.000019	0.250279
	O1448	O	0.653975	0.041467	0.345855
	O1449	O	0.634409	0.125591	0.286978
	O1450	O	0.635079	0.375568	0.335108
	O1451	O	0.732340	0.041292	0.462271
	O1452	O	0.616353	0.040785	0.343060
	O1453	O	0.528901	0.040325	0.404757
	O1454	O	0.616351	0.209336	0.343491
	O1455	O	0.614660	0.291008	0.279220
	O1456	O	0.520998	0.290920	0.279929
	O1457	O	0.654030	0.209658	0.345871
	O1458	O	0.653882	0.291148	0.279918
	O1459	O	0.741131	0.290883	0.217417
	O1460	O	0.528829	0.208618	0.404387
	O1461	O	0.614549	0.459509	0.279316
	O1462	O	0.521007	0.459014	0.279642
	O1463	O	0.741250	0.459367	0.217842
	O1464	O	0.653937	0.459380	0.279976
	O1465	O	0.732360	0.209530	0.462435
	O1466	O	0.509382	0.375157	0.411508
	O1467	O	0.759997	0.125455	0.209381
	C1468	C	0.701237	0.214408	0.414954
	C1469	C	0.709243	0.125557	0.426723
	C1470	C	0.701232	0.036716	0.414820
	C1471	C	0.685642	0.036723	0.391621
	C1472	C	0.677593	0.125625	0.380073
	C1473	C	0.685648	0.214388	0.391789
	C1474	C	0.660730	0.125477	0.355225
	C1475	C	0.725830	0.125240	0.452469
	C1476	C	0.609121	0.124865	0.349115
	C1477	C	0.590648	0.124508	0.363773
	C1478	C	0.581681	0.214235	0.369769
	C1479	C	0.564132	0.214212	0.381032
	C1480	C	0.555069	0.124494	0.386580
	C1481	C	0.564137	0.034887	0.381272
	C1482	C	0.581672	0.034710	0.369926
	C1483	C	0.536279	0.124469	0.399618
	C1484	C	0.606668	0.375023	0.278733
	C1485	C	0.586606	0.374650	0.278005
	C1486	C	0.577091	0.464596	0.279070
	C1487	C	0.558599	0.464713	0.281023
	C1488	C	0.549052	0.374883	0.282057
	C1489	C	0.558570	0.284843	0.281203
	C1490	C	0.577079	0.284722	0.279202
	C1491	C	0.528944	0.374994	0.280673
	C1492	C	0.661273	0.375260	0.274936
	C1493	C	0.680080	0.375353	0.261817
	C1494	C	0.689104	0.285485	0.256116
	C1495	C	0.706618	0.285451	0.244672
	C1496	C	0.715565	0.375198	0.238717
	C1497	C	0.706622	0.465101	0.244829
	C1498	C	0.689080	0.465169	0.256250
	C1499	C	0.733979	0.375097	0.223589
	H1500	H	0.713320	0.215562	0.239941
	H1501	H	0.682300	0.215812	0.260407
	H1502	H	0.707222	0.283372	0.424013
	H1503	H	0.679660	0.283225	0.382738
	H1504	H	0.632831	0.125886	0.261064
	H1505	H	0.634825	0.375508	0.361042
	H1506	H	0.508242	0.375499	0.385611
	H1507	H	0.759867	0.125829	0.235327
	H1508	H	0.584239	0.214723	0.278348
	H1509	H	0.551383	0.214989	0.281884
	H1510	H	0.557357	0.283760	0.385408
	H1511	H	0.588515	0.283977	0.365305
	H1512	H	0.551443	0.534914	0.281589
	H1513	H	0.584261	0.534598	0.278087
	H1514	H	0.588428	-0.035253	0.365736
	H1515	H	0.557346	-0.035010	0.385892
	H1516	H	0.679687	-0.032096	0.382467
	H1517	H	0.707245	-0.032117	0.423783
	H1518	H	0.682284	0.534725	0.260573
	H1519	H	0.713354	0.534840	0.240082
	Al1520	Al	0.625080	-0.499834	0.625198
	Al1521	Al	0.625142	-0.249928	0.624930
	Al1522	Al	0.509964	-0.249459	0.435878
	Al1523	Al	0.509986	-0.500281	0.435558
	O1524	O	0.642759	-0.459289	0.663120
	O1525	O	0.625828	-0.374983	0.601421
	O1526	O	0.624228	-0.125239	0.648781
	O1527	O	0.720969	-0.458825	0.779849
	O1528	O	0.605529	-0.458748	0.654139
	O1529	O	0.519687	-0.459547	0.721532
	O1530	O	0.605402	-0.290437	0.653790
	O1531	O	0.607388	-0.209100	0.586888
	O1532	O	0.528916	-0.208914	0.470851
	O1533	O	0.642755	-0.290800	0.662998
	O1534	O	0.644670	-0.209082	0.596397
	O1535	O	0.730374	-0.208308	0.529053
	O1536	O	0.519647	-0.291042	0.721330
	O1537	O	0.607280	-0.040988	0.587042
	O1538	O	0.529024	-0.041069	0.470607
	O1539	O	0.730368	-0.040155	0.529081
	O1540	O	0.644552	-0.040743	0.596184
	O1541	O	0.721031	-0.290657	0.779853
	O1542	O	0.500944	-0.125381	0.726464
	O1543	O	0.749159	-0.374745	0.523981
	C1544	C	0.689446	-0.285583	0.733686
	C1545	C	0.697475	-0.374557	0.745379
	C1546	C	0.689430	-0.463488	0.733660
	C1547	C	0.673857	-0.463739	0.710410
	C1548	C	0.665886	-0.374899	0.698546
	C1549	C	0.673862	-0.285832	0.710428
	C1550	C	0.649299	-0.374806	0.672886
	C1551	C	0.714350	-0.374647	0.770273
	C1552	C	0.598260	-0.374632	0.659536
	C1553	C	0.579876	-0.374897	0.674241
	C1554	C	0.571100	-0.285634	0.680931
	C1555	C	0.553938	-0.285762	0.694141
	C1556	C	0.545187	-0.375133	0.700692
	C1557	C	0.553953	-0.464479	0.694126
	C1558	C	0.571149	-0.464382	0.680939
	C1559	C	0.526832	-0.375194	0.715671
	C1560	C	0.600782	-0.125117	0.577004
	C1561	C	0.584200	-0.125278	0.551472
	C1562	C	0.576152	-0.036389	0.539925
	C1563	C	0.560567	-0.036273	0.516816
	C1564	C	0.552583	-0.125087	0.504799
	C1565	C	0.560649	-0.214119	0.516315
	C1566	C	0.576247	-0.214160	0.539368
	C1567	C	0.535675	-0.125027	0.480145
	C1568	C	0.651801	-0.124832	0.590730
	C1569	C	0.670123	-0.124581	0.575771
	C1570	C	0.678902	-0.213664	0.569210
	C1571	C	0.696108	-0.213559	0.556226
	C1572	C	0.704847	-0.124468	0.549637
	C1573	C	0.696068	-0.035386	0.556226
	C1574	C	0.678867	-0.035515	0.569263
	C1575	C	0.723196	-0.124188	0.534739
	H1576	H	0.702835	-0.282655	0.551178
	H1577	H	0.672290	-0.282640	0.574613
	H1578	H	0.695447	-0.216717	0.742897
	H1579	H	0.667858	-0.216948	0.701402
	H1580	H	0.626541	-0.375618	0.575754
	H1581	H	0.623233	-0.125496	0.674577
	H1582	H	0.502088	-0.125370	0.700699
	H1583	H	0.748208	-0.374863	0.549806
	H1584	H	0.582287	-0.283201	0.548344
	H1585	H	0.554613	-0.283153	0.506981
	H1586	H	0.547308	-0.216825	0.699456
	H1587	H	0.577730	-0.216472	0.675694
	H1588	H	0.554445	0.032591	0.508043
	H1589	H	0.582130	0.032389	0.549213
	H1590	H	0.577853	-0.533302	0.675761
	H1591	H	0.547271	-0.533404	0.699494
	H1592	H	0.667908	-0.532911	0.701212
	H1593	H	0.695491	-0.532360	0.742664
	H1594	H	0.672173	0.033229	0.574603
	H1595	H	0.702740	0.033358	0.551101
	Al1596	Al	0.625013	0.000099	0.625094
	Al1597	Al	0.625013	0.249816	0.625139
	Al1598	Al	0.509980	0.250574	0.435406
	Al1599	Al	0.510035	-0.000539	0.435643
	O1600	O	0.642684	0.040946	0.663134
	O1601	O	0.625770	0.125254	0.601200
	O1602	O	0.624185	0.375040	0.648815
	O1603	O	0.721031	0.040865	0.779652
	O1604	O	0.605392	0.040660	0.653821
	O1605	O	0.519663	0.040421	0.721510
	O1606	O	0.605320	0.209086	0.653859
	O1607	O	0.607284	0.290777	0.587052
	O1608	O	0.529007	0.291014	0.470447
	O1609	O	0.642707	0.209032	0.663134
	O1610	O	0.644629	0.290866	0.596459
	O1611	O	0.730468	0.290789	0.528952
	O1612	O	0.519637	0.208948	0.721351
	O1613	O	0.607217	0.458790	0.587334
	O1614	O	0.529047	0.458930	0.470469
	O1615	O	0.730362	0.459224	0.528836
	O1616	O	0.644681	0.459205	0.596485
	O1617	O	0.721119	0.208963	0.779473
	O1618	O	0.500765	0.374411	0.726229
	O1619	O	0.749306	0.125337	0.524032
	C1620	C	0.689463	0.214046	0.733610
	C1621	C	0.697495	0.124894	0.745299
	C1622	C	0.689488	0.035613	0.733487
	C1623	C	0.673882	0.035828	0.710283
	C1624	C	0.665833	0.124988	0.698655
	C1625	C	0.673855	0.214185	0.710479
	C1626	C	0.649219	0.125082	0.672978
	C1627	C	0.714371	0.124894	0.770135
	C1628	C	0.598156	0.124782	0.659480
	C1629	C	0.579836	0.124673	0.674472
	C1630	C	0.571044	0.214116	0.680825
	C1631	C	0.553852	0.214200	0.694017
	C1632	C	0.545160	0.124760	0.700914
	C1633	C	0.553933	0.035634	0.694301
	C1634	C	0.571098	0.035553	0.681127
	C1635	C	0.526835	0.124609	0.715791
	C1636	C	0.600726	0.374953	0.577357
	C1637	C	0.584066	0.374927	0.551747
	C1638	C	0.576156	0.463930	0.539670
	C1639	C	0.560579	0.463954	0.516467
	C1640	C	0.552526	0.374941	0.504810
	C1641	C	0.560532	0.285993	0.516505
	C1642	C	0.576112	0.285929	0.539693
	C1643	C	0.535680	0.375150	0.479979
	C1644	C	0.651827	0.374915	0.590750
	C1645	C	0.670179	0.374881	0.575849
	C1646	C	0.678937	0.285796	0.569244
	C1647	C	0.696114	0.285947	0.555996
	C1648	C	0.704862	0.374891	0.549394
	C1649	C	0.696086	0.463773	0.556030
	C1650	C	0.678919	0.463723	0.569243
	C1651	C	0.723191	0.374990	0.534425
	H1652	H	0.702811	0.217075	0.550613
	H1653	H	0.672207	0.217174	0.574550
	H1654	H	0.695488	0.283159	0.742656
	H1655	H	0.667802	0.283119	0.701552
	H1656	H	0.626760	0.125037	0.575508
	H1657	H	0.622956	0.375214	0.674433
	H1658	H	0.501531	0.374445	0.700547
	H1659	H	0.748379	0.125383	0.549679
	H1660	H	0.582148	0.216986	0.548777
	H1661	H	0.554516	0.217179	0.507316
	H1662	H	0.547083	0.283051	0.698994
	H1663	H	0.577731	0.282704	0.675231
	H1664	H	0.554592	0.532775	0.507362
	H1665	H	0.582213	0.532805	0.548558
	H1666	H	0.577739	-0.033581	0.675931
	H1667	H	0.547286	-0.033183	0.699577
	H1668	H	0.667916	-0.033006	0.701065
	H1669	H	0.695614	-0.033327	0.742269
	H1670	H	0.672257	0.532398	0.574341
	H1671	H	0.702675	0.532865	0.550565
	Al1672	Al	0.614961	-0.500903	0.939657
	Al1673	Al	0.614991	-0.249671	0.939638
	Al1674	Al	0.499998	-0.250326	0.750079
	Al1675	Al	0.500035	-0.500144	0.749986
	O1676	O	0.635428	-0.459439	0.971120
	O1677	O	0.614811	-0.375359	0.915415
	O1678	O	0.615711	-0.125057	0.963731
	O1679	O	0.729076	-0.458574	0.970485
	O1680	O	0.596162	-0.459768	0.970779
	O1681	O	0.508604	-0.459748	1.032002
	O1682	O	0.596057	-0.291269	0.970229
	O1683	O	0.596094	-0.208760	0.904624
	O1684	O	0.517710	-0.209448	0.788129
	O1685	O	0.635404	-0.290850	0.971329
	O1686	O	0.633716	-0.209356	0.907348
	O1687	O	0.721205	-0.208956	0.845749
	O1688	O	0.508669	-0.291279	1.032357
	O1689	O	0.596043	-0.040508	0.904614
	O1690	O	0.517718	-0.040886	0.788177
	O1691	O	0.721097	-0.040645	0.845550
	O1692	O	0.633663	-0.041035	0.907082
	O1693	O	0.728986	-0.290311	0.970631
	O1694	O	0.489875	-0.125491	1.040296
	O1695	O	0.740688	-0.374980	0.838631
	C1696	C	0.691448	-0.284912	0.969391
	C1697	C	0.700965	-0.374774	0.968276
	C1698	C	0.691450	-0.464916	0.969012
	C1699	C	0.672903	-0.464952	0.971023
	C1700	C	0.663409	-0.375053	0.972368
	C1701	C	0.672931	-0.284934	0.971431
	C1702	C	0.643347	-0.375142	0.971828
	C1703	C	0.721085	-0.374587	0.969700
	C1704	C	0.588685	-0.375595	0.975436
	C1705	C	0.569910	-0.375343	0.988515
	C1706	C	0.560788	-0.285399	0.993482
	C1707	C	0.543234	-0.285263	1.004808
	C1708	C	0.534341	-0.375266	1.011449
	C1709	C	0.543390	-0.465117	1.005701
	C1710	C	0.560932	-0.465232	0.994435
	C1711	C	0.515847	-0.375304	1.026281
	C1712	C	0.589374	-0.124746	0.895148
	C1713	C	0.572497	-0.124912	0.870386
	C1714	C	0.564417	-0.035747	0.858690
	C1715	C	0.548810	-0.035825	0.835535
	C1716	C	0.540852	-0.125026	0.823616
	C1717	C	0.548882	-0.214111	0.835506
	C1718	C	0.564477	-0.213991	0.858633
	C1719	C	0.524195	-0.125180	0.798067
	C1720	C	0.640889	-0.125098	0.901316
	C1721	C	0.659428	-0.124993	0.886592
	C1722	C	0.668428	-0.214769	0.880732
	C1723	C	0.685953	-0.214580	0.869357
	C1724	C	0.694959	-0.124887	0.863687
	C1725	C	0.685895	-0.034990	0.868944
	C1726	C	0.668345	-0.035125	0.880326
	C1727	C	0.713732	-0.124731	0.850596
	H1728	H	0.692743	-0.284099	0.864880
	H1729	H	0.661712	-0.284892	0.885203
	H1730	H	0.698579	-0.214963	0.968582
	H1731	H	0.665842	-0.214799	0.972284
	H1732	H	0.614953	-0.375423	0.889332
	H1733	H	0.617272	-0.125053	0.989560
	H1734	H	0.489584	-0.126376	1.014426
	H1735	H	0.742144	-0.375133	0.864532
	H1736	H	0.570522	-0.283049	0.867723
	H1737	H	0.542858	-0.283112	0.826519
	H1738	H	0.536401	-0.215496	1.008870
	H1739	H	0.567526	-0.215584	0.988513
	H1740	H	0.542705	0.033142	0.826586
	H1741	H	0.570372	0.033269	0.867837
	H1742	H	0.567795	-0.535104	0.990180
	H1743	H	0.536607	-0.535020	1.010206
	H1744	H	0.665726	-0.534874	0.971705
	H1745	H	0.698616	-0.534939	0.967920
	H1746	H	0.661518	0.034855	0.884647
	H1747	H	0.692576	0.034448	0.864253
	Al1748	Al	0.614994	-0.000575	0.939741
	Al1749	Al	0.615067	0.250270	0.939789
	Al1750	Al	0.500020	0.249490	0.749947
	Al1751	Al	0.499930	-0.000463	0.750154
	O1752	O	0.635445	0.040567	0.971421
	O1753	O	0.614928	0.124967	0.915542
	O1754	O	0.615729	0.374856	0.963907
	O1755	O	0.729056	0.041807	0.970327
	O1756	O	0.596237	0.040302	0.970726
	O1757	O	0.508659	0.040547	1.032030
	O1758	O	0.596110	0.208663	0.970395
	O1759	O	0.596083	0.290456	0.904763
	O1760	O	0.517793	0.289991	0.787999
	O1761	O	0.635485	0.209054	0.971385
	O1762	O	0.633786	0.291063	0.907524
	O1763	O	0.721099	0.290702	0.845384
	O1764	O	0.508646	0.208852	1.032016
	O1765	O	0.596081	0.458491	0.904820
	O1766	O	0.517661	0.458268	0.788080
	O1767	O	0.721232	0.459062	0.845526
	O1768	O	0.633715	0.459216	0.907025
	O1769	O	0.729023	0.210259	0.970654
	O1770	O	0.489795	0.374308	1.040458
	O1771	O	0.740758	0.124867	0.838612
	C1772	C	0.691442	0.215346	0.969007
	C1773	C	0.701015	0.125473	0.968328
	C1774	C	0.691565	0.035275	0.969463
	C1775	C	0.673079	0.035000	0.971673
	C1776	C	0.663531	0.124862	0.972569
	C1777	C	0.672952	0.215056	0.971221
	C1778	C	0.643432	0.124733	0.971926
	C1779	C	0.721106	0.125942	0.969600
	C1780	C	0.588789	0.124439	0.975517
	C1781	C	0.569979	0.124208	0.988473
	C1782	C	0.560873	0.214009	0.993508
	C1783	C	0.543322	0.213965	1.004803
	C1784	C	0.534408	0.124427	1.011252
	C1785	C	0.543410	0.034624	1.005562
	C1786	C	0.560976	0.034620	0.994295
	C1787	C	0.515920	0.124668	1.026228
	C1788	C	0.589442	0.374526	0.895227
	C1789	C	0.572524	0.374873	0.870481
	C1790	C	0.564412	0.463765	0.858875
	C1791	C	0.548815	0.463646	0.835747
	C1792	C	0.540925	0.374706	0.823614
	C1793	C	0.548931	0.285856	0.835527
	C1794	C	0.564534	0.285911	0.858639
	C1795	C	0.524318	0.374105	0.797876
	C1796	C	0.640998	0.375159	0.901399
	C1797	C	0.659460	0.375075	0.886419
	C1798	C	0.668459	0.285308	0.880501
	C1799	C	0.685996	0.285187	0.869089
	C1800	C	0.695011	0.375000	0.863474
	C1801	C	0.685929	0.464667	0.868776
	C1802	C	0.668402	0.464862	0.880137
	C1803	C	0.713778	0.374866	0.850432
	H1804	H	0.692798	0.215449	0.864709
	H1805	H	0.661686	0.215558	0.885028
	H1806	H	0.698586	0.285469	0.968054
	H1807	H	0.665733	0.284724	0.971986
	H1808	H	0.614686	0.125063	0.889636
	H1809	H	0.617488	0.375006	0.989690
	H1810	H	0.489603	0.374726	1.014371
	H1811	H	0.742070	0.125245	0.864452
	H1812	H	0.570606	0.217277	0.867518
	H1813	H	0.542990	0.216907	0.826177
	H1814	H	0.536529	0.283873	1.009045
	H1815	H	0.567592	0.283618	0.988747
	H1816	H	0.542758	0.532418	0.826750
	H1817	H	0.570386	0.532485	0.868005
	H1818	H	0.567847	-0.035153	0.990310
	H1819	H	0.536733	-0.035251	1.010354
	H1820	H	0.666003	-0.035313	0.972822
	H1821	H	0.698763	-0.034893	0.968763
	H1822	H	0.661651	0.534863	0.884397
	H1823	H	0.692692	0.534432	0.864086
	Al1824	Al	0.885019	-0.499590	0.060452
	Al1825	Al	0.884954	-0.250396	0.060497
	Al1826	Al	0.750012	-0.249343	-0.000048
	Al1827	Al	0.750058	-0.499412	0.000006
	O1828	O	0.903929	-0.458667	0.095488
	O1829	O	0.884293	-0.374823	0.036438
	O1830	O	0.885082	-0.124795	0.084535
	O1831	O	0.982206	-0.458842	0.212026
	O1832	O	0.866349	-0.459425	0.093022
	O1833	O	0.778842	-0.458926	0.154497
	O1834	O	0.866233	-0.290928	0.092672
	O1835	O	0.864462	-0.209185	0.028992
	O1836	O	0.770912	-0.208604	0.029419
	O1837	O	0.903957	-0.290534	0.095297
	O1838	O	0.903787	-0.208624	0.029519
	O1839	O	0.991308	-0.208811	-0.032135
	O1840	O	0.778812	-0.290596	0.154183
	O1841	O	0.864564	-0.040892	0.029182
	O1842	O	0.770903	-0.040620	0.029475
	O1843	O	0.991257	-0.040481	-0.032228
	O1844	O	0.903908	-0.040235	0.029630
	O1845	O	0.982254	-0.290551	0.211936
	O1846	O	0.759221	-0.124618	0.161133
	O1847	O	1.010148	-0.375392	-0.040292
	C1848	C	0.951105	-0.285990	0.164621
	C1849	C	0.959065	-0.374785	0.176586
	C1850	C	0.951079	-0.463639	0.164689
	C1851	C	0.935520	-0.463573	0.141461
	C1852	C	0.927490	-0.374606	0.129738
	C1853	C	0.935541	-0.285850	0.141471
	C1854	C	0.910613	-0.374536	0.104793
	C1855	C	0.975658	-0.374719	0.202132
	C1856	C	0.859087	-0.375264	0.098865
	C1857	C	0.840648	-0.375302	0.113705
	C1858	C	0.831605	-0.285300	0.119366
	C1859	C	0.814070	-0.285084	0.130689
	C1860	C	0.805045	-0.374824	0.136526
	C1861	C	0.814127	-0.464654	0.131134
	C1862	C	0.831667	-0.464953	0.119863
	C1863	C	0.786262	-0.374731	0.149503
	C1864	C	0.856568	-0.124793	0.028476
	C1865	C	0.836483	-0.124519	0.027818
	C1866	C	0.826961	-0.034719	0.028891
	C1867	C	0.808414	-0.034816	0.030922
	C1868	C	0.798924	-0.124706	0.031746
	C1869	C	0.808435	-0.214567	0.030687
	C1870	C	0.826969	-0.214380	0.028720
	C1871	C	0.778826	-0.124504	0.030299
	C1872	C	0.911290	-0.124597	0.024670
	C1873	C	0.930057	-0.124551	0.011691
	C1874	C	0.939053	-0.214484	0.005915
	C1875	C	0.956591	-0.214599	-0.005426
	C1876	C	0.965614	-0.124803	-0.011225
	C1877	C	0.956663	-0.035020	-0.004878
	C1878	C	0.939164	-0.034870	0.006479
	C1879	C	0.984091	-0.124706	-0.026188
	H1880	H	0.963386	-0.284490	-0.009968
	H1881	H	0.932226	-0.284150	0.010257
	H1882	H	0.957162	-0.217051	0.173502
	H1883	H	0.929477	-0.217239	0.132339
	H1884	H	0.882970	-0.374687	0.010579
	H1885	H	0.885166	-0.124632	0.110527
	H1886	H	0.757522	-0.124789	0.135200
	H1887	H	1.010235	-0.375881	-0.014259
	H1888	H	0.834090	-0.284713	0.027648
	H1889	H	0.801287	-0.284414	0.031526
	H1890	H	0.807208	-0.215348	0.134763
	H1891	H	0.838389	-0.215421	0.114645
	H1892	H	0.801259	0.035146	0.031785
	H1893	H	0.834125	0.035553	0.028191
	H1894	H	0.838403	-0.535072	0.115470
	H1895	H	0.807293	-0.534187	0.135656
	H1896	H	0.929491	-0.532471	0.132385
	H1897	H	0.957134	-0.532526	0.173690
	H1898	H	0.932382	0.034770	0.011003
	H1899	H	0.963490	0.034784	-0.008964
	Al1900	Al	0.884975	0.000638	0.060587
	Al1901	Al	0.884967	0.249700	0.060431
	Al1902	Al	0.750003	0.250897	0.000102
	Al1903	Al	0.749915	0.000636	-0.000188
	O1904	O	0.903982	0.040429	0.095428
	O1905	O	0.884249	0.124961	0.036425
	O1906	O	0.885146	0.375032	0.084697
	O1907	O	0.982219	0.040759	0.211825
	O1908	O	0.866375	0.041479	0.093163
	O1909	O	0.778835	0.041225	0.154397
	O1910	O	0.866187	0.209783	0.092804
	O1911	O	0.864500	0.291058	0.029024
	O1912	O	0.770932	0.291649	0.029712
	O1913	O	0.903928	0.208738	0.095319
	O1914	O	0.903836	0.290769	0.029514
	O1915	O	0.991339	0.290933	-0.032169
	O1916	O	0.778825	0.209598	0.154495
	O1917	O	0.864568	0.459481	0.029099
	O1918	O	0.770929	0.459935	0.029667
	O1919	O	0.991239	0.459393	-0.032485
	O1920	O	0.903821	0.459291	0.029536
	O1921	O	0.982240	0.209158	0.211811
	O1922	O	0.759212	0.375454	0.161093
	O1923	O	1.010085	0.124857	-0.040487
	C1924	C	0.951035	0.213868	0.164853
	C1925	C	0.959073	0.124984	0.176400
	C1926	C	0.951206	0.035825	0.164390
	C1927	C	0.935601	0.035790	0.141122
	C1928	C	0.927502	0.124665	0.129704
	C1929	C	0.935427	0.213684	0.141612
	C1930	C	0.910616	0.124611	0.104736
	C1931	C	0.975704	0.124913	0.202112
	C1932	C	0.859061	0.125490	0.098889
	C1933	C	0.840571	0.125202	0.113648
	C1934	C	0.831595	0.215044	0.119601
	C1935	C	0.814042	0.215155	0.130853
	C1936	C	0.805025	0.125400	0.136467
	C1937	C	0.814032	0.035336	0.130982
	C1938	C	0.831611	0.035389	0.119760
	C1939	C	0.786218	0.125329	0.149493
	C1940	C	0.856580	0.375434	0.028499
	C1941	C	0.836505	0.375420	0.027641
	C1942	C	0.826970	0.465507	0.028640
	C1943	C	0.808469	0.465286	0.030777
	C1944	C	0.798973	0.375413	0.031808
	C1945	C	0.808516	0.285472	0.030729
	C1946	C	0.827013	0.285529	0.028606
	C1947	C	0.778887	0.375704	0.030587
	C1948	C	0.911255	0.375040	0.024377
	C1949	C	0.930044	0.375051	0.011413
	C1950	C	0.939058	0.285419	0.005700
	C1951	C	0.956621	0.285327	-0.005613
	C1952	C	0.965592	0.374989	-0.011546
	C1953	C	0.956683	0.464713	-0.005367
	C1954	C	0.939126	0.464856	0.006035
	C1955	C	0.984058	0.375211	-0.026488
	H1956	H	0.963334	0.215326	-0.010246
	H1957	H	0.932274	0.215665	0.009906
	H1958	H	0.956924	0.282866	0.174095
	H1959	H	0.929365	0.282688	0.132809
	H1960	H	0.882963	0.125201	0.010816
	H1961	H	0.885057	0.375046	0.110803
	H1962	H	0.757783	0.375092	0.135196
	H1963	H	1.010171	0.125261	-0.014515
	H1964	H	0.834171	0.215584	0.027606
	H1965	H	0.801362	0.215461	0.031419
	H1966	H	0.807281	0.284906	0.135261
	H1967	H	0.838343	0.285038	0.115178
	H1968	H	0.801299	0.535296	0.031436
	H1969	H	0.834100	0.535597	0.027603
	H1970	H	0.838393	-0.034495	0.115349
	H1971	H	0.807241	-0.034350	0.135491
	H1972	H	0.929711	-0.033344	0.131984
	H1973	H	0.957276	-0.033027	0.173195
	H1974	H	0.932361	0.534789	0.010516
	H1975	H	0.963457	0.534706	-0.009861
	Al1976	Al	0.874798	-0.499593	0.374843
	Al1977	Al	0.874866	-0.249666	0.374843
	Al1978	Al	0.759926	-0.249137	0.185175
	Al1979	Al	0.759961	-0.500106	0.185271
	O1980	O	0.892547	-0.459130	0.413010
	O1981	O	0.875694	-0.374702	0.351082
	O1982	O	0.874222	-0.125062	0.398528
	O1983	O	0.971101	-0.458690	0.529173
	O1984	O	0.855227	-0.458651	0.403483
	O1985	O	0.769618	-0.458196	0.471638
	O1986	O	0.855244	-0.290457	0.403591
	O1987	O	0.857121	-0.208617	0.336953
	O1988	O	0.778885	-0.208676	0.220250
	O1989	O	0.892655	-0.290740	0.412711
	O1990	O	0.894548	-0.208960	0.346033
	O1991	O	0.980340	-0.209194	0.278509
	O1992	O	0.769661	-0.289854	0.471816
	O1993	O	0.857253	-0.040364	0.336801
	O1994	O	0.778858	-0.040550	0.220379
	O1995	O	0.980409	-0.040774	0.278686
	O1996	O	0.894650	-0.040626	0.346086
	O1997	O	0.971039	-0.290650	0.529358
	O1998	O	0.750778	-0.124780	0.476584
	O1999	O	0.999288	-0.374808	0.273654
	C2000	C	0.939423	-0.285408	0.483116
	C2001	C	0.947460	-0.374407	0.494903
	C2002	C	0.939363	-0.463458	0.483409
	C2003	C	0.923704	-0.463601	0.460413
	C2004	C	0.915760	-0.374768	0.448380
	C2005	C	0.923771	-0.285590	0.460096
	C2006	C	0.899181	-0.374749	0.422652
	C2007	C	0.964376	-0.374670	0.519708
	C2008	C	0.848060	-0.374624	0.409269
	C2009	C	0.829732	-0.374349	0.424298
	C2010	C	0.821048	-0.285108	0.431267
	C2011	C	0.803889	-0.285200	0.444606
	C2012	C	0.795113	-0.374569	0.451055
	C2013	C	0.803789	-0.463753	0.443946
	C2014	C	0.820949	-0.463537	0.430656
	C2015	C	0.776834	-0.374076	0.466066
	C2016	C	0.850676	-0.124512	0.326987
	C2017	C	0.834073	-0.124535	0.301348
	C2018	C	0.826058	-0.035431	0.289575
	C2019	C	0.810446	-0.035511	0.266499
	C2020	C	0.802424	-0.124643	0.254695
	C2021	C	0.810481	-0.213699	0.266351
	C2022	C	0.826090	-0.213632	0.289432
	C2023	C	0.785517	-0.124688	0.229863
	C2024	C	0.901809	-0.124822	0.340552
	C2025	C	0.920194	-0.124853	0.325769
	C2026	C	0.928896	-0.213787	0.318940
	C2027	C	0.946069	-0.213874	0.305719
	C2028	C	0.954890	-0.124976	0.299306
	C2029	C	0.946197	-0.036065	0.306118
	C2030	C	0.929004	-0.035868	0.319275
	C2031	C	0.973149	-0.124871	0.284205
	H2032	H	0.952604	-0.282526	0.300143
	H2033	H	0.922160	-0.282365	0.324051
	H2034	H	0.945502	-0.216308	0.491905
	H2035	H	0.917746	-0.216784	0.450952
	H2036	H	0.877004	-0.374796	0.325601
	H2037	H	0.873428	-0.124930	0.424173
	H2038	H	0.751873	-0.124990	0.451027
	H2039	H	0.998538	-0.374993	0.299521
	H2040	H	0.832135	-0.282595	0.298462
	H2041	H	0.804432	-0.282771	0.257305
	H2042	H	0.797203	-0.216707	0.450198
	H2043	H	0.827774	-0.216040	0.426080
	H2044	H	0.804395	0.033620	0.257540
	H2045	H	0.832064	0.033561	0.298688
	H2046	H	0.827594	-0.532671	0.425251
	H2047	H	0.797159	-0.532897	0.448936
	H2048	H	0.917660	-0.532627	0.451539
	H2049	H	0.945430	-0.532641	0.492447
	H2050	H	0.922369	0.033009	0.324633
	H2051	H	0.952881	0.032660	0.300833
	Al2052	Al	0.875010	0.000287	0.374814
	Al2053	Al	0.874890	0.250173	0.374893
	Al2054	Al	0.759870	0.250859	0.185045
	Al2055	Al	0.759986	-0.000033	0.185376
	O2056	O	0.892732	0.041192	0.412865
	O2057	O	0.875711	0.125107	0.350957
	O2058	O	0.874184	0.375526	0.398576
	O2059	O	0.970930	0.041049	0.529733
	O2060	O	0.855299	0.040575	0.403364
	O2061	O	0.769650	0.040852	0.471467
	O2062	O	0.855410	0.209107	0.403771
	O2063	O	0.857216	0.291150	0.336880
	O2064	O	0.778815	0.291547	0.219953
	O2065	O	0.892655	0.209421	0.412853
	O2066	O	0.894597	0.291490	0.346380
	O2067	O	0.980266	0.291045	0.278590
	O2068	O	0.769755	0.209075	0.471753
	O2069	O	0.857162	0.459518	0.336686
	O2070	O	0.778933	0.459643	0.219990
	O2071	O	0.980261	0.459584	0.278621
	O2072	O	0.894576	0.459719	0.346548
	O2073	O	0.971102	0.209136	0.529199
	O2074	O	0.750863	0.375358	0.476342
	O2075	O	0.999174	0.125183	0.273597
	C2076	C	0.939455	0.214170	0.483255
	C2077	C	0.947459	0.125047	0.495042
	C2078	C	0.939436	0.035967	0.483312
	C2079	C	0.923822	0.035689	0.460211
	C2080	C	0.915852	0.125024	0.448336
	C2081	C	0.923853	0.214095	0.460127
	C2082	C	0.899180	0.125160	0.422673
	C2083	C	0.964295	0.125260	0.519961
	C2084	C	0.848153	0.125031	0.409255
	C2085	C	0.829862	0.124915	0.424292
	C2086	C	0.821171	0.214079	0.431355
	C2087	C	0.804031	0.214040	0.444639
	C2088	C	0.795245	0.124774	0.450983
	C2089	C	0.803899	0.035712	0.443763
	C2090	C	0.821034	0.035740	0.430449
	C2091	C	0.776881	0.124907	0.465985
	C2092	C	0.850654	0.375289	0.326910
	C2093	C	0.834005	0.375243	0.301274
	C2094	C	0.826077	0.464410	0.289471
	C2095	C	0.810483	0.464578	0.266183
	C2096	C	0.802471	0.375484	0.254331
	C2097	C	0.810416	0.286433	0.266155
	C2098	C	0.826007	0.286281	0.289411
	C2099	C	0.785586	0.375539	0.229428
	C2100	C	0.901785	0.375654	0.340827
	C2101	C	0.920037	0.375925	0.325601
	C2102	C	0.928684	0.286765	0.318678
	C2103	C	0.945879	0.286528	0.305492
	C2104	C	0.954712	0.375505	0.299123
	C2105	C	0.946061	0.464758	0.306071
	C2106	C	0.928871	0.464908	0.319226
	C2107	C	0.973078	0.375411	0.284219
	H2108	H	0.952413	0.217737	0.299973
	H2109	H	0.921985	0.218100	0.324018
	H2110	H	0.945485	0.283274	0.492251
	H2111	H	0.917845	0.282974	0.451075
	H2112	H	0.876573	0.124762	0.325221
	H2113	H	0.873717	0.375548	0.424454
	H2114	H	0.751746	0.374896	0.450542
	H2115	H	0.998502	0.125193	0.299234
	H2116	H	0.831968	0.216842	0.298487
	H2117	H	0.804391	0.217241	0.257157
	H2118	H	0.797415	0.282907	0.450243
	H2119	H	0.827887	0.282782	0.426291
	H2120	H	0.804519	0.533756	0.257220
	H2121	H	0.832150	0.533707	0.298445
	H2122	H	0.827610	-0.033196	0.424663
	H2123	H	0.797108	-0.033157	0.448635
	H2124	H	0.917771	-0.033343	0.451245
	H2125	H	0.945436	-0.033085	0.492443
	H2126	H	0.922325	0.533685	0.324859
	H2127	H	0.952785	0.533487	0.300911
	Al2128	Al	0.865040	-0.499757	0.690087
	Al2129	Al	0.865091	-0.248704	0.689532
	Al2130	Al	0.749908	-0.249469	0.500497
	Al2131	Al	0.750021	-0.499798	0.500192
	O2132	O	0.885439	-0.458212	0.721545
	O2133	O	0.864970	-0.374446	0.665722
	O2134	O	0.865701	-0.124528	0.713683
	O2135	O	0.979058	-0.458732	0.720982
	O2136	O	0.846255	-0.458156	0.721053
	O2137	O	0.758692	-0.458764	0.782085
	O2138	O	0.846152	-0.289865	0.720582
	O2139	O	0.846122	-0.208664	0.654604
	O2140	O	0.767635	-0.208890	0.538562
	O2141	O	0.885487	-0.289697	0.721074
	O2142	O	0.883681	-0.208267	0.657036
	O2143	O	0.971169	-0.209016	0.595542
	O2144	O	0.758762	-0.290344	0.782306
	O2145	O	0.846189	-0.040621	0.654598
	O2146	O	0.767615	-0.040594	0.538447
	O2147	O	0.971207	-0.040489	0.595698
	O2148	O	0.883817	-0.039772	0.657330
	O2149	O	0.979090	-0.290400	0.720994
	O2150	O	0.739961	-0.125021	0.790411
	O2151	O	0.990669	-0.374644	0.588326
	C2152	C	0.941526	-0.284400	0.719552
	C2153	C	0.951035	-0.374379	0.718514
	C2154	C	0.941477	-0.464264	0.719110
	C2155	C	0.922940	-0.464051	0.721167
	C2156	C	0.913469	-0.374076	0.722466
	C2157	C	0.923005	-0.284130	0.721573
	C2158	C	0.893387	-0.373973	0.721868
	C2159	C	0.971122	-0.374468	0.720002
	C2160	C	0.838786	-0.374110	0.725681
	C2161	C	0.819948	-0.374195	0.738433
	C2162	C	0.810835	-0.284439	0.743632
	C2163	C	0.793299	-0.284458	0.754905
	C2164	C	0.784393	-0.374254	0.761250
	C2165	C	0.793377	-0.464018	0.755233
	C2166	C	0.810939	-0.463957	0.744014
	C2167	C	0.765924	-0.374557	0.776195
	C2168	C	0.839414	-0.124448	0.645191
	C2169	C	0.822483	-0.124539	0.620573
	C2170	C	0.814422	-0.035489	0.609014
	C2171	C	0.798762	-0.035665	0.585993
	C2172	C	0.790793	-0.124575	0.574017
	C2173	C	0.798842	-0.213606	0.585689
	C2174	C	0.814477	-0.213535	0.608742
	C2175	C	0.774143	-0.124755	0.548496
	C2176	C	0.890924	-0.124169	0.651206
	C2177	C	0.909459	-0.124220	0.636493
	C2178	C	0.918379	-0.214149	0.630261
	C2179	C	0.935925	-0.214340	0.618921
	C2180	C	0.944950	-0.124512	0.613511
	C2181	C	0.935926	-0.034503	0.618939
	C2182	C	0.918392	-0.034306	0.630283
	C2183	C	0.963776	-0.124752	0.600548
	H2184	H	0.942781	-0.284138	0.614410
	H2185	H	0.911607	-0.283971	0.634619
	H2186	H	0.948728	-0.214511	0.719008
	H2187	H	0.915916	-0.213853	0.722711
	H2188	H	0.865042	-0.374570	0.639604
	H2189	H	0.866988	-0.124581	0.739582
	H2190	H	0.739910	-0.124936	0.764266
	H2191	H	0.992199	-0.374777	0.614110
	H2192	H	0.820508	-0.282546	0.617724
	H2193	H	0.792844	-0.282667	0.576644
	H2194	H	0.786479	-0.214918	0.759360
	H2195	H	0.817618	-0.214560	0.739101
	H2196	H	0.792710	0.033232	0.577040
	H2197	H	0.820433	0.033473	0.618178
	H2198	H	0.817820	-0.533566	0.739782
	H2199	H	0.786689	-0.533856	0.759823
	H2200	H	0.915768	-0.534223	0.722003
	H2201	H	0.948562	-0.534454	0.718242
	H2202	H	0.911583	0.035424	0.634679
	H2203	H	0.942690	0.035034	0.614370
	Al2204	Al	0.865022	0.000177	0.689577
	Al2205	Al	0.865048	0.251008	0.690034
	Al2206	Al	0.750115	0.250586	0.500338
	Al2207	Al	0.749995	0.000469	0.500257
	O2208	O	0.885522	0.040824	0.721096
	O2209	O	0.865033	0.125613	0.665665
	O2210	O	0.865739	0.375516	0.714067
	O2211	O	0.979097	0.040477	0.720862
	O2212	O	0.846108	0.041059	0.720472
	O2213	O	0.758597	0.040745	0.781875
	O2214	O	0.846207	0.209343	0.720978
	O2215	O	0.846155	0.291589	0.655223
	O2216	O	0.767857	0.291313	0.538048
	O2217	O	0.885570	0.209368	0.721335
	O2218	O	0.883805	0.291080	0.657494
	O2219	O	0.970956	0.291218	0.594832
	O2220	O	0.758631	0.209121	0.781956
	O2221	O	0.846121	0.459728	0.655197
	O2222	O	0.767888	0.459537	0.538161
	O2223	O	0.971030	0.459577	0.594967
	O2224	O	0.883791	0.459374	0.657714
	O2225	O	0.979098	0.208770	0.720726
	O2226	O	0.739974	0.375259	0.790379
	O2227	O	0.990625	0.125489	0.588429
	C2228	C	0.941594	0.214723	0.719262
	C2229	C	0.951059	0.124537	0.718421
	C2230	C	0.941518	0.034512	0.719212
	C2231	C	0.922998	0.034650	0.721302
	C2232	C	0.913539	0.124815	0.722520
	C2233	C	0.923069	0.214716	0.721304
	C2234	C	0.893444	0.125017	0.721773
	C2235	C	0.971195	0.124621	0.719933
	C2236	C	0.838738	0.125220	0.725720
	C2237	C	0.819965	0.125114	0.738794
	C2238	C	0.810930	0.214930	0.744199
	C2239	C	0.793365	0.215088	0.755466
	C2240	C	0.784370	0.125168	0.761476
	C2241	C	0.793295	0.035340	0.755242
	C2242	C	0.810862	0.035306	0.744063
	C2243	C	0.765864	0.124971	0.776145
	C2244	C	0.839482	0.375688	0.645590
	C2245	C	0.822576	0.375448	0.620631
	C2246	C	0.814552	0.464317	0.608825
	C2247	C	0.798943	0.464313	0.585618
	C2248	C	0.791023	0.375281	0.573664
	C2249	C	0.799002	0.286196	0.585475
	C2250	C	0.814616	0.286336	0.608748
	C2251	C	0.774441	0.375320	0.547993
	C2252	C	0.890988	0.375237	0.651665
	C2253	C	0.909413	0.375169	0.636544
	C2254	C	0.918410	0.285396	0.630438
	C2255	C	0.935892	0.285525	0.618779
	C2256	C	0.944872	0.375469	0.613092
	C2257	C	0.935840	0.465175	0.618913
	C2258	C	0.918353	0.465105	0.630570
	C2259	C	0.963622	0.375487	0.599838
	H2260	H	0.942632	0.215793	0.614240
	H2261	H	0.911641	0.215355	0.635087
	H2262	H	0.948717	0.284935	0.718463
	H2263	H	0.915890	0.284652	0.722080
	H2264	H	0.865580	0.126283	0.639587
	H2265	H	0.867054	0.375718	0.739983
	H2266	H	0.740095	0.375038	0.764295
	H2267	H	0.991679	0.125637	0.614095
	H2268	H	0.820624	0.217122	0.617772
	H2269	H	0.793068	0.217092	0.576218
	H2270	H	0.786608	0.285055	0.759845
	H2271	H	0.817790	0.284521	0.739767
	H2272	H	0.792975	0.533543	0.576594
	H2273	H	0.820542	0.533289	0.617807
	H2274	H	0.817636	-0.034697	0.739630
	H2275	H	0.786460	-0.034330	0.759670
	H2276	H	0.915837	-0.035498	0.722131
	H2277	H	0.948670	-0.035541	0.718329
	H2278	H	0.911616	0.535004	0.635281
	H2279	H	0.942659	0.534837	0.614393
	Al2280	Al	0.875033	-0.499216	0.875037
	Al2281	Al	0.874972	-0.249267	0.875082
	Al2282	Al	0.740010	-0.250048	0.814697
	Al2283	Al	0.740005	-0.499005	0.814497
	O2284	O	0.895899	-0.458117	0.904840
	O2285	O	0.873837	-0.374357	0.850814
	O2286	O	0.876144	-0.124282	0.899205
	O2287	O	0.989589	-0.459010	0.903898
	O2288	O	0.856883	-0.458418	0.908718
	O2289	O	0.768261	-0.458832	0.966377
	O2290	O	0.856866	-0.290124	0.908695
	O2291	O	0.854022	-0.208378	0.845482
	O2292	O	0.760517	-0.209022	0.846254
	O2293	O	0.895937	-0.289993	0.904570
	O2294	O	0.893115	-0.208559	0.841302
	O2295	O	0.981895	-0.208882	0.783929
	O2296	O	0.768200	-0.290308	0.966283
	O2297	O	0.854020	-0.040193	0.845575
	O2298	O	0.760476	-0.040567	0.846017
	O2299	O	0.981949	-0.040882	0.784144
	O2300	O	0.893143	-0.040046	0.841230
	O2301	O	0.989590	-0.290708	0.904135
	O2302	O	0.748908	-0.124522	0.975650
	O2303	O	1.001101	-0.374711	0.774526
	C2304	C	0.952027	-0.284780	0.903538
	C2305	C	0.961545	-0.374631	0.902557
	C2306	C	0.952003	-0.464537	0.903977
	C2307	C	0.933445	-0.464367	0.906012
	C2308	C	0.923954	-0.374379	0.906599
	C2309	C	0.933496	-0.284491	0.905582
	C2310	C	0.903873	-0.374075	0.905530
	C2311	C	0.981620	-0.374820	0.903384
	C2312	C	0.849496	-0.374248	0.914201
	C2313	C	0.830601	-0.374355	0.927655
	C2314	C	0.821419	-0.284458	0.932690
	C2315	C	0.803611	-0.284510	0.942424
	C2316	C	0.794494	-0.374322	0.947595
	C2317	C	0.803614	-0.464068	0.942400
	C2318	C	0.821430	-0.464062	0.932676
	C2319	C	0.775613	-0.374495	0.960926
	C2320	C	0.846069	-0.124280	0.844791
	C2321	C	0.825968	-0.124440	0.843377
	C2322	C	0.816431	-0.034464	0.844143
	C2323	C	0.797927	-0.034628	0.846240
	C2324	C	0.788469	-0.124736	0.847473
	C2325	C	0.797977	-0.214666	0.846135
	C2326	C	0.816481	-0.214578	0.844073
	C2327	C	0.768437	-0.124632	0.846677
	C2328	C	0.900526	-0.124370	0.836013
	C2329	C	0.919420	-0.124723	0.822759
	C2330	C	0.928562	-0.214567	0.817481
	C2331	C	0.946414	-0.214760	0.807729
	C2332	C	0.955621	-0.124880	0.802750
	C2333	C	0.946477	-0.035032	0.808040
	C2334	C	0.928619	-0.034893	0.817706
	C2335	C	0.974541	-0.124872	0.789511
	H2336	H	0.953188	-0.285134	0.803814
	H2337	H	0.921633	-0.284615	0.820744
	H2338	H	0.959148	-0.214404	0.902491
	H2339	H	0.926367	-0.214058	0.906238
	H2340	H	0.872069	-0.373962	0.824967
	H2341	H	0.877685	-0.124026	0.925149
	H2342	H	0.747772	-0.124655	0.949864
	H2343	H	1.002387	-0.374703	0.800511
	H2344	H	0.823614	-0.284550	0.843133
	H2345	H	0.790825	-0.284698	0.846782
	H2346	H	0.796672	-0.214400	0.945932
	H2347	H	0.828245	-0.213954	0.928807
	H2348	H	0.790750	0.035477	0.847083
	H2349	H	0.823588	0.035495	0.843324
	H2350	H	0.828249	-0.534166	0.928846
	H2351	H	0.796767	-0.534348	0.945918
	H2352	H	0.926279	-0.534290	0.906907
	H2353	H	0.959113	-0.534845	0.903204
	H2354	H	0.921756	0.035533	0.821231
	H2355	H	0.953362	0.035351	0.804352
	Al2356	Al	0.874997	0.000607	0.874966
	Al2357	Al	0.875051	0.250804	0.875084
	Al2358	Al	0.739957	0.249678	0.814443
	Al2359	Al	0.739986	0.000784	0.814634
	O2360	O	0.895922	0.041446	0.904529
	O2361	O	0.873889	0.125985	0.850882
	O2362	O	0.876098	0.375725	0.899434
	O2363	O	0.989474	0.040721	0.904033
	O2364	O	0.856828	0.041748	0.908528
	O2365	O	0.768164	0.041277	0.966470
	O2366	O	0.856851	0.209978	0.908643
	O2367	O	0.854100	0.291793	0.845524
	O2368	O	0.760455	0.291268	0.845984
	O2369	O	0.895929	0.209766	0.904654
	O2370	O	0.893207	0.291416	0.841521
	O2371	O	0.981828	0.290726	0.783558
	O2372	O	0.768134	0.209476	0.966315
	O2373	O	0.854010	0.459818	0.845311
	O2374	O	0.760461	0.459570	0.845991
	O2375	O	0.981971	0.459024	0.783985
	O2376	O	0.893348	0.459869	0.841883
	O2377	O	0.989495	0.209039	0.903998
	O2378	O	0.748838	0.375850	0.975813
	O2379	O	1.001100	0.125217	0.774527
	C2380	C	0.951999	0.215064	0.903576
	C2381	C	0.961483	0.125061	0.902586
	C2382	C	0.951957	0.035179	0.904008
	C2383	C	0.933443	0.035374	0.906127
	C2384	C	0.923924	0.125446	0.906725
	C2385	C	0.933476	0.215300	0.905636
	C2386	C	0.903842	0.125552	0.905293
	C2387	C	0.981557	0.124817	0.903459
	C2388	C	0.849434	0.125836	0.914004
	C2389	C	0.830595	0.125628	0.927417
	C2390	C	0.821357	0.215304	0.932453
	C2391	C	0.803571	0.215202	0.942381
	C2392	C	0.794429	0.125284	0.947830
	C2393	C	0.803627	0.035383	0.942708
	C2394	C	0.821439	0.035633	0.932803
	C2395	C	0.775539	0.125326	0.961048
	C2396	C	0.846127	0.375617	0.844605
	C2397	C	0.826031	0.375370	0.843312
	C2398	C	0.816502	0.465239	0.844057
	C2399	C	0.797979	0.465149	0.846085
	C2400	C	0.788475	0.375283	0.847281
	C2401	C	0.797986	0.285378	0.846260
	C2402	C	0.816524	0.285412	0.844251
	C2403	C	0.768388	0.375291	0.846402
	C2404	C	0.900628	0.375541	0.836231
	C2405	C	0.919528	0.375313	0.822793
	C2406	C	0.928642	0.285250	0.817406
	C2407	C	0.946430	0.285325	0.807446
	C2408	C	0.955624	0.375202	0.802385
	C2409	C	0.946482	0.465214	0.807741
	C2410	C	0.928695	0.465287	0.817688
	C2411	C	0.974513	0.374971	0.789081
	H2412	H	0.953276	0.215168	0.803471
	H2413	H	0.921801	0.214908	0.821085
	H2414	H	0.959175	0.284935	0.902656
	H2415	H	0.926332	0.285571	0.906316
	H2416	H	0.872212	0.125808	0.825036
	H2417	H	0.877454	0.375547	0.925520
	H2418	H	0.747225	0.375702	0.949976
	H2419	H	1.002387	0.125225	0.800443
	H2420	H	0.823712	0.215394	0.843601
	H2421	H	0.790893	0.215215	0.847317
	H2422	H	0.796707	0.285427	0.946047
	H2423	H	0.828185	0.285675	0.928669
	H2424	H	0.790864	0.535203	0.847068
	H2425	H	0.823637	0.535262	0.843342
	H2426	H	0.828344	-0.034496	0.929285
	H2427	H	0.796797	-0.034538	0.946696
	H2428	H	0.926284	-0.034622	0.907125
	H2429	H	0.959078	-0.034801	0.903468
	H2430	H	0.921846	0.535414	0.821634
	H2431	H	0.953314	0.535396	0.803993
