data_Molecule from HDF5

_cell_length_a		71.923670
_cell_length_b		13.352615
_cell_length_c		41.690866
_cell_angle_alpha	89.987329
_cell_angle_beta	92.439828
_cell_angle_gamma	89.999306
_symmetry_space_group_name_H-M	'P 1'
_symmetry_Int_Tables_number		1

loop_
	_symmetry_equiv_pos_as_xyz
	x,y,z

loop_
	_atom_site_label
	_atom_site_type_symbol
	_atom_site_fract_x
	_atom_site_fract_y
	_atom_site_fract_z
	Al0	Al	0.130666	-0.500196	0.101708
	Al1	Al	0.130654	-0.250064	0.101742
	Al2	Al	0.007460	-0.249862	-0.047634
	Al3	Al	0.007455	-0.500699	-0.047429
	O4	O	0.149079	-0.458906	0.133560
	O5	O	0.131152	-0.375015	0.081598
	O6	O	0.129977	-0.125168	0.121708
	O7	O	0.226210	-0.459032	0.241455
	O8	O	0.110574	-0.459430	0.127378
	O9	O	0.025421	-0.459357	0.200547
	O10	O	0.110690	-0.291262	0.127433
	O11	O	0.111729	-0.209605	0.070654
	O12	O	0.027809	-0.209380	-0.019950
	O13	O	0.149108	-0.290518	0.133660
	O14	O	0.150489	-0.209179	0.075755
	O15	O	0.235665	-0.209306	0.002689
	O16	O	0.025402	-0.290910	0.200505
	O17	O	0.111765	-0.041385	0.070438
	O18	O	0.027794	-0.041487	-0.019952
	O19	O	0.235670	-0.040987	0.002871
	O20	O	0.150566	-0.040972	0.075927
	O21	O	0.226084	-0.290911	0.241552
	O22	O	0.005981	-0.125148	0.206340
	O23	O	0.255046	-0.375148	-0.003018
	C24	C	0.195249	-0.285831	0.198360
	C25	C	0.203117	-0.375067	0.209322
	C26	C	0.195263	-0.464237	0.198376
	C27	C	0.179941	-0.464165	0.176898
	C28	C	0.172058	-0.375025	0.165943
	C29	C	0.179917	-0.285842	0.176881
	C30	C	0.155583	-0.374923	0.142513
	C31	C	0.219612	-0.375041	0.232642
	C32	C	0.103437	-0.375308	0.133360
	C33	C	0.085157	-0.375183	0.149112
	C34	C	0.076440	-0.286125	0.156447
	C35	C	0.059424	-0.285990	0.170929
	C36	C	0.050747	-0.375089	0.178330
	C37	C	0.059500	-0.464062	0.171119
	C38	C	0.076524	-0.464275	0.156604
	C39	C	0.032593	-0.375179	0.194397
	C40	C	0.104692	-0.125510	0.062842
	C41	C	0.086948	-0.125556	0.042857
	C42	C	0.078334	-0.036423	0.033802
	C43	C	0.061618	-0.036168	0.015860
	C44	C	0.053041	-0.125293	0.006616
	C45	C	0.061686	-0.214362	0.015570
	C46	C	0.078391	-0.214578	0.033513
	C47	C	0.034971	-0.125379	-0.012519
	C48	C	0.157650	-0.125029	0.069763
	C49	C	0.175812	-0.125176	0.053657
	C50	C	0.184460	-0.214382	0.046244
	C51	C	0.201452	-0.214420	0.031780
	C52	C	0.210215	-0.125363	0.024536
	C53	C	0.201550	-0.036177	0.031859
	C54	C	0.184550	-0.036116	0.046330
	C55	C	0.228486	-0.125294	0.008756
	H56	H	0.208022	-0.283226	0.026043
	H57	H	0.177833	-0.283084	0.051957
	H58	H	0.201140	-0.216779	0.206772
	H59	H	0.174001	-0.216902	0.168468
	H60	H	0.131238	-0.375123	0.059777
	H61	H	0.129199	-0.125322	0.143699
	H62	H	0.006172	-0.124304	0.184450
	H63	H	0.254439	-0.374836	0.018940
	H64	H	0.084827	-0.284053	0.040497
	H65	H	0.055138	-0.283227	0.008594
	H66	H	0.052850	-0.216816	0.176659
	H67	H	0.083023	-0.217368	0.150726
	H68	H	0.055020	0.032829	0.009164
	H69	H	0.084732	0.032478	0.041042
	H70	H	0.083155	-0.533062	0.151071
	H71	H	0.052974	-0.532995	0.177031
	H72	H	0.174053	-0.533413	0.168605
	H73	H	0.201139	-0.533166	0.206797
	H74	H	0.177982	0.032609	0.052153
	H75	H	0.208168	0.032570	0.026064
	Al76	Al	0.130725	-0.000266	0.101599
	Al77	Al	0.130684	0.249857	0.101720
	Al78	Al	0.007455	0.250500	-0.047408
	Al79	Al	0.007373	-0.000759	-0.047646
	O80	O	0.149093	0.040717	0.133645
	O81	O	0.131094	0.124736	0.081506
	O82	O	0.130125	0.374918	0.121850
	O83	O	0.226137	0.040927	0.241611
	O84	O	0.110643	0.040646	0.127310
	O85	O	0.025449	0.040646	0.200574
	O86	O	0.110612	0.209151	0.127178
	O87	O	0.111835	0.291009	0.070448
	O88	O	0.027840	0.291054	-0.019698
	O89	O	0.149048	0.208860	0.133686
	O90	O	0.150568	0.290533	0.075830
	O91	O	0.235654	0.290668	0.002628
	O92	O	0.025479	0.209000	0.200626
	O93	O	0.111800	0.459300	0.070523
	O94	O	0.027852	0.459132	-0.019562
	O95	O	0.235650	0.459018	0.002636
	O96	O	0.150525	0.458758	0.075777
	O97	O	0.226137	0.208818	0.241571
	O98	O	0.006018	0.374651	0.206281
	O99	O	0.255167	0.125126	-0.002966
	C100	C	0.195218	0.213901	0.198399
	C101	C	0.203088	0.124837	0.209392
	C102	C	0.195203	0.035809	0.198364
	C103	C	0.179857	0.035719	0.176915
	C104	C	0.172018	0.124815	0.165976
	C105	C	0.179890	0.213902	0.176962
	C106	C	0.155609	0.124939	0.142583
	C107	C	0.219621	0.124709	0.232686
	C108	C	0.103486	0.124849	0.133231
	C109	C	0.085254	0.124895	0.149280
	C110	C	0.076523	0.214235	0.156561
	C111	C	0.059474	0.214291	0.171048
	C112	C	0.050835	0.124866	0.178460
	C113	C	0.059542	0.035592	0.171072
	C114	C	0.076562	0.035378	0.156552
	C115	C	0.032624	0.124894	0.194524
	C116	C	0.104812	0.375063	0.062778
	C117	C	0.087022	0.374919	0.042835
	C118	C	0.078530	0.463918	0.033573
	C119	C	0.061764	0.464029	0.015741
	C120	C	0.053102	0.374982	0.006837
	C121	C	0.061707	0.285954	0.015751
	C122	C	0.078486	0.285763	0.033586
	C123	C	0.035028	0.375001	-0.012387
	C124	C	0.157698	0.374744	0.069697
	C125	C	0.175849	0.375064	0.053524
	C126	C	0.184504	0.285890	0.046113
	C127	C	0.201518	0.285728	0.031585
	C128	C	0.210224	0.374832	0.024428
	C129	C	0.201554	0.464068	0.031767
	C130	C	0.184547	0.464169	0.046304
	C131	C	0.228442	0.374735	0.008544
	H132	H	0.208085	0.216674	0.025719
	H133	H	0.177893	0.216745	0.051677
	H134	H	0.201178	0.283097	0.206816
	H135	H	0.174013	0.283339	0.168553
	H136	H	0.131234	0.124907	0.059541
	H137	H	0.129132	0.375062	0.143717
	H138	H	0.006395	0.374911	0.184433
	H139	H	0.254564	0.124984	0.018829
	H140	H	0.084968	0.216576	0.040554
	H141	H	0.055276	0.216845	0.008625
	H142	H	0.052850	0.283305	0.176696
	H143	H	0.083066	0.283529	0.150735
	H144	H	0.055413	0.533132	0.008531
	H145	H	0.085049	0.533234	0.040457
	H146	H	0.083152	-0.033703	0.150716
	H147	H	0.052961	-0.033624	0.176807
	H148	H	0.173931	-0.033420	0.168508
	H149	H	0.201129	-0.033102	0.206657
	H150	H	0.177956	0.533298	0.052135
	H151	H	0.208152	0.533032	0.026200
	Al152	Al	0.119574	-0.500188	0.398125
	Al153	Al	0.119483	-0.249590	0.397905
	Al154	Al	0.005508	-0.250013	0.226293
	Al155	Al	0.005556	-0.500199	0.226303
	O156	O	0.138295	-0.458849	0.429207
	O157	O	0.120022	-0.374963	0.377879
	O158	O	0.119056	-0.124986	0.418020
	O159	O	0.222183	-0.458787	0.519930
	O160	O	0.099600	-0.459177	0.423929
	O161	O	0.014509	-0.458853	0.497451
	O162	O	0.099576	-0.290757	0.423797
	O163	O	0.101107	-0.208918	0.365917
	O164	O	0.023945	-0.209332	0.258401
	O165	O	0.138318	-0.290657	0.429279
	O166	O	0.139394	-0.208750	0.372380
	O167	O	0.224614	-0.209379	0.298994
	O168	O	0.014529	-0.290447	0.497447
	O169	O	0.100929	-0.040766	0.366263
	O170	O	0.023934	-0.041151	0.258311
	O171	O	0.224612	-0.040715	0.299267
	O172	O	0.139475	-0.040639	0.372315
	O173	O	0.222113	-0.290806	0.520077
	O174	O	-0.005043	-0.124676	0.503104
	O175	O	0.244185	-0.375092	0.293475
	C176	C	0.188320	-0.286354	0.484493
	C177	C	0.196899	-0.375363	0.493465
	C178	C	0.188271	-0.464398	0.484402
	C179	C	0.171570	-0.464350	0.466371
	C180	C	0.163053	-0.375144	0.457182
	C181	C	0.171611	-0.286209	0.466455
	C182	C	0.145278	-0.374889	0.436981
	C183	C	0.214956	-0.374839	0.512735
	C184	C	0.092449	-0.374915	0.429961
	C185	C	0.074298	-0.374891	0.446143
	C186	C	0.065565	-0.285678	0.453372
	C187	C	0.048576	-0.285707	0.467921
	C188	C	0.039885	-0.374877	0.475304
	C189	C	0.048598	-0.464216	0.468018
	C190	C	0.065584	-0.464118	0.453480
	C191	C	0.021714	-0.374704	0.491479
	C192	C	0.094511	-0.124826	0.357177
	C193	C	0.077945	-0.125018	0.333996
	C194	C	0.070021	-0.036135	0.323198
	C195	C	0.054685	-0.036183	0.301707
	C196	C	0.046879	-0.125254	0.290670
	C197	C	0.054742	-0.214191	0.301587
	C198	C	0.070089	-0.214066	0.323048
	C199	C	0.030456	-0.125267	0.267336
	C200	C	0.146674	-0.124767	0.366353
	C201	C	0.164929	-0.125141	0.350527
	C202	C	0.173625	-0.214269	0.343160
	C203	C	0.190603	-0.214532	0.328578
	C204	C	0.199289	-0.125344	0.321186
	C205	C	0.190679	-0.036318	0.328718
	C206	C	0.173677	-0.036110	0.343273
	C207	C	0.217461	-0.125159	0.305169
	H208	H	0.197112	-0.283658	0.322817
	H209	H	0.167034	-0.283142	0.348961
	H210	H	0.194742	-0.217321	0.491661
	H211	H	0.165231	-0.216961	0.459402
	H212	H	0.120518	-0.375296	0.356054
	H213	H	0.119132	-0.124287	0.439942
	H214	H	-0.004186	-0.125291	0.481179
	H215	H	0.244016	-0.375442	0.315298
	H216	H	0.076046	-0.283031	0.331299
	H217	H	0.048847	-0.283196	0.293151
	H218	H	0.041987	-0.216904	0.473684
	H219	H	0.072144	-0.216916	0.447610
	H220	H	0.048784	0.032851	0.293379
	H221	H	0.075930	0.033063	0.331617
	H222	H	0.072237	-0.533180	0.447828
	H223	H	0.042069	-0.533103	0.473777
	H224	H	0.165146	-0.533394	0.459363
	H225	H	0.194663	-0.533524	0.491591
	H226	H	0.167124	0.032626	0.349220
	H227	H	0.197345	0.032643	0.322999
	Al228	Al	0.119477	-0.000050	0.398070
	Al229	Al	0.119429	0.250279	0.398081
	Al230	Al	0.005574	0.249913	0.226524
	Al231	Al	0.005575	-0.000230	0.226381
	O232	O	0.138394	0.040510	0.429116
	O233	O	0.120034	0.125265	0.377918
	O234	O	0.119021	0.374948	0.418194
	O235	O	0.222140	0.040700	0.519882
	O236	O	0.099597	0.040363	0.424110
	O237	O	0.014427	0.040435	0.497432
	O238	O	0.099541	0.208819	0.423954
	O239	O	0.101066	0.290964	0.366137
	O240	O	0.024019	0.290663	0.258244
	O241	O	0.138307	0.208910	0.429064
	O242	O	0.139440	0.290940	0.372401
	O243	O	0.224716	0.290700	0.299216
	O244	O	0.014430	0.208605	0.497411
	O245	O	0.101046	0.459087	0.366114
	O246	O	0.023957	0.458841	0.258240
	O247	O	0.224643	0.459115	0.299033
	O248	O	0.139505	0.459321	0.372464
	O249	O	0.222146	0.208700	0.519989
	O250	O	-0.004859	0.375243	0.503142
	O251	O	0.244147	0.124969	0.293550
	C252	C	0.188214	0.213544	0.484475
	C253	C	0.196859	0.124591	0.493526
	C254	C	0.188226	0.035697	0.484460
	C255	C	0.171523	0.035692	0.466481
	C256	C	0.162948	0.124661	0.457257
	C257	C	0.171521	0.213542	0.466484
	C258	C	0.145306	0.124657	0.436895
	C259	C	0.214947	0.124764	0.512720
	C260	C	0.092381	0.124596	0.430066
	C261	C	0.074214	0.124659	0.446206
	C262	C	0.065447	0.213638	0.453352
	C263	C	0.048460	0.213495	0.467892
	C264	C	0.039814	0.124429	0.475349
	C265	C	0.048576	0.035451	0.468248
	C266	C	0.065599	0.035517	0.453712
	C267	C	0.021615	0.124474	0.491473
	C268	C	0.094522	0.374861	0.357242
	C269	C	0.078023	0.374971	0.334072
	C270	C	0.070208	0.464120	0.323009
	C271	C	0.054878	0.464122	0.301557
	C272	C	0.046951	0.375015	0.290614
	C273	C	0.054846	0.285846	0.301536
	C274	C	0.070149	0.285910	0.323007
	C275	C	0.030453	0.374774	0.267276
	C276	C	0.146659	0.375175	0.366409
	C277	C	0.164899	0.374863	0.350458
	C278	C	0.173586	0.285653	0.343074
	C279	C	0.190626	0.285632	0.328643
	C280	C	0.199363	0.374717	0.321365
	C281	C	0.190634	0.464008	0.328483
	C282	C	0.173607	0.464037	0.342982
	C283	C	0.217527	0.374871	0.305238
	H284	H	0.197215	0.216495	0.322830
	H285	H	0.166966	0.216566	0.348673
	H286	H	0.194686	0.282692	0.491579
	H287	H	0.165062	0.282656	0.459310
	H288	H	0.120643	0.125668	0.355993
	H289	H	0.118876	0.375340	0.440212
	H290	H	-0.003804	0.375412	0.481230
	H291	H	0.243952	0.124957	0.315635
	H292	H	0.076123	0.216608	0.331299
	H293	H	0.048981	0.216654	0.293108
	H294	H	0.041862	0.282188	0.473511
	H295	H	0.071977	0.282764	0.447464
	H296	H	0.048944	0.533197	0.293128
	H297	H	0.076100	0.533216	0.331445
	H298	H	0.072167	-0.033347	0.448103
	H299	H	0.042007	-0.033310	0.474180
	H300	H	0.165121	-0.033594	0.459363
	H301	H	0.194701	-0.033205	0.491431
	H302	H	0.166999	0.533008	0.348559
	H303	H	0.197178	0.532929	0.322676
	Al304	Al	0.117514	-0.500070	0.672973
	Al305	Al	0.117485	-0.249401	0.672932
	Al306	Al	-0.005471	-0.249723	0.523216
	Al307	Al	-0.005469	-0.499662	0.523342
	O308	O	0.139376	-0.458746	0.697728
	O309	O	0.116823	-0.374807	0.652547
	O310	O	0.118951	-0.125048	0.693277
	O311	O	0.235349	-0.459250	0.677726
	O312	O	0.098530	-0.458760	0.700848
	O313	O	0.011116	-0.459029	0.768677
	O314	O	0.098564	-0.290570	0.700929
	O315	O	0.097143	-0.208987	0.645098
	O316	O	0.013376	-0.208823	0.554367
	O317	O	0.139393	-0.290482	0.697672
	O318	O	0.136006	-0.209026	0.643276
	O319	O	0.223529	-0.209338	0.575944
	O320	O	0.010986	-0.290850	0.768281
	O321	O	0.097105	-0.040811	0.645379
	O322	O	0.013280	-0.040468	0.554413
	O323	O	0.223646	-0.041007	0.576170
	O324	O	0.136007	-0.041039	0.643209
	O325	O	0.235460	-0.291153	0.677550
	O326	O	-0.008225	-0.124654	0.777606
	O327	O	0.243845	-0.374801	0.568294
	C328	C	0.196865	-0.284701	0.684675
	C329	C	0.206566	-0.374667	0.681974
	C330	C	0.196882	-0.464530	0.685019
	C331	C	0.177981	-0.464376	0.690797
	C332	C	0.168261	-0.374618	0.693587
	C333	C	0.177971	-0.284842	0.690459
	C334	C	0.147589	-0.374667	0.696708
	C335	C	0.227190	-0.375116	0.678581
	C336	C	0.091124	-0.374712	0.706366
	C337	C	0.072334	-0.374700	0.720703
	C338	C	0.063350	-0.285110	0.727347
	C339	C	0.045793	-0.285296	0.740139
	C340	C	0.036721	-0.375147	0.746514
	C341	C	0.045656	-0.464795	0.739502
	C342	C	0.063192	-0.464594	0.726699
	C343	C	0.018250	-0.374958	0.762302
	C344	C	0.089968	-0.124730	0.637901
	C345	C	0.071903	-0.124564	0.618645
	C346	C	0.063312	-0.035375	0.609662
	C347	C	0.046599	-0.035441	0.591596
	C348	C	0.038085	-0.124492	0.582369
	C349	C	0.046660	-0.213654	0.591414
	C350	C	0.063396	-0.213663	0.609441
	C351	C	0.020307	-0.124553	0.562251
	C352	C	0.143145	-0.124952	0.636838
	C353	C	0.161590	-0.125432	0.621001
	C354	C	0.170558	-0.215204	0.614131
	C355	C	0.188142	-0.215236	0.601555
	C356	C	0.197282	-0.125479	0.595451
	C357	C	0.188191	-0.035789	0.601767
	C358	C	0.170594	-0.035655	0.614343
	C359	C	0.216149	-0.125065	0.581420
	H360	H	0.194929	-0.284766	0.596570
	H361	H	0.163784	-0.285303	0.618828
	H362	H	0.204194	-0.214902	0.682418
	H363	H	0.170724	-0.214645	0.692716
	H364	H	0.116120	-0.374209	0.630372
	H365	H	0.121052	-0.125155	0.715069
	H366	H	-0.009122	-0.124649	0.755427
	H367	H	0.245924	-0.374610	0.589941
	H368	H	0.069885	-0.283132	0.616371
	H369	H	0.040211	-0.283138	0.584262
	H370	H	0.039058	-0.215194	0.745176
	H371	H	0.070201	-0.215239	0.722522
	H372	H	0.040138	0.033994	0.584570
	H373	H	0.069698	0.033903	0.616796
	H374	H	0.069904	-0.534188	0.721428
	H375	H	0.038852	-0.534850	0.744198
	H376	H	0.170714	-0.534203	0.693356
	H377	H	0.204123	-0.534642	0.683020
	H378	H	0.163790	0.034302	0.619382
	H379	H	0.194950	0.034114	0.596982
	Al380	Al	0.117553	-0.000578	0.672987
	Al381	Al	0.117607	0.250886	0.673120
	Al382	Al	-0.005552	0.249882	0.523142
	Al383	Al	-0.005582	0.000317	0.523213
	O384	O	0.139522	0.040712	0.697499
	O385	O	0.116785	0.125157	0.652642
	O386	O	0.119011	0.375579	0.693332
	O387	O	0.235482	0.040456	0.677793
	O388	O	0.098712	0.040964	0.701286
	O389	O	0.011299	0.040736	0.768621
	O390	O	0.098859	0.209081	0.701231
	O391	O	0.097173	0.290797	0.645314
	O392	O	0.013427	0.290480	0.554359
	O393	O	0.139545	0.209154	0.697813
	O394	O	0.135984	0.291258	0.643201
	O395	O	0.223577	0.291276	0.575849
	O396	O	0.011080	0.208889	0.768308
	O397	O	0.097113	0.458929	0.645333
	O398	O	0.013308	0.459158	0.554553
	O399	O	0.223472	0.459624	0.575535
	O400	O	0.136018	0.459684	0.643268
	O401	O	0.235449	0.208844	0.677561
	O402	O	-0.008218	0.375182	0.777584
	O403	O	0.243819	0.125017	0.568220
	C404	C	0.196950	0.214698	0.684885
	C405	C	0.206614	0.124703	0.681916
	C406	C	0.196927	0.034990	0.684842
	C407	C	0.178057	0.034953	0.690622
	C408	C	0.168382	0.124959	0.693534
	C409	C	0.178087	0.214845	0.690699
	C410	C	0.147719	0.124927	0.696793
	C411	C	0.227264	0.124718	0.678700
	C412	C	0.091333	0.125278	0.706680
	C413	C	0.072449	0.125470	0.720554
	C414	C	0.063380	0.215325	0.727013
	C415	C	0.045792	0.215319	0.739636
	C416	C	0.036783	0.125482	0.746344
	C417	C	0.045703	0.035624	0.739208
	C418	C	0.063277	0.035628	0.726533
	C419	C	0.018378	0.124886	0.762193
	C420	C	0.090004	0.374954	0.638022
	C421	C	0.071948	0.374811	0.618677
	C422	C	0.063358	0.463926	0.609605
	C423	C	0.046671	0.463733	0.591547
	C424	C	0.038154	0.374594	0.582268
	C425	C	0.046669	0.285476	0.591578
	C426	C	0.063360	0.285629	0.609641
	C427	C	0.020344	0.374793	0.562180
	C428	C	0.143143	0.375550	0.636843
	C429	C	0.161584	0.375465	0.621018
	C430	C	0.170515	0.285691	0.614122
	C431	C	0.188083	0.285565	0.601427
	C432	C	0.197200	0.375357	0.595216
	C433	C	0.188157	0.465148	0.601462
	C434	C	0.170590	0.465217	0.614143
	C435	C	0.216125	0.375306	0.581237
	H436	H	0.194841	0.215604	0.596709
	H437	H	0.163699	0.216063	0.619142
	H438	H	0.204180	0.284733	0.682426
	H439	H	0.170822	0.284805	0.692751
	H440	H	0.115713	0.125179	0.630638
	H441	H	0.121246	0.375664	0.715082
	H442	H	-0.008732	0.376010	0.755532
	H443	H	0.246125	0.125553	0.589949
	H444	H	0.069776	0.216784	0.616840
	H445	H	0.040195	0.216249	0.584592
	H446	H	0.038969	0.285212	0.744629
	H447	H	0.070154	0.285297	0.722164
	H448	H	0.040216	0.532874	0.584530
	H449	H	0.069771	0.532924	0.616723
	H450	H	0.069981	-0.033859	0.721192
	H451	H	0.038884	-0.034349	0.743734
	H452	H	0.170732	-0.035117	0.692605
	H453	H	0.204187	-0.035076	0.682316
	H454	H	0.163886	0.535312	0.619226
	H455	H	0.194980	0.534741	0.596569
	Al456	Al	0.132370	-0.499572	0.827549
	Al457	Al	0.132341	-0.250538	0.827333
	Al458	Al	-0.007436	-0.250386	0.798082
	Al459	Al	-0.007446	-0.499552	0.798339
	O460	O	0.152802	-0.458980	0.855142
	O461	O	0.131198	-0.375123	0.807122
	O462	O	0.133141	-0.125095	0.847870
	O463	O	0.236785	-0.459120	0.945584
	O464	O	0.113809	-0.459773	0.857148
	O465	O	0.026313	-0.459434	0.924375
	O466	O	0.113851	-0.291185	0.856916
	O467	O	0.110443	-0.208987	0.802683
	O468	O	0.014479	-0.208973	0.822670
	O469	O	0.152888	-0.291054	0.854892
	O470	O	0.151193	-0.209023	0.799095
	O471	O	0.238871	-0.209195	0.732185
	O472	O	0.026258	-0.291257	0.924374
	O473	O	0.110469	-0.040687	0.802707
	O474	O	0.014458	-0.041016	0.823121
	O475	O	0.238949	-0.040873	0.732290
	O476	O	0.151178	-0.040824	0.799293
	O477	O	0.236678	-0.290867	0.945800
	O478	O	0.006067	-0.125156	0.932024
	O479	O	0.257968	-0.375170	0.722709
	C480	C	0.203344	-0.286168	0.908762
	C481	C	0.211942	-0.375194	0.917906
	C482	C	0.203410	-0.464240	0.908524
	C483	C	0.186698	-0.464296	0.890503
	C484	C	0.178074	-0.375171	0.881568
	C485	C	0.186626	-0.286062	0.890727
	C486	C	0.160003	-0.374944	0.862265
	C487	C	0.229709	-0.374902	0.937987
	C488	C	0.106664	-0.375285	0.863324
	C489	C	0.088223	-0.375309	0.878986
	C490	C	0.079219	-0.285410	0.885662
	C491	C	0.061655	-0.285277	0.898353
	C492	C	0.052597	-0.375091	0.904785
	C493	C	0.061731	-0.465037	0.898658
	C494	C	0.079282	-0.465124	0.885954
	C495	C	0.033717	-0.375352	0.918931
	C496	C	0.102241	-0.124821	0.803602
	C497	C	0.081595	-0.124549	0.806908
	C498	C	0.071870	-0.034854	0.809712
	C499	C	0.053032	-0.035116	0.815553
	C500	C	0.043374	-0.124909	0.818667
	C501	C	0.053107	-0.214435	0.815826
	C502	C	0.071946	-0.214256	0.810013
	C503	C	0.022707	-0.125053	0.821960
	C504	C	0.158639	-0.124962	0.793794
	C505	C	0.177540	-0.124958	0.779796
	C506	C	0.186748	-0.214588	0.773753
	C507	C	0.204309	-0.214750	0.761141
	C508	C	0.213304	-0.125076	0.754258
	C509	C	0.204254	-0.035448	0.760941
	C510	C	0.186670	-0.035364	0.773503
	C511	C	0.231738	-0.125020	0.738539
	H512	H	0.211136	-0.284567	0.756317
	H513	H	0.179940	-0.283920	0.778726
	H514	H	0.209753	-0.216853	0.915784
	H515	H	0.180153	-0.216950	0.883735
	H516	H	0.129715	-0.375457	0.785242
	H517	H	0.134185	-0.125275	0.869915
	H518	H	0.004209	-0.125278	0.910185
	H519	H	0.258639	-0.375914	0.744851
	H520	H	0.079255	-0.284288	0.807752
	H521	H	0.045910	-0.284462	0.818178
	H522	H	0.054842	-0.215528	0.903164
	H523	H	0.085993	-0.215572	0.880629
	H524	H	0.045732	0.034682	0.817778
	H525	H	0.079118	0.035214	0.807206
	H526	H	0.086058	-0.535223	0.881126
	H527	H	0.054891	-0.534939	0.903651
	H528	H	0.180310	-0.533595	0.883361
	H529	H	0.209905	-0.533364	0.915484
	H530	H	0.179836	0.034442	0.778385
	H531	H	0.211007	0.034352	0.756000
	Al532	Al	0.132417	0.000536	0.827440
	Al533	Al	0.132363	0.249166	0.827524
	Al534	Al	-0.007474	0.249372	0.797747
	Al535	Al	-0.007390	0.000667	0.798213
	O536	O	0.152832	0.040512	0.855190
	O537	O	0.131130	0.124947	0.807188
	O538	O	0.133074	0.374662	0.848076
	O539	O	0.236721	0.040777	0.945881
	O540	O	0.113808	0.040433	0.857060
	O541	O	0.026247	0.040938	0.924270
	O542	O	0.113721	0.208922	0.856944
	O543	O	0.110518	0.290415	0.802824
	O544	O	0.014495	0.290358	0.822599
	O545	O	0.152763	0.208565	0.855316
	O546	O	0.151347	0.290750	0.799606
	O547	O	0.238854	0.290739	0.732030
	O548	O	0.026263	0.209438	0.924268
	O549	O	0.110547	0.458869	0.802779
	O550	O	0.014513	0.458649	0.822875
	O551	O	0.238888	0.459021	0.732211
	O552	O	0.151287	0.458840	0.799435
	O553	O	0.236871	0.208879	0.945742
	O554	O	0.006109	0.375062	0.932187
	O555	O	0.258027	0.124942	0.722911
	C556	C	0.203551	0.213916	0.908426
	C557	C	0.212086	0.124978	0.917713
	C558	C	0.203571	0.036017	0.908445
	C559	C	0.186829	0.035909	0.890521
	C560	C	0.178148	0.124870	0.881550
	C561	C	0.186813	0.213855	0.890490
	C562	C	0.159999	0.124726	0.862465
	C563	C	0.229777	0.124833	0.938077
	C564	C	0.106547	0.124794	0.863300
	C565	C	0.088170	0.124740	0.879178
	C566	C	0.079209	0.214651	0.885906
	C567	C	0.061669	0.214811	0.898605
	C568	C	0.052570	0.125079	0.904841
	C569	C	0.061624	0.035179	0.898692
	C570	C	0.079170	0.035102	0.886001
	C571	C	0.033690	0.125205	0.918927
	C572	C	0.102295	0.374680	0.803660
	C573	C	0.081640	0.374703	0.806856
	C574	C	0.071994	0.464643	0.810025
	C575	C	0.053116	0.464580	0.815816
	C576	C	0.043374	0.374642	0.818506
	C577	C	0.053052	0.284693	0.815513
	C578	C	0.071920	0.284766	0.809772
	C579	C	0.022708	0.374517	0.821810
	C580	C	0.158754	0.374813	0.794070
	C581	C	0.177575	0.374664	0.779877
	C582	C	0.186779	0.284964	0.773820
	C583	C	0.204395	0.284993	0.761204
	C584	C	0.213256	0.374878	0.754155
	C585	C	0.204201	0.464534	0.760790
	C586	C	0.186571	0.464506	0.773418
	C587	C	0.231696	0.374816	0.738465
	H588	H	0.211244	0.215146	0.756509
	H589	H	0.180090	0.215100	0.779099
	H590	H	0.210020	0.283122	0.915530
	H591	H	0.180344	0.282908	0.883495
	H592	H	0.129143	0.124820	0.785291
	H593	H	0.133752	0.374743	0.870061
	H594	H	0.004002	0.374930	0.910512
	H595	H	0.258930	0.124628	0.744844
	H596	H	0.079167	0.214849	0.807427
	H597	H	0.045779	0.214549	0.817725
	H598	H	0.054916	0.284678	0.903592
	H599	H	0.085962	0.284559	0.880947
	H600	H	0.045839	0.534566	0.818273
	H601	H	0.079239	0.534675	0.807926
	H602	H	0.085918	-0.034872	0.881149
	H603	H	0.054822	-0.034307	0.903769
	H604	H	0.180367	-0.032873	0.883549
	H605	H	0.209952	-0.032731	0.915496
	H606	H	0.179792	0.534228	0.778242
	H607	H	0.210950	0.534474	0.755835
	Al608	Al	0.369628	-0.499884	0.148398
	Al609	Al	0.369565	-0.249941	0.148452
	Al610	Al	0.255619	-0.250004	-0.023139
	Al611	Al	0.255602	-0.500019	-0.023228
	O612	O	0.388561	-0.459401	0.179350
	O613	O	0.370059	-0.374853	0.128342
	O614	O	0.368959	-0.125123	0.168492
	O615	O	0.472217	-0.458920	0.270768
	O616	O	0.349719	-0.459139	0.174444
	O617	O	0.264602	-0.459241	0.247598
	O618	O	0.349707	-0.290785	0.174442
	O619	O	0.351110	-0.209199	0.116425
	O620	O	0.274014	-0.208986	0.008660
	O621	O	0.388551	-0.291004	0.179377
	O622	O	0.389444	-0.209535	0.122631
	O623	O	0.474531	-0.209671	0.049192
	O624	O	0.264504	-0.290736	0.247388
	O625	O	0.351131	-0.040843	0.116290
	O626	O	0.274083	-0.040821	0.008622
	O627	O	0.474576	-0.041263	0.049252
	O628	O	0.389507	-0.041140	0.122876
	O629	O	0.472207	-0.290815	0.270724
	O630	O	0.245180	-0.124931	0.253361
	O631	O	0.494101	-0.374891	0.043469
	C632	C	0.438500	-0.286053	0.234665
	C633	C	0.447028	-0.375107	0.243982
	C634	C	0.438454	-0.464056	0.234837
	C635	C	0.421785	-0.463834	0.216702
	C636	C	0.413285	-0.374926	0.207313
	C637	C	0.421840	-0.285894	0.216494
	C638	C	0.395547	-0.375045	0.187070
	C639	C	0.465090	-0.375000	0.263340
	C640	C	0.342591	-0.374870	0.180516
	C641	C	0.324368	-0.375091	0.196489
	C642	C	0.315611	-0.285918	0.203769
	C643	C	0.298614	-0.285874	0.218249
	C644	C	0.289986	-0.374985	0.225638
	C645	C	0.298712	-0.464284	0.218303
	C646	C	0.315702	-0.464526	0.203755
	C647	C	0.271750	-0.375025	0.241516
	C648	C	0.344626	-0.125061	0.107379
	C649	C	0.328129	-0.125324	0.084177
	C650	C	0.320334	-0.036492	0.073102
	C651	C	0.304998	-0.036501	0.051692
	C652	C	0.297043	-0.125410	0.040921
	C653	C	0.304809	-0.214282	0.052105
	C654	C	0.320174	-0.214343	0.073492
	C655	C	0.280562	-0.125011	0.017590
	C656	C	0.396642	-0.125125	0.116696
	C657	C	0.414897	-0.125242	0.100819
	C658	C	0.423569	-0.214468	0.093379
	C659	C	0.440546	-0.214602	0.078776
	C660	C	0.449262	-0.125415	0.071441
	C661	C	0.440583	-0.036006	0.078878
	C662	C	0.423596	-0.035930	0.093511
	C663	C	0.467450	-0.125427	0.055363
	H664	H	0.447142	-0.283538	0.072964
	H665	H	0.416992	-0.283436	0.099044
	H666	H	0.444981	-0.217027	0.241642
	H667	H	0.415489	-0.216916	0.209291
	H668	H	0.370859	-0.374615	0.106313
	H669	H	0.368580	-0.124668	0.190435
	H670	H	0.246081	-0.124626	0.231619
	H671	H	0.493780	-0.375531	0.065165
	H672	H	0.325993	-0.283177	0.082132
	H673	H	0.298776	-0.283093	0.043881
	H674	H	0.292010	-0.217011	0.223825
	H675	H	0.322235	-0.216952	0.198095
	H676	H	0.299259	0.032311	0.043080
	H677	H	0.326303	0.032571	0.081298
	H678	H	0.322352	-0.533476	0.198128
	H679	H	0.292074	-0.533118	0.224111
	H680	H	0.415428	-0.532606	0.209659
	H681	H	0.444920	-0.532860	0.241893
	H682	H	0.416955	0.033080	0.099353
	H683	H	0.447164	0.032990	0.073138
	Al684	Al	0.369440	0.000114	0.148441
	Al685	Al	0.369595	0.249978	0.148453
	Al686	Al	0.255657	0.250156	-0.023130
	Al687	Al	0.255578	0.000110	-0.023155
	O688	O	0.388277	0.040770	0.179881
	O689	O	0.370129	0.124810	0.128321
	O690	O	0.369040	0.375130	0.168452
	O691	O	0.472228	0.041007	0.270177
	O692	O	0.349636	0.041268	0.174148
	O693	O	0.264526	0.040707	0.247631
	O694	O	0.349608	0.209548	0.174164
	O695	O	0.351177	0.290824	0.116490
	O696	O	0.274073	0.290799	0.008843
	O697	O	0.388276	0.208997	0.179721
	O698	O	0.389461	0.290978	0.122528
	O699	O	0.474652	0.290822	0.049043
	O700	O	0.264598	0.209081	0.247685
	O701	O	0.351099	0.459026	0.116586
	O702	O	0.274114	0.459021	0.008669
	O703	O	0.474712	0.459323	0.049384
	O704	O	0.389606	0.459445	0.122730
	O705	O	0.472096	0.209355	0.270290
	O706	O	0.245126	0.374961	0.253218
	O707	O	0.494002	0.125135	0.043376
	C708	C	0.438307	0.214195	0.234734
	C709	C	0.446910	0.125021	0.243847
	C710	C	0.438312	0.035808	0.234811
	C711	C	0.421598	0.035653	0.216871
	C712	C	0.413040	0.124855	0.207632
	C713	C	0.421601	0.214234	0.216781
	C714	C	0.395251	0.124956	0.187513
	C715	C	0.464990	0.125133	0.262924
	C716	C	0.342488	0.125226	0.180277
	C717	C	0.324380	0.125165	0.196554
	C718	C	0.315683	0.214190	0.203879
	C719	C	0.298685	0.214236	0.218499
	C720	C	0.290040	0.125057	0.225900
	C721	C	0.298719	0.036246	0.218526
	C722	C	0.315708	0.036241	0.203963
	C723	C	0.271764	0.124985	0.241674
	C724	C	0.344594	0.375101	0.107665
	C725	C	0.328134	0.374785	0.084320
	C726	C	0.320312	0.463852	0.073260
	C727	C	0.304989	0.464008	0.051786
	C728	C	0.297079	0.374915	0.040963
	C729	C	0.304879	0.285830	0.052064
	C730	C	0.320198	0.285715	0.073529
	C731	C	0.280595	0.374842	0.017714
	C732	C	0.396714	0.375102	0.116559
	C733	C	0.414964	0.374701	0.100662
	C734	C	0.423634	0.285362	0.093197
	C735	C	0.440683	0.285443	0.078720
	C736	C	0.449386	0.375016	0.071507
	C737	C	0.440748	0.464159	0.079052
	C738	C	0.423749	0.463936	0.093540
	C739	C	0.467529	0.375043	0.055348
	H740	H	0.447237	0.216481	0.072808
	H741	H	0.416955	0.216361	0.098808
	H742	H	0.444786	0.283514	0.241746
	H743	H	0.415121	0.283257	0.209672
	H744	H	0.370907	0.124466	0.106376
	H745	H	0.368353	0.375425	0.190426
	H746	H	0.246088	0.375114	0.231405
	H747	H	0.493577	0.124690	0.065331
	H748	H	0.326041	0.216709	0.082070
	H749	H	0.298817	0.216682	0.043871
	H750	H	0.292005	0.282822	0.224209
	H751	H	0.322195	0.282858	0.198096
	H752	H	0.299094	0.533158	0.043338
	H753	H	0.326242	0.533075	0.081610
	H754	H	0.322277	-0.032466	0.198182
	H755	H	0.292177	-0.032776	0.224120
	H756	H	0.415134	-0.033632	0.209814
	H757	H	0.444816	-0.033421	0.241805
	H758	H	0.417256	0.533326	0.099299
	H759	H	0.447373	0.533186	0.073519
	Al760	Al	0.367608	-0.500267	0.423223
	Al761	Al	0.367647	-0.249488	0.423209
	Al762	Al	0.244523	-0.250334	0.273318
	Al763	Al	0.244553	-0.500055	0.273395
	O764	O	0.389491	-0.459224	0.447776
	O765	O	0.366920	-0.375008	0.402725
	O766	O	0.368917	-0.124966	0.443569
	O767	O	0.485512	-0.459255	0.427645
	O768	O	0.348694	-0.459239	0.451223
	O769	O	0.261013	-0.458892	0.518004
	O770	O	0.348706	-0.291038	0.451059
	O771	O	0.347216	-0.209294	0.395476
	O772	O	0.263414	-0.209444	0.304739
	O773	O	0.389575	-0.290979	0.447857
	O774	O	0.386035	-0.208797	0.393428
	O775	O	0.473808	-0.208296	0.326534
	O776	O	0.261075	-0.290684	0.518491
	O777	O	0.347231	-0.041103	0.395374
	O778	O	0.263310	-0.041115	0.304755
	O779	O	0.473543	-0.040076	0.326119
	O780	O	0.386150	-0.040565	0.393581
	O781	O	0.485495	-0.290877	0.427458
	O782	O	0.241799	-0.124904	0.527593
	O783	O	0.493907	-0.374863	0.318829
	C784	C	0.446928	-0.285276	0.434613
	C785	C	0.456649	-0.375152	0.431823
	C786	C	0.446949	-0.465083	0.434949
	C787	C	0.428098	-0.465195	0.440879
	C788	C	0.418398	-0.375186	0.443653
	C789	C	0.428078	-0.285314	0.440501
	C790	C	0.397747	-0.375161	0.446864
	C791	C	0.477296	-0.375122	0.428498
	C792	C	0.341211	-0.374970	0.456406
	C793	C	0.322238	-0.374844	0.470239
	C794	C	0.313198	-0.285033	0.476697
	C795	C	0.295630	-0.284912	0.489306
	C796	C	0.286589	-0.374590	0.495848
	C797	C	0.295501	-0.464295	0.488862
	C798	C	0.313094	-0.464456	0.476278
	C799	C	0.268197	-0.374712	0.511801
	C800	C	0.340031	-0.125224	0.388232
	C801	C	0.321932	-0.125144	0.369011
	C802	C	0.313277	-0.036151	0.360087
	C803	C	0.296576	-0.035927	0.342124
	C804	C	0.288087	-0.125021	0.332727
	C805	C	0.296717	-0.214074	0.341669
	C806	C	0.313416	-0.214270	0.359670
	C807	C	0.270304	-0.125244	0.312512
	C808	C	0.393277	-0.124465	0.387213
	C809	C	0.411748	-0.124569	0.371356
	C810	C	0.420700	-0.214182	0.364606
	C811	C	0.438292	-0.214315	0.352006
	C812	C	0.447396	-0.124628	0.345783
	C813	C	0.438304	-0.034891	0.351791
	C814	C	0.420696	-0.034899	0.364412
	C815	C	0.466270	-0.124472	0.331674
	H816	H	0.445029	-0.284020	0.347037
	H817	H	0.413907	-0.284377	0.369438
	H818	H	0.454164	-0.215249	0.432175
	H819	H	0.420836	-0.215241	0.442713
	H820	H	0.366016	-0.374970	0.380695
	H821	H	0.370803	-0.124521	0.465494
	H822	H	0.240986	-0.124731	0.505595
	H823	H	0.495940	-0.374483	0.340648
	H824	H	0.319906	-0.283167	0.366527
	H825	H	0.290259	-0.283019	0.334450
	H826	H	0.288880	-0.215008	0.494209
	H827	H	0.320049	-0.215206	0.471929
	H828	H	0.290064	0.032984	0.335332
	H829	H	0.319682	0.032794	0.367400
	H830	H	0.319854	-0.534045	0.471140
	H831	H	0.288683	-0.534077	0.493531
	H832	H	0.420803	-0.535069	0.443411
	H833	H	0.454278	-0.535043	0.432783
	H834	H	0.413908	0.035122	0.369071
	H835	H	0.445072	0.034901	0.346666
	Al836	Al	0.367519	-0.000288	0.423164
	Al837	Al	0.367589	0.250663	0.423356
	Al838	Al	0.244611	0.249825	0.273312
	Al839	Al	0.244537	-0.000192	0.273567
	O840	O	0.389407	0.040966	0.447973
	O841	O	0.366906	0.125132	0.402805
	O842	O	0.368943	0.375102	0.443591
	O843	O	0.485481	0.040744	0.427614
	O844	O	0.348553	0.040595	0.451050
	O845	O	0.261010	0.041069	0.518189
	O846	O	0.348748	0.208957	0.451379
	O847	O	0.347190	0.291376	0.395449
	O848	O	0.263463	0.290902	0.304515
	O849	O	0.389478	0.209184	0.448108
	O850	O	0.386143	0.290681	0.393434
	O851	O	0.473599	0.290805	0.325910
	O852	O	0.261129	0.209391	0.518580
	O853	O	0.347071	0.459576	0.395734
	O854	O	0.263359	0.459333	0.304845
	O855	O	0.473693	0.459174	0.326593
	O856	O	0.386100	0.458913	0.393614
	O857	O	0.485521	0.208770	0.427535
	O858	O	0.241800	0.375135	0.527342
	O859	O	0.493818	0.125290	0.318248
	C860	C	0.446942	0.214962	0.434861
	C861	C	0.456617	0.125049	0.432008
	C862	C	0.446837	0.035434	0.434689
	C863	C	0.427980	0.035506	0.440419
	C864	C	0.418302	0.125235	0.443555
	C865	C	0.428073	0.214946	0.440575
	C866	C	0.397646	0.124966	0.446982
	C867	C	0.477259	0.124747	0.428595
	C868	C	0.341227	0.124856	0.456620
	C869	C	0.322404	0.125161	0.470665
	C870	C	0.313296	0.215070	0.476968
	C871	C	0.295692	0.215120	0.489611
	C872	C	0.286677	0.125154	0.496264
	C873	C	0.295607	0.035280	0.489153
	C874	C	0.313179	0.035205	0.476487
	C875	C	0.268290	0.125277	0.512151
	C876	C	0.339991	0.375446	0.388291
	C877	C	0.321901	0.375157	0.369007
	C878	C	0.313194	0.464211	0.360179
	C879	C	0.296506	0.464142	0.342111
	C880	C	0.288115	0.374976	0.332575
	C881	C	0.296786	0.285884	0.341491
	C882	C	0.313465	0.285924	0.359571
	C883	C	0.270400	0.374987	0.312308
	C884	C	0.393333	0.374869	0.387364
	C885	C	0.411753	0.374518	0.371440
	C886	C	0.420672	0.284712	0.364537
	C887	C	0.438206	0.284886	0.351783
	C888	C	0.447326	0.374569	0.345804
	C889	C	0.438276	0.464118	0.352208
	C890	C	0.420743	0.464047	0.364910
	C891	C	0.466195	0.374997	0.331628
	H892	H	0.444975	0.215245	0.346660
	H893	H	0.413911	0.214801	0.369420
	H894	H	0.454241	0.284480	0.432573
	H895	H	0.420810	0.284882	0.442814
	H896	H	0.366140	0.125312	0.380642
	H897	H	0.371043	0.375647	0.465354
	H898	H	0.241037	0.375104	0.505205
	H899	H	0.495752	0.125537	0.340114
	H900	H	0.320059	0.216916	0.366305
	H901	H	0.290509	0.216816	0.334135
	H902	H	0.288906	0.284962	0.494506
	H903	H	0.320108	0.284771	0.472027
	H904	H	0.289985	0.533135	0.335044
	H905	H	0.319541	0.533269	0.367442
	H906	H	0.319929	-0.034631	0.471339
	H907	H	0.288726	-0.034796	0.493725
	H908	H	0.420653	-0.034467	0.442527
	H909	H	0.454102	-0.034602	0.432246
	H910	H	0.414002	0.534127	0.370039
	H911	H	0.445054	0.533914	0.347379
	Al912	Al	0.382254	-0.499701	0.577125
	Al913	Al	0.382302	-0.250939	0.577189
	Al914	Al	0.242506	-0.250433	0.547978
	Al915	Al	0.242506	-0.499182	0.547702
	O916	O	0.402683	-0.459457	0.604847
	O917	O	0.380977	-0.375247	0.556795
	O918	O	0.382879	-0.125317	0.597710
	O919	O	0.486615	-0.459467	0.695215
	O920	O	0.363759	-0.459454	0.606942
	O921	O	0.276114	-0.459145	0.674153
	O922	O	0.363716	-0.291070	0.606843
	O923	O	0.360460	-0.209788	0.552297
	O924	O	0.264353	-0.209244	0.572748
	O925	O	0.402682	-0.291396	0.604880
	O926	O	0.401186	-0.209649	0.549149
	O927	O	0.488901	-0.209554	0.482064
	O928	O	0.276256	-0.290665	0.674328
	O929	O	0.360401	-0.041396	0.552389
	O930	O	0.264380	-0.041046	0.572554
	O931	O	0.488953	-0.041321	0.482159
	O932	O	0.401294	-0.041276	0.549192
	O933	O	0.486669	-0.291380	0.695163
	O934	O	0.255975	-0.124977	0.682072
	O935	O	0.508053	-0.375007	0.472682
	C936	C	0.453342	-0.286137	0.658074
	C937	C	0.461884	-0.375177	0.667389
	C938	C	0.453308	-0.464169	0.658211
	C939	C	0.436587	-0.464231	0.640323
	C940	C	0.427969	-0.375340	0.631233
	C941	C	0.436610	-0.286222	0.640184
	C942	C	0.409870	-0.375318	0.612129
	C943	C	0.479645	-0.375060	0.687526
	C944	C	0.356547	-0.375231	0.613128
	C945	C	0.338123	-0.375248	0.629052
	C946	C	0.329185	-0.285347	0.635940
	C947	C	0.311645	-0.285551	0.648569
	C948	C	0.302486	-0.375246	0.654650
	C949	C	0.311581	-0.465213	0.648550
	C950	C	0.329127	-0.465054	0.635900
	C951	C	0.283599	-0.375109	0.668817
	C952	C	0.352235	-0.125747	0.553381
	C953	C	0.331553	-0.125750	0.556598
	C954	C	0.321839	-0.035689	0.559348
	C955	C	0.302987	-0.035463	0.565103
	C956	C	0.293242	-0.125288	0.568128
	C957	C	0.302948	-0.215407	0.565507
	C958	C	0.321818	-0.215557	0.559741
	C959	C	0.272597	-0.125175	0.571604
	C960	C	0.408697	-0.125629	0.543841
	C961	C	0.427615	-0.125426	0.529793
	C962	C	0.436658	-0.215100	0.523295
	C963	C	0.454253	-0.215253	0.510693
	C964	C	0.463279	-0.125420	0.504164
	C965	C	0.454328	-0.035620	0.511109
	C966	C	0.436757	-0.035625	0.523708
	C967	C	0.481712	-0.125395	0.488473
	H968	H	0.460975	-0.285281	0.505593
	H969	H	0.429825	-0.284932	0.528090
	H970	H	0.459779	-0.217020	0.665059
	H971	H	0.430122	-0.217171	0.633124
	H972	H	0.378754	-0.375212	0.534995
	H973	H	0.383418	-0.125612	0.619825
	H974	H	0.253966	-0.125239	0.660293
	H975	H	0.508644	-0.375141	0.494760
	H976	H	0.329108	-0.285387	0.557494
	H977	H	0.295652	-0.285189	0.567784
	H978	H	0.304852	-0.215642	0.653558
	H979	H	0.335939	-0.215367	0.630902
	H980	H	0.295660	0.034503	0.567233
	H981	H	0.329085	0.034388	0.556826
	H982	H	0.335887	-0.535127	0.630957
	H983	H	0.304787	-0.534759	0.653547
	H984	H	0.430117	-0.533191	0.633312
	H985	H	0.459732	-0.533343	0.665331
	H986	H	0.429972	0.034073	0.528789
	H987	H	0.461101	0.034259	0.506337
	Al988	Al	0.382339	0.000156	0.577078
	Al989	Al	0.382202	0.249025	0.576952
	Al990	Al	0.242483	0.249825	0.547935
	Al991	Al	0.242451	0.000702	0.547879
	O992	O	0.402722	0.040678	0.604756
	O993	O	0.381057	0.124652	0.556625
	O994	O	0.382953	0.374587	0.597483
	O995	O	0.486653	0.041031	0.695150
	O996	O	0.363692	0.040441	0.606700
	O997	O	0.276246	0.040644	0.674290
	O998	O	0.363843	0.208614	0.606757
	O999	O	0.360338	0.290989	0.552366
	O1000	O	0.264368	0.291286	0.572470
	O1001	O	0.402751	0.208754	0.604573
	O1002	O	0.401081	0.291076	0.548898
	O1003	O	0.488791	0.290985	0.481988
	O1004	O	0.276249	0.208874	0.674430
	O1005	O	0.360386	0.459292	0.552242
	O1006	O	0.264361	0.459475	0.572352
	O1007	O	0.488845	0.459073	0.482158
	O1008	O	0.401085	0.459267	0.548953
	O1009	O	0.486530	0.209117	0.695325
	O1010	O	0.255943	0.375020	0.682032
	O1011	O	0.508086	0.124728	0.472789
	C1012	C	0.453300	0.213702	0.658020
	C1013	C	0.461840	0.124818	0.667352
	C1014	C	0.453250	0.035847	0.658298
	C1015	C	0.436528	0.035873	0.640360
	C1016	C	0.427985	0.124700	0.631104
	C1017	C	0.436590	0.213539	0.640109
	C1018	C	0.409929	0.124898	0.611896
	C1019	C	0.479588	0.124928	0.687467
	C1020	C	0.356575	0.124765	0.613058
	C1021	C	0.338140	0.124907	0.628942
	C1022	C	0.329209	0.214646	0.635659
	C1023	C	0.311673	0.214693	0.648391
	C1024	C	0.302554	0.125078	0.654649
	C1025	C	0.311643	0.035591	0.648404
	C1026	C	0.329181	0.035351	0.635696
	C1027	C	0.283718	0.124934	0.668992
	C1028	C	0.352155	0.375138	0.553351
	C1029	C	0.331497	0.375462	0.556868
	C1030	C	0.321826	0.465352	0.559779
	C1031	C	0.302925	0.465418	0.565540
	C1032	C	0.293237	0.375464	0.568362
	C1033	C	0.302929	0.285641	0.565555
	C1034	C	0.321802	0.285601	0.559781
	C1035	C	0.272560	0.375394	0.571507
	C1036	C	0.408515	0.375112	0.543547
	C1037	C	0.427457	0.374964	0.529636
	C1038	C	0.436529	0.285304	0.523451
	C1039	C	0.454192	0.285440	0.510919
	C1040	C	0.463173	0.375073	0.504196
	C1041	C	0.454253	0.464704	0.511017
	C1042	C	0.436599	0.464614	0.523546
	C1043	C	0.481633	0.375126	0.488409
	H1044	H	0.460929	0.215247	0.506059
	H1045	H	0.429728	0.215393	0.528274
	H1046	H	0.459772	0.282451	0.664973
	H1047	H	0.430156	0.282220	0.633018
	H1048	H	0.379286	0.124545	0.534785
	H1049	H	0.383954	0.374314	0.619616
	H1050	H	0.253879	0.374349	0.660236
	H1051	H	0.508722	0.124623	0.494774
	H1052	H	0.329027	0.215614	0.557394
	H1053	H	0.295616	0.215587	0.567719
	H1054	H	0.304944	0.284493	0.653399
	H1055	H	0.336012	0.284622	0.630679
	H1056	H	0.295657	0.535430	0.567646
	H1057	H	0.329093	0.535340	0.557326
	H1058	H	0.335908	-0.034664	0.630756
	H1059	H	0.304898	-0.034007	0.653467
	H1060	H	0.430078	-0.033094	0.633352
	H1061	H	0.459664	-0.033074	0.665508
	H1062	H	0.429871	0.534523	0.528361
	H1063	H	0.461034	0.534541	0.506179
	Al1064	Al	0.380587	-0.499975	0.851647
	Al1065	Al	0.380644	-0.250265	0.851806
	Al1066	Al	0.257311	-0.249620	0.702342
	Al1067	Al	0.257303	-0.500588	0.702323
	O1068	O	0.398981	-0.459114	0.883757
	O1069	O	0.381216	-0.374752	0.831638
	O1070	O	0.380009	-0.125143	0.871779
	O1071	O	0.476109	-0.459154	0.991431
	O1072	O	0.360623	-0.459301	0.877498
	O1073	O	0.275418	-0.459288	0.950744
	O1074	O	0.360675	-0.290923	0.877435
	O1075	O	0.361777	-0.209352	0.820539
	O1076	O	0.277816	-0.209009	0.729923
	O1077	O	0.399069	-0.290978	0.883735
	O1078	O	0.400415	-0.208588	0.825860
	O1079	O	0.485483	-0.209257	0.752030
	O1080	O	0.275463	-0.290891	0.950810
	O1081	O	0.361771	-0.041328	0.820224
	O1082	O	0.277832	-0.040988	0.729970
	O1083	O	0.485550	-0.041001	0.752318
	O1084	O	0.400520	-0.040533	0.825853
	O1085	O	0.476234	-0.290981	0.991263
	O1086	O	0.256076	-0.125216	0.956784
	O1087	O	0.504984	-0.375132	0.746486
	C1088	C	0.445407	-0.286062	0.948049
	C1089	C	0.453235	-0.375018	0.959082
	C1090	C	0.445236	-0.463984	0.948437
	C1091	C	0.429878	-0.463952	0.927046
	C1092	C	0.422096	-0.374979	0.915870
	C1093	C	0.430074	-0.286004	0.926659
	C1094	C	0.405611	-0.375109	0.892682
	C1095	C	0.469675	-0.375249	0.982432
	C1096	C	0.353481	-0.374968	0.883553
	C1097	C	0.335234	-0.375100	0.899454
	C1098	C	0.326452	-0.285963	0.906506
	C1099	C	0.309401	-0.286016	0.920898
	C1100	C	0.300770	-0.375103	0.928474
	C1101	C	0.309533	-0.464375	0.921343
	C1102	C	0.326606	-0.464277	0.906962
	C1103	C	0.282561	-0.375231	0.944647
	C1104	C	0.354779	-0.125503	0.812696
	C1105	C	0.336915	-0.125400	0.792791
	C1106	C	0.328423	-0.036242	0.783536
	C1107	C	0.311658	-0.036291	0.765688
	C1108	C	0.303023	-0.125166	0.756561
	C1109	C	0.311676	-0.214099	0.765426
	C1110	C	0.328413	-0.214233	0.783323
	C1111	C	0.284929	-0.125095	0.737465
	C1112	C	0.407605	-0.124769	0.819633
	C1113	C	0.425768	-0.124969	0.803494
	C1114	C	0.434393	-0.214073	0.795952
	C1115	C	0.451387	-0.214016	0.781402
	C1116	C	0.460127	-0.125103	0.774156
	C1117	C	0.451446	-0.035930	0.781536
	C1118	C	0.434468	-0.035939	0.796069
	C1119	C	0.478376	-0.125055	0.758303
	H1120	H	0.457989	-0.283051	0.775710
	H1121	H	0.427749	-0.282827	0.801712
	H1122	H	0.451320	-0.217051	0.956445
	H1123	H	0.424249	-0.217087	0.918110
	H1124	H	0.381509	-0.374324	0.809676
	H1125	H	0.379198	-0.124643	0.893673
	H1126	H	0.256451	-0.124978	0.934992
	H1127	H	0.504305	-0.375085	0.768402
	H1128	H	0.334929	-0.283576	0.790167
	H1129	H	0.305196	-0.283190	0.758410
	H1130	H	0.302783	-0.217235	0.926472
	H1131	H	0.332924	-0.216891	0.900696
	H1132	H	0.305151	0.032475	0.758858
	H1133	H	0.334907	0.032405	0.790598
	H1134	H	0.333294	-0.533128	0.901480
	H1135	H	0.302993	-0.533337	0.927200
	H1136	H	0.423878	-0.532950	0.918795
	H1137	H	0.451035	-0.533113	0.956996
	H1138	H	0.427900	0.033251	0.801845
	H1139	H	0.458047	0.032792	0.775865
	Al1140	Al	0.380580	-0.000041	0.851620
	Al1141	Al	0.380535	0.249577	0.851669
	Al1142	Al	0.257386	0.250254	0.702332
	Al1143	Al	0.257432	-0.000577	0.702546
	O1144	O	0.398912	0.041404	0.883664
	O1145	O	0.381031	0.124833	0.831520
	O1146	O	0.379988	0.374825	0.871786
	O1147	O	0.476001	0.041278	0.991445
	O1148	O	0.360543	0.040520	0.877351
	O1149	O	0.275501	0.040930	0.950877
	O1150	O	0.360522	0.209114	0.877285
	O1151	O	0.361697	0.291111	0.820530
	O1152	O	0.277769	0.290774	0.730019
	O1153	O	0.398941	0.209482	0.883654
	O1154	O	0.400428	0.290446	0.825713
	O1155	O	0.485469	0.290633	0.752457
	O1156	O	0.275553	0.209508	0.950987
	O1157	O	0.361679	0.459658	0.820470
	O1158	O	0.277758	0.459068	0.729919
	O1159	O	0.485506	0.459118	0.752300
	O1160	O	0.400407	0.458893	0.825955
	O1161	O	0.476068	0.209509	0.991224
	O1162	O	0.256046	0.375003	0.956709
	O1163	O	0.504873	0.125156	0.746477
	C1164	C	0.445231	0.214315	0.948031
	C1165	C	0.453106	0.125251	0.959060
	C1166	C	0.445133	0.036103	0.948265
	C1167	C	0.429834	0.035925	0.926820
	C1168	C	0.421975	0.125047	0.915765
	C1169	C	0.429928	0.214245	0.926618
	C1170	C	0.405485	0.125379	0.892542
	C1171	C	0.469509	0.125281	0.982342
	C1172	C	0.353346	0.124885	0.883327
	C1173	C	0.335170	0.124781	0.899394
	C1174	C	0.326499	0.214223	0.906693
	C1175	C	0.309501	0.214259	0.921282
	C1176	C	0.300857	0.125022	0.928719
	C1177	C	0.309580	0.035816	0.921488
	C1178	C	0.326559	0.035612	0.906873
	C1179	C	0.282642	0.125179	0.944790
	C1180	C	0.354734	0.375290	0.812638
	C1181	C	0.336861	0.375278	0.792715
	C1182	C	0.328370	0.464217	0.783214
	C1183	C	0.311682	0.464261	0.765224
	C1184	C	0.303025	0.375179	0.756358
	C1185	C	0.311520	0.286144	0.765744
	C1186	C	0.328224	0.286110	0.783709
	C1187	C	0.284908	0.374912	0.737257
	C1188	C	0.407488	0.374869	0.819626
	C1189	C	0.425703	0.375046	0.803548
	C1190	C	0.434369	0.285777	0.796075
	C1191	C	0.451369	0.285939	0.781538
	C1192	C	0.460047	0.375290	0.774275
	C1193	C	0.451397	0.464655	0.781714
	C1194	C	0.434397	0.464432	0.796246
	C1195	C	0.478321	0.375044	0.758333
	H1196	H	0.457964	0.217150	0.775619
	H1197	H	0.427732	0.216734	0.801565
	H1198	H	0.451230	0.283244	0.956310
	H1199	H	0.423960	0.283207	0.918122
	H1200	H	0.381378	0.125107	0.809577
	H1201	H	0.379543	0.374808	0.893625
	H1202	H	0.256297	0.375217	0.934902
	H1203	H	0.504219	0.124824	0.768497
	H1204	H	0.334721	0.217406	0.790744
	H1205	H	0.305025	0.217302	0.758890
	H1206	H	0.302939	0.283271	0.926940
	H1207	H	0.333064	0.283163	0.900768
	H1208	H	0.305267	0.533104	0.757987
	H1209	H	0.334980	0.533003	0.789930
	H1210	H	0.333152	-0.033302	0.901090
	H1211	H	0.303009	-0.033074	0.927327
	H1212	H	0.423822	-0.033171	0.918568
	H1213	H	0.451052	-0.032819	0.956763
	H1214	H	0.427757	0.533276	0.801938
	H1215	H	0.457973	0.533650	0.776009
	Al1216	Al	0.617501	-0.500525	0.173275
	Al1217	Al	0.617487	-0.249362	0.172882
	Al1218	Al	0.494509	-0.250087	0.023345
	Al1219	Al	0.494597	-0.499855	0.023350
	O1220	O	0.639333	-0.458368	0.198157
	O1221	O	0.616828	-0.375035	0.152586
	O1222	O	0.618804	-0.125038	0.193472
	O1223	O	0.735424	-0.458920	0.177467
	O1224	O	0.598574	-0.459537	0.201088
	O1225	O	0.511173	-0.459227	0.268841
	O1226	O	0.598608	-0.291191	0.200865
	O1227	O	0.597158	-0.208874	0.145167
	O1228	O	0.513299	-0.209178	0.054561
	O1229	O	0.639390	-0.290144	0.197802
	O1230	O	0.635972	-0.208693	0.143157
	O1231	O	0.723675	-0.209202	0.076296
	O1232	O	0.511149	-0.290887	0.268763
	O1233	O	0.597245	-0.040679	0.145304
	O1234	O	0.513334	-0.040645	0.054416
	O1235	O	0.723662	-0.040908	0.076024
	O1236	O	0.636182	-0.040477	0.143811
	O1237	O	0.735325	-0.290844	0.177493
	O1238	O	0.491924	-0.125385	0.277687
	O1239	O	0.743825	-0.375322	0.068308
	C1240	C	0.696798	-0.285106	0.184644
	C1241	C	0.706480	-0.374999	0.181909
	C1242	C	0.696742	-0.464924	0.184844
	C1243	C	0.677866	-0.464841	0.190681
	C1244	C	0.668224	-0.374813	0.193603
	C1245	C	0.677943	-0.284966	0.190448
	C1246	C	0.647547	-0.374477	0.197008
	C1247	C	0.727157	-0.374962	0.178492
	C1248	C	0.591127	-0.375327	0.206334
	C1249	C	0.572275	-0.375190	0.220428
	C1250	C	0.563174	-0.285667	0.226622
	C1251	C	0.545609	-0.285419	0.239400
	C1252	C	0.536636	-0.375099	0.246350
	C1253	C	0.545557	-0.464725	0.239339
	C1254	C	0.563129	-0.464919	0.226594
	C1255	C	0.518293	-0.375187	0.262422
	C1256	C	0.590056	-0.124656	0.137934
	C1257	C	0.571937	-0.124568	0.118713
	C1258	C	0.563421	-0.035660	0.109350
	C1259	C	0.546717	-0.035801	0.091396
	C1260	C	0.538081	-0.124888	0.082444
	C1261	C	0.546536	-0.213837	0.092003
	C1262	C	0.563228	-0.213668	0.109980
	C1263	C	0.520266	-0.124860	0.062267
	C1264	C	0.643300	-0.124418	0.137246
	C1265	C	0.661733	-0.124574	0.121339
	C1266	C	0.670700	-0.214286	0.114588
	C1267	C	0.688275	-0.214493	0.101961
	C1268	C	0.697397	-0.124857	0.095767
	C1269	C	0.688292	-0.035053	0.101872
	C1270	C	0.670731	-0.034960	0.114533
	C1271	C	0.716255	-0.124976	0.081578
	H1272	H	0.695049	-0.284053	0.096953
	H1273	H	0.663933	-0.284202	0.119436
	H1274	H	0.704062	-0.215208	0.182265
	H1275	H	0.670707	-0.214642	0.192527
	H1276	H	0.616062	-0.374938	0.130534
	H1277	H	0.620851	-0.125688	0.215374
	H1278	H	0.491192	-0.125438	0.255741
	H1279	H	0.745862	-0.375908	0.089996
	H1280	H	0.569617	-0.282570	0.117248
	H1281	H	0.539964	-0.282800	0.085315
	H1282	H	0.538852	-0.215571	0.244234
	H1283	H	0.569948	-0.216155	0.221460
	H1284	H	0.540279	0.033323	0.084240
	H1285	H	0.570011	0.033268	0.116154
	H1286	H	0.569839	-0.534610	0.221507
	H1287	H	0.538745	-0.534531	0.244195
	H1288	H	0.670573	-0.534920	0.192980
	H1289	H	0.703976	-0.535086	0.182548
	H1290	H	0.663950	0.034998	0.119387
	H1291	H	0.695079	0.034789	0.096873
	Al1292	Al	0.617583	-0.000406	0.173368
	Al1293	Al	0.617640	0.250593	0.173525
	Al1294	Al	0.494486	0.250008	0.023183
	Al1295	Al	0.494438	0.000371	0.023214
	O1296	O	0.639528	0.040682	0.198403
	O1297	O	0.616919	0.125026	0.152964
	O1298	O	0.618973	0.375158	0.193692
	O1299	O	0.735506	0.041174	0.177409
	O1300	O	0.598754	0.040953	0.201448
	O1301	O	0.511003	0.040998	0.268133
	O1302	O	0.598816	0.208911	0.201625
	O1303	O	0.597170	0.290580	0.145803
	O1304	O	0.513436	0.290410	0.054359
	O1305	O	0.639544	0.209069	0.198100
	O1306	O	0.636087	0.291098	0.143492
	O1307	O	0.723448	0.290663	0.075392
	O1308	O	0.510928	0.209061	0.267872
	O1309	O	0.597195	0.458678	0.145657
	O1310	O	0.513513	0.458786	0.054395
	O1311	O	0.723575	0.458703	0.075869
	O1312	O	0.636177	0.459239	0.143668
	O1313	O	0.735474	0.209400	0.177476
	O1314	O	0.491981	0.375366	0.277686
	O1315	O	0.743805	0.125123	0.068074
	C1316	C	0.696894	0.215019	0.184760
	C1317	C	0.706618	0.125262	0.181703
	C1318	C	0.696942	0.035457	0.184664
	C1319	C	0.678119	0.035190	0.190612
	C1320	C	0.668390	0.124817	0.193689
	C1321	C	0.678051	0.214692	0.190677
	C1322	C	0.647780	0.124863	0.197164
	C1323	C	0.727273	0.125311	0.178406
	C1324	C	0.591302	0.125076	0.206909
	C1325	C	0.572436	0.125192	0.220853
	C1326	C	0.563261	0.214758	0.227026
	C1327	C	0.545624	0.214543	0.239557
	C1328	C	0.536646	0.124802	0.246210
	C1329	C	0.545701	0.035289	0.239508
	C1330	C	0.563337	0.035434	0.226990
	C1331	C	0.518193	0.125074	0.261848
	C1332	C	0.590058	0.374606	0.138202
	C1333	C	0.571987	0.374537	0.118924
	C1334	C	0.563406	0.463375	0.109743
	C1335	C	0.546716	0.463310	0.091660
	C1336	C	0.538231	0.374110	0.082370
	C1337	C	0.546786	0.285147	0.091597
	C1338	C	0.563462	0.285492	0.109706
	C1339	C	0.520422	0.374365	0.062121
	C1340	C	0.643254	0.375044	0.137237
	C1341	C	0.661737	0.374969	0.121422
	C1342	C	0.670624	0.285207	0.114479
	C1343	C	0.688145	0.284857	0.101695
	C1344	C	0.697246	0.374435	0.095407
	C1345	C	0.688223	0.464128	0.101821
	C1346	C	0.670690	0.464483	0.114540
	C1347	C	0.716103	0.374498	0.081196
	H1348	H	0.694822	0.215011	0.096614
	H1349	H	0.663768	0.215538	0.119370
	H1350	H	0.704107	0.285038	0.182484
	H1351	H	0.670697	0.284427	0.193022
	H1352	H	0.616027	0.124901	0.130843
	H1353	H	0.620977	0.375308	0.215525
	H1354	H	0.491399	0.376061	0.255596
	H1355	H	0.745652	0.125133	0.089943
	H1356	H	0.569996	0.216682	0.116561
	H1357	H	0.540429	0.215787	0.084371
	H1358	H	0.538831	0.284439	0.244371
	H1359	H	0.569974	0.284694	0.222129
	H1360	H	0.540285	0.532277	0.084469
	H1361	H	0.569855	0.532595	0.116671
	H1362	H	0.570174	-0.034308	0.221968
	H1363	H	0.539023	-0.034759	0.244278
	H1364	H	0.670927	-0.034963	0.192854
	H1365	H	0.704275	-0.034323	0.182351
	H1366	H	0.663969	0.534608	0.119393
	H1367	H	0.695037	0.534021	0.096835
	Al1368	Al	0.632367	-0.499327	0.327280
	Al1369	Al	0.632358	-0.250374	0.327481
	Al1370	Al	0.492617	-0.250525	0.298516
	Al1371	Al	0.492554	-0.499664	0.298628
	O1372	O	0.652812	-0.459100	0.354950
	O1373	O	0.631053	-0.374911	0.306893
	O1374	O	0.633136	-0.124812	0.347832
	O1375	O	0.736690	-0.459325	0.445598
	O1376	O	0.613772	-0.458872	0.356813
	O1377	O	0.526248	-0.459634	0.424059
	O1378	O	0.613866	-0.290636	0.357014
	O1379	O	0.610439	-0.209309	0.302685
	O1380	O	0.514367	-0.208980	0.323302
	O1381	O	0.652727	-0.291144	0.355283
	O1382	O	0.651318	-0.208951	0.299433
	O1383	O	0.738869	-0.209039	0.231764
	O1384	O	0.526194	-0.291169	0.424012
	O1385	O	0.610425	-0.041009	0.302760
	O1386	O	0.514441	-0.040786	0.322790
	O1387	O	0.738821	-0.040612	0.231871
	O1388	O	0.651401	-0.040549	0.299523
	O1389	O	0.736802	-0.291289	0.445391
	O1390	O	0.506093	-0.124862	0.431872
	O1391	O	0.758015	-0.375411	0.222542
	C1392	C	0.703440	-0.286057	0.408359
	C1393	C	0.711898	-0.375199	0.417849
	C1394	C	0.703289	-0.464076	0.408736
	C1395	C	0.686587	-0.464012	0.390829
	C1396	C	0.678036	-0.375010	0.381595
	C1397	C	0.686741	-0.286056	0.390460
	C1398	C	0.659929	-0.375066	0.362476
	C1399	C	0.729716	-0.375233	0.437842
	C1400	C	0.606666	-0.374564	0.363317
	C1401	C	0.588281	-0.374834	0.379258
	C1402	C	0.579252	-0.284998	0.385899
	C1403	C	0.561696	-0.285451	0.398568
	C1404	C	0.552639	-0.375236	0.404960
	C1405	C	0.561759	-0.464925	0.398615
	C1406	C	0.579316	-0.464605	0.385948
	C1407	C	0.533713	-0.375411	0.418820
	C1408	C	0.602209	-0.125189	0.303743
	C1409	C	0.581588	-0.125091	0.307115
	C1410	C	0.571875	-0.035127	0.309786
	C1411	C	0.553007	-0.035161	0.315619
	C1412	C	0.543314	-0.124996	0.318838
	C1413	C	0.553065	-0.214767	0.316086
	C1414	C	0.571926	-0.214876	0.310214
	C1415	C	0.522640	-0.124985	0.322121
	C1416	C	0.658775	-0.124810	0.293944
	C1417	C	0.677593	-0.125207	0.279569
	C1418	C	0.686647	-0.215027	0.273283
	C1419	C	0.704210	-0.215099	0.260570
	C1420	C	0.713177	-0.125225	0.253723
	C1421	C	0.704285	-0.035397	0.260751
	C1422	C	0.686732	-0.035286	0.273463
	C1423	C	0.731682	-0.124977	0.238121
	H1424	H	0.710994	-0.285028	0.255732
	H1425	H	0.679824	-0.284618	0.278316
	H1426	H	0.709976	-0.217201	0.415095
	H1427	H	0.680344	-0.217374	0.383249
	H1428	H	0.629073	-0.374701	0.284883
	H1429	H	0.634005	-0.124828	0.369955
	H1430	H	0.504231	-0.124567	0.409965
	H1431	H	0.758701	-0.374773	0.244663
	H1432	H	0.579177	-0.284783	0.307923
	H1433	H	0.545756	-0.284744	0.318425
	H1434	H	0.554794	-0.215546	0.403357
	H1435	H	0.585984	-0.215030	0.380856
	H1436	H	0.545720	0.034841	0.317583
	H1437	H	0.579132	0.034778	0.307165
	H1438	H	0.586085	-0.534283	0.380841
	H1439	H	0.554947	-0.534947	0.403357
	H1440	H	0.680030	-0.533321	0.383983
	H1441	H	0.709744	-0.532907	0.415910
	H1442	H	0.680023	0.034572	0.278650
	H1443	H	0.711128	0.034484	0.255962
	Al1444	Al	0.632397	0.000501	0.327319
	Al1445	Al	0.632408	0.249905	0.327404
	Al1446	Al	0.492491	0.249572	0.297823
	Al1447	Al	0.492584	0.000323	0.297980
	O1448	O	0.652718	0.041361	0.355301
	O1449	O	0.631055	0.125205	0.307015
	O1450	O	0.632963	0.375172	0.347850
	O1451	O	0.736693	0.041217	0.445404
	O1452	O	0.613814	0.040884	0.357056
	O1453	O	0.526319	0.040859	0.424293
	O1454	O	0.613880	0.209138	0.357141
	O1455	O	0.610496	0.291162	0.302802
	O1456	O	0.514545	0.290350	0.322503
	O1457	O	0.652857	0.209402	0.354910
	O1458	O	0.651127	0.290867	0.298986
	O1459	O	0.738771	0.290810	0.231883
	O1460	O	0.526310	0.209273	0.424382
	O1461	O	0.610415	0.459401	0.302746
	O1462	O	0.514491	0.458836	0.323252
	O1463	O	0.738851	0.459082	0.231866
	O1464	O	0.651144	0.459250	0.299121
	O1465	O	0.736635	0.209414	0.445509
	O1466	O	0.505937	0.374767	0.432008
	O1467	O	0.758084	0.124804	0.222671
	C1468	C	0.703364	0.214610	0.408383
	C1469	C	0.711884	0.125509	0.417720
	C1470	C	0.703308	0.036407	0.408569
	C1471	C	0.686583	0.036357	0.390722
	C1472	C	0.678006	0.125476	0.381661
	C1473	C	0.686630	0.214544	0.390523
	C1474	C	0.659929	0.125380	0.362458
	C1475	C	0.729700	0.125337	0.437738
	C1476	C	0.606702	0.125220	0.363437
	C1477	C	0.588262	0.125140	0.379218
	C1478	C	0.579244	0.214885	0.385883
	C1479	C	0.561670	0.215009	0.398582
	C1480	C	0.552652	0.125272	0.404944
	C1481	C	0.561746	0.035485	0.398676
	C1482	C	0.579304	0.035315	0.385946
	C1483	C	0.533781	0.125162	0.419064
	C1484	C	0.602238	0.375186	0.303692
	C1485	C	0.581571	0.375085	0.307034
	C1486	C	0.571830	0.464895	0.309911
	C1487	C	0.552982	0.464851	0.315735
	C1488	C	0.543325	0.374929	0.318615
	C1489	C	0.553029	0.285061	0.315590
	C1490	C	0.571899	0.285105	0.309811
	C1491	C	0.522689	0.374731	0.321962
	C1492	C	0.658575	0.375046	0.293584
	C1493	C	0.677460	0.375296	0.279510
	C1494	C	0.686606	0.285577	0.273460
	C1495	C	0.704213	0.285415	0.260883
	C1496	C	0.713150	0.375221	0.253990
	C1497	C	0.704262	0.465035	0.261016
	C1498	C	0.686653	0.465025	0.273599
	C1499	C	0.731626	0.374833	0.238193
	H1500	H	0.711021	0.215251	0.256008
	H1501	H	0.679810	0.215660	0.278316
	H1502	H	0.709915	0.283516	0.415282
	H1503	H	0.680163	0.283480	0.383404
	H1504	H	0.629204	0.125694	0.285134
	H1505	H	0.633190	0.375030	0.369941
	H1506	H	0.503683	0.374730	0.410155
	H1507	H	0.758944	0.124915	0.244808
	H1508	H	0.579238	0.215429	0.307472
	H1509	H	0.545737	0.215148	0.317808
	H1510	H	0.554866	0.284748	0.403282
	H1511	H	0.585982	0.284861	0.380785
	H1512	H	0.545654	0.534827	0.318068
	H1513	H	0.579067	0.534767	0.307613
	H1514	H	0.585984	-0.034539	0.380953
	H1515	H	0.554932	-0.034391	0.403546
	H1516	H	0.680031	-0.032476	0.383779
	H1517	H	0.709726	-0.032722	0.415641
	H1518	H	0.679909	0.534843	0.278523
	H1519	H	0.711101	0.534997	0.256279
	Al1520	Al	0.630638	-0.499991	0.601786
	Al1521	Al	0.630615	-0.250131	0.601695
	Al1522	Al	0.507363	-0.249456	0.452099
	Al1523	Al	0.507421	-0.500625	0.452293
	O1524	O	0.649109	-0.459115	0.633603
	O1525	O	0.630963	-0.374964	0.581590
	O1526	O	0.630021	-0.125089	0.621776
	O1527	O	0.726105	-0.459143	0.741435
	O1528	O	0.610567	-0.459577	0.627459
	O1529	O	0.525385	-0.459281	0.700562
	O1530	O	0.610600	-0.291163	0.627446
	O1531	O	0.611687	-0.208883	0.570565
	O1532	O	0.527875	-0.209020	0.479628
	O1533	O	0.649058	-0.290827	0.633578
	O1534	O	0.650445	-0.209381	0.575694
	O1535	O	0.735567	-0.209214	0.502244
	O1536	O	0.525369	-0.290852	0.700413
	O1537	O	0.611672	-0.040775	0.570514
	O1538	O	0.527802	-0.041188	0.480038
	O1539	O	0.735563	-0.041003	0.502392
	O1540	O	0.650511	-0.041032	0.576001
	O1541	O	0.726034	-0.291001	0.741524
	O1542	O	0.505858	-0.125219	0.706262
	O1543	O	0.755199	-0.374818	0.496665
	C1544	C	0.695373	-0.285779	0.698057
	C1545	C	0.703153	-0.375118	0.709110
	C1546	C	0.695199	-0.464260	0.698417
	C1547	C	0.679894	-0.464076	0.676853
	C1548	C	0.672111	-0.374701	0.665774
	C1549	C	0.680049	-0.285582	0.676522
	C1550	C	0.655685	-0.374934	0.642351
	C1551	C	0.719565	-0.375028	0.732549
	C1552	C	0.603379	-0.375267	0.633366
	C1553	C	0.585167	-0.375051	0.649316
	C1554	C	0.576407	-0.285998	0.656518
	C1555	C	0.559388	-0.286144	0.670978
	C1556	C	0.550703	-0.375361	0.678354
	C1557	C	0.559460	-0.464657	0.671219
	C1558	C	0.576507	-0.464407	0.656780
	C1559	C	0.532547	-0.375073	0.694467
	C1560	C	0.604636	-0.124874	0.562882
	C1561	C	0.586887	-0.125145	0.542791
	C1562	C	0.578269	-0.036397	0.533718
	C1563	C	0.561579	-0.036552	0.515723
	C1564	C	0.553044	-0.125437	0.506473
	C1565	C	0.561729	-0.214205	0.515376
	C1566	C	0.578449	-0.214159	0.533406
	C1567	C	0.534995	-0.125076	0.487189
	C1568	C	0.657649	-0.125240	0.569806
	C1569	C	0.675841	-0.124988	0.553712
	C1570	C	0.684490	-0.214260	0.546211
	C1571	C	0.701451	-0.214446	0.531601
	C1572	C	0.710181	-0.125263	0.524325
	C1573	C	0.701522	-0.035990	0.531747
	C1574	C	0.684560	-0.035788	0.546371
	C1575	C	0.728389	-0.124979	0.508322
	H1576	H	0.708048	-0.283463	0.525831
	H1577	H	0.677841	-0.283093	0.551871
	H1578	H	0.701388	-0.216680	0.706292
	H1579	H	0.674227	-0.216184	0.667898
	H1580	H	0.631111	-0.375260	0.559588
	H1581	H	0.629144	-0.125065	0.643597
	H1582	H	0.506098	-0.124989	0.684406
	H1583	H	0.754503	-0.375123	0.518476
	H1584	H	0.584947	-0.282994	0.540463
	H1585	H	0.555367	-0.283355	0.508141
	H1586	H	0.552775	-0.217203	0.676659
	H1587	H	0.582900	-0.216752	0.650596
	H1588	H	0.555083	0.032140	0.508788
	H1589	H	0.584601	0.032656	0.540974
	H1590	H	0.583144	-0.533325	0.651085
	H1591	H	0.552926	-0.533520	0.677162
	H1592	H	0.673910	-0.533101	0.668542
	H1593	H	0.701010	-0.533659	0.706904
	H1594	H	0.677968	0.033151	0.552077
	H1595	H	0.708168	0.032950	0.526028
	Al1596	Al	0.630553	0.000064	0.601811
	Al1597	Al	0.630668	0.250060	0.601577
	Al1598	Al	0.507415	0.250517	0.452426
	Al1599	Al	0.507461	-0.000927	0.452381
	O1600	O	0.648970	0.040610	0.633680
	O1601	O	0.631027	0.125015	0.581689
	O1602	O	0.630129	0.374775	0.621931
	O1603	O	0.726108	0.040878	0.741276
	O1604	O	0.610571	0.041036	0.627541
	O1605	O	0.525408	0.040690	0.700669
	O1606	O	0.610612	0.209506	0.627491
	O1607	O	0.611856	0.290928	0.570113
	O1608	O	0.527760	0.291011	0.480210
	O1609	O	0.648991	0.208717	0.633604
	O1610	O	0.650569	0.290723	0.575808
	O1611	O	0.735626	0.290954	0.502548
	O1612	O	0.525370	0.209168	0.700653
	O1613	O	0.611769	0.458983	0.570713
	O1614	O	0.527714	0.459054	0.480136
	O1615	O	0.735651	0.459503	0.502453
	O1616	O	0.650525	0.459102	0.575909
	O1617	O	0.726097	0.208820	0.741229
	O1618	O	0.505936	0.374755	0.706432
	O1619	O	0.754985	0.125026	0.496861
	C1620	C	0.695207	0.213873	0.698187
	C1621	C	0.703079	0.124761	0.709130
	C1622	C	0.695104	0.035627	0.698460
	C1623	C	0.679810	0.035562	0.676938
	C1624	C	0.671975	0.124614	0.665840
	C1625	C	0.679908	0.213700	0.676679
	C1626	C	0.655528	0.124612	0.642475
	C1627	C	0.719535	0.124754	0.732427
	C1628	C	0.603388	0.125364	0.633483
	C1629	C	0.585144	0.125221	0.649364
	C1630	C	0.576379	0.214416	0.656506
	C1631	C	0.559361	0.214373	0.670981
	C1632	C	0.550714	0.125030	0.678440
	C1633	C	0.559439	0.035889	0.671120
	C1634	C	0.576438	0.035972	0.656623
	C1635	C	0.532590	0.124996	0.694669
	C1636	C	0.604801	0.374956	0.562703
	C1637	C	0.587051	0.375429	0.542547
	C1638	C	0.578316	0.464449	0.533738
	C1639	C	0.561566	0.464494	0.515892
	C1640	C	0.553052	0.375436	0.506521
	C1641	C	0.561825	0.286456	0.515194
	C1642	C	0.578557	0.286503	0.533039
	C1643	C	0.534935	0.375402	0.487392
	C1644	C	0.657682	0.374908	0.569716
	C1645	C	0.675849	0.375143	0.553541
	C1646	C	0.684573	0.285880	0.546204
	C1647	C	0.701549	0.286059	0.531686
	C1648	C	0.710220	0.375494	0.524350
	C1649	C	0.701498	0.464713	0.531699
	C1650	C	0.684509	0.464584	0.546238
	C1651	C	0.728420	0.375229	0.508431
	H1652	H	0.708153	0.217072	0.525893
	H1653	H	0.678026	0.216834	0.551976
	H1654	H	0.701114	0.282977	0.706549
	H1655	H	0.674034	0.282607	0.668215
	H1656	H	0.631459	0.124017	0.559792
	H1657	H	0.629402	0.374471	0.643809
	H1658	H	0.506394	0.374969	0.684575
	H1659	H	0.754214	0.124971	0.518686
	H1660	H	0.585072	0.217437	0.539865
	H1661	H	0.555437	0.217572	0.507801
	H1662	H	0.552767	0.283579	0.676735
	H1663	H	0.582946	0.283505	0.650563
	H1664	H	0.555066	0.533490	0.509013
	H1665	H	0.584674	0.533107	0.541232
	H1666	H	0.583006	-0.032866	0.650796
	H1667	H	0.552942	-0.033310	0.676997
	H1668	H	0.673840	-0.033432	0.668599
	H1669	H	0.700922	-0.033261	0.707129
	H1670	H	0.677902	0.533707	0.552043
	H1671	H	0.708054	0.533906	0.525888
	Al1672	Al	0.619400	-0.500002	0.898088
	Al1673	Al	0.619462	-0.250123	0.898031
	Al1674	Al	0.505508	-0.250153	0.726390
	Al1675	Al	0.505451	-0.500296	0.726486
	O1676	O	0.638364	-0.459286	0.929211
	O1677	O	0.620022	-0.375120	0.877918
	O1678	O	0.618981	-0.125339	0.918199
	O1679	O	0.722167	-0.459003	1.020007
	O1680	O	0.599639	-0.458877	0.924042
	O1681	O	0.514538	-0.458605	0.997494
	O1682	O	0.599568	-0.290626	0.923948
	O1683	O	0.600968	-0.209343	0.866165
	O1684	O	0.523905	-0.209282	0.758444
	O1685	O	0.638349	-0.291163	0.929190
	O1686	O	0.639401	-0.209230	0.872141
	O1687	O	0.724568	-0.209409	0.799219
	O1688	O	0.514477	-0.290420	0.997495
	O1689	O	0.601037	-0.041376	0.866204
	O1690	O	0.523954	-0.041008	0.758285
	O1691	O	0.724685	-0.041092	0.799080
	O1692	O	0.639482	-0.040826	0.872397
	O1693	O	0.722113	-0.291014	1.020201
	O1694	O	0.495068	-0.125131	1.003234
	O1695	O	0.744075	-0.374919	0.793541
	C1696	C	0.688377	-0.285652	0.984321
	C1697	C	0.696969	-0.374723	0.993471
	C1698	C	0.688302	-0.463797	0.984537
	C1699	C	0.671620	-0.464238	0.966493
	C1700	C	0.663101	-0.375186	0.957143
	C1701	C	0.671688	-0.286100	0.966255
	C1702	C	0.645379	-0.375197	0.936851
	C1703	C	0.714984	-0.374818	1.012881
	C1704	C	0.592441	-0.374981	0.930124
	C1705	C	0.574259	-0.374662	0.946130
	C1706	C	0.565626	-0.285600	0.953639
	C1707	C	0.548630	-0.285630	0.968155
	C1708	C	0.539835	-0.374628	0.975287
	C1709	C	0.548484	-0.464018	0.967938
	C1710	C	0.565516	-0.463908	0.953452
	C1711	C	0.521690	-0.374514	0.991398
	C1712	C	0.594520	-0.125157	0.857097
	C1713	C	0.578024	-0.124930	0.833751
	C1714	C	0.570236	-0.035867	0.822688
	C1715	C	0.554888	-0.035788	0.801195
	C1716	C	0.546984	-0.124772	0.790420
	C1717	C	0.554762	-0.213627	0.801536
	C1718	C	0.570099	-0.213712	0.823022
	C1719	C	0.530459	-0.125035	0.767287
	C1720	C	0.646639	-0.125159	0.866322
	C1721	C	0.664869	-0.124827	0.850465
	C1722	C	0.673543	-0.214123	0.843054
	C1723	C	0.690558	-0.214322	0.828618
	C1724	C	0.699290	-0.125083	0.821401
	C1725	C	0.690625	-0.035863	0.828834
	C1726	C	0.673610	-0.035615	0.843267
	C1727	C	0.717446	-0.125289	0.805233
	H1728	H	0.697143	-0.283447	0.822827
	H1729	H	0.666948	-0.283159	0.848592
	H1730	H	0.694839	-0.216777	0.991370
	H1731	H	0.665284	-0.217265	0.958968
	H1732	H	0.620724	-0.375436	0.856057
	H1733	H	0.618497	-0.125047	0.940112
	H1734	H	0.496049	-0.125081	0.981486
	H1735	H	0.743633	-0.374354	0.815395
	H1736	H	0.575902	-0.282764	0.831546
	H1737	H	0.548803	-0.282711	0.793348
	H1738	H	0.542175	-0.216368	0.974119
	H1739	H	0.572333	-0.216509	0.948161
	H1740	H	0.549108	0.033328	0.792737
	H1741	H	0.576204	0.033163	0.830992
	H1742	H	0.572085	-0.532881	0.947757
	H1743	H	0.541828	-0.532818	0.973694
	H1744	H	0.665227	-0.533309	0.959497
	H1745	H	0.694734	-0.532818	0.991696
	H1746	H	0.667009	0.033330	0.849012
	H1747	H	0.697236	0.032908	0.823094
	Al1748	Al	0.619478	-0.000129	0.898130
	Al1749	Al	0.619362	0.249659	0.898192
	Al1750	Al	0.505451	0.249963	0.726535
	Al1751	Al	0.505524	0.000102	0.726391
	O1752	O	0.638129	0.040923	0.929547
	O1753	O	0.619924	0.124859	0.878147
	O1754	O	0.618904	0.374870	0.918242
	O1755	O	0.722122	0.040473	1.020004
	O1756	O	0.599549	0.040435	0.924056
	O1757	O	0.514379	0.040838	0.997370
	O1758	O	0.599626	0.208955	0.924278
	O1759	O	0.600993	0.290954	0.866077
	O1760	O	0.523954	0.290509	0.758258
	O1761	O	0.638173	0.209454	0.929613
	O1762	O	0.639332	0.290573	0.872537
	O1763	O	0.724566	0.290809	0.799083
	O1764	O	0.514423	0.209149	0.997431
	O1765	O	0.601028	0.458768	0.866030
	O1766	O	0.523840	0.458657	0.758367
	O1767	O	0.724589	0.459204	0.799248
	O1768	O	0.639366	0.458697	0.872523
	O1769	O	0.722262	0.208780	1.019599
	O1770	O	0.495110	0.375057	1.003160
	O1771	O	0.744118	0.124819	0.793453
	C1772	C	0.688260	0.213900	0.984530
	C1773	C	0.696927	0.124701	0.993320
	C1774	C	0.688356	0.035530	0.984168
	C1775	C	0.671590	0.035446	0.966277
	C1776	C	0.662981	0.124669	0.957388
	C1777	C	0.671509	0.213734	0.966624
	C1778	C	0.645152	0.124884	0.937235
	C1779	C	0.715000	0.124776	1.012564
	C1780	C	0.592444	0.124825	0.930265
	C1781	C	0.574270	0.124681	0.946440
	C1782	C	0.565625	0.214120	0.953889
	C1783	C	0.548571	0.214156	0.968357
	C1784	C	0.539831	0.124924	0.975503
	C1785	C	0.548543	0.035537	0.968217
	C1786	C	0.565568	0.035567	0.953793
	C1787	C	0.521538	0.124906	0.991351
	C1788	C	0.594557	0.374787	0.857073
	C1789	C	0.578084	0.374807	0.833714
	C1790	C	0.570173	0.463973	0.822787
	C1791	C	0.554818	0.463888	0.801371
	C1792	C	0.546962	0.374863	0.790328
	C1793	C	0.554865	0.285867	0.801244
	C1794	C	0.570214	0.285834	0.822639
	C1795	C	0.530444	0.374779	0.767282
	C1796	C	0.646581	0.374657	0.866541
	C1797	C	0.664755	0.374525	0.850562
	C1798	C	0.673384	0.285483	0.842936
	C1799	C	0.690394	0.285712	0.828345
	C1800	C	0.699192	0.374797	0.821236
	C1801	C	0.690532	0.463810	0.828854
	C1802	C	0.673529	0.463738	0.843456
	C1803	C	0.717370	0.375056	0.805194
	H1804	H	0.696936	0.216663	0.822331
	H1805	H	0.666753	0.216270	0.848510
	H1806	H	0.694648	0.283033	0.991749
	H1807	H	0.664978	0.282729	0.959693
	H1808	H	0.620622	0.124871	0.856119
	H1809	H	0.618786	0.375100	0.940191
	H1810	H	0.495762	0.375122	0.981329
	H1811	H	0.744009	0.124782	0.815397
	H1812	H	0.576110	0.216534	0.831067
	H1813	H	0.548952	0.216547	0.792874
	H1814	H	0.541993	0.283003	0.974185
	H1815	H	0.572221	0.282918	0.948186
	H1816	H	0.548826	0.533049	0.793023
	H1817	H	0.576094	0.533171	0.831112
	H1818	H	0.572136	-0.033522	0.948092
	H1819	H	0.541975	-0.033406	0.973893
	H1820	H	0.665186	-0.033467	0.959085
	H1821	H	0.694818	-0.033454	0.991132
	H1822	H	0.667038	0.532572	0.849426
	H1823	H	0.697131	0.532875	0.823310
	Al1824	Al	0.882405	-0.499704	0.077002
	Al1825	Al	0.882290	-0.250595	0.077013
	Al1826	Al	0.742519	-0.250759	0.048167
	Al1827	Al	0.742450	-0.499739	0.048051
	O1828	O	0.902687	-0.459246	0.104829
	O1829	O	0.880982	-0.375152	0.056728
	O1830	O	0.882940	-0.125151	0.097610
	O1831	O	0.986517	-0.459351	0.195353
	O1832	O	0.863793	-0.459528	0.106548
	O1833	O	0.776345	-0.459600	0.174247
	O1834	O	0.863920	-0.291408	0.106986
	O1835	O	0.860332	-0.209061	0.052506
	O1836	O	0.764374	-0.209032	0.072731
	O1837	O	0.902754	-0.290949	0.104750
	O1838	O	0.901211	-0.209580	0.049011
	O1839	O	0.988919	-0.209374	-0.017869
	O1840	O	0.776298	-0.291234	0.174258
	O1841	O	0.860317	-0.040797	0.052415
	O1842	O	0.764370	-0.040585	0.072371
	O1843	O	0.988897	-0.041240	-0.017886
	O1844	O	0.901236	-0.041396	0.049072
	O1845	O	0.986656	-0.291400	0.195189
	O1846	O	0.756028	-0.125350	0.181817
	O1847	O	1.008077	-0.375127	-0.027020
	C1848	C	0.953313	-0.286049	0.158217
	C1849	C	0.961764	-0.375007	0.167674
	C1850	C	0.953150	-0.464175	0.158740
	C1851	C	0.936455	-0.464150	0.140703
	C1852	C	0.927944	-0.375138	0.131359
	C1853	C	0.936597	-0.286166	0.140203
	C1854	C	0.909882	-0.375143	0.112116
	C1855	C	0.979580	-0.375349	0.187672
	C1856	C	0.856671	-0.375578	0.113092
	C1857	C	0.838231	-0.375285	0.128948
	C1858	C	0.829231	-0.285510	0.135525
	C1859	C	0.811631	-0.285427	0.148181
	C1860	C	0.802615	-0.375141	0.154697
	C1861	C	0.811711	-0.464867	0.148429
	C1862	C	0.829270	-0.464866	0.135712
	C1863	C	0.783766	-0.375367	0.168916
	C1864	C	0.852129	-0.124918	0.053351
	C1865	C	0.831479	-0.124894	0.056733
	C1866	C	0.821774	-0.035123	0.059626
	C1867	C	0.802928	-0.034972	0.065384
	C1868	C	0.793229	-0.124774	0.068251
	C1869	C	0.802943	-0.214605	0.065360
	C1870	C	0.821788	-0.214799	0.059639
	C1871	C	0.772559	-0.124789	0.071552
	C1872	C	0.908688	-0.125611	0.043706
	C1873	C	0.927596	-0.125735	0.029707
	C1874	C	0.936680	-0.215349	0.023383
	C1875	C	0.954267	-0.215059	0.010794
	C1876	C	0.963304	-0.125264	0.004234
	C1877	C	0.954310	-0.035737	0.010999
	C1878	C	0.936735	-0.035983	0.023624
	C1879	C	0.981730	-0.125407	-0.011542
	H1880	H	0.961053	-0.285087	0.005899
	H1881	H	0.929895	-0.285107	0.028106
	H1882	H	0.959785	-0.217031	0.165145
	H1883	H	0.930221	-0.217021	0.132974
	H1884	H	0.879291	-0.375637	0.034948
	H1885	H	0.883489	-0.124811	0.119682
	H1886	H	0.753886	-0.125464	0.160128
	H1887	H	1.008512	-0.375125	-0.004895
	H1888	H	0.829069	-0.284684	0.057410
	H1889	H	0.795615	-0.284351	0.067863
	H1890	H	0.804816	-0.215514	0.152944
	H1891	H	0.835906	-0.215416	0.130445
	H1892	H	0.795699	0.034947	0.067720
	H1893	H	0.829094	0.034639	0.057386
	H1894	H	0.836049	-0.534717	0.130643
	H1895	H	0.805014	-0.534883	0.153468
	H1896	H	0.929907	-0.533300	0.133857
	H1897	H	0.959506	-0.533268	0.166060
	H1898	H	0.929977	0.033719	0.028717
	H1899	H	0.961111	0.034192	0.006343
	Al1900	Al	0.882333	0.000356	0.077002
	Al1901	Al	0.882297	0.249243	0.076747
	Al1902	Al	0.742539	0.249325	0.047543
	Al1903	Al	0.742489	0.000495	0.047748
	O1904	O	0.902768	0.040999	0.104647
	O1905	O	0.880977	0.124562	0.056590
	O1906	O	0.883018	0.374725	0.097373
	O1907	O	0.986675	0.040856	0.195203
	O1908	O	0.863786	0.041044	0.106644
	O1909	O	0.776265	0.040998	0.174100
	O1910	O	0.863831	0.209180	0.106538
	O1911	O	0.860347	0.290549	0.052179
	O1912	O	0.764339	0.290399	0.072470
	O1913	O	0.902720	0.209134	0.104618
	O1914	O	0.901167	0.291061	0.048792
	O1915	O	0.988974	0.290742	-0.017578
	O1916	O	0.776282	0.209366	0.174256
	O1917	O	0.860386	0.458617	0.052300
	O1918	O	0.764335	0.458533	0.072790
	O1919	O	0.988917	0.459046	-0.017730
	O1920	O	0.901129	0.459453	0.048697
	O1921	O	0.986696	0.208622	0.195426
	O1922	O	0.756063	0.374954	0.181845
	O1923	O	1.008143	0.124944	-0.027029
	C1924	C	0.953309	0.213995	0.158358
	C1925	C	0.961829	0.125066	0.167657
	C1926	C	0.953224	0.036156	0.158573
	C1927	C	0.936481	0.036251	0.140630
	C1928	C	0.927951	0.125181	0.131330
	C1929	C	0.936573	0.214182	0.140386
	C1930	C	0.909931	0.125140	0.112052
	C1931	C	0.979640	0.124853	0.187641
	C1932	C	0.856611	0.125257	0.112894
	C1933	C	0.838289	0.125450	0.128949
	C1934	C	0.829281	0.215122	0.135759
	C1935	C	0.811726	0.215090	0.148456
	C1936	C	0.802600	0.125262	0.154713
	C1937	C	0.811706	0.035762	0.148236
	C1938	C	0.829261	0.035695	0.135562
	C1939	C	0.783753	0.125226	0.168723
	C1940	C	0.852127	0.374634	0.053220
	C1941	C	0.831460	0.374445	0.056786
	C1942	C	0.821757	0.464329	0.059481
	C1943	C	0.802904	0.464484	0.065206
	C1944	C	0.793190	0.374733	0.068260
	C1945	C	0.802874	0.284859	0.065428
	C1946	C	0.821732	0.284781	0.059708
	C1947	C	0.772532	0.374515	0.071603
	C1948	C	0.908616	0.375247	0.043478
	C1949	C	0.927490	0.374881	0.029436
	C1950	C	0.936584	0.285090	0.023268
	C1951	C	0.954218	0.285093	0.010761
	C1952	C	0.963267	0.374870	0.004232
	C1953	C	0.954247	0.464623	0.010864
	C1954	C	0.936622	0.464622	0.023366
	C1955	C	0.981767	0.374940	-0.011442
	H1956	H	0.960959	0.214964	0.005822
	H1957	H	0.929773	0.215131	0.028119
	H1958	H	0.959730	0.283053	0.165527
	H1959	H	0.930132	0.283496	0.133318
	H1960	H	0.878913	0.124456	0.034811
	H1961	H	0.883543	0.374262	0.119482
	H1962	H	0.754233	0.374626	0.159874
	H1963	H	1.008516	0.124534	-0.004885
	H1964	H	0.829043	0.214661	0.057546
	H1965	H	0.795640	0.214901	0.067874
	H1966	H	0.804947	0.284928	0.153350
	H1967	H	0.836089	0.285055	0.130687
	H1968	H	0.795650	0.534513	0.067549
	H1969	H	0.829056	0.534315	0.057199
	H1970	H	0.835961	-0.034329	0.130499
	H1971	H	0.804855	-0.034076	0.153071
	H1972	H	0.930062	-0.032868	0.133791
	H1973	H	0.959546	-0.032806	0.165859
	H1974	H	0.929858	0.534349	0.028419
	H1975	H	0.961029	0.534786	0.006056
	Al1976	Al	0.880625	-0.500257	0.351711
	Al1977	Al	0.880580	-0.250453	0.351814
	Al1978	Al	0.757343	-0.249913	0.202161
	Al1979	Al	0.757363	-0.500643	0.202154
	O1980	O	0.899091	-0.459288	0.383545
	O1981	O	0.880989	-0.375073	0.331641
	O1982	O	0.880102	-0.125278	0.371805
	O1983	O	0.976140	-0.459176	0.491352
	O1984	O	0.860569	-0.459485	0.377436
	O1985	O	0.775452	-0.459018	0.450622
	O1986	O	0.860640	-0.291054	0.377430
	O1987	O	0.861706	-0.209378	0.320515
	O1988	O	0.777835	-0.209447	0.229758
	O1989	O	0.899070	-0.291162	0.383671
	O1990	O	0.900519	-0.209713	0.325855
	O1991	O	0.985445	-0.209416	0.252052
	O1992	O	0.775461	-0.290609	0.450676
	O1993	O	0.861733	-0.041146	0.320283
	O1994	O	0.777819	-0.041328	0.229755
	O1995	O	0.985533	-0.041241	0.252021
	O1996	O	0.900462	-0.041228	0.325928
	O1997	O	0.976079	-0.291012	0.491359
	O1998	O	0.755972	-0.124661	0.456505
	O1999	O	1.004870	-0.375048	0.246419
	C2000	C	0.945312	-0.285935	0.448176
	C2001	C	0.953135	-0.375104	0.459261
	C2002	C	0.945204	-0.464266	0.448427
	C2003	C	0.929899	-0.464546	0.426947
	C2004	C	0.922090	-0.375432	0.415788
	C2005	C	0.929998	-0.286220	0.426685
	C2006	C	0.905616	-0.375261	0.392486
	C2007	C	0.969616	-0.375099	0.482504
	C2008	C	0.853389	-0.375111	0.383350
	C2009	C	0.835104	-0.374897	0.399141
	C2010	C	0.826404	-0.285763	0.406439
	C2011	C	0.809403	-0.285833	0.420973
	C2012	C	0.800755	-0.374927	0.428434
	C2013	C	0.809441	-0.464027	0.421115
	C2014	C	0.826446	-0.463876	0.406581
	C2015	C	0.782600	-0.374895	0.444540
	C2016	C	0.854753	-0.125507	0.312717
	C2017	C	0.836871	-0.125585	0.292758
	C2018	C	0.828366	-0.036587	0.283442
	C2019	C	0.811670	-0.036408	0.265375
	C2020	C	0.803035	-0.125341	0.256412
	C2021	C	0.811585	-0.214350	0.265551
	C2022	C	0.828279	-0.214462	0.283588
	C2023	C	0.784999	-0.125490	0.237020
	C2024	C	0.907649	-0.125191	0.319724
	C2025	C	0.925761	-0.124845	0.303485
	C2026	C	0.934403	-0.213882	0.295998
	C2027	C	0.951359	-0.214116	0.281335
	C2028	C	0.960097	-0.124879	0.274087
	C2029	C	0.951473	-0.035657	0.281607
	C2030	C	0.934468	-0.035646	0.296239
	C2031	C	0.978337	-0.125301	0.258097
	H2032	H	0.957906	-0.283493	0.275623
	H2033	H	0.927836	-0.283088	0.301616
	H2034	H	0.951290	-0.216765	0.456503
	H2035	H	0.924066	-0.217211	0.418097
	H2036	H	0.881318	-0.375150	0.309785
	H2037	H	0.879788	-0.124643	0.393726
	H2038	H	0.756055	-0.125045	0.434515
	H2039	H	1.003381	-0.374550	0.268081
	H2040	H	0.834739	-0.283297	0.290618
	H2041	H	0.805174	-0.283322	0.258487
	H2042	H	0.802766	-0.216950	0.426637
	H2043	H	0.832958	-0.216596	0.400663
	H2044	H	0.805288	0.032576	0.258276
	H2045	H	0.834959	0.032221	0.290343
	H2046	H	0.833104	-0.532671	0.400812
	H2047	H	0.802894	-0.533141	0.426924
	H2048	H	0.923940	-0.533599	0.418693
	H2049	H	0.951088	-0.533257	0.457035
	H2050	H	0.927870	0.033119	0.302116
	H2051	H	0.958146	0.033387	0.276078
	Al2052	Al	0.880569	-0.000277	0.351589
	Al2053	Al	0.880571	0.249816	0.351542
	Al2054	Al	0.757361	0.250586	0.202258
	Al2055	Al	0.757395	-0.000575	0.202178
	O2056	O	0.899005	0.040966	0.383566
	O2057	O	0.881046	0.124679	0.331331
	O2058	O	0.880095	0.374725	0.371750
	O2059	O	0.976029	0.041340	0.491272
	O2060	O	0.860654	0.040597	0.377406
	O2061	O	0.775413	0.040938	0.450756
	O2062	O	0.860669	0.209233	0.377363
	O2063	O	0.861693	0.291030	0.320343
	O2064	O	0.777777	0.291356	0.230136
	O2065	O	0.899008	0.209224	0.383590
	O2066	O	0.900495	0.291185	0.325682
	O2067	O	0.985535	0.290754	0.252185
	O2068	O	0.775504	0.209756	0.450755
	O2069	O	0.861787	0.459262	0.320407
	O2070	O	0.777657	0.459317	0.230074
	O2071	O	0.985583	0.458900	0.252188
	O2072	O	0.900461	0.459380	0.325726
	O2073	O	0.976131	0.209598	0.491206
	O2074	O	0.756115	0.375084	0.456584
	O2075	O	1.005058	0.124524	0.246518
	C2076	C	0.945204	0.214490	0.448073
	C2077	C	0.953053	0.125384	0.459081
	C2078	C	0.945173	0.036091	0.448234
	C2079	C	0.929826	0.036137	0.426797
	C2080	C	0.921993	0.125263	0.415755
	C2081	C	0.929860	0.214624	0.426636
	C2082	C	0.905547	0.125211	0.392402
	C2083	C	0.969560	0.125404	0.482351
	C2084	C	0.853524	0.124986	0.383453
	C2085	C	0.835271	0.124782	0.399503
	C2086	C	0.826515	0.213989	0.406586
	C2087	C	0.809471	0.214106	0.421071
	C2088	C	0.800806	0.124851	0.428538
	C2089	C	0.809460	0.035551	0.421184
	C2090	C	0.826487	0.035510	0.406716
	C2091	C	0.782638	0.125323	0.444706
	C2092	C	0.854734	0.375231	0.312639
	C2093	C	0.836945	0.375737	0.292516
	C2094	C	0.828383	0.464878	0.283345
	C2095	C	0.811642	0.465006	0.265514
	C2096	C	0.803032	0.375817	0.256495
	C2097	C	0.811582	0.286726	0.265712
	C2098	C	0.828341	0.286642	0.283532
	C2099	C	0.784885	0.375458	0.237342
	C2100	C	0.907600	0.375381	0.319535
	C2101	C	0.925768	0.375075	0.303359
	C2102	C	0.934391	0.286016	0.295903
	C2103	C	0.951380	0.285948	0.281334
	C2104	C	0.960148	0.374971	0.274146
	C2105	C	0.951456	0.463889	0.281377
	C2106	C	0.934487	0.463891	0.295912
	C2107	C	0.978374	0.374825	0.258194
	H2108	H	0.957985	0.217081	0.275482
	H2109	H	0.927742	0.217071	0.301439
	H2110	H	0.951133	0.283438	0.456391
	H2111	H	0.923972	0.283953	0.418080
	H2112	H	0.881285	0.124971	0.309461
	H2113	H	0.879741	0.375175	0.393705
	H2114	H	0.756350	0.375188	0.434542
	H2115	H	1.004510	0.124937	0.268379
	H2116	H	0.834732	0.217505	0.290758
	H2117	H	0.805042	0.217655	0.258933
	H2118	H	0.802868	0.283210	0.426643
	H2119	H	0.833132	0.282689	0.400701
	H2120	H	0.805123	0.534102	0.258592
	H2121	H	0.834823	0.534128	0.290446
	H2122	H	0.833011	-0.033743	0.400974
	H2123	H	0.802813	-0.033184	0.426819
	H2124	H	0.923880	-0.032932	0.418496
	H2125	H	0.951030	-0.032754	0.456783
	H2126	H	0.927885	0.532718	0.301522
	H2127	H	0.958053	0.532764	0.275635
	Al2128	Al	0.869529	-0.500185	0.648282
	Al2129	Al	0.869443	-0.250124	0.648338
	Al2130	Al	0.755610	-0.249965	0.476496
	Al2131	Al	0.755630	-0.500235	0.476658
	O2132	O	0.888462	-0.458672	0.679506
	O2133	O	0.870046	-0.375129	0.628157
	O2134	O	0.868943	-0.124968	0.668356
	O2135	O	0.972055	-0.458422	0.770665
	O2136	O	0.849632	-0.459390	0.674158
	O2137	O	0.764606	-0.459149	0.747624
	O2138	O	0.849629	-0.291135	0.674219
	O2139	O	0.850965	-0.209293	0.616284
	O2140	O	0.773982	-0.208608	0.508544
	O2141	O	0.888378	-0.290518	0.679563
	O2142	O	0.889419	-0.208864	0.622629
	O2143	O	0.974542	-0.209222	0.549059
	O2144	O	0.764587	-0.290867	0.747682
	O2145	O	0.851062	-0.041028	0.616344
	O2146	O	0.774020	-0.040502	0.508459
	O2147	O	0.974568	-0.040722	0.549105
	O2148	O	0.889559	-0.040521	0.622763
	O2149	O	0.972170	-0.290511	0.770660
	O2150	O	0.745111	-0.125047	0.753140
	O2151	O	0.994155	-0.374627	0.543371
	C2152	C	0.938414	-0.285033	0.734619
	C2153	C	0.946943	-0.374047	0.743883
	C2154	C	0.938322	-0.463051	0.734849
	C2155	C	0.921679	-0.463115	0.716769
	C2156	C	0.913213	-0.374172	0.707313
	C2157	C	0.921743	-0.285069	0.716568
	C2158	C	0.895386	-0.374356	0.687198
	C2159	C	0.964961	-0.374583	0.763295
	C2160	C	0.842466	-0.375484	0.680293
	C2161	C	0.824325	-0.375362	0.696399
	C2162	C	0.815726	-0.286067	0.703918
	C2163	C	0.798739	-0.285907	0.718434
	C2164	C	0.789995	-0.374954	0.725662
	C2165	C	0.798622	-0.464278	0.718172
	C2166	C	0.815588	-0.464546	0.703559
	C2167	C	0.771750	-0.375122	0.741657
	C2168	C	0.844472	-0.125060	0.607378
	C2169	C	0.828015	-0.124802	0.584076
	C2170	C	0.820226	-0.035690	0.573001
	C2171	C	0.804910	-0.035637	0.551552
	C2172	C	0.797001	-0.124589	0.540644
	C2173	C	0.804754	-0.213583	0.551736
	C2174	C	0.820043	-0.213806	0.573242
	C2175	C	0.780521	-0.124722	0.517358
	C2176	C	0.896630	-0.124818	0.616630
	C2177	C	0.914926	-0.125248	0.600769
	C2178	C	0.923635	-0.214447	0.593530
	C2179	C	0.940649	-0.214562	0.578904
	C2180	C	0.949209	-0.125344	0.571296
	C2181	C	0.940527	-0.036208	0.578638
	C2182	C	0.923543	-0.036072	0.593249
	C2183	C	0.967422	-0.125036	0.555235
	H2184	H	0.947227	-0.283379	0.573314
	H2185	H	0.917063	-0.283495	0.599406
	H2186	H	0.944854	-0.216116	0.741678
	H2187	H	0.915279	-0.216234	0.709409
	H2188	H	0.870471	-0.375142	0.606310
	H2189	H	0.868526	-0.125051	0.690156
	H2190	H	0.745995	-0.125278	0.731367
	H2191	H	0.993868	-0.374900	0.565272
	H2192	H	0.825908	-0.283081	0.581739
	H2193	H	0.798781	-0.282521	0.543455
	H2194	H	0.792170	-0.216733	0.724288
	H2195	H	0.822334	-0.217259	0.698224
	H2196	H	0.799064	0.033474	0.542980
	H2197	H	0.826190	0.033416	0.581209
	H2198	H	0.822140	-0.533615	0.697664
	H2199	H	0.791934	-0.533273	0.723864
	H2200	H	0.915207	-0.532366	0.709822
	H2201	H	0.944739	-0.532342	0.742113
	H2202	H	0.916929	0.033014	0.598800
	H2203	H	0.947056	0.032759	0.572822
	Al2204	Al	0.869451	0.000077	0.648284
	Al2205	Al	0.869460	0.249802	0.648295
	Al2206	Al	0.755585	0.250101	0.476661
	Al2207	Al	0.755572	0.000142	0.476650
	O2208	O	0.888300	0.040683	0.679526
	O2209	O	0.869954	0.125082	0.628070
	O2210	O	0.869191	0.375062	0.668378
	O2211	O	0.972219	0.041170	0.770204
	O2212	O	0.849595	0.041178	0.674198
	O2213	O	0.764556	0.040973	0.747571
	O2214	O	0.849542	0.209415	0.674132
	O2215	O	0.851106	0.291129	0.616363
	O2216	O	0.773938	0.291068	0.508587
	O2217	O	0.888238	0.209058	0.679584
	O2218	O	0.889617	0.290662	0.622837
	O2219	O	0.974590	0.291275	0.549026
	O2220	O	0.764548	0.209339	0.747683
	O2221	O	0.851017	0.459145	0.616384
	O2222	O	0.774049	0.459330	0.508595
	O2223	O	0.974622	0.459778	0.548994
	O2224	O	0.889461	0.459078	0.622520
	O2225	O	0.972124	0.209330	0.770223
	O2226	O	0.745075	0.375059	0.753261
	O2227	O	0.993957	0.124988	0.543314
	C2228	C	0.938269	0.214078	0.734787
	C2229	C	0.946872	0.125096	0.743929
	C2230	C	0.938245	0.035936	0.734828
	C2231	C	0.921522	0.035873	0.716909
	C2232	C	0.912989	0.124842	0.707600
	C2233	C	0.921549	0.213942	0.716851
	C2234	C	0.895247	0.124725	0.687380
	C2235	C	0.965031	0.125173	0.762956
	C2236	C	0.842444	0.125251	0.680348
	C2237	C	0.824294	0.125207	0.696516
	C2238	C	0.815667	0.214479	0.703941
	C2239	C	0.798663	0.214419	0.718471
	C2240	C	0.789945	0.125280	0.725725
	C2241	C	0.798623	0.035977	0.718450
	C2242	C	0.815611	0.035986	0.703875
	C2243	C	0.771733	0.125239	0.741615
	C2244	C	0.844536	0.375126	0.607409
	C2245	C	0.828021	0.374965	0.584193
	C2246	C	0.820138	0.464058	0.573224
	C2247	C	0.804857	0.464064	0.551729
	C2248	C	0.796972	0.374857	0.540794
	C2249	C	0.804779	0.285792	0.551805
	C2250	C	0.820102	0.285892	0.573262
	C2251	C	0.780490	0.375136	0.517462
	C2252	C	0.896697	0.374746	0.616543
	C2253	C	0.914934	0.375259	0.600619
	C2254	C	0.923669	0.286095	0.593206
	C2255	C	0.940688	0.285911	0.578705
	C2256	C	0.949302	0.375289	0.571264
	C2257	C	0.940600	0.464375	0.578747
	C2258	C	0.923586	0.464428	0.593248
	C2259	C	0.967486	0.375501	0.555174
	H2260	H	0.947304	0.217064	0.573035
	H2261	H	0.917104	0.216948	0.598916
	H2262	H	0.944814	0.283031	0.741819
	H2263	H	0.915123	0.283025	0.709693
	H2264	H	0.870629	0.125001	0.606257
	H2265	H	0.869182	0.374921	0.690133
	H2266	H	0.745914	0.375200	0.731327
	H2267	H	0.993797	0.124790	0.565178
	H2268	H	0.826052	0.216957	0.581668
	H2269	H	0.798825	0.217022	0.543416
	H2270	H	0.792155	0.283709	0.724209
	H2271	H	0.822283	0.283384	0.698261
	H2272	H	0.798984	0.533111	0.543152
	H2273	H	0.826046	0.533281	0.581558
	H2274	H	0.822172	-0.032956	0.698218
	H2275	H	0.792024	-0.032907	0.724223
	H2276	H	0.915067	-0.033152	0.709638
	H2277	H	0.944736	-0.032937	0.741761
	H2278	H	0.916970	0.533388	0.599022
	H2279	H	0.947174	0.533443	0.573124
	Al2280	Al	0.867496	-0.500544	0.923054
	Al2281	Al	0.867611	-0.249468	0.923098
	Al2282	Al	0.744555	-0.250109	0.773323
	Al2283	Al	0.744544	-0.499819	0.773430
	O2284	O	0.889394	-0.459117	0.947871
	O2285	O	0.866881	-0.375064	0.902623
	O2286	O	0.868926	-0.124872	0.943482
	O2287	O	0.985521	-0.459463	0.927843
	O2288	O	0.848570	-0.459140	0.950961
	O2289	O	0.761004	-0.458930	1.018358
	O2290	O	0.848647	-0.290686	0.951079
	O2291	O	0.847242	-0.208790	0.895272
	O2292	O	0.763377	-0.208841	0.804555
	O2293	O	0.889478	-0.290941	0.947729
	O2294	O	0.886116	-0.209057	0.893468
	O2295	O	0.973688	-0.208830	0.826163
	O2296	O	0.761087	-0.290720	1.018493
	O2297	O	0.847182	-0.040756	0.895535
	O2298	O	0.763442	-0.040622	0.804537
	O2299	O	0.973609	-0.040395	0.826054
	O2300	O	0.886135	-0.040846	0.893658
	O2301	O	0.985463	-0.291072	0.927847
	O2302	O	0.741749	-0.125432	1.027365
	O2303	O	0.993813	-0.374771	0.818556
	C2304	C	0.946908	-0.285531	0.934799
	C2305	C	0.956608	-0.375412	0.932063
	C2306	C	0.946901	-0.465205	0.935050
	C2307	C	0.928033	-0.465194	0.940735
	C2308	C	0.918338	-0.375298	0.943603
	C2309	C	0.928034	-0.285531	0.940511
	C2310	C	0.897644	-0.375152	0.946816
	C2311	C	0.977298	-0.375330	0.928712
	C2312	C	0.841180	-0.374863	0.956373
	C2313	C	0.822369	-0.375113	0.970574
	C2314	C	0.813236	-0.285217	0.976808
	C2315	C	0.795665	-0.284955	0.989448
	C2316	C	0.786656	-0.374732	0.996307
	C2317	C	0.795618	-0.464696	0.989300
	C2318	C	0.813186	-0.464969	0.976624
	C2319	C	0.768243	-0.374914	1.012121
	C2320	C	0.840072	-0.124606	0.887994
	C2321	C	0.822014	-0.124708	0.868752
	C2322	C	0.813343	-0.035730	0.859759
	C2323	C	0.796642	-0.035861	0.841713
	C2324	C	0.788150	-0.124818	0.832371
	C2325	C	0.796744	-0.213779	0.841576
	C2326	C	0.813440	-0.213661	0.859585
	C2327	C	0.770424	-0.124948	0.812252
	C2328	C	0.893330	-0.124859	0.887236
	C2329	C	0.911674	-0.125202	0.871250
	C2330	C	0.920697	-0.214696	0.864629
	C2331	C	0.938253	-0.214419	0.851898
	C2332	C	0.947316	-0.124786	0.845531
	C2333	C	0.938173	-0.035378	0.851636
	C2334	C	0.920612	-0.035635	0.864406
	C2335	C	0.966177	-0.124695	0.831516
	H2336	H	0.945064	-0.284196	0.846988
	H2337	H	0.913977	-0.284661	0.869701
	H2338	H	0.954222	-0.215424	0.932580
	H2339	H	0.920826	-0.215624	0.942876
	H2340	H	0.866079	-0.374357	0.880512
	H2341	H	0.870663	-0.125057	0.965364
	H2342	H	0.741126	-0.125169	1.005074
	H2343	H	0.995460	-0.374653	0.840393
	H2344	H	0.819972	-0.282786	0.866384
	H2345	H	0.790305	-0.282786	0.834386
	H2346	H	0.788884	-0.214885	0.994341
	H2347	H	0.820021	-0.215554	0.971681
	H2348	H	0.790155	0.032983	0.834738
	H2349	H	0.819773	0.033171	0.866823
	H2350	H	0.819932	-0.534730	0.971402
	H2351	H	0.788774	-0.534392	0.994061
	H2352	H	0.920765	-0.535172	0.943221
	H2353	H	0.954213	-0.535395	0.933004
	H2354	H	0.913826	0.034077	0.869248
	H2355	H	0.944870	0.034337	0.846594
	Al2356	Al	0.867667	-0.000518	0.923295
	Al2357	Al	0.867554	0.250657	0.923278
	Al2358	Al	0.744503	0.249861	0.773333
	Al2359	Al	0.744541	0.000026	0.773242
	O2360	O	0.889509	0.040860	0.947895
	O2361	O	0.866826	0.125144	0.902838
	O2362	O	0.868883	0.375016	0.943458
	O2363	O	0.985524	0.041157	0.927820
	O2364	O	0.848857	0.040949	0.951619
	O2365	O	0.760939	0.040741	1.017835
	O2366	O	0.848778	0.209201	0.951519
	O2367	O	0.847091	0.290487	0.895438
	O2368	O	0.763411	0.290591	0.804452
	O2369	O	0.889527	0.209230	0.947846
	O2370	O	0.886011	0.291255	0.893529
	O2371	O	0.973686	0.290974	0.826088
	O2372	O	0.761042	0.209082	1.017998
	O2373	O	0.847160	0.458956	0.895184
	O2374	O	0.763324	0.459076	0.804648
	O2375	O	0.973673	0.459176	0.826294
	O2376	O	0.886059	0.459354	0.893430
	O2377	O	0.985520	0.209314	0.927984
	O2378	O	0.741853	0.375270	1.027284
	O2379	O	0.993936	0.125118	0.818336
	C2380	C	0.946921	0.214693	0.934871
	C2381	C	0.956618	0.124994	0.931944
	C2382	C	0.946919	0.035288	0.934932
	C2383	C	0.928044	0.035302	0.940665
	C2384	C	0.918342	0.125023	0.943546
	C2385	C	0.928054	0.214777	0.940623
	C2386	C	0.897698	0.124995	0.946879
	C2387	C	0.977295	0.125228	0.928763
	C2388	C	0.841336	0.124879	0.956809
	C2389	C	0.822375	0.125036	0.970761
	C2390	C	0.813263	0.214778	0.976688
	C2391	C	0.795616	0.214613	0.989122
	C2392	C	0.786694	0.124802	0.995989
	C2393	C	0.795656	0.035084	0.989407
	C2394	C	0.813309	0.035197	0.976954
	C2395	C	0.768161	0.124809	1.011677
	C2396	C	0.840005	0.374749	0.887994
	C2397	C	0.821966	0.374774	0.868671
	C2398	C	0.813340	0.464101	0.859855
	C2399	C	0.796587	0.464018	0.841924
	C2400	C	0.788161	0.374786	0.832489
	C2401	C	0.796795	0.285480	0.841290
	C2402	C	0.813518	0.285437	0.859288
	C2403	C	0.770365	0.374845	0.812318
	C2404	C	0.893256	0.375313	0.887177
	C2405	C	0.911678	0.375139	0.871372
	C2406	C	0.920695	0.285459	0.864684
	C2407	C	0.938272	0.285264	0.852007
	C2408	C	0.947369	0.374835	0.845639
	C2409	C	0.938238	0.464560	0.851773
	C2410	C	0.920673	0.464660	0.864468
	C2411	C	0.966260	0.375039	0.831620
	H2412	H	0.945046	0.215450	0.847097
	H2413	H	0.913969	0.215464	0.869729
	H2414	H	0.954216	0.284668	0.932743
	H2415	H	0.920809	0.284832	0.942938
	H2416	H	0.865919	0.125646	0.880779
	H2417	H	0.871066	0.374778	0.965248
	H2418	H	0.741057	0.376345	1.005197
	H2419	H	0.996220	0.125407	0.840064
	H2420	H	0.820055	0.216206	0.866079
	H2421	H	0.790460	0.216187	0.833917
	H2422	H	0.788774	0.284668	0.993774
	H2423	H	0.819958	0.284773	0.971660
	H2424	H	0.790075	0.533191	0.835093
	H2425	H	0.819662	0.533204	0.867070
	H2426	H	0.820116	-0.034520	0.972122
	H2427	H	0.788942	-0.035005	0.994209
	H2428	H	0.920811	-0.034566	0.943088
	H2429	H	0.954240	-0.034816	0.932792
	H2430	H	0.913948	0.534683	0.869326
	H2431	H	0.945019	0.534369	0.846691
