data_Molecule from HDF5

_cell_length_a		68.192431
_cell_length_b		13.359198
_cell_length_c		50.934372
_cell_angle_alpha	89.998606
_cell_angle_beta	89.989369
_cell_angle_gamma	89.999446
_symmetry_space_group_name_H-M	'P 1'
_symmetry_Int_Tables_number		1

loop_
	_symmetry_equiv_pos_as_xyz
	x,y,z

loop_
	_atom_site_label
	_atom_site_type_symbol
	_atom_site_fract_x
	_atom_site_fract_y
	_atom_site_fract_z
	Al0	Al	0.124993	-0.500138	0.125093
	Al1	Al	0.125006	-0.250175	0.125093
	Al2	Al	-0.000004	-0.250170	0.000223
	Al3	Al	0.000036	-0.499733	0.000206
	O4	O	0.145285	-0.458725	0.148849
	O5	O	0.125057	-0.375161	0.108684
	O6	O	0.125019	-0.125105	0.141547
	O7	O	0.229841	-0.459486	0.226241
	O8	O	0.104827	-0.459198	0.149115
	O9	O	0.020176	-0.459263	0.226019
	O10	O	0.104831	-0.290832	0.148979
	O11	O	0.104873	-0.209244	0.101215
	O12	O	0.020304	-0.209394	0.023931
	O13	O	0.145278	-0.290706	0.148947
	O14	O	0.145211	-0.209264	0.101301
	O15	O	0.229806	-0.209074	0.023941
	O16	O	0.020139	-0.290996	0.226132
	O17	O	0.104748	-0.041144	0.101330
	O18	O	0.020253	-0.040958	0.024055
	O19	O	0.229813	-0.041102	0.024085
	O20	O	0.145341	-0.041133	0.101434
	O21	O	0.229883	-0.291268	0.226114
	O22	O	-0.000123	-0.124933	0.233455
	O23	O	0.250117	-0.374933	0.016669
	C24	C	0.195902	-0.285989	0.195441
	C25	C	0.204606	-0.375068	0.203098
	C26	C	0.195924	-0.464106	0.195284
	C27	C	0.179105	-0.464035	0.179877
	C28	C	0.170438	-0.375028	0.172144
	C29	C	0.179082	-0.285892	0.180038
	C30	C	0.152399	-0.374813	0.155241
	C31	C	0.222676	-0.375273	0.219865
	C32	C	0.097672	-0.374931	0.155458
	C33	C	0.079528	-0.374677	0.172005
	C34	C	0.070848	-0.285556	0.179759
	C35	C	0.053980	-0.285573	0.195081
	C36	C	0.045422	-0.374694	0.202961
	C37	C	0.054085	-0.463578	0.195158
	C38	C	0.070965	-0.463635	0.179870
	C39	C	0.027296	-0.375060	0.219635
	C40	C	0.097664	-0.125198	0.094811
	C41	C	0.079516	-0.125492	0.078218
	C42	C	0.070855	-0.036388	0.070457
	C43	C	0.054044	-0.036339	0.055066
	C44	C	0.045483	-0.125280	0.047078
	C45	C	0.054171	-0.214284	0.054781
	C46	C	0.071003	-0.214415	0.070162
	C47	C	0.027398	-0.125186	0.030426
	C48	C	0.152446	-0.125208	0.094952
	C49	C	0.170468	-0.125390	0.078208
	C50	C	0.178985	-0.214349	0.070226
	C51	C	0.195811	-0.214421	0.054763
	C52	C	0.204528	-0.125468	0.047063
	C53	C	0.195947	-0.036584	0.054944
	C54	C	0.179125	-0.036472	0.070381
	C55	C	0.222656	-0.125384	0.030448
	H56	H	0.202272	-0.283444	0.048682
	H57	H	0.172444	-0.283409	0.076159
	H58	H	0.202391	-0.216903	0.201650
	H59	H	0.172596	-0.216609	0.174028
	H60	H	0.125464	-0.375624	0.090775
	H61	H	0.125378	-0.125627	0.159547
	H62	H	-0.000414	-0.124081	0.215547
	H63	H	0.250546	-0.374503	0.034631
	H64	H	0.077584	-0.283351	0.075934
	H65	H	0.047769	-0.283116	0.048574
	H66	H	0.047451	-0.216366	0.201193
	H67	H	0.077332	-0.216590	0.173624
	H68	H	0.047509	0.032998	0.049165
	H69	H	0.077305	0.032527	0.076545
	H70	H	0.077454	-0.532563	0.173854
	H71	H	0.047592	-0.532773	0.201214
	H72	H	0.172584	-0.532929	0.173720
	H73	H	0.202336	-0.533315	0.201345
	H74	H	0.172720	0.032449	0.076419
	H75	H	0.202481	0.032151	0.049017
	Al76	Al	0.125001	-0.000186	0.125134
	Al77	Al	0.124946	0.250004	0.125086
	Al78	Al	0.000057	0.249931	0.000273
	Al79	Al	0.000053	0.000102	0.000241
	O80	O	0.145152	0.041001	0.149000
	O81	O	0.125021	0.124817	0.108721
	O82	O	0.125078	0.374961	0.141484
	O83	O	0.229686	0.040602	0.226234
	O84	O	0.104752	0.040910	0.148909
	O85	O	0.020236	0.040316	0.226163
	O86	O	0.104705	0.209168	0.148894
	O87	O	0.104831	0.290973	0.101104
	O88	O	0.020287	0.290856	0.024030
	O89	O	0.145199	0.209191	0.148864
	O90	O	0.145105	0.290908	0.101063
	O91	O	0.229829	0.291046	0.024050
	O92	O	0.020159	0.208477	0.226199
	O93	O	0.104792	0.459082	0.101367
	O94	O	0.020221	0.458849	0.024076
	O95	O	0.229862	0.459124	0.024213
	O96	O	0.145298	0.458956	0.101329
	O97	O	0.229869	0.209029	0.226164
	O98	O	0.000066	0.375089	0.233453
	O99	O	0.250042	0.124958	0.016560
	C100	C	0.195889	0.214166	0.195314
	C101	C	0.204540	0.125163	0.203085
	C102	C	0.195900	0.036146	0.195205
	C103	C	0.179131	0.036243	0.179782
	C104	C	0.170417	0.125270	0.172079
	C105	C	0.179087	0.214159	0.179916
	C106	C	0.152343	0.125193	0.155261
	C107	C	0.222639	0.124762	0.219861
	C108	C	0.097632	0.125095	0.155254
	C109	C	0.079465	0.124930	0.171866
	C110	C	0.070837	0.213883	0.179798
	C111	C	0.054050	0.213788	0.195242
	C112	C	0.045381	0.124789	0.202963
	C113	C	0.054093	0.035711	0.195152
	C114	C	0.070894	0.035734	0.179743
	C115	C	0.027317	0.124485	0.219737
	C116	C	0.097659	0.375079	0.094788
	C117	C	0.079558	0.375254	0.078183
	C118	C	0.070911	0.464187	0.070366
	C119	C	0.054084	0.464139	0.054997
	C120	C	0.045494	0.375149	0.047052
	C121	C	0.054153	0.286258	0.054835
	C122	C	0.071005	0.286278	0.070168
	C123	C	0.027373	0.374935	0.030452
	C124	C	0.152279	0.374935	0.094780
	C125	C	0.170440	0.374645	0.078125
	C126	C	0.179010	0.285668	0.070181
	C127	C	0.195867	0.285835	0.054852
	C128	C	0.204550	0.374874	0.047098
	C129	C	0.195953	0.463966	0.054981
	C130	C	0.179102	0.463716	0.070340
	C131	C	0.222674	0.375102	0.030448
	H132	H	0.202261	0.216644	0.048653
	H133	H	0.172457	0.216651	0.076056
	H134	H	0.202419	0.283094	0.201383
	H135	H	0.172597	0.282886	0.173770
	H136	H	0.124972	0.124549	0.090811
	H137	H	0.125300	0.374564	0.159443
	H138	H	0.000316	0.375903	0.215439
	H139	H	0.249928	0.125359	0.034373
	H140	H	0.077525	0.217287	0.076086
	H141	H	0.047722	0.217149	0.048736
	H142	H	0.047584	0.282898	0.201364
	H143	H	0.077462	0.282587	0.173986
	H144	H	0.047557	0.533102	0.049063
	H145	H	0.077376	0.533057	0.076474
	H146	H	0.077537	-0.032913	0.173921
	H147	H	0.047627	-0.033161	0.201201
	H148	H	0.172692	-0.032638	0.173618
	H149	H	0.202401	-0.032831	0.201282
	H150	H	0.172596	0.532703	0.076407
	H151	H	0.202455	0.533000	0.048892
	Al152	Al	0.124877	-0.500045	0.374990
	Al153	Al	0.124933	-0.250346	0.374976
	Al154	Al	-0.000082	-0.250016	0.249950
	Al155	Al	-0.000081	-0.499792	0.249814
	O156	O	0.145082	-0.458896	0.398835
	O157	O	0.124990	-0.375254	0.358520
	O158	O	0.125052	-0.124984	0.391432
	O159	O	0.229820	-0.458891	0.475926
	O160	O	0.104790	-0.458797	0.398949
	O161	O	0.020173	-0.459115	0.476092
	O162	O	0.104685	-0.290588	0.398865
	O163	O	0.104739	-0.209507	0.351157
	O164	O	0.020176	-0.209599	0.273686
	O165	O	0.145145	-0.290938	0.398870
	O166	O	0.145182	-0.208861	0.351120
	O167	O	0.229749	-0.209174	0.273974
	O168	O	0.020124	-0.290759	0.476055
	O169	O	0.104811	-0.041282	0.350868
	O170	O	0.020178	-0.041435	0.273772
	O171	O	0.229871	-0.040947	0.274001
	O172	O	0.145210	-0.040523	0.351225
	O173	O	0.229843	-0.290839	0.475962
	O174	O	-0.000050	-0.124731	0.483775
	O175	O	0.250155	-0.374874	0.266458
	C176	C	0.195802	-0.285899	0.445186
	C177	C	0.204557	-0.374845	0.452877
	C178	C	0.195921	-0.463908	0.444996
	C179	C	0.179061	-0.463954	0.429653
	C180	C	0.170333	-0.374952	0.421915
	C181	C	0.178920	-0.285904	0.429896
	C182	C	0.152269	-0.375006	0.405225
	C183	C	0.222645	-0.374690	0.469541
	C184	C	0.097586	-0.374922	0.405236
	C185	C	0.079512	-0.375067	0.422051
	C186	C	0.070803	-0.285862	0.429752
	C187	C	0.053959	-0.285908	0.445087
	C188	C	0.045342	-0.375018	0.452940
	C189	C	0.054123	-0.464284	0.445378
	C190	C	0.070948	-0.464177	0.429994
	C191	C	0.027323	-0.375014	0.469750
	C192	C	0.097597	-0.125449	0.344718
	C193	C	0.079448	-0.125223	0.328065
	C194	C	0.070931	-0.036307	0.319948
	C195	C	0.054087	-0.036345	0.304583
	C196	C	0.045327	-0.125636	0.296988
	C197	C	0.053912	-0.214628	0.304967
	C198	C	0.070766	-0.214481	0.320334
	C199	C	0.027271	-0.125464	0.280201
	C200	C	0.152326	-0.124586	0.344764
	C201	C	0.170438	-0.124586	0.328052
	C202	C	0.179067	-0.213685	0.320269
	C203	C	0.195913	-0.213622	0.304905
	C204	C	0.204513	-0.124707	0.297020
	C205	C	0.195838	-0.035664	0.304780
	C206	C	0.179009	-0.035634	0.320141
	C207	C	0.222653	-0.124998	0.280331
	H208	H	0.202395	-0.282506	0.298884
	H209	H	0.172594	-0.282248	0.326337
	H210	H	0.202235	-0.216755	0.451244
	H211	H	0.172360	-0.217081	0.424068
	H212	H	0.125095	-0.375306	0.340599
	H213	H	0.125147	-0.124975	0.409365
	H214	H	-0.000029	-0.124247	0.465804
	H215	H	0.250713	-0.374989	0.284418
	H216	H	0.077245	-0.283550	0.326527
	H217	H	0.047357	-0.283791	0.299060
	H218	H	0.047425	-0.217136	0.451076
	H219	H	0.077333	-0.216896	0.423731
	H220	H	0.047704	0.032653	0.298318
	H221	H	0.077539	0.032706	0.325787
	H222	H	0.077628	-0.533202	0.424215
	H223	H	0.047700	-0.533225	0.451556
	H224	H	0.172611	-0.532976	0.423544
	H225	H	0.202435	-0.532815	0.450892
	H226	H	0.172433	0.033494	0.325991
	H227	H	0.202230	0.033217	0.298515
	Al228	Al	0.124863	-0.000120	0.374868
	Al229	Al	0.124860	0.249750	0.374948
	Al230	Al	-0.000090	0.250096	0.249991
	Al231	Al	-0.000010	0.000178	0.249940
	O232	O	0.145150	0.040931	0.398749
	O233	O	0.124780	0.124808	0.358422
	O234	O	0.124937	0.374891	0.391355
	O235	O	0.229623	0.040767	0.476120
	O236	O	0.104704	0.040747	0.398728
	O237	O	0.020181	0.040770	0.476231
	O238	O	0.104682	0.208818	0.398821
	O239	O	0.104721	0.291528	0.351066
	O240	O	0.020148	0.291075	0.273846
	O241	O	0.145013	0.208852	0.398854
	O242	O	0.145068	0.290901	0.351135
	O243	O	0.229795	0.290658	0.273880
	O244	O	0.020196	0.208859	0.476205
	O245	O	0.104660	0.459660	0.351092
	O246	O	0.020151	0.459110	0.273765
	O247	O	0.229760	0.458837	0.273939
	O248	O	0.145055	0.458911	0.351042
	O249	O	0.229774	0.208915	0.476012
	O250	O	-0.000069	0.375073	0.483640
	O251	O	0.250015	0.124848	0.266413
	C252	C	0.195818	0.214187	0.445156
	C253	C	0.204508	0.125094	0.452863
	C254	C	0.195885	0.036094	0.444971
	C255	C	0.179063	0.036226	0.429580
	C256	C	0.170380	0.125303	0.421844
	C257	C	0.178976	0.214413	0.429756
	C258	C	0.152230	0.125066	0.405122
	C259	C	0.222551	0.124741	0.469629
	C260	C	0.097505	0.124829	0.405138
	C261	C	0.079543	0.124479	0.422021
	C262	C	0.070860	0.213508	0.429756
	C263	C	0.054052	0.213597	0.445162
	C264	C	0.045420	0.124702	0.453105
	C265	C	0.054141	0.035802	0.445434
	C266	C	0.070938	0.035619	0.430012
	C267	C	0.027357	0.124931	0.469891
	C268	C	0.097601	0.375464	0.344628
	C269	C	0.079528	0.375295	0.327842
	C270	C	0.070942	0.464487	0.319851
	C271	C	0.054120	0.464334	0.304501
	C272	C	0.045443	0.375179	0.296784
	C273	C	0.053981	0.286054	0.304834
	C274	C	0.070810	0.286046	0.320187
	C275	C	0.027336	0.375154	0.280108
	C276	C	0.152295	0.374999	0.344836
	C277	C	0.170397	0.374964	0.328142
	C278	C	0.179048	0.285908	0.320300
	C279	C	0.195878	0.285893	0.304900
	C280	C	0.204568	0.374761	0.297086
	C281	C	0.195838	0.463794	0.304829
	C282	C	0.178978	0.463931	0.320188
	C283	C	0.222656	0.374776	0.280373
	H284	H	0.202424	0.216891	0.299094
	H285	H	0.172611	0.216909	0.326360
	H286	H	0.202277	0.283463	0.451270
	H287	H	0.172431	0.283546	0.423833
	H288	H	0.125086	0.124871	0.340402
	H289	H	0.125151	0.375332	0.409279
	H290	H	-0.000305	0.374827	0.465688
	H291	H	0.249930	0.124525	0.284467
	H292	H	0.077291	0.217176	0.326370
	H293	H	0.047446	0.216860	0.298966
	H294	H	0.047553	0.282646	0.451155
	H295	H	0.077291	0.282668	0.423552
	H296	H	0.047677	0.533037	0.298294
	H297	H	0.077476	0.533801	0.325721
	H298	H	0.077415	-0.033558	0.423998
	H299	H	0.047645	-0.032923	0.451615
	H300	H	0.172580	-0.033005	0.423480
	H301	H	0.202349	-0.033298	0.450994
	H302	H	0.172458	0.533039	0.326227
	H303	H	0.202379	0.532608	0.298902
	Al304	Al	0.124997	-0.500275	0.624962
	Al305	Al	0.125030	-0.250304	0.625029
	Al306	Al	0.000037	-0.249674	0.500067
	Al307	Al	-0.000033	-0.499565	0.499962
	O308	O	0.145328	-0.459321	0.648754
	O309	O	0.125038	-0.375270	0.608628
	O310	O	0.124897	-0.125105	0.641474
	O311	O	0.229794	-0.459254	0.726186
	O312	O	0.104837	-0.459522	0.648944
	O313	O	0.020101	-0.459116	0.726119
	O314	O	0.104903	-0.291147	0.649073
	O315	O	0.104782	-0.209030	0.601160
	O316	O	0.020240	-0.208874	0.523946
	O317	O	0.145177	-0.291207	0.648848
	O318	O	0.145305	-0.209304	0.601329
	O319	O	0.229732	-0.209397	0.523721
	O320	O	0.020126	-0.290999	0.726189
	O321	O	0.104791	-0.040991	0.601112
	O322	O	0.020201	-0.040830	0.523881
	O323	O	0.229832	-0.041145	0.523851
	O324	O	0.145165	-0.041187	0.601128
	O325	O	0.229777	-0.290970	0.726180
	O326	O	-0.000007	-0.125048	0.733733
	O327	O	0.249977	-0.375011	0.516339
	C328	C	0.195892	-0.285703	0.695401
	C329	C	0.204602	-0.375003	0.703096
	C330	C	0.195996	-0.464104	0.695067
	C331	C	0.179172	-0.463971	0.679686
	C332	C	0.170469	-0.374845	0.671952
	C333	C	0.179065	-0.285552	0.680023
	C334	C	0.152435	-0.375188	0.655152
	C335	C	0.222673	-0.374923	0.719806
	C336	C	0.097711	-0.375201	0.655332
	C337	C	0.079620	-0.375215	0.672138
	C338	C	0.070975	-0.285755	0.679869
	C339	C	0.054103	-0.285840	0.695189
	C340	C	0.045392	-0.374971	0.703011
	C341	C	0.054064	-0.464343	0.695265
	C342	C	0.070933	-0.464272	0.679955
	C343	C	0.027282	-0.374979	0.719799
	C344	C	0.097665	-0.124989	0.594675
	C345	C	0.079515	-0.124858	0.578092
	C346	C	0.070847	-0.035731	0.570390
	C347	C	0.053978	-0.035664	0.555087
	C348	C	0.045436	-0.124779	0.547048
	C349	C	0.054067	-0.213875	0.554791
	C350	C	0.070915	-0.213806	0.570119
	C351	C	0.027325	-0.124670	0.530326
	C352	C	0.152374	-0.125227	0.594822
	C353	C	0.170445	-0.125096	0.578050
	C354	C	0.179100	-0.214364	0.570263
	C355	C	0.195908	-0.214340	0.554803
	C356	C	0.204514	-0.125055	0.546835
	C357	C	0.195805	-0.035796	0.554529
	C358	C	0.178995	-0.035882	0.569969
	C359	C	0.222651	-0.125297	0.530212
	H360	H	0.202472	-0.283366	0.548880
	H361	H	0.172620	-0.283299	0.576397
	H362	H	0.202417	-0.216755	0.701475
	H363	H	0.172512	-0.216465	0.674071
	H364	H	0.125053	-0.375437	0.590706
	H365	H	0.124795	-0.125196	0.659456
	H366	H	0.000101	-0.124944	0.715848
	H367	H	0.250144	-0.375849	0.534269
	H368	H	0.077527	-0.282736	0.575967
	H369	H	0.047543	-0.283030	0.548740
	H370	H	0.047639	-0.216633	0.701253
	H371	H	0.077412	-0.216620	0.673723
	H372	H	0.047398	0.033325	0.549180
	H373	H	0.077366	0.033366	0.576352
	H374	H	0.077417	-0.533420	0.673936
	H375	H	0.047578	-0.533577	0.701337
	H376	H	0.172733	-0.532790	0.673554
	H377	H	0.202587	-0.533224	0.701008
	H378	H	0.172485	0.033213	0.575888
	H379	H	0.202279	0.033243	0.548463
	Al380	Al	0.124993	-0.000234	0.625007
	Al381	Al	0.125011	0.249493	0.624917
	Al382	Al	0.000033	0.250222	0.500064
	Al383	Al	0.000015	0.000294	0.500181
	O384	O	0.145272	0.040703	0.648790
	O385	O	0.125017	0.124886	0.608600
	O386	O	0.125035	0.374821	0.641404
	O387	O	0.229768	0.041084	0.726284
	O388	O	0.104770	0.040837	0.648898
	O389	O	0.020252	0.040460	0.726271
	O390	O	0.104815	0.208902	0.648926
	O391	O	0.104830	0.290878	0.601156
	O392	O	0.020239	0.291045	0.523768
	O393	O	0.145158	0.209060	0.648794
	O394	O	0.145265	0.290950	0.601197
	O395	O	0.229727	0.291076	0.523899
	O396	O	0.020286	0.209018	0.726345
	O397	O	0.104764	0.458922	0.601046
	O398	O	0.020190	0.459116	0.523809
	O399	O	0.229704	0.459212	0.523767
	O400	O	0.145177	0.459132	0.601094
	O401	O	0.229738	0.209407	0.726343
	O402	O	-0.000017	0.375137	0.733663
	O403	O	0.249840	0.124972	0.516315
	C404	C	0.195913	0.214650	0.695335
	C405	C	0.204588	0.125331	0.703080
	C406	C	0.195952	0.035993	0.695297
	C407	C	0.179151	0.035854	0.679808
	C408	C	0.170512	0.125133	0.671897
	C409	C	0.179103	0.214409	0.679875
	C410	C	0.152383	0.124994	0.655140
	C411	C	0.222629	0.125310	0.719913
	C412	C	0.097612	0.124844	0.655231
	C413	C	0.079577	0.124834	0.672080
	C414	C	0.070921	0.214062	0.679765
	C415	C	0.054078	0.213925	0.695192
	C416	C	0.045450	0.124691	0.703087
	C417	C	0.054139	0.035579	0.695403
	C418	C	0.070990	0.035656	0.680044
	C419	C	0.027418	0.124921	0.719914
	C420	C	0.097617	0.374751	0.594732
	C421	C	0.079523	0.374510	0.578106
	C422	C	0.070842	0.463633	0.570257
	C423	C	0.054020	0.463868	0.554903
	C424	C	0.045428	0.374910	0.546986
	C425	C	0.054176	0.285729	0.554704
	C426	C	0.071003	0.285526	0.570077
	C427	C	0.027306	0.375012	0.530271
	C428	C	0.152325	0.375067	0.594721
	C429	C	0.170435	0.375442	0.578049
	C430	C	0.179158	0.286491	0.570364
	C431	C	0.196007	0.286479	0.555031
	C432	C	0.204504	0.375535	0.546984
	C433	C	0.195846	0.464563	0.554767
	C434	C	0.178971	0.464616	0.570078
	C435	C	0.222613	0.375238	0.530229
	H436	H	0.202597	0.217597	0.549140
	H437	H	0.172732	0.217636	0.576413
	H438	H	0.202407	0.284138	0.701497
	H439	H	0.172529	0.283654	0.673910
	H440	H	0.125154	0.125023	0.590706
	H441	H	0.124859	0.374649	0.659405
	H442	H	-0.000538	0.375151	0.715668
	H443	H	0.249707	0.124450	0.534314
	H444	H	0.077499	0.216249	0.575984
	H445	H	0.047718	0.216678	0.548523
	H446	H	0.047564	0.283106	0.701164
	H447	H	0.077368	0.283074	0.673596
	H448	H	0.047462	0.533124	0.549010
	H449	H	0.077307	0.532574	0.576386
	H450	H	0.077525	-0.033572	0.674102
	H451	H	0.047650	-0.033729	0.701501
	H452	H	0.172626	-0.033552	0.673840
	H453	H	0.202432	-0.033216	0.701460
	H454	H	0.172331	0.533739	0.575949
	H455	H	0.202306	0.533211	0.548660
	Al456	Al	0.124946	-0.500037	0.875137
	Al457	Al	0.125006	-0.250321	0.875077
	Al458	Al	0.000002	-0.250127	0.750146
	Al459	Al	-0.000042	-0.499951	0.750067
	O460	O	0.145230	-0.459500	0.898923
	O461	O	0.125153	-0.375197	0.858764
	O462	O	0.125203	-0.125193	0.891597
	O463	O	0.229814	-0.459095	0.976509
	O464	O	0.104823	-0.458924	0.899076
	O465	O	0.020314	-0.459331	0.976408
	O466	O	0.104927	-0.290754	0.899001
	O467	O	0.104839	-0.209651	0.851288
	O468	O	0.020317	-0.209632	0.773929
	O469	O	0.145217	-0.291270	0.898986
	O470	O	0.145322	-0.209178	0.851362
	O471	O	0.229816	-0.209097	0.774010
	O472	O	0.020201	-0.291076	0.976224
	O473	O	0.104814	-0.041553	0.851352
	O474	O	0.020264	-0.041410	0.773916
	O475	O	0.229815	-0.040739	0.774040
	O476	O	0.145332	-0.040721	0.851381
	O477	O	0.229814	-0.291008	0.976247
	O478	O	0.000044	-0.124890	0.983717
	O479	O	0.249917	-0.375194	0.766511
	C480	C	0.196017	-0.286521	0.945268
	C481	C	0.204638	-0.375553	0.953183
	C482	C	0.195863	-0.464697	0.945617
	C483	C	0.179063	-0.464776	0.930175
	C484	C	0.170557	-0.375638	0.922006
	C485	C	0.179210	-0.286599	0.929863
	C486	C	0.152420	-0.375257	0.905323
	C487	C	0.222691	-0.375192	0.969937
	C488	C	0.097711	-0.374697	0.905392
	C489	C	0.079608	-0.375028	0.922183
	C490	C	0.070861	-0.286112	0.929824
	C491	C	0.053995	-0.285905	0.945168
	C492	C	0.045471	-0.374993	0.953140
	C493	C	0.054237	-0.463943	0.945558
	C494	C	0.071090	-0.464120	0.930248
	C495	C	0.027372	-0.375150	0.969890
	C496	C	0.097687	-0.125502	0.845005
	C497	C	0.079599	-0.125517	0.828241
	C498	C	0.070890	-0.036323	0.820491
	C499	C	0.054063	-0.036203	0.805070
	C500	C	0.045497	-0.125260	0.797101
	C501	C	0.054180	-0.214476	0.804843
	C502	C	0.071002	-0.214609	0.820286
	C503	C	0.027451	-0.125467	0.780322
	C504	C	0.152420	-0.124875	0.844938
	C505	C	0.170480	-0.124583	0.828187
	C506	C	0.179077	-0.213749	0.820287
	C507	C	0.195889	-0.213865	0.804920
	C508	C	0.204547	-0.124710	0.797111
	C509	C	0.195941	-0.035472	0.805017
	C510	C	0.179115	-0.035325	0.820382
	C511	C	0.222694	-0.124884	0.780319
	H512	H	0.202344	-0.282981	0.798690
	H513	H	0.172530	-0.282733	0.826218
	H514	H	0.202545	-0.217436	0.951238
	H515	H	0.172682	-0.217479	0.923771
	H516	H	0.125687	-0.375371	0.840755
	H517	H	0.125590	-0.125057	0.909510
	H518	H	0.000212	-0.124948	0.965859
	H519	H	0.250034	-0.374476	0.784459
	H520	H	0.077532	-0.283655	0.826220
	H521	H	0.047706	-0.284061	0.798825
	H522	H	0.047416	-0.216656	0.950880
	H523	H	0.077299	-0.217230	0.923618
	H524	H	0.047461	0.032779	0.799186
	H525	H	0.077322	0.032887	0.826636
	H526	H	0.077630	-0.532964	0.924496
	H527	H	0.047794	-0.532770	0.951825
	H528	H	0.172429	-0.533993	0.924520
	H529	H	0.202265	-0.533770	0.951913
	H530	H	0.172616	0.033753	0.826455
	H531	H	0.202377	0.033288	0.798857
	Al532	Al	0.125042	-0.000218	0.875135
	Al533	Al	0.125006	0.249784	0.875061
	Al534	Al	0.000044	0.250103	0.750218
	Al535	Al	0.000080	0.000122	0.750099
	O536	O	0.145216	0.041190	0.899064
	O537	O	0.125006	0.124861	0.858682
	O538	O	0.125016	0.374866	0.891437
	O539	O	0.229677	0.041078	0.976455
	O540	O	0.104817	0.040592	0.898981
	O541	O	0.020234	0.040791	0.976394
	O542	O	0.104849	0.208779	0.898948
	O543	O	0.104803	0.291202	0.851208
	O544	O	0.020194	0.290838	0.774083
	O545	O	0.145300	0.209230	0.898853
	O546	O	0.145132	0.290640	0.851067
	O547	O	0.229820	0.290824	0.773989
	O548	O	0.020279	0.208944	0.976399
	O549	O	0.104764	0.459305	0.851390
	O550	O	0.020163	0.459004	0.773831
	O551	O	0.229818	0.458968	0.774020
	O552	O	0.145159	0.458767	0.851240
	O553	O	0.229855	0.209080	0.976357
	O554	O	0.000045	0.375070	0.983767
	O555	O	0.250089	0.124824	0.766491
	C556	C	0.196011	0.214173	0.945272
	C557	C	0.204555	0.125187	0.953196
	C558	C	0.195827	0.036086	0.945503
	C559	C	0.178994	0.036233	0.930127
	C560	C	0.170492	0.125283	0.922104
	C561	C	0.179181	0.214329	0.929869
	C562	C	0.152404	0.125318	0.905355
	C563	C	0.222613	0.124994	0.969984
	C564	C	0.097691	0.124652	0.905320
	C565	C	0.079595	0.124640	0.922100
	C566	C	0.070893	0.213771	0.929864
	C567	C	0.054083	0.213781	0.945291
	C568	C	0.045508	0.124775	0.953276
	C569	C	0.054242	0.035687	0.945570
	C570	C	0.071051	0.035655	0.930142
	C571	C	0.027420	0.124903	0.970035
	C572	C	0.097630	0.375184	0.844926
	C573	C	0.079540	0.375450	0.828217
	C574	C	0.070878	0.464455	0.820458
	C575	C	0.054035	0.464438	0.805108
	C576	C	0.045435	0.375439	0.797168
	C577	C	0.054132	0.286540	0.804844
	C578	C	0.070968	0.286556	0.820224
	C579	C	0.027351	0.375025	0.780348
	C580	C	0.152286	0.374855	0.844829
	C581	C	0.170429	0.374898	0.828169
	C582	C	0.179075	0.285861	0.820379
	C583	C	0.195939	0.285583	0.805081
	C584	C	0.204574	0.374626	0.797189
	C585	C	0.195913	0.463656	0.804917
	C586	C	0.179068	0.463966	0.820265
	C587	C	0.222700	0.374659	0.780452
	H588	H	0.202498	0.216533	0.799142
	H589	H	0.172571	0.216701	0.826410
	H590	H	0.202562	0.283163	0.951251
	H591	H	0.172789	0.283375	0.923726
	H592	H	0.125011	0.124902	0.840697
	H593	H	0.125236	0.374938	0.909396
	H594	H	0.000018	0.375280	0.965795
	H595	H	0.249973	0.125316	0.784442
	H596	H	0.077548	0.217609	0.826109
	H597	H	0.047701	0.217894	0.798601
	H598	H	0.047513	0.282679	0.951205
	H599	H	0.077312	0.282722	0.923658
	H600	H	0.047562	0.533309	0.799148
	H601	H	0.077391	0.533098	0.826580
	H602	H	0.077624	-0.033234	0.924229
	H603	H	0.047801	-0.033100	0.951740
	H604	H	0.172403	-0.032668	0.924273
	H605	H	0.202211	-0.032962	0.951667
	H606	H	0.172534	0.532878	0.826250
	H607	H	0.202451	0.532733	0.798819
	Al608	Al	0.375049	-0.500215	0.125165
	Al609	Al	0.374963	-0.249771	0.125149
	Al610	Al	0.249993	-0.249930	0.000149
	Al611	Al	0.250057	-0.499852	0.000223
	O612	O	0.395222	-0.458816	0.149015
	O613	O	0.375051	-0.375232	0.108732
	O614	O	0.375085	-0.125111	0.141529
	O615	O	0.479872	-0.458989	0.226110
	O616	O	0.354914	-0.458554	0.149010
	O617	O	0.270341	-0.459222	0.226336
	O618	O	0.354863	-0.290519	0.149150
	O619	O	0.354827	-0.209027	0.101214
	O620	O	0.270298	-0.209050	0.023864
	O621	O	0.395284	-0.290630	0.148987
	O622	O	0.395249	-0.209157	0.101347
	O623	O	0.479814	-0.209700	0.024019
	O624	O	0.270210	-0.291017	0.226195
	O625	O	0.354694	-0.040606	0.101458
	O626	O	0.270294	-0.040859	0.023879
	O627	O	0.479861	-0.041699	0.023986
	O628	O	0.395208	-0.041115	0.101261
	O629	O	0.479758	-0.290800	0.226239
	O630	O	0.250030	-0.124959	0.233589
	O631	O	0.500029	-0.375276	0.016466
	C632	C	0.445931	-0.285821	0.195294
	C633	C	0.454589	-0.375131	0.203069
	C634	C	0.445915	-0.464362	0.195240
	C635	C	0.429049	-0.464005	0.179886
	C636	C	0.420453	-0.374671	0.172081
	C637	C	0.429067	-0.285422	0.179968
	C638	C	0.402416	-0.374645	0.155350
	C639	C	0.472713	-0.374957	0.219780
	C640	C	0.347719	-0.374747	0.155373
	C641	C	0.329548	-0.374889	0.172041
	C642	C	0.320982	-0.285911	0.179992
	C643	C	0.304139	-0.286122	0.195348
	C644	C	0.295423	-0.375089	0.203048
	C645	C	0.304086	-0.464080	0.195240
	C646	C	0.320928	-0.464024	0.179889
	C647	C	0.277403	-0.374974	0.219883
	C648	C	0.347613	-0.124862	0.094922
	C649	C	0.329522	-0.125126	0.078168
	C650	C	0.320963	-0.035911	0.070205
	C651	C	0.304141	-0.035621	0.054790
	C652	C	0.295459	-0.124949	0.047040
	C653	C	0.304030	-0.214117	0.054916
	C654	C	0.320870	-0.214360	0.070312
	C655	C	0.277378	-0.125004	0.030294
	C656	C	0.402338	-0.125199	0.094875
	C657	C	0.420491	-0.125112	0.078205
	C658	C	0.429135	-0.214295	0.070445
	C659	C	0.445960	-0.214390	0.055031
	C660	C	0.454560	-0.125450	0.047073
	C661	C	0.445912	-0.036436	0.054839
	C662	C	0.429092	-0.036139	0.070238
	C663	C	0.472673	-0.125640	0.030394
	H664	H	0.452497	-0.283609	0.049125
	H665	H	0.422602	-0.283196	0.076437
	H666	H	0.452440	-0.216760	0.201349
	H667	H	0.422604	-0.215955	0.173971
	H668	H	0.375419	-0.375422	0.090729
	H669	H	0.375273	-0.125129	0.159497
	H670	H	0.250410	-0.124519	0.215622
	H671	H	0.500313	-0.375654	0.034448
	H672	H	0.327366	-0.283382	0.076296
	H673	H	0.297511	-0.283080	0.048950
	H674	H	0.297716	-0.217034	0.201601
	H675	H	0.327530	-0.216466	0.174177
	H676	H	0.297644	0.033656	0.048732
	H677	H	0.327483	0.033474	0.076095
	H678	H	0.327493	-0.532738	0.173890
	H679	H	0.297658	-0.532854	0.201362
	H680	H	0.422604	-0.533166	0.173791
	H681	H	0.452416	-0.533554	0.201263
	H682	H	0.422489	0.032737	0.076015
	H683	H	0.452445	0.032601	0.048915
	Al684	Al	0.374980	0.000020	0.125141
	Al685	Al	0.375129	0.250023	0.125207
	Al686	Al	0.250056	0.249841	0.000252
	Al687	Al	0.249976	-0.000009	0.000172
	O688	O	0.395183	0.040864	0.149037
	O689	O	0.375034	0.125138	0.108759
	O690	O	0.375068	0.375051	0.141578
	O691	O	0.479767	0.040740	0.226369
	O692	O	0.354886	0.041262	0.149078
	O693	O	0.270181	0.040791	0.226126
	O694	O	0.354875	0.209234	0.149041
	O695	O	0.354807	0.290572	0.101380
	O696	O	0.270176	0.290922	0.024061
	O697	O	0.395236	0.209131	0.149117
	O698	O	0.395269	0.291128	0.101234
	O699	O	0.479821	0.290868	0.023867
	O700	O	0.270208	0.208932	0.226180
	O701	O	0.354837	0.458685	0.101364
	O702	O	0.270263	0.459251	0.024046
	O703	O	0.479777	0.459091	0.023869
	O704	O	0.395349	0.459240	0.101390
	O705	O	0.479774	0.208968	0.226280
	O706	O	0.249924	0.375217	0.233689
	O707	O	0.499927	0.124900	0.016609
	C708	C	0.445947	0.213692	0.195255
	C709	C	0.454622	0.124517	0.203043
	C710	C	0.446024	0.035477	0.195173
	C711	C	0.429207	0.035422	0.179761
	C712	C	0.420539	0.124485	0.171990
	C713	C	0.429109	0.213597	0.179889
	C714	C	0.402402	0.124741	0.155368
	C715	C	0.472667	0.124772	0.219900
	C716	C	0.347705	0.125351	0.155351
	C717	C	0.329670	0.125229	0.172160
	C718	C	0.321015	0.214263	0.179935
	C719	C	0.304163	0.214045	0.195300
	C720	C	0.295478	0.125037	0.203155
	C721	C	0.304141	0.036029	0.195358
	C722	C	0.320994	0.036174	0.180012
	C723	C	0.277356	0.125039	0.219824
	C724	C	0.347686	0.374623	0.094932
	C725	C	0.329615	0.374852	0.078182
	C726	C	0.321038	0.463864	0.070250
	C727	C	0.304190	0.464061	0.054852
	C728	C	0.295506	0.375131	0.047065
	C729	C	0.304075	0.286088	0.055031
	C730	C	0.320912	0.285918	0.070414
	C731	C	0.277374	0.374926	0.030393
	C732	C	0.402447	0.375185	0.094899
	C733	C	0.420508	0.374889	0.078134
	C734	C	0.429108	0.285721	0.070230
	C735	C	0.445969	0.285846	0.054856
	C736	C	0.454588	0.375046	0.047033
	C737	C	0.445963	0.464210	0.054873
	C738	C	0.429120	0.463995	0.070279
	C739	C	0.472724	0.375018	0.030350
	H740	H	0.452483	0.216814	0.048933
	H741	H	0.422578	0.216547	0.076122
	H742	H	0.452358	0.282612	0.201366
	H743	H	0.422508	0.282676	0.173989
	H744	H	0.374936	0.125380	0.090938
	H745	H	0.375014	0.375616	0.159566
	H746	H	0.249881	0.375172	0.215763
	H747	H	0.499872	0.124721	0.034539
	H748	H	0.327345	0.216844	0.076498
	H749	H	0.297521	0.217001	0.048983
	H750	H	0.297628	0.283365	0.201177
	H751	H	0.327489	0.283037	0.173799
	H752	H	0.297758	0.533383	0.048770
	H753	H	0.327573	0.532924	0.076252
	H754	H	0.327447	-0.032748	0.173965
	H755	H	0.297549	-0.033025	0.201258
	H756	H	0.422725	-0.033420	0.173749
	H757	H	0.452541	-0.033507	0.201197
	H758	H	0.422687	0.533241	0.076389
	H759	H	0.452523	0.533242	0.048932
	Al760	Al	0.375041	-0.500026	0.375062
	Al761	Al	0.375071	-0.250139	0.374965
	Al762	Al	0.249938	-0.250047	0.250052
	Al763	Al	0.250021	-0.500011	0.250138
	O764	O	0.395151	-0.459164	0.399033
	O765	O	0.375030	-0.375109	0.358592
	O766	O	0.375033	-0.125072	0.391409
	O767	O	0.479835	-0.459102	0.476191
	O768	O	0.354849	-0.459254	0.398939
	O769	O	0.270177	-0.459186	0.476121
	O770	O	0.354792	-0.290932	0.398847
	O771	O	0.354791	-0.208708	0.351113
	O772	O	0.270315	-0.209252	0.273765
	O773	O	0.395250	-0.290740	0.398836
	O774	O	0.395170	-0.209018	0.351107
	O775	O	0.479816	-0.208949	0.273938
	O776	O	0.270289	-0.291060	0.476178
	O777	O	0.354812	-0.040746	0.351140
	O778	O	0.270178	-0.040980	0.273771
	O779	O	0.479809	-0.040847	0.273968
	O780	O	0.395271	-0.040906	0.351178
	O781	O	0.479836	-0.290876	0.476274
	O782	O	0.249935	-0.125301	0.483535
	O783	O	0.499969	-0.374809	0.266464
	C784	C	0.445961	-0.285786	0.445279
	C785	C	0.454608	-0.374888	0.453101
	C786	C	0.445948	-0.464102	0.445330
	C787	C	0.429079	-0.464263	0.430001
	C788	C	0.420443	-0.375115	0.422142
	C789	C	0.429110	-0.285953	0.429895
	C790	C	0.402348	-0.375109	0.405285
	C791	C	0.472720	-0.375114	0.469891
	C792	C	0.347644	-0.375019	0.405205
	C793	C	0.329560	-0.375006	0.421888
	C794	C	0.320987	-0.285952	0.429845
	C795	C	0.304132	-0.285879	0.445211
	C796	C	0.295421	-0.374933	0.452925
	C797	C	0.303963	-0.463809	0.444899
	C798	C	0.320814	-0.463976	0.429550
	C799	C	0.277324	-0.375230	0.469667
	C800	C	0.347659	-0.124738	0.344812
	C801	C	0.329507	-0.124645	0.328129
	C802	C	0.320883	-0.035688	0.320236
	C803	C	0.304085	-0.035923	0.304785
	C804	C	0.295422	-0.124883	0.297003
	C805	C	0.304081	-0.213810	0.304859
	C806	C	0.320871	-0.213674	0.320276
	C807	C	0.277367	-0.124978	0.280211
	C808	C	0.402479	-0.125011	0.344831
	C809	C	0.420453	-0.125187	0.328077
	C810	C	0.429103	-0.214183	0.320277
	C811	C	0.445951	-0.214115	0.304885
	C812	C	0.454613	-0.125128	0.297091
	C813	C	0.445885	-0.036094	0.304748
	C814	C	0.429068	-0.036142	0.320152
	C815	C	0.472673	-0.124935	0.280323
	H816	H	0.452469	-0.283242	0.298813
	H817	H	0.422646	-0.283324	0.326280
	H818	H	0.452477	-0.216711	0.451304
	H819	H	0.422677	-0.216953	0.423800
	H820	H	0.374958	-0.374753	0.340468
	H821	H	0.375171	-0.125430	0.409229
	H822	H	0.250103	-0.125360	0.465533
	H823	H	0.500397	-0.375190	0.284403
	H824	H	0.327479	-0.282535	0.326260
	H825	H	0.297575	-0.282827	0.298965
	H826	H	0.297654	-0.217008	0.451227
	H827	H	0.327498	-0.217245	0.423857
	H828	H	0.297518	0.032973	0.298799
	H829	H	0.327432	0.033428	0.326109
	H830	H	0.327263	-0.532908	0.423336
	H831	H	0.297345	-0.532739	0.450657
	H832	H	0.422618	-0.533288	0.423950
	H833	H	0.452473	-0.533041	0.451361
	H834	H	0.422528	0.033154	0.326162
	H835	H	0.452356	0.033092	0.298714
	Al836	Al	0.375035	0.000063	0.375036
	Al837	Al	0.375039	0.249885	0.375099
	Al838	Al	0.250042	0.250103	0.250097
	Al839	Al	0.249942	-0.000032	0.250029
	O840	O	0.395254	0.040740	0.398935
	O841	O	0.375072	0.125017	0.358695
	O842	O	0.375009	0.374955	0.391505
	O843	O	0.479822	0.040270	0.476306
	O844	O	0.354886	0.040776	0.398952
	O845	O	0.270053	0.041107	0.475991
	O846	O	0.354829	0.208888	0.398911
	O847	O	0.354795	0.291013	0.351321
	O848	O	0.270242	0.290909	0.274064
	O849	O	0.395240	0.208938	0.398938
	O850	O	0.395204	0.290929	0.351222
	O851	O	0.479826	0.290576	0.273963
	O852	O	0.270129	0.209122	0.476079
	O853	O	0.354768	0.459140	0.351266
	O854	O	0.270119	0.458960	0.274093
	O855	O	0.479831	0.458618	0.273869
	O856	O	0.395303	0.459058	0.351242
	O857	O	0.479864	0.208865	0.476324
	O858	O	0.249973	0.374874	0.483523
	O859	O	0.500022	0.124924	0.266578
	C860	C	0.446007	0.213780	0.445282
	C861	C	0.454637	0.124505	0.453129
	C862	C	0.445986	0.035339	0.445417
	C863	C	0.429141	0.035481	0.430003
	C864	C	0.420507	0.124841	0.422117
	C865	C	0.429194	0.213861	0.429856
	C866	C	0.402387	0.124873	0.405282
	C867	C	0.472686	0.124658	0.469974
	C868	C	0.347750	0.124831	0.405377
	C869	C	0.329552	0.124813	0.421928
	C870	C	0.320934	0.213884	0.429837
	C871	C	0.304076	0.214061	0.445166
	C872	C	0.295368	0.124969	0.452914
	C873	C	0.304017	0.035858	0.445052
	C874	C	0.320877	0.035691	0.429702
	C875	C	0.277292	0.125108	0.469699
	C876	C	0.347655	0.374947	0.344844
	C877	C	0.329591	0.374866	0.328048
	C878	C	0.320978	0.464048	0.320134
	C879	C	0.304107	0.464210	0.304837
	C880	C	0.295492	0.375023	0.297039
	C881	C	0.304103	0.285728	0.304940
	C882	C	0.320955	0.285648	0.320295
	C883	C	0.277335	0.374867	0.280406
	C884	C	0.402387	0.374910	0.344847
	C885	C	0.420494	0.374968	0.328127
	C886	C	0.429175	0.285958	0.320350
	C887	C	0.446004	0.285758	0.304964
	C888	C	0.454638	0.374859	0.297102
	C889	C	0.445942	0.463984	0.304842
	C890	C	0.429130	0.464075	0.320243
	C891	C	0.472649	0.374892	0.280173
	H892	H	0.452482	0.216820	0.298808
	H893	H	0.422634	0.217094	0.326315
	H894	H	0.452444	0.282940	0.451342
	H895	H	0.422685	0.283178	0.423872
	H896	H	0.375104	0.125191	0.340727
	H897	H	0.374717	0.374981	0.409479
	H898	H	0.250034	0.374815	0.465557
	H899	H	0.499777	0.125052	0.284536
	H900	H	0.327409	0.216314	0.326395
	H901	H	0.297562	0.216542	0.298936
	H902	H	0.297702	0.283552	0.451488
	H903	H	0.327563	0.282924	0.424094
	H904	H	0.297642	0.533462	0.298907
	H905	H	0.327467	0.533214	0.326180
	H906	H	0.327470	-0.033931	0.423798
	H907	H	0.297537	-0.033362	0.451214
	H908	H	0.422582	-0.033304	0.424084
	H909	H	0.452431	-0.034067	0.451556
	H910	H	0.422554	0.533127	0.326130
	H911	H	0.452372	0.533212	0.298611
	Al912	Al	0.374881	-0.499939	0.624955
	Al913	Al	0.374829	-0.249849	0.624928
	Al914	Al	0.249974	-0.250064	0.499971
	Al915	Al	0.249935	-0.500019	0.499896
	O916	O	0.395106	-0.458785	0.648720
	O917	O	0.374895	-0.375163	0.608524
	O918	O	0.374883	-0.124895	0.641367
	O919	O	0.479806	-0.459058	0.726093
	O920	O	0.354676	-0.459240	0.648818
	O921	O	0.270214	-0.458929	0.726252
	O922	O	0.354649	-0.290967	0.648773
	O923	O	0.354652	-0.208819	0.601038
	O924	O	0.270141	-0.208947	0.523713
	O925	O	0.395094	-0.290696	0.648672
	O926	O	0.395110	-0.209159	0.601190
	O927	O	0.479872	-0.209260	0.524046
	O928	O	0.270232	-0.290703	0.726281
	O929	O	0.354682	-0.040625	0.601058
	O930	O	0.270249	-0.040666	0.523610
	O931	O	0.479806	-0.041204	0.524072
	O932	O	0.395177	-0.041092	0.601159
	O933	O	0.479717	-0.290920	0.726026
	O934	O	0.250013	-0.125088	0.733714
	O935	O	0.499952	-0.375016	0.516585
	C936	C	0.445795	-0.285900	0.695226
	C937	C	0.454405	-0.374970	0.703048
	C938	C	0.445800	-0.464032	0.695149
	C939	C	0.428964	-0.463881	0.679705
	C940	C	0.420340	-0.374690	0.671903
	C941	C	0.428975	-0.285818	0.679745
	C942	C	0.402245	-0.374865	0.655041
	C943	C	0.472552	-0.375100	0.719755
	C944	C	0.347572	-0.375005	0.655252
	C945	C	0.329522	-0.374958	0.671962
	C946	C	0.320905	-0.285858	0.679804
	C947	C	0.304087	-0.285894	0.695249
	C948	C	0.295464	-0.374913	0.703128
	C949	C	0.304132	-0.464066	0.695373
	C950	C	0.320958	-0.464174	0.679920
	C951	C	0.277377	-0.374858	0.719861
	C952	C	0.347514	-0.124754	0.594708
	C953	C	0.329415	-0.124741	0.577978
	C954	C	0.320717	-0.035627	0.570182
	C955	C	0.303900	-0.035631	0.554773
	C956	C	0.295328	-0.124891	0.546917
	C957	C	0.303998	-0.214024	0.554756
	C958	C	0.320823	-0.214026	0.570147
	C959	C	0.277307	-0.124893	0.530111
	C960	C	0.402283	-0.125067	0.594773
	C961	C	0.420373	-0.125193	0.578083
	C962	C	0.429078	-0.214272	0.570362
	C963	C	0.445923	-0.214499	0.555011
	C964	C	0.454537	-0.125344	0.547078
	C965	C	0.445858	-0.036242	0.554819
	C966	C	0.428995	-0.036122	0.570181
	C967	C	0.472639	-0.125281	0.530391
	H968	H	0.452505	-0.283430	0.549000
	H969	H	0.422652	-0.283197	0.576410
	H970	H	0.452303	-0.217035	0.701205
	H971	H	0.422473	-0.216557	0.673862
	H972	H	0.374941	-0.374787	0.590521
	H973	H	0.374960	-0.124774	0.659287
	H974	H	0.250052	-0.125241	0.715691
	H975	H	0.499928	-0.375049	0.534573
	H976	H	0.327333	-0.283190	0.576236
	H977	H	0.297477	-0.283136	0.548724
	H978	H	0.297561	-0.216847	0.701256
	H979	H	0.327447	-0.216805	0.673894
	H980	H	0.297346	0.033518	0.548837
	H981	H	0.327162	0.033567	0.576268
	H982	H	0.327539	-0.533358	0.674127
	H983	H	0.297637	-0.533149	0.701424
	H984	H	0.422485	-0.533081	0.673665
	H985	H	0.452279	-0.533141	0.701004
	H986	H	0.422453	0.032742	0.576152
	H987	H	0.452286	0.032560	0.548728
	Al988	Al	0.374963	0.000042	0.624902
	Al989	Al	0.374985	0.249883	0.624935
	Al990	Al	0.249879	0.249857	0.499869
	Al991	Al	0.249941	0.000005	0.499919
	O992	O	0.395225	0.040745	0.648823
	O993	O	0.375055	0.124969	0.608423
	O994	O	0.374998	0.375042	0.641358
	O995	O	0.479730	0.041001	0.726081
	O996	O	0.354785	0.040955	0.648880
	O997	O	0.270267	0.040766	0.726214
	O998	O	0.354771	0.209005	0.648771
	O999	O	0.354678	0.290484	0.601101
	O1000	O	0.270141	0.290722	0.523741
	O1001	O	0.395239	0.208957	0.648648
	O1002	O	0.395104	0.291035	0.601109
	O1003	O	0.479742	0.290886	0.524056
	O1004	O	0.270224	0.209192	0.726044
	O1005	O	0.354706	0.458785	0.601107
	O1006	O	0.270188	0.458936	0.523782
	O1007	O	0.479732	0.459012	0.523975
	O1008	O	0.395152	0.459501	0.601158
	O1009	O	0.479650	0.208993	0.726259
	O1010	O	0.250017	0.374721	0.733770
	O1011	O	0.499979	0.125122	0.516800
	C1012	C	0.445820	0.213832	0.695298
	C1013	C	0.454496	0.124800	0.703040
	C1014	C	0.445873	0.035788	0.695173
	C1015	C	0.429062	0.035985	0.679758
	C1016	C	0.420418	0.124889	0.671933
	C1017	C	0.429036	0.213816	0.679828
	C1018	C	0.402373	0.124911	0.655081
	C1019	C	0.472546	0.125068	0.719789
	C1020	C	0.347640	0.124982	0.655232
	C1021	C	0.329574	0.125207	0.672008
	C1022	C	0.320868	0.214425	0.679727
	C1023	C	0.304057	0.214401	0.695093
	C1024	C	0.295448	0.125107	0.703034
	C1025	C	0.304159	0.036061	0.695276
	C1026	C	0.320961	0.035943	0.679925
	C1027	C	0.277417	0.124895	0.719849
	C1028	C	0.347581	0.374665	0.594693
	C1029	C	0.329506	0.374789	0.577977
	C1030	C	0.320895	0.463841	0.570101
	C1031	C	0.304052	0.463668	0.554717
	C1032	C	0.295399	0.374615	0.546873
	C1033	C	0.304026	0.285428	0.554781
	C1034	C	0.320871	0.285614	0.570168
	C1035	C	0.277308	0.374676	0.530158
	C1036	C	0.402272	0.375351	0.594798
	C1037	C	0.420339	0.375011	0.578066
	C1038	C	0.429041	0.285763	0.570330
	C1039	C	0.445862	0.285694	0.554977
	C1040	C	0.454520	0.375023	0.547145
	C1041	C	0.445891	0.464185	0.555011
	C1042	C	0.429063	0.464247	0.570358
	C1043	C	0.472630	0.374907	0.530343
	H1044	H	0.452432	0.216456	0.549039
	H1045	H	0.422499	0.216781	0.576411
	H1046	H	0.452332	0.282848	0.701377
	H1047	H	0.422562	0.282755	0.673761
	H1048	H	0.374934	0.125170	0.590464
	H1049	H	0.375039	0.374915	0.659405
	H1050	H	0.249949	0.374905	0.715684
	H1051	H	0.500046	0.125335	0.534811
	H1052	H	0.327353	0.216729	0.576265
	H1053	H	0.297520	0.216547	0.548701
	H1054	H	0.297470	0.283466	0.701077
	H1055	H	0.327330	0.283126	0.673572
	H1056	H	0.297571	0.532828	0.548662
	H1057	H	0.327366	0.532978	0.576151
	H1058	H	0.327545	-0.032765	0.674018
	H1059	H	0.297680	-0.032953	0.701365
	H1060	H	0.422620	-0.032950	0.673578
	H1061	H	0.452392	-0.033035	0.701104
	H1062	H	0.422628	0.533427	0.576404
	H1063	H	0.452498	0.532999	0.549065
	Al1064	Al	0.374996	-0.500038	0.875058
	Al1065	Al	0.374844	-0.250157	0.874993
	Al1066	Al	0.250009	-0.250292	0.750085
	Al1067	Al	0.250024	-0.500381	0.750183
	O1068	O	0.395194	-0.459037	0.898919
	O1069	O	0.374983	-0.375032	0.858582
	O1070	O	0.375147	-0.125201	0.891428
	O1071	O	0.479818	-0.459006	0.976081
	O1072	O	0.354723	-0.459147	0.898889
	O1073	O	0.270252	-0.459095	0.976339
	O1074	O	0.354760	-0.291161	0.898936
	O1075	O	0.354712	-0.209473	0.851190
	O1076	O	0.270253	-0.209110	0.773838
	O1077	O	0.395188	-0.290869	0.898781
	O1078	O	0.395136	-0.208998	0.851122
	O1079	O	0.479691	-0.208862	0.773794
	O1080	O	0.270205	-0.291023	0.976317
	O1081	O	0.354756	-0.041293	0.851158
	O1082	O	0.270248	-0.040781	0.773944
	O1083	O	0.479681	-0.040800	0.773852
	O1084	O	0.395180	-0.040953	0.851165
	O1085	O	0.479786	-0.290871	0.976246
	O1086	O	0.250009	-0.125126	0.983738
	O1087	O	0.500031	-0.374869	0.766301
	C1088	C	0.445885	-0.285677	0.945257
	C1089	C	0.454540	-0.374789	0.953105
	C1090	C	0.445911	-0.463957	0.945297
	C1091	C	0.429026	-0.463971	0.929974
	C1092	C	0.420411	-0.374787	0.922043
	C1093	C	0.429028	-0.285672	0.929906
	C1094	C	0.402317	-0.374911	0.905258
	C1095	C	0.472660	-0.374872	0.969723
	C1096	C	0.347570	-0.375235	0.905346
	C1097	C	0.329526	-0.374883	0.922086
	C1098	C	0.320929	-0.285819	0.929964
	C1099	C	0.304065	-0.285694	0.945352
	C1100	C	0.295427	-0.374705	0.953151
	C1101	C	0.304081	-0.463728	0.945373
	C1102	C	0.320941	-0.463736	0.929970
	C1103	C	0.277333	-0.374936	0.969929
	C1104	C	0.347570	-0.125217	0.844854
	C1105	C	0.329484	-0.125016	0.828154
	C1106	C	0.320867	-0.035854	0.820298
	C1107	C	0.304033	-0.035862	0.804907
	C1108	C	0.295366	-0.124900	0.797170
	C1109	C	0.304007	-0.214017	0.804901
	C1110	C	0.320880	-0.214214	0.820268
	C1111	C	0.277332	-0.125037	0.780374
	C1112	C	0.402349	-0.124930	0.844851
	C1113	C	0.420391	-0.124930	0.828100
	C1114	C	0.429019	-0.214017	0.820271
	C1115	C	0.445836	-0.213975	0.804854
	C1116	C	0.454472	-0.125058	0.796986
	C1117	C	0.445821	-0.036038	0.804789
	C1118	C	0.429006	-0.035932	0.820202
	C1119	C	0.472578	-0.125034	0.780287
	H1120	H	0.452401	-0.282906	0.798859
	H1121	H	0.422571	-0.283005	0.826398
	H1122	H	0.452412	-0.216425	0.951225
	H1123	H	0.422548	-0.216485	0.923869
	H1124	H	0.375120	-0.374871	0.840471
	H1125	H	0.375703	-0.124350	0.909288
	H1126	H	0.250329	-0.124856	0.965764
	H1127	H	0.500348	-0.374827	0.784366
	H1128	H	0.327336	-0.283166	0.826334
	H1129	H	0.297494	-0.283091	0.798896
	H1130	H	0.297649	-0.216523	0.951440
	H1131	H	0.327469	-0.216603	0.923957
	H1132	H	0.297603	0.033223	0.798895
	H1133	H	0.327366	0.033292	0.826284
	H1134	H	0.327372	-0.532766	0.923965
	H1135	H	0.297595	-0.533009	0.951479
	H1136	H	0.422511	-0.533312	0.923921
	H1137	H	0.452417	-0.533209	0.951303
	H1138	H	0.422547	0.032995	0.826406
	H1139	H	0.452297	0.032933	0.798763
	Al1140	Al	0.374903	-0.000181	0.874947
	Al1141	Al	0.374963	0.249869	0.875050
	Al1142	Al	0.250057	0.249720	0.750101
	Al1143	Al	0.250037	-0.000286	0.750050
	O1144	O	0.395206	0.040854	0.898676
	O1145	O	0.374787	0.124761	0.858453
	O1146	O	0.374955	0.375168	0.891418
	O1147	O	0.479727	0.040461	0.976281
	O1148	O	0.354782	0.040707	0.898942
	O1149	O	0.270155	0.040987	0.976143
	O1150	O	0.354820	0.208873	0.898958
	O1151	O	0.354673	0.290992	0.851310
	O1152	O	0.270267	0.291082	0.774021
	O1153	O	0.395160	0.209091	0.898789
	O1154	O	0.395161	0.291019	0.851198
	O1155	O	0.479670	0.290999	0.773695
	O1156	O	0.270191	0.209086	0.976311
	O1157	O	0.354729	0.459048	0.851241
	O1158	O	0.270227	0.459272	0.774090
	O1159	O	0.479731	0.459265	0.773721
	O1160	O	0.395172	0.459171	0.851102
	O1161	O	0.479801	0.208788	0.976151
	O1162	O	0.249987	0.374890	0.983871
	O1163	O	0.499989	0.125205	0.766301
	C1164	C	0.445778	0.214244	0.945454
	C1165	C	0.454455	0.124855	0.953224
	C1166	C	0.445820	0.035642	0.945293
	C1167	C	0.429012	0.035713	0.929855
	C1168	C	0.420359	0.125002	0.921992
	C1169	C	0.428964	0.214247	0.930031
	C1170	C	0.402307	0.124976	0.905180
	C1171	C	0.472613	0.124619	0.969844
	C1172	C	0.347674	0.124619	0.905352
	C1173	C	0.329611	0.124937	0.922165
	C1174	C	0.320962	0.214205	0.929948
	C1175	C	0.304091	0.214228	0.945288
	C1176	C	0.295446	0.125188	0.953162
	C1177	C	0.304091	0.035896	0.945364
	C1178	C	0.320977	0.035820	0.930042
	C1179	C	0.277334	0.124868	0.969864
	C1180	C	0.347555	0.375144	0.844913
	C1181	C	0.329545	0.375110	0.828114
	C1182	C	0.320894	0.464142	0.820379
	C1183	C	0.304084	0.464025	0.805000
	C1184	C	0.295507	0.374971	0.797073
	C1185	C	0.304137	0.285768	0.804899
	C1186	C	0.320931	0.286081	0.820283
	C1187	C	0.277406	0.375163	0.780394
	C1188	C	0.402300	0.374985	0.844770
	C1189	C	0.420425	0.374801	0.828022
	C1190	C	0.429055	0.285751	0.820104
	C1191	C	0.445850	0.285886	0.804633
	C1192	C	0.454502	0.375044	0.796861
	C1193	C	0.445881	0.464101	0.804768
	C1194	C	0.429080	0.463913	0.820206
	C1195	C	0.472560	0.375188	0.780061
	H1196	H	0.452259	0.216669	0.798445
	H1197	H	0.422530	0.216622	0.825984
	H1198	H	0.452276	0.283408	0.951537
	H1199	H	0.422416	0.283440	0.924021
	H1200	H	0.374722	0.124817	0.840583
	H1201	H	0.374751	0.375546	0.909418
	H1202	H	0.249875	0.375046	0.965863
	H1203	H	0.500386	0.125474	0.784216
	H1204	H	0.327479	0.216952	0.826331
	H1205	H	0.297645	0.216784	0.798899
	H1206	H	0.297552	0.283447	0.951272
	H1207	H	0.327421	0.283438	0.923962
	H1208	H	0.297520	0.532881	0.799027
	H1209	H	0.327370	0.533005	0.826443
	H1210	H	0.327521	-0.033317	0.924007
	H1211	H	0.297605	-0.033496	0.951346
	H1212	H	0.422567	-0.033484	0.923796
	H1213	H	0.452386	-0.033503	0.951259
	H1214	H	0.422579	0.532875	0.826207
	H1215	H	0.452358	0.533118	0.798707
	Al1216	Al	0.625022	-0.499994	0.124964
	Al1217	Al	0.625024	-0.249899	0.125047
	Al1218	Al	0.499927	-0.249964	0.000160
	Al1219	Al	0.499957	-0.500108	0.000014
	O1220	O	0.645271	-0.459003	0.148751
	O1221	O	0.624947	-0.374990	0.108578
	O1222	O	0.624973	-0.124851	0.141418
	O1223	O	0.729825	-0.458981	0.226243
	O1224	O	0.604817	-0.459455	0.148793
	O1225	O	0.520246	-0.459217	0.226245
	O1226	O	0.604810	-0.291183	0.148887
	O1227	O	0.604771	-0.209052	0.101274
	O1228	O	0.520190	-0.208907	0.023954
	O1229	O	0.645289	-0.290948	0.148850
	O1230	O	0.645157	-0.209092	0.101125
	O1231	O	0.729675	-0.209144	0.023602
	O1232	O	0.520187	-0.290832	0.226163
	O1233	O	0.604783	-0.040821	0.101150
	O1234	O	0.520252	-0.040840	0.023812
	O1235	O	0.729722	-0.040843	0.023773
	O1236	O	0.645256	-0.040921	0.101324
	O1237	O	0.729741	-0.290742	0.226376
	O1238	O	0.500051	-0.124671	0.233612
	O1239	O	0.750036	-0.374931	0.016424
	C1240	C	0.696001	-0.286393	0.195115
	C1241	C	0.704592	-0.375416	0.203083
	C1242	C	0.695911	-0.464681	0.195405
	C1243	C	0.679093	-0.464378	0.179968
	C1244	C	0.670499	-0.375183	0.172000
	C1245	C	0.679167	-0.286183	0.179686
	C1246	C	0.652406	-0.375192	0.155201
	C1247	C	0.722624	-0.374925	0.219953
	C1248	C	0.597686	-0.375564	0.155195
	C1249	C	0.579551	-0.375069	0.171924
	C1250	C	0.570917	-0.285825	0.179754
	C1251	C	0.554089	-0.285942	0.195154
	C1252	C	0.545436	-0.375094	0.202995
	C1253	C	0.554042	-0.464260	0.195127
	C1254	C	0.570888	-0.464225	0.179744
	C1255	C	0.527333	-0.374782	0.219719
	C1256	C	0.597635	-0.124917	0.094800
	C1257	C	0.579569	-0.125108	0.078056
	C1258	C	0.570973	-0.036090	0.070056
	C1259	C	0.554180	-0.036196	0.054661
	C1260	C	0.545449	-0.125107	0.046967
	C1261	C	0.554013	-0.214267	0.055003
	C1262	C	0.570818	-0.214027	0.070409
	C1263	C	0.527368	-0.124767	0.030234
	C1264	C	0.652404	-0.125155	0.094930
	C1265	C	0.670418	-0.125231	0.078041
	C1266	C	0.679032	-0.214349	0.070170
	C1267	C	0.695815	-0.214065	0.054712
	C1268	C	0.704483	-0.124832	0.046890
	C1269	C	0.695931	-0.035734	0.054885
	C1270	C	0.679151	-0.036055	0.070331
	C1271	C	0.722544	-0.124992	0.030040
	H1272	H	0.702316	-0.282958	0.048666
	H1273	H	0.672611	-0.283528	0.076304
	H1274	H	0.702506	-0.217224	0.201189
	H1275	H	0.672756	-0.216784	0.173622
	H1276	H	0.624731	-0.374511	0.090698
	H1277	H	0.625170	-0.125122	0.159443
	H1278	H	0.500373	-0.125178	0.215575
	H1279	H	0.749833	-0.375004	0.034388
	H1280	H	0.577298	-0.283137	0.076575
	H1281	H	0.547380	-0.282908	0.049127
	H1282	H	0.547585	-0.216844	0.201133
	H1283	H	0.577391	-0.216833	0.173630
	H1284	H	0.547736	0.032743	0.048592
	H1285	H	0.577572	0.033065	0.075914
	H1286	H	0.577345	-0.533263	0.173644
	H1287	H	0.547511	-0.533139	0.201144
	H1288	H	0.672543	-0.533477	0.173983
	H1289	H	0.702303	-0.533954	0.201629
	H1290	H	0.672752	0.033077	0.076658
	H1291	H	0.702526	0.033610	0.048961
	Al1292	Al	0.625004	0.000072	0.125095
	Al1293	Al	0.625058	0.249907	0.125007
	Al1294	Al	0.499972	0.249834	0.000075
	Al1295	Al	0.499950	0.000065	0.000015
	O1296	O	0.645169	0.040580	0.148998
	O1297	O	0.625078	0.124812	0.108668
	O1298	O	0.625084	0.374987	0.141405
	O1299	O	0.729835	0.040534	0.226110
	O1300	O	0.604776	0.041289	0.148895
	O1301	O	0.520135	0.040898	0.226088
	O1302	O	0.604796	0.209331	0.148829
	O1303	O	0.604751	0.291122	0.101286
	O1304	O	0.520249	0.290813	0.023811
	O1305	O	0.645174	0.208923	0.148876
	O1306	O	0.645197	0.290654	0.101029
	O1307	O	0.729717	0.290696	0.023699
	O1308	O	0.520230	0.209070	0.226154
	O1309	O	0.604763	0.459427	0.101105
	O1310	O	0.520267	0.458942	0.023672
	O1311	O	0.729839	0.458942	0.023757
	O1312	O	0.645213	0.458690	0.101085
	O1313	O	0.729800	0.208846	0.226233
	O1314	O	0.499974	0.375146	0.233606
	O1315	O	0.750036	0.124970	0.016196
	C1316	C	0.695904	0.214417	0.195225
	C1317	C	0.704573	0.125207	0.203103
	C1318	C	0.695869	0.036133	0.195309
	C1319	C	0.679055	0.035938	0.179952
	C1320	C	0.670394	0.125047	0.172079
	C1321	C	0.679069	0.214257	0.179887
	C1322	C	0.652352	0.124787	0.155256
	C1323	C	0.722647	0.124751	0.219855
	C1324	C	0.597674	0.125311	0.155252
	C1325	C	0.579543	0.124931	0.171958
	C1326	C	0.570980	0.213856	0.179933
	C1327	C	0.554146	0.214007	0.195331
	C1328	C	0.545429	0.124933	0.202950
	C1329	C	0.554089	0.035910	0.195164
	C1330	C	0.570924	0.035931	0.179743
	C1331	C	0.527368	0.125058	0.219785
	C1332	C	0.597626	0.375182	0.094847
	C1333	C	0.579505	0.375001	0.078102
	C1334	C	0.570908	0.464259	0.070266
	C1335	C	0.554077	0.464319	0.054808
	C1336	C	0.545430	0.375122	0.047002
	C1337	C	0.554015	0.285929	0.054919
	C1338	C	0.570806	0.285822	0.070398
	C1339	C	0.527383	0.374974	0.030141
	C1340	C	0.652356	0.374645	0.094730
	C1341	C	0.670464	0.374857	0.077992
	C1342	C	0.679181	0.285762	0.070271
	C1343	C	0.696021	0.285778	0.054892
	C1344	C	0.704607	0.374903	0.046961
	C1345	C	0.695947	0.464019	0.054772
	C1346	C	0.679120	0.463921	0.070188
	C1347	C	0.722580	0.374885	0.030022
	H1348	H	0.702493	0.216589	0.048804
	H1349	H	0.672704	0.216569	0.076291
	H1350	H	0.702414	0.283541	0.201260
	H1351	H	0.672564	0.283346	0.173820
	H1352	H	0.625323	0.125109	0.090761
	H1353	H	0.624921	0.374786	0.159371
	H1354	H	0.499971	0.374446	0.215687
	H1355	H	0.750034	0.125088	0.034214
	H1356	H	0.577215	0.216679	0.076597
	H1357	H	0.547536	0.216864	0.048958
	H1358	H	0.547750	0.283030	0.201569
	H1359	H	0.577605	0.282815	0.174114
	H1360	H	0.547649	0.533555	0.048675
	H1361	H	0.577432	0.533372	0.076314
	H1362	H	0.577506	-0.032849	0.173868
	H1363	H	0.547723	-0.032976	0.201371
	H1364	H	0.672575	-0.033227	0.173897
	H1365	H	0.702401	-0.032799	0.201398
	H1366	H	0.672611	0.532976	0.076198
	H1367	H	0.702375	0.533259	0.048649
	Al1368	Al	0.625050	-0.500149	0.374991
	Al1369	Al	0.625064	-0.250049	0.375057
	Al1370	Al	0.499994	-0.249655	0.250067
	Al1371	Al	0.499989	-0.499816	0.250011
	O1372	O	0.645221	-0.459228	0.398927
	O1373	O	0.625046	-0.374979	0.358535
	O1374	O	0.625090	-0.125075	0.391480
	O1375	O	0.729863	-0.458669	0.476319
	O1376	O	0.604909	-0.459010	0.399029
	O1377	O	0.520305	-0.459328	0.476387
	O1378	O	0.604843	-0.290769	0.398877
	O1379	O	0.604862	-0.209222	0.351307
	O1380	O	0.520303	-0.209331	0.273943
	O1381	O	0.645214	-0.291140	0.398914
	O1382	O	0.645207	-0.209264	0.351102
	O1383	O	0.729785	-0.208827	0.273862
	O1384	O	0.520168	-0.290935	0.476065
	O1385	O	0.604767	-0.040878	0.351387
	O1386	O	0.520249	-0.040813	0.273919
	O1387	O	0.729834	-0.040412	0.273975
	O1388	O	0.645330	-0.040671	0.351397
	O1389	O	0.729757	-0.290288	0.476349
	O1390	O	0.500042	-0.125007	0.483791
	O1391	O	0.749976	-0.374709	0.266579
	C1392	C	0.695999	-0.286020	0.445198
	C1393	C	0.704608	-0.374945	0.453116
	C1394	C	0.695962	-0.464305	0.445274
	C1395	C	0.679112	-0.464548	0.429896
	C1396	C	0.670497	-0.375501	0.422003
	C1397	C	0.679148	-0.286436	0.429824
	C1398	C	0.652338	-0.375211	0.405407
	C1399	C	0.722683	-0.374698	0.469883
	C1400	C	0.597768	-0.374997	0.405397
	C1401	C	0.579673	-0.374992	0.422173
	C1402	C	0.570789	-0.286165	0.429603
	C1403	C	0.553937	-0.286038	0.444958
	C1404	C	0.545518	-0.375093	0.453142
	C1405	C	0.554311	-0.463916	0.445594
	C1406	C	0.571155	-0.464011	0.430216
	C1407	C	0.527424	-0.375110	0.469863
	C1408	C	0.597656	-0.124967	0.345002
	C1409	C	0.579610	-0.125047	0.328124
	C1410	C	0.570880	-0.035905	0.320486
	C1411	C	0.554054	-0.036047	0.305085
	C1412	C	0.545501	-0.125115	0.297079
	C1413	C	0.554221	-0.214218	0.304791
	C1414	C	0.571035	-0.214067	0.320187
	C1415	C	0.527414	-0.124841	0.280312
	C1416	C	0.652360	-0.125132	0.344876
	C1417	C	0.670529	-0.124897	0.328249
	C1418	C	0.679058	-0.214138	0.320146
	C1419	C	0.695834	-0.214017	0.304738
	C1420	C	0.704563	-0.124512	0.297071
	C1421	C	0.696050	-0.035163	0.305178
	C1422	C	0.679251	-0.035380	0.320591
	C1423	C	0.722695	-0.124607	0.280259
	H1424	H	0.702261	-0.283147	0.298508
	H1425	H	0.672455	-0.283518	0.325935
	H1426	H	0.702430	-0.216824	0.451168
	H1427	H	0.672595	-0.217340	0.423843
	H1428	H	0.625022	-0.374697	0.340591
	H1429	H	0.624851	-0.124987	0.409436
	H1430	H	0.499925	-0.124941	0.465815
	H1431	H	0.749889	-0.374592	0.284569
	H1432	H	0.577570	-0.283139	0.326190
	H1433	H	0.547806	-0.283271	0.298656
	H1434	H	0.547294	-0.216782	0.450727
	H1435	H	0.577130	-0.217289	0.423333
	H1436	H	0.547426	0.032816	0.299202
	H1437	H	0.577243	0.033246	0.326775
	H1438	H	0.577791	-0.533152	0.424457
	H1439	H	0.547918	-0.533120	0.451851
	H1440	H	0.672580	-0.533914	0.424038
	H1441	H	0.702466	-0.533397	0.451296
	H1442	H	0.672756	0.033692	0.326786
	H1443	H	0.702666	0.034082	0.299280
	Al1444	Al	0.625020	0.000048	0.375010
	Al1445	Al	0.624974	0.249829	0.375011
	Al1446	Al	0.500001	0.250319	0.250093
	Al1447	Al	0.500003	0.000380	0.250094
	O1448	O	0.645159	0.041082	0.399009
	O1449	O	0.625014	0.124838	0.358666
	O1450	O	0.624956	0.374741	0.391410
	O1451	O	0.729790	0.041250	0.476282
	O1452	O	0.604816	0.040874	0.398985
	O1453	O	0.520248	0.041274	0.476481
	O1454	O	0.604793	0.208992	0.399021
	O1455	O	0.604793	0.290834	0.351167
	O1456	O	0.520207	0.291165	0.273907
	O1457	O	0.645228	0.209215	0.398868
	O1458	O	0.645156	0.290541	0.351184
	O1459	O	0.729840	0.290672	0.273980
	O1460	O	0.520201	0.209280	0.476355
	O1461	O	0.604756	0.458898	0.351279
	O1462	O	0.520180	0.459248	0.273908
	O1463	O	0.729866	0.459067	0.274108
	O1464	O	0.645135	0.458661	0.351140
	O1465	O	0.729802	0.209409	0.476181
	O1466	O	0.499993	0.375231	0.483763
	O1467	O	0.750094	0.125020	0.266357
	C1468	C	0.695965	0.214233	0.445180
	C1469	C	0.704535	0.125162	0.453154
	C1470	C	0.695847	0.036166	0.445407
	C1471	C	0.678991	0.036189	0.430091
	C1472	C	0.670439	0.125242	0.422108
	C1473	C	0.679108	0.214213	0.429863
	C1474	C	0.652315	0.125241	0.405445
	C1475	C	0.722694	0.125290	0.469791
	C1476	C	0.597656	0.124745	0.405371
	C1477	C	0.579553	0.124818	0.422095
	C1478	C	0.570871	0.213935	0.429843
	C1479	C	0.554053	0.213972	0.445189
	C1480	C	0.545416	0.124941	0.453177
	C1481	C	0.554143	0.035639	0.445512
	C1482	C	0.570972	0.035656	0.430128
	C1483	C	0.527331	0.125143	0.469955
	C1484	C	0.597603	0.375021	0.344877
	C1485	C	0.579562	0.375174	0.328128
	C1486	C	0.570859	0.464350	0.320367
	C1487	C	0.554035	0.464449	0.304981
	C1488	C	0.545453	0.375405	0.296994
	C1489	C	0.554171	0.286148	0.304688
	C1490	C	0.570972	0.286123	0.320105
	C1491	C	0.527358	0.375274	0.280302
	C1492	C	0.652339	0.374582	0.344788
	C1493	C	0.670415	0.374485	0.328021
	C1494	C	0.679026	0.285119	0.320209
	C1495	C	0.695906	0.285379	0.304903
	C1496	C	0.704627	0.374709	0.297145
	C1497	C	0.696026	0.464057	0.305036
	C1498	C	0.679146	0.463749	0.320305
	C1499	C	0.722781	0.374744	0.280527
	H1500	H	0.702498	0.216211	0.299028
	H1501	H	0.672460	0.215770	0.326225
	H1502	H	0.702578	0.283341	0.451072
	H1503	H	0.672589	0.283180	0.423790
	H1504	H	0.624890	0.125033	0.340630
	H1505	H	0.624863	0.374863	0.409474
	H1506	H	0.500228	0.374937	0.465824
	H1507	H	0.750212	0.124986	0.284252
	H1508	H	0.577518	0.216908	0.326057
	H1509	H	0.547719	0.217036	0.298505
	H1510	H	0.547494	0.282982	0.451165
	H1511	H	0.577317	0.283004	0.423681
	H1512	H	0.547520	0.533621	0.299034
	H1513	H	0.577334	0.533410	0.326548
	H1514	H	0.577580	-0.033324	0.424187
	H1515	H	0.547710	-0.033232	0.451761
	H1516	H	0.672451	-0.032669	0.424191
	H1517	H	0.702322	-0.032897	0.451461
	H1518	H	0.672720	0.532885	0.326477
	H1519	H	0.702673	0.533179	0.299301
	Al1520	Al	0.625034	-0.499660	0.625082
	Al1521	Al	0.624989	-0.249986	0.625129
	Al1522	Al	0.500054	-0.249898	0.500142
	Al1523	Al	0.499986	-0.499954	0.500137
	O1524	O	0.645237	-0.459150	0.649033
	O1525	O	0.625161	-0.374874	0.608650
	O1526	O	0.625019	-0.124713	0.641476
	O1527	O	0.729844	-0.459019	0.726423
	O1528	O	0.604877	-0.459185	0.649024
	O1529	O	0.520214	-0.458842	0.726111
	O1530	O	0.604896	-0.291117	0.648992
	O1531	O	0.604824	-0.209115	0.601248
	O1532	O	0.520267	-0.209089	0.524015
	O1533	O	0.645222	-0.291199	0.648990
	O1534	O	0.645269	-0.208991	0.601185
	O1535	O	0.729815	-0.208853	0.523953
	O1536	O	0.520172	-0.290804	0.726098
	O1537	O	0.604872	-0.040863	0.601204
	O1538	O	0.520239	-0.040931	0.524157
	O1539	O	0.729790	-0.040676	0.523952
	O1540	O	0.645244	-0.040804	0.601178
	O1541	O	0.729873	-0.291051	0.726234
	O1542	O	0.499931	-0.124869	0.733551
	O1543	O	0.750055	-0.374876	0.516641
	C1544	C	0.696030	-0.286053	0.695234
	C1545	C	0.704666	-0.375070	0.703184
	C1546	C	0.695950	-0.464171	0.695482
	C1547	C	0.679105	-0.464323	0.680131
	C1548	C	0.670521	-0.375331	0.672099
	C1549	C	0.679207	-0.286288	0.679846
	C1550	C	0.652398	-0.375168	0.655389
	C1551	C	0.722730	-0.375000	0.719921
	C1552	C	0.597735	-0.375076	0.655386
	C1553	C	0.579621	-0.374963	0.672084
	C1554	C	0.570943	-0.285765	0.679853
	C1555	C	0.554067	-0.285491	0.695132
	C1556	C	0.545419	-0.374629	0.702985
	C1557	C	0.554086	-0.463734	0.695216
	C1558	C	0.570969	-0.464019	0.679913
	C1559	C	0.527321	-0.374693	0.719678
	C1560	C	0.597697	-0.124938	0.594834
	C1561	C	0.579610	-0.125355	0.578148
	C1562	C	0.570940	-0.036270	0.570437
	C1563	C	0.554101	-0.036085	0.555056
	C1564	C	0.545479	-0.124995	0.547168
	C1565	C	0.554087	-0.214231	0.554977
	C1566	C	0.570948	-0.214414	0.570355
	C1567	C	0.527396	-0.125140	0.530461
	C1568	C	0.652423	-0.124964	0.594878
	C1569	C	0.670488	-0.125044	0.578113
	C1570	C	0.679167	-0.213932	0.570384
	C1571	C	0.695990	-0.213978	0.555023
	C1572	C	0.704561	-0.124997	0.547087
	C1573	C	0.695883	-0.036051	0.554829
	C1574	C	0.679081	-0.036123	0.570186
	C1575	C	0.722655	-0.124850	0.530406
	H1576	H	0.702569	-0.282991	0.549121
	H1577	H	0.672766	-0.283136	0.576579
	H1578	H	0.702596	-0.216863	0.701185
	H1579	H	0.672732	-0.217184	0.673732
	H1580	H	0.625534	-0.374839	0.590673
	H1581	H	0.625104	-0.124000	0.659459
	H1582	H	0.500476	-0.124778	0.715601
	H1583	H	0.750056	-0.375221	0.534592
	H1584	H	0.577451	-0.283477	0.576332
	H1585	H	0.547599	-0.283352	0.548972
	H1586	H	0.547503	-0.216263	0.701017
	H1587	H	0.577447	-0.216779	0.673791
	H1588	H	0.547639	0.032981	0.549099
	H1589	H	0.577387	0.032816	0.576527
	H1590	H	0.577513	-0.533066	0.673992
	H1591	H	0.547552	-0.532787	0.701175
	H1592	H	0.672530	-0.533424	0.674267
	H1593	H	0.702426	-0.533173	0.701606
	H1594	H	0.672606	0.032774	0.576222
	H1595	H	0.702397	0.032855	0.548787
	Al1596	Al	0.625016	0.000219	0.625028
	Al1597	Al	0.624983	0.250251	0.625012
	Al1598	Al	0.499945	0.250107	0.500153
	Al1599	Al	0.500053	0.000061	0.500292
	O1600	O	0.645135	0.040574	0.649038
	O1601	O	0.625030	0.125062	0.608675
	O1602	O	0.625094	0.375197	0.641446
	O1603	O	0.729768	0.041153	0.726244
	O1604	O	0.604739	0.040711	0.648782
	O1605	O	0.520160	0.040821	0.726135
	O1606	O	0.604779	0.208878	0.648885
	O1607	O	0.604828	0.291118	0.601214
	O1608	O	0.520212	0.290980	0.524013
	O1609	O	0.645172	0.208923	0.648938
	O1610	O	0.645197	0.290757	0.601087
	O1611	O	0.729905	0.291235	0.524084
	O1612	O	0.520164	0.208969	0.726233
	O1613	O	0.604736	0.459461	0.601163
	O1614	O	0.520125	0.459207	0.524022
	O1615	O	0.729771	0.459522	0.523895
	O1616	O	0.645181	0.459143	0.601042
	O1617	O	0.729699	0.209240	0.726339
	O1618	O	0.499935	0.374849	0.733404
	O1619	O	0.750015	0.125238	0.516523
	C1620	C	0.695897	0.213930	0.695176
	C1621	C	0.704498	0.125049	0.703174
	C1622	C	0.695856	0.036002	0.695392
	C1623	C	0.678993	0.035837	0.680062
	C1624	C	0.670390	0.124854	0.672107
	C1625	C	0.679056	0.213901	0.679836
	C1626	C	0.652285	0.124823	0.655394
	C1627	C	0.722596	0.125172	0.719887
	C1628	C	0.597651	0.124766	0.655231
	C1629	C	0.579549	0.125166	0.672020
	C1630	C	0.570931	0.214181	0.679913
	C1631	C	0.554084	0.214080	0.695330
	C1632	C	0.545458	0.124968	0.703137
	C1633	C	0.554104	0.035953	0.695222
	C1634	C	0.570924	0.036039	0.679794
	C1635	C	0.527308	0.124951	0.719817
	C1636	C	0.597638	0.375137	0.594789
	C1637	C	0.579586	0.375136	0.578053
	C1638	C	0.570934	0.464277	0.570263
	C1639	C	0.554107	0.464142	0.554889
	C1640	C	0.545472	0.375051	0.547012
	C1641	C	0.554113	0.285927	0.554840
	C1642	C	0.570935	0.286084	0.570205
	C1643	C	0.527370	0.374981	0.530432
	C1644	C	0.652305	0.374870	0.594703
	C1645	C	0.670451	0.374818	0.578095
	C1646	C	0.679275	0.285554	0.570574
	C1647	C	0.696137	0.285621	0.555256
	C1648	C	0.704647	0.374772	0.547200
	C1649	C	0.695862	0.463922	0.554831
	C1650	C	0.679027	0.463923	0.570125
	C1651	C	0.722694	0.375232	0.530384
	H1652	H	0.702717	0.216808	0.549354
	H1653	H	0.672770	0.216615	0.576704
	H1654	H	0.702411	0.283104	0.701010
	H1655	H	0.672595	0.282701	0.673621
	H1656	H	0.625061	0.125004	0.590726
	H1657	H	0.625340	0.375380	0.659511
	H1658	H	0.499870	0.374762	0.715456
	H1659	H	0.750066	0.124937	0.534562
	H1660	H	0.577404	0.216966	0.576273
	H1661	H	0.547582	0.216802	0.548871
	H1662	H	0.547616	0.283062	0.701334
	H1663	H	0.577392	0.283115	0.673944
	H1664	H	0.547570	0.533264	0.548976
	H1665	H	0.577457	0.533228	0.576392
	H1666	H	0.577411	-0.033070	0.673727
	H1667	H	0.547631	-0.033187	0.701166
	H1668	H	0.672489	-0.033225	0.674111
	H1669	H	0.702371	-0.033093	0.701535
	H1670	H	0.672354	0.533177	0.575891
	H1671	H	0.702294	0.532769	0.548660
	Al1672	Al	0.625006	-0.499732	0.875059
	Al1673	Al	0.625018	-0.250043	0.874983
	Al1674	Al	0.499879	-0.250070	0.749885
	Al1675	Al	0.499937	-0.500044	0.749872
	O1676	O	0.645262	-0.459136	0.898802
	O1677	O	0.624946	-0.375019	0.858617
	O1678	O	0.624994	-0.125010	0.891383
	O1679	O	0.729703	-0.459156	0.976180
	O1680	O	0.604825	-0.458511	0.898971
	O1681	O	0.520194	-0.459033	0.976231
	O1682	O	0.604877	-0.290299	0.898986
	O1683	O	0.604746	-0.209364	0.851240
	O1684	O	0.520143	-0.209150	0.773767
	O1685	O	0.645263	-0.291167	0.898832
	O1686	O	0.645240	-0.209398	0.851194
	O1687	O	0.729887	-0.209082	0.773967
	O1688	O	0.520196	-0.290738	0.976246
	O1689	O	0.604801	-0.041132	0.851050
	O1690	O	0.520189	-0.041100	0.773694
	O1691	O	0.729700	-0.040765	0.773899
	O1692	O	0.645301	-0.041126	0.851358
	O1693	O	0.729686	-0.290889	0.976197
	O1694	O	0.500057	-0.125129	0.983733
	O1695	O	0.750105	-0.375019	0.766603
	C1696	C	0.695819	-0.285915	0.945332
	C1697	C	0.704503	-0.375000	0.953046
	C1698	C	0.695892	-0.464032	0.945160
	C1699	C	0.679099	-0.464040	0.929725
	C1700	C	0.670470	-0.375057	0.921961
	C1701	C	0.679033	-0.285814	0.929876
	C1702	C	0.652429	-0.375084	0.905117
	C1703	C	0.722531	-0.375164	0.969821
	C1704	C	0.597663	-0.374474	0.905286
	C1705	C	0.579550	-0.374588	0.921923
	C1706	C	0.570981	-0.285415	0.929898
	C1707	C	0.554140	-0.285520	0.945301
	C1708	C	0.545415	-0.374690	0.953016
	C1709	C	0.554019	-0.463901	0.945025
	C1710	C	0.570851	-0.463870	0.929627
	C1711	C	0.527334	-0.374841	0.969797
	C1712	C	0.597649	-0.125131	0.844778
	C1713	C	0.579497	-0.125404	0.828038
	C1714	C	0.570898	-0.036305	0.820108
	C1715	C	0.554103	-0.036383	0.804654
	C1716	C	0.545374	-0.125451	0.796957
	C1717	C	0.553902	-0.214532	0.805013
	C1718	C	0.570739	-0.214572	0.820470
	C1719	C	0.527294	-0.125353	0.780069
	C1720	C	0.652415	-0.125309	0.844842
	C1721	C	0.670452	-0.125133	0.828060
	C1722	C	0.679126	-0.214042	0.820223
	C1723	C	0.695954	-0.214172	0.804868
	C1724	C	0.704557	-0.125274	0.796949
	C1725	C	0.695861	-0.036143	0.804719
	C1726	C	0.679060	-0.036142	0.820135
	C1727	C	0.722607	-0.124944	0.780261
	H1728	H	0.702487	-0.282912	0.798822
	H1729	H	0.672566	-0.282774	0.826296
	H1730	H	0.702265	-0.216871	0.951354
	H1731	H	0.672483	-0.217149	0.923884
	H1732	H	0.624721	-0.375092	0.840753
	H1733	H	0.625047	-0.125380	0.909402
	H1734	H	0.500396	-0.124946	0.965820
	H1735	H	0.750073	-0.374793	0.784536
	H1736	H	0.577158	-0.283888	0.826500
	H1737	H	0.547260	-0.283734	0.799175
	H1738	H	0.547701	-0.216387	0.951422
	H1739	H	0.577530	-0.216381	0.923906
	H1740	H	0.547701	0.033047	0.798524
	H1741	H	0.577519	0.032725	0.825851
	H1742	H	0.577256	-0.533035	0.923514
	H1743	H	0.547519	-0.533010	0.950982
	H1744	H	0.672683	-0.533250	0.923611
	H1745	H	0.702522	-0.533265	0.951008
	H1746	H	0.672515	0.032794	0.826110
	H1747	H	0.702344	0.032771	0.798548
	Al1748	Al	0.624925	0.000164	0.875011
	Al1749	Al	0.624880	0.250083	0.874966
	Al1750	Al	0.499858	0.250114	0.749944
	Al1751	Al	0.499925	0.000029	0.750003
	O1752	O	0.645087	0.040961	0.898986
	O1753	O	0.624902	0.124991	0.858628
	O1754	O	0.624897	0.375050	0.891460
	O1755	O	0.729750	0.040741	0.975971
	O1756	O	0.604677	0.040961	0.898870
	O1757	O	0.520216	0.040744	0.976317
	O1758	O	0.604692	0.209135	0.898996
	O1759	O	0.604676	0.290980	0.851223
	O1760	O	0.520090	0.291083	0.773780
	O1761	O	0.645139	0.209123	0.898698
	O1762	O	0.645171	0.290724	0.851190
	O1763	O	0.729813	0.290804	0.773909
	O1764	O	0.520259	0.208970	0.976360
	O1765	O	0.604711	0.459132	0.851170
	O1766	O	0.520252	0.459373	0.773686
	O1767	O	0.729826	0.458916	0.774043
	O1768	O	0.645093	0.458831	0.851145
	O1769	O	0.729773	0.209046	0.975969
	O1770	O	0.499987	0.374734	0.983661
	O1771	O	0.749967	0.124816	0.766428
	C1772	C	0.695815	0.214167	0.945292
	C1773	C	0.704501	0.124832	0.952940
	C1774	C	0.695896	0.035704	0.945021
	C1775	C	0.679067	0.036038	0.929715
	C1776	C	0.670419	0.125307	0.921935
	C1777	C	0.679004	0.214370	0.929901
	C1778	C	0.652272	0.125227	0.905183
	C1779	C	0.722554	0.125021	0.969665
	C1780	C	0.597548	0.124954	0.905348
	C1781	C	0.579467	0.124772	0.921986
	C1782	C	0.570888	0.213872	0.929904
	C1783	C	0.554092	0.214073	0.945272
	C1784	C	0.545370	0.125042	0.953022
	C1785	C	0.553927	0.035883	0.945117
	C1786	C	0.570745	0.035826	0.929739
	C1787	C	0.527372	0.125029	0.969920
	C1788	C	0.597587	0.375023	0.844809
	C1789	C	0.579480	0.375017	0.828024
	C1790	C	0.570863	0.464079	0.820050
	C1791	C	0.554011	0.464014	0.804676
	C1792	C	0.545381	0.375104	0.796927
	C1793	C	0.554047	0.286022	0.804780
	C1794	C	0.570881	0.286109	0.820197
	C1795	C	0.527297	0.375030	0.780160
	C1796	C	0.652333	0.374899	0.844861
	C1797	C	0.670412	0.374644	0.828136
	C1798	C	0.679138	0.285602	0.820432
	C1799	C	0.695981	0.285640	0.805057
	C1800	C	0.704574	0.374643	0.797096
	C1801	C	0.695846	0.463543	0.804747
	C1802	C	0.678984	0.463587	0.820095
	C1803	C	0.722677	0.374888	0.780363
	H1804	H	0.702570	0.216576	0.799219
	H1805	H	0.672760	0.216785	0.826625
	H1806	H	0.702234	0.283032	0.951630
	H1807	H	0.672432	0.283432	0.923984
	H1808	H	0.624934	0.125142	0.840617
	H1809	H	0.624736	0.375097	0.909460
	H1810	H	0.500192	0.374403	0.965612
	H1811	H	0.749710	0.124759	0.784430
	H1812	H	0.577350	0.217189	0.826278
	H1813	H	0.547610	0.216904	0.798783
	H1814	H	0.547649	0.282992	0.951527
	H1815	H	0.577489	0.282873	0.923946
	H1816	H	0.547550	0.533109	0.798497
	H1817	H	0.577344	0.533160	0.826068
	H1818	H	0.577259	-0.033065	0.923699
	H1819	H	0.547446	-0.032861	0.951214
	H1820	H	0.672554	-0.032882	0.923621
	H1821	H	0.702337	-0.033331	0.951038
	H1822	H	0.672417	0.532568	0.825970
	H1823	H	0.702310	0.532577	0.798584
	Al1824	Al	0.874930	-0.500066	0.124873
	Al1825	Al	0.874853	-0.250332	0.124883
	Al1826	Al	0.749968	-0.250113	-0.000088
	Al1827	Al	0.750026	-0.499935	-0.000050
	O1828	O	0.895093	-0.458910	0.148800
	O1829	O	0.874868	-0.375239	0.108467
	O1830	O	0.874808	-0.125292	0.141376
	O1831	O	0.979676	-0.459017	0.225998
	O1832	O	0.854665	-0.458908	0.148672
	O1833	O	0.770222	-0.459041	0.226307
	O1834	O	0.854656	-0.290891	0.148700
	O1835	O	0.854653	-0.209021	0.101048
	O1836	O	0.770145	-0.209137	0.023649
	O1837	O	0.895069	-0.290930	0.148697
	O1838	O	0.895155	-0.209576	0.101234
	O1839	O	0.979813	-0.208963	0.024014
	O1840	O	0.770178	-0.290859	0.226255
	O1841	O	0.854633	-0.040508	0.101235
	O1842	O	0.770225	-0.040771	0.023563
	O1843	O	0.979878	-0.040810	0.024123
	O1844	O	0.895048	-0.041347	0.101006
	O1845	O	0.979667	-0.291144	0.226093
	O1846	O	0.750048	-0.124956	0.233638
	O1847	O	1.000123	-0.374927	0.016609
	C1848	C	0.945749	-0.285671	0.195121
	C1849	C	0.954408	-0.374774	0.202956
	C1850	C	0.945762	-0.463970	0.195082
	C1851	C	0.928933	-0.463850	0.179685
	C1852	C	0.920278	-0.374682	0.171877
	C1853	C	0.928939	-0.285500	0.179732
	C1854	C	0.902227	-0.374881	0.155134
	C1855	C	0.972495	-0.375058	0.219716
	C1856	C	0.847538	-0.374964	0.155139
	C1857	C	0.829485	-0.375184	0.171943
	C1858	C	0.820872	-0.286121	0.179872
	C1859	C	0.804072	-0.286177	0.195311
	C1860	C	0.795425	-0.375104	0.203160
	C1861	C	0.804031	-0.464288	0.195271
	C1862	C	0.820864	-0.464239	0.179829
	C1863	C	0.777339	-0.374992	0.219920
	C1864	C	0.847513	-0.124774	0.094756
	C1865	C	0.829410	-0.124731	0.078026
	C1866	C	0.820757	-0.035407	0.070175
	C1867	C	0.803928	-0.035552	0.054752
	C1868	C	0.795394	-0.124816	0.046753
	C1869	C	0.804062	-0.214004	0.054573
	C1870	C	0.820876	-0.214091	0.070004
	C1871	C	0.777328	-0.125098	0.030012
	C1872	C	0.902274	-0.125358	0.094825
	C1873	C	0.920409	-0.125213	0.078111
	C1874	C	0.929166	-0.214191	0.070430
	C1875	C	0.946013	-0.214005	0.055093
	C1876	C	0.954582	-0.124847	0.047185
	C1877	C	0.945814	-0.035768	0.054803
	C1878	C	0.928946	-0.035994	0.070142
	C1879	C	0.972717	-0.124949	0.030412
	H1880	H	0.952610	-0.282933	0.049145
	H1881	H	0.922711	-0.283268	0.076418
	H1882	H	0.952266	-0.216567	0.201183
	H1883	H	0.922426	-0.216166	0.173743
	H1884	H	0.874857	-0.375399	0.090533
	H1885	H	0.874708	-0.125538	0.159403
	H1886	H	0.750110	-0.125356	0.215608
	H1887	H	1.000175	-0.374543	0.034528
	H1888	H	0.827430	-0.283217	0.075935
	H1889	H	0.797605	-0.282949	0.048458
	H1890	H	0.797614	-0.217016	0.201392
	H1891	H	0.827335	-0.217165	0.173801
	H1892	H	0.797389	0.033511	0.048711
	H1893	H	0.827233	0.033407	0.076227
	H1894	H	0.827397	-0.533321	0.173791
	H1895	H	0.797565	-0.533324	0.201264
	H1896	H	0.922393	-0.532840	0.173660
	H1897	H	0.952259	-0.532911	0.201009
	H1898	H	0.922281	0.032772	0.075940
	H1899	H	0.952233	0.033080	0.048641
	Al1900	Al	0.874943	-0.000233	0.124884
	Al1901	Al	0.874949	0.249756	0.124978
	Al1902	Al	0.750001	0.250091	-0.000176
	Al1903	Al	0.749906	-0.000009	-0.000183
	O1904	O	0.895213	0.040624	0.148722
	O1905	O	0.874990	0.124821	0.108511
	O1906	O	0.874906	0.374867	0.141444
	O1907	O	0.979735	0.041062	0.226311
	O1908	O	0.854809	0.041016	0.148848
	O1909	O	0.770140	0.040760	0.226164
	O1910	O	0.854644	0.209382	0.148753
	O1911	O	0.854648	0.290493	0.101237
	O1912	O	0.770168	0.290726	0.023697
	O1913	O	0.895099	0.208815	0.148932
	O1914	O	0.895124	0.290988	0.101099
	O1915	O	0.979850	0.291068	0.023997
	O1916	O	0.770245	0.209139	0.226206
	O1917	O	0.854659	0.458615	0.101217
	O1918	O	0.770150	0.459021	0.023845
	O1919	O	0.979701	0.459330	0.023890
	O1920	O	0.895152	0.459168	0.101075
	O1921	O	0.979661	0.209155	0.226230
	O1922	O	0.749888	0.375382	0.233709
	O1923	O	1.000052	0.125120	0.016698
	C1924	C	0.945850	0.213688	0.195224
	C1925	C	0.954534	0.124664	0.202988
	C1926	C	0.945928	0.035712	0.195078
	C1927	C	0.929124	0.035489	0.179620
	C1928	C	0.920437	0.124492	0.171901
	C1929	C	0.929018	0.213486	0.179821
	C1930	C	0.902340	0.124606	0.155170
	C1931	C	0.972572	0.124925	0.219808
	C1932	C	0.847598	0.125167	0.155159
	C1933	C	0.829523	0.124773	0.171963
	C1934	C	0.820852	0.213760	0.179707
	C1935	C	0.804029	0.213594	0.195124
	C1936	C	0.795458	0.124587	0.203053
	C1937	C	0.804136	0.035639	0.195288
	C1938	C	0.820987	0.035777	0.179891
	C1939	C	0.777318	0.124864	0.219744
	C1940	C	0.847545	0.374500	0.094764
	C1941	C	0.829464	0.374598	0.078018
	C1942	C	0.820869	0.463571	0.070081
	C1943	C	0.804040	0.463510	0.054654
	C1944	C	0.795417	0.374471	0.046789
	C1945	C	0.803969	0.285262	0.054746
	C1946	C	0.820805	0.285301	0.070211
	C1947	C	0.777299	0.374829	0.030137
	C1948	C	0.902339	0.375019	0.094769
	C1949	C	0.920411	0.374941	0.078033
	C1950	C	0.929092	0.285833	0.070247
	C1951	C	0.945929	0.285769	0.054868
	C1952	C	0.954554	0.374980	0.047053
	C1953	C	0.945898	0.464140	0.054874
	C1954	C	0.929055	0.464069	0.070244
	C1955	C	0.972654	0.375235	0.030346
	H1956	H	0.952446	0.216656	0.048949
	H1957	H	0.922625	0.216891	0.076346
	H1958	H	0.952269	0.282741	0.201282
	H1959	H	0.922453	0.282570	0.173820
	H1960	H	0.874907	0.124812	0.090484
	H1961	H	0.874695	0.375217	0.159378
	H1962	H	0.749690	0.375477	0.215742
	H1963	H	1.000108	0.125351	0.034726
	H1964	H	0.827282	0.216092	0.076296
	H1965	H	0.797431	0.216027	0.048790
	H1966	H	0.797442	0.282547	0.200981
	H1967	H	0.827253	0.282771	0.173509
	H1968	H	0.797576	0.532651	0.048594
	H1969	H	0.827363	0.532852	0.076006
	H1970	H	0.827533	-0.033215	0.173861
	H1971	H	0.797657	-0.033573	0.201261
	H1972	H	0.922758	-0.033713	0.173498
	H1973	H	0.952436	-0.033303	0.201112
	H1974	H	0.922646	0.533083	0.076369
	H1975	H	0.952458	0.533117	0.048915
	Al1976	Al	0.875040	-0.499909	0.374908
	Al1977	Al	0.874954	-0.249863	0.375016
	Al1978	Al	0.750007	-0.250145	0.250059
	Al1979	Al	0.750027	-0.499823	0.250216
	O1980	O	0.895104	-0.459639	0.399066
	O1981	O	0.874961	-0.374965	0.358502
	O1982	O	0.874946	-0.125014	0.391463
	O1983	O	0.979740	-0.459063	0.476164
	O1984	O	0.854763	-0.459264	0.398821
	O1985	O	0.770212	-0.459328	0.476285
	O1986	O	0.854798	-0.291053	0.398882
	O1987	O	0.854733	-0.208918	0.351213
	O1988	O	0.770213	-0.208825	0.273791
	O1989	O	0.895101	-0.291353	0.398921
	O1990	O	0.895218	-0.208882	0.351163
	O1991	O	0.979662	-0.208909	0.273825
	O1992	O	0.770178	-0.291170	0.476191
	O1993	O	0.854737	-0.040614	0.351133
	O1994	O	0.770326	-0.040593	0.273743
	O1995	O	0.979760	-0.040678	0.273899
	O1996	O	0.895176	-0.040678	0.351226
	O1997	O	0.979775	-0.290738	0.476288
	O1998	O	0.750067	-0.125015	0.483709
	O1999	O	0.999839	-0.375070	0.266302
	C2000	C	0.945971	-0.285664	0.445015
	C2001	C	0.954556	-0.374794	0.452968
	C2002	C	0.945852	-0.464026	0.445376
	C2003	C	0.928978	-0.464190	0.429982
	C2004	C	0.920414	-0.375083	0.421969
	C2005	C	0.929106	-0.285876	0.429604
	C2006	C	0.902305	-0.375383	0.405253
	C2007	C	0.972634	-0.374873	0.469820
	C2008	C	0.847645	-0.375224	0.405224
	C2009	C	0.829599	-0.375144	0.422105
	C2010	C	0.820836	-0.286000	0.429779
	C2011	C	0.803960	-0.285848	0.445135
	C2012	C	0.795432	-0.374948	0.453146
	C2013	C	0.804186	-0.464045	0.445456
	C2014	C	0.821048	-0.464244	0.430126
	C2015	C	0.777306	-0.375268	0.469833
	C2016	C	0.847591	-0.124924	0.344795
	C2017	C	0.829492	-0.125072	0.328119
	C2018	C	0.820892	-0.036330	0.320207
	C2019	C	0.804076	-0.036358	0.304863
	C2020	C	0.795454	-0.125262	0.296948
	C2021	C	0.804054	-0.214275	0.304791
	C2022	C	0.820886	-0.214159	0.320163
	C2023	C	0.777377	-0.124931	0.280168
	C2024	C	0.902392	-0.124978	0.344898
	C2025	C	0.920403	-0.124889	0.328033
	C2026	C	0.929085	-0.214171	0.320224
	C2027	C	0.945874	-0.214108	0.304773
	C2028	C	0.954506	-0.124770	0.296972
	C2029	C	0.945754	-0.035647	0.304674
	C2030	C	0.928957	-0.035810	0.320079
	C2031	C	0.972562	-0.124721	0.280186
	H2032	H	0.952406	-0.283135	0.298721
	H2033	H	0.922610	-0.283457	0.326340
	H2034	H	0.952468	-0.216552	0.450990
	H2035	H	0.922673	-0.216831	0.423434
	H2036	H	0.874998	-0.374826	0.340559
	H2037	H	0.875026	-0.125359	0.409485
	H2038	H	0.750382	-0.125422	0.465741
	H2039	H	0.999537	-0.375214	0.284187
	H2040	H	0.827388	-0.283144	0.326197
	H2041	H	0.797559	-0.282999	0.298592
	H2042	H	0.797391	-0.216385	0.450870
	H2043	H	0.827276	-0.216995	0.423564
	H2044	H	0.797622	0.032381	0.298815
	H2045	H	0.827372	0.032421	0.326322
	H2046	H	0.827545	-0.533595	0.424252
	H2047	H	0.797671	-0.532933	0.451559
	H2048	H	0.922452	-0.533247	0.424103
	H2049	H	0.952236	-0.533081	0.451553
	H2050	H	0.922398	0.033286	0.326017
	H2051	H	0.952195	0.033638	0.298459
	Al2052	Al	0.874921	0.000102	0.375039
	Al2053	Al	0.875049	0.249926	0.375048
	Al2054	Al	0.750035	0.250014	0.250036
	Al2055	Al	0.749998	0.000052	0.250012
	O2056	O	0.895197	0.040516	0.398869
	O2057	O	0.874905	0.125001	0.358636
	O2058	O	0.874940	0.375221	0.391349
	O2059	O	0.979699	0.040900	0.476339
	O2060	O	0.854917	0.040812	0.399158
	O2061	O	0.770068	0.040805	0.476065
	O2062	O	0.854831	0.208791	0.398953
	O2063	O	0.854822	0.291069	0.351115
	O2064	O	0.770148	0.291280	0.273850
	O2065	O	0.895206	0.208672	0.398927
	O2066	O	0.895212	0.290652	0.351189
	O2067	O	0.979682	0.291074	0.273711
	O2068	O	0.770219	0.209162	0.476170
	O2069	O	0.854814	0.459364	0.351178
	O2070	O	0.770235	0.459313	0.273995
	O2071	O	0.979686	0.459341	0.273804
	O2072	O	0.895206	0.459007	0.351111
	O2073	O	0.979774	0.209068	0.476227
	O2074	O	0.749946	0.375245	0.483774
	O2075	O	1.000041	0.125110	0.266429
	C2076	C	0.945958	0.213914	0.445137
	C2077	C	0.954567	0.124894	0.452997
	C2078	C	0.945878	0.035846	0.445282
	C2079	C	0.929034	0.035847	0.429932
	C2080	C	0.920426	0.124738	0.422024
	C2081	C	0.929117	0.213741	0.429749
	C2082	C	0.902380	0.124576	0.405220
	C2083	C	0.972563	0.124800	0.469909
	C2084	C	0.847742	0.124754	0.405393
	C2085	C	0.829620	0.124600	0.422129
	C2086	C	0.820835	0.213722	0.429716
	C2087	C	0.803953	0.213863	0.444997
	C2088	C	0.795376	0.124882	0.453032
	C2089	C	0.804169	0.035584	0.445524
	C2090	C	0.821081	0.035537	0.430241
	C2091	C	0.777279	0.124955	0.469742
	C2092	C	0.847653	0.375125	0.344754
	C2093	C	0.829559	0.374804	0.328151
	C2094	C	0.820949	0.463865	0.320189
	C2095	C	0.804102	0.464071	0.304821
	C2096	C	0.795417	0.374953	0.297057
	C2097	C	0.804037	0.285931	0.304958
	C2098	C	0.820880	0.285799	0.320382
	C2099	C	0.777336	0.375060	0.280350
	C2100	C	0.902296	0.374716	0.344788
	C2101	C	0.920388	0.374566	0.327995
	C2102	C	0.928980	0.285315	0.320112
	C2103	C	0.945783	0.285599	0.304663
	C2104	C	0.954446	0.374814	0.296914
	C2105	C	0.945841	0.463928	0.304729
	C2106	C	0.929020	0.463555	0.320156
	C2107	C	0.972489	0.375189	0.280003
	H2108	H	0.952205	0.216641	0.298421
	H2109	H	0.922439	0.216417	0.326038
	H2110	H	0.952435	0.283109	0.451138
	H2111	H	0.922618	0.282795	0.423633
	H2112	H	0.874891	0.125447	0.340644
	H2113	H	0.874706	0.375488	0.409378
	H2114	H	0.749572	0.375528	0.465860
	H2115	H	0.999975	0.125173	0.284340
	H2116	H	0.827384	0.216797	0.326320
	H2117	H	0.797509	0.216905	0.299034
	H2118	H	0.797351	0.282782	0.450808
	H2119	H	0.827247	0.282784	0.423524
	H2120	H	0.797616	0.532961	0.298906
	H2121	H	0.827508	0.532948	0.326084
	H2122	H	0.827746	-0.033425	0.424490
	H2123	H	0.797779	-0.033423	0.451725
	H2124	H	0.922533	-0.033253	0.424013
	H2125	H	0.952385	-0.033100	0.451427
	H2126	H	0.922499	0.532526	0.326155
	H2127	H	0.952264	0.532958	0.298589
	Al2128	Al	0.875011	-0.500180	0.625115
	Al2129	Al	0.874938	-0.250175	0.625117
	Al2130	Al	0.750031	-0.249812	0.500164
	Al2131	Al	0.750099	-0.499920	0.500192
	O2132	O	0.895143	-0.459010	0.649029
	O2133	O	0.874927	-0.375229	0.608693
	O2134	O	0.874962	-0.125222	0.641523
	O2135	O	0.979736	-0.459301	0.726177
	O2136	O	0.854800	-0.459537	0.649022
	O2137	O	0.770186	-0.459173	0.726391
	O2138	O	0.854898	-0.291395	0.649031
	O2139	O	0.854750	-0.208762	0.601305
	O2140	O	0.770206	-0.208579	0.523962
	O2141	O	0.895182	-0.290654	0.649070
	O2142	O	0.895208	-0.209351	0.601259
	O2143	O	0.979777	-0.208982	0.523960
	O2144	O	0.770278	-0.290972	0.726341
	O2145	O	0.854841	-0.040761	0.601241
	O2146	O	0.770307	-0.040601	0.523771
	O2147	O	0.979830	-0.040690	0.524115
	O2148	O	0.895156	-0.041203	0.601182
	O2149	O	0.979829	-0.290705	0.726231
	O2150	O	0.749947	-0.124974	0.733771
	O2151	O	1.000087	-0.374706	0.516415
	C2152	C	0.946035	-0.285784	0.695120
	C2153	C	0.954624	-0.374894	0.703007
	C2154	C	0.945903	-0.464041	0.695314
	C2155	C	0.929004	-0.464076	0.680060
	C2156	C	0.920452	-0.374768	0.672112
	C2157	C	0.929132	-0.285553	0.679863
	C2158	C	0.902290	-0.374759	0.655445
	C2159	C	0.972692	-0.374824	0.719770
	C2160	C	0.847695	-0.375545	0.655401
	C2161	C	0.829555	-0.375150	0.672143
	C2162	C	0.820900	-0.285934	0.679945
	C2163	C	0.804053	-0.285918	0.695327
	C2164	C	0.795421	-0.375056	0.703198
	C2165	C	0.804085	-0.464162	0.695444
	C2166	C	0.820910	-0.464202	0.680073
	C2167	C	0.777360	-0.375102	0.719968
	C2168	C	0.847639	-0.124522	0.594936
	C2169	C	0.829599	-0.124678	0.578065
	C2170	C	0.820763	-0.035679	0.570549
	C2171	C	0.803945	-0.035654	0.555188
	C2172	C	0.795474	-0.124670	0.547005
	C2173	C	0.804212	-0.213697	0.554705
	C2174	C	0.821000	-0.213663	0.570097
	C2175	C	0.777420	-0.124566	0.530179
	C2176	C	0.902272	-0.125567	0.594705
	C2177	C	0.920500	-0.124963	0.578227
	C2178	C	0.929090	-0.214136	0.570295
	C2179	C	0.945932	-0.214035	0.554921
	C2180	C	0.954572	-0.124746	0.547189
	C2181	C	0.945985	-0.035681	0.555135
	C2182	C	0.929133	-0.035700	0.570452
	C2183	C	0.972640	-0.124820	0.530437
	H2184	H	0.952352	-0.283383	0.548682
	H2185	H	0.922437	-0.283316	0.576057
	H2186	H	0.952581	-0.216643	0.701058
	H2187	H	0.922665	-0.216677	0.673812
	H2188	H	0.874781	-0.375447	0.590744
	H2189	H	0.875285	-0.124907	0.659557
	H2190	H	0.749677	-0.125204	0.715909
	H2191	H	0.999875	-0.375461	0.534474
	H2192	H	0.827488	-0.282639	0.576168
	H2193	H	0.797808	-0.282522	0.548382
	H2194	H	0.797551	-0.216797	0.701352
	H2195	H	0.827396	-0.216895	0.673873
	H2196	H	0.797353	0.033169	0.549313
	H2197	H	0.827106	0.033249	0.576955
	H2198	H	0.827427	-0.533433	0.674162
	H2199	H	0.797600	-0.533355	0.701568
	H2200	H	0.922407	-0.533274	0.674228
	H2201	H	0.952316	-0.533295	0.701518
	H2202	H	0.922592	0.033453	0.576348
	H2203	H	0.952486	0.033641	0.549175
	Al2204	Al	0.875041	-0.000047	0.625161
	Al2205	Al	0.875140	0.249888	0.625160
	Al2206	Al	0.750034	0.250030	0.500066
	Al2207	Al	0.749992	0.000089	0.500010
	O2208	O	0.895216	0.040190	0.649101
	O2209	O	0.875057	0.125075	0.608843
	O2210	O	0.875157	0.374738	0.641606
	O2211	O	0.979793	0.040805	0.726337
	O2212	O	0.854946	0.041206	0.649144
	O2213	O	0.770154	0.040847	0.726197
	O2214	O	0.854953	0.209349	0.649267
	O2215	O	0.854854	0.290239	0.601342
	O2216	O	0.770258	0.290480	0.523908
	O2217	O	0.895285	0.208832	0.649017
	O2218	O	0.895272	0.291061	0.601174
	O2219	O	0.979823	0.291056	0.523926
	O2220	O	0.770195	0.209231	0.726053
	O2221	O	0.854920	0.458655	0.601215
	O2222	O	0.770158	0.458711	0.524121
	O2223	O	0.979832	0.459549	0.523883
	O2224	O	0.895302	0.459267	0.601246
	O2225	O	0.979905	0.209288	0.726291
	O2226	O	0.750148	0.375179	0.733723
	O2227	O	0.999985	0.125220	0.516555
	C2228	C	0.945920	0.214402	0.695402
	C2229	C	0.954583	0.125068	0.703205
	C2230	C	0.945910	0.035579	0.695507
	C2231	C	0.929063	0.035390	0.680132
	C2232	C	0.920503	0.124672	0.672148
	C2233	C	0.929076	0.214123	0.680001
	C2234	C	0.902407	0.124579	0.655374
	C2235	C	0.972776	0.125034	0.719908
	C2236	C	0.847839	0.125138	0.655571
	C2237	C	0.829647	0.125090	0.672216
	C2238	C	0.820908	0.214186	0.679900
	C2239	C	0.804036	0.213913	0.695173
	C2240	C	0.795447	0.124776	0.703095
	C2241	C	0.804183	0.035699	0.695414
	C2242	C	0.821047	0.035861	0.680133
	C2243	C	0.777350	0.124938	0.719805
	C2244	C	0.847712	0.374485	0.594930
	C2245	C	0.829656	0.374531	0.578110
	C2246	C	0.820898	0.463459	0.570463
	C2247	C	0.804047	0.463528	0.555121
	C2248	C	0.795483	0.374528	0.547140
	C2249	C	0.804277	0.285548	0.554727
	C2250	C	0.821111	0.285431	0.570091
	C2251	C	0.777374	0.374330	0.530330
	C2252	C	0.902420	0.375242	0.594869
	C2253	C	0.920549	0.375187	0.578193
	C2254	C	0.929061	0.285957	0.570054
	C2255	C	0.945879	0.286193	0.554716
	C2256	C	0.954662	0.375421	0.547131
	C2257	C	0.946102	0.464711	0.555253
	C2258	C	0.929287	0.464513	0.570597
	C2259	C	0.972752	0.375368	0.530397
	H2260	H	0.952311	0.217392	0.548450
	H2261	H	0.922442	0.217080	0.575875
	H2262	H	0.952432	0.283428	0.701385
	H2263	H	0.922580	0.283224	0.674013
	H2264	H	0.875081	0.124492	0.590864
	H2265	H	0.875168	0.374918	0.659520
	H2266	H	0.750616	0.374440	0.715775
	H2267	H	0.999953	0.124916	0.534611
	H2268	H	0.827760	0.216591	0.575890
	H2269	H	0.797923	0.216830	0.548501
	H2270	H	0.797471	0.282826	0.701144
	H2271	H	0.827406	0.283151	0.673878
	H2272	H	0.797469	0.532377	0.549222
	H2273	H	0.827325	0.532446	0.576657
	H2274	H	0.827682	-0.033194	0.674246
	H2275	H	0.797727	-0.033330	0.701496
	H2276	H	0.922569	-0.033976	0.674165
	H2277	H	0.952428	-0.033627	0.701524
	H2278	H	0.922840	0.533403	0.576911
	H2279	H	0.952747	0.533633	0.549483
	Al2280	Al	0.874998	-0.500202	0.875003
	Al2281	Al	0.875088	-0.250136	0.875037
	Al2282	Al	0.750075	-0.250205	0.750087
	Al2283	Al	0.750006	-0.500194	0.750267
	O2284	O	0.895286	-0.459360	0.898889
	O2285	O	0.875065	-0.374937	0.858665
	O2286	O	0.875068	-0.125029	0.891507
	O2287	O	0.979892	-0.458760	0.976248
	O2288	O	0.854822	-0.458674	0.898815
	O2289	O	0.770257	-0.458989	0.976147
	O2290	O	0.854821	-0.290624	0.898833
	O2291	O	0.854748	-0.208889	0.851423
	O2292	O	0.770293	-0.208953	0.773946
	O2293	O	0.895251	-0.291146	0.898959
	O2294	O	0.895210	-0.209207	0.851080
	O2295	O	0.979861	-0.208798	0.774028
	O2296	O	0.770205	-0.290885	0.976094
	O2297	O	0.854784	-0.040767	0.851328
	O2298	O	0.770228	-0.040622	0.774002
	O2299	O	0.979853	-0.040770	0.773974
	O2300	O	0.895204	-0.041034	0.851119
	O2301	O	0.979763	-0.290559	0.976466
	O2302	O	0.749943	-0.125291	0.983505
	O2303	O	1.000038	-0.375047	0.766529
	C2304	C	0.945939	-0.285596	0.945329
	C2305	C	0.954597	-0.374576	0.953189
	C2306	C	0.945921	-0.463446	0.945426
	C2307	C	0.929125	-0.463504	0.930000
	C2308	C	0.920469	-0.374754	0.922091
	C2309	C	0.929121	-0.285689	0.929898
	C2310	C	0.902386	-0.375225	0.905379
	C2311	C	0.972666	-0.374816	0.969976
	C2312	C	0.847705	-0.374651	0.905231
	C2313	C	0.829529	-0.374693	0.921876
	C2314	C	0.820889	-0.285734	0.929705
	C2315	C	0.804054	-0.285697	0.945042
	C2316	C	0.795442	-0.374806	0.952936
	C2317	C	0.804110	-0.463672	0.945184
	C2318	C	0.820959	-0.463654	0.929867
	C2319	C	0.777313	-0.374802	0.969665
	C2320	C	0.847634	-0.124824	0.844951
	C2321	C	0.829505	-0.124938	0.828269
	C2322	C	0.820850	-0.035948	0.820500
	C2323	C	0.804052	-0.035739	0.805119
	C2324	C	0.795476	-0.124775	0.797070
	C2325	C	0.804124	-0.213893	0.804846
	C2326	C	0.820943	-0.214012	0.820191
	C2327	C	0.777376	-0.124735	0.780330
	C2328	C	0.902390	-0.124995	0.844823
	C2329	C	0.920482	-0.125017	0.828135
	C2330	C	0.929060	-0.214045	0.820115
	C2331	C	0.945950	-0.213941	0.804842
	C2332	C	0.954609	-0.124734	0.797138
	C2333	C	0.946003	-0.035671	0.805101
	C2334	C	0.929154	-0.035800	0.820444
	C2335	C	0.972747	-0.124840	0.780465
	H2336	H	0.952474	-0.283047	0.798871
	H2337	H	0.922556	-0.283448	0.826165
	H2338	H	0.952419	-0.216886	0.951453
	H2339	H	0.922626	-0.217181	0.923854
	H2340	H	0.874908	-0.374385	0.840617
	H2341	H	0.874960	-0.125209	0.909481
	H2342	H	0.749935	-0.125733	0.965512
	H2343	H	1.000234	-0.375262	0.784513
	H2344	H	0.827527	-0.282809	0.826060
	H2345	H	0.797686	-0.282559	0.798658
	H2346	H	0.797503	-0.216929	0.951025
	H2347	H	0.827415	-0.216826	0.923679
	H2348	H	0.797568	0.033302	0.799116
	H2349	H	0.827365	0.032783	0.826589
	H2350	H	0.827560	-0.532551	0.923973
	H2351	H	0.797625	-0.532503	0.951291
	H2352	H	0.922618	-0.532517	0.924027
	H2353	H	0.952298	-0.532375	0.951638
	H2354	H	0.922752	0.033557	0.826629
	H2355	H	0.952577	0.033666	0.799379
	Al2356	Al	0.875080	-0.000115	0.875092
	Al2357	Al	0.875068	0.249784	0.875111
	Al2358	Al	0.750018	0.249653	0.750046
	Al2359	Al	0.749973	-0.000137	0.750121
	O2360	O	0.895405	0.040817	0.898836
	O2361	O	0.875144	0.125045	0.858721
	O2362	O	0.875055	0.375014	0.891495
	O2363	O	0.979778	0.041084	0.976524
	O2364	O	0.854835	0.040705	0.898840
	O2365	O	0.770133	0.040686	0.975950
	O2366	O	0.854922	0.208604	0.899050
	O2367	O	0.854776	0.290764	0.851263
	O2368	O	0.770292	0.290441	0.773873
	O2369	O	0.895248	0.209031	0.899065
	O2370	O	0.895325	0.290290	0.851204
	O2371	O	0.979716	0.290483	0.773919
	O2372	O	0.770241	0.209041	0.975940
	O2373	O	0.854794	0.458770	0.851217
	O2374	O	0.770266	0.458748	0.774025
	O2375	O	0.979849	0.458781	0.774049
	O2376	O	0.895249	0.458608	0.851301
	O2377	O	0.979914	0.209118	0.976373
	O2378	O	0.749933	0.375112	0.983513
	O2379	O	1.000167	0.124997	0.766595
	C2380	C	0.945974	0.213931	0.945445
	C2381	C	0.954671	0.124951	0.953270
	C2382	C	0.946034	0.035927	0.945419
	C2383	C	0.929200	0.035886	0.929986
	C2384	C	0.920547	0.124923	0.922079
	C2385	C	0.929146	0.213992	0.930010
	C2386	C	0.902533	0.124964	0.905286
	C2387	C	0.972720	0.125012	0.969989
	C2388	C	0.847746	0.124749	0.905349
	C2389	C	0.829560	0.124765	0.921976
	C2390	C	0.820890	0.213757	0.929700
	C2391	C	0.803999	0.213560	0.945015
	C2392	C	0.795451	0.124572	0.952939
	C2393	C	0.804108	0.035625	0.945219
	C2394	C	0.820957	0.035760	0.929858
	C2395	C	0.777292	0.124671	0.969555
	C2396	C	0.847647	0.374656	0.844834
	C2397	C	0.829565	0.374719	0.828114
	C2398	C	0.820898	0.463754	0.820281
	C2399	C	0.804057	0.463621	0.804930
	C2400	C	0.795504	0.374467	0.796986
	C2401	C	0.804146	0.285424	0.804794
	C2402	C	0.821002	0.285480	0.820145
	C2403	C	0.777406	0.374621	0.780390
	C2404	C	0.902350	0.374434	0.844834
	C2405	C	0.920482	0.374900	0.828176
	C2406	C	0.929046	0.285851	0.820156
	C2407	C	0.945863	0.285924	0.804778
	C2408	C	0.954524	0.375088	0.797092
	C2409	C	0.946027	0.464145	0.805257
	C2410	C	0.929196	0.464138	0.820637
	C2411	C	0.972609	0.374853	0.780295
	H2412	H	0.952282	0.217037	0.798546
	H2413	H	0.922469	0.216744	0.825956
	H2414	H	0.952426	0.282955	0.951528
	H2415	H	0.922647	0.282797	0.923900
	H2416	H	0.875227	0.125076	0.840896
	H2417	H	0.875265	0.375289	0.909550
	H2418	H	0.749458	0.374827	0.965548
	H2419	H	1.000170	0.124765	0.784548
	H2420	H	0.827524	0.216374	0.826188
	H2421	H	0.797692	0.216375	0.798699
	H2422	H	0.797410	0.282284	0.950881
	H2423	H	0.827370	0.282616	0.923628
	H2424	H	0.797452	0.532603	0.799033
	H2425	H	0.827290	0.532854	0.826477
	H2426	H	0.827531	-0.033383	0.923886
	H2427	H	0.797632	-0.033223	0.951221
	H2428	H	0.922829	-0.033124	0.923872
	H2429	H	0.952589	-0.032934	0.951484
	H2430	H	0.922694	0.532975	0.826810
	H2431	H	0.952590	0.533016	0.799420
