data_Molecule from HDF5

_cell_length_a		112.597589
_cell_length_b		13.357610
_cell_length_c		50.353987
_cell_angle_alpha	89.961392
_cell_angle_beta	86.644839
_cell_angle_gamma	90.041213
_symmetry_space_group_name_H-M	'P 1'
_symmetry_Int_Tables_number		1

loop_
	_symmetry_equiv_pos_as_xyz
	x,y,z

loop_
	_atom_site_label
	_atom_site_type_symbol
	_atom_site_fract_x
	_atom_site_fract_y
	_atom_site_fract_z
	Al0	Al	0.089911	-0.500063	0.118419
	Al1	Al	0.089932	-0.249880	0.118385
	Al2	Al	0.006552	-0.249920	0.035086
	Al3	Al	0.006556	-0.499975	0.035198
	O4	O	0.102020	-0.458455	0.141575
	O5	O	0.090688	-0.374939	0.101284
	O6	O	0.089196	-0.125057	0.135410
	O7	O	0.161069	-0.458876	0.178708
	O8	O	0.076065	-0.458835	0.139498
	O9	O	0.013890	-0.458705	0.145675
	O10	O	0.076105	-0.290688	0.139530
	O11	O	0.077764	-0.209497	0.095247
	O12	O	0.018691	-0.209017	0.058170
	O13	O	0.102075	-0.290435	0.141441
	O14	O	0.103756	-0.208446	0.097124
	O15	O	0.165938	-0.210167	0.089556
	O16	O	0.013935	-0.290519	0.145937
	O17	O	0.077804	-0.041196	0.095247
	O18	O	0.018714	-0.041042	0.058241
	O19	O	0.165994	-0.041650	0.089659
	O20	O	0.103834	-0.040372	0.097380
	O21	O	0.161138	-0.290806	0.178643
	O22	O	0.000757	-0.125098	0.149652
	O23	O	0.178999	-0.375528	0.083049
	C24	C	0.137615	-0.284611	0.162749
	C25	C	0.143673	-0.374557	0.166365
	C26	C	0.137507	-0.464456	0.163318
	C27	C	0.125635	-0.464281	0.157018
	C28	C	0.119563	-0.374427	0.153484
	C29	C	0.125747	-0.284616	0.156415
	C30	C	0.107005	-0.374443	0.144930
	C31	C	0.156200	-0.374645	0.175180
	C32	C	0.070819	-0.374734	0.140535
	C33	C	0.057505	-0.374602	0.142535
	C34	C	0.051161	-0.284626	0.142455
	C35	C	0.038831	-0.284382	0.142382
	C36	C	0.032519	-0.374421	0.142537
	C37	C	0.038849	-0.464412	0.142581
	C38	C	0.051177	-0.464611	0.142650
	C39	C	0.019187	-0.374648	0.144692
	C40	C	0.072853	-0.125398	0.091774
	C41	C	0.060301	-0.125295	0.083017
	C42	C	0.054194	-0.035488	0.079873
	C43	C	0.042327	-0.035308	0.073589
	C44	C	0.036220	-0.125065	0.070143
	C45	C	0.042326	-0.214988	0.073486
	C46	C	0.054182	-0.215147	0.079763
	C47	C	0.023640	-0.125017	0.061624
	C48	C	0.109055	-0.124543	0.096119
	C49	C	0.122388	-0.124690	0.093529
	C50	C	0.128712	-0.214736	0.093313
	C51	C	0.141045	-0.215070	0.093076
	C52	C	0.147416	-0.125297	0.093091
	C53	C	0.141089	-0.035277	0.093137
	C54	C	0.128768	-0.034891	0.093334
	C55	C	0.160705	-0.125745	0.090757
	H56	H	0.145794	-0.285212	0.092973
	H57	H	0.123933	-0.284548	0.093367
	H58	H	0.142250	-0.214552	0.164849
	H59	H	0.121224	-0.214350	0.153721
	H60	H	0.091655	-0.374734	0.083104
	H61	H	0.088142	-0.125149	0.153679
	H62	H	0.001791	-0.124942	0.131405
	H63	H	0.178627	-0.375188	0.101280
	H64	H	0.058770	-0.285123	0.082109
	H65	H	0.037767	-0.285151	0.071053
	H66	H	0.034091	-0.214436	0.142326
	H67	H	0.055951	-0.214534	0.142625
	H68	H	0.037767	0.034782	0.071239
	H69	H	0.058787	0.034566	0.082273
	H70	H	0.055862	-0.534764	0.142936
	H71	H	0.034073	-0.534385	0.142602
	H72	H	0.121044	-0.534691	0.154719
	H73	H	0.142065	-0.534490	0.165829
	H74	H	0.124007	0.035002	0.093420
	H75	H	0.145888	0.034660	0.093069
	Al76	Al	0.089941	-0.000037	0.118360
	Al77	Al	0.089881	0.250000	0.118467
	Al78	Al	0.006511	0.249953	0.035095
	Al79	Al	0.006541	0.000058	0.035140
	O80	O	0.102011	0.041371	0.141678
	O81	O	0.090712	0.125137	0.101372
	O82	O	0.089196	0.375057	0.135498
	O83	O	0.161136	0.041182	0.178486
	O84	O	0.076068	0.040485	0.139637
	O85	O	0.013920	0.041159	0.145613
	O86	O	0.076124	0.208809	0.139665
	O87	O	0.077820	0.290810	0.095301
	O88	O	0.018674	0.290652	0.058180
	O89	O	0.102103	0.209578	0.141530
	O90	O	0.103786	0.290762	0.097401
	O91	O	0.165854	0.289454	0.089396
	O92	O	0.013938	0.209262	0.145603
	O93	O	0.077854	0.459037	0.095121
	O94	O	0.018639	0.458774	0.058369
	O95	O	0.165933	0.457837	0.089700
	O96	O	0.103826	0.459002	0.097519
	O97	O	0.161114	0.209544	0.178554
	O98	O	0.000737	0.374714	0.149488
	O99	O	0.178973	0.124258	0.083063
	C100	C	0.137536	0.214950	0.163083
	C101	C	0.143613	0.125122	0.166457
	C102	C	0.137524	0.035094	0.163192
	C103	C	0.125670	0.035109	0.156883
	C104	C	0.119574	0.124970	0.153630
	C105	C	0.125691	0.214922	0.156729
	C106	C	0.106988	0.125322	0.145005
	C107	C	0.156194	0.125211	0.175073
	C108	C	0.070839	0.124779	0.140573
	C109	C	0.057495	0.125099	0.142704
	C110	C	0.051184	0.215001	0.142718
	C111	C	0.038853	0.215166	0.142485
	C112	C	0.032529	0.125255	0.142379
	C113	C	0.038831	0.035268	0.142486
	C114	C	0.051153	0.035224	0.142676
	C115	C	0.019182	0.124969	0.144605
	C116	C	0.072896	0.374897	0.091711
	C117	C	0.060362	0.375007	0.082953
	C118	C	0.054234	0.464726	0.079698
	C119	C	0.042353	0.464720	0.073425
	C120	C	0.036228	0.374923	0.070155
	C121	C	0.042321	0.285207	0.073626
	C122	C	0.054198	0.285192	0.079903
	C123	C	0.023612	0.374732	0.061694
	C124	C	0.109056	0.374693	0.096261
	C125	C	0.122385	0.374581	0.093593
	C126	C	0.128688	0.284571	0.093241
	C127	C	0.141004	0.284295	0.092975
	C128	C	0.147351	0.374067	0.093026
	C129	C	0.141070	0.464127	0.093149
	C130	C	0.128756	0.464337	0.093410
	C131	C	0.160656	0.373773	0.090771
	H132	H	0.145759	0.214272	0.092753
	H133	H	0.123917	0.214710	0.093173
	H134	H	0.142069	0.285161	0.165441
	H135	H	0.121146	0.285029	0.154179
	H136	H	0.091802	0.125648	0.083127
	H137	H	0.088316	0.375148	0.153716
	H138	H	0.001519	0.374769	0.131239
	H139	H	0.178185	0.124362	0.101259
	H140	H	0.058732	0.214535	0.082378
	H141	H	0.037722	0.215088	0.071252
	H142	H	0.034097	0.285212	0.142423
	H143	H	0.055923	0.285180	0.142796
	H144	H	0.037818	0.534934	0.070944
	H145	H	0.058815	0.534866	0.082057
	H146	H	0.055895	-0.034793	0.142746
	H147	H	0.034087	-0.034758	0.142425
	H148	H	0.121111	-0.034911	0.154536
	H149	H	0.142109	-0.034788	0.165683
	H150	H	0.124027	0.534348	0.093548
	H151	H	0.145875	0.534004	0.093061
	Al152	Al	0.083343	-0.499745	0.250153
	Al153	Al	0.083351	-0.249915	0.250053
	Al154	Al	0.000017	-0.250202	0.166808
	Al155	Al	0.000051	-0.500116	0.166516
	O156	O	0.095473	-0.458523	0.273190
	O157	O	0.084065	-0.374753	0.233038
	O158	O	0.082569	-0.124929	0.267077
	O159	O	0.154581	-0.458570	0.310316
	O160	O	0.069477	-0.458873	0.271257
	O161	O	0.007340	-0.458824	0.277347
	O162	O	0.069484	-0.290750	0.271108
	O163	O	0.071281	-0.208362	0.226731
	O164	O	0.012128	-0.208986	0.190008
	O165	O	0.095499	-0.290634	0.273229
	O166	O	0.097227	-0.208357	0.228955
	O167	O	0.159376	-0.209159	0.223236
	O168	O	0.007298	-0.290457	0.277331
	O169	O	0.071205	-0.040326	0.226910
	O170	O	0.012115	-0.040978	0.189999
	O171	O	0.159450	-0.041059	0.223092
	O172	O	0.097212	-0.040257	0.229130
	O173	O	0.154486	-0.290582	0.310469
	O174	O	-0.005864	-0.124419	0.281587
	O175	O	0.172390	-0.374860	0.218993
	C176	C	0.130944	-0.284846	0.295003
	C177	C	0.137048	-0.374909	0.298259
	C178	C	0.130958	-0.464765	0.294815
	C179	C	0.119086	-0.464754	0.288469
	C180	C	0.112986	-0.374722	0.285252
	C181	C	0.119078	-0.284825	0.288689
	C182	C	0.100418	-0.374567	0.276692
	C183	C	0.149627	-0.374621	0.306863
	C184	C	0.064210	-0.374807	0.272199
	C185	C	0.050891	-0.374629	0.274321
	C186	C	0.044572	-0.284551	0.274177
	C187	C	0.032246	-0.284388	0.274046
	C188	C	0.025896	-0.374314	0.274108
	C189	C	0.032226	-0.464372	0.274183
	C190	C	0.044544	-0.464508	0.274312
	C191	C	0.012555	-0.374480	0.276347
	C192	C	0.066311	-0.124438	0.223398
	C193	C	0.053713	-0.124371	0.214862
	C194	C	0.047598	-0.034561	0.211533
	C195	C	0.035732	-0.034808	0.205291
	C196	C	0.029619	-0.124830	0.202025
	C197	C	0.035768	-0.214669	0.205189
	C198	C	0.047636	-0.214248	0.211404
	C199	C	0.017055	-0.124924	0.193399
	C200	C	0.102488	-0.124366	0.228044
	C201	C	0.115828	-0.124397	0.225886
	C202	C	0.122151	-0.214491	0.225826
	C203	C	0.134463	-0.214625	0.225964
	C204	C	0.140833	-0.124727	0.226139
	C205	C	0.134505	-0.034633	0.226262
	C206	C	0.122198	-0.034605	0.226094
	C207	C	0.154144	-0.124996	0.224105
	H208	H	0.139215	-0.284652	0.225904
	H209	H	0.117354	-0.284281	0.225667
	H210	H	0.135513	-0.214671	0.297457
	H211	H	0.114498	-0.214567	0.286400
	H212	H	0.085198	-0.374864	0.214831
	H213	H	0.081468	-0.125196	0.285256
	H214	H	-0.004807	-0.124491	0.263396
	H215	H	0.171113	-0.375350	0.237269
	H216	H	0.052236	-0.284282	0.213794
	H217	H	0.031217	-0.285010	0.202774
	H218	H	0.027520	-0.214422	0.273877
	H219	H	0.049378	-0.214542	0.274112
	H220	H	0.031143	0.035199	0.203020
	H221	H	0.052169	0.035588	0.213995
	H222	H	0.049282	-0.534602	0.274416
	H223	H	0.027459	-0.534445	0.274093
	H224	H	0.114520	-0.534847	0.286006
	H225	H	0.135528	-0.535227	0.297086
	H226	H	0.117474	0.035577	0.226109
	H227	H	0.139303	0.035442	0.226436
	Al228	Al	0.083334	0.000238	0.250129
	Al229	Al	0.083270	0.250218	0.250273
	Al230	Al	0.000072	0.249746	0.166602
	Al231	Al	0.000015	-0.000186	0.166756
	O232	O	0.095432	0.041068	0.273269
	O233	O	0.084084	0.125651	0.233184
	O234	O	0.082525	0.375283	0.267256
	O235	O	0.154579	0.041399	0.310199
	O236	O	0.069442	0.040984	0.271307
	O237	O	0.007242	0.041025	0.277177
	O238	O	0.069424	0.209328	0.271351
	O239	O	0.071166	0.291223	0.226976
	O240	O	0.012089	0.290894	0.189945
	O241	O	0.095399	0.209278	0.273528
	O242	O	0.097151	0.291318	0.229035
	O243	O	0.159315	0.290681	0.222904
	O244	O	0.007266	0.209325	0.277029
	O245	O	0.071214	0.459485	0.227080
	O246	O	0.012079	0.458899	0.189856
	O247	O	0.159353	0.458964	0.223235
	O248	O	0.097173	0.459397	0.228948
	O249	O	0.154513	0.209455	0.310352
	O250	O	-0.005762	0.375106	0.281302
	O251	O	0.172394	0.124798	0.218828
	C252	C	0.130922	0.214921	0.294880
	C253	C	0.137055	0.124967	0.298103
	C254	C	0.130926	0.034983	0.294971
	C255	C	0.119074	0.035105	0.288743
	C256	C	0.112950	0.125122	0.285326
	C257	C	0.119054	0.215050	0.288702
	C258	C	0.100356	0.125084	0.276818
	C259	C	0.149617	0.125192	0.306753
	C260	C	0.064169	0.125055	0.272231
	C261	C	0.050849	0.124926	0.274317
	C262	C	0.044524	0.214840	0.274321
	C263	C	0.032202	0.214941	0.274080
	C264	C	0.025861	0.124984	0.273945
	C265	C	0.032202	0.034993	0.274048
	C266	C	0.044530	0.034888	0.274306
	C267	C	0.012518	0.125066	0.276097
	C268	C	0.066293	0.375570	0.223463
	C269	C	0.053703	0.375517	0.214884
	C270	C	0.047581	0.465416	0.211627
	C271	C	0.035695	0.465042	0.205306
	C272	C	0.029616	0.375235	0.201935
	C273	C	0.035769	0.285424	0.204948
	C274	C	0.047653	0.285541	0.211238
	C275	C	0.017025	0.375018	0.193320
	C276	C	0.102418	0.375328	0.227860
	C277	C	0.115755	0.375168	0.225715
	C278	C	0.122062	0.285276	0.225680
	C279	C	0.134378	0.285356	0.225875
	C280	C	0.140725	0.375203	0.226007
	C281	C	0.134404	0.465229	0.226066
	C282	C	0.122086	0.465201	0.225827
	C283	C	0.154067	0.374986	0.223998
	H284	H	0.139121	0.215370	0.225865
	H285	H	0.117318	0.215210	0.225407
	H286	H	0.135543	0.285153	0.297203
	H287	H	0.114481	0.285103	0.286277
	H288	H	0.085201	0.125769	0.215038
	H289	H	0.081204	0.375493	0.285454
	H290	H	-0.004414	0.375270	0.263244
	H291	H	0.171152	0.124485	0.237021
	H292	H	0.052214	0.215391	0.213639
	H293	H	0.031213	0.214995	0.202614
	H294	H	0.027479	0.284979	0.273907
	H295	H	0.049292	0.285073	0.274356
	H296	H	0.031058	0.535098	0.203259
	H297	H	0.052037	0.535661	0.214336
	H298	H	0.049297	-0.034935	0.274399
	H299	H	0.027450	-0.035072	0.273869
	H300	H	0.114465	-0.035039	0.286374
	H301	H	0.135489	-0.035200	0.297375
	H302	H	0.117322	0.535188	0.225791
	H303	H	0.139162	0.535329	0.226196
	Al304	Al	0.076765	-0.499698	0.381964
	Al305	Al	0.076806	-0.249791	0.381763
	Al306	Al	-0.006554	-0.249699	0.298469
	Al307	Al	-0.006551	-0.499785	0.298459
	O308	O	0.088926	-0.458970	0.405101
	O309	O	0.077482	-0.374686	0.364822
	O310	O	0.076071	-0.124856	0.398803
	O311	O	0.148011	-0.458774	0.442172
	O312	O	0.062941	-0.458458	0.403054
	O313	O	0.000741	-0.458089	0.410049
	O314	O	0.062943	-0.290350	0.403050
	O315	O	0.064692	-0.208668	0.358612
	O316	O	0.005547	-0.208748	0.321685
	O317	O	0.088995	-0.290841	0.404738
	O318	O	0.090694	-0.209172	0.360807
	O319	O	0.152791	-0.208927	0.354600
	O320	O	0.000802	-0.289641	0.410497
	O321	O	0.064723	-0.040686	0.358461
	O322	O	0.005604	-0.040417	0.321545
	O323	O	0.152824	-0.040801	0.354518
	O324	O	0.090645	-0.040855	0.360717
	O325	O	0.148005	-0.290775	0.442219
	O326	O	-0.012307	-0.124839	0.416828
	O327	O	0.165923	-0.374725	0.350604
	C328	C	0.124396	-0.284962	0.426916
	C329	C	0.130520	-0.374825	0.430144
	C330	C	0.124398	-0.464513	0.426842
	C331	C	0.112539	-0.464609	0.420518
	C332	C	0.106440	-0.374751	0.417208
	C333	C	0.112534	-0.285040	0.420523
	C334	C	0.093881	-0.375005	0.408410
	C335	C	0.143073	-0.374820	0.438763
	C336	C	0.057677	-0.374510	0.404249
	C337	C	0.044344	-0.374210	0.406680
	C338	C	0.038019	-0.284449	0.406807
	C339	C	0.025680	-0.284408	0.406966
	C340	C	0.019360	-0.374263	0.407036
	C341	C	0.025669	-0.464063	0.406960
	C342	C	0.038004	-0.464170	0.406805
	C343	C	0.006022	-0.374100	0.409215
	C344	C	0.059769	-0.124703	0.355069
	C345	C	0.047191	-0.124896	0.346588
	C346	C	0.041058	-0.035099	0.343410
	C347	C	0.029190	-0.034951	0.337163
	C348	C	0.023060	-0.124748	0.333815
	C349	C	0.029189	-0.214573	0.337007
	C350	C	0.041074	-0.214685	0.343236
	C351	C	0.010492	-0.124634	0.325142
	C352	C	0.095924	-0.124834	0.359747
	C353	C	0.109246	-0.124688	0.357646
	C354	C	0.115544	-0.214843	0.357614
	C355	C	0.127879	-0.214608	0.357675
	C356	C	0.134199	-0.124694	0.357671
	C357	C	0.127887	-0.034748	0.357631
	C358	C	0.115564	-0.034853	0.357573
	C359	C	0.147559	-0.124840	0.355489
	H360	H	0.132651	-0.284613	0.357865
	H361	H	0.110805	-0.284766	0.357716
	H362	H	0.128908	-0.214614	0.429226
	H363	H	0.107953	-0.215261	0.417961
	H364	H	0.078649	-0.375369	0.346588
	H365	H	0.075102	-0.124541	0.417070
	H366	H	-0.011575	-0.125236	0.398680
	H367	H	0.164741	-0.374583	0.368706
	H368	H	0.045631	-0.284789	0.345715
	H369	H	0.024602	-0.284608	0.334720
	H370	H	0.020947	-0.214378	0.406971
	H371	H	0.042795	-0.214680	0.406756
	H372	H	0.024603	0.035329	0.334926
	H373	H	0.045619	0.035015	0.345979
	H374	H	0.042726	-0.534138	0.406812
	H375	H	0.020896	-0.533807	0.406914
	H376	H	0.108010	-0.535096	0.417981
	H377	H	0.128973	-0.534592	0.429247
	H378	H	0.110825	0.035295	0.357620
	H379	H	0.132629	0.035484	0.357717
	Al380	Al	0.076766	0.000380	0.381743
	Al381	Al	0.076753	0.250192	0.381839
	Al382	Al	-0.006573	0.250167	0.298232
	Al383	Al	-0.006588	0.000459	0.298648
	O384	O	0.088823	0.041033	0.405127
	O385	O	0.077402	0.125236	0.364790
	O386	O	0.076026	0.375458	0.399007
	O387	O	0.147929	0.041313	0.442266
	O388	O	0.062884	0.040977	0.402821
	O389	O	0.000725	0.041334	0.410429
	O390	O	0.062887	0.209335	0.402952
	O391	O	0.064613	0.291297	0.358802
	O392	O	0.005632	0.291134	0.321378
	O393	O	0.088885	0.209153	0.404894
	O394	O	0.090627	0.290675	0.360826
	O395	O	0.152727	0.290646	0.354397
	O396	O	0.000783	0.209802	0.410413
	O397	O	0.064622	0.459350	0.358749
	O398	O	0.005622	0.459327	0.321481
	O399	O	0.152793	0.458897	0.354658
	O400	O	0.090610	0.459030	0.360797
	O401	O	0.147980	0.209411	0.442045
	O402	O	-0.012360	0.375250	0.416601
	O403	O	0.165923	0.125210	0.350573
	C404	C	0.124347	0.214978	0.426763
	C405	C	0.130449	0.125455	0.430094
	C406	C	0.124360	0.035409	0.426838
	C407	C	0.112492	0.035205	0.420564
	C408	C	0.106377	0.124901	0.417241
	C409	C	0.112484	0.214817	0.420481
	C410	C	0.093773	0.125007	0.408516
	C411	C	0.143048	0.125432	0.438607
	C412	C	0.057622	0.125097	0.404041
	C413	C	0.044308	0.125263	0.406483
	C414	C	0.037999	0.215232	0.406749
	C415	C	0.025684	0.215369	0.406929
	C416	C	0.019333	0.125532	0.406959
	C417	C	0.025650	0.035429	0.406901
	C418	C	0.037960	0.035334	0.406725
	C419	C	0.006013	0.125530	0.409290
	C420	C	0.059683	0.375487	0.355345
	C421	C	0.047121	0.374971	0.346720
	C422	C	0.041004	0.464727	0.343454
	C423	C	0.029163	0.464701	0.337114
	C424	C	0.023078	0.374921	0.333731
	C425	C	0.029178	0.284993	0.337009
	C426	C	0.041013	0.285150	0.343383
	C427	C	0.010549	0.375144	0.324928
	C428	C	0.095868	0.375040	0.359744
	C429	C	0.109192	0.375308	0.357663
	C430	C	0.115533	0.285395	0.357566
	C431	C	0.127841	0.285251	0.357589
	C432	C	0.134172	0.375125	0.357634
	C433	C	0.127842	0.465144	0.357743
	C434	C	0.115519	0.465282	0.357710
	C435	C	0.147498	0.374842	0.355510
	H436	H	0.132570	0.214930	0.357700
	H437	H	0.110753	0.215651	0.357584
	H438	H	0.128904	0.285127	0.429290
	H439	H	0.107953	0.285325	0.418284
	H440	H	0.078285	0.125359	0.346687
	H441	H	0.075003	0.375739	0.417272
	H442	H	-0.011612	0.374824	0.398524
	H443	H	0.164826	0.125423	0.368801
	H444	H	0.045598	0.214949	0.345723
	H445	H	0.024631	0.215076	0.334409
	H446	H	0.020904	0.285369	0.406981
	H447	H	0.042762	0.285177	0.406662
	H448	H	0.024630	0.534784	0.334649
	H449	H	0.045575	0.534865	0.345924
	H450	H	0.042738	-0.034449	0.406660
	H451	H	0.020880	-0.034673	0.406993
	H452	H	0.107837	-0.034779	0.418458
	H453	H	0.128865	-0.034960	0.429485
	H454	H	0.110767	0.535308	0.357816
	H455	H	0.132648	0.534816	0.357978
	Al456	Al	0.070808	-0.499108	0.517057
	Al457	Al	0.070795	-0.249778	0.517097
	Al458	Al	-0.012512	-0.249327	0.433705
	Al459	Al	-0.012518	-0.500007	0.433342
	O460	O	0.083403	-0.458111	0.538896
	O461	O	0.070966	-0.374370	0.500290
	O462	O	0.070944	-0.124526	0.533977
	O463	O	0.141579	-0.458219	0.579175
	O464	O	0.058722	-0.458440	0.543175
	O465	O	0.010903	-0.458809	0.638292
	O466	O	0.058739	-0.290602	0.543196
	O467	O	0.058170	-0.208143	0.496045
	O468	O	0.000100	-0.208915	0.455386
	O469	O	0.083420	-0.290040	0.538792
	O470	O	0.084073	-0.208506	0.493729
	O471	O	0.146215	-0.208820	0.486368
	O472	O	0.010964	-0.290843	0.638358
	O473	O	0.058194	-0.039831	0.495959
	O474	O	0.000097	-0.040661	0.455369
	O475	O	0.146226	-0.040479	0.486407
	O476	O	0.084073	-0.040370	0.493841
	O477	O	0.141537	-0.289685	0.579247
	O478	O	-0.000979	-0.125274	0.650317
	O479	O	0.159408	-0.375104	0.482443
	C480	C	0.118261	-0.284487	0.563159
	C481	C	0.124241	-0.374128	0.566885
	C482	C	0.118253	-0.463859	0.563283
	C483	C	0.106555	-0.463976	0.555964
	C484	C	0.100591	-0.374167	0.552082
	C485	C	0.106580	-0.284441	0.555836
	C486	C	0.088236	-0.374042	0.542622
	C487	C	0.136672	-0.374037	0.575765
	C488	C	0.054605	-0.374660	0.550908
	C489	C	0.044297	-0.374238	0.571179
	C490	C	0.039401	-0.285425	0.580805
	C491	C	0.029918	-0.285687	0.599814
	C492	C	0.025043	-0.374535	0.609564
	C493	C	0.029890	-0.463176	0.599804
	C494	C	0.039369	-0.463016	0.580812
	C495	C	0.014950	-0.374782	0.630298
	C496	C	0.053315	-0.124169	0.492564
	C497	C	0.040925	-0.124310	0.483416
	C498	C	0.034904	-0.034832	0.479810
	C499	C	0.023259	-0.035043	0.472339
	C500	C	0.017327	-0.124839	0.468437
	C501	C	0.023323	-0.214493	0.472210
	C502	C	0.034991	-0.214324	0.479673
	C503	C	0.004939	-0.124831	0.459079
	C504	C	0.089343	-0.124430	0.492709
	C505	C	0.102660	-0.124691	0.490568
	C506	C	0.108978	-0.214691	0.490297
	C507	C	0.121310	-0.214696	0.490129
	C508	C	0.127651	-0.124714	0.490048
	C509	C	0.121330	-0.034747	0.490287
	C510	C	0.108984	-0.034804	0.490473
	C511	C	0.140975	-0.124633	0.487495
	H512	H	0.126016	-0.284862	0.490036
	H513	H	0.104200	-0.284949	0.490279
	H514	H	0.122825	-0.214745	0.565943
	H515	H	0.102115	-0.214466	0.552881
	H516	H	0.071571	-0.374334	0.482179
	H517	H	0.071378	-0.124832	0.552180
	H518	H	-0.001785	-0.125459	0.632311
	H519	H	0.158447	-0.374231	0.500652
	H520	H	0.039520	-0.283934	0.482672
	H521	H	0.018797	-0.284136	0.469258
	H522	H	0.026218	-0.216789	0.607165
	H523	H	0.043056	-0.216459	0.573428
	H524	H	0.018727	0.034912	0.469594
	H525	H	0.039365	0.035007	0.482981
	H526	H	0.043008	-0.531965	0.573375
	H527	H	0.026235	-0.532357	0.607116
	H528	H	0.102020	-0.533481	0.553088
	H529	H	0.122774	-0.533599	0.566118
	H530	H	0.104222	0.035229	0.490668
	H531	H	0.126104	0.035008	0.490327
	Al532	Al	0.070804	0.001004	0.517087
	Al533	Al	0.070815	0.250210	0.517207
	Al534	Al	-0.012545	0.250619	0.433501
	Al535	Al	-0.012598	-0.000129	0.433749
	O536	O	0.083415	0.041224	0.538802
	O537	O	0.071011	0.125629	0.500257
	O538	O	0.070989	0.375612	0.534052
	O539	O	0.141537	0.040946	0.579111
	O540	O	0.058753	0.041443	0.543192
	O541	O	0.010992	0.040735	0.638355
	O542	O	0.058768	0.209477	0.543215
	O543	O	0.058163	0.291167	0.496195
	O544	O	0.000094	0.291440	0.455222
	O545	O	0.083446	0.209426	0.538751
	O546	O	0.084105	0.291711	0.493945
	O547	O	0.146235	0.290702	0.486420
	O548	O	0.010935	0.208892	0.638097
	O549	O	0.058221	0.459440	0.495916
	O550	O	0.000154	0.459489	0.455012
	O551	O	0.146178	0.458755	0.486173
	O552	O	0.084098	0.460014	0.493863
	O553	O	0.141559	0.209356	0.579155
	O554	O	-0.000978	0.374836	0.650376
	O555	O	0.159447	0.125579	0.482387
	C556	C	0.118324	0.214995	0.562941
	C557	C	0.124251	0.125147	0.566897
	C558	C	0.118216	0.035565	0.563427
	C559	C	0.106556	0.035611	0.556074
	C560	C	0.100630	0.125374	0.551997
	C561	C	0.106662	0.215001	0.555577
	C562	C	0.088259	0.125372	0.542513
	C563	C	0.136675	0.125169	0.575745
	C564	C	0.054654	0.125427	0.550937
	C565	C	0.044312	0.125090	0.571149
	C566	C	0.039440	0.213881	0.580902
	C567	C	0.029962	0.213641	0.599851
	C568	C	0.025065	0.124570	0.609461
	C569	C	0.029956	0.035763	0.599797
	C570	C	0.039440	0.035922	0.580807
	C571	C	0.014972	0.124680	0.630261
	C572	C	0.053318	0.375368	0.492525
	C573	C	0.040902	0.375357	0.483534
	C574	C	0.034964	0.465031	0.479716
	C575	C	0.023287	0.465182	0.472232
	C576	C	0.017318	0.375350	0.468411
	C577	C	0.023236	0.285642	0.472517
	C578	C	0.034883	0.285684	0.480005
	C579	C	0.004967	0.375616	0.458822
	C580	C	0.089346	0.375926	0.492730
	C581	C	0.102656	0.375789	0.490574
	C582	C	0.108934	0.285611	0.490462
	C583	C	0.121271	0.285142	0.490255
	C584	C	0.127633	0.374890	0.490056
	C585	C	0.121338	0.464968	0.490257
	C586	C	0.109009	0.465514	0.490481
	C587	C	0.140962	0.374586	0.487342
	H588	H	0.126010	0.215107	0.490279
	H589	H	0.104145	0.215727	0.490625
	H590	H	0.122921	0.284333	0.565595
	H591	H	0.102201	0.284525	0.552441
	H592	H	0.071785	0.125486	0.482106
	H593	H	0.071210	0.375245	0.552160
	H594	H	-0.001992	0.374670	0.632442
	H595	H	0.158582	0.125330	0.500561
	H596	H	0.039353	0.216253	0.483179
	H597	H	0.018757	0.215856	0.469626
	H598	H	0.026369	0.282523	0.607304
	H599	H	0.043155	0.282930	0.573635
	H600	H	0.018803	0.534710	0.469073
	H601	H	0.039498	0.534399	0.482649
	H602	H	0.043116	-0.032910	0.573526
	H603	H	0.026366	-0.033240	0.607320
	H604	H	0.101990	-0.034180	0.553260
	H605	H	0.122759	-0.033896	0.566440
	H606	H	0.104279	0.535872	0.490731
	H607	H	0.126139	0.534808	0.490376
	Al608	Al	0.083330	-0.500324	0.749985
	Al609	Al	0.083303	-0.250047	0.749801
	Al610	Al	-0.000057	-0.250566	0.666744
	Al611	Al	-0.000072	-0.500219	0.666928
	O612	O	0.096586	-0.459067	0.768676
	O613	O	0.082473	-0.375245	0.733443
	O614	O	0.084209	-0.125261	0.766334
	O615	O	0.153254	-0.459684	0.814630
	O616	O	0.072285	-0.459331	0.778499
	O617	O	0.024554	-0.459350	0.873861
	O618	O	0.072339	-0.291094	0.778434
	O619	O	0.069986	-0.209029	0.731424
	O620	O	0.013231	-0.209121	0.685528
	O621	O	0.096575	-0.290650	0.768667
	O622	O	0.094292	-0.208987	0.721190
	O623	O	0.142087	-0.208633	0.626309
	O624	O	0.024664	-0.291295	0.874015
	O625	O	0.070048	-0.040701	0.731181
	O626	O	0.013283	-0.040872	0.685516
	O627	O	0.142124	-0.040952	0.626365
	O628	O	0.094326	-0.041057	0.721375
	O629	O	0.153358	-0.291369	0.814476
	O630	O	0.012355	-0.125754	0.882919
	O631	O	0.154306	-0.374564	0.617171
	C632	C	0.130656	-0.285732	0.796131
	C633	C	0.136445	-0.375032	0.800494
	C634	C	0.130634	-0.464206	0.796100
	C635	C	0.119252	-0.464125	0.787114
	C636	C	0.113489	-0.374899	0.782556
	C637	C	0.119260	-0.285786	0.787197
	C638	C	0.101345	-0.374985	0.772445
	C639	C	0.148563	-0.375379	0.810710
	C640	C	0.068290	-0.375105	0.786391
	C641	C	0.058172	-0.375214	0.807226
	C642	C	0.053338	-0.286298	0.817074
	C643	C	0.043880	-0.286399	0.836138
	C644	C	0.038974	-0.375348	0.845728
	C645	C	0.043854	-0.464231	0.836071
	C646	C	0.053316	-0.464203	0.817008
	C647	C	0.028678	-0.375339	0.866060
	C648	C	0.065259	-0.124926	0.727479
	C649	C	0.053116	-0.125045	0.717410
	C650	C	0.047365	-0.035912	0.712804
	C651	C	0.035984	-0.036015	0.703835
	C652	C	0.030164	-0.125081	0.699427
	C653	C	0.035900	-0.214291	0.704105
	C654	C	0.047300	-0.214216	0.713078
	C655	C	0.018007	-0.125115	0.689335
	C656	C	0.098313	-0.124991	0.713294
	C657	C	0.108461	-0.125070	0.692616
	C658	C	0.113195	-0.214025	0.682666
	C659	C	0.122691	-0.213985	0.663725
	C660	C	0.127656	-0.125061	0.654265
	C661	C	0.122840	-0.036195	0.664066
	C662	C	0.113340	-0.036079	0.683003
	C663	C	0.137990	-0.124815	0.634105
	H664	H	0.126229	-0.283074	0.656088
	H665	H	0.109489	-0.282959	0.689964
	H666	H	0.135085	-0.216767	0.799822
	H667	H	0.114809	-0.216883	0.783701
	H668	H	0.081752	-0.375583	0.715370
	H669	H	0.085152	-0.125745	0.784448
	H670	H	0.012090	-0.125651	0.864646
	H671	H	0.154651	-0.375007	0.635285
	H672	H	0.051728	-0.282865	0.716816
	H673	H	0.031419	-0.282782	0.700581
	H674	H	0.040242	-0.217273	0.843547
	H675	H	0.056993	-0.217080	0.809701
	H676	H	0.031609	0.032993	0.700156
	H677	H	0.051791	0.032878	0.716272
	H678	H	0.056927	-0.533467	0.809556
	H679	H	0.040166	-0.533264	0.843429
	H680	H	0.114798	-0.533088	0.783610
	H681	H	0.135070	-0.532870	0.799794
	H682	H	0.109765	0.032888	0.690512
	H683	H	0.126520	0.032787	0.656777
	Al684	Al	0.083309	-0.000538	0.750015
	Al685	Al	0.083344	0.249643	0.750023
	Al686	Al	-0.000053	0.249534	0.666759
	Al687	Al	-0.000025	-0.000265	0.666825
	O688	O	0.096572	0.040573	0.768810
	O689	O	0.082428	0.124890	0.733603
	O690	O	0.084306	0.374601	0.766432
	O691	O	0.153317	0.040055	0.814449
	O692	O	0.072296	0.040418	0.778540
	O693	O	0.024542	0.040432	0.873653
	O694	O	0.072360	0.208417	0.778598
	O695	O	0.070002	0.290765	0.731392
	O696	O	0.013212	0.290545	0.685504
	O697	O	0.096673	0.209082	0.768707
	O698	O	0.094296	0.290684	0.721306
	O699	O	0.142075	0.291400	0.626280
	O700	O	0.024648	0.208503	0.873653
	O701	O	0.070063	0.458938	0.731219
	O702	O	0.013253	0.459072	0.685476
	O703	O	0.142078	0.459142	0.626275
	O704	O	0.094415	0.458781	0.721593
	O705	O	0.153364	0.208607	0.814536
	O706	O	0.012412	0.374642	0.882981
	O707	O	0.154270	0.125256	0.617180
	C708	C	0.130692	0.214099	0.796163
	C709	C	0.136438	0.124458	0.800684
	C710	C	0.130626	0.034989	0.796292
	C711	C	0.119266	0.035162	0.787224
	C712	C	0.113518	0.124615	0.782643
	C713	C	0.119319	0.214093	0.787093
	C714	C	0.101381	0.124685	0.772512
	C715	C	0.148590	0.124451	0.810747
	C716	C	0.068334	0.124384	0.786569
	C717	C	0.058187	0.124514	0.807293
	C718	C	0.053379	0.213350	0.817128
	C719	C	0.043910	0.213378	0.836089
	C720	C	0.038974	0.124330	0.845642
	C721	C	0.043882	0.035341	0.836082
	C722	C	0.053371	0.035424	0.817134
	C723	C	0.028682	0.124344	0.865929
	C724	C	0.065273	0.374691	0.727517
	C725	C	0.053085	0.374489	0.717523
	C726	C	0.047348	0.463834	0.712871
	C727	C	0.035972	0.463895	0.703826
	C728	C	0.030149	0.374657	0.699456
	C729	C	0.035903	0.285356	0.704101
	C730	C	0.047280	0.285133	0.713127
	C731	C	0.017990	0.374643	0.689297
	C732	C	0.098369	0.374712	0.713446
	C733	C	0.108452	0.374744	0.692668
	C734	C	0.113217	0.285800	0.682684
	C735	C	0.122684	0.285988	0.663728
	C736	C	0.127690	0.374919	0.654318
	C737	C	0.122852	0.463823	0.664071
	C738	C	0.113393	0.463626	0.683058
	C739	C	0.137992	0.375251	0.634052
	H740	H	0.126270	0.217175	0.656208
	H741	H	0.109479	0.216999	0.689907
	H742	H	0.135146	0.282740	0.799760
	H743	H	0.114917	0.282991	0.783406
	H744	H	0.081381	0.124193	0.715558
	H745	H	0.085276	0.374198	0.784284
	H746	H	0.012265	0.375155	0.864813
	H747	H	0.154458	0.125037	0.635489
	H748	H	0.051661	0.216015	0.716772
	H749	H	0.031480	0.216226	0.700555
	H750	H	0.040345	0.282106	0.843690
	H751	H	0.057091	0.282146	0.809837
	H752	H	0.031558	0.532601	0.700069
	H753	H	0.051853	0.532704	0.716376
	H754	H	0.057062	-0.033596	0.809787
	H755	H	0.040252	-0.033446	0.843636
	H756	H	0.114803	-0.033769	0.783732
	H757	H	0.135037	-0.034045	0.799908
	H758	H	0.109812	0.532385	0.690589
	H759	H	0.126595	0.532479	0.656795
	Al760	Al	0.095800	-0.501191	0.983004
	Al761	Al	0.095816	-0.250090	0.982982
	Al762	Al	0.012509	-0.250990	0.899922
	Al763	Al	0.012471	-0.500300	0.899924
	O764	O	0.108397	-0.459874	1.004028
	O765	O	0.095700	-0.375646	0.966125
	O766	O	0.095655	-0.125579	0.999844
	O767	O	0.166460	-0.460388	1.044700
	O768	O	0.082530	-0.460162	1.006157
	O769	O	0.020388	-0.459200	1.013942
	O770	O	0.082563	-0.291924	1.006398
	O771	O	0.083141	-0.209660	0.961423
	O772	O	0.025047	-0.209455	0.921144
	O773	O	0.108438	-0.291617	1.004040
	O774	O	0.107900	-0.209179	0.956946
	O775	O	0.155676	-0.209101	0.861854
	O776	O	0.020427	-0.290872	1.014137
	O777	O	0.083242	-0.041660	0.961242
	O778	O	0.025061	-0.041171	0.920972
	O779	O	0.155706	-0.041224	0.861803
	O780	O	0.107944	-0.041125	0.957043
	O781	O	0.166574	-0.292064	1.044495
	O782	O	0.007257	-0.124911	1.018118
	O783	O	0.167590	-0.375364	0.849630
	C784	C	0.143414	-0.286330	1.027377
	C785	C	0.149330	-0.376141	1.031417
	C786	C	0.143351	-0.465806	1.027682
	C787	C	0.131700	-0.465566	1.020147
	C788	C	0.125744	-0.375846	1.016326
	C789	C	0.131756	-0.286129	1.019884
	C790	C	0.113301	-0.375956	1.007461
	C791	C	0.161691	-0.376255	1.040874
	C792	C	0.077304	-0.376009	1.007486
	C793	C	0.063971	-0.375896	1.009779
	C794	C	0.057651	-0.285960	1.010109
	C795	C	0.045315	-0.286122	1.010277
	C796	C	0.038976	-0.375929	1.010308
	C797	C	0.045288	-0.465958	1.009854
	C798	C	0.057630	-0.465880	1.009662
	C799	C	0.025642	-0.375181	1.012875
	C800	C	0.078333	-0.125565	0.957619
	C801	C	0.065945	-0.125450	0.948387
	C802	C	0.059982	-0.035563	0.944578
	C803	C	0.048307	-0.035386	0.937234
	C804	C	0.042298	-0.125022	0.933617
	C805	C	0.048234	-0.214968	0.937444
	C806	C	0.059922	-0.215153	0.944770
	C807	C	0.029912	-0.125146	0.924552
	C808	C	0.111991	-0.125195	0.949184
	C809	C	0.122315	-0.125113	0.928963
	C810	C	0.127181	-0.213983	0.919297
	C811	C	0.136674	-0.214000	0.900349
	C812	C	0.141553	-0.125256	0.890664
	C813	C	0.136709	-0.036347	0.900392
	C814	C	0.127215	-0.036278	0.919323
	C815	C	0.151678	-0.125123	0.869884
	H816	H	0.140276	-0.282876	0.892875
	H817	H	0.123506	-0.282679	0.926642
	H818	H	0.147970	-0.216680	1.030177
	H819	H	0.127237	-0.216552	1.016782
	H820	H	0.095430	-0.375575	0.947970
	H821	H	0.095047	-0.125521	1.018075
	H822	H	0.008248	-0.124560	0.999960
	H823	H	0.168947	-0.375451	0.867528
	H824	H	0.064422	-0.284786	0.947754
	H825	H	0.043675	-0.284348	0.934681
	H826	H	0.040580	-0.215986	1.010491
	H827	H	0.062436	-0.216101	1.010197
	H828	H	0.043821	0.034021	0.934327
	H829	H	0.064500	0.034234	0.947338
	H830	H	0.062359	-0.535936	1.009454
	H831	H	0.040502	-0.535731	1.009739
	H832	H	0.127169	-0.535262	1.017379
	H833	H	0.147821	-0.535486	1.030689
	H834	H	0.123554	0.032431	0.926705
	H835	H	0.140352	0.032317	0.892963
	Al836	Al	0.095825	-0.001043	0.983041
	Al837	Al	0.095827	0.249945	0.983108
	Al838	Al	0.012514	0.248642	0.899664
	Al839	Al	0.012460	-0.000557	0.899805
	O840	O	0.108431	0.040377	1.004157
	O841	O	0.095690	0.124440	0.966274
	O842	O	0.095605	0.374362	0.999997
	O843	O	0.166582	0.040260	1.044576
	O844	O	0.082576	0.039538	1.006295
	O845	O	0.020359	0.041120	1.013999
	O846	O	0.082591	0.208167	1.006440
	O847	O	0.083143	0.289915	0.961433
	O848	O	0.025053	0.289745	0.920972
	O849	O	0.108470	0.208646	1.004144
	O850	O	0.107901	0.290577	0.957058
	O851	O	0.155592	0.290667	0.861712
	O852	O	0.020437	0.209364	1.014169
	O853	O	0.083157	0.458306	0.961425
	O854	O	0.025060	0.458121	0.921000
	O855	O	0.155675	0.458761	0.861928
	O856	O	0.107901	0.458453	0.956947
	O857	O	0.166645	0.208566	1.044357
	O858	O	0.007260	0.375024	1.018142
	O859	O	0.167490	0.124693	0.849595
	C860	C	0.143422	0.213724	1.027596
	C861	C	0.149386	0.124160	1.031494
	C862	C	0.143409	0.034506	1.027783
	C863	C	0.131733	0.034339	1.020391
	C864	C	0.125766	0.124022	1.016560
	C865	C	0.131759	0.213589	1.020142
	C866	C	0.113335	0.124410	1.007585
	C867	C	0.161790	0.124396	1.040791
	C868	C	0.077336	0.123918	1.007422
	C869	C	0.064010	0.123901	1.009813
	C870	C	0.057704	0.214064	1.010040
	C871	C	0.045375	0.214295	1.010241
	C872	C	0.038997	0.124617	1.010287
	C873	C	0.045316	0.034598	1.009828
	C874	C	0.057639	0.034207	1.009635
	C875	C	0.025654	0.124998	1.012977
	C876	C	0.078335	0.373940	0.957685
	C877	C	0.065954	0.373720	0.948326
	C878	C	0.059957	0.463383	0.944700
	C879	C	0.048306	0.463421	0.937232
	C880	C	0.042390	0.373744	0.933194
	C881	C	0.048385	0.283944	0.936758
	C882	C	0.060035	0.283805	0.944272
	C883	C	0.029930	0.373810	0.924394
	C884	C	0.111996	0.374557	0.949220
	C885	C	0.122289	0.374535	0.929008
	C886	C	0.127163	0.285659	0.919358
	C887	C	0.136624	0.285743	0.900370
	C888	C	0.141509	0.374509	0.890604
	C889	C	0.136746	0.463352	0.900574
	C890	C	0.127261	0.463416	0.919544
	C891	C	0.151617	0.374717	0.869892
	H892	H	0.140300	0.216936	0.893034
	H893	H	0.123468	0.216930	0.926703
	H894	H	0.147939	0.283338	1.030416
	H895	H	0.127244	0.283017	1.017113
	H896	H	0.095469	0.124273	0.947986
	H897	H	0.094930	0.374327	1.018209
	H898	H	0.008484	0.375203	1.000108
	H899	H	0.168327	0.124304	0.867666
	H900	H	0.064545	0.213924	0.947116
	H901	H	0.043867	0.214639	0.933754
	H902	H	0.040620	0.284189	1.010591
	H903	H	0.062500	0.283822	1.010134
	H904	H	0.043735	0.532889	0.934652
	H905	H	0.064472	0.533109	0.947889
	H906	H	0.062378	-0.035723	1.009437
	H907	H	0.040555	-0.035466	1.009863
	H908	H	0.127218	-0.034829	1.017550
	H909	H	0.147908	-0.035095	1.030754
	H910	H	0.123679	0.532303	0.927083
	H911	H	0.140526	0.532193	0.893388
	Al912	Al	0.262484	-0.500852	0.149560
	Al913	Al	0.262548	-0.250038	0.149698
	Al914	Al	0.179172	-0.251194	0.066213
	Al915	Al	0.179203	-0.500101	0.066395
	O916	O	0.275120	-0.459746	0.170525
	O917	O	0.262441	-0.375275	0.132640
	O918	O	0.262199	-0.125683	0.166561
	O919	O	0.333187	-0.460039	0.211544
	O920	O	0.249210	-0.459971	0.172834
	O921	O	0.187074	-0.459055	0.180896
	O922	O	0.249289	-0.291796	0.173076
	O923	O	0.249876	-0.209921	0.127982
	O924	O	0.191783	-0.209764	0.087286
	O925	O	0.275161	-0.291347	0.170695
	O926	O	0.274527	-0.209454	0.123485
	O927	O	0.322216	-0.209151	0.028247
	O928	O	0.187127	-0.290782	0.180916
	O929	O	0.249829	-0.041477	0.128068
	O930	O	0.191818	-0.041196	0.087242
	O931	O	0.322252	-0.040953	0.028382
	O932	O	0.274555	-0.041328	0.123664
	O933	O	0.333114	-0.291807	0.211490
	O934	O	0.173965	-0.125014	0.184779
	O935	O	0.334119	-0.374812	0.016215
	C936	C	0.310079	-0.286335	0.194327
	C937	C	0.315993	-0.376208	0.198336
	C938	C	0.309999	-0.466084	0.194528
	C939	C	0.298342	-0.465971	0.186912
	C940	C	0.292420	-0.376110	0.183102
	C941	C	0.298431	-0.286338	0.186769
	C942	C	0.280016	-0.375585	0.174089
	C943	C	0.328338	-0.376190	0.207863
	C944	C	0.243986	-0.375534	0.174034
	C945	C	0.230656	-0.375299	0.176400
	C946	C	0.224332	-0.285464	0.176735
	C947	C	0.212013	-0.285467	0.176950
	C948	C	0.205656	-0.375311	0.176992
	C949	C	0.211974	-0.465164	0.176606
	C950	C	0.224313	-0.465079	0.176371
	C951	C	0.192341	-0.375080	0.179721
	C952	C	0.245038	-0.125790	0.124362
	C953	C	0.232626	-0.125880	0.115014
	C954	C	0.226686	-0.036076	0.111065
	C955	C	0.215032	-0.035924	0.103513
	C956	C	0.209081	-0.125748	0.099807
	C957	C	0.215034	-0.215469	0.103495
	C958	C	0.226685	-0.215654	0.111034
	C959	C	0.196645	-0.125411	0.090769
	C960	C	0.278667	-0.125308	0.115864
	C961	C	0.288986	-0.125027	0.095627
	C962	C	0.293831	-0.214148	0.085958
	C963	C	0.303294	-0.214108	0.066965
	C964	C	0.308174	-0.125121	0.057232
	C965	C	0.303335	-0.036076	0.066941
	C966	C	0.293875	-0.036144	0.085919
	C967	C	0.318266	-0.125015	0.036347
	H968	H	0.306947	-0.282896	0.059485
	H969	H	0.290148	-0.283173	0.093409
	H970	H	0.314548	-0.216610	0.197261
	H971	H	0.293933	-0.216611	0.183746
	H972	H	0.262179	-0.374670	0.114433
	H973	H	0.261205	-0.125796	0.184799
	H974	H	0.174953	-0.125664	0.166595
	H975	H	0.335005	-0.374405	0.034193
	H976	H	0.231187	-0.285398	0.113921
	H977	H	0.210509	-0.284942	0.100571
	H978	H	0.207250	-0.215480	0.177339
	H979	H	0.229097	-0.215478	0.176880
	H980	H	0.210502	0.033789	0.100600
	H981	H	0.231190	0.033471	0.114011
	H982	H	0.229090	-0.535018	0.176262
	H983	H	0.207210	-0.535003	0.176698
	H984	H	0.293800	-0.535631	0.184134
	H985	H	0.314487	-0.535900	0.197761
	H986	H	0.290251	0.033018	0.093386
	H987	H	0.307031	0.033032	0.059593
	Al988	Al	0.262470	-0.000797	0.149764
	Al989	Al	0.262482	0.249956	0.149579
	Al990	Al	0.179232	0.248922	0.066119
	Al991	Al	0.179195	-0.000382	0.066232
	O992	O	0.275033	0.040261	0.170973
	O993	O	0.262373	0.124188	0.132830
	O994	O	0.262263	0.374381	0.166350
	O995	O	0.333179	0.040245	0.211439
	O996	O	0.249215	0.040056	0.173061
	O997	O	0.187071	0.041254	0.180524
	O998	O	0.249280	0.208385	0.173013
	O999	O	0.249865	0.290288	0.127934
	O1000	O	0.191787	0.290074	0.087353
	O1001	O	0.275104	0.208865	0.170614
	O1002	O	0.274450	0.290390	0.123365
	O1003	O	0.322319	0.290605	0.028334
	O1004	O	0.187122	0.209762	0.180885
	O1005	O	0.249894	0.458664	0.127798
	O1006	O	0.191770	0.458363	0.087437
	O1007	O	0.322374	0.458584	0.028480
	O1008	O	0.274580	0.458285	0.123509
	O1009	O	0.333116	0.208648	0.211674
	O1010	O	0.173976	0.374855	0.184929
	O1011	O	0.334134	0.125022	0.016286
	C1012	C	0.310001	0.214253	0.194421
	C1013	C	0.315940	0.124274	0.198374
	C1014	C	0.309964	0.034471	0.194527
	C1015	C	0.298312	0.034405	0.187017
	C1016	C	0.292352	0.124279	0.183251
	C1017	C	0.298342	0.214125	0.186938
	C1018	C	0.279942	0.124536	0.174194
	C1019	C	0.328312	0.124410	0.207803
	C1020	C	0.243989	0.124244	0.174188
	C1021	C	0.230646	0.124489	0.176373
	C1022	C	0.224315	0.214531	0.176642
	C1023	C	0.211994	0.214735	0.176829
	C1024	C	0.205643	0.124889	0.176858
	C1025	C	0.211964	0.034740	0.176567
	C1026	C	0.224287	0.034554	0.176400
	C1027	C	0.192324	0.125305	0.179472
	C1028	C	0.245057	0.374427	0.124219
	C1029	C	0.232682	0.374283	0.114928
	C1030	C	0.226738	0.464053	0.110779
	C1031	C	0.215099	0.464223	0.103293
	C1032	C	0.209079	0.374431	0.099812
	C1033	C	0.215014	0.284615	0.103796
	C1034	C	0.226662	0.284347	0.111306
	C1035	C	0.196657	0.374292	0.090853
	C1036	C	0.278633	0.374211	0.115718
	C1037	C	0.288980	0.374257	0.095490
	C1038	C	0.293766	0.285408	0.085653
	C1039	C	0.303270	0.285561	0.066747
	C1040	C	0.308244	0.374388	0.057261
	C1041	C	0.303457	0.463220	0.067096
	C1042	C	0.293952	0.463194	0.086060
	C1043	C	0.318351	0.374342	0.036383
	H1044	H	0.306799	0.216500	0.059046
	H1045	H	0.290021	0.216427	0.092787
	H1046	H	0.314539	0.284158	0.197268
	H1047	H	0.293869	0.283688	0.183808
	H1048	H	0.261948	0.124077	0.114660
	H1049	H	0.261551	0.373702	0.184581
	H1050	H	0.175111	0.375315	0.166821
	H1051	H	0.335120	0.125638	0.034262
	H1052	H	0.231185	0.214702	0.114357
	H1053	H	0.210464	0.215032	0.101077
	H1054	H	0.207225	0.284858	0.176854
	H1055	H	0.229109	0.284462	0.176677
	H1056	H	0.210574	0.533652	0.100222
	H1057	H	0.231276	0.533703	0.113532
	H1058	H	0.229027	-0.035477	0.176293
	H1059	H	0.207159	-0.035342	0.176496
	H1060	H	0.293778	-0.035130	0.183990
	H1061	H	0.314476	-0.035169	0.197408
	H1062	H	0.290342	0.532119	0.093586
	H1063	H	0.307152	0.532131	0.059812
	Al1064	Al	0.256497	-0.500175	0.285022
	Al1065	Al	0.256538	-0.249920	0.285212
	Al1066	Al	0.173230	-0.249893	0.201950
	Al1067	Al	0.173207	-0.499983	0.201952
	O1068	O	0.268603	-0.459175	0.308404
	O1069	O	0.257216	-0.375174	0.268082
	O1070	O	0.255804	-0.125093	0.302293
	O1071	O	0.327656	-0.459649	0.345410
	O1072	O	0.242640	-0.459325	0.306033
	O1073	O	0.180446	-0.458819	0.312323
	O1074	O	0.242607	-0.291016	0.306210
	O1075	O	0.244394	-0.208969	0.262113
	O1076	O	0.185363	-0.208841	0.224919
	O1077	O	0.268596	-0.291080	0.308441
	O1078	O	0.270372	-0.208961	0.264040
	O1079	O	0.332466	-0.210379	0.256106
	O1080	O	0.180521	-0.290633	0.312379
	O1081	O	0.244478	-0.040642	0.262035
	O1082	O	0.185377	-0.040845	0.224740
	O1083	O	0.332547	-0.041770	0.256380
	O1084	O	0.270384	-0.040808	0.264072
	O1085	O	0.327773	-0.291591	0.345090
	O1086	O	0.167435	-0.124468	0.316405
	O1087	O	0.345596	-0.375796	0.249930
	C1088	C	0.304167	-0.285370	0.329596
	C1089	C	0.310244	-0.375406	0.333066
	C1090	C	0.304083	-0.465203	0.329899
	C1091	C	0.292221	-0.464979	0.323605
	C1092	C	0.286137	-0.375005	0.320284
	C1093	C	0.292297	-0.285232	0.323355
	C1094	C	0.273542	-0.375156	0.311788
	C1095	C	0.322788	-0.375559	0.341762
	C1096	C	0.237372	-0.375284	0.307139
	C1097	C	0.224046	-0.375285	0.309266
	C1098	C	0.217758	-0.285188	0.309359
	C1099	C	0.205440	-0.284942	0.309294
	C1100	C	0.199063	-0.374783	0.309152
	C1101	C	0.205347	-0.464804	0.309168
	C1102	C	0.217662	-0.465082	0.309245
	C1103	C	0.185738	-0.374723	0.311402
	C1104	C	0.239520	-0.124717	0.258530
	C1105	C	0.226985	-0.124611	0.249882
	C1106	C	0.220881	-0.034863	0.246541
	C1107	C	0.209028	-0.034963	0.240217
	C1108	C	0.202892	-0.124883	0.236847
	C1109	C	0.209009	-0.214679	0.240240
	C1110	C	0.220866	-0.214678	0.246565
	C1111	C	0.190315	-0.124747	0.228227
	C1112	C	0.275633	-0.124964	0.262836
	C1113	C	0.288955	-0.125151	0.260364
	C1114	C	0.295259	-0.215207	0.259869
	C1115	C	0.307598	-0.215404	0.259594
	C1116	C	0.313944	-0.125592	0.259749
	C1117	C	0.307635	-0.035536	0.260084
	C1118	C	0.295298	-0.035194	0.260320
	C1119	C	0.327262	-0.125908	0.257413
	H1120	H	0.312342	-0.285661	0.259358
	H1121	H	0.290502	-0.285503	0.259748
	H1122	H	0.308747	-0.215195	0.331921
	H1123	H	0.287734	-0.215155	0.320909
	H1124	H	0.258188	-0.375104	0.249908
	H1125	H	0.254586	-0.124840	0.320519
	H1126	H	0.168548	-0.124231	0.298245
	H1127	H	0.344778	-0.375612	0.268123
	H1128	H	0.225417	-0.284607	0.248984
	H1129	H	0.204385	-0.284648	0.237913
	H1130	H	0.200698	-0.214879	0.309203
	H1131	H	0.222535	-0.215268	0.309338
	H1132	H	0.204460	0.035309	0.237766
	H1133	H	0.225463	0.035076	0.249026
	H1134	H	0.222387	-0.535289	0.309154
	H1135	H	0.200546	-0.534550	0.309051
	H1136	H	0.287614	-0.534924	0.321343
	H1137	H	0.308596	-0.535419	0.332444
	H1138	H	0.290559	0.034902	0.260547
	H1139	H	0.312412	0.034538	0.260250
	Al1140	Al	0.256569	0.000050	0.285242
	Al1141	Al	0.256547	0.250069	0.285090
	Al1142	Al	0.173212	0.249852	0.201921
	Al1143	Al	0.173274	0.000146	0.201679
	O1144	O	0.268682	0.041168	0.308377
	O1145	O	0.257277	0.124708	0.268127
	O1146	O	0.255843	0.374338	0.302087
	O1147	O	0.327798	0.040792	0.345256
	O1148	O	0.242718	0.040960	0.306389
	O1149	O	0.180541	0.041373	0.312353
	O1150	O	0.242701	0.208971	0.306137
	O1151	O	0.244366	0.290517	0.261953
	O1152	O	0.185263	0.290772	0.225257
	O1153	O	0.268773	0.209474	0.308024
	O1154	O	0.270320	0.291535	0.263577
	O1155	O	0.332483	0.290242	0.256396
	O1156	O	0.180507	0.209384	0.312424
	O1157	O	0.244453	0.458618	0.261842
	O1158	O	0.185287	0.458964	0.225057
	O1159	O	0.332577	0.458677	0.256658
	O1160	O	0.270428	0.459736	0.263907
	O1161	O	0.327768	0.209061	0.345287
	O1162	O	0.167423	0.375322	0.316405
	O1163	O	0.345493	0.124347	0.250058
	C1164	C	0.304225	0.214919	0.329741
	C1165	C	0.310306	0.125009	0.333092
	C1166	C	0.304161	0.035233	0.329940
	C1167	C	0.292323	0.035305	0.323640
	C1168	C	0.286247	0.125248	0.320185
	C1169	C	0.292384	0.215010	0.323409
	C1170	C	0.273676	0.125239	0.311593
	C1171	C	0.322869	0.124937	0.341678
	C1172	C	0.237435	0.124988	0.307299
	C1173	C	0.224102	0.125009	0.309408
	C1174	C	0.217810	0.214961	0.309617
	C1175	C	0.205473	0.215099	0.309453
	C1176	C	0.199124	0.125447	0.309249
	C1177	C	0.205420	0.035534	0.309253
	C1178	C	0.217744	0.035314	0.309434
	C1179	C	0.185778	0.125451	0.311308
	C1180	C	0.239468	0.374608	0.258483
	C1181	C	0.226941	0.375127	0.249731
	C1182	C	0.220833	0.464987	0.246387
	C1183	C	0.208956	0.465130	0.240110
	C1184	C	0.202830	0.375275	0.236945
	C1185	C	0.208953	0.285465	0.240219
	C1186	C	0.220831	0.285366	0.246524
	C1187	C	0.190230	0.374978	0.228519
	C1188	C	0.275626	0.375469	0.262626
	C1189	C	0.288965	0.374926	0.260228
	C1190	C	0.295273	0.284670	0.259798
	C1191	C	0.307612	0.284549	0.259650
	C1192	C	0.313956	0.374517	0.259943
	C1193	C	0.307661	0.464568	0.260260
	C1194	C	0.295329	0.464706	0.260384
	C1195	C	0.327275	0.374557	0.257571
	H1196	H	0.312345	0.214306	0.259443
	H1197	H	0.290477	0.214962	0.259745
	H1198	H	0.308836	0.284808	0.332271
	H1199	H	0.287836	0.285183	0.321119
	H1200	H	0.258199	0.124836	0.249850
	H1201	H	0.254825	0.374774	0.320247
	H1202	H	0.168611	0.376022	0.298253
	H1203	H	0.344859	0.123908	0.268273
	H1204	H	0.225367	0.215117	0.249066
	H1205	H	0.204430	0.215180	0.237869
	H1206	H	0.200743	0.285476	0.309353
	H1207	H	0.222569	0.285028	0.309795
	H1208	H	0.204394	0.535125	0.237599
	H1209	H	0.225380	0.535189	0.248847
	H1210	H	0.222477	-0.035055	0.309482
	H1211	H	0.200659	-0.034660	0.308996
	H1212	H	0.287687	-0.034654	0.321439
	H1213	H	0.308658	-0.034959	0.332599
	H1214	H	0.290605	0.534870	0.260814
	H1215	H	0.312445	0.534484	0.260499
	Al1216	Al	0.249985	-0.499969	0.416959
	Al1217	Al	0.250000	-0.250200	0.416864
	Al1218	Al	0.166650	-0.249800	0.333540
	Al1219	Al	0.166645	-0.499901	0.333604
	O1220	O	0.262079	-0.459073	0.440284
	O1221	O	0.250731	-0.374913	0.399837
	O1222	O	0.249220	-0.124991	0.433993
	O1223	O	0.321195	-0.460110	0.476969
	O1224	O	0.236082	-0.459606	0.437827
	O1225	O	0.173925	-0.459257	0.444151
	O1226	O	0.236092	-0.291369	0.437933
	O1227	O	0.237927	-0.209189	0.393646
	O1228	O	0.178762	-0.208805	0.356594
	O1229	O	0.262170	-0.290913	0.439957
	O1230	O	0.263840	-0.208844	0.395826
	O1231	O	0.326002	-0.209737	0.389428
	O1232	O	0.173956	-0.290876	0.444150
	O1233	O	0.237923	-0.040966	0.393672
	O1234	O	0.178794	-0.040685	0.356673
	O1235	O	0.325994	-0.041415	0.389542
	O1236	O	0.263910	-0.040458	0.395948
	O1237	O	0.321293	-0.292024	0.476852
	O1238	O	0.160856	-0.124773	0.448212
	O1239	O	0.339234	-0.375165	0.385353
	C1240	C	0.297657	-0.285417	0.461617
	C1241	C	0.303730	-0.375454	0.465001
	C1242	C	0.297553	-0.465083	0.461847
	C1243	C	0.285687	-0.465035	0.455637
	C1244	C	0.279620	-0.375070	0.452171
	C1245	C	0.285784	-0.285249	0.455373
	C1246	C	0.267053	-0.375179	0.443636
	C1247	C	0.316307	-0.375782	0.473460
	C1248	C	0.230825	-0.375589	0.438909
	C1249	C	0.217492	-0.375678	0.441071
	C1250	C	0.211195	-0.285742	0.441269
	C1251	C	0.198846	-0.285491	0.441221
	C1252	C	0.192528	-0.375364	0.440999
	C1253	C	0.198811	-0.465417	0.440837
	C1254	C	0.211153	-0.465557	0.440890
	C1255	C	0.179204	-0.375194	0.443140
	C1256	C	0.232987	-0.125118	0.390251
	C1257	C	0.220404	-0.125006	0.381586
	C1258	C	0.214319	-0.035190	0.378220
	C1259	C	0.202450	-0.035161	0.371976
	C1260	C	0.196283	-0.125009	0.368850
	C1261	C	0.202382	-0.214803	0.372114
	C1262	C	0.214242	-0.214815	0.378378
	C1263	C	0.183687	-0.124891	0.360154
	C1264	C	0.269137	-0.124820	0.394834
	C1265	C	0.282453	-0.125415	0.392649
	C1266	C	0.288769	-0.215532	0.392350
	C1267	C	0.301090	-0.215543	0.392459
	C1268	C	0.307434	-0.125433	0.392705
	C1269	C	0.301109	-0.035298	0.393030
	C1270	C	0.288800	-0.035253	0.392959
	C1271	C	0.320754	-0.125520	0.390491
	H1272	H	0.305838	-0.285810	0.392406
	H1273	H	0.283959	-0.285270	0.392230
	H1274	H	0.302287	-0.215343	0.463925
	H1275	H	0.281241	-0.215041	0.452981
	H1276	H	0.251795	-0.375003	0.381710
	H1277	H	0.248202	-0.125193	0.452095
	H1278	H	0.161984	-0.125387	0.430084
	H1279	H	0.338068	-0.375369	0.403533
	H1280	H	0.218805	-0.285337	0.380690
	H1281	H	0.197802	-0.284899	0.369591
	H1282	H	0.194135	-0.215504	0.441317
	H1283	H	0.215954	-0.215679	0.441495
	H1284	H	0.197935	0.035224	0.369365
	H1285	H	0.218921	0.035072	0.380405
	H1286	H	0.215867	-0.535794	0.440808
	H1287	H	0.194048	-0.535387	0.440676
	H1288	H	0.281062	-0.534910	0.453471
	H1289	H	0.302101	-0.535356	0.464307
	H1290	H	0.284075	0.035143	0.393190
	H1291	H	0.305921	0.034571	0.393405
	Al1292	Al	0.249994	-0.000209	0.417007
	Al1293	Al	0.250024	0.250231	0.416988
	Al1294	Al	0.166655	0.250115	0.333420
	Al1295	Al	0.166684	0.000251	0.333418
	O1296	O	0.262087	0.040962	0.440344
	O1297	O	0.250729	0.125129	0.400027
	O1298	O	0.249254	0.374791	0.433996
	O1299	O	0.321244	0.040586	0.476890
	O1300	O	0.236099	0.040810	0.438008
	O1301	O	0.173918	0.041125	0.444038
	O1302	O	0.236136	0.209152	0.438215
	O1303	O	0.237917	0.290574	0.393670
	O1304	O	0.178739	0.291052	0.356658
	O1305	O	0.262123	0.209024	0.440201
	O1306	O	0.263847	0.291422	0.395829
	O1307	O	0.326006	0.290184	0.389463
	O1308	O	0.173904	0.209191	0.444086
	O1309	O	0.237970	0.458604	0.393464
	O1310	O	0.178737	0.459399	0.356864
	O1311	O	0.326079	0.458693	0.389717
	O1312	O	0.263909	0.459541	0.396096
	O1313	O	0.321319	0.208677	0.476720
	O1314	O	0.160877	0.375239	0.448156
	O1315	O	0.339204	0.124792	0.385493
	C1316	C	0.297684	0.214793	0.461417
	C1317	C	0.303780	0.124893	0.464692
	C1318	C	0.297621	0.035112	0.461574
	C1319	C	0.285753	0.035229	0.455442
	C1320	C	0.279651	0.125090	0.452115
	C1321	C	0.285814	0.214748	0.455257
	C1322	C	0.267049	0.124885	0.443614
	C1323	C	0.316348	0.124701	0.473321
	C1324	C	0.230862	0.125086	0.439003
	C1325	C	0.217521	0.125162	0.440989
	C1326	C	0.211187	0.215086	0.441154
	C1327	C	0.198861	0.215053	0.441029
	C1328	C	0.192519	0.125180	0.440820
	C1329	C	0.198861	0.035269	0.440777
	C1330	C	0.211178	0.035263	0.440957
	C1331	C	0.179184	0.125178	0.442974
	C1332	C	0.233014	0.374644	0.390057
	C1333	C	0.220409	0.374651	0.381449
	C1334	C	0.214305	0.464618	0.378174
	C1335	C	0.202418	0.464692	0.372010
	C1336	C	0.196271	0.374916	0.368820
	C1337	C	0.202351	0.284976	0.372137
	C1338	C	0.214245	0.284884	0.378284
	C1339	C	0.183664	0.375120	0.360353
	C1340	C	0.269124	0.375433	0.394878
	C1341	C	0.282483	0.375147	0.392675
	C1342	C	0.288783	0.284950	0.392424
	C1343	C	0.301104	0.284810	0.392472
	C1344	C	0.307464	0.374749	0.392659
	C1345	C	0.301167	0.464996	0.392970
	C1346	C	0.288838	0.465097	0.392934
	C1347	C	0.320802	0.374540	0.390488
	H1348	H	0.305874	0.214707	0.392518
	H1349	H	0.284015	0.214609	0.392266
	H1350	H	0.302263	0.285150	0.463730
	H1351	H	0.281232	0.284877	0.452820
	H1352	H	0.251734	0.124597	0.381795
	H1353	H	0.248456	0.374686	0.452244
	H1354	H	0.162029	0.375216	0.429970
	H1355	H	0.338127	0.125319	0.403701
	H1356	H	0.218797	0.214900	0.380690
	H1357	H	0.197739	0.214751	0.369890
	H1358	H	0.194101	0.285128	0.441078
	H1359	H	0.215950	0.284881	0.441403
	H1360	H	0.197866	0.534709	0.369595
	H1361	H	0.218879	0.534686	0.380424
	H1362	H	0.215961	-0.034523	0.441031
	H1363	H	0.194093	-0.034698	0.440641
	H1364	H	0.281176	-0.035065	0.453131
	H1365	H	0.302183	-0.035010	0.464066
	H1366	H	0.284083	0.535052	0.393172
	H1367	H	0.305901	0.535227	0.393419
	Al1368	Al	0.243437	-0.500238	0.548303
	Al1369	Al	0.243468	-0.249931	0.548322
	Al1370	Al	0.160099	-0.249751	0.465330
	Al1371	Al	0.160070	-0.499860	0.465265
	O1372	O	0.255584	-0.458823	0.571406
	O1373	O	0.244214	-0.375142	0.531314
	O1374	O	0.242747	-0.125000	0.565368
	O1375	O	0.314657	-0.459025	0.608666
	O1376	O	0.229549	-0.459178	0.569332
	O1377	O	0.167405	-0.458391	0.576834
	O1378	O	0.229611	-0.290849	0.569578
	O1379	O	0.231300	-0.208912	0.525333
	O1380	O	0.172157	-0.208969	0.488439
	O1381	O	0.255591	-0.290537	0.571459
	O1382	O	0.257306	-0.209120	0.527173
	O1383	O	0.319459	-0.209610	0.520985
	O1384	O	0.167477	-0.289959	0.577087
	O1385	O	0.231324	-0.040777	0.525237
	O1386	O	0.172214	-0.040718	0.488329
	O1387	O	0.319504	-0.041434	0.521304
	O1388	O	0.257289	-0.040802	0.527224
	O1389	O	0.314630	-0.290713	0.608686
	O1390	O	0.154410	-0.124386	0.583449
	O1391	O	0.332583	-0.375774	0.517148
	C1392	C	0.291063	-0.284904	0.593366
	C1393	C	0.297130	-0.374872	0.596685
	C1394	C	0.291019	-0.464726	0.593324
	C1395	C	0.279142	-0.464594	0.587009
	C1396	C	0.273065	-0.374707	0.583725
	C1397	C	0.279196	-0.284889	0.587010
	C1398	C	0.260503	-0.374743	0.575038
	C1399	C	0.309713	-0.374934	0.605331
	C1400	C	0.224334	-0.374871	0.570598
	C1401	C	0.211020	-0.374949	0.573223
	C1402	C	0.204710	-0.284935	0.573437
	C1403	C	0.192365	-0.284872	0.573636
	C1404	C	0.186020	-0.374605	0.573681
	C1405	C	0.192329	-0.464668	0.573653
	C1406	C	0.204675	-0.464748	0.573441
	C1407	C	0.172704	-0.374419	0.575968
	C1408	C	0.226386	-0.124888	0.521782
	C1409	C	0.213771	-0.124795	0.513279
	C1410	C	0.207694	-0.035104	0.509875
	C1411	C	0.195804	-0.034976	0.503688
	C1412	C	0.189698	-0.124722	0.500541
	C1413	C	0.195803	-0.214450	0.503818
	C1414	C	0.207670	-0.214551	0.510006
	C1415	C	0.177101	-0.124881	0.491842
	C1416	C	0.262564	-0.124899	0.526180
	C1417	C	0.275891	-0.124752	0.524086
	C1418	C	0.282212	-0.214841	0.524185
	C1419	C	0.294532	-0.214802	0.524355
	C1420	C	0.300879	-0.124907	0.524249
	C1421	C	0.294557	-0.034775	0.524303
	C1422	C	0.282242	-0.034795	0.524147
	C1423	C	0.314206	-0.125385	0.522139
	H1424	H	0.299281	-0.285043	0.524462
	H1425	H	0.277437	-0.284869	0.524137
	H1426	H	0.295623	-0.214701	0.595605
	H1427	H	0.274665	-0.214512	0.584428
	H1428	H	0.245360	-0.374951	0.513054
	H1429	H	0.241881	-0.125256	0.583600
	H1430	H	0.154929	-0.123953	0.565236
	H1431	H	0.331637	-0.375449	0.535394
	H1432	H	0.212215	-0.285006	0.512489
	H1433	H	0.191210	-0.284269	0.501640
	H1434	H	0.187635	-0.214730	0.573593
	H1435	H	0.209483	-0.214865	0.573237
	H1436	H	0.191261	0.035129	0.501383
	H1437	H	0.212243	0.034787	0.512277
	H1438	H	0.209434	-0.534840	0.573296
	H1439	H	0.187567	-0.534634	0.573656
	H1440	H	0.274601	-0.534977	0.584462
	H1441	H	0.295572	-0.534948	0.595531
	H1442	H	0.277496	0.035290	0.523990
	H1443	H	0.299317	0.035090	0.524429
	Al1444	Al	0.243441	-0.000344	0.548433
	Al1445	Al	0.243431	0.249621	0.548457
	Al1446	Al	0.160073	0.250194	0.465229
	Al1447	Al	0.160065	0.000351	0.465256
	O1448	O	0.255625	0.040605	0.571590
	O1449	O	0.244228	0.124777	0.531448
	O1450	O	0.242767	0.374866	0.565421
	O1451	O	0.314635	0.040874	0.608676
	O1452	O	0.229581	0.040660	0.569553
	O1453	O	0.167375	0.041771	0.576903
	O1454	O	0.229595	0.208625	0.569617
	O1455	O	0.231352	0.290649	0.525281
	O1456	O	0.172281	0.290928	0.488241
	O1457	O	0.255577	0.208841	0.571673
	O1458	O	0.257287	0.290558	0.527182
	O1459	O	0.319436	0.290065	0.521188
	O1460	O	0.167477	0.210141	0.577022
	O1461	O	0.231389	0.458766	0.525135
	O1462	O	0.172243	0.459193	0.488411
	O1463	O	0.319439	0.458154	0.521271
	O1464	O	0.257320	0.459018	0.527204
	O1465	O	0.314661	0.208957	0.608725
	O1466	O	0.154410	0.375298	0.583383
	O1467	O	0.332577	0.124706	0.517274
	C1468	C	0.291007	0.215352	0.593563
	C1469	C	0.297141	0.125416	0.596728
	C1470	C	0.291041	0.035540	0.593458
	C1471	C	0.279172	0.035352	0.587123
	C1472	C	0.273064	0.125169	0.583757
	C1473	C	0.279150	0.215142	0.587188
	C1474	C	0.260520	0.124818	0.575040
	C1475	C	0.309685	0.124990	0.605307
	C1476	C	0.224338	0.124667	0.570782
	C1477	C	0.210998	0.124811	0.573188
	C1478	C	0.204702	0.214752	0.573492
	C1479	C	0.192392	0.214931	0.573642
	C1480	C	0.186019	0.125422	0.573576
	C1481	C	0.192321	0.035538	0.573549
	C1482	C	0.204639	0.035129	0.573402
	C1483	C	0.172681	0.125647	0.575816
	C1484	C	0.226421	0.374613	0.521760
	C1485	C	0.213835	0.374550	0.513272
	C1486	C	0.207732	0.464509	0.509935
	C1487	C	0.195886	0.464503	0.503652
	C1488	C	0.189760	0.374836	0.500434
	C1489	C	0.195829	0.284951	0.503942
	C1490	C	0.207684	0.284940	0.510203
	C1491	C	0.177203	0.375108	0.491738
	C1492	C	0.262540	0.374737	0.526239
	C1493	C	0.275860	0.374560	0.524230
	C1494	C	0.282145	0.284279	0.524058
	C1495	C	0.294475	0.284100	0.524160
	C1496	C	0.300833	0.374151	0.524337
	C1497	C	0.294536	0.464416	0.524657
	C1498	C	0.282195	0.464704	0.524547
	C1499	C	0.314184	0.374011	0.522184
	H1500	H	0.299207	0.213698	0.524102
	H1501	H	0.277357	0.214378	0.523899
	H1502	H	0.295599	0.285840	0.595953
	H1503	H	0.274606	0.285206	0.584740
	H1504	H	0.245399	0.125105	0.513243
	H1505	H	0.241978	0.374800	0.583672
	H1506	H	0.155270	0.375476	0.565200
	H1507	H	0.331444	0.123964	0.535409
	H1508	H	0.212215	0.214828	0.512892
	H1509	H	0.191177	0.215025	0.501806
	H1510	H	0.187691	0.285067	0.573673
	H1511	H	0.209501	0.284546	0.573503
	H1512	H	0.191312	0.534465	0.501235
	H1513	H	0.212294	0.534460	0.512378
	H1514	H	0.209374	-0.034727	0.573374
	H1515	H	0.187518	-0.034469	0.573542
	H1516	H	0.274614	-0.034875	0.584628
	H1517	H	0.295605	-0.034611	0.595831
	H1518	H	0.277452	0.534827	0.524824
	H1519	H	0.299325	0.534545	0.525015
	Al1520	Al	0.237470	-0.499447	0.683548
	Al1521	Al	0.237478	-0.249880	0.683517
	Al1522	Al	0.154200	-0.248900	0.600284
	Al1523	Al	0.154132	-0.499952	0.600214
	O1524	O	0.250169	-0.458899	0.705091
	O1525	O	0.237780	-0.374373	0.666692
	O1526	O	0.237641	-0.124624	0.700419
	O1527	O	0.308257	-0.458618	0.745580
	O1528	O	0.225396	-0.458790	0.709568
	O1529	O	0.177639	-0.459126	0.804637
	O1530	O	0.225480	-0.291029	0.709721
	O1531	O	0.224893	-0.209360	0.662331
	O1532	O	0.166858	-0.208975	0.621921
	O1533	O	0.250076	-0.290438	0.705393
	O1534	O	0.250764	-0.208644	0.660228
	O1535	O	0.312909	-0.209031	0.653141
	O1536	O	0.177675	-0.291208	0.804633
	O1537	O	0.224867	-0.040818	0.662647
	O1538	O	0.166811	-0.040490	0.621919
	O1539	O	0.312919	-0.040833	0.652912
	O1540	O	0.250789	-0.040087	0.660110
	O1541	O	0.308271	-0.290059	0.745398
	O1542	O	0.165779	-0.125433	0.816799
	O1543	O	0.326087	-0.375079	0.648864
	C1544	C	0.284997	-0.284803	0.729645
	C1545	C	0.290948	-0.374592	0.733250
	C1546	C	0.284944	-0.464374	0.729527
	C1547	C	0.273275	-0.464620	0.722101
	C1548	C	0.267343	-0.374673	0.718277
	C1549	C	0.273337	-0.285006	0.722253
	C1550	C	0.254937	-0.374627	0.708984
	C1551	C	0.303381	-0.374404	0.742109
	C1552	C	0.221313	-0.374720	0.717349
	C1553	C	0.210983	-0.374938	0.737550
	C1554	C	0.206115	-0.286118	0.747194
	C1555	C	0.196607	-0.285976	0.766102
	C1556	C	0.191739	-0.374955	0.775792
	C1557	C	0.196564	-0.463709	0.765987
	C1558	C	0.206060	-0.463802	0.747092
	C1559	C	0.181630	-0.375183	0.796601
	C1560	C	0.219992	-0.125045	0.659120
	C1561	C	0.207585	-0.124642	0.650132
	C1562	C	0.201614	-0.034768	0.646488
	C1563	C	0.189972	-0.034695	0.638983
	C1564	C	0.184013	-0.124494	0.635038
	C1565	C	0.189957	-0.214252	0.638988
	C1566	C	0.201590	-0.214334	0.646512
	C1567	C	0.171653	-0.124429	0.625591
	C1568	C	0.256044	-0.124419	0.659057
	C1569	C	0.269380	-0.124815	0.656967
	C1570	C	0.275670	-0.214752	0.656842
	C1571	C	0.287996	-0.215093	0.656723
	C1572	C	0.294329	-0.125300	0.656561
	C1573	C	0.288053	-0.035264	0.656902
	C1574	C	0.275731	-0.035146	0.657001
	C1575	C	0.307665	-0.125031	0.654255
	H1576	H	0.292746	-0.284757	0.656651
	H1577	H	0.270903	-0.284770	0.656625
	H1578	H	0.289525	-0.215285	0.732611
	H1579	H	0.268796	-0.215353	0.719465
	H1580	H	0.238648	-0.374169	0.648423
	H1581	H	0.238079	-0.124523	0.718675
	H1582	H	0.165035	-0.125078	0.798769
	H1583	H	0.325343	-0.375117	0.667014
	H1584	H	0.206103	-0.283883	0.649493
	H1585	H	0.185443	-0.283676	0.635978
	H1586	H	0.192975	-0.216892	0.773496
	H1587	H	0.209799	-0.217121	0.739809
	H1588	H	0.185506	0.034701	0.635987
	H1589	H	0.206150	0.034707	0.649512
	H1590	H	0.209703	-0.532922	0.739694
	H1591	H	0.192860	-0.532751	0.773272
	H1592	H	0.268739	-0.534226	0.719196
	H1593	H	0.289459	-0.533916	0.732490
	H1594	H	0.270966	0.034792	0.656998
	H1595	H	0.292814	0.034602	0.656935
	Al1596	Al	0.237536	0.000763	0.683540
	Al1597	Al	0.237520	0.249946	0.683452
	Al1598	Al	0.154192	0.250845	0.600256
	Al1599	Al	0.154134	0.000013	0.600201
	O1600	O	0.250148	0.041069	0.705066
	O1601	O	0.237696	0.125265	0.666609
	O1602	O	0.237677	0.375215	0.700418
	O1603	O	0.308251	0.041786	0.745569
	O1604	O	0.225474	0.041663	0.709727
	O1605	O	0.177638	0.040691	0.804518
	O1606	O	0.225468	0.209472	0.709598
	O1607	O	0.224904	0.291015	0.662317
	O1608	O	0.166733	0.291233	0.622040
	O1609	O	0.250128	0.209383	0.705393
	O1610	O	0.250773	0.291296	0.660120
	O1611	O	0.312917	0.290512	0.652991
	O1612	O	0.177627	0.208685	0.804524
	O1613	O	0.224938	0.459466	0.662263
	O1614	O	0.166786	0.459431	0.621893
	O1615	O	0.312966	0.458900	0.653050
	O1616	O	0.250793	0.459519	0.660162
	O1617	O	0.308226	0.209998	0.745742
	O1618	O	0.165792	0.374629	0.816864
	O1619	O	0.326066	0.124813	0.648843
	C1620	C	0.284932	0.214814	0.729531
	C1621	C	0.290941	0.125476	0.733299
	C1622	C	0.284999	0.035696	0.729545
	C1623	C	0.273325	0.035592	0.722222
	C1624	C	0.267322	0.125084	0.718377
	C1625	C	0.273260	0.214898	0.722160
	C1626	C	0.254981	0.125191	0.709002
	C1627	C	0.303359	0.125756	0.742154
	C1628	C	0.221362	0.125460	0.717402
	C1629	C	0.211027	0.125517	0.737556
	C1630	C	0.206156	0.214416	0.747293
	C1631	C	0.196640	0.214052	0.766146
	C1632	C	0.191733	0.125140	0.775753
	C1633	C	0.196588	0.036337	0.765937
	C1634	C	0.206096	0.036475	0.747052
	C1635	C	0.181621	0.124730	0.796510
	C1636	C	0.220037	0.375151	0.658937
	C1637	C	0.207599	0.375361	0.650115
	C1638	C	0.201618	0.465025	0.646604
	C1639	C	0.189949	0.464920	0.639171
	C1640	C	0.183983	0.375079	0.635186
	C1641	C	0.189905	0.285522	0.639131
	C1642	C	0.201577	0.285725	0.646535
	C1643	C	0.171617	0.375419	0.625715
	C1644	C	0.256027	0.375427	0.659113
	C1645	C	0.269367	0.375457	0.656816
	C1646	C	0.275671	0.285548	0.656766
	C1647	C	0.288004	0.285303	0.656647
	C1648	C	0.294358	0.375104	0.656635
	C1649	C	0.288037	0.464949	0.656893
	C1650	C	0.275710	0.465287	0.656957
	C1651	C	0.307670	0.374849	0.654116
	H1652	H	0.292715	0.215019	0.656491
	H1653	H	0.270837	0.215957	0.656695
	H1654	H	0.289490	0.284550	0.732324
	H1655	H	0.268749	0.284491	0.719192
	H1656	H	0.238271	0.125499	0.648419
	H1657	H	0.238263	0.374905	0.718504
	H1658	H	0.164916	0.375004	0.798824
	H1659	H	0.324995	0.124953	0.666949
	H1660	H	0.206095	0.216076	0.649469
	H1661	H	0.185401	0.215898	0.636249
	H1662	H	0.192993	0.283119	0.773654
	H1663	H	0.209892	0.283556	0.740076
	H1664	H	0.185400	0.534419	0.636356
	H1665	H	0.206169	0.534735	0.649523
	H1666	H	0.209773	-0.032431	0.739724
	H1667	H	0.192878	-0.032720	0.773291
	H1668	H	0.268842	-0.034001	0.719299
	H1669	H	0.289553	-0.033869	0.732287
	H1670	H	0.270995	0.535502	0.657054
	H1671	H	0.292830	0.534866	0.656881
	Al1672	Al	0.250008	-0.500175	0.916356
	Al1673	Al	0.250019	-0.250153	0.916443
	Al1674	Al	0.166635	-0.250363	0.833243
	Al1675	Al	0.166606	-0.500498	0.833210
	O1676	O	0.263303	-0.459289	0.935050
	O1677	O	0.249141	-0.375021	0.899898
	O1678	O	0.250938	-0.125161	0.932812
	O1679	O	0.320038	-0.459589	0.980837
	O1680	O	0.238958	-0.459204	0.944902
	O1681	O	0.191303	-0.459258	1.040316
	O1682	O	0.239054	-0.291151	0.944963
	O1683	O	0.236709	-0.209476	0.897801
	O1684	O	0.179955	-0.209290	0.851933
	O1685	O	0.263368	-0.291024	0.934933
	O1686	O	0.261035	-0.209363	0.887809
	O1687	O	0.308731	-0.208924	0.792659
	O1688	O	0.191285	-0.291087	1.040163
	O1689	O	0.236764	-0.040978	0.897756
	O1690	O	0.179957	-0.040771	0.851929
	O1691	O	0.308755	-0.040988	0.792673
	O1692	O	0.261040	-0.041103	0.887747
	O1693	O	0.320049	-0.290892	0.980828
	O1694	O	0.178992	-0.125847	1.049351
	O1695	O	0.320957	-0.374442	0.783449
	C1696	C	0.297388	-0.286163	0.962498
	C1697	C	0.303149	-0.375450	0.967070
	C1698	C	0.297368	-0.464828	0.962630
	C1699	C	0.285982	-0.464678	0.953572
	C1700	C	0.280231	-0.375365	0.948948
	C1701	C	0.286013	-0.286111	0.953465
	C1702	C	0.268085	-0.375272	0.938803
	C1703	C	0.315276	-0.375212	0.977106
	C1704	C	0.235037	-0.374974	0.952912
	C1705	C	0.224886	-0.374901	0.973787
	C1706	C	0.220071	-0.285933	0.983563
	C1707	C	0.210601	-0.286296	1.002563
	C1708	C	0.205715	-0.375355	1.012213
	C1709	C	0.210580	-0.464327	1.002515
	C1710	C	0.220034	-0.463985	0.983511
	C1711	C	0.195375	-0.375374	1.032476
	C1712	C	0.231973	-0.125087	0.893953
	C1713	C	0.219812	-0.124802	0.883911
	C1714	C	0.214056	-0.035338	0.879333
	C1715	C	0.202679	-0.035420	0.870260
	C1716	C	0.196888	-0.124867	0.865768
	C1717	C	0.202624	-0.214307	0.870513
	C1718	C	0.214000	-0.214235	0.879571
	C1719	C	0.184718	-0.125025	0.855662
	C1720	C	0.265023	-0.125358	0.879859
	C1721	C	0.275139	-0.125292	0.859079
	C1722	C	0.280039	-0.214268	0.849484
	C1723	C	0.289542	-0.214131	0.830512
	C1724	C	0.294361	-0.125010	0.820795
	C1725	C	0.289445	-0.036001	0.830319
	C1726	C	0.279952	-0.036134	0.849264
	C1727	C	0.304641	-0.125046	0.800458
	H1728	H	0.293221	-0.282714	0.823169
	H1729	H	0.276466	-0.283213	0.857087
	H1730	H	0.301820	-0.217631	0.966131
	H1731	H	0.281601	-0.217328	0.949768
	H1732	H	0.248202	-0.375243	0.881954
	H1733	H	0.251912	-0.124753	0.950788
	H1734	H	0.178465	-0.125738	1.031222
	H1735	H	0.321298	-0.374521	0.801613
	H1736	H	0.218372	-0.283178	0.883311
	H1737	H	0.198175	-0.283303	0.867014
	H1738	H	0.206922	-0.217537	1.009914
	H1739	H	0.223756	-0.216859	0.976221
	H1740	H	0.198254	0.033578	0.866602
	H1741	H	0.218531	0.033450	0.882810
	H1742	H	0.223710	-0.532770	0.976124
	H1743	H	0.206881	-0.533408	1.009814
	H1744	H	0.281537	-0.533369	0.950024
	H1745	H	0.301745	-0.533685	0.966431
	H1746	H	0.276299	0.032675	0.856640
	H1747	H	0.293053	0.033108	0.822770
	Al1748	Al	0.250104	0.000058	0.916346
	Al1749	Al	0.249977	0.250102	0.916272
	Al1750	Al	0.166639	0.249761	0.833232
	Al1751	Al	0.166666	-0.000414	0.833157
	O1752	O	0.263399	0.041127	0.934946
	O1753	O	0.249143	0.124996	0.899877
	O1754	O	0.250880	0.374671	0.932737
	O1755	O	0.319996	0.041206	0.981168
	O1756	O	0.239041	0.040760	0.944963
	O1757	O	0.191285	0.040789	1.040144
	O1758	O	0.239030	0.209079	0.944984
	O1759	O	0.236618	0.290665	0.897676
	O1760	O	0.179879	0.290628	0.852124
	O1761	O	0.263303	0.209432	0.934939
	O1762	O	0.260972	0.290898	0.887670
	O1763	O	0.308827	0.291710	0.792908
	O1764	O	0.191329	0.208903	1.040159
	O1765	O	0.236702	0.459126	0.897594
	O1766	O	0.179849	0.458886	0.852089
	O1767	O	0.308830	0.459543	0.792812
	O1768	O	0.260975	0.458896	0.887669
	O1769	O	0.320016	0.209560	0.981054
	O1770	O	0.178988	0.374715	1.049498
	O1771	O	0.320957	0.125038	0.783613
	C1772	C	0.297358	0.214795	0.962517
	C1773	C	0.303147	0.125660	0.967010
	C1774	C	0.297363	0.036573	0.962669
	C1775	C	0.285999	0.036595	0.953590
	C1776	C	0.280235	0.125663	0.948890
	C1777	C	0.285992	0.214753	0.953460
	C1778	C	0.268112	0.125300	0.938725
	C1779	C	0.315261	0.125341	0.977256
	C1780	C	0.235032	0.124873	0.952937
	C1781	C	0.224921	0.124845	0.973713
	C1782	C	0.220137	0.213886	0.983485
	C1783	C	0.210644	0.213859	1.002467
	C1784	C	0.205713	0.124949	1.012039
	C1785	C	0.210589	0.035977	1.002527
	C1786	C	0.220084	0.036006	0.983539
	C1787	C	0.195375	0.124795	1.032328
	C1788	C	0.231907	0.375000	0.893831
	C1789	C	0.219758	0.375330	0.883774
	C1790	C	0.213985	0.464771	0.879157
	C1791	C	0.202596	0.464533	0.870264
	C1792	C	0.196790	0.375071	0.865928
	C1793	C	0.202571	0.285518	0.870509
	C1794	C	0.213953	0.285729	0.879442
	C1795	C	0.184625	0.374857	0.855916
	C1796	C	0.264972	0.374972	0.879699
	C1797	C	0.275099	0.375320	0.858949
	C1798	C	0.280024	0.286511	0.849376
	C1799	C	0.289515	0.286788	0.830527
	C1800	C	0.294373	0.375749	0.820766
	C1801	C	0.289452	0.464612	0.830358
	C1802	C	0.279943	0.464317	0.849213
	C1803	C	0.304716	0.375834	0.800566
	H1804	H	0.293242	0.218084	0.823267
	H1805	H	0.276429	0.217763	0.856925
	H1806	H	0.301777	0.283650	0.966190
	H1807	H	0.281569	0.283623	0.949812
	H1808	H	0.248292	0.124606	0.881896
	H1809	H	0.251643	0.374958	0.950793
	H1810	H	0.178438	0.374854	1.031304
	H1811	H	0.321346	0.124889	0.801847
	H1812	H	0.218386	0.216908	0.883149
	H1813	H	0.198106	0.216337	0.867032
	H1814	H	0.207051	0.282846	1.009885
	H1815	H	0.223833	0.283058	0.976214
	H1816	H	0.198157	0.533589	0.866590
	H1817	H	0.218425	0.533722	0.882637
	H1818	H	0.223713	-0.033086	0.976190
	H1819	H	0.206930	-0.032772	1.009978
	H1820	H	0.281560	-0.032166	0.950116
	H1821	H	0.301746	-0.032148	0.966455
	H1822	H	0.276232	0.532994	0.856632
	H1823	H	0.293124	0.533640	0.822994
	Al1824	Al	0.416619	-0.500023	0.083217
	Al1825	Al	0.416587	-0.250269	0.083294
	Al1826	Al	0.333288	-0.249651	-0.000256
	Al1827	Al	0.333323	-0.499941	-0.000298
	O1828	O	0.429935	-0.459178	0.101982
	O1829	O	0.415763	-0.375045	0.066851
	O1830	O	0.417535	-0.125215	0.099696
	O1831	O	0.486700	-0.458651	0.147839
	O1832	O	0.405603	-0.459437	0.111920
	O1833	O	0.357857	-0.459487	0.207054
	O1834	O	0.405595	-0.291158	0.111814
	O1835	O	0.403269	-0.209115	0.064603
	O1836	O	0.346572	-0.209344	0.018448
	O1837	O	0.429952	-0.290817	0.101958
	O1838	O	0.427649	-0.208750	0.054712
	O1839	O	0.475413	-0.208494	-0.040277
	O1840	O	0.357825	-0.291493	0.206945
	O1841	O	0.403261	-0.040797	0.064628
	O1842	O	0.346546	-0.040855	0.018432
	O1843	O	0.475445	-0.040572	-0.040398
	O1844	O	0.427627	-0.040439	0.054843
	O1845	O	0.486723	-0.290340	0.147815
	O1846	O	0.345640	-0.125645	0.216153
	O1847	O	0.487563	-0.374826	-0.049531
	C1848	C	0.464043	-0.284941	0.129361
	C1849	C	0.469793	-0.374425	0.133923
	C1850	C	0.463966	-0.463807	0.129497
	C1851	C	0.452590	-0.464042	0.120502
	C1852	C	0.446839	-0.374600	0.115943
	C1853	C	0.452665	-0.285103	0.120394
	C1854	C	0.434700	-0.375018	0.105760
	C1855	C	0.481953	-0.374574	0.143993
	C1856	C	0.401587	-0.375187	0.119840
	C1857	C	0.391491	-0.375208	0.140682
	C1858	C	0.386692	-0.286358	0.150533
	C1859	C	0.377221	-0.286485	0.169525
	C1860	C	0.372302	-0.375445	0.179007
	C1861	C	0.377178	-0.464253	0.169327
	C1862	C	0.386653	-0.464067	0.150348
	C1863	C	0.361943	-0.375660	0.199227
	C1864	C	0.398522	-0.124934	0.060741
	C1865	C	0.386403	-0.125070	0.050507
	C1866	C	0.380690	-0.035721	0.045634
	C1867	C	0.369314	-0.035560	0.036622
	C1868	C	0.363451	-0.124881	0.032494
	C1869	C	0.369179	-0.214179	0.037254
	C1870	C	0.380570	-0.214337	0.046272
	C1871	C	0.351317	-0.125104	0.022250
	C1872	C	0.431600	-0.124671	0.046733
	C1873	C	0.441776	-0.124302	0.026047
	C1874	C	0.446663	-0.213262	0.016407
	C1875	C	0.456121	-0.213143	-0.002572
	C1876	C	0.460992	-0.124069	-0.012373
	C1877	C	0.456096	-0.035032	-0.002798
	C1878	C	0.446637	-0.035226	0.016178
	C1879	C	0.471306	-0.124434	-0.032638
	H1880	H	0.459766	-0.282079	-0.009991
	H1881	H	0.442993	-0.282417	0.023792
	H1882	H	0.468514	-0.216192	0.132847
	H1883	H	0.448261	-0.216215	0.116694
	H1884	H	0.414769	-0.375369	0.048876
	H1885	H	0.418468	-0.125088	0.117623
	H1886	H	0.345317	-0.125859	0.197843
	H1887	H	0.487942	-0.374676	-0.031303
	H1888	H	0.384990	-0.283022	0.050047
	H1889	H	0.364698	-0.282979	0.033794
	H1890	H	0.373576	-0.217349	0.176889
	H1891	H	0.390354	-0.217443	0.143116
	H1892	H	0.364954	0.033363	0.032717
	H1893	H	0.385166	0.033160	0.048957
	H1894	H	0.390295	-0.533027	0.142884
	H1895	H	0.373502	-0.533214	0.176653
	H1896	H	0.448140	-0.532820	0.116832
	H1897	H	0.468394	-0.532614	0.133078
	H1898	H	0.442938	0.033756	0.023502
	H1899	H	0.459733	0.034219	-0.010323
	Al1900	Al	0.416557	-0.000106	0.083300
	Al1901	Al	0.416610	0.249820	0.083291
	Al1902	Al	0.333323	0.250247	-0.000236
	Al1903	Al	0.333264	0.000080	-0.000179
	O1904	O	0.429913	0.040606	0.102004
	O1905	O	0.415706	0.125007	0.066874
	O1906	O	0.417481	0.374869	0.099666
	O1907	O	0.486749	0.041009	0.147710
	O1908	O	0.405577	0.040637	0.111920
	O1909	O	0.357823	0.040195	0.207107
	O1910	O	0.405589	0.209147	0.111967
	O1911	O	0.403261	0.290749	0.064632
	O1912	O	0.346628	0.291066	0.018411
	O1913	O	0.429950	0.209065	0.101957
	O1914	O	0.427638	0.290867	0.054753
	O1915	O	0.475403	0.291173	-0.040364
	O1916	O	0.357868	0.208272	0.207171
	O1917	O	0.403307	0.459305	0.064488
	O1918	O	0.346630	0.459448	0.018387
	O1919	O	0.475427	0.459107	-0.040297
	O1920	O	0.427659	0.459041	0.054764
	O1921	O	0.486660	0.209242	0.147804
	O1922	O	0.345689	0.374333	0.216319
	O1923	O	0.487638	0.125565	-0.049624
	C1924	C	0.464004	0.213987	0.129495
	C1925	C	0.469797	0.124666	0.133869
	C1926	C	0.464015	0.035464	0.129372
	C1927	C	0.452627	0.035663	0.120460
	C1928	C	0.446828	0.124804	0.115993
	C1929	C	0.452609	0.214013	0.120498
	C1930	C	0.434678	0.124936	0.105837
	C1931	C	0.481939	0.125034	0.144004
	C1932	C	0.401615	0.124507	0.120027
	C1933	C	0.391521	0.124478	0.140869
	C1934	C	0.386654	0.213308	0.150542
	C1935	C	0.377170	0.213353	0.169459
	C1936	C	0.372304	0.124405	0.179182
	C1937	C	0.377191	0.035405	0.169516
	C1938	C	0.386671	0.035257	0.150591
	C1939	C	0.361966	0.124268	0.199459
	C1940	C	0.398525	0.374905	0.060817
	C1941	C	0.386408	0.374810	0.050685
	C1942	C	0.380712	0.464338	0.045890
	C1943	C	0.369353	0.464665	0.036761
	C1944	C	0.363518	0.375280	0.032461
	C1945	C	0.369219	0.285902	0.037379
	C1946	C	0.380568	0.285520	0.046476
	C1947	C	0.351381	0.375411	0.022270
	C1948	C	0.431652	0.375058	0.046822
	C1949	C	0.441763	0.375222	0.026050
	C1950	C	0.446620	0.285956	0.016383
	C1951	C	0.456107	0.285860	-0.002530
	C1952	C	0.460986	0.375028	-0.012274
	C1953	C	0.456066	0.464220	-0.002772
	C1954	C	0.446575	0.464381	0.016142
	C1955	C	0.471337	0.374943	-0.032447
	H1956	H	0.459820	0.216932	-0.009707
	H1957	H	0.442983	0.216893	0.023910
	H1958	H	0.468420	0.282747	0.133210
	H1959	H	0.448133	0.282770	0.117037
	H1960	H	0.415033	0.124965	0.048797
	H1961	H	0.418596	0.375162	0.117549
	H1962	H	0.345230	0.374387	0.198093
	H1963	H	0.488074	0.125331	-0.031363
	H1964	H	0.384906	0.216676	0.050470
	H1965	H	0.364733	0.217139	0.034104
	H1966	H	0.373499	0.282445	0.176907
	H1967	H	0.390304	0.282383	0.143075
	H1968	H	0.364944	0.533858	0.032919
	H1969	H	0.385191	0.533594	0.049375
	H1970	H	0.390326	-0.033744	0.143157
	H1971	H	0.373606	-0.033391	0.177110
	H1972	H	0.448228	-0.033323	0.116839
	H1973	H	0.468444	-0.033368	0.132954
	H1974	H	0.442906	0.533601	0.023468
	H1975	H	0.459745	0.533353	-0.010185
	Al1976	Al	0.429166	-0.500708	0.316555
	Al1977	Al	0.429193	-0.249856	0.316447
	Al1978	Al	0.345833	-0.251000	0.233027
	Al1979	Al	0.345814	-0.500414	0.233227
	O1980	O	0.441764	-0.459542	0.337614
	O1981	O	0.429060	-0.375430	0.299660
	O1982	O	0.428937	-0.125614	0.333243
	O1983	O	0.499838	-0.459784	0.378201
	O1984	O	0.415849	-0.460010	0.339776
	O1985	O	0.353692	-0.458950	0.346965
	O1986	O	0.415896	-0.291523	0.339947
	O1987	O	0.416523	-0.209859	0.294851
	O1988	O	0.358428	-0.209345	0.254039
	O1989	O	0.441801	-0.291416	0.337472
	O1990	O	0.441236	-0.209575	0.290269
	O1991	O	0.489031	-0.209045	0.195043
	O1992	O	0.353723	-0.290719	0.347148
	O1993	O	0.416535	-0.041366	0.294643
	O1994	O	0.358420	-0.041025	0.254069
	O1995	O	0.488983	-0.040900	0.195093
	O1996	O	0.441290	-0.041591	0.290365
	O1997	O	0.499962	-0.291375	0.377769
	O1998	O	0.340517	-0.125276	0.351311
	O1999	O	0.500940	-0.374926	0.183015
	C2000	C	0.476778	-0.285625	0.360814
	C2001	C	0.482742	-0.375273	0.364790
	C2002	C	0.476726	-0.465005	0.361201
	C2003	C	0.465069	-0.465163	0.353720
	C2004	C	0.459120	-0.375449	0.349748
	C2005	C	0.465112	-0.285680	0.353351
	C2006	C	0.446697	-0.375604	0.340906
	C2007	C	0.495051	-0.375462	0.374324
	C2008	C	0.410606	-0.375699	0.340996
	C2009	C	0.397286	-0.375653	0.343228
	C2010	C	0.390982	-0.285765	0.343349
	C2011	C	0.378669	-0.285516	0.343481
	C2012	C	0.372298	-0.375233	0.343593
	C2013	C	0.378582	-0.465181	0.343390
	C2014	C	0.390914	-0.465431	0.343244
	C2015	C	0.358966	-0.374805	0.345907
	C2016	C	0.411691	-0.125528	0.290988
	C2017	C	0.399321	-0.125546	0.281564
	C2018	C	0.393402	-0.035803	0.277499
	C2019	C	0.381736	-0.035653	0.270045
	C2020	C	0.375709	-0.125344	0.266550
	C2021	C	0.381645	-0.215210	0.270356
	C2022	C	0.393299	-0.215155	0.277821
	C2023	C	0.363300	-0.125217	0.257529
	C2024	C	0.445366	-0.125544	0.282577
	C2025	C	0.455712	-0.125493	0.262360
	C2026	C	0.460547	-0.214484	0.252532
	C2027	C	0.470002	-0.214463	0.233548
	C2028	C	0.474907	-0.125390	0.223904
	C2029	C	0.470037	-0.036462	0.233651
	C2030	C	0.460573	-0.036338	0.252644
	C2031	C	0.485030	-0.125259	0.203118
	H2032	H	0.473627	-0.283229	0.226076
	H2033	H	0.456843	-0.283472	0.259834
	H2034	H	0.481292	-0.215863	0.363733
	H2035	H	0.460593	-0.216181	0.350384
	H2036	H	0.428931	-0.375570	0.281367
	H2037	H	0.428289	-0.125579	0.351279
	H2038	H	0.341457	-0.125345	0.333163
	H2039	H	0.501751	-0.375051	0.201034
	H2040	H	0.397761	-0.284818	0.280845
	H2041	H	0.377094	-0.284807	0.267572
	H2042	H	0.373950	-0.215463	0.343519
	H2043	H	0.395767	-0.215944	0.343288
	H2044	H	0.377216	0.033902	0.267005
	H2045	H	0.397954	0.033544	0.280257
	H2046	H	0.395642	-0.535501	0.343046
	H2047	H	0.373774	-0.534810	0.343281
	H2048	H	0.460498	-0.534707	0.351162
	H2049	H	0.481193	-0.534869	0.364445
	H2050	H	0.456888	0.032789	0.260021
	H2051	H	0.473692	0.032595	0.226193
	Al2052	Al	0.429183	-0.000731	0.316375
	Al2053	Al	0.429207	0.249947	0.316356
	Al2054	Al	0.345833	0.248918	0.233232
	Al2055	Al	0.345772	-0.000201	0.233122
	O2056	O	0.441722	0.040770	0.337480
	O2057	O	0.429064	0.124524	0.299402
	O2058	O	0.428954	0.374345	0.333245
	O2059	O	0.499800	0.040494	0.378335
	O2060	O	0.415846	0.040091	0.339478
	O2061	O	0.353720	0.041029	0.347262
	O2062	O	0.415959	0.208489	0.339733
	O2063	O	0.416539	0.290392	0.294703
	O2064	O	0.358424	0.289986	0.254347
	O2065	O	0.441800	0.209087	0.337549
	O2066	O	0.441288	0.290859	0.290356
	O2067	O	0.488991	0.291496	0.195088
	O2068	O	0.353790	0.209192	0.347314
	O2069	O	0.416550	0.458700	0.294669
	O2070	O	0.358445	0.458410	0.254226
	O2071	O	0.488983	0.459833	0.195067
	O2072	O	0.441212	0.458889	0.290331
	O2073	O	0.499912	0.209110	0.377866
	O2074	O	0.340612	0.375214	0.351274
	O2075	O	0.500860	0.125312	0.182953
	C2076	C	0.476768	0.214493	0.360783
	C2077	C	0.482673	0.124745	0.364839
	C2078	C	0.476694	0.035045	0.361138
	C2079	C	0.465031	0.035071	0.353677
	C2080	C	0.459073	0.124748	0.349898
	C2081	C	0.465090	0.214485	0.353342
	C2082	C	0.446636	0.124696	0.340883
	C2083	C	0.495013	0.124938	0.374440
	C2084	C	0.410648	0.124460	0.340618
	C2085	C	0.397326	0.124725	0.343011
	C2086	C	0.391028	0.214756	0.343151
	C2087	C	0.378698	0.214975	0.343468
	C2088	C	0.372326	0.125239	0.343578
	C2089	C	0.378632	0.035320	0.343408
	C2090	C	0.390949	0.035100	0.343135
	C2091	C	0.359016	0.124969	0.346159
	C2092	C	0.411716	0.374434	0.290985
	C2093	C	0.399331	0.374644	0.281608
	C2094	C	0.393400	0.464462	0.277652
	C2095	C	0.381737	0.464344	0.270229
	C2096	C	0.375728	0.374474	0.266659
	C2097	C	0.381677	0.284803	0.270406
	C2098	C	0.393352	0.284933	0.277820
	C2099	C	0.363314	0.374391	0.257725
	C2100	C	0.445349	0.375066	0.282546
	C2101	C	0.455712	0.375187	0.262311
	C2102	C	0.460629	0.286272	0.252730
	C2103	C	0.470091	0.286246	0.233717
	C2104	C	0.474878	0.375343	0.223877
	C2105	C	0.470018	0.464306	0.233582
	C2106	C	0.460542	0.464278	0.252566
	C2107	C	0.484997	0.375676	0.203142
	H2108	H	0.473767	0.217221	0.226437
	H2109	H	0.456990	0.216989	0.260200
	H2110	H	0.481318	0.284047	0.363537
	H2111	H	0.460584	0.283801	0.350117
	H2112	H	0.428608	0.124546	0.281300
	H2113	H	0.428147	0.374257	0.351385
	H2114	H	0.341579	0.375083	0.333049
	H2115	H	0.501886	0.125305	0.200860
	H2116	H	0.397849	0.215255	0.280894
	H2117	H	0.377157	0.215334	0.267489
	H2118	H	0.373914	0.284919	0.343630
	H2119	H	0.395825	0.284516	0.343081
	H2120	H	0.377258	0.533771	0.267093
	H2121	H	0.397894	0.534276	0.280559
	H2122	H	0.395698	-0.035159	0.343098
	H2123	H	0.373877	-0.034389	0.343592
	H2124	H	0.460489	-0.034546	0.350885
	H2125	H	0.481150	-0.034567	0.364249
	H2126	H	0.456848	0.533179	0.259968
	H2127	H	0.473682	0.533353	0.226190
	Al2128	Al	0.423229	-0.500008	0.451646
	Al2129	Al	0.423262	-0.250493	0.451703
	Al2130	Al	0.339872	-0.250197	0.368223
	Al2131	Al	0.339879	-0.499923	0.368333
	O2132	O	0.435327	-0.459484	0.474850
	O2133	O	0.423850	-0.375218	0.434672
	O2134	O	0.422515	-0.125242	0.468642
	O2135	O	0.494497	-0.459303	0.511592
	O2136	O	0.409368	-0.459356	0.472834
	O2137	O	0.347147	-0.459277	0.478961
	O2138	O	0.409345	-0.291201	0.472855
	O2139	O	0.411060	-0.209494	0.428519
	O2140	O	0.352001	-0.209461	0.391438
	O2141	O	0.435355	-0.291274	0.474758
	O2142	O	0.437019	-0.209432	0.430303
	O2143	O	0.499191	-0.209983	0.422814
	O2144	O	0.347208	-0.290980	0.479002
	O2145	O	0.411087	-0.041510	0.428487
	O2146	O	0.351980	-0.041351	0.391699
	O2147	O	0.499249	-0.041733	0.422972
	O2148	O	0.437079	-0.041103	0.430340
	O2149	O	0.494440	-0.291146	0.511840
	O2150	O	0.334180	-0.125522	0.483011
	O2151	O	0.512277	-0.375328	0.416456
	C2152	C	0.470829	-0.285692	0.496353
	C2153	C	0.476922	-0.375401	0.499662
	C2154	C	0.470815	-0.465205	0.496440
	C2155	C	0.458954	-0.465097	0.490274
	C2156	C	0.452879	-0.375395	0.486848
	C2157	C	0.458967	-0.285732	0.490147
	C2158	C	0.440262	-0.375321	0.478288
	C2159	C	0.489522	-0.375329	0.508246
	C2160	C	0.404096	-0.375414	0.473898
	C2161	C	0.390764	-0.375796	0.475932
	C2162	C	0.384469	-0.285702	0.475857
	C2163	C	0.372136	-0.285378	0.475792
	C2164	C	0.365776	-0.375265	0.475946
	C2165	C	0.372097	-0.465284	0.475944
	C2166	C	0.384421	-0.465753	0.476016
	C2167	C	0.352437	-0.375128	0.477980
	C2168	C	0.406180	-0.125511	0.424938
	C2169	C	0.393575	-0.125291	0.416371
	C2170	C	0.387476	-0.035385	0.413147
	C2171	C	0.375618	-0.035454	0.406878
	C2172	C	0.369511	-0.125315	0.403483
	C2173	C	0.375629	-0.215117	0.406686
	C2174	C	0.387487	-0.215146	0.412950
	C2175	C	0.356935	-0.125470	0.394973
	C2176	C	0.442298	-0.125410	0.429301
	C2177	C	0.455631	-0.125427	0.426841
	C2178	C	0.461945	-0.215351	0.426718
	C2179	C	0.474279	-0.215321	0.426509
	C2180	C	0.480643	-0.125526	0.426437
	C2181	C	0.474339	-0.035537	0.426618
	C2182	C	0.462008	-0.035639	0.426775
	C2183	C	0.493972	-0.125826	0.424034
	H2184	H	0.479008	-0.285454	0.426402
	H2185	H	0.457167	-0.285203	0.426741
	H2186	H	0.475392	-0.215659	0.498735
	H2187	H	0.454393	-0.215605	0.487817
	H2188	H	0.424559	-0.375298	0.416411
	H2189	H	0.421328	-0.125124	0.486803
	H2190	H	0.335405	-0.125310	0.464801
	H2191	H	0.511483	-0.375513	0.434548
	H2192	H	0.392050	-0.285299	0.415425
	H2193	H	0.371077	-0.285346	0.404347
	H2194	H	0.367395	-0.215296	0.475555
	H2195	H	0.389278	-0.215922	0.475719
	H2196	H	0.370982	0.034503	0.404714
	H2197	H	0.392054	0.034782	0.415748
	H2198	H	0.389153	-0.535851	0.476024
	H2199	H	0.367321	-0.535193	0.475694
	H2200	H	0.454353	-0.535248	0.488015
	H2201	H	0.475356	-0.535360	0.498830
	H2202	H	0.457280	0.034526	0.426819
	H2203	H	0.479148	0.034438	0.426527
	Al2204	Al	0.423193	-0.000593	0.451519
	Al2205	Al	0.423290	0.249465	0.451567
	Al2206	Al	0.339914	0.250068	0.368443
	Al2207	Al	0.339888	-0.000297	0.368401
	O2208	O	0.435366	0.040478	0.474561
	O2209	O	0.423981	0.124976	0.434543
	O2210	O	0.422489	0.374516	0.468583
	O2211	O	0.494428	0.040830	0.511899
	O2212	O	0.409350	0.040517	0.472730
	O2213	O	0.347255	0.040834	0.479044
	O2214	O	0.409421	0.208647	0.472866
	O2215	O	0.411136	0.290668	0.428285
	O2216	O	0.351983	0.291109	0.391600
	O2217	O	0.435412	0.208847	0.474630
	O2218	O	0.437077	0.290870	0.430341
	O2219	O	0.499225	0.289858	0.422841
	O2220	O	0.347266	0.209063	0.479082
	O2221	O	0.411074	0.458838	0.428529
	O2222	O	0.352008	0.459230	0.391458
	O2223	O	0.499266	0.458274	0.422745
	O2224	O	0.437069	0.459105	0.430462
	O2225	O	0.494417	0.208774	0.511844
	O2226	O	0.334116	0.374535	0.483097
	O2227	O	0.512363	0.124606	0.416519
	C2228	C	0.470861	0.214460	0.496320
	C2229	C	0.476959	0.124620	0.499607
	C2230	C	0.470858	0.034818	0.496371
	C2231	C	0.458984	0.034951	0.490014
	C2232	C	0.452882	0.124787	0.486675
	C2233	C	0.458987	0.214576	0.490002
	C2234	C	0.440321	0.124587	0.477997
	C2235	C	0.489502	0.124642	0.508421
	C2236	C	0.404124	0.124801	0.473761
	C2237	C	0.390800	0.124684	0.475947
	C2238	C	0.384474	0.214708	0.476016
	C2239	C	0.372158	0.214715	0.475979
	C2240	C	0.365819	0.124772	0.475861
	C2241	C	0.372119	0.034784	0.475921
	C2242	C	0.384441	0.034804	0.475956
	C2243	C	0.352492	0.125017	0.478113
	C2244	C	0.406192	0.374737	0.424851
	C2245	C	0.393613	0.374750	0.416245
	C2246	C	0.387528	0.464535	0.412927
	C2247	C	0.375658	0.464794	0.406697
	C2248	C	0.369548	0.375070	0.403415
	C2249	C	0.375624	0.285279	0.406808
	C2250	C	0.387493	0.285041	0.413055
	C2251	C	0.356939	0.375142	0.394920
	C2252	C	0.442345	0.375024	0.429284
	C2253	C	0.455665	0.374976	0.426824
	C2254	C	0.461964	0.284942	0.426519
	C2255	C	0.474286	0.284793	0.426351
	C2256	C	0.480661	0.374492	0.426311
	C2257	C	0.474366	0.464494	0.426512
	C2258	C	0.462036	0.464642	0.426675
	C2259	C	0.493991	0.374080	0.423986
	H2260	H	0.479040	0.214857	0.426228
	H2261	H	0.457201	0.215004	0.426360
	H2262	H	0.475427	0.284572	0.498581
	H2263	H	0.454473	0.284745	0.487439
	H2264	H	0.424993	0.124737	0.416324
	H2265	H	0.421194	0.374319	0.486743
	H2266	H	0.335201	0.374588	0.464945
	H2267	H	0.511668	0.124745	0.434728
	H2268	H	0.392018	0.214901	0.415574
	H2269	H	0.371034	0.215302	0.404563
	H2270	H	0.367403	0.284844	0.476060
	H2271	H	0.389239	0.284792	0.476048
	H2272	H	0.371105	0.534972	0.404389
	H2273	H	0.392114	0.534625	0.415326
	H2274	H	0.389194	-0.035303	0.475990
	H2275	H	0.367340	-0.035106	0.475989
	H2276	H	0.454444	-0.034980	0.487470
	H2277	H	0.475413	-0.035456	0.498771
	H2278	H	0.457277	0.534713	0.426663
	H2279	H	0.479127	0.534657	0.426471
	Al2280	Al	0.416645	-0.500424	0.583608
	Al2281	Al	0.416703	-0.250287	0.583592
	Al2282	Al	0.333340	-0.250496	0.500089
	Al2283	Al	0.333320	-0.500809	0.500199
	O2284	O	0.428809	-0.459371	0.606738
	O2285	O	0.417468	-0.375366	0.566577
	O2286	O	0.415942	-0.125119	0.600564
	O2287	O	0.487915	-0.459317	0.643646
	O2288	O	0.402771	-0.459361	0.604542
	O2289	O	0.340630	-0.459012	0.610738
	O2290	O	0.402816	-0.291059	0.604629
	O2291	O	0.404593	-0.209214	0.560235
	O2292	O	0.345467	-0.209484	0.523305
	O2293	O	0.428777	-0.291468	0.606805
	O2294	O	0.430566	-0.209474	0.562523
	O2295	O	0.492680	-0.209490	0.555880
	O2296	O	0.340604	-0.290879	0.610741
	O2297	O	0.404617	-0.041216	0.560138
	O2298	O	0.345448	-0.041220	0.523331
	O2299	O	0.492700	-0.041088	0.555976
	O2300	O	0.430560	-0.041272	0.562508
	O2301	O	0.487946	-0.291360	0.643638
	O2302	O	0.327446	-0.125436	0.614835
	O2303	O	0.505827	-0.375514	0.551932
	C2304	C	0.464308	-0.285151	0.628287
	C2305	C	0.470430	-0.375021	0.631528
	C2306	C	0.464289	-0.464933	0.628270
	C2307	C	0.452413	-0.465135	0.622113
	C2308	C	0.446295	-0.375223	0.618791
	C2309	C	0.452420	-0.285258	0.622135
	C2310	C	0.433689	-0.375438	0.610340
	C2311	C	0.483006	-0.375263	0.640149
	C2312	C	0.397549	-0.375119	0.605626
	C2313	C	0.384200	-0.375122	0.607603
	C2314	C	0.377901	-0.285115	0.607596
	C2315	C	0.365568	-0.284912	0.607545
	C2316	C	0.359208	-0.374856	0.607634
	C2317	C	0.365524	-0.464927	0.607465
	C2318	C	0.377857	-0.465060	0.607543
	C2319	C	0.345863	-0.374878	0.609674
	C2320	C	0.399669	-0.125285	0.556724
	C2321	C	0.387078	-0.125203	0.548203
	C2322	C	0.380963	-0.035343	0.545013
	C2323	C	0.369080	-0.035493	0.538812
	C2324	C	0.362951	-0.125346	0.535499
	C2325	C	0.369068	-0.215147	0.538843
	C2326	C	0.380955	-0.215185	0.545040
	C2327	C	0.350386	-0.125308	0.526803
	C2328	C	0.435812	-0.125409	0.561544
	C2329	C	0.449144	-0.125048	0.559423
	C2330	C	0.455457	-0.215261	0.559305
	C2331	C	0.467783	-0.215321	0.559264
	C2332	C	0.474124	-0.125303	0.559307
	C2333	C	0.467813	-0.035303	0.559382
	C2334	C	0.455485	-0.035103	0.559391
	C2335	C	0.487461	-0.125299	0.556947
	H2336	H	0.472547	-0.285447	0.559358
	H2337	H	0.450703	-0.285172	0.559445
	H2338	H	0.468910	-0.214940	0.630468
	H2339	H	0.447853	-0.215346	0.619673
	H2340	H	0.418748	-0.374742	0.548295
	H2341	H	0.414888	-0.125262	0.618695
	H2342	H	0.328283	-0.125416	0.596559
	H2343	H	0.504882	-0.375426	0.570105
	H2344	H	0.385549	-0.285365	0.547590
	H2345	H	0.364465	-0.285376	0.536644
	H2346	H	0.360834	-0.214613	0.607338
	H2347	H	0.382687	-0.215202	0.607611
	H2348	H	0.364444	0.034647	0.536647
	H2349	H	0.385498	0.034892	0.547589
	H2350	H	0.382575	-0.535335	0.607488
	H2351	H	0.360760	-0.534817	0.607219
	H2352	H	0.447843	-0.535354	0.619691
	H2353	H	0.468906	-0.535233	0.630456
	H2354	H	0.450755	0.035085	0.559510
	H2355	H	0.472602	0.034727	0.559539
	Al2356	Al	0.416693	-0.000209	0.583534
	Al2357	Al	0.416655	0.249874	0.583644
	Al2358	Al	0.333372	0.249617	0.500140
	Al2359	Al	0.333340	-0.000231	0.500153
	O2360	O	0.428787	0.040790	0.606690
	O2361	O	0.417464	0.124729	0.566616
	O2362	O	0.415942	0.374641	0.600662
	O2363	O	0.487938	0.040904	0.643703
	O2364	O	0.402769	0.040266	0.604590
	O2365	O	0.340609	0.040870	0.610610
	O2366	O	0.402838	0.208406	0.604777
	O2367	O	0.404572	0.290391	0.560457
	O2368	O	0.345492	0.290597	0.523420
	O2369	O	0.428786	0.208730	0.606849
	O2370	O	0.430514	0.290489	0.562423
	O2371	O	0.492689	0.290196	0.555959
	O2372	O	0.340664	0.209078	0.610612
	O2373	O	0.404599	0.458528	0.560449
	O2374	O	0.345525	0.458809	0.523327
	O2375	O	0.492733	0.458879	0.556017
	O2376	O	0.430592	0.458934	0.562722
	O2377	O	0.487925	0.208972	0.643667
	O2378	O	0.327566	0.375123	0.614628
	O2379	O	0.505791	0.125149	0.552060
	C2380	C	0.464284	0.214350	0.628317
	C2381	C	0.470428	0.124689	0.631530
	C2382	C	0.464309	0.034774	0.628353
	C2383	C	0.452431	0.034728	0.622107
	C2384	C	0.446321	0.124484	0.618709
	C2385	C	0.452409	0.214412	0.622102
	C2386	C	0.433719	0.124758	0.610188
	C2387	C	0.482982	0.124896	0.640213
	C2388	C	0.397532	0.124389	0.605679
	C2389	C	0.384205	0.124629	0.607756
	C2390	C	0.377903	0.214596	0.607846
	C2391	C	0.365554	0.214769	0.607725
	C2392	C	0.359218	0.124894	0.607506
	C2393	C	0.365540	0.034914	0.607384
	C2394	C	0.377878	0.034706	0.607535
	C2395	C	0.345892	0.124901	0.609722
	C2396	C	0.399670	0.374570	0.556851
	C2397	C	0.387102	0.374693	0.548319
	C2398	C	0.380966	0.464576	0.545058
	C2399	C	0.369100	0.464697	0.538768
	C2400	C	0.362995	0.374705	0.535427
	C2401	C	0.369095	0.284804	0.538736
	C2402	C	0.380965	0.284740	0.545070
	C2403	C	0.350423	0.374560	0.526766
	C2404	C	0.435799	0.374584	0.561601
	C2405	C	0.449135	0.374364	0.559453
	C2406	C	0.455451	0.284376	0.559275
	C2407	C	0.467771	0.284338	0.559288
	C2408	C	0.474125	0.374487	0.559311
	C2409	C	0.467813	0.464594	0.559429
	C2410	C	0.455485	0.464609	0.559425
	C2411	C	0.487459	0.374621	0.557071
	H2412	H	0.472513	0.214134	0.559251
	H2413	H	0.450679	0.214488	0.559204
	H2414	H	0.468879	0.284671	0.630656
	H2415	H	0.447868	0.284541	0.619661
	H2416	H	0.418761	0.124844	0.548594
	H2417	H	0.414815	0.374068	0.618778
	H2418	H	0.328726	0.375149	0.596348
	H2419	H	0.504498	0.124958	0.570187
	H2420	H	0.385468	0.214469	0.547663
	H2421	H	0.364478	0.214891	0.536480
	H2422	H	0.360842	0.285109	0.607773
	H2423	H	0.382636	0.284920	0.607986
	H2424	H	0.364556	0.534886	0.536442
	H2425	H	0.385526	0.534469	0.547643
	H2426	H	0.382620	-0.035491	0.607462
	H2427	H	0.360783	-0.035386	0.607177
	H2428	H	0.447855	-0.035444	0.619699
	H2429	H	0.468884	-0.035401	0.630649
	H2430	H	0.450692	0.534514	0.559400
	H2431	H	0.472605	0.534739	0.559493
	Al2432	Al	0.410147	-0.500002	0.715110
	Al2433	Al	0.410103	-0.250224	0.715048
	Al2434	Al	0.326752	-0.249966	0.631897
	Al2435	Al	0.326781	-0.500241	0.631838
	O2436	O	0.422247	-0.459074	0.738356
	O2437	O	0.410902	-0.375102	0.698005
	O2438	O	0.409431	-0.125170	0.732177
	O2439	O	0.481350	-0.458858	0.775183
	O2440	O	0.396275	-0.459086	0.736168
	O2441	O	0.334087	-0.458239	0.743174
	O2442	O	0.396282	-0.290770	0.736236
	O2443	O	0.398027	-0.208785	0.691884
	O2444	O	0.338908	-0.209078	0.655036
	O2445	O	0.422322	-0.291050	0.737921
	O2446	O	0.423939	-0.208869	0.693827
	O2447	O	0.486146	-0.209390	0.688152
	O2448	O	0.334178	-0.289774	0.743606
	O2449	O	0.397990	-0.040678	0.692029
	O2450	O	0.338949	-0.040899	0.654950
	O2451	O	0.486157	-0.041260	0.688176
	O2452	O	0.423952	-0.040613	0.693883
	O2453	O	0.481299	-0.290858	0.775466
	O2454	O	0.321126	-0.124486	0.749878
	O2455	O	0.499228	-0.374976	0.683961
	C2456	C	0.457742	-0.285037	0.759821
	C2457	C	0.463843	-0.374830	0.763181
	C2458	C	0.457707	-0.464522	0.760016
	C2459	C	0.445848	-0.464608	0.753712
	C2460	C	0.439761	-0.374897	0.750268
	C2461	C	0.445885	-0.285130	0.753553
	C2462	C	0.427185	-0.374951	0.741737
	C2463	C	0.476427	-0.374939	0.771771
	C2464	C	0.391011	-0.374967	0.737349
	C2465	C	0.377675	-0.375140	0.739739
	C2466	C	0.371379	-0.284949	0.740079
	C2467	C	0.359064	-0.284573	0.740262
	C2468	C	0.352708	-0.374509	0.740184
	C2469	C	0.359009	-0.464711	0.739920
	C2470	C	0.371326	-0.465063	0.739805
	C2471	C	0.339368	-0.374124	0.742265
	C2472	C	0.393059	-0.124793	0.688599
	C2473	C	0.380510	-0.124893	0.679961
	C2474	C	0.374404	-0.035089	0.676588
	C2475	C	0.362561	-0.034944	0.670327
	C2476	C	0.356421	-0.124933	0.667218
	C2477	C	0.362545	-0.214695	0.670535
	C2478	C	0.374401	-0.214850	0.676742
	C2479	C	0.343865	-0.125076	0.658474
	C2480	C	0.429213	-0.124752	0.692857
	C2481	C	0.442530	-0.124784	0.690757
	C2482	C	0.448862	-0.214670	0.690814
	C2483	C	0.461174	-0.214770	0.690963
	C2484	C	0.467546	-0.125048	0.691012
	C2485	C	0.461209	-0.035092	0.690917
	C2486	C	0.448892	-0.035012	0.690811
	C2487	C	0.480873	-0.125297	0.689028
	H2488	H	0.465924	-0.284912	0.691231
	H2489	H	0.444084	-0.284831	0.690916
	H2490	H	0.462303	-0.214894	0.762144
	H2491	H	0.441270	-0.215057	0.751164
	H2492	H	0.412104	-0.374864	0.679783
	H2493	H	0.408489	-0.125612	0.750281
	H2494	H	0.322007	-0.124727	0.731729
	H2495	H	0.498014	-0.374996	0.702137
	H2496	H	0.378928	-0.284731	0.679370
	H2497	H	0.357912	-0.284586	0.668305
	H2498	H	0.354319	-0.214379	0.740422
	H2499	H	0.376172	-0.215281	0.740243
	H2500	H	0.357996	0.035095	0.667928
	H2501	H	0.379005	0.034785	0.679040
	H2502	H	0.376068	-0.535015	0.739657
	H2503	H	0.354217	-0.534121	0.739773
	H2504	H	0.441306	-0.534768	0.751394
	H2505	H	0.462293	-0.534259	0.762507
	H2506	H	0.444117	0.034963	0.690876
	H2507	H	0.465999	0.035023	0.691116
	Al2508	Al	0.410108	-0.000215	0.715065
	Al2509	Al	0.410101	0.250030	0.715171
	Al2510	Al	0.326805	0.249972	0.631790
	Al2511	Al	0.326772	-0.000423	0.631743
	O2512	O	0.422227	0.041126	0.738202
	O2513	O	0.410829	0.125003	0.698082
	O2514	O	0.409430	0.374958	0.732151
	O2515	O	0.481333	0.041106	0.775217
	O2516	O	0.396219	0.040382	0.736232
	O2517	O	0.334076	0.041628	0.743099
	O2518	O	0.396292	0.208623	0.736501
	O2519	O	0.398004	0.291094	0.692043
	O2520	O	0.338968	0.290919	0.654815
	O2521	O	0.422280	0.209167	0.738239
	O2522	O	0.423907	0.291287	0.693767
	O2523	O	0.486120	0.290738	0.687778
	O2524	O	0.334173	0.210043	0.743457
	O2525	O	0.398019	0.459154	0.692058
	O2526	O	0.338975	0.459159	0.654855
	O2527	O	0.486159	0.459036	0.688112
	O2528	O	0.424019	0.459548	0.694018
	O2529	O	0.481325	0.208929	0.775212
	O2530	O	0.321088	0.375519	0.749887
	O2531	O	0.499230	0.125244	0.684004
	C2532	C	0.457682	0.214750	0.760074
	C2533	C	0.463814	0.125132	0.763183
	C2534	C	0.457698	0.035328	0.760036
	C2535	C	0.445839	0.035164	0.753688
	C2536	C	0.439734	0.124789	0.750360
	C2537	C	0.445825	0.214478	0.753815
	C2538	C	0.427193	0.124979	0.741733
	C2539	C	0.476386	0.124949	0.771777
	C2540	C	0.390996	0.124534	0.737440
	C2541	C	0.377659	0.124944	0.739849
	C2542	C	0.371368	0.215026	0.740082
	C2543	C	0.359036	0.215229	0.740087
	C2544	C	0.352700	0.125428	0.739969
	C2545	C	0.358981	0.035316	0.740027
	C2546	C	0.371309	0.035211	0.740019
	C2547	C	0.339385	0.125649	0.742198
	C2548	C	0.393086	0.375044	0.688563
	C2549	C	0.380503	0.375096	0.679945
	C2550	C	0.374425	0.464937	0.676487
	C2551	C	0.362544	0.464847	0.670271
	C2552	C	0.356441	0.374968	0.667108
	C2553	C	0.362506	0.285017	0.670484
	C2554	C	0.374362	0.285218	0.676757
	C2555	C	0.343877	0.375077	0.658302
	C2556	C	0.429217	0.375136	0.692976
	C2557	C	0.442574	0.375074	0.690880
	C2558	C	0.448855	0.284989	0.690901
	C2559	C	0.461187	0.285014	0.691024
	C2560	C	0.467541	0.374927	0.691117
	C2561	C	0.461251	0.464836	0.690980
	C2562	C	0.448920	0.464882	0.690823
	C2563	C	0.480899	0.374977	0.688961
	H2564	H	0.465932	0.214856	0.691081
	H2565	H	0.444091	0.215122	0.690883
	H2566	H	0.462274	0.284825	0.762474
	H2567	H	0.441299	0.284767	0.751417
	H2568	H	0.412075	0.125929	0.679854
	H2569	H	0.408578	0.375625	0.750341
	H2570	H	0.321750	0.374967	0.731689
	H2571	H	0.498176	0.125823	0.702117
	H2572	H	0.378894	0.215194	0.679325
	H2573	H	0.357951	0.214774	0.668178
	H2574	H	0.354297	0.285462	0.740128
	H2575	H	0.376131	0.284893	0.740082
	H2576	H	0.358001	0.534907	0.667646
	H2577	H	0.379004	0.535388	0.678698
	H2578	H	0.376049	-0.034810	0.740027
	H2579	H	0.354246	-0.034718	0.740025
	H2580	H	0.441257	-0.034731	0.751120
	H2581	H	0.462208	-0.034799	0.762442
	H2582	H	0.444190	0.535113	0.690709
	H2583	H	0.466017	0.534722	0.690915
	Al2584	Al	0.404181	-0.499040	0.849950
	Al2585	Al	0.404118	-0.249895	0.850002
	Al2586	Al	0.320846	-0.248866	0.766613
	Al2587	Al	0.320875	-0.499846	0.766580
	O2588	O	0.416816	-0.458411	0.871598
	O2589	O	0.404371	-0.374401	0.833098
	O2590	O	0.404291	-0.124889	0.866863
	O2591	O	0.474842	-0.458989	0.912519
	O2592	O	0.392070	-0.458329	0.876015
	O2593	O	0.344379	-0.458814	0.971342
	O2594	O	0.392146	-0.290423	0.876379
	O2595	O	0.391541	-0.208756	0.828897
	O2596	O	0.333407	-0.208498	0.788512
	O2597	O	0.416785	-0.289948	0.871688
	O2598	O	0.417371	-0.208472	0.826608
	O2599	O	0.479553	-0.208870	0.819522
	O2600	O	0.344322	-0.290526	0.971314
	O2601	O	0.391567	-0.040547	0.828867
	O2602	O	0.333475	-0.040231	0.788308
	O2603	O	0.479582	-0.040564	0.819510
	O2604	O	0.417446	-0.039901	0.826665
	O2605	O	0.474867	-0.290580	0.912500
	O2606	O	0.332410	-0.124701	0.983352
	O2607	O	0.492851	-0.375107	0.815478
	C2608	C	0.451675	-0.284437	0.896036
	C2609	C	0.457609	-0.374444	0.899881
	C2610	C	0.451590	-0.464241	0.896433
	C2611	C	0.439933	-0.463942	0.888973
	C2612	C	0.434020	-0.374116	0.884795
	C2613	C	0.440008	-0.284224	0.888602
	C2614	C	0.421617	-0.373994	0.875419
	C2615	C	0.470007	-0.374500	0.908963
	C2616	C	0.387999	-0.374361	0.883942
	C2617	C	0.377695	-0.374505	0.904199
	C2618	C	0.372829	-0.285496	0.913831
	C2619	C	0.363348	-0.285473	0.932826
	C2620	C	0.358470	-0.374549	0.942507
	C2621	C	0.363345	-0.463496	0.932863
	C2622	C	0.372828	-0.463433	0.913899
	C2623	C	0.348330	-0.374708	0.963302
	C2624	C	0.386681	-0.124795	0.825446
	C2625	C	0.374278	-0.124694	0.816466
	C2626	C	0.368339	-0.034834	0.812636
	C2627	C	0.356679	-0.034767	0.805223
	C2628	C	0.350654	-0.124552	0.801532
	C2629	C	0.356588	-0.214168	0.805618
	C2630	C	0.368255	-0.214373	0.813001
	C2631	C	0.338288	-0.124289	0.792158
	C2632	C	0.422660	-0.124331	0.825558
	C2633	C	0.435992	-0.124382	0.823403
	C2634	C	0.442302	-0.214430	0.823260
	C2635	C	0.454625	-0.214589	0.823125
	C2636	C	0.460984	-0.124719	0.823067
	C2637	C	0.454668	-0.034748	0.823536
	C2638	C	0.442350	-0.034517	0.823712
	C2639	C	0.474324	-0.124674	0.820607
	H2640	H	0.459380	-0.284775	0.822922
	H2641	H	0.437474	-0.284299	0.823129
	H2642	H	0.456248	-0.215041	0.898965
	H2643	H	0.435552	-0.214334	0.885577
	H2644	H	0.405326	-0.374261	0.814942
	H2645	H	0.404514	-0.125062	0.885049
	H2646	H	0.331472	-0.124794	0.965360
	H2647	H	0.492275	-0.375178	0.833718
	H2648	H	0.372754	-0.283717	0.816112
	H2649	H	0.352015	-0.283982	0.802880
	H2650	H	0.359729	-0.216437	0.940209
	H2651	H	0.376479	-0.216334	0.906385
	H2652	H	0.352173	0.035026	0.802095
	H2653	H	0.372895	0.034557	0.815485
	H2654	H	0.376471	-0.532582	0.906521
	H2655	H	0.359722	-0.532577	0.940300
	H2656	H	0.435330	-0.533590	0.886238
	H2657	H	0.456053	-0.533807	0.899598
	H2658	H	0.437623	0.035391	0.823916
	H2659	H	0.459480	0.035130	0.823729
	Al2660	Al	0.404190	0.001209	0.849891
	Al2661	Al	0.404131	0.250190	0.849974
	Al2662	Al	0.320845	0.250997	0.766809
	Al2663	Al	0.320818	-0.000149	0.766607
	O2664	O	0.416888	0.041524	0.871327
	O2665	O	0.404406	0.125812	0.833059
	O2666	O	0.404291	0.375849	0.866840
	O2667	O	0.474875	0.041339	0.912493
	O2668	O	0.392134	0.041839	0.876153
	O2669	O	0.344338	0.040988	0.971231
	O2670	O	0.392137	0.209788	0.876158
	O2671	O	0.391635	0.290876	0.828783
	O2672	O	0.333515	0.291143	0.788384
	O2673	O	0.416769	0.209545	0.871776
	O2674	O	0.417432	0.291453	0.826768
	O2675	O	0.479556	0.290610	0.819385
	O2676	O	0.344380	0.209010	0.971362
	O2677	O	0.391612	0.459538	0.828746
	O2678	O	0.333520	0.459736	0.788242
	O2679	O	0.479567	0.458964	0.819298
	O2680	O	0.417443	0.459855	0.826754
	O2681	O	0.474929	0.209311	0.912297
	O2682	O	0.332431	0.375056	0.983380
	O2683	O	0.492789	0.124811	0.815391
	C2684	C	0.451641	0.214997	0.896181
	C2685	C	0.457558	0.125267	0.900165
	C2686	C	0.451536	0.035666	0.896570
	C2687	C	0.439895	0.035560	0.889014
	C2688	C	0.433970	0.125404	0.884952
	C2689	C	0.439988	0.214966	0.888644
	C2690	C	0.421645	0.125725	0.875384
	C2691	C	0.470001	0.125277	0.908961
	C2692	C	0.388046	0.125891	0.883947
	C2693	C	0.377708	0.125606	0.904186
	C2694	C	0.372837	0.214458	0.913926
	C2695	C	0.363365	0.214314	0.932847
	C2696	C	0.358500	0.125255	0.942540
	C2697	C	0.363347	0.036430	0.932757
	C2698	C	0.372802	0.036590	0.913801
	C2699	C	0.348358	0.124961	0.963325
	C2700	C	0.386736	0.375202	0.825328
	C2701	C	0.374326	0.375403	0.816367
	C2702	C	0.368365	0.465301	0.812668
	C2703	C	0.356694	0.465428	0.805296
	C2704	C	0.350707	0.375757	0.801511
	C2705	C	0.356609	0.285916	0.805607
	C2706	C	0.368276	0.285849	0.812998
	C2707	C	0.338346	0.375350	0.791925
	C2708	C	0.422695	0.375618	0.825791
	C2709	C	0.436012	0.375636	0.823523
	C2710	C	0.442280	0.285618	0.823299
	C2711	C	0.454617	0.285327	0.823034
	C2712	C	0.460977	0.374990	0.823058
	C2713	C	0.454694	0.464970	0.823445
	C2714	C	0.442350	0.465293	0.823732
	C2715	C	0.474315	0.374796	0.820450
	H2716	H	0.459344	0.215018	0.822776
	H2717	H	0.437505	0.215685	0.823270
	H2718	H	0.456185	0.284461	0.898977
	H2719	H	0.435487	0.284738	0.885515
	H2720	H	0.405321	0.125923	0.814774
	H2721	H	0.404628	0.375882	0.885053
	H2722	H	0.331493	0.374847	0.965374
	H2723	H	0.491961	0.124773	0.833595
	H2724	H	0.372742	0.216255	0.816163
	H2725	H	0.352044	0.216136	0.802814
	H2726	H	0.359737	0.283494	0.940338
	H2727	H	0.376502	0.283415	0.906666
	H2728	H	0.352205	0.535301	0.802231
	H2729	H	0.372911	0.534765	0.815549
	H2730	H	0.376515	-0.032354	0.906394
	H2731	H	0.359686	-0.032603	0.940194
	H2732	H	0.435377	-0.034055	0.886181
	H2733	H	0.456055	-0.033914	0.899639
	H2734	H	0.437620	0.535270	0.824107
	H2735	H	0.459444	0.534911	0.823515
	Al2736	Al	0.570838	-0.498808	0.016713
	Al2737	Al	0.570832	-0.249557	0.016643
	Al2738	Al	0.487466	-0.249187	-0.066445
	Al2739	Al	0.487442	-0.500043	-0.066437
	O2740	O	0.583503	-0.458579	0.038278
	O2741	O	0.571057	-0.374104	-0.000168
	O2742	O	0.570966	-0.124316	0.033586
	O2743	O	0.641598	-0.457984	0.079040
	O2744	O	0.558806	-0.458417	0.042728
	O2745	O	0.510995	-0.458951	0.137930
	O2746	O	0.558717	-0.290472	0.042649
	O2747	O	0.558165	-0.208369	-0.004089
	O2748	O	0.500118	-0.209247	-0.044953
	O2749	O	0.583433	-0.289989	0.038494
	O2750	O	0.584069	-0.207876	-0.006686
	O2751	O	0.646220	-0.208533	-0.013975
	O2752	O	0.511046	-0.290706	0.137894
	O2753	O	0.558128	-0.040070	-0.004163
	O2754	O	0.500067	-0.040731	-0.044767
	O2755	O	0.646255	-0.040542	-0.013864
	O2756	O	0.584153	-0.039733	-0.006554
	O2757	O	0.641540	-0.289823	0.079068
	O2758	O	0.499182	-0.124633	0.150050
	O2759	O	0.659409	-0.374511	-0.017901
	C2760	C	0.618238	-0.284437	0.063044
	C2761	C	0.624240	-0.374208	0.066642
	C2762	C	0.618278	-0.463823	0.062884
	C2763	C	0.606621	-0.463714	0.055406
	C2764	C	0.600635	-0.373942	0.051578
	C2765	C	0.606576	-0.284322	0.055577
	C2766	C	0.588297	-0.374325	0.042119
	C2767	C	0.636687	-0.373940	0.075575
	C2768	C	0.554674	-0.374561	0.050414
	C2769	C	0.544337	-0.374735	0.070663
	C2770	C	0.539424	-0.285790	0.080236
	C2771	C	0.529938	-0.285874	0.099258
	C2772	C	0.525116	-0.375132	0.109097
	C2773	C	0.529973	-0.464199	0.099391
	C2774	C	0.539456	-0.464032	0.080348
	C2775	C	0.515025	-0.374941	0.129944
	C2776	C	0.553237	-0.124305	-0.007468
	C2777	C	0.540835	-0.124487	-0.016421
	C2778	C	0.534887	-0.034648	-0.020385
	C2779	C	0.523248	-0.034864	-0.027904
	C2780	C	0.517250	-0.124631	-0.031527
	C2781	C	0.523215	-0.214409	-0.027474
	C2782	C	0.534858	-0.214308	-0.019974
	C2783	C	0.504917	-0.124947	-0.041096
	C2784	C	0.589369	-0.123865	-0.007598
	C2785	C	0.602692	-0.124143	-0.009789
	C2786	C	0.609001	-0.214073	-0.009783
	C2787	C	0.621314	-0.214509	-0.009902
	C2788	C	0.627679	-0.124558	-0.010150
	C2789	C	0.621364	-0.034618	-0.009866
	C2790	C	0.609053	-0.034333	-0.009748
	C2791	C	0.641001	-0.124514	-0.012683
	H2792	H	0.626055	-0.284339	-0.010017
	H2793	H	0.604198	-0.283976	-0.009843
	H2794	H	0.622745	-0.215020	0.066061
	H2795	H	0.602046	-0.214397	0.052697
	H2796	H	0.571871	-0.374113	-0.018385
	H2797	H	0.571292	-0.124643	0.051797
	H2798	H	0.498492	-0.124340	0.131990
	H2799	H	0.658415	-0.374120	0.000150
	H2800	H	0.539388	-0.283614	-0.016815
	H2801	H	0.518702	-0.283931	-0.030288
	H2802	H	0.526296	-0.216839	0.106614
	H2803	H	0.543079	-0.216460	0.072770
	H2804	H	0.518751	0.034611	-0.030971
	H2805	H	0.539413	0.035015	-0.017578
	H2806	H	0.543127	-0.532991	0.073050
	H2807	H	0.526365	-0.533267	0.106827
	H2808	H	0.602144	-0.533524	0.052362
	H2809	H	0.622819	-0.533399	0.065776
	H2810	H	0.604302	0.035592	-0.009800
	H2811	H	0.626150	0.035279	-0.009934
	Al2812	Al	0.570800	0.000784	0.016791
	Al2813	Al	0.570815	0.250300	0.016744
	Al2814	Al	0.487497	0.250948	-0.066473
	Al2815	Al	0.487478	-0.000062	-0.066531
	O2816	O	0.583440	0.041605	0.038494
	O2817	O	0.571054	0.125728	-0.000064
	O2818	O	0.571006	0.375479	0.033576
	O2819	O	0.641567	0.041107	0.079025
	O2820	O	0.558744	0.041308	0.042853
	O2821	O	0.511007	0.041113	0.138048
	O2822	O	0.558789	0.209461	0.042906
	O2823	O	0.558200	0.291610	-0.004237
	O2824	O	0.500144	0.291067	-0.044818
	O2825	O	0.583470	0.210052	0.038342
	O2826	O	0.584126	0.291716	-0.006767
	O2827	O	0.646296	0.291105	-0.013655
	O2828	O	0.511012	0.209253	0.137944
	O2829	O	0.558220	0.459932	-0.004074
	O2830	O	0.500059	0.459272	-0.044637
	O2831	O	0.646297	0.459443	-0.013727
	O2832	O	0.584196	0.460214	-0.006666
	O2833	O	0.641574	0.209617	0.078767
	O2834	O	0.499040	0.375234	0.150027
	O2835	O	0.659444	0.125837	-0.017783
	C2836	C	0.618298	0.215107	0.062913
	C2837	C	0.624264	0.125361	0.066571
	C2838	C	0.618262	0.035697	0.062995
	C2839	C	0.606587	0.035755	0.055577
	C2840	C	0.600661	0.125527	0.051614
	C2841	C	0.606640	0.215076	0.055466
	C2842	C	0.588285	0.125833	0.042176
	C2843	C	0.636687	0.125248	0.075542
	C2844	C	0.554666	0.125374	0.050606
	C2845	C	0.544329	0.125023	0.070879
	C2846	C	0.539451	0.213845	0.080516
	C2847	C	0.529969	0.213851	0.099456
	C2848	C	0.525116	0.125029	0.109183
	C2849	C	0.529982	0.036192	0.099514
	C2850	C	0.539467	0.036045	0.080563
	C2851	C	0.514988	0.125008	0.129979
	C2852	C	0.553319	0.375791	-0.007648
	C2853	C	0.540918	0.375784	-0.016592
	C2854	C	0.534954	0.465292	-0.020508
	C2855	C	0.523284	0.465133	-0.027909
	C2856	C	0.517294	0.375452	-0.031609
	C2857	C	0.523232	0.285817	-0.027461
	C2858	C	0.534894	0.286062	-0.020017
	C2859	C	0.504926	0.375419	-0.041035
	C2860	C	0.589397	0.375768	-0.007761
	C2861	C	0.602742	0.375337	-0.009947
	C2862	C	0.609056	0.285419	-0.009860
	C2863	C	0.621374	0.285209	-0.009872
	C2864	C	0.627720	0.375244	-0.010153
	C2865	C	0.621408	0.465142	-0.010012
	C2866	C	0.609091	0.465192	-0.010012
	C2867	C	0.641049	0.375310	-0.012536
	H2868	H	0.626123	0.215191	-0.009878
	H2869	H	0.604260	0.215240	-0.009868
	H2870	H	0.622830	0.284691	0.065982
	H2871	H	0.602123	0.284856	0.052612
	H2872	H	0.571848	0.125175	-0.018211
	H2873	H	0.571688	0.375755	0.051696
	H2874	H	0.497964	0.375646	0.132294
	H2875	H	0.658499	0.125449	0.000340
	H2876	H	0.539371	0.216601	-0.016815
	H2877	H	0.518683	0.216222	-0.030183
	H2878	H	0.526328	0.282695	0.106967
	H2879	H	0.543104	0.282808	0.073103
	H2880	H	0.518811	0.534789	-0.031088
	H2881	H	0.539490	0.534551	-0.017724
	H2882	H	0.543105	-0.032919	0.073165
	H2883	H	0.526334	-0.032477	0.106980
	H2884	H	0.602043	-0.033877	0.052796
	H2885	H	0.622753	-0.033878	0.066068
	H2886	H	0.604322	0.535259	-0.010101
	H2887	H	0.626199	0.535153	-0.010118
	Al2888	Al	0.583340	-0.499535	0.249781
	Al2889	Al	0.583341	-0.249695	0.249715
	Al2890	Al	0.500052	-0.249850	0.166509
	Al2891	Al	0.500016	-0.500156	0.166507
	O2892	O	0.596652	-0.458728	0.268414
	O2893	O	0.582384	-0.374459	0.233369
	O2894	O	0.584277	-0.124730	0.266221
	O2895	O	0.653350	-0.458932	0.314598
	O2896	O	0.572322	-0.458635	0.278271
	O2897	O	0.524572	-0.458755	0.373408
	O2898	O	0.572317	-0.290622	0.278400
	O2899	O	0.570025	-0.209008	0.230945
	O2900	O	0.513360	-0.208865	0.185195
	O2901	O	0.596643	-0.290329	0.268460
	O2902	O	0.594340	-0.208585	0.221149
	O2903	O	0.642162	-0.208184	0.126290
	O2904	O	0.524645	-0.290800	0.373582
	O2905	O	0.570087	-0.040677	0.231059
	O2906	O	0.513339	-0.040220	0.185131
	O2907	O	0.642133	-0.040182	0.126148
	O2908	O	0.594365	-0.040273	0.221250
	O2909	O	0.653339	-0.290550	0.314473
	O2910	O	0.512342	-0.125022	0.382772
	O2911	O	0.654421	-0.374046	0.116968
	C2912	C	0.630664	-0.285433	0.296132
	C2913	C	0.636457	-0.374669	0.300488
	C2914	C	0.630710	-0.464007	0.295772
	C2915	C	0.619327	-0.463918	0.286716
	C2916	C	0.613540	-0.374533	0.282433
	C2917	C	0.619300	-0.285352	0.287073
	C2918	C	0.601425	-0.374369	0.272184
	C2919	C	0.648603	-0.374690	0.310677
	C2920	C	0.568342	-0.374627	0.286338
	C2921	C	0.558281	-0.374666	0.307190
	C2922	C	0.553545	-0.285684	0.317217
	C2923	C	0.544060	-0.285793	0.336161
	C2924	C	0.539031	-0.374784	0.345483
	C2925	C	0.543814	-0.463685	0.335587
	C2926	C	0.553310	-0.463596	0.316658
	C2927	C	0.528707	-0.374658	0.365727
	C2928	C	0.565303	-0.124618	0.227306
	C2929	C	0.553101	-0.124452	0.217388
	C2930	C	0.547350	-0.035015	0.212867
	C2931	C	0.535973	-0.034928	0.203815
	C2932	C	0.530197	-0.124290	0.199338
	C2933	C	0.535960	-0.213653	0.203873
	C2934	C	0.547323	-0.213697	0.212890
	C2935	C	0.518065	-0.124373	0.189111
	C2936	C	0.598355	-0.124543	0.213176
	C2937	C	0.608408	-0.124487	0.192333
	C2938	C	0.613274	-0.213327	0.182641
	C2939	C	0.622781	-0.213054	0.163725
	C2940	C	0.627673	-0.123973	0.154078
	C2941	C	0.622798	-0.035168	0.163739
	C2942	C	0.613288	-0.035525	0.182644
	C2943	C	0.638062	-0.124059	0.133984
	H2944	H	0.626511	-0.281910	0.156487
	H2945	H	0.609686	-0.282079	0.190160
	H2946	H	0.635087	-0.216384	0.299765
	H2947	H	0.614894	-0.216313	0.283471
	H2948	H	0.581187	-0.374587	0.215568
	H2949	H	0.585249	-0.125000	0.284186
	H2950	H	0.511906	-0.124264	0.364604
	H2951	H	0.655028	-0.374139	0.135075
	H2952	H	0.551770	-0.282400	0.216475
	H2953	H	0.531551	-0.282651	0.200254
	H2954	H	0.540477	-0.216880	0.343835
	H2955	H	0.557271	-0.216507	0.309975
	H2956	H	0.531528	0.033860	0.200272
	H2957	H	0.551806	0.033630	0.216466
	H2958	H	0.556863	-0.532563	0.308869
	H2959	H	0.540083	-0.532568	0.342777
	H2960	H	0.614960	-0.532551	0.282739
	H2961	H	0.635161	-0.532657	0.299200
	H2962	H	0.609674	0.033377	0.190199
	H2963	H	0.626536	0.034074	0.156540
	Al2964	Al	0.583369	0.000147	0.249751
	Al2965	Al	0.583379	0.250279	0.250018
	Al2966	Al	0.499965	0.250179	0.166445
	Al2967	Al	0.500006	0.000096	0.166592
	O2968	O	0.596647	0.041126	0.268585
	O2969	O	0.582517	0.125379	0.233468
	O2970	O	0.584220	0.375592	0.266431
	O2971	O	0.653422	0.041117	0.314269
	O2972	O	0.572290	0.041111	0.278259
	O2973	O	0.524566	0.040737	0.373563
	O2974	O	0.572389	0.209191	0.278427
	O2975	O	0.570047	0.290179	0.231246
	O2976	O	0.513301	0.290725	0.185208
	O2977	O	0.596652	0.209363	0.268728
	O2978	O	0.594419	0.291594	0.221509
	O2979	O	0.642062	0.291963	0.126036
	O2980	O	0.524586	0.208855	0.373531
	O2981	O	0.570057	0.458824	0.231248
	O2982	O	0.513350	0.459233	0.185162
	O2983	O	0.642134	0.459842	0.126020
	O2984	O	0.594341	0.459659	0.221248
	O2985	O	0.653416	0.209406	0.314291
	O2986	O	0.512427	0.374392	0.382810
	O2987	O	0.654326	0.125883	0.116883
	C2988	C	0.630729	0.214589	0.296033
	C2989	C	0.636507	0.125236	0.300491
	C2990	C	0.630717	0.036120	0.295943
	C2991	C	0.619338	0.036002	0.286944
	C2992	C	0.613563	0.125157	0.282486
	C2993	C	0.619359	0.214423	0.286983
	C2994	C	0.601405	0.125270	0.272437
	C2995	C	0.648650	0.125269	0.310564
	C2996	C	0.568370	0.125006	0.286385
	C2997	C	0.558257	0.124857	0.307241
	C2998	C	0.553424	0.213870	0.317020
	C2999	C	0.543943	0.213997	0.335987
	C3000	C	0.539025	0.124940	0.345609
	C3001	C	0.543821	0.035880	0.335703
	C3002	C	0.553290	0.035812	0.316754
	C3003	C	0.528704	0.124923	0.365875
	C3004	C	0.565303	0.374628	0.227376
	C3005	C	0.553149	0.374863	0.217261
	C3006	C	0.547363	0.464277	0.212753
	C3007	C	0.535983	0.464310	0.203744
	C3008	C	0.530208	0.374828	0.199226
	C3009	C	0.535956	0.285445	0.203817
	C3010	C	0.547347	0.285544	0.212801
	C3011	C	0.518054	0.374776	0.189092
	C3012	C	0.598330	0.375339	0.213288
	C3013	C	0.608457	0.375583	0.192453
	C3014	C	0.613345	0.286548	0.182742
	C3015	C	0.622807	0.286696	0.163757
	C3016	C	0.627675	0.375763	0.154060
	C3017	C	0.622770	0.464432	0.163712
	C3018	C	0.613299	0.464541	0.182683
	C3019	C	0.637974	0.375920	0.133807
	H3020	H	0.626474	0.217755	0.156419
	H3021	H	0.609688	0.217687	0.190173
	H3022	H	0.635146	0.283231	0.299713
	H3023	H	0.614924	0.283318	0.283404
	H3024	H	0.581635	0.125477	0.215531
	H3025	H	0.585085	0.375741	0.284322
	H3026	H	0.512142	0.374460	0.364641
	H3027	H	0.654701	0.126013	0.135033
	H3028	H	0.551735	0.216865	0.216407
	H3029	H	0.531500	0.216626	0.200330
	H3030	H	0.540335	0.283098	0.343500
	H3031	H	0.557127	0.282777	0.309703
	H3032	H	0.531554	0.533265	0.200178
	H3033	H	0.551806	0.533141	0.216373
	H3034	H	0.556834	-0.033257	0.309088
	H3035	H	0.540100	-0.033049	0.343007
	H3036	H	0.614896	-0.033098	0.283266
	H3037	H	0.635132	-0.032663	0.299566
	H3038	H	0.609592	0.533481	0.190009
	H3039	H	0.626420	0.533559	0.156251
	Al3040	Al	0.595918	-0.500474	0.482932
	Al3041	Al	0.595848	-0.249765	0.482922
	Al3042	Al	0.512533	-0.250529	0.399621
	Al3043	Al	0.512562	-0.499885	0.399594
	O3044	O	0.608446	-0.459153	0.504160
	O3045	O	0.595694	-0.375163	0.466056
	O3046	O	0.595635	-0.125059	0.499725
	O3047	O	0.666443	-0.459419	0.545202
	O3048	O	0.582605	-0.459300	0.506210
	O3049	O	0.520438	-0.458825	0.513668
	O3050	O	0.582618	-0.291114	0.506336
	O3051	O	0.583241	-0.209334	0.461240
	O3052	O	0.525142	-0.209930	0.420810
	O3053	O	0.608474	-0.290824	0.503981
	O3054	O	0.607893	-0.208821	0.456756
	O3055	O	0.655636	-0.209241	0.361686
	O3056	O	0.520447	-0.290830	0.513826
	O3057	O	0.583285	-0.040915	0.461227
	O3058	O	0.525134	-0.041678	0.420752
	O3059	O	0.655679	-0.041040	0.361608
	O3060	O	0.607973	-0.040851	0.456816
	O3061	O	0.666448	-0.291115	0.545316
	O3062	O	0.507285	-0.125090	0.517912
	O3063	O	0.667537	-0.375074	0.349574
	C3064	C	0.643357	-0.285625	0.527759
	C3065	C	0.649280	-0.375196	0.531818
	C3066	C	0.643329	-0.465026	0.528051
	C3067	C	0.631662	-0.464870	0.520539
	C3068	C	0.625742	-0.375194	0.516544
	C3069	C	0.631713	-0.285447	0.520170
	C3070	C	0.613311	-0.375167	0.507518
	C3071	C	0.661635	-0.375409	0.541495
	C3072	C	0.577356	-0.375220	0.507402
	C3073	C	0.564008	-0.375192	0.509835
	C3074	C	0.557689	-0.285404	0.509991
	C3075	C	0.545352	-0.285354	0.510185
	C3076	C	0.539021	-0.375126	0.510219
	C3077	C	0.545330	-0.464934	0.510048
	C3078	C	0.557663	-0.465022	0.509853
	C3079	C	0.525701	-0.374908	0.512622
	C3080	C	0.578426	-0.125056	0.457587
	C3081	C	0.566038	-0.125308	0.448134
	C3082	C	0.560069	-0.035816	0.444209
	C3083	C	0.548391	-0.035801	0.436800
	C3084	C	0.542423	-0.125505	0.433175
	C3085	C	0.548404	-0.215177	0.436814
	C3086	C	0.560074	-0.215043	0.444237
	C3087	C	0.530002	-0.125949	0.424195
	C3088	C	0.612059	-0.124958	0.449034
	C3089	C	0.622376	-0.125170	0.428829
	C3090	C	0.627185	-0.214125	0.419010
	C3091	C	0.636678	-0.214019	0.400026
	C3092	C	0.641600	-0.124908	0.390446
	C3093	C	0.636783	-0.035924	0.400258
	C3094	C	0.627281	-0.036194	0.419210
	C3095	C	0.651674	-0.124878	0.369670
	H3096	H	0.640278	-0.283059	0.392491
	H3097	H	0.623444	-0.283042	0.426199
	H3098	H	0.647849	-0.215942	0.530677
	H3099	H	0.627221	-0.215724	0.517158
	H3100	H	0.595135	-0.375005	0.447989
	H3101	H	0.594860	-0.125146	0.517995
	H3102	H	0.508101	-0.124927	0.499720
	H3103	H	0.668502	-0.375132	0.367556
	H3104	H	0.564570	-0.284810	0.447140
	H3105	H	0.543903	-0.284625	0.433748
	H3106	H	0.540633	-0.215015	0.510346
	H3107	H	0.562477	-0.215672	0.510046
	H3108	H	0.543908	0.033781	0.433738
	H3109	H	0.564583	0.033742	0.447130
	H3110	H	0.562362	-0.535265	0.509787
	H3111	H	0.540542	-0.534773	0.510076
	H3112	H	0.627109	-0.534195	0.517787
	H3113	H	0.647812	-0.534853	0.531159
	H3114	H	0.623671	0.033131	0.426640
	H3115	H	0.640459	0.033184	0.392905
	Al3116	Al	0.595895	-0.000151	0.482985
	Al3117	Al	0.595850	0.250218	0.482880
	Al3118	Al	0.512544	0.249168	0.399690
	Al3119	Al	0.512511	0.000206	0.399771
	O3120	O	0.608412	0.040976	0.504209
	O3121	O	0.595712	0.124969	0.466002
	O3122	O	0.595710	0.374835	0.499737
	O3123	O	0.666430	0.039569	0.545355
	O3124	O	0.582591	0.040763	0.506178
	O3125	O	0.520394	0.040481	0.513978
	O3126	O	0.582517	0.208894	0.506153
	O3127	O	0.583205	0.290547	0.461381
	O3128	O	0.525104	0.290548	0.420823
	O3129	O	0.608511	0.209268	0.503882
	O3130	O	0.607896	0.291183	0.456697
	O3131	O	0.655662	0.290490	0.361665
	O3132	O	0.520408	0.208775	0.513644
	O3133	O	0.583199	0.459016	0.461298
	O3134	O	0.525118	0.458729	0.420854
	O3135	O	0.655693	0.458688	0.361665
	O3136	O	0.607938	0.459087	0.456756
	O3137	O	0.666508	0.208048	0.545089
	O3138	O	0.507297	0.374649	0.517804
	O3139	O	0.667598	0.125255	0.349422
	C3140	C	0.643461	0.214123	0.527720
	C3141	C	0.649332	0.123976	0.531840
	C3142	C	0.643300	0.034425	0.528077
	C3143	C	0.631658	0.034914	0.520520
	C3144	C	0.625757	0.124869	0.516569
	C3145	C	0.631803	0.214557	0.520150
	C3146	C	0.613340	0.125130	0.507532
	C3147	C	0.661645	0.123760	0.541439
	C3148	C	0.577288	0.124619	0.507319
	C3149	C	0.563966	0.124093	0.509595
	C3150	C	0.557635	0.214047	0.509748
	C3151	C	0.545331	0.214072	0.509975
	C3152	C	0.538986	0.124480	0.510168
	C3153	C	0.545292	0.034487	0.509966
	C3154	C	0.557606	0.034469	0.509684
	C3155	C	0.525647	0.124644	0.512685
	C3156	C	0.578355	0.374902	0.457680
	C3157	C	0.565981	0.374713	0.448321
	C3158	C	0.560033	0.464420	0.444447
	C3159	C	0.548377	0.464359	0.436928
	C3160	C	0.542401	0.374684	0.433240
	C3161	C	0.548362	0.284978	0.437076
	C3162	C	0.560025	0.284893	0.444538
	C3163	C	0.529984	0.374651	0.424281
	C3164	C	0.611996	0.375210	0.448969
	C3165	C	0.622376	0.375183	0.428761
	C3166	C	0.627224	0.286181	0.419201
	C3167	C	0.636722	0.286108	0.400258
	C3168	C	0.641575	0.374839	0.390486
	C3169	C	0.636770	0.463708	0.400131
	C3170	C	0.627273	0.464139	0.419088
	C3171	C	0.651681	0.374433	0.369683
	H3172	H	0.640340	0.217048	0.392975
	H3173	H	0.623527	0.217005	0.426494
	H3174	H	0.648012	0.283741	0.530600
	H3175	H	0.627312	0.284267	0.516999
	H3176	H	0.595232	0.125013	0.447751
	H3177	H	0.594878	0.374656	0.517942
	H3178	H	0.508445	0.374549	0.499606
	H3179	H	0.668624	0.125423	0.367401
	H3180	H	0.564536	0.214954	0.447541
	H3181	H	0.543836	0.215307	0.434172
	H3182	H	0.540548	0.283726	0.510003
	H3183	H	0.562386	0.284233	0.509736
	H3184	H	0.543859	0.533822	0.433937
	H3185	H	0.564537	0.534163	0.447337
	H3186	H	0.562360	-0.035519	0.509629
	H3187	H	0.540545	-0.035415	0.509897
	H3188	H	0.627110	-0.034563	0.517739
	H3189	H	0.647723	-0.035553	0.531273
	H3190	H	0.623609	0.533332	0.426340
	H3191	H	0.640428	0.532812	0.392788
	Al3192	Al	0.589870	-0.499459	0.618487
	Al3193	Al	0.589929	-0.249351	0.618357
	Al3194	Al	0.506545	-0.250430	0.534973
	Al3195	Al	0.506588	-0.500208	0.534809
	O3196	O	0.601993	-0.458848	0.641585
	O3197	O	0.590600	-0.374623	0.601363
	O3198	O	0.589177	-0.124850	0.635417
	O3199	O	0.661121	-0.459238	0.678532
	O3200	O	0.576052	-0.459360	0.639656
	O3201	O	0.513859	-0.458516	0.645810
	O3202	O	0.576119	-0.291141	0.639500
	O3203	O	0.577760	-0.209042	0.595217
	O3204	O	0.518689	-0.209729	0.558127
	O3205	O	0.602111	-0.290451	0.641384
	O3206	O	0.603728	-0.208430	0.596890
	O3207	O	0.665825	-0.210094	0.590055
	O3208	O	0.513929	-0.290173	0.645830
	O3209	O	0.577827	-0.040939	0.595040
	O3210	O	0.518623	-0.041470	0.558249
	O3211	O	0.665921	-0.041697	0.590238
	O3212	O	0.603763	-0.040179	0.597281
	O3213	O	0.661179	-0.291367	0.678369
	O3214	O	0.500712	-0.124842	0.650010
	O3215	O	0.678975	-0.375894	0.583728
	C3216	C	0.637555	-0.285145	0.662932
	C3217	C	0.643627	-0.375154	0.666476
	C3218	C	0.637504	-0.465042	0.663173
	C3219	C	0.625606	-0.465079	0.656940
	C3220	C	0.619511	-0.375154	0.653653
	C3221	C	0.625665	-0.285246	0.656717
	C3222	C	0.606970	-0.374819	0.645014
	C3223	C	0.656199	-0.375203	0.675020
	C3224	C	0.570842	-0.375087	0.640638
	C3225	C	0.557484	-0.375348	0.642750
	C3226	C	0.551182	-0.285223	0.642646
	C3227	C	0.538839	-0.284868	0.642549
	C3228	C	0.532489	-0.374841	0.642654
	C3229	C	0.538799	-0.465056	0.642655
	C3230	C	0.551140	-0.465290	0.642739
	C3231	C	0.519129	-0.374483	0.644849
	C3232	C	0.572872	-0.125020	0.591611
	C3233	C	0.560261	-0.125030	0.582996
	C3234	C	0.554131	-0.035311	0.579843
	C3235	C	0.542271	-0.035426	0.573550
	C3236	C	0.536168	-0.125205	0.570207
	C3237	C	0.542299	-0.214929	0.573312
	C3238	C	0.554152	-0.214900	0.579640
	C3239	C	0.523569	-0.125438	0.561616
	C3240	C	0.609006	-0.124317	0.596029
	C3241	C	0.622301	-0.124529	0.593632
	C3242	C	0.628579	-0.214592	0.593132
	C3243	C	0.640887	-0.215088	0.593008
	C3244	C	0.647282	-0.125595	0.593364
	C3245	C	0.641018	-0.035421	0.593686
	C3246	C	0.628694	-0.034855	0.593833
	C3247	C	0.660602	-0.125803	0.591218
	H3248	H	0.645607	-0.285035	0.592707
	H3249	H	0.623805	-0.284304	0.592960
	H3250	H	0.642150	-0.215088	0.665141
	H3251	H	0.621120	-0.215041	0.654227
	H3252	H	0.591481	-0.374602	0.583118
	H3253	H	0.588153	-0.125103	0.653593
	H3254	H	0.501906	-0.124533	0.631753
	H3255	H	0.678344	-0.375766	0.601925
	H3256	H	0.558695	-0.285057	0.582072
	H3257	H	0.537741	-0.285223	0.570893
	H3258	H	0.534087	-0.214876	0.642272
	H3259	H	0.555931	-0.215035	0.642580
	H3260	H	0.537697	0.034565	0.571304
	H3261	H	0.558662	0.034876	0.582444
	H3262	H	0.555859	-0.535291	0.642752
	H3263	H	0.534052	-0.535284	0.642458
	H3264	H	0.621037	-0.535150	0.654673
	H3265	H	0.642062	-0.535160	0.665605
	H3266	H	0.623931	0.035357	0.594215
	H3267	H	0.645834	0.034281	0.593944
	Al3268	Al	0.589899	0.000411	0.618358
	Al3269	Al	0.589876	0.250499	0.618513
	Al3270	Al	0.506535	0.249538	0.534849
	Al3271	Al	0.506570	-0.000234	0.535017
	O3272	O	0.602014	0.041250	0.641579
	O3273	O	0.590601	0.125524	0.601443
	O3274	O	0.589153	0.375250	0.635528
	O3275	O	0.661051	0.040603	0.678759
	O3276	O	0.575992	0.040850	0.639482
	O3277	O	0.513851	0.040807	0.645917
	O3278	O	0.576022	0.209104	0.639817
	O3279	O	0.577763	0.291398	0.595378
	O3280	O	0.518658	0.291170	0.558018
	O3281	O	0.602026	0.209386	0.641513
	O3282	O	0.603710	0.291447	0.597236
	O3283	O	0.665838	0.290008	0.589938
	O3284	O	0.513882	0.209107	0.645661
	O3285	O	0.577703	0.459666	0.595351
	O3286	O	0.518709	0.459442	0.557953
	O3287	O	0.665889	0.458521	0.589963
	O3288	O	0.603743	0.459749	0.597394
	O3289	O	0.661178	0.208669	0.678448
	O3290	O	0.500719	0.375194	0.649806
	O3291	O	0.678928	0.124452	0.583566
	C3292	C	0.637578	0.215123	0.662891
	C3293	C	0.643649	0.125216	0.666408
	C3294	C	0.637511	0.035286	0.663139
	C3295	C	0.625623	0.035388	0.656948
	C3296	C	0.619527	0.125363	0.653549
	C3297	C	0.625685	0.215247	0.656688
	C3298	C	0.606952	0.125328	0.645030
	C3299	C	0.656188	0.124674	0.675040
	C3300	C	0.570753	0.125080	0.640608
	C3301	C	0.557428	0.125305	0.642686
	C3302	C	0.551107	0.215315	0.642587
	C3303	C	0.538790	0.215032	0.642488
	C3304	C	0.532439	0.124948	0.642530
	C3305	C	0.538770	0.035090	0.642774
	C3306	C	0.551099	0.035210	0.642803
	C3307	C	0.519136	0.124905	0.644845
	C3308	C	0.572834	0.375349	0.591762
	C3309	C	0.560284	0.375247	0.582926
	C3310	C	0.554146	0.464932	0.579728
	C3311	C	0.542314	0.464859	0.573353
	C3312	C	0.536209	0.374991	0.570011
	C3313	C	0.542321	0.285270	0.573331
	C3314	C	0.554158	0.285391	0.579716
	C3315	C	0.523600	0.375239	0.561415
	C3316	C	0.608993	0.375607	0.596200
	C3317	C	0.622307	0.375510	0.593665
	C3318	C	0.628586	0.285503	0.593209
	C3319	C	0.640914	0.285194	0.593068
	C3320	C	0.647277	0.374699	0.593290
	C3321	C	0.640997	0.464703	0.593665
	C3322	C	0.628674	0.465069	0.593841
	C3323	C	0.660586	0.374441	0.591021
	H3324	H	0.645614	0.215060	0.592829
	H3325	H	0.623775	0.215796	0.593036
	H3326	H	0.642199	0.285197	0.665091
	H3327	H	0.621126	0.285453	0.654252
	H3328	H	0.591650	0.125723	0.583185
	H3329	H	0.588110	0.374754	0.653798
	H3330	H	0.501609	0.375642	0.631476
	H3331	H	0.678119	0.124638	0.601805
	H3332	H	0.558723	0.215279	0.582294
	H3333	H	0.537744	0.215018	0.571002
	H3334	H	0.534046	0.285135	0.642340
	H3335	H	0.555882	0.285402	0.642436
	H3336	H	0.537691	0.534842	0.571066
	H3337	H	0.558705	0.534872	0.582315
	H3338	H	0.555866	-0.034695	0.642899
	H3339	H	0.533991	-0.035076	0.642882
	H3340	H	0.621041	-0.034768	0.654705
	H3341	H	0.642052	-0.035004	0.665545
	H3342	H	0.623979	0.535179	0.594210
	H3343	H	0.645788	0.534594	0.593843
	Al3344	Al	0.583354	-0.499560	0.750217
	Al3345	Al	0.583370	-0.249546	0.750009
	Al3346	Al	0.500029	-0.250049	0.666932
	Al3347	Al	0.500057	-0.499955	0.666921
	O3348	O	0.595495	-0.458704	0.773224
	O3349	O	0.584048	-0.374688	0.733017
	O3350	O	0.582636	-0.124959	0.767290
	O3351	O	0.654533	-0.459151	0.810307
	O3352	O	0.569398	-0.459054	0.771034
	O3353	O	0.507293	-0.459243	0.777325
	O3354	O	0.569440	-0.290847	0.771044
	O3355	O	0.571235	-0.209069	0.726963
	O3356	O	0.512117	-0.208890	0.690197
	O3357	O	0.595482	-0.290655	0.773249
	O3358	O	0.597176	-0.208210	0.728788
	O3359	O	0.659393	-0.209344	0.722980
	O3360	O	0.507256	-0.291028	0.777195
	O3361	O	0.571298	-0.041182	0.726908
	O3362	O	0.512152	-0.040527	0.690144
	O3363	O	0.659417	-0.041159	0.723076
	O3364	O	0.597265	-0.039980	0.729147
	O3365	O	0.654601	-0.291158	0.810154
	O3366	O	0.494124	-0.124874	0.781369
	O3367	O	0.672516	-0.375205	0.718803
	C3368	C	0.630977	-0.285100	0.794862
	C3369	C	0.637073	-0.374982	0.798181
	C3370	C	0.630946	-0.464800	0.794917
	C3371	C	0.619069	-0.464704	0.788656
	C3372	C	0.612969	-0.374722	0.785365
	C3373	C	0.619112	-0.284890	0.788571
	C3374	C	0.600394	-0.374697	0.776716
	C3375	C	0.649646	-0.375051	0.806843
	C3376	C	0.564171	-0.374786	0.772026
	C3377	C	0.550848	-0.374807	0.774293
	C3378	C	0.544527	-0.284841	0.774302
	C3379	C	0.532205	-0.284838	0.774223
	C3380	C	0.525869	-0.374771	0.774253
	C3381	C	0.532193	-0.464795	0.774237
	C3382	C	0.544518	-0.464823	0.774283
	C3383	C	0.512533	-0.374991	0.776276
	C3384	C	0.566353	-0.125084	0.723295
	C3385	C	0.553753	-0.124800	0.714761
	C3386	C	0.547644	-0.034848	0.711451
	C3387	C	0.535755	-0.034759	0.705307
	C3388	C	0.529658	-0.124896	0.701962
	C3389	C	0.535771	-0.214825	0.705245
	C3390	C	0.547654	-0.214915	0.711380
	C3391	C	0.517043	-0.124786	0.693673
	C3392	C	0.602487	-0.124309	0.728008
	C3393	C	0.615823	-0.124421	0.725918
	C3394	C	0.622137	-0.214470	0.725477
	C3395	C	0.634461	-0.214880	0.725625
	C3396	C	0.640809	-0.124995	0.726104
	C3397	C	0.634493	-0.035000	0.726209
	C3398	C	0.622178	-0.034598	0.726049
	C3399	C	0.654144	-0.125268	0.723933
	H3400	H	0.639184	-0.285251	0.725570
	H3401	H	0.617361	-0.284154	0.725250
	H3402	H	0.635586	-0.215036	0.797243
	H3403	H	0.614576	-0.214579	0.786129
	H3404	H	0.584782	-0.374613	0.714800
	H3405	H	0.581712	-0.124954	0.785495
	H3406	H	0.495042	-0.124555	0.763184
	H3407	H	0.671396	-0.375947	0.737006
	H3408	H	0.552231	-0.285193	0.713638
	H3409	H	0.531178	-0.285000	0.702934
	H3410	H	0.527424	-0.214934	0.774256
	H3411	H	0.549276	-0.214707	0.774433
	H3412	H	0.531169	0.035378	0.703094
	H3413	H	0.552229	0.035238	0.713793
	H3414	H	0.549295	-0.534663	0.774478
	H3415	H	0.527428	-0.534916	0.774268
	H3416	H	0.614478	-0.534847	0.786274
	H3417	H	0.635516	-0.535310	0.797320
	H3418	H	0.617454	0.035528	0.726269
	H3419	H	0.639289	0.034830	0.726584
	Al3420	Al	0.583354	0.000497	0.750205
	Al3421	Al	0.583360	0.250257	0.750182
	Al3422	Al	0.500045	0.250258	0.666802
	Al3423	Al	0.499990	0.000228	0.667062
	O3424	O	0.595452	0.041356	0.773518
	O3425	O	0.584111	0.125253	0.733104
	O3426	O	0.582623	0.375275	0.767259
	O3427	O	0.654539	0.040941	0.810309
	O3428	O	0.569452	0.040758	0.771166
	O3429	O	0.507285	0.041012	0.777168
	O3430	O	0.569519	0.208827	0.771167
	O3431	O	0.571238	0.291244	0.727074
	O3432	O	0.512176	0.291158	0.689854
	O3433	O	0.595529	0.209395	0.773285
	O3434	O	0.597149	0.291249	0.729001
	O3435	O	0.659350	0.290423	0.722791
	O3436	O	0.507307	0.209453	0.777248
	O3437	O	0.571246	0.459182	0.726997
	O3438	O	0.512214	0.459318	0.689968
	O3439	O	0.659394	0.458612	0.722978
	O3440	O	0.597262	0.459413	0.729197
	O3441	O	0.654653	0.208951	0.810063
	O3442	O	0.494174	0.374993	0.781359
	O3443	O	0.672526	0.125037	0.718739
	C3444	C	0.630990	0.215084	0.794703
	C3445	C	0.637077	0.125181	0.798078
	C3446	C	0.630947	0.035377	0.794922
	C3447	C	0.619066	0.035362	0.788709
	C3448	C	0.612969	0.125104	0.785339
	C3449	C	0.619097	0.214928	0.788511
	C3450	C	0.600404	0.125285	0.776789
	C3451	C	0.649662	0.125079	0.806737
	C3452	C	0.564210	0.124928	0.772222
	C3453	C	0.550850	0.125133	0.774290
	C3454	C	0.544512	0.215018	0.774263
	C3455	C	0.532191	0.214996	0.774110
	C3456	C	0.525869	0.124963	0.774173
	C3457	C	0.532204	0.035028	0.774227
	C3458	C	0.544519	0.035097	0.774354
	C3459	C	0.512562	0.125172	0.776184
	C3460	C	0.566274	0.375123	0.723727
	C3461	C	0.553733	0.375055	0.715070
	C3462	C	0.547625	0.465019	0.711778
	C3463	C	0.535757	0.464997	0.705439
	C3464	C	0.529611	0.375175	0.702264
	C3465	C	0.535720	0.285197	0.705446
	C3466	C	0.547593	0.285203	0.711793
	C3467	C	0.517114	0.375082	0.693341
	C3468	C	0.602469	0.375184	0.728056
	C3469	C	0.615803	0.374972	0.725956
	C3470	C	0.622104	0.284892	0.725774
	C3471	C	0.634416	0.284713	0.725879
	C3472	C	0.640776	0.374581	0.725993
	C3473	C	0.634479	0.464636	0.726234
	C3474	C	0.622161	0.464836	0.726105
	C3475	C	0.654109	0.374587	0.723957
	H3476	H	0.639155	0.214640	0.725960
	H3477	H	0.617344	0.214997	0.725536
	H3478	H	0.635560	0.285507	0.797039
	H3479	H	0.614537	0.285064	0.786051
	H3480	H	0.585198	0.126035	0.714975
	H3481	H	0.581588	0.375510	0.785455
	H3482	H	0.495030	0.374561	0.763115
	H3483	H	0.671223	0.124819	0.736842
	H3484	H	0.552163	0.214871	0.714228
	H3485	H	0.531189	0.214946	0.702957
	H3486	H	0.527467	0.285280	0.774067
	H3487	H	0.549314	0.284925	0.774343
	H3488	H	0.531222	0.535201	0.702866
	H3489	H	0.552174	0.535322	0.714190
	H3490	H	0.549252	-0.035098	0.774566
	H3491	H	0.527436	-0.034913	0.774198
	H3492	H	0.614509	-0.034842	0.786423
	H3493	H	0.635512	-0.034760	0.797352
	H3494	H	0.617421	0.534719	0.726212
	H3495	H	0.639271	0.534535	0.726646
	Al3496	Al	0.576765	-0.499911	0.881781
	Al3497	Al	0.576756	-0.249880	0.881742
	Al3498	Al	0.493401	-0.249865	0.798390
	Al3499	Al	0.493426	-0.499940	0.798390
	O3500	O	0.588964	-0.459090	0.904864
	O3501	O	0.577554	-0.374882	0.864770
	O3502	O	0.576045	-0.125012	0.898845
	O3503	O	0.647963	-0.458683	0.942110
	O3504	O	0.562861	-0.458983	0.902622
	O3505	O	0.500769	-0.458939	0.910086
	O3506	O	0.562926	-0.290902	0.902781
	O3507	O	0.564690	-0.208975	0.858474
	O3508	O	0.505581	-0.208684	0.821574
	O3509	O	0.588902	-0.291017	0.904943
	O3510	O	0.590614	-0.208795	0.860575
	O3511	O	0.652757	-0.209385	0.854437
	O3512	O	0.500751	-0.290811	0.910262
	O3513	O	0.564772	-0.040944	0.858366
	O3514	O	0.505550	-0.040442	0.821709
	O3515	O	0.652804	-0.040945	0.854568
	O3516	O	0.590667	-0.040554	0.860708
	O3517	O	0.648094	-0.290776	0.941719
	O3518	O	0.487751	-0.124712	0.916685
	O3519	O	0.665909	-0.374937	0.850561
	C3520	C	0.624410	-0.284588	0.926499
	C3521	C	0.630508	-0.374376	0.929878
	C3522	C	0.624388	-0.464182	0.926668
	C3523	C	0.612541	-0.464619	0.920343
	C3524	C	0.606430	-0.374844	0.916995
	C3525	C	0.612553	-0.284911	0.920199
	C3526	C	0.593862	-0.374950	0.908332
	C3527	C	0.643085	-0.374658	0.938520
	C3528	C	0.557623	-0.374911	0.903817
	C3529	C	0.544317	-0.374580	0.906334
	C3530	C	0.538004	-0.284743	0.906614
	C3531	C	0.525688	-0.284817	0.906842
	C3532	C	0.519345	-0.374515	0.906859
	C3533	C	0.525669	-0.464279	0.906806
	C3534	C	0.537982	-0.464342	0.906630
	C3535	C	0.506014	-0.374645	0.909027
	C3536	C	0.559789	-0.124763	0.854950
	C3537	C	0.547200	-0.124581	0.846474
	C3538	C	0.541076	-0.034720	0.843280
	C3539	C	0.529205	-0.034767	0.837125
	C3540	C	0.523066	-0.124583	0.833840
	C3541	C	0.529188	-0.214390	0.837094
	C3542	C	0.541061	-0.214414	0.843305
	C3543	C	0.510497	-0.124557	0.825086
	C3544	C	0.595889	-0.124817	0.859592
	C3545	C	0.609226	-0.124761	0.857457
	C3546	C	0.615552	-0.214777	0.857493
	C3547	C	0.627867	-0.214721	0.857640
	C3548	C	0.634191	-0.124680	0.857632
	C3549	C	0.627876	-0.034643	0.857763
	C3550	C	0.615567	-0.034750	0.857572
	C3551	C	0.647529	-0.125096	0.855517
	H3552	H	0.632630	-0.284712	0.857661
	H3553	H	0.610779	-0.284563	0.857374
	H3554	H	0.628983	-0.214388	0.928912
	H3555	H	0.607944	-0.214944	0.917834
	H3556	H	0.578813	-0.375124	0.846595
	H3557	H	0.575296	-0.124653	0.917063
	H3558	H	0.488534	-0.125175	0.898411
	H3559	H	0.665001	-0.374655	0.868746
	H3560	H	0.545596	-0.284508	0.845870
	H3561	H	0.524583	-0.284605	0.834885
	H3562	H	0.520928	-0.214908	0.906934
	H3563	H	0.542758	-0.214856	0.906621
	H3564	H	0.524632	0.035495	0.834975
	H3565	H	0.545639	0.035019	0.845809
	H3566	H	0.542758	-0.534354	0.906665
	H3567	H	0.520881	-0.533782	0.906815
	H3568	H	0.607994	-0.534879	0.918049
	H3569	H	0.628978	-0.534063	0.929181
	H3570	H	0.610797	0.035360	0.857570
	H3571	H	0.632627	0.035407	0.857971
	Al3572	Al	0.576807	0.000028	0.881762
	Al3573	Al	0.576763	0.250053	0.881625
	Al3574	Al	0.493471	0.249905	0.798353
	Al3575	Al	0.493451	-0.000030	0.798356
	O3576	O	0.588952	0.040885	0.904917
	O3577	O	0.577559	0.124872	0.864700
	O3578	O	0.576041	0.374983	0.898770
	O3579	O	0.648005	0.041407	0.942085
	O3580	O	0.562913	0.040779	0.902836
	O3581	O	0.500789	0.041509	0.910213
	O3582	O	0.562904	0.208969	0.902738
	O3583	O	0.564708	0.291101	0.858448
	O3584	O	0.505623	0.290711	0.821603
	O3585	O	0.588951	0.209166	0.904811
	O3586	O	0.590588	0.291284	0.860417
	O3587	O	0.652742	0.290991	0.854646
	O3588	O	0.500762	0.209724	0.910272
	O3589	O	0.564682	0.459188	0.858512
	O3590	O	0.505577	0.458828	0.821718
	O3591	O	0.652784	0.459306	0.854675
	O3592	O	0.590613	0.459260	0.860707
	O3593	O	0.648006	0.209513	0.942038
	O3594	O	0.487743	0.375515	0.916738
	O3595	O	0.665904	0.125083	0.850636
	C3596	C	0.624404	0.215419	0.926529
	C3597	C	0.630500	0.125547	0.929963
	C3598	C	0.624408	0.035640	0.926579
	C3599	C	0.612547	0.035220	0.920280
	C3600	C	0.606445	0.125043	0.916902
	C3601	C	0.612553	0.215101	0.920166
	C3602	C	0.593865	0.125018	0.908310
	C3603	C	0.643077	0.125571	0.938594
	C3604	C	0.557661	0.124807	0.903873
	C3605	C	0.544340	0.124876	0.906444
	C3606	C	0.538028	0.214933	0.906896
	C3607	C	0.525696	0.215350	0.907106
	C3608	C	0.519342	0.125687	0.906852
	C3609	C	0.525652	0.035622	0.906493
	C3610	C	0.537979	0.035251	0.906292
	C3611	C	0.506033	0.125581	0.909209
	C3612	C	0.559784	0.375085	0.854996
	C3613	C	0.547174	0.374977	0.846576
	C3614	C	0.541094	0.464990	0.843132
	C3615	C	0.529203	0.464954	0.836864
	C3616	C	0.523088	0.374985	0.833717
	C3617	C	0.529200	0.285064	0.836941
	C3618	C	0.541073	0.285121	0.843206
	C3619	C	0.510512	0.374819	0.825098
	C3620	C	0.595870	0.375289	0.859571
	C3621	C	0.609207	0.375485	0.857451
	C3622	C	0.615505	0.285606	0.857320
	C3623	C	0.627822	0.285287	0.857486
	C3624	C	0.634154	0.375087	0.857698
	C3625	C	0.627854	0.465044	0.857627
	C3626	C	0.615546	0.465403	0.857506
	C3627	C	0.647506	0.375342	0.855602
	H3628	H	0.632523	0.215077	0.857604
	H3629	H	0.610735	0.215424	0.857187
	H3630	H	0.628980	0.285713	0.928909
	H3631	H	0.607970	0.284980	0.917723
	H3632	H	0.578802	0.124450	0.846523
	H3633	H	0.575223	0.374838	0.916861
	H3634	H	0.488857	0.375285	0.898555
	H3635	H	0.664846	0.125430	0.868950
	H3636	H	0.545622	0.215113	0.845720
	H3637	H	0.524620	0.214861	0.834724
	H3638	H	0.520964	0.285391	0.907466
	H3639	H	0.542831	0.284738	0.907049
	H3640	H	0.524593	0.534901	0.834605
	H3641	H	0.545636	0.534972	0.845536
	H3642	H	0.542697	-0.034908	0.906014
	H3643	H	0.520889	-0.034390	0.906432
	H3644	H	0.607969	-0.034721	0.917976
	H3645	H	0.628964	-0.034505	0.929086
	H3646	H	0.610816	0.535805	0.857513
	H3647	H	0.632668	0.534997	0.857834
	Al3648	Al	0.743448	-0.499619	0.048403
	Al3649	Al	0.743487	-0.249650	0.048443
	Al3650	Al	0.660140	-0.249296	-0.035009
	Al3651	Al	0.660118	-0.499384	-0.034892
	O3652	O	0.755572	-0.459059	0.071453
	O3653	O	0.744191	-0.374491	0.031370
	O3654	O	0.742768	-0.124514	0.065435
	O3655	O	0.814611	-0.459301	0.108606
	O3656	O	0.729591	-0.458853	0.069551
	O3657	O	0.667465	-0.458558	0.076605
	O3658	O	0.729611	-0.290625	0.069504
	O3659	O	0.731377	-0.208650	0.025119
	O3660	O	0.672234	-0.208267	-0.011842
	O3661	O	0.755535	-0.290854	0.071615
	O3662	O	0.757273	-0.208706	0.027216
	O3663	O	0.819429	-0.209457	0.021169
	O3664	O	0.667439	-0.289967	0.076760
	O3665	O	0.731321	-0.040526	0.025277
	O3666	O	0.672287	-0.040187	-0.011920
	O3667	O	0.819451	-0.041318	0.021285
	O3668	O	0.757301	-0.040502	0.027198
	O3669	O	0.814725	-0.291219	0.108264
	O3670	O	0.654405	-0.124193	0.083243
	O3671	O	0.832625	-0.375896	0.017120
	C3672	C	0.791058	-0.284997	0.093085
	C3673	C	0.797144	-0.374845	0.096464
	C3674	C	0.790982	-0.464667	0.093356
	C3675	C	0.779127	-0.464734	0.087056
	C3676	C	0.773046	-0.374855	0.083688
	C3677	C	0.779208	-0.285102	0.086771
	C3678	C	0.760481	-0.374920	0.074964
	C3679	C	0.809763	-0.375186	0.104969
	C3680	C	0.724354	-0.374720	0.070687
	C3681	C	0.711016	-0.374724	0.073074
	C3682	C	0.704701	-0.284740	0.073463
	C3683	C	0.692361	-0.284357	0.073618
	C3684	C	0.686017	-0.374077	0.073402
	C3685	C	0.692352	-0.463991	0.073107
	C3686	C	0.704668	-0.464442	0.072997
	C3687	C	0.672704	-0.374140	0.075628
	C3688	C	0.726426	-0.124839	0.021776
	C3689	C	0.713807	-0.124828	0.013253
	C3690	C	0.707718	-0.035158	0.010039
	C3691	C	0.695861	-0.035047	0.003744
	C3692	C	0.689748	-0.124613	0.000346
	C3693	C	0.695816	-0.214510	0.003668
	C3694	C	0.707670	-0.214425	0.009979
	C3695	C	0.677162	-0.124259	-0.008320
	C3696	C	0.762541	-0.124733	0.026207
	C3697	C	0.775858	-0.124679	0.024047
	C3698	C	0.782153	-0.214885	0.024108
	C3699	C	0.794475	-0.215147	0.024291
	C3700	C	0.800849	-0.125304	0.024421
	C3701	C	0.794541	-0.035060	0.024478
	C3702	C	0.782222	-0.034870	0.024269
	C3703	C	0.814183	-0.125513	0.022225
	H3704	H	0.799232	-0.285387	0.024237
	H3705	H	0.777411	-0.284885	0.023929
	H3706	H	0.795638	-0.214899	0.095498
	H3707	H	0.774645	-0.214840	0.084478
	H3708	H	0.745102	-0.374788	0.013169
	H3709	H	0.741612	-0.124132	0.083635
	H3710	H	0.655139	-0.124241	0.064970
	H3711	H	0.831628	-0.375826	0.035402
	H3712	H	0.712235	-0.284520	0.012263
	H3713	H	0.691259	-0.284731	0.001111
	H3714	H	0.687598	-0.214515	0.073735
	H3715	H	0.709493	-0.215038	0.073423
	H3716	H	0.691329	0.035216	0.001285
	H3717	H	0.712301	0.034888	0.012249
	H3718	H	0.709402	-0.534549	0.072677
	H3719	H	0.687592	-0.533972	0.072774
	H3720	H	0.774492	-0.534816	0.084950
	H3721	H	0.795531	-0.534715	0.096081
	H3722	H	0.777463	0.035070	0.024258
	H3723	H	0.799299	0.035190	0.024589
	Al3724	Al	0.743456	0.000311	0.048324
	Al3725	Al	0.743488	0.250098	0.048266
	Al3726	Al	0.660142	0.250726	-0.034826
	Al3727	Al	0.660139	0.000794	-0.034874
	O3728	O	0.755544	0.041392	0.071470
	O3729	O	0.744176	0.125274	0.031261
	O3730	O	0.742846	0.375279	0.065361
	O3731	O	0.814586	0.040701	0.108595
	O3732	O	0.729578	0.041133	0.069416
	O3733	O	0.667427	0.041775	0.076681
	O3734	O	0.729589	0.209377	0.069321
	O3735	O	0.731406	0.291330	0.025042
	O3736	O	0.672284	0.291813	-0.011646
	O3737	O	0.755555	0.209352	0.071572
	O3738	O	0.757301	0.291247	0.027168
	O3739	O	0.819471	0.290092	0.020976
	O3740	O	0.667451	0.210188	0.076883
	O3741	O	0.731377	0.459531	0.025269
	O3742	O	0.672336	0.459998	-0.011896
	O3743	O	0.819502	0.458237	0.021223
	O3744	O	0.757318	0.459408	0.027234
	O3745	O	0.814667	0.208784	0.108409
	O3746	O	0.654328	0.376003	0.083139
	O3747	O	0.832625	0.124670	0.017132
	C3748	C	0.791033	0.214919	0.093222
	C3749	C	0.797126	0.124802	0.096509
	C3750	C	0.790975	0.035129	0.093263
	C3751	C	0.779124	0.035369	0.086990
	C3752	C	0.773043	0.125308	0.083691
	C3753	C	0.779182	0.215000	0.086940
	C3754	C	0.760481	0.125276	0.075074
	C3755	C	0.809707	0.124827	0.105041
	C3756	C	0.724345	0.125260	0.070507
	C3757	C	0.711014	0.125333	0.072986
	C3758	C	0.704712	0.215460	0.073366
	C3759	C	0.692386	0.215740	0.073539
	C3760	C	0.686018	0.126009	0.073393
	C3761	C	0.692326	0.035891	0.073229
	C3762	C	0.704666	0.035523	0.073063
	C3763	C	0.672684	0.125936	0.075727
	C3764	C	0.726444	0.375573	0.021757
	C3765	C	0.713859	0.375499	0.013167
	C3766	C	0.707764	0.465321	0.010007
	C3767	C	0.695905	0.465283	0.003700
	C3768	C	0.689788	0.375584	0.000396
	C3769	C	0.695875	0.285762	0.003642
	C3770	C	0.707739	0.285679	0.009930
	C3771	C	0.677240	0.375885	-0.008231
	C3772	C	0.762568	0.375450	0.026204
	C3773	C	0.775886	0.374943	0.024233
	C3774	C	0.782178	0.284926	0.024117
	C3775	C	0.794509	0.284711	0.024204
	C3776	C	0.800887	0.374529	0.024298
	C3777	C	0.794595	0.464615	0.024426
	C3778	C	0.782248	0.464874	0.024337
	C3779	C	0.814213	0.374167	0.022143
	H3780	H	0.799237	0.214205	0.024232
	H3781	H	0.777410	0.214965	0.023948
	H3782	H	0.795642	0.284954	0.095569
	H3783	H	0.774604	0.285240	0.084489
	H3784	H	0.745219	0.125767	0.013068
	H3785	H	0.742174	0.375087	0.083591
	H3786	H	0.654939	0.375920	0.064913
	H3787	H	0.831540	0.124581	0.035454
	H3788	H	0.712279	0.215714	0.012242
	H3789	H	0.691315	0.215731	0.001158
	H3790	H	0.687664	0.286010	0.073703
	H3791	H	0.709497	0.285375	0.073386
	H3792	H	0.691365	0.535461	0.001265
	H3793	H	0.712338	0.535337	0.012342
	H3794	H	0.709398	-0.034537	0.072836
	H3795	H	0.687548	-0.034073	0.073049
	H3796	H	0.774530	-0.034894	0.084592
	H3797	H	0.795525	-0.035279	0.095697
	H3798	H	0.777542	0.535167	0.024356
	H3799	H	0.799398	0.534554	0.024570
	Al3800	Al	0.737535	-0.498631	0.183334
	Al3801	Al	0.737519	-0.249452	0.183330
	Al3802	Al	0.654154	-0.248643	0.100065
	Al3803	Al	0.654205	-0.499350	0.099992
	O3804	O	0.750070	-0.458358	0.205343
	O3805	O	0.737716	-0.374156	0.166468
	O3806	O	0.737690	-0.123919	0.200223
	O3807	O	0.808180	-0.458613	0.246035
	O3808	O	0.725371	-0.458216	0.209237
	O3809	O	0.677637	-0.458335	0.304452
	O3810	O	0.725464	-0.290294	0.209502
	O3811	O	0.724873	-0.208449	0.162422
	O3812	O	0.666863	-0.208122	0.121545
	O3813	O	0.750206	-0.289995	0.204828
	O3814	O	0.750736	-0.207633	0.159873
	O3815	O	0.812869	-0.209553	0.152639
	O3816	O	0.677670	-0.290256	0.304523
	O3817	O	0.725002	-0.040094	0.162091
	O3818	O	0.666853	-0.039619	0.121818
	O3819	O	0.812953	-0.041143	0.152820
	O3820	O	0.750858	-0.039549	0.160154
	O3821	O	0.808239	-0.290389	0.245964
	O3822	O	0.665713	-0.124798	0.316661
	O3823	O	0.826090	-0.375240	0.148600
	C3824	C	0.784917	-0.284284	0.229814
	C3825	C	0.790892	-0.374137	0.233536
	C3826	C	0.784931	-0.463754	0.229730
	C3827	C	0.773270	-0.463920	0.222228
	C3828	C	0.767314	-0.374168	0.218373
	C3829	C	0.773261	-0.284485	0.222266
	C3830	C	0.754950	-0.374315	0.208890
	C3831	C	0.803313	-0.374317	0.242502
	C3832	C	0.721339	-0.374408	0.217159
	C3833	C	0.711037	-0.374367	0.237393
	C3834	C	0.706193	-0.285348	0.247062
	C3835	C	0.696722	-0.285228	0.266103
	C3836	C	0.691824	-0.374228	0.275797
	C3837	C	0.696615	-0.463066	0.265956
	C3838	C	0.706074	-0.463252	0.246914
	C3839	C	0.681681	-0.374179	0.296520
	C3840	C	0.720062	-0.124172	0.158756
	C3841	C	0.707641	-0.124169	0.149898
	C3842	C	0.701677	-0.034307	0.146146
	C3843	C	0.690019	-0.033970	0.138724
	C3844	C	0.684036	-0.123794	0.134913
	C3845	C	0.689968	-0.213659	0.138864
	C3846	C	0.701626	-0.213922	0.146337
	C3847	C	0.671681	-0.124037	0.125390
	C3848	C	0.756065	-0.123833	0.158911
	C3849	C	0.769382	-0.124397	0.156792
	C3850	C	0.775648	-0.214505	0.156571
	C3851	C	0.787981	-0.214756	0.156318
	C3852	C	0.794348	-0.124899	0.156284
	C3853	C	0.788068	-0.034914	0.156545
	C3854	C	0.775753	-0.034660	0.156790
	C3855	C	0.807659	-0.125287	0.153817
	H3856	H	0.792720	-0.284783	0.156143
	H3857	H	0.770825	-0.284353	0.156483
	H3858	H	0.789429	-0.214820	0.232786
	H3859	H	0.768741	-0.214838	0.219258
	H3860	H	0.738377	-0.374381	0.148242
	H3861	H	0.738363	-0.124632	0.218353
	H3862	H	0.664663	-0.124444	0.298659
	H3863	H	0.825259	-0.374718	0.166857
	H3864	H	0.706128	-0.283456	0.149262
	H3865	H	0.685441	-0.283142	0.135927
	H3866	H	0.693126	-0.216080	0.273577
	H3867	H	0.709924	-0.216370	0.239752
	H3868	H	0.685547	0.035884	0.135556
	H3869	H	0.706251	0.035094	0.148966
	H3870	H	0.709664	-0.532222	0.239475
	H3871	H	0.692908	-0.531915	0.273301
	H3872	H	0.768758	-0.533735	0.219312
	H3873	H	0.789444	-0.533318	0.232597
	H3874	H	0.771042	0.035598	0.156921
	H3875	H	0.792840	0.034976	0.156553
	Al3876	Al	0.737499	0.001268	0.183344
	Al3877	Al	0.737544	0.250481	0.183203
	Al3878	Al	0.654156	0.251347	0.099971
	Al3879	Al	0.654150	0.000217	0.100073
	O3880	O	0.750147	0.041951	0.205063
	O3881	O	0.737765	0.125643	0.166395
	O3882	O	0.737737	0.375546	0.200149
	O3883	O	0.808173	0.041459	0.246283
	O3884	O	0.725443	0.041620	0.209330
	O3885	O	0.677734	0.041198	0.304512
	O3886	O	0.725499	0.209537	0.209384
	O3887	O	0.724886	0.291425	0.162460
	O3888	O	0.666813	0.292174	0.121678
	O3889	O	0.750252	0.210292	0.204689
	O3890	O	0.750765	0.292285	0.159883
	O3891	O	0.812908	0.290381	0.152783
	O3892	O	0.677761	0.209291	0.304577
	O3893	O	0.724933	0.459691	0.162313
	O3894	O	0.666875	0.460421	0.121558
	O3895	O	0.812998	0.458663	0.152837
	O3896	O	0.750887	0.460899	0.160151
	O3897	O	0.808207	0.209813	0.246071
	O3898	O	0.665822	0.375363	0.316603
	O3899	O	0.826055	0.124623	0.148639
	C3900	C	0.785011	0.215483	0.229562
	C3901	C	0.790906	0.125702	0.233623
	C3902	C	0.784888	0.036130	0.230110
	C3903	C	0.773247	0.036251	0.222477
	C3904	C	0.767344	0.125933	0.218281
	C3905	C	0.773375	0.215587	0.221920
	C3906	C	0.755027	0.125955	0.208624
	C3907	C	0.803309	0.125833	0.242667
	C3908	C	0.721365	0.125515	0.217082
	C3909	C	0.711056	0.125434	0.237333
	C3910	C	0.706134	0.214322	0.246870
	C3911	C	0.696651	0.214261	0.265794
	C3912	C	0.691811	0.125471	0.275627
	C3913	C	0.696676	0.036507	0.265925
	C3914	C	0.706142	0.036722	0.246992
	C3915	C	0.681747	0.125331	0.296542
	C3916	C	0.720010	0.375518	0.158992
	C3917	C	0.707583	0.375856	0.150101
	C3918	C	0.701680	0.465570	0.146084
	C3919	C	0.690030	0.465172	0.138625
	C3920	C	0.683989	0.375661	0.135006
	C3921	C	0.689891	0.285886	0.139141
	C3922	C	0.701539	0.286263	0.146645
	C3923	C	0.671654	0.376239	0.125478
	C3924	C	0.756083	0.376337	0.158896
	C3925	C	0.769379	0.375909	0.156628
	C3926	C	0.775662	0.285827	0.156652
	C3927	C	0.787984	0.285531	0.156610
	C3928	C	0.794363	0.375340	0.156521
	C3929	C	0.788073	0.465464	0.156662
	C3930	C	0.775742	0.465747	0.156733
	C3931	C	0.807694	0.374851	0.153917
	H3932	H	0.792730	0.215399	0.156510
	H3933	H	0.770881	0.215798	0.156693
	H3934	H	0.789579	0.284834	0.232313
	H3935	H	0.768945	0.285392	0.218612
	H3936	H	0.738527	0.125654	0.148266
	H3937	H	0.738263	0.375007	0.218372
	H3938	H	0.664907	0.375658	0.298694
	H3939	H	0.825066	0.124800	0.166864
	H3940	H	0.706011	0.216913	0.149873
	H3941	H	0.685350	0.216223	0.136431
	H3942	H	0.693000	0.283092	0.273259
	H3943	H	0.709787	0.283072	0.239397
	H3944	H	0.685557	0.534712	0.135443
	H3945	H	0.706229	0.535057	0.148879
	H3946	H	0.709806	-0.032063	0.239515
	H3947	H	0.693018	-0.032334	0.273330
	H3948	H	0.768719	-0.033489	0.219595
	H3949	H	0.789348	-0.033468	0.233241
	H3950	H	0.771026	0.535669	0.156828
	H3951	H	0.792859	0.535511	0.156681
	Al3952	Al	0.749928	-0.499949	0.416860
	Al3953	Al	0.749870	-0.250015	0.416890
	Al3954	Al	0.666647	-0.249715	0.333225
	Al3955	Al	0.666689	-0.499749	0.333087
	O3956	O	0.763180	-0.459032	0.435775
	O3957	O	0.749082	-0.375154	0.400455
	O3958	O	0.750835	-0.125086	0.433306
	O3959	O	0.819948	-0.459475	0.481385
	O3960	O	0.738915	-0.458799	0.445438
	O3961	O	0.691222	-0.459593	0.540664
	O3962	O	0.738930	-0.290883	0.445510
	O3963	O	0.736636	-0.209113	0.398195
	O3964	O	0.680012	-0.209054	0.351575
	O3965	O	0.763290	-0.290541	0.435398
	O3966	O	0.760859	-0.208988	0.388349
	O3967	O	0.808696	-0.208947	0.293352
	O3968	O	0.691169	-0.291662	0.540627
	O3969	O	0.736656	-0.040837	0.398211
	O3970	O	0.680031	-0.040517	0.351749
	O3971	O	0.808753	-0.040999	0.293428
	O3972	O	0.760959	-0.040812	0.388378
	O3973	O	0.820051	-0.291319	0.481069
	O3974	O	0.679062	-0.125706	0.549931
	O3975	O	0.821009	-0.374459	0.283975
	C3976	C	0.797299	-0.285981	0.462758
	C3977	C	0.803076	-0.375250	0.467318
	C3978	C	0.797295	-0.464559	0.462830
	C3979	C	0.785908	-0.464314	0.453867
	C3980	C	0.780123	-0.374935	0.449418
	C3981	C	0.785917	-0.285641	0.453785
	C3982	C	0.767982	-0.374832	0.439335
	C3983	C	0.815216	-0.375217	0.477462
	C3984	C	0.734920	-0.375065	0.453445
	C3985	C	0.724808	-0.375223	0.474267
	C3986	C	0.719986	-0.286441	0.484112
	C3987	C	0.710524	-0.286551	0.503053
	C3988	C	0.705590	-0.375546	0.512567
	C3989	C	0.710505	-0.464505	0.502986
	C3990	C	0.719964	-0.464312	0.484043
	C3991	C	0.695324	-0.375589	0.532885
	C3992	C	0.731875	-0.124956	0.394424
	C3993	C	0.719758	-0.125112	0.384174
	C3994	C	0.713995	-0.035750	0.379671
	C3995	C	0.702633	-0.035708	0.370498
	C3996	C	0.696872	-0.125036	0.365797
	C3997	C	0.702629	-0.214352	0.370388
	C3998	C	0.713987	-0.214410	0.379556
	C3999	C	0.684750	-0.124785	0.355576
	C4000	C	0.764884	-0.125030	0.380331
	C4001	C	0.774982	-0.125013	0.359528
	C4002	C	0.779842	-0.214046	0.349844
	C4003	C	0.789322	-0.214103	0.330912
	C4004	C	0.794223	-0.125165	0.321266
	C4005	C	0.789409	-0.036211	0.330990
	C4006	C	0.779918	-0.036151	0.349888
	C4007	C	0.804587	-0.125027	0.301102
	H4008	H	0.792986	-0.282894	0.323604
	H4009	H	0.776176	-0.282940	0.357292
	H4010	H	0.801727	-0.217173	0.466306
	H4011	H	0.781532	-0.216494	0.450097
	H4012	H	0.748264	-0.374779	0.382375
	H4013	H	0.751713	-0.125366	0.451254
	H4014	H	0.678682	-0.125562	0.531678
	H4015	H	0.821551	-0.374697	0.302159
	H4016	H	0.718350	-0.283568	0.383364
	H4017	H	0.698167	-0.283278	0.366881
	H4018	H	0.706882	-0.217702	0.510486
	H4019	H	0.723685	-0.217518	0.476809
	H4020	H	0.698181	0.033106	0.367017
	H4021	H	0.718394	0.033052	0.383472
	H4022	H	0.723683	-0.533079	0.476748
	H4023	H	0.706885	-0.533410	0.510506
	H4024	H	0.781464	-0.533117	0.450184
	H4025	H	0.801720	-0.533391	0.466428
	H4026	H	0.776324	0.032996	0.357436
	H4027	H	0.793143	0.032677	0.323736
	Al4028	Al	0.749955	0.000131	0.416902
	Al4029	Al	0.749932	0.249863	0.416816
	Al4030	Al	0.666691	0.250259	0.333052
	Al4031	Al	0.666731	0.000256	0.333056
	O4032	O	0.763236	0.041084	0.435738
	O4033	O	0.749107	0.125046	0.400340
	O4034	O	0.750711	0.374950	0.433203
	O4035	O	0.819950	0.040369	0.481310
	O4036	O	0.738919	0.040920	0.445395
	O4037	O	0.691168	0.040994	0.540552
	O4038	O	0.738925	0.209042	0.445472
	O4039	O	0.736630	0.290531	0.398141
	O4040	O	0.679974	0.290997	0.351855
	O4041	O	0.763275	0.209333	0.435424
	O4042	O	0.760932	0.291209	0.388226
	O4043	O	0.808766	0.291547	0.293233
	O4044	O	0.691252	0.208562	0.540693
	O4045	O	0.736645	0.459258	0.398223
	O4046	O	0.680000	0.459480	0.351746
	O4047	O	0.808774	0.459650	0.293239
	O4048	O	0.761029	0.459466	0.388401
	O4049	O	0.819992	0.208793	0.481232
	O4050	O	0.678963	0.374362	0.549850
	O4051	O	0.820984	0.125849	0.284049
	C4052	C	0.797386	0.214455	0.462626
	C4053	C	0.803096	0.124932	0.467320
	C4054	C	0.797266	0.035796	0.463123
	C4055	C	0.785909	0.035538	0.454144
	C4056	C	0.780185	0.124858	0.449386
	C4057	C	0.785988	0.214120	0.453679
	C4058	C	0.768048	0.125179	0.439254
	C4059	C	0.815234	0.124647	0.477460
	C4060	C	0.734948	0.124916	0.453471
	C4061	C	0.724888	0.124828	0.474347
	C4062	C	0.720037	0.213766	0.484076
	C4063	C	0.710568	0.213719	0.503032
	C4064	C	0.705671	0.124818	0.512664
	C4065	C	0.710521	0.036156	0.502912
	C4066	C	0.719984	0.036055	0.483955
	C4067	C	0.695326	0.124816	0.532877
	C4068	C	0.731917	0.374932	0.394355
	C4069	C	0.719790	0.375011	0.384105
	C4070	C	0.714024	0.464170	0.379501
	C4071	C	0.702656	0.464403	0.370432
	C4072	C	0.696864	0.375170	0.365922
	C4073	C	0.702648	0.285925	0.370434
	C4074	C	0.714003	0.285771	0.379593
	C4075	C	0.684738	0.375437	0.355657
	C4076	C	0.764976	0.375249	0.380304
	C4077	C	0.775115	0.375391	0.359627
	C4078	C	0.779887	0.286320	0.349626
	C4079	C	0.789395	0.286469	0.330688
	C4080	C	0.794380	0.375461	0.321276
	C4081	C	0.789542	0.464552	0.331128
	C4082	C	0.780060	0.464371	0.350110
	C4083	C	0.804656	0.375602	0.300937
	H4084	H	0.792957	0.217272	0.322990
	H4085	H	0.776122	0.217309	0.356769
	H4086	H	0.801884	0.282874	0.466040
	H4087	H	0.781565	0.282973	0.449807
	H4088	H	0.748323	0.124693	0.382295
	H4089	H	0.751421	0.374654	0.451189
	H4090	H	0.678411	0.374691	0.531668
	H4091	H	0.821430	0.126112	0.302166
	H4092	H	0.718444	0.216937	0.383264
	H4093	H	0.698224	0.217146	0.366790
	H4094	H	0.706872	0.282220	0.510390
	H4095	H	0.723657	0.282750	0.476563
	H4096	H	0.698262	0.533118	0.366776
	H4097	H	0.718434	0.532626	0.383004
	H4098	H	0.723605	-0.032842	0.476400
	H4099	H	0.706822	-0.032970	0.510215
	H4100	H	0.781443	-0.033296	0.450752
	H4101	H	0.801637	-0.033309	0.466943
	H4102	H	0.776405	0.533561	0.357664
	H4103	H	0.793205	0.533285	0.323766
	Al4104	Al	0.762520	-0.501112	0.649833
	Al4105	Al	0.762502	-0.250369	0.649860
	Al4106	Al	0.679104	-0.250948	0.566850
	Al4107	Al	0.679147	-0.500064	0.566733
	O4108	O	0.775128	-0.460264	0.670912
	O4109	O	0.762349	-0.375407	0.632900
	O4110	O	0.762360	-0.126024	0.666668
	O4111	O	0.833135	-0.460576	0.711496
	O4112	O	0.749201	-0.460065	0.673188
	O4113	O	0.687059	-0.458778	0.680637
	O4114	O	0.749265	-0.291718	0.673220
	O4115	O	0.749863	-0.209693	0.628223
	O4116	O	0.691760	-0.209573	0.587871
	O4117	O	0.775125	-0.291965	0.670838
	O4118	O	0.774554	-0.209652	0.623701
	O4119	O	0.822250	-0.209864	0.528411
	O4120	O	0.687086	-0.290802	0.680670
	O4121	O	0.749908	-0.041459	0.628131
	O4122	O	0.691782	-0.041393	0.587744
	O4123	O	0.822272	-0.041591	0.528455
	O4124	O	0.774587	-0.041603	0.623680
	O4125	O	0.833226	-0.292023	0.711406
	O4126	O	0.673880	-0.125160	0.684638
	O4127	O	0.834228	-0.375406	0.516427
	C4128	C	0.810024	-0.286339	0.694443
	C4129	C	0.815969	-0.376185	0.698255
	C4130	C	0.810001	-0.465982	0.694387
	C4131	C	0.798347	-0.465906	0.686908
	C4132	C	0.792408	-0.376144	0.683213
	C4133	C	0.798369	-0.286381	0.686924
	C4134	C	0.779996	-0.376273	0.674259
	C4135	C	0.828359	-0.375980	0.707700
	C4136	C	0.743977	-0.375901	0.674248
	C4137	C	0.730646	-0.375913	0.676527
	C4138	C	0.724353	-0.286002	0.676629
	C4139	C	0.712008	-0.285479	0.676869
	C4140	C	0.705647	-0.375032	0.677032
	C4141	C	0.711927	-0.465170	0.676502
	C4142	C	0.724287	-0.465566	0.676285
	C4143	C	0.692327	-0.374793	0.679464
	C4144	C	0.745057	-0.125633	0.624436
	C4145	C	0.732684	-0.125654	0.615103
	C4146	C	0.726764	-0.035878	0.611097
	C4147	C	0.715097	-0.035731	0.603619
	C4148	C	0.709090	-0.125253	0.600114
	C4149	C	0.715028	-0.215021	0.603907
	C4150	C	0.726698	-0.215270	0.611361
	C4151	C	0.696665	-0.125474	0.591113
	C4152	C	0.778714	-0.125740	0.615997
	C4153	C	0.788990	-0.125365	0.595728
	C4154	C	0.793823	-0.214303	0.586028
	C4155	C	0.803300	-0.214318	0.567068
	C4156	C	0.808200	-0.125488	0.557400
	C4157	C	0.803376	-0.036459	0.567129
	C4158	C	0.793908	-0.036361	0.586144
	C4159	C	0.818307	-0.125594	0.536556
	H4160	H	0.806952	-0.283374	0.559734
	H4161	H	0.790168	-0.283119	0.593460
	H4162	H	0.814557	-0.216750	0.697356
	H4163	H	0.793867	-0.216743	0.684008
	H4164	H	0.761942	-0.374876	0.614662
	H4165	H	0.761774	-0.126426	0.684831
	H4166	H	0.674854	-0.125679	0.666425
	H4167	H	0.835186	-0.374870	0.534219
	H4168	H	0.731153	-0.285239	0.614358
	H4169	H	0.710491	-0.284606	0.600943
	H4170	H	0.707304	-0.215142	0.677080
	H4171	H	0.729090	-0.216101	0.676767
	H4172	H	0.710608	0.033809	0.600486
	H4173	H	0.731309	0.033847	0.613877
	H4174	H	0.728978	-0.535680	0.676205
	H4175	H	0.707159	-0.535049	0.676509
	H4176	H	0.793852	-0.535389	0.683926
	H4177	H	0.814509	-0.535816	0.697272
	H4178	H	0.790300	0.032643	0.593644
	H4179	H	0.807084	0.032469	0.559783
	Al4180	Al	0.762561	-0.001551	0.649842
	Al4181	Al	0.762541	0.249482	0.649891
	Al4182	Al	0.679131	0.249031	0.566748
	Al4183	Al	0.679177	-0.000258	0.566806
	O4184	O	0.775103	0.039538	0.671061
	O4185	O	0.762356	0.124018	0.632989
	O4186	O	0.762359	0.374241	0.666653
	O4187	O	0.833233	0.039843	0.711503
	O4188	O	0.749205	0.039682	0.672968
	O4189	O	0.687025	0.041178	0.680277
	O4190	O	0.749263	0.208139	0.673300
	O4191	O	0.749852	0.290285	0.628305
	O4192	O	0.691694	0.290472	0.587908
	O4193	O	0.775155	0.207693	0.670763
	O4194	O	0.774575	0.290208	0.623791
	O4195	O	0.822256	0.290410	0.528524
	O4196	O	0.687131	0.209499	0.680754
	O4197	O	0.749880	0.458525	0.628128
	O4198	O	0.691743	0.458594	0.587788
	O4199	O	0.822380	0.458522	0.528700
	O4200	O	0.774537	0.458116	0.623723
	O4201	O	0.833259	0.208095	0.711562
	O4202	O	0.673877	0.375053	0.684644
	O4203	O	0.834183	0.124916	0.516398
	C4204	C	0.810117	0.213614	0.694194
	C4205	C	0.816067	0.124001	0.698260
	C4206	C	0.810097	0.034248	0.694506
	C4207	C	0.798441	0.034217	0.687085
	C4208	C	0.792461	0.123776	0.683156
	C4209	C	0.798471	0.213489	0.686707
	C4210	C	0.779998	0.123760	0.674319
	C4211	C	0.828403	0.124043	0.707756
	C4212	C	0.743974	0.124031	0.674169
	C4213	C	0.730649	0.124157	0.676482
	C4214	C	0.724348	0.214148	0.676968
	C4215	C	0.712038	0.214171	0.677164
	C4216	C	0.705674	0.124466	0.676906
	C4217	C	0.711973	0.034402	0.676352
	C4218	C	0.724296	0.034297	0.676195
	C4219	C	0.692323	0.125030	0.679358
	C4220	C	0.745029	0.374350	0.624451
	C4221	C	0.732701	0.374460	0.614893
	C4222	C	0.726758	0.464221	0.610905
	C4223	C	0.715079	0.463997	0.603521
	C4224	C	0.709037	0.374329	0.600124
	C4225	C	0.714999	0.284662	0.603966
	C4226	C	0.726678	0.284737	0.611288
	C4227	C	0.696629	0.374518	0.591183
	C4228	C	0.778641	0.374141	0.615903
	C4229	C	0.788950	0.374292	0.595642
	C4230	C	0.793829	0.285448	0.585956
	C4231	C	0.803301	0.285507	0.567011
	C4232	C	0.808189	0.374466	0.557343
	C4233	C	0.803400	0.463233	0.567250
	C4234	C	0.793927	0.463067	0.586204
	C4235	C	0.818301	0.374523	0.536576
	H4236	H	0.806908	0.216767	0.559450
	H4237	H	0.790106	0.216143	0.593222
	H4238	H	0.814623	0.283220	0.697094
	H4239	H	0.793976	0.283000	0.683663
	H4240	H	0.761607	0.123717	0.614808
	H4241	H	0.761639	0.373918	0.684793
	H4242	H	0.674659	0.374758	0.666444
	H4243	H	0.835249	0.125164	0.534236
	H4244	H	0.731148	0.215048	0.614471
	H4245	H	0.710430	0.215059	0.601279
	H4246	H	0.707311	0.284201	0.677503
	H4247	H	0.729140	0.283883	0.677277
	H4248	H	0.710576	0.533630	0.600484
	H4249	H	0.731277	0.534111	0.613744
	H4250	H	0.729041	-0.035544	0.675804
	H4251	H	0.707164	-0.035056	0.676096
	H4252	H	0.793877	-0.035457	0.684418
	H4253	H	0.814559	-0.035540	0.697729
	H4254	H	0.790288	0.532107	0.593718
	H4255	H	0.807095	0.532353	0.559926
	Al4256	Al	0.756536	-0.500554	0.785275
	Al4257	Al	0.756536	-0.250072	0.785347
	Al4258	Al	0.673279	-0.250201	0.701738
	Al4259	Al	0.673236	-0.500366	0.701699
	O4260	O	0.768671	-0.458827	0.808311
	O4261	O	0.757229	-0.375317	0.768276
	O4262	O	0.755804	-0.125436	0.802348
	O4263	O	0.827736	-0.459646	0.845486
	O4264	O	0.742652	-0.460080	0.806308
	O4265	O	0.680505	-0.458698	0.812428
	O4266	O	0.742705	-0.291947	0.806586
	O4267	O	0.744369	-0.209742	0.762261
	O4268	O	0.685370	-0.209377	0.724873
	O4269	O	0.768686	-0.290724	0.808333
	O4270	O	0.770352	-0.209064	0.764070
	O4271	O	0.832470	-0.210162	0.756377
	O4272	O	0.680558	-0.290355	0.812555
	O4273	O	0.744475	-0.041541	0.762006
	O4274	O	0.685411	-0.041079	0.724518
	O4275	O	0.832551	-0.041630	0.756413
	O4276	O	0.770471	-0.040830	0.764320
	O4277	O	0.827792	-0.291577	0.845400
	O4278	O	0.667437	-0.124689	0.816465
	O4279	O	0.845560	-0.375684	0.750051
	C4280	C	0.804173	-0.285757	0.829989
	C4281	C	0.810270	-0.375553	0.833366
	C4282	C	0.804112	-0.465242	0.830063
	C4283	C	0.792248	-0.464987	0.823722
	C4284	C	0.786156	-0.375138	0.820465
	C4285	C	0.792319	-0.285432	0.823640
	C4286	C	0.773588	-0.374804	0.811808
	C4287	C	0.822829	-0.375544	0.841956
	C4288	C	0.737426	-0.375955	0.807416
	C4289	C	0.724104	-0.375529	0.809479
	C4290	C	0.717838	-0.285234	0.809548
	C4291	C	0.705517	-0.285055	0.809431
	C4292	C	0.699129	-0.374798	0.809332
	C4293	C	0.705429	-0.464947	0.809094
	C4294	C	0.717752	-0.465232	0.809158
	C4295	C	0.685803	-0.374672	0.811481
	C4296	C	0.739481	-0.125652	0.758665
	C4297	C	0.726878	-0.125336	0.750062
	C4298	C	0.720843	-0.035479	0.746610
	C4299	C	0.709011	-0.035518	0.740222
	C4300	C	0.702882	-0.125221	0.737031
	C4301	C	0.708910	-0.215061	0.740460
	C4302	C	0.720746	-0.215065	0.746837
	C4303	C	0.690295	-0.125291	0.728183
	C4304	C	0.775659	-0.125180	0.763041
	C4305	C	0.788997	-0.125384	0.760450
	C4306	C	0.795278	-0.215344	0.760113
	C4307	C	0.807602	-0.215451	0.759874
	C4308	C	0.813953	-0.125748	0.759907
	C4309	C	0.807670	-0.035790	0.760020
	C4310	C	0.795349	-0.035681	0.760271
	C4311	C	0.827255	-0.125811	0.757612
	H4312	H	0.812321	-0.285433	0.759807
	H4313	H	0.790496	-0.285171	0.760131
	H4314	H	0.808767	-0.215664	0.832319
	H4315	H	0.787795	-0.215066	0.821078
	H4316	H	0.758181	-0.375070	0.750134
	H4317	H	0.754621	-0.124987	0.820557
	H4318	H	0.668574	-0.123987	0.798245
	H4319	H	0.844934	-0.375619	0.768183
	H4320	H	0.725262	-0.285375	0.749188
	H4321	H	0.704340	-0.285230	0.737940
	H4322	H	0.700778	-0.215132	0.809362
	H4323	H	0.722634	-0.215098	0.809527
	H4324	H	0.704523	0.034846	0.737582
	H4325	H	0.725461	0.034773	0.748835
	H4326	H	0.722480	-0.535456	0.808832
	H4327	H	0.700655	-0.535064	0.808797
	H4328	H	0.787653	-0.534899	0.821241
	H4329	H	0.808667	-0.535633	0.832423
	H4330	H	0.790633	0.034523	0.760459
	H4331	H	0.812472	0.034070	0.760072
	Al4332	Al	0.756546	-0.000300	0.785284
	Al4333	Al	0.756524	0.249715	0.785275
	Al4334	Al	0.673233	0.249924	0.701771
	Al4335	Al	0.673228	-0.000044	0.701637
	O4336	O	0.768582	0.040695	0.808514
	O4337	O	0.757315	0.124367	0.768322
	O4338	O	0.755794	0.374577	0.802420
	O4339	O	0.827679	0.039700	0.845419
	O4340	O	0.742631	0.039811	0.806240
	O4341	O	0.680522	0.041402	0.812579
	O4342	O	0.742749	0.208121	0.806714
	O4343	O	0.744331	0.290315	0.762317
	O4344	O	0.685324	0.291169	0.724933
	O4345	O	0.768666	0.208977	0.808239
	O4346	O	0.770316	0.290619	0.763916
	O4347	O	0.832482	0.289341	0.756580
	O4348	O	0.680561	0.209679	0.812577
	O4349	O	0.744412	0.458508	0.761973
	O4350	O	0.685412	0.459240	0.724740
	O4351	O	0.832578	0.457914	0.756664
	O4352	O	0.770367	0.458643	0.764314
	O4353	O	0.827761	0.208074	0.845432
	O4354	O	0.667423	0.375113	0.816546
	O4355	O	0.845598	0.124234	0.750106
	C4356	C	0.804165	0.214483	0.829948
	C4357	C	0.810235	0.124517	0.833272
	C4358	C	0.804102	0.034741	0.829917
	C4359	C	0.792254	0.035014	0.823621
	C4360	C	0.786142	0.124923	0.820428
	C4361	C	0.792307	0.214647	0.823637
	C4362	C	0.773556	0.124759	0.811841
	C4363	C	0.822803	0.124191	0.841929
	C4364	C	0.737439	0.124133	0.807399
	C4365	C	0.724103	0.124754	0.809426
	C4366	C	0.717827	0.214893	0.809726
	C4367	C	0.705494	0.215320	0.809690
	C4368	C	0.699129	0.125383	0.809410
	C4369	C	0.705398	0.035312	0.809111
	C4370	C	0.717721	0.034940	0.809193
	C4371	C	0.685797	0.125423	0.811499
	C4372	C	0.739460	0.374598	0.758661
	C4373	C	0.726934	0.374452	0.749840
	C4374	C	0.720846	0.464620	0.746418
	C4375	C	0.709023	0.464581	0.740023
	C4376	C	0.702879	0.374788	0.736810
	C4377	C	0.708956	0.284710	0.740258
	C4378	C	0.720783	0.284646	0.746641
	C4379	C	0.690321	0.375115	0.728180
	C4380	C	0.775609	0.374618	0.762937
	C4381	C	0.788977	0.374537	0.760473
	C4382	C	0.795291	0.284584	0.760146
	C4383	C	0.807619	0.284320	0.759952
	C4384	C	0.813969	0.374159	0.759990
	C4385	C	0.807675	0.464095	0.760115
	C4386	C	0.795339	0.464384	0.760334
	C4387	C	0.827292	0.373776	0.757642
	H4388	H	0.812337	0.214267	0.759898
	H4389	H	0.790506	0.214689	0.760305
	H4390	H	0.808727	0.284620	0.832443
	H4391	H	0.787714	0.284866	0.821295
	H4392	H	0.758537	0.125176	0.750129
	H4393	H	0.754685	0.375057	0.820570
	H4394	H	0.668620	0.375554	0.798315
	H4395	H	0.844675	0.124221	0.768237
	H4396	H	0.725342	0.214610	0.749215
	H4397	H	0.704353	0.214530	0.737815
	H4398	H	0.700776	0.285648	0.809888
	H4399	H	0.722637	0.284854	0.810084
	H4400	H	0.704466	0.534803	0.737400
	H4401	H	0.725446	0.534597	0.748784
	H4402	H	0.722409	-0.035275	0.809154
	H4403	H	0.700617	-0.034631	0.808865
	H4404	H	0.787666	-0.034944	0.821202
	H4405	H	0.808652	-0.035395	0.832383
	H4406	H	0.790598	0.534547	0.760618
	H4407	H	0.812462	0.534041	0.760169
	Al4408	Al	0.749998	-0.500084	0.916775
	Al4409	Al	0.750050	-0.249937	0.916757
	Al4410	Al	0.666643	-0.249919	0.833498
	Al4411	Al	0.666634	-0.499848	0.833552
	O4412	O	0.762130	-0.459554	0.939757
	O4413	O	0.750713	-0.375038	0.899710
	O4414	O	0.749252	-0.124817	0.933782
	O4415	O	0.821164	-0.459955	0.977033
	O4416	O	0.736164	-0.459269	0.938008
	O4417	O	0.673975	-0.458113	0.943935
	O4418	O	0.736199	-0.291089	0.937854
	O4419	O	0.737917	-0.209179	0.893377
	O4420	O	0.678754	-0.208960	0.856852
	O4421	O	0.762137	-0.291179	0.939905
	O4422	O	0.763885	-0.209080	0.895774
	O4423	O	0.826001	-0.210358	0.889592
	O4424	O	0.674001	-0.289814	0.943950
	O4425	O	0.737922	-0.041039	0.893443
	O4426	O	0.678796	-0.040799	0.856614
	O4427	O	0.826067	-0.042023	0.889773
	O4428	O	0.763902	-0.040869	0.895789
	O4429	O	0.821292	-0.291731	0.976824
	O4430	O	0.660888	-0.124237	0.948005
	O4431	O	0.839136	-0.375642	0.885565
	C4432	C	0.797606	-0.285833	0.961530
	C4433	C	0.803694	-0.375607	0.964871
	C4434	C	0.797555	-0.465454	0.961638
	C4435	C	0.785712	-0.465300	0.955342
	C4436	C	0.779647	-0.375382	0.951932
	C4437	C	0.785768	-0.285507	0.955234
	C4438	C	0.767044	-0.375321	0.943322
	C4439	C	0.816287	-0.375889	0.973403
	C4440	C	0.730920	-0.375112	0.938928
	C4441	C	0.717575	-0.375016	0.941051
	C4442	C	0.711294	-0.284995	0.940937
	C4443	C	0.698971	-0.284481	0.940778
	C4444	C	0.692580	-0.374152	0.940768
	C4445	C	0.698867	-0.464263	0.940784
	C4446	C	0.711191	-0.464805	0.940962
	C4447	C	0.679244	-0.374056	0.942932
	C4448	C	0.733002	-0.125081	0.890001
	C4449	C	0.720405	-0.124967	0.881460
	C4450	C	0.714296	-0.035160	0.878197
	C4451	C	0.702414	-0.034969	0.871943
	C4452	C	0.696285	-0.124875	0.868785
	C4453	C	0.702401	-0.214712	0.872108
	C4454	C	0.714270	-0.214840	0.878365
	C4455	C	0.683720	-0.124889	0.860179
	C4456	C	0.769173	-0.124961	0.894774
	C4457	C	0.782514	-0.125028	0.892555
	C4458	C	0.788804	-0.215259	0.892354
	C4459	C	0.801116	-0.215536	0.892493
	C4460	C	0.807475	-0.125849	0.892848
	C4461	C	0.801197	-0.035620	0.892914
	C4462	C	0.788889	-0.035348	0.892785
	C4463	C	0.820777	-0.126065	0.890721
	H4464	H	0.805858	-0.285759	0.892400
	H4465	H	0.784008	-0.284907	0.892173
	H4466	H	0.802230	-0.215734	0.963985
	H4467	H	0.781196	-0.215486	0.952850
	H4468	H	0.751614	-0.375209	0.881581
	H4469	H	0.748157	-0.124645	0.951966
	H4470	H	0.662148	-0.123959	0.929794
	H4471	H	0.838117	-0.376585	0.903794
	H4472	H	0.718823	-0.285035	0.880795
	H4473	H	0.697849	-0.284879	0.869696
	H4474	H	0.694250	-0.214215	0.940617
	H4475	H	0.716085	-0.214984	0.941005
	H4476	H	0.697881	0.035329	0.869377
	H4477	H	0.718892	0.034893	0.880517
	H4478	H	0.715923	-0.535202	0.940990
	H4479	H	0.694078	-0.533993	0.940599
	H4480	H	0.781122	-0.535318	0.952996
	H4481	H	0.802094	-0.535698	0.964071
	H4482	H	0.784133	0.034983	0.892847
	H4483	H	0.805975	0.034223	0.893085
	Al4484	Al	0.749994	-0.000029	0.916745
	Al4485	Al	0.750006	0.249749	0.916619
	Al4486	Al	0.666674	0.250276	0.833566
	Al4487	Al	0.666621	0.000164	0.833509
	O4488	O	0.762106	0.041046	0.939891
	O4489	O	0.750758	0.124942	0.899572
	O4490	O	0.749285	0.374587	0.933748
	O4491	O	0.821237	0.040299	0.976920
	O4492	O	0.736119	0.040794	0.937798
	O4493	O	0.673992	0.041193	0.944042
	O4494	O	0.736128	0.208866	0.937632
	O4495	O	0.737949	0.291414	0.893386
	O4496	O	0.678681	0.291383	0.856902
	O4497	O	0.762085	0.209160	0.940007
	O4498	O	0.763875	0.290831	0.895564
	O4499	O	0.825982	0.289947	0.889715
	O4500	O	0.674002	0.209625	0.944008
	O4501	O	0.737877	0.459719	0.893518
	O4502	O	0.678811	0.459505	0.856565
	O4503	O	0.826090	0.458247	0.889941
	O4504	O	0.763890	0.458872	0.895692
	O4505	O	0.821258	0.208295	0.976876
	O4506	O	0.660845	0.375656	0.948016
	O4507	O	0.839191	0.124233	0.885591
	C4508	C	0.797662	0.214483	0.961406
	C4509	C	0.803726	0.124508	0.964815
	C4510	C	0.797545	0.034919	0.961722
	C4511	C	0.785683	0.035083	0.955449
	C4512	C	0.779631	0.125057	0.952053
	C4513	C	0.785798	0.214618	0.955151
	C4514	C	0.767029	0.125074	0.943387
	C4515	C	0.816323	0.124495	0.973432
	C4516	C	0.730860	0.124775	0.938754
	C4517	C	0.717540	0.124683	0.940832
	C4518	C	0.711238	0.214706	0.940782
	C4519	C	0.698916	0.215104	0.940754
	C4520	C	0.692562	0.125350	0.940782
	C4521	C	0.698865	0.035246	0.940918
	C4522	C	0.711207	0.034880	0.940928
	C4523	C	0.679256	0.125502	0.943036
	C4524	C	0.732996	0.375529	0.889957
	C4525	C	0.720384	0.375320	0.881499
	C4526	C	0.714248	0.465065	0.878264
	C4527	C	0.702378	0.465044	0.872060
	C4528	C	0.696260	0.375212	0.868836
	C4529	C	0.702380	0.285423	0.872128
	C4530	C	0.714252	0.285457	0.878350
	C4531	C	0.683678	0.375453	0.860278
	C4532	C	0.769137	0.374860	0.894611
	C4533	C	0.782487	0.374622	0.892480
	C4534	C	0.788797	0.284748	0.892525
	C4535	C	0.801135	0.284563	0.892675
	C4536	C	0.807479	0.374439	0.892772
	C4537	C	0.801175	0.464527	0.892721
	C4538	C	0.788827	0.464651	0.892578
	C4539	C	0.820789	0.374180	0.890771
	H4540	H	0.805840	0.214333	0.892781
	H4541	H	0.784039	0.214628	0.892543
	H4542	H	0.802246	0.284424	0.963709
	H4543	H	0.781245	0.284903	0.952731
	H4544	H	0.751828	0.124315	0.881361
	H4545	H	0.748347	0.374746	0.952075
	H4546	H	0.661821	0.375106	0.929847
	H4547	H	0.838321	0.123935	0.903816
	H4548	H	0.718808	0.215407	0.880622
	H4549	H	0.697813	0.215191	0.869723
	H4550	H	0.694198	0.285349	0.940509
	H4551	H	0.715991	0.284737	0.940638
	H4552	H	0.697818	0.535180	0.869639
	H4553	H	0.718847	0.535498	0.880467
	H4554	H	0.715968	-0.035204	0.940875
	H4555	H	0.694111	-0.034945	0.940783
	H4556	H	0.781064	-0.034933	0.953230
	H4557	H	0.802062	-0.035183	0.964277
	H4558	H	0.784076	0.534954	0.892642
	H4559	H	0.805943	0.534523	0.892895
	Al4560	Al	0.916617	-0.500254	0.083578
	Al4561	Al	0.916672	-0.250152	0.083338
	Al4562	Al	0.833368	-0.250518	0.000154
	Al4563	Al	0.833334	-0.500495	0.000020
	O4564	O	0.928735	-0.458961	0.106591
	O4565	O	0.917319	-0.375293	0.066377
	O4566	O	0.915999	-0.125500	0.100429
	O4567	O	0.987973	-0.458628	0.143326
	O4568	O	0.902739	-0.459899	0.104400
	O4569	O	0.840673	-0.459116	0.110495
	O4570	O	0.902830	-0.291372	0.104488
	O4571	O	0.904520	-0.209116	0.060146
	O4572	O	0.845381	-0.209426	0.023461
	O4573	O	0.928694	-0.291089	0.106724
	O4574	O	0.930531	-0.208825	0.062277
	O4575	O	0.992716	-0.209051	0.056300
	O4576	O	0.840619	-0.290952	0.110505
	O4577	O	0.904543	-0.041058	0.060312
	O4578	O	0.845416	-0.041399	0.023268
	O4579	O	0.992695	-0.041010	0.056303
	O4580	O	0.930574	-0.040732	0.062316
	O4581	O	0.987845	-0.290642	0.143615
	O4582	O	0.827462	-0.124998	0.114588
	O4583	O	1.005801	-0.375018	0.052269
	C4584	C	0.964278	-0.285039	0.128176
	C4585	C	0.970408	-0.374926	0.131431
	C4586	C	0.964254	-0.464666	0.128222
	C4587	C	0.952360	-0.464699	0.121977
	C4588	C	0.946259	-0.374874	0.118568
	C4589	C	0.952383	-0.285113	0.121872
	C4590	C	0.933663	-0.374864	0.110062
	C4591	C	0.982981	-0.374785	0.140002
	C4592	C	0.897537	-0.375379	0.105377
	C4593	C	0.884209	-0.375178	0.107415
	C4594	C	0.877902	-0.285069	0.107744
	C4595	C	0.865570	-0.284773	0.107657
	C4596	C	0.859223	-0.374707	0.107363
	C4597	C	0.865551	-0.464820	0.107129
	C4598	C	0.877863	-0.465009	0.107242
	C4599	C	0.845901	-0.374859	0.109478
	C4600	C	0.899600	-0.125013	0.056774
	C4601	C	0.887032	-0.125112	0.048207
	C4602	C	0.880937	-0.035153	0.044810
	C4603	C	0.869045	-0.035132	0.038550
	C4604	C	0.862907	-0.125004	0.035321
	C4605	C	0.869022	-0.214843	0.038583
	C4606	C	0.880918	-0.214905	0.044850
	C4607	C	0.850342	-0.125319	0.026779
	C4608	C	0.935799	-0.124863	0.061248
	C4609	C	0.949140	-0.124976	0.059124
	C4610	C	0.955458	-0.215055	0.059210
	C4611	C	0.967772	-0.215096	0.059399
	C4612	C	0.974112	-0.125126	0.059361
	C4613	C	0.967786	-0.035172	0.059467
	C4614	C	0.955484	-0.035181	0.059306
	C4615	C	0.987457	-0.124955	0.057306
	H4616	H	0.972556	-0.285000	0.059610
	H4617	H	0.950679	-0.285010	0.059147
	H4618	H	0.968837	-0.214610	0.130552
	H4619	H	0.947801	-0.215144	0.119532
	H4620	H	0.918129	-0.376106	0.048122
	H4621	H	0.915212	-0.125687	0.118586
	H4622	H	0.828536	-0.125487	0.096434
	H4623	H	1.004529	-0.375166	0.070393
	H4624	H	0.885482	-0.285025	0.047353
	H4625	H	0.864485	-0.285542	0.036401
	H4626	H	0.860853	-0.214670	0.107822
	H4627	H	0.882723	-0.215355	0.108069
	H4628	H	0.864449	0.034930	0.036255
	H4629	H	0.885458	0.035349	0.047225
	H4630	H	0.882597	-0.535259	0.107266
	H4631	H	0.860760	-0.534737	0.106945
	H4632	H	0.947781	-0.534901	0.119667
	H4633	H	0.968792	-0.535083	0.130603
	H4634	H	0.950746	0.035074	0.059265
	H4635	H	0.972540	0.034988	0.059674
	Al4636	Al	0.916675	-0.000103	0.083433
	Al4637	Al	0.916633	0.249927	0.083428
	Al4638	Al	0.833367	0.249583	0.000028
	Al4639	Al	0.833313	-0.000315	0.000118
	O4640	O	0.928713	0.040987	0.106794
	O4641	O	0.917384	0.125030	0.066464
	O4642	O	0.915989	0.374903	0.100542
	O4643	O	0.987874	0.040709	0.143669
	O4644	O	0.902771	0.040537	0.104351
	O4645	O	0.840597	0.041186	0.110339
	O4646	O	0.902775	0.208936	0.104518
	O4647	O	0.904553	0.290972	0.060263
	O4648	O	0.845360	0.290560	0.023443
	O4649	O	0.928779	0.208922	0.106589
	O4650	O	0.930526	0.290709	0.062353
	O4651	O	0.992669	0.290807	0.056261
	O4652	O	0.840647	0.209591	0.110572
	O4653	O	0.904467	0.459153	0.060452
	O4654	O	0.845432	0.458874	0.023327
	O4655	O	0.992691	0.458972	0.056360
	O4656	O	0.930512	0.458826	0.062426
	O4657	O	0.987939	0.208753	0.143352
	O4658	O	0.827466	0.374514	0.114453
	O4659	O	1.005831	0.124885	0.052283
	C4660	C	0.964280	0.214593	0.128188
	C4661	C	0.970372	0.124907	0.131451
	C4662	C	0.964246	0.035256	0.128369
	C4663	C	0.952361	0.035243	0.122131
	C4664	C	0.946286	0.124908	0.118693
	C4665	C	0.952398	0.214622	0.121968
	C4666	C	0.933687	0.124973	0.110174
	C4667	C	0.982968	0.124694	0.140102
	C4668	C	0.897525	0.124723	0.105428
	C4669	C	0.884187	0.124745	0.107611
	C4670	C	0.877891	0.214822	0.107564
	C4671	C	0.865557	0.214951	0.107394
	C4672	C	0.859216	0.125086	0.107357
	C4673	C	0.865494	0.035019	0.107314
	C4674	C	0.877831	0.034934	0.107461
	C4675	C	0.845884	0.125369	0.109485
	C4676	C	0.899590	0.374926	0.056839
	C4677	C	0.886978	0.374672	0.048305
	C4678	C	0.880914	0.464564	0.044810
	C4679	C	0.869045	0.464812	0.038605
	C4680	C	0.862900	0.374773	0.035549
	C4681	C	0.868995	0.284978	0.038916
	C4682	C	0.880854	0.284698	0.045127
	C4683	C	0.850328	0.374632	0.026758
	C4684	C	0.935781	0.374740	0.061305
	C4685	C	0.949122	0.374420	0.059235
	C4686	C	0.955462	0.284542	0.059456
	C4687	C	0.967790	0.284789	0.059556
	C4688	C	0.974098	0.374789	0.059385
	C4689	C	0.967766	0.464603	0.059290
	C4690	C	0.955435	0.464334	0.059125
	C4691	C	0.987414	0.374898	0.057318
	H4692	H	0.972535	0.214726	0.059882
	H4693	H	0.950743	0.214357	0.059583
	H4694	H	0.968865	0.284664	0.130388
	H4695	H	0.947880	0.284805	0.119486
	H4696	H	0.918385	0.125254	0.048301
	H4697	H	0.915033	0.374071	0.118669
	H4698	H	0.828421	0.374172	0.096266
	H4699	H	1.004822	0.124369	0.070481
	H4700	H	0.885315	0.214334	0.047935
	H4701	H	0.864327	0.215023	0.036916
	H4702	H	0.860818	0.284874	0.107342
	H4703	H	0.882638	0.284871	0.107654
	H4704	H	0.864497	0.535265	0.036398
	H4705	H	0.885505	0.534779	0.047417
	H4706	H	0.882589	-0.035164	0.107435
	H4707	H	0.860728	-0.035130	0.107151
	H4708	H	0.947788	-0.034937	0.119725
	H4709	H	0.968778	-0.034956	0.130778
	H4710	H	0.950665	0.534433	0.058929
	H4711	H	0.972530	0.534674	0.059314
	Al4712	Al	0.910099	-0.499947	0.215154
	Al4713	Al	0.910126	-0.249963	0.215134
	Al4714	Al	0.826777	-0.250180	0.131565
	Al4715	Al	0.826826	-0.500259	0.131467
	O4716	O	0.922232	-0.459028	0.238345
	O4717	O	0.910854	-0.374909	0.198126
	O4718	O	0.909383	-0.124768	0.232018
	O4719	O	0.981336	-0.459248	0.275360
	O4720	O	0.896234	-0.459411	0.236115
	O4721	O	0.834028	-0.458022	0.243518
	O4722	O	0.896265	-0.291089	0.236255
	O4723	O	0.898008	-0.209179	0.191974
	O4724	O	0.838906	-0.209375	0.154679
	O4725	O	0.922268	-0.290847	0.238095
	O4726	O	0.923979	-0.209148	0.193825
	O4727	O	0.986170	-0.209379	0.187913
	O4728	O	0.834141	-0.289416	0.243924
	O4729	O	0.897972	-0.040869	0.191909
	O4730	O	0.838940	-0.041127	0.154766
	O4731	O	0.986167	-0.041289	0.187910
	O4732	O	0.924017	-0.040941	0.193814
	O4733	O	0.981394	-0.291094	0.275270
	O4734	O	0.821004	-0.124096	0.250454
	O4735	O	0.999256	-0.375628	0.183725
	C4736	C	0.957722	-0.285351	0.259921
	C4737	C	0.963821	-0.375087	0.263374
	C4738	C	0.957697	-0.465001	0.260087
	C4739	C	0.945851	-0.465116	0.253782
	C4740	C	0.939759	-0.375208	0.250297
	C4741	C	0.945876	-0.285434	0.253613
	C4742	C	0.927162	-0.375138	0.241765
	C4743	C	0.976431	-0.375086	0.271869
	C4744	C	0.890990	-0.375447	0.237423
	C4745	C	0.877648	-0.375175	0.240042
	C4746	C	0.871367	-0.285190	0.240333
	C4747	C	0.859032	-0.284973	0.240470
	C4748	C	0.852674	-0.374647	0.240419
	C4749	C	0.858956	-0.464724	0.240099
	C4750	C	0.871293	-0.465027	0.239973
	C4751	C	0.839336	-0.373909	0.242718
	C4752	C	0.893028	-0.125019	0.188699
	C4753	C	0.880446	-0.125252	0.179905
	C4754	C	0.874376	-0.035572	0.176448
	C4755	C	0.862523	-0.035690	0.170174
	C4756	C	0.856395	-0.125351	0.167080
	C4757	C	0.862481	-0.215131	0.170442
	C4758	C	0.874319	-0.214957	0.176789
	C4759	C	0.843842	-0.125355	0.158232
	C4760	C	0.929254	-0.124973	0.192759
	C4761	C	0.942595	-0.125003	0.190759
	C4762	C	0.948879	-0.215082	0.190410
	C4763	C	0.961216	-0.215459	0.190666
	C4764	C	0.967549	-0.125540	0.190961
	C4765	C	0.961261	-0.035473	0.191147
	C4766	C	0.948927	-0.035066	0.190923
	C4767	C	0.980902	-0.125351	0.188969
	H4768	H	0.965928	-0.285723	0.190637
	H4769	H	0.944129	-0.285281	0.190145
	H4770	H	0.962342	-0.215520	0.262089
	H4771	H	0.941327	-0.215335	0.251046
	H4772	H	0.912109	-0.374179	0.180043
	H4773	H	0.908523	-0.124485	0.250283
	H4774	H	0.821797	-0.123474	0.232306
	H4775	H	0.998186	-0.375618	0.201928
	H4776	H	0.878877	-0.285168	0.179276
	H4777	H	0.857934	-0.285435	0.167952
	H4778	H	0.854314	-0.214755	0.240581
	H4779	H	0.876145	-0.215077	0.240360
	H4780	H	0.858032	0.034454	0.167435
	H4781	H	0.878977	0.034448	0.178645
	H4782	H	0.876021	-0.534951	0.239717
	H4783	H	0.854174	-0.534662	0.239855
	H4784	H	0.941262	-0.535310	0.251291
	H4785	H	0.962292	-0.535183	0.262336
	H4786	H	0.944180	0.035177	0.191042
	H4787	H	0.966023	0.034318	0.191554
	Al4788	Al	0.910114	0.000034	0.214881
	Al4789	Al	0.910131	0.250188	0.215145
	Al4790	Al	0.826792	0.249968	0.131633
	Al4791	Al	0.826814	-0.000082	0.131617
	O4792	O	0.922221	0.040832	0.238045
	O4793	O	0.910859	0.125228	0.198024
	O4794	O	0.909440	0.374819	0.232187
	O4795	O	0.981191	0.040364	0.275544
	O4796	O	0.896248	0.040724	0.236013
	O4797	O	0.834044	0.041062	0.244055
	O4798	O	0.896242	0.209076	0.236177
	O4799	O	0.898011	0.290962	0.191972
	O4800	O	0.838875	0.290798	0.154854
	O4801	O	0.922280	0.208844	0.238132
	O4802	O	0.924027	0.291253	0.194023
	O4803	O	0.986162	0.290433	0.187714
	O4804	O	0.834121	0.209634	0.243884
	O4805	O	0.898034	0.459265	0.191842
	O4806	O	0.839003	0.459141	0.154456
	O4807	O	0.986169	0.458937	0.187692
	O4808	O	0.924029	0.459555	0.194218
	O4809	O	0.981283	0.208579	0.275317
	O4810	O	0.821022	0.375959	0.250200
	O4811	O	0.999256	0.124884	0.183708
	C4812	C	0.957700	0.214454	0.259942
	C4813	C	0.963759	0.124501	0.263397
	C4814	C	0.957641	0.034638	0.260232
	C4815	C	0.945790	0.034612	0.253834
	C4816	C	0.939718	0.124558	0.250337
	C4817	C	0.945837	0.214458	0.253586
	C4818	C	0.927188	0.124743	0.241646
	C4819	C	0.976294	0.124533	0.272097
	C4820	C	0.890988	0.124845	0.237227
	C4821	C	0.877650	0.124630	0.239760
	C4822	C	0.871352	0.214620	0.240225
	C4823	C	0.859016	0.214665	0.240479
	C4824	C	0.852671	0.124873	0.240432
	C4825	C	0.858986	0.034944	0.240094
	C4826	C	0.871330	0.034834	0.239788
	C4827	C	0.839346	0.125264	0.242798
	C4828	C	0.893092	0.375121	0.188422
	C4829	C	0.880488	0.374738	0.179903
	C4830	C	0.874418	0.464578	0.176368
	C4831	C	0.862549	0.464732	0.170063
	C4832	C	0.856451	0.374850	0.166925
	C4833	C	0.862524	0.285055	0.170307
	C4834	C	0.874400	0.284828	0.176581
	C4835	C	0.843838	0.374992	0.158300
	C4836	C	0.929284	0.375403	0.193146
	C4837	C	0.942592	0.375167	0.190789
	C4838	C	0.948891	0.285037	0.190516
	C4839	C	0.961201	0.284829	0.190575
	C4840	C	0.967575	0.374643	0.190861
	C4841	C	0.961267	0.464712	0.191064
	C4842	C	0.948955	0.464938	0.191054
	C4843	C	0.980890	0.374766	0.188623
	H4844	H	0.965951	0.214800	0.190438
	H4845	H	0.944082	0.214978	0.190339
	H4846	H	0.962286	0.284402	0.262162
	H4847	H	0.941289	0.284488	0.250975
	H4848	H	0.911986	0.125673	0.179882
	H4849	H	0.908751	0.374784	0.250403
	H4850	H	0.821717	0.376428	0.231980
	H4851	H	0.998010	0.124513	0.201853
	H4852	H	0.878946	0.214611	0.178927
	H4853	H	0.857920	0.214891	0.168036
	H4854	H	0.854296	0.284796	0.240637
	H4855	H	0.876114	0.284743	0.240312
	H4856	H	0.858011	0.534894	0.167645
	H4857	H	0.878996	0.534841	0.178559
	H4858	H	0.876049	-0.035419	0.239596
	H4859	H	0.854212	-0.034807	0.240048
	H4860	H	0.941231	-0.035651	0.251463
	H4861	H	0.962225	-0.035390	0.262630
	H4862	H	0.944178	0.535027	0.191239
	H4863	H	0.966020	0.534426	0.191216
	Al4864	Al	0.904177	-0.498871	0.350327
	Al4865	Al	0.904155	-0.249977	0.350185
	Al4866	Al	0.820772	-0.248922	0.267178
	Al4867	Al	0.820826	-0.499296	0.267027
	O4868	O	0.916828	-0.458557	0.371995
	O4869	O	0.904442	-0.374496	0.333449
	O4870	O	0.904271	-0.124148	0.367021
	O4871	O	0.974890	-0.458193	0.412394
	O4872	O	0.892117	-0.458166	0.376411
	O4873	O	0.844296	-0.458949	0.471332
	O4874	O	0.892130	-0.290215	0.376383
	O4875	O	0.891534	-0.209248	0.329082
	O4876	O	0.833392	-0.208460	0.288904
	O4877	O	0.916781	-0.290250	0.371835
	O4878	O	0.917396	-0.209149	0.326782
	O4879	O	0.979520	-0.209277	0.319557
	O4880	O	0.844277	-0.291000	0.471303
	O4881	O	0.891597	-0.040959	0.328944
	O4882	O	0.833447	-0.039990	0.289017
	O4883	O	0.979607	-0.041024	0.320046
	O4884	O	0.917440	-0.040677	0.326765
	O4885	O	0.974884	-0.290050	0.412623
	O4886	O	0.832385	-0.125180	0.483409
	O4887	O	0.992777	-0.374952	0.315536
	C4888	C	0.951614	-0.284282	0.396399
	C4889	C	0.957567	-0.374004	0.400225
	C4890	C	0.951586	-0.463889	0.396607
	C4891	C	0.939937	-0.463874	0.389118
	C4892	C	0.933980	-0.374117	0.385163
	C4893	C	0.939965	-0.284404	0.388942
	C4894	C	0.921625	-0.374467	0.375660
	C4895	C	0.970009	-0.374259	0.409106
	C4896	C	0.888019	-0.374178	0.384167
	C4897	C	0.877705	-0.374480	0.404408
	C4898	C	0.872855	-0.285401	0.414107
	C4899	C	0.863318	-0.285602	0.432943
	C4900	C	0.858415	-0.374688	0.442528
	C4901	C	0.863204	-0.463871	0.432671
	C4902	C	0.872752	-0.463712	0.413826
	C4903	C	0.848288	-0.374945	0.463271
	C4904	C	0.886701	-0.124893	0.325566
	C4905	C	0.874274	-0.124968	0.316668
	C4906	C	0.868334	-0.034987	0.313054
	C4907	C	0.856655	-0.034805	0.305706
	C4908	C	0.850659	-0.124456	0.301797
	C4909	C	0.856587	-0.214419	0.305603
	C4910	C	0.868266	-0.214603	0.312934
	C4911	C	0.838259	-0.124333	0.292583
	C4912	C	0.922670	-0.124821	0.325816
	C4913	C	0.935996	-0.124733	0.323538
	C4914	C	0.942302	-0.214559	0.323389
	C4915	C	0.954636	-0.214658	0.323288
	C4916	C	0.960983	-0.124836	0.323322
	C4917	C	0.954677	-0.034898	0.323533
	C4918	C	0.942346	-0.035002	0.323645
	C4919	C	0.974316	-0.124984	0.320966
	H4920	H	0.959380	-0.284656	0.322996
	H4921	H	0.937507	-0.284426	0.323188
	H4922	H	0.956164	-0.214948	0.399229
	H4923	H	0.935447	-0.214801	0.386011
	H4924	H	0.905328	-0.375170	0.315297
	H4925	H	0.904529	-0.123835	0.385201
	H4926	H	0.831300	-0.125086	0.465477
	H4927	H	0.991922	-0.374951	0.333720
	H4928	H	0.872798	-0.284201	0.315729
	H4929	H	0.852057	-0.284081	0.302738
	H4930	H	0.859706	-0.216443	0.440424
	H4931	H	0.876552	-0.216108	0.406911
	H4932	H	0.852180	0.034963	0.302930
	H4933	H	0.872875	0.034785	0.315925
	H4934	H	0.876363	-0.532765	0.406235
	H4935	H	0.859466	-0.533174	0.439870
	H4936	H	0.935418	-0.533661	0.386215
	H4937	H	0.956096	-0.533480	0.399618
	H4938	H	0.937625	0.035065	0.323659
	H4939	H	0.959451	0.035099	0.323449
	Al4940	Al	0.904165	0.000944	0.350000
	Al4941	Al	0.904151	0.250041	0.350264
	Al4942	Al	0.820838	0.251229	0.267119
	Al4943	Al	0.820803	0.000323	0.267366
	O4944	O	0.916882	0.041341	0.371550
	O4945	O	0.904389	0.125862	0.333338
	O4946	O	0.904293	0.375448	0.367148
	O4947	O	0.974809	0.040620	0.412551
	O4948	O	0.892108	0.041049	0.376202
	O4949	O	0.844350	0.041105	0.471496
	O4950	O	0.892077	0.209117	0.376245
	O4951	O	0.891528	0.291349	0.329170
	O4952	O	0.833448	0.292105	0.288644
	O4953	O	0.916806	0.209797	0.371798
	O4954	O	0.917503	0.291321	0.326986
	O4955	O	0.979615	0.291095	0.319516
	O4956	O	0.844287	0.209200	0.471400
	O4957	O	0.891543	0.459687	0.329220
	O4958	O	0.833530	0.460101	0.288545
	O4959	O	0.979648	0.459075	0.319665
	O4960	O	0.917500	0.459685	0.327140
	O4961	O	0.974888	0.209010	0.412435
	O4962	O	0.832404	0.374847	0.483654
	O4963	O	0.992762	0.125476	0.315582
	C4964	C	0.951581	0.215318	0.396587
	C4965	C	0.957533	0.125409	0.400165
	C4966	C	0.951565	0.035785	0.396375
	C4967	C	0.939922	0.035972	0.388826
	C4968	C	0.933994	0.125751	0.384996
	C4969	C	0.939933	0.215416	0.389054
	C4970	C	0.921660	0.125667	0.375436
	C4971	C	0.969966	0.125223	0.409053
	C4972	C	0.887999	0.125036	0.384002
	C4973	C	0.877684	0.125238	0.404253
	C4974	C	0.872796	0.214425	0.413860
	C4975	C	0.863299	0.214381	0.432816
	C4976	C	0.858443	0.125314	0.442646
	C4977	C	0.863369	0.036380	0.433049
	C4978	C	0.872845	0.036193	0.414083
	C4979	C	0.848319	0.125448	0.463442
	C4980	C	0.886634	0.375438	0.325875
	C4981	C	0.874258	0.375175	0.316835
	C4982	C	0.868319	0.464816	0.312990
	C4983	C	0.856673	0.464994	0.305517
	C4984	C	0.850662	0.375523	0.301810
	C4985	C	0.856578	0.285744	0.305861
	C4986	C	0.868241	0.285553	0.313310
	C4987	C	0.838315	0.375886	0.292289
	C4988	C	0.922750	0.375430	0.326028
	C4989	C	0.936043	0.375418	0.323697
	C4990	C	0.942351	0.285353	0.323584
	C4991	C	0.954685	0.285211	0.323397
	C4992	C	0.961052	0.375009	0.323242
	C4993	C	0.954733	0.465067	0.323594
	C4994	C	0.942399	0.465074	0.323794
	C4995	C	0.974358	0.375118	0.320703
	H4996	H	0.959426	0.215043	0.323246
	H4997	H	0.937581	0.215224	0.323617
	H4998	H	0.956079	0.284727	0.399640
	H4999	H	0.935420	0.285158	0.386232
	H5000	H	0.905142	0.126227	0.315080
	H5001	H	0.904608	0.375184	0.385410
	H5002	H	0.831354	0.375048	0.465810
	H5003	H	0.992005	0.125878	0.333727
	H5004	H	0.872729	0.215978	0.316494
	H5005	H	0.852004	0.216297	0.303046
	H5006	H	0.859651	0.283318	0.440274
	H5007	H	0.876475	0.283690	0.406408
	H5008	H	0.852177	0.534611	0.302480
	H5009	H	0.872819	0.534410	0.315976
	H5010	H	0.876519	-0.032918	0.406807
	H5011	H	0.859774	-0.032923	0.440598
	H5012	H	0.935424	-0.033628	0.385698
	H5013	H	0.956048	-0.033711	0.399201
	H5014	H	0.937676	0.535395	0.323964
	H5015	H	0.959521	0.534908	0.323579
	Al5016	Al	0.916658	-0.499914	0.583351
	Al5017	Al	0.916569	-0.249935	0.583205
	Al5018	Al	0.833284	-0.250416	0.499865
	Al5019	Al	0.833325	-0.500057	0.500000
	O5020	O	0.929916	-0.459174	0.602240
	O5021	O	0.915713	-0.375283	0.566843
	O5022	O	0.917450	-0.125174	0.599713
	O5023	O	0.986613	-0.459481	0.648218
	O5024	O	0.905673	-0.459389	0.611926
	O5025	O	0.857837	-0.459709	0.706958
	O5026	O	0.905587	-0.291194	0.611837
	O5027	O	0.903274	-0.209112	0.564746
	O5028	O	0.846673	-0.209519	0.518439
	O5029	O	0.929956	-0.290775	0.601811
	O5030	O	0.927548	-0.208698	0.554636
	O5031	O	0.975446	-0.208930	0.459934
	O5032	O	0.857895	-0.291620	0.707160
	O5033	O	0.903278	-0.040680	0.564606
	O5034	O	0.846563	-0.040936	0.518767
	O5035	O	0.975431	-0.041153	0.459884
	O5036	O	0.927645	-0.040719	0.554731
	O5037	O	0.986686	-0.291070	0.647990
	O5038	O	0.845668	-0.125744	0.716329
	O5039	O	0.987700	-0.375249	0.450425
	C5040	C	0.964094	-0.285507	0.629075
	C5041	C	0.969771	-0.374976	0.634047
	C5042	C	0.963864	-0.464325	0.630041
	C5043	C	0.952480	-0.463878	0.621027
	C5044	C	0.946830	-0.374400	0.616014
	C5045	C	0.952715	-0.285157	0.620075
	C5046	C	0.934688	-0.374806	0.605858
	C5047	C	0.981895	-0.375303	0.644233
	C5048	C	0.901634	-0.375499	0.619861
	C5049	C	0.891520	-0.375774	0.640687
	C5050	C	0.886672	-0.286679	0.650375
	C5051	C	0.877160	-0.286779	0.669310
	C5052	C	0.872270	-0.375810	0.679019
	C5053	C	0.877145	-0.465018	0.669408
	C5054	C	0.886661	-0.464921	0.650476
	C5055	C	0.861976	-0.375675	0.699297
	C5056	C	0.898519	-0.124913	0.560880
	C5057	C	0.886414	-0.125170	0.550595
	C5058	C	0.880638	-0.036165	0.546073
	C5059	C	0.869273	-0.036125	0.537005
	C5060	C	0.863527	-0.125352	0.532370
	C5061	C	0.869300	-0.214626	0.536887
	C5062	C	0.880658	-0.214486	0.545991
	C5063	C	0.851371	-0.125104	0.522336
	C5064	C	0.931572	-0.124794	0.546718
	C5065	C	0.941707	-0.124858	0.525972
	C5066	C	0.946512	-0.213838	0.516245
	C5067	C	0.956029	-0.214038	0.497340
	C5068	C	0.960991	-0.125230	0.487790
	C5069	C	0.956124	-0.036308	0.497411
	C5070	C	0.946610	-0.036046	0.516345
	C5071	C	0.971327	-0.125144	0.467652
	H5072	H	0.959638	-0.283038	0.489929
	H5073	H	0.942798	-0.282542	0.523573
	H5074	H	0.968609	-0.216756	0.632296
	H5075	H	0.948365	-0.216109	0.616175
	H5076	H	0.914821	-0.374978	0.548755
	H5077	H	0.918393	-0.124973	0.617653
	H5078	H	0.845284	-0.126432	0.698036
	H5079	H	0.988051	-0.375974	0.468619
	H5080	H	0.885073	-0.283111	0.549716
	H5081	H	0.864855	-0.283532	0.533297
	H5082	H	0.873519	-0.217527	0.676719
	H5083	H	0.890338	-0.217365	0.642972
	H5084	H	0.864819	0.032387	0.533558
	H5085	H	0.885051	0.032625	0.549817
	H5086	H	0.890312	-0.533910	0.643170
	H5087	H	0.873467	-0.533876	0.676718
	H5088	H	0.947929	-0.532785	0.617873
	H5089	H	0.968210	-0.533109	0.634071
	H5090	H	0.942988	0.032974	0.523724
	H5091	H	0.959808	0.032549	0.490040
	Al5092	Al	0.916602	-0.000174	0.583332
	Al5093	Al	0.916630	0.249650	0.583244
	Al5094	Al	0.833271	0.250064	0.500026
	Al5095	Al	0.833329	-0.000178	0.499895
	O5096	O	0.929875	0.040378	0.602211
	O5097	O	0.915779	0.124920	0.566793
	O5098	O	0.917526	0.375014	0.599718
	O5099	O	0.986583	0.039996	0.648263
	O5100	O	0.905623	0.040313	0.611878
	O5101	O	0.857900	0.039927	0.707104
	O5102	O	0.905527	0.208462	0.611593
	O5103	O	0.903387	0.291202	0.564471
	O5104	O	0.846598	0.290536	0.518667
	O5105	O	0.929922	0.209036	0.601854
	O5106	O	0.927691	0.291232	0.554697
	O5107	O	0.975343	0.291411	0.459499
	O5108	O	0.857924	0.207812	0.707199
	O5109	O	0.903297	0.459782	0.564721
	O5110	O	0.846665	0.458944	0.518598
	O5111	O	0.975432	0.459156	0.459620
	O5112	O	0.927743	0.459255	0.554914
	O5113	O	0.986663	0.208421	0.647897
	O5114	O	0.845687	0.374248	0.716394
	O5115	O	0.987566	0.125486	0.450486
	C5116	C	0.964050	0.214091	0.629178
	C5117	C	0.969720	0.124356	0.634015
	C5118	C	0.963838	0.035095	0.629946
	C5119	C	0.952472	0.035304	0.620898
	C5120	C	0.946808	0.124903	0.615887
	C5121	C	0.952668	0.214312	0.620117
	C5122	C	0.934670	0.124736	0.605797
	C5123	C	0.981872	0.124239	0.644233
	C5124	C	0.901573	0.124515	0.619768
	C5125	C	0.891514	0.124369	0.640648
	C5126	C	0.886670	0.213379	0.650389
	C5127	C	0.877217	0.213035	0.669403
	C5128	C	0.872315	0.123889	0.679084
	C5129	C	0.877203	0.035019	0.669414
	C5130	C	0.886670	0.035279	0.650451
	C5131	C	0.862003	0.123997	0.699384
	C5132	C	0.898589	0.375368	0.560799
	C5133	C	0.886447	0.375051	0.550678
	C5134	C	0.880652	0.464052	0.546126
	C5135	C	0.869295	0.463832	0.537059
	C5136	C	0.863539	0.374615	0.532514
	C5137	C	0.869310	0.285390	0.537143
	C5138	C	0.880684	0.285627	0.546199
	C5139	C	0.851386	0.374704	0.522365
	C5140	C	0.931689	0.375495	0.546821
	C5141	C	0.941784	0.375575	0.526038
	C5142	C	0.946586	0.286516	0.516171
	C5143	C	0.956046	0.286375	0.497205
	C5144	C	0.961004	0.375377	0.487608
	C5145	C	0.956201	0.464454	0.497406
	C5146	C	0.946737	0.464543	0.516391
	C5147	C	0.971301	0.375270	0.467361
	H5148	H	0.959678	0.217260	0.489795
	H5149	H	0.942876	0.217591	0.523461
	H5150	H	0.968561	0.282578	0.632564
	H5151	H	0.948316	0.283236	0.616237
	H5152	H	0.914916	0.125187	0.548800
	H5153	H	0.918340	0.375086	0.617691
	H5154	H	0.845093	0.374038	0.698211
	H5155	H	0.988051	0.125602	0.468787
	H5156	H	0.885141	0.216872	0.549822
	H5157	H	0.864876	0.216670	0.533518
	H5158	H	0.873585	0.281914	0.676897
	H5159	H	0.890310	0.282444	0.642935
	H5160	H	0.864890	0.532729	0.533328
	H5161	H	0.885042	0.532913	0.549622
	H5162	H	0.890291	-0.033720	0.642944
	H5163	H	0.873544	-0.034202	0.676828
	H5164	H	0.947984	-0.033446	0.617647
	H5165	H	0.968164	-0.034069	0.633983
	H5166	H	0.943123	0.533725	0.523908
	H5167	H	0.959936	0.533215	0.490111
	Al5168	Al	0.929172	-0.501458	0.816679
	Al5169	Al	0.929131	-0.250760	0.816592
	Al5170	Al	0.845819	-0.251112	0.733268
	Al5171	Al	0.845801	-0.500209	0.733193
	O5172	O	0.941794	-0.460085	0.837756
	O5173	O	0.929023	-0.375935	0.799724
	O5174	O	0.928913	-0.126320	0.833548
	O5175	O	0.999851	-0.459718	0.878251
	O5176	O	0.915890	-0.460150	0.839875
	O5177	O	0.853768	-0.459145	0.847513
	O5178	O	0.915912	-0.291902	0.839969
	O5179	O	0.916409	-0.210386	0.795161
	O5180	O	0.858350	-0.209832	0.754423
	O5181	O	0.941717	-0.291931	0.837754
	O5182	O	0.941211	-0.209652	0.790547
	O5183	O	0.988923	-0.208965	0.695378
	O5184	O	0.853786	-0.291222	0.847536
	O5185	O	0.916497	-0.041928	0.795018
	O5186	O	0.858425	-0.041547	0.754315
	O5187	O	0.989005	-0.040851	0.695482
	O5188	O	0.941119	-0.041591	0.790538
	O5189	O	0.999881	-0.291381	0.878238
	O5190	O	0.840552	-0.125784	0.851533
	O5191	O	1.000812	-0.375258	0.683219
	C5192	C	0.976721	-0.285800	0.861148
	C5193	C	0.982694	-0.375218	0.864999
	C5194	C	0.976730	-0.464973	0.861195
	C5195	C	0.965066	-0.465033	0.853771
	C5196	C	0.959075	-0.375509	0.850084
	C5197	C	0.965045	-0.285797	0.853743
	C5198	C	0.946648	-0.375814	0.841135
	C5199	C	0.995028	-0.375687	0.874552
	C5200	C	0.910663	-0.376008	0.841078
	C5201	C	0.897345	-0.375658	0.843539
	C5202	C	0.891048	-0.285747	0.843728
	C5203	C	0.878721	-0.285503	0.843845
	C5204	C	0.872364	-0.375199	0.843985
	C5205	C	0.878663	-0.465059	0.843576
	C5206	C	0.890990	-0.465330	0.843446
	C5207	C	0.859007	-0.375215	0.846481
	C5208	C	0.911628	-0.126041	0.791380
	C5209	C	0.899274	-0.125969	0.781949
	C5210	C	0.893347	-0.036192	0.777967
	C5211	C	0.881690	-0.035875	0.770464
	C5212	C	0.875689	-0.125665	0.766789
	C5213	C	0.881633	-0.215440	0.770596
	C5214	C	0.893277	-0.215648	0.778134
	C5215	C	0.863279	-0.125878	0.757754
	C5216	C	0.945246	-0.125497	0.782736
	C5217	C	0.955556	-0.124960	0.762432
	C5218	C	0.960440	-0.213801	0.752798
	C5219	C	0.969936	-0.213832	0.733861
	C5220	C	0.974818	-0.124967	0.724190
	C5221	C	0.969989	-0.036227	0.733936
	C5222	C	0.960489	-0.036118	0.752858
	C5223	C	0.984983	-0.125056	0.703462
	H5224	H	0.973584	-0.282645	0.726473
	H5225	H	0.956748	-0.282928	0.760190
	H5226	H	0.981222	-0.216108	0.864107
	H5227	H	0.960516	-0.216245	0.850890
	H5228	H	0.928595	-0.375984	0.781476
	H5229	H	0.928156	-0.126800	0.851848
	H5230	H	0.841261	-0.125682	0.833399
	H5231	H	1.001878	-0.375057	0.701174
	H5232	H	0.897773	-0.285276	0.781050
	H5233	H	0.877116	-0.285030	0.767575
	H5234	H	0.873983	-0.215484	0.843922
	H5235	H	0.895784	-0.215739	0.843760
	H5236	H	0.877176	0.033729	0.767351
	H5237	H	0.897914	0.033424	0.780790
	H5238	H	0.895764	-0.535583	0.843219
	H5239	H	0.873893	-0.534891	0.843470
	H5240	H	0.960515	-0.534264	0.850916
	H5241	H	0.981220	-0.534747	0.864193
	H5242	H	0.956841	0.032728	0.760251
	H5243	H	0.973668	0.032758	0.726652
	Al5244	Al	0.929074	-0.001555	0.816814
	Al5245	Al	0.929108	0.249447	0.816664
	Al5246	Al	0.845854	0.248955	0.733312
	Al5247	Al	0.845833	-0.000266	0.733194
	O5248	O	0.941695	0.039899	0.837916
	O5249	O	0.929027	0.123860	0.799863
	O5250	O	0.928973	0.374038	0.833485
	O5251	O	0.999799	0.039721	0.878238
	O5252	O	0.915838	0.039758	0.839966
	O5253	O	0.853728	0.040583	0.847359
	O5254	O	0.915861	0.208043	0.840064
	O5255	O	0.916505	0.290049	0.795173
	O5256	O	0.858354	0.290704	0.754425
	O5257	O	0.941731	0.208042	0.837734
	O5258	O	0.941179	0.289974	0.790437
	O5259	O	0.988861	0.290396	0.695348
	O5260	O	0.853722	0.208803	0.847425
	O5261	O	0.916477	0.458361	0.794922
	O5262	O	0.858414	0.459011	0.754290
	O5263	O	0.988960	0.458531	0.695466
	O5264	O	0.941176	0.457774	0.790476
	O5265	O	0.999897	0.208083	0.877958
	O5266	O	0.840598	0.374236	0.851559
	O5267	O	1.000845	0.124955	0.683144
	C5268	C	0.976697	0.214047	0.861183
	C5269	C	0.982666	0.124340	0.864987
	C5270	C	0.976672	0.034554	0.861306
	C5271	C	0.965009	0.034282	0.853877
	C5272	C	0.959056	0.124065	0.850047
	C5273	C	0.965030	0.213731	0.853736
	C5274	C	0.946618	0.124014	0.841167
	C5275	C	0.995010	0.124076	0.874462
	C5276	C	0.910571	0.123971	0.841148
	C5277	C	0.897273	0.124039	0.843484
	C5278	C	0.890974	0.213981	0.843711
	C5279	C	0.878651	0.214102	0.843823
	C5280	C	0.872294	0.124413	0.843833
	C5281	C	0.878609	0.034493	0.843515
	C5282	C	0.890936	0.034276	0.843376
	C5283	C	0.858975	0.124715	0.846313
	C5284	C	0.911658	0.373972	0.791339
	C5285	C	0.899299	0.373914	0.781892
	C5286	C	0.893392	0.463641	0.777836
	C5287	C	0.881722	0.463694	0.770400
	C5288	C	0.875692	0.374414	0.766818
	C5289	C	0.881588	0.284563	0.770877
	C5290	C	0.893267	0.284291	0.778310
	C5291	C	0.863274	0.374717	0.757786
	C5292	C	0.945246	0.373859	0.782644
	C5293	C	0.955595	0.374066	0.762454
	C5294	C	0.960474	0.285064	0.752748
	C5295	C	0.969948	0.285350	0.733820
	C5296	C	0.974803	0.374379	0.724107
	C5297	C	0.969981	0.463450	0.733972
	C5298	C	0.960498	0.463205	0.752889
	C5299	C	0.984936	0.374504	0.703427
	H5300	H	0.973619	0.216218	0.726441
	H5301	H	0.956781	0.216006	0.760108
	H5302	H	0.981189	0.284108	0.864097
	H5303	H	0.960495	0.283349	0.850727
	H5304	H	0.928892	0.123692	0.781627
	H5305	H	0.928251	0.373625	0.851649
	H5306	H	0.841531	0.374328	0.833292
	H5307	H	1.001714	0.124988	0.701090
	H5308	H	0.897706	0.214581	0.781494
	H5309	H	0.877008	0.215115	0.768135
	H5310	H	0.873920	0.284021	0.843821
	H5311	H	0.895747	0.283880	0.843708
	H5312	H	0.877232	0.533554	0.767316
	H5313	H	0.897942	0.533292	0.780642
	H5314	H	0.895669	-0.035858	0.843087
	H5315	H	0.873811	-0.035348	0.843312
	H5316	H	0.960487	-0.035557	0.851107
	H5317	H	0.981185	-0.035049	0.864468
	H5318	H	0.956841	0.532123	0.760326
	H5319	H	0.973725	0.532359	0.726664
	Al5320	Al	0.923223	-0.500631	0.951770
	Al5321	Al	0.923241	-0.250587	0.951870
	Al5322	Al	0.839902	-0.250705	0.868550
	Al5323	Al	0.839868	-0.500679	0.868615
	O5324	O	0.935272	-0.459396	0.974916
	O5325	O	0.923932	-0.375548	0.934828
	O5326	O	0.922445	-0.125479	0.968883
	O5327	O	0.994411	-0.459176	1.012067
	O5328	O	0.909350	-0.459952	0.973088
	O5329	O	0.847193	-0.459279	0.978821
	O5330	O	0.909437	-0.291855	0.973221
	O5331	O	0.911077	-0.209236	0.928678
	O5332	O	0.851927	-0.209622	0.891833
	O5333	O	0.935384	-0.291299	0.974823
	O5334	O	0.937066	-0.209114	0.930835
	O5335	O	0.999207	-0.209934	0.923158
	O5336	O	0.847259	-0.291055	0.979251
	O5337	O	0.911063	-0.041059	0.928695
	O5338	O	0.852006	-0.041246	0.891664
	O5339	O	0.999227	-0.041726	0.923196
	O5340	O	0.937034	-0.041052	0.930760
	O5341	O	0.994390	-0.291079	1.012138
	O5342	O	0.834088	-0.125683	0.983156
	O5343	O	1.012316	-0.375680	0.916741
	C5344	C	0.970751	-0.285829	0.996701
	C5345	C	0.976860	-0.375501	1.000029
	C5346	C	0.970780	-0.465255	0.996683
	C5347	C	0.958948	-0.465371	0.990302
	C5348	C	0.952843	-0.375648	0.987005
	C5349	C	0.958918	-0.285830	0.990322
	C5350	C	0.940250	-0.375523	0.978325
	C5351	C	0.989468	-0.375189	1.008667
	C5352	C	0.904141	-0.375862	0.974067
	C5353	C	0.890823	-0.375593	0.976152
	C5354	C	0.884501	-0.285527	0.976070
	C5355	C	0.872183	-0.285661	0.975939
	C5356	C	0.865819	-0.375518	0.975907
	C5357	C	0.872153	-0.465541	0.976016
	C5358	C	0.884468	-0.465497	0.976189
	C5359	C	0.852488	-0.375330	0.978104
	C5360	C	0.906167	-0.125113	0.925135
	C5361	C	0.893552	-0.125305	0.916639
	C5362	C	0.887446	-0.035556	0.913370
	C5363	C	0.875579	-0.035625	0.907190
	C5364	C	0.869496	-0.125349	0.903804
	C5365	C	0.875620	-0.215047	0.907014
	C5366	C	0.887490	-0.215198	0.913199
	C5367	C	0.856891	-0.125497	0.895260
	C5368	C	0.942326	-0.124910	0.929631
	C5369	C	0.955663	-0.125159	0.926939
	C5370	C	0.961972	-0.215069	0.926659
	C5371	C	0.974287	-0.215360	0.926528
	C5372	C	0.980642	-0.125732	0.926562
	C5373	C	0.974355	-0.035809	0.926660
	C5374	C	0.962028	-0.035709	0.926824
	C5375	C	0.993965	-0.125725	0.924384
	H5376	H	0.979033	-0.285106	0.926327
	H5377	H	0.957198	-0.285082	0.926648
	H5378	H	0.975290	-0.215815	0.999041
	H5379	H	0.954339	-0.215788	0.987846
	H5380	H	0.924881	-0.375540	0.916581
	H5381	H	0.921244	-0.125398	0.987013
	H5382	H	0.835130	-0.125069	0.964906
	H5383	H	1.011687	-0.375862	0.934945
	H5384	H	0.892053	-0.285259	0.915491
	H5385	H	0.871036	-0.284918	0.904631
	H5386	H	0.867437	-0.215674	0.975950
	H5387	H	0.889306	-0.215670	0.976174
	H5388	H	0.871006	0.034633	0.904906
	H5389	H	0.892005	0.034532	0.915724
	H5390	H	0.889194	-0.535670	0.976447
	H5391	H	0.867383	-0.535634	0.976047
	H5392	H	0.954391	-0.535395	0.987787
	H5393	H	0.975367	-0.535187	0.998997
	H5394	H	0.957297	0.034163	0.926963
	H5395	H	0.979092	0.033990	0.926598
	Al5396	Al	0.923174	-0.000375	0.951954
	Al5397	Al	0.923245	0.249476	0.951927
	Al5398	Al	0.839865	0.249300	0.868594
	Al5399	Al	0.839853	-0.000678	0.868554
	O5400	O	0.935326	0.040455	0.975027
	O5401	O	0.923882	0.124713	0.934794
	O5402	O	0.922416	0.374548	0.968846
	O5403	O	0.994403	0.041073	1.012093
	O5404	O	0.909391	0.040364	0.973272
	O5405	O	0.847225	0.040417	0.979106
	O5406	O	0.909378	0.208664	0.973172
	O5407	O	0.911049	0.290259	0.928715
	O5408	O	0.851952	0.290209	0.891934
	O5409	O	0.935322	0.208539	0.975081
	O5410	O	0.937074	0.290391	0.930826
	O5411	O	0.999208	0.289398	0.922899
	O5412	O	0.847224	0.208831	0.978980
	O5413	O	0.911121	0.458234	0.928491
	O5414	O	0.851964	0.458410	0.891700
	O5415	O	0.999257	0.457733	0.923337
	O5416	O	0.937128	0.458677	0.930970
	O5417	O	0.994414	0.208958	1.011963
	O5418	O	0.833998	0.374524	0.982992
	O5419	O	1.012271	0.124286	0.916528
	C5420	C	0.970843	0.214707	0.996593
	C5421	C	0.976948	0.124905	0.999875
	C5422	C	0.970843	0.035026	0.996583
	C5423	C	0.958968	0.034837	0.990282
	C5424	C	0.952848	0.124654	0.987042
	C5425	C	0.958975	0.214463	0.990295
	C5426	C	0.940267	0.124591	0.978467
	C5427	C	0.989484	0.124966	1.008624
	C5428	C	0.904119	0.124504	0.974125
	C5429	C	0.890794	0.124678	0.976140
	C5430	C	0.884496	0.214683	0.976036
	C5431	C	0.872161	0.214618	0.975842
	C5432	C	0.865810	0.124624	0.975868
	C5433	C	0.872114	0.034573	0.975970
	C5434	C	0.884448	0.034770	0.976221
	C5435	C	0.852477	0.124746	0.978008
	C5436	C	0.906138	0.374292	0.925167
	C5437	C	0.893580	0.374202	0.916493
	C5438	C	0.887455	0.464011	0.913195
	C5439	C	0.875614	0.464070	0.906964
	C5440	C	0.869493	0.374312	0.903659
	C5441	C	0.875613	0.284422	0.906894
	C5442	C	0.887451	0.284429	0.913132
	C5443	C	0.856906	0.374287	0.895224
	C5444	C	0.942358	0.374331	0.929771
	C5445	C	0.955694	0.374339	0.927015
	C5446	C	0.961984	0.284530	0.926776
	C5447	C	0.974311	0.284325	0.926564
	C5448	C	0.980661	0.373960	0.926516
	C5449	C	0.974399	0.463855	0.926664
	C5450	C	0.962070	0.464145	0.926855
	C5451	C	0.993977	0.373660	0.924257
	H5452	H	0.979042	0.214501	0.926287
	H5453	H	0.957187	0.214665	0.926728
	H5454	H	0.975432	0.284802	0.998894
	H5455	H	0.954435	0.284763	0.987895
	H5456	H	0.924815	0.125316	0.916568
	H5457	H	0.921135	0.374953	0.986872
	H5458	H	0.834802	0.374888	0.964782
	H5459	H	1.011450	0.123918	0.934716
	H5460	H	0.892042	0.214488	0.915395
	H5461	H	0.871021	0.214333	0.904425
	H5462	H	0.867399	0.284635	0.975624
	H5463	H	0.889248	0.285004	0.976011
	H5464	H	0.871034	0.534258	0.904500
	H5465	H	0.892032	0.534070	0.915542
	H5466	H	0.889215	-0.035373	0.976415
	H5467	H	0.867362	-0.035585	0.975877
	H5468	H	0.954413	-0.035303	0.987840
	H5469	H	0.975393	-0.035031	0.998958
	H5470	H	0.957373	0.534293	0.926860
	H5471	H	0.979215	0.533563	0.926481
