data_Molecule from HDF5

_cell_length_a		103.950628
_cell_length_b		13.368423
_cell_length_c		69.994069
_cell_angle_alpha	89.997234
_cell_angle_beta	87.898936
_cell_angle_gamma	90.005885
_symmetry_space_group_name_H-M	'P 1'
_symmetry_Int_Tables_number		1

loop_
	_symmetry_equiv_pos_as_xyz
	x,y,z

loop_
	_atom_site_label
	_atom_site_type_symbol
	_atom_site_fract_x
	_atom_site_fract_y
	_atom_site_fract_z
	Al0	Al	0.090046	-0.500777	0.119731
	Al1	Al	0.090126	-0.249906	0.119647
	Al2	Al	0.006704	-0.250893	0.036562
	Al3	Al	0.006736	-0.499623	0.036646
	O4	O	0.102610	-0.458959	0.137511
	O5	O	0.090798	-0.375585	0.107557
	O6	O	0.088887	-0.125383	0.131671
	O7	O	0.161004	-0.459229	0.184533
	O8	O	0.074624	-0.459310	0.133519
	O9	O	0.008755	-0.459018	0.116378
	O10	O	0.074622	-0.291064	0.133449
	O11	O	0.077688	-0.208853	0.101155
	O12	O	0.019199	-0.208908	0.054238
	O13	O	0.102667	-0.291056	0.137398
	O14	O	0.104352	-0.209357	0.103610
	O15	O	0.161586	-0.209437	0.048028
	O16	O	0.008753	-0.290901	0.116533
	O17	O	0.077607	-0.040778	0.101244
	O18	O	0.019321	-0.040740	0.054120
	O19	O	0.161551	-0.041207	0.048159
	O20	O	0.104339	-0.041450	0.103468
	O21	O	0.160956	-0.291294	0.184647
	O22	O	-0.005543	-0.125044	0.118345
	O23	O	0.174787	-0.375294	0.041725
	C24	C	0.137901	-0.285688	0.164885
	C25	C	0.143918	-0.375223	0.169597
	C26	C	0.137879	-0.464631	0.164872
	C27	C	0.126165	-0.464582	0.155917
	C28	C	0.120082	-0.375130	0.151447
	C29	C	0.126197	-0.285739	0.155910
	C30	C	0.107575	-0.375115	0.141398
	C31	C	0.156169	-0.375179	0.180415
	C32	C	0.068977	-0.375190	0.132439
	C33	C	0.054796	-0.375259	0.129434
	C34	C	0.048189	-0.285278	0.127108
	C35	C	0.035245	-0.285221	0.122661
	C36	C	0.028593	-0.375047	0.120466
	C37	C	0.035215	-0.464985	0.122774
	C38	C	0.048128	-0.465102	0.127240
	C39	C	0.014427	-0.374976	0.117430
	C40	C	0.072861	-0.124961	0.097001
	C41	C	0.060547	-0.125262	0.086298
	C42	C	0.054550	-0.035403	0.081574
	C43	C	0.042810	-0.035606	0.072575
	C44	C	0.036746	-0.125174	0.068113
	C45	C	0.042744	-0.214910	0.072797
	C46	C	0.054489	-0.214839	0.081758
	C47	C	0.024225	-0.125038	0.058054
	C48	C	0.109249	-0.125227	0.099082
	C49	C	0.121609	-0.125377	0.087349
	C50	C	0.127520	-0.214429	0.081990
	C51	C	0.138899	-0.214364	0.070937
	C52	C	0.144652	-0.125400	0.065062
	C53	C	0.138780	-0.036313	0.070555
	C54	C	0.127411	-0.036406	0.081589
	C55	C	0.156793	-0.125432	0.052788
	H56	H	0.143368	-0.283124	0.066749
	H57	H	0.123161	-0.283333	0.086472
	H58	H	0.142418	-0.215994	0.168461
	H59	H	0.121652	-0.216341	0.152440
	H60	H	0.091443	-0.376010	0.094415
	H61	H	0.086934	-0.125118	0.144563
	H62	H	-0.003685	-0.124817	0.105479
	H63	H	0.174830	-0.374784	0.054797
	H64	H	0.058929	-0.284777	0.085383
	H65	H	0.038164	-0.284674	0.069472
	H66	H	0.030297	-0.215247	0.120877
	H67	H	0.053180	-0.215318	0.128817
	H68	H	0.038280	0.034034	0.069044
	H69	H	0.059056	0.034575	0.085065
	H70	H	0.053048	-0.535048	0.128959
	H71	H	0.030251	-0.535066	0.121100
	H72	H	0.121582	-0.533684	0.152509
	H73	H	0.142315	-0.534380	0.168427
	H74	H	0.122945	0.032425	0.085753
	H75	H	0.143097	0.032592	0.066081
	Al76	Al	0.090117	-0.000829	0.119670
	Al77	Al	0.090092	0.249933	0.119695
	Al78	Al	0.006693	0.248895	0.036436
	Al79	Al	0.006740	0.000133	0.036439
	O80	O	0.102649	0.040337	0.137390
	O81	O	0.090814	0.124430	0.107526
	O82	O	0.088947	0.374369	0.131709
	O83	O	0.161007	0.040569	0.184591
	O84	O	0.074610	0.040645	0.133552
	O85	O	0.008726	0.040836	0.116627
	O86	O	0.074590	0.208754	0.133555
	O87	O	0.077735	0.291000	0.101176
	O88	O	0.019314	0.290538	0.054084
	O89	O	0.102670	0.208375	0.137332
	O90	O	0.104391	0.290887	0.103641
	O91	O	0.161577	0.290498	0.048160
	O92	O	0.008756	0.209043	0.116489
	O93	O	0.077627	0.459134	0.101327
	O94	O	0.019234	0.458433	0.054321
	O95	O	0.161471	0.458484	0.047926
	O96	O	0.104422	0.458616	0.103731
	O97	O	0.161031	0.208557	0.184547
	O98	O	-0.005493	0.375324	0.118307
	O99	O	0.174880	0.124823	0.041766
	C100	C	0.137868	0.214400	0.164893
	C101	C	0.143892	0.124783	0.169589
	C102	C	0.137940	0.035313	0.164748
	C103	C	0.126227	0.035315	0.155713
	C104	C	0.120126	0.124826	0.151285
	C105	C	0.126135	0.214485	0.155879
	C106	C	0.107585	0.124437	0.141219
	C107	C	0.156221	0.124533	0.180289
	C108	C	0.068969	0.124695	0.132575
	C109	C	0.054764	0.124744	0.129496
	C110	C	0.048147	0.214655	0.127244
	C111	C	0.035252	0.214683	0.122806
	C112	C	0.028613	0.124890	0.120595
	C113	C	0.035224	0.034948	0.122786
	C114	C	0.048140	0.034873	0.127213
	C115	C	0.014397	0.124841	0.117555
	C116	C	0.072894	0.374892	0.097017
	C117	C	0.060591	0.374752	0.086280
	C118	C	0.054528	0.464126	0.081650
	C119	C	0.042819	0.463900	0.072676
	C120	C	0.036786	0.374272	0.068094
	C121	C	0.042857	0.284864	0.072643
	C122	C	0.054564	0.284987	0.081631
	C123	C	0.024243	0.374380	0.058051
	C124	C	0.109294	0.374662	0.099201
	C125	C	0.121610	0.374620	0.087397
	C126	C	0.127516	0.285948	0.081954
	C127	C	0.138879	0.285944	0.070860
	C128	C	0.144605	0.374559	0.064994
	C129	C	0.138746	0.463235	0.070560
	C130	C	0.127369	0.463399	0.081665
	C131	C	0.156741	0.374480	0.052774
	H132	H	0.143314	0.216970	0.066709
	H133	H	0.123177	0.217140	0.086420
	H134	H	0.142362	0.284395	0.168357
	H135	H	0.121614	0.284271	0.152369
	H136	H	0.091746	0.124718	0.094423
	H137	H	0.087114	0.374269	0.144585
	H138	H	-0.003454	0.375708	0.105448
	H139	H	0.174793	0.125020	0.054860
	H140	H	0.059097	0.215403	0.085014
	H141	H	0.038275	0.215200	0.069206
	H142	H	0.030332	0.285053	0.121046
	H143	H	0.053110	0.284663	0.128998
	H144	H	0.038266	0.533523	0.069331
	H145	H	0.059065	0.533756	0.085035
	H146	H	0.053089	-0.035280	0.128899
	H147	H	0.030215	-0.034848	0.121009
	H148	H	0.121780	-0.034549	0.152130
	H149	H	0.142474	-0.034547	0.168101
	H150	H	0.122904	0.532115	0.085879
	H151	H	0.143094	0.532011	0.066117
	Al152	Al	0.076587	-0.499680	0.213762
	Al153	Al	0.076592	-0.250661	0.213718
	Al154	Al	-0.006722	-0.249456	0.130378
	Al155	Al	-0.006707	-0.500461	0.130321
	O156	O	0.089015	-0.459102	0.232171
	O157	O	0.077852	-0.375172	0.201799
	O158	O	0.075954	-0.124976	0.225790
	O159	O	0.147462	-0.459222	0.279194
	O160	O	0.062378	-0.459055	0.229865
	O161	O	0.005027	-0.459610	0.285283
	O162	O	0.062314	-0.291225	0.229812
	O163	O	0.064079	-0.209115	0.196014
	O164	O	0.005723	-0.208924	0.148744
	O165	O	0.088952	-0.290944	0.232326
	O166	O	0.092089	-0.209257	0.199957
	O167	O	0.157967	-0.209545	0.216896
	O168	O	0.005082	-0.291418	0.285236
	O169	O	0.064078	-0.040921	0.195991
	O170	O	0.005745	-0.040889	0.148809
	O171	O	0.157961	-0.041230	0.216915
	O172	O	0.092119	-0.041118	0.199867
	O173	O	0.147418	-0.291110	0.279361
	O174	O	-0.008097	-0.124885	0.291695
	O175	O	0.172203	-0.375200	0.215068
	C176	C	0.123845	-0.285640	0.260775
	C177	C	0.129998	-0.375170	0.265109
	C178	C	0.123921	-0.464652	0.260580
	C179	C	0.112197	-0.464449	0.251625
	C180	C	0.106173	-0.374826	0.246967
	C181	C	0.112129	-0.285341	0.251821
	C182	C	0.093805	-0.375072	0.236459
	C183	C	0.142491	-0.375198	0.275346
	C184	C	0.057432	-0.375073	0.234252
	C185	C	0.045035	-0.375432	0.245992
	C186	C	0.039118	-0.286716	0.251520
	C187	C	0.027717	-0.286857	0.262551
	C188	C	0.021940	-0.375939	0.268257
	C189	C	0.027827	-0.464850	0.262673
	C190	C	0.039217	-0.464461	0.251630
	C191	C	0.009807	-0.375643	0.280516
	C192	C	0.059146	-0.125090	0.192112
	C193	C	0.046601	-0.125085	0.182040
	C194	C	0.040578	-0.035426	0.177456
	C195	C	0.028845	-0.035428	0.168448
	C196	C	0.022838	-0.124967	0.163715
	C197	C	0.028850	-0.214503	0.168390
	C198	C	0.040568	-0.214698	0.177423
	C199	C	0.010534	-0.125015	0.153050
	C200	C	0.097742	-0.125224	0.200909
	C201	C	0.111956	-0.125331	0.203896
	C202	C	0.118590	-0.215288	0.206147
	C203	C	0.131480	-0.215377	0.210589
	C204	C	0.138122	-0.125424	0.212863
	C205	C	0.131498	-0.035537	0.210630
	C206	C	0.118602	-0.035438	0.206208
	C207	C	0.152307	-0.125437	0.215920
	H208	H	0.136464	-0.285365	0.212308
	H209	H	0.113586	-0.285344	0.204432
	H210	H	0.128324	-0.216186	0.264503
	H211	H	0.107542	-0.215176	0.248553
	H212	H	0.079842	-0.375081	0.188872
	H213	H	0.075331	-0.125288	0.238993
	H214	H	-0.008190	-0.124892	0.278717
	H215	H	0.170440	-0.375847	0.227985
	H216	H	0.045086	-0.284314	0.180894
	H217	H	0.024346	-0.284520	0.164912
	H218	H	0.023271	-0.217643	0.266786
	H219	H	0.043485	-0.217573	0.247163
	H220	H	0.024373	0.034492	0.164957
	H221	H	0.045111	0.034522	0.180933
	H222	H	0.043626	-0.533452	0.247359
	H223	H	0.023465	-0.533827	0.267002
	H224	H	0.107647	-0.533988	0.248174
	H225	H	0.128412	-0.534319	0.264122
	H226	H	0.113607	0.034623	0.204514
	H227	H	0.136472	0.034456	0.212316
	Al228	Al	0.076650	0.000607	0.213674
	Al229	Al	0.076662	0.249687	0.213767
	Al230	Al	-0.006706	0.250638	0.130256
	Al231	Al	-0.006735	-0.000421	0.130470
	O232	O	0.089052	0.040740	0.232241
	O233	O	0.077914	0.125040	0.201716
	O234	O	0.075898	0.374893	0.225940
	O235	O	0.147446	0.040924	0.279301
	O236	O	0.062376	0.041282	0.229798
	O237	O	0.005135	0.040900	0.285200
	O238	O	0.062312	0.209309	0.229683
	O239	O	0.064081	0.290973	0.196049
	O240	O	0.005751	0.290717	0.148772
	O241	O	0.088990	0.208643	0.232243
	O242	O	0.092141	0.290691	0.199981
	O243	O	0.157987	0.290668	0.216904
	O244	O	0.005160	0.209159	0.285209
	O245	O	0.064018	0.458858	0.196086
	O246	O	0.005773	0.458831	0.148741
	O247	O	0.157990	0.458757	0.216969
	O248	O	0.092103	0.459024	0.199870
	O249	O	0.147442	0.209083	0.279285
	O250	O	-0.008234	0.374933	0.291660
	O251	O	0.172148	0.124913	0.215062
	C252	C	0.123814	0.214358	0.261079
	C253	C	0.129940	0.124860	0.265456
	C254	C	0.123909	0.035187	0.260868
	C255	C	0.112182	0.035025	0.251858
	C256	C	0.106123	0.124663	0.247251
	C257	C	0.112087	0.214233	0.252079
	C258	C	0.093822	0.124759	0.236402
	C259	C	0.142495	0.124998	0.275434
	C260	C	0.057475	0.125195	0.234240
	C261	C	0.045117	0.124892	0.245960
	C262	C	0.039209	0.214007	0.251464
	C263	C	0.027829	0.214132	0.262506
	C264	C	0.022054	0.125103	0.268240
	C265	C	0.027904	0.035936	0.262611
	C266	C	0.039290	0.035785	0.251552
	C267	C	0.009922	0.125018	0.280548
	C268	C	0.059113	0.374863	0.192146
	C269	C	0.046562	0.374731	0.182106
	C270	C	0.040503	0.464195	0.177554
	C271	C	0.028802	0.464271	0.168491
	C272	C	0.022823	0.374781	0.163795
	C273	C	0.028820	0.285303	0.168520
	C274	C	0.040523	0.285290	0.177570
	C275	C	0.010527	0.374790	0.153050
	C276	C	0.097764	0.374959	0.200896
	C277	C	0.111946	0.374909	0.203897
	C278	C	0.118565	0.285066	0.206160
	C279	C	0.131477	0.284785	0.210578
	C280	C	0.138143	0.374573	0.212780
	C281	C	0.131495	0.464368	0.210573
	C282	C	0.118594	0.464675	0.206171
	C283	C	0.152321	0.374661	0.215948
	H284	H	0.136430	0.214797	0.212288
	H285	H	0.113570	0.215189	0.204422
	H286	H	0.128327	0.284310	0.264568
	H287	H	0.107545	0.283916	0.248637
	H288	H	0.079789	0.125221	0.188910
	H289	H	0.074936	0.375029	0.239079
	H290	H	-0.008131	0.375393	0.278574
	H291	H	0.170332	0.124921	0.227979
	H292	H	0.045030	0.215854	0.181083
	H293	H	0.024315	0.215470	0.165052
	H294	H	0.023410	0.282950	0.266877
	H295	H	0.043595	0.283010	0.247126
	H296	H	0.024311	0.533978	0.165021
	H297	H	0.044992	0.533830	0.181067
	H298	H	0.043730	-0.033107	0.247314
	H299	H	0.023563	-0.033174	0.267089
	H300	H	0.107738	-0.034937	0.248318
	H301	H	0.128506	-0.034282	0.264167
	H302	H	0.113605	0.534471	0.204436
	H303	H	0.136515	0.534083	0.212304
	Al304	Al	0.075314	-0.500225	0.386862
	Al305	Al	0.075333	-0.250078	0.386922
	Al306	Al	-0.007989	-0.250142	0.303609
	Al307	Al	-0.008099	-0.500126	0.303621
	O308	O	0.088823	-0.459264	0.403076
	O309	O	0.075178	-0.375123	0.374966
	O310	O	0.075535	-0.125084	0.398856
	O311	O	0.145213	-0.459191	0.454112
	O312	O	0.062479	-0.459199	0.405583
	O313	O	0.009736	-0.459189	0.470489
	O314	O	0.062434	-0.291390	0.405599
	O315	O	0.061868	-0.209336	0.370754
	O316	O	0.005505	-0.209351	0.319698
	O317	O	0.088858	-0.291008	0.403045
	O318	O	0.088450	-0.208802	0.368559
	O319	O	0.145712	-0.208816	0.313009
	O320	O	0.009765	-0.290912	0.470495
	O321	O	0.061826	-0.040995	0.370718
	O322	O	0.005536	-0.041174	0.319777
	O323	O	0.145691	-0.040718	0.313041
	O324	O	0.088457	-0.040695	0.368620
	O325	O	0.145250	-0.291148	0.454071
	O326	O	-0.003323	-0.125216	0.477575
	O327	O	0.159225	-0.374907	0.309153
	C328	C	0.122682	-0.286171	0.433536
	C329	C	0.128417	-0.375264	0.438778
	C330	C	0.122641	-0.464549	0.433673
	C331	C	0.111403	-0.464468	0.423571
	C332	C	0.105656	-0.375255	0.418316
	C333	C	0.111433	-0.286013	0.423421
	C334	C	0.093590	-0.375091	0.407285
	C335	C	0.140488	-0.374983	0.449827
	C336	C	0.057986	-0.375437	0.410920
	C337	C	0.046701	-0.375148	0.424899
	C338	C	0.041264	-0.286004	0.431424
	C339	C	0.030780	-0.286049	0.444343
	C340	C	0.025431	-0.374995	0.451062
	C341	C	0.030814	-0.464008	0.444455
	C342	C	0.041304	-0.464077	0.431558
	C343	C	0.014200	-0.374958	0.465078
	C344	C	0.057120	-0.125328	0.366511
	C345	C	0.045097	-0.125453	0.355380
	C346	C	0.039346	-0.036462	0.350214
	C347	C	0.028111	-0.036430	0.340090
	C348	C	0.022358	-0.125457	0.334947
	C349	C	0.028102	-0.214331	0.340128
	C350	C	0.039323	-0.214437	0.350266
	C351	C	0.010288	-0.125231	0.323932
	C352	C	0.093224	-0.124548	0.363860
	C353	C	0.105385	-0.124927	0.351597
	C354	C	0.111155	-0.213845	0.345857
	C355	C	0.122557	-0.213902	0.334840
	C356	C	0.128470	-0.125019	0.329328
	C357	C	0.122650	-0.036030	0.334953
	C358	C	0.111248	-0.036040	0.345974
	C359	C	0.140819	-0.124950	0.317491
	H360	H	0.126932	-0.282770	0.330426
	H361	H	0.106752	-0.282958	0.350075
	H362	H	0.127093	-0.217576	0.437454
	H363	H	0.107109	-0.217036	0.419379
	H364	H	0.075203	-0.375045	0.361815
	H365	H	0.075959	-0.124118	0.411970
	H366	H	-0.003786	-0.125394	0.464607
	H367	H	0.158583	-0.375024	0.322317
	H368	H	0.043635	-0.283264	0.354354
	H369	H	0.023731	-0.283133	0.336201
	H370	H	0.026678	-0.217092	0.449313
	H371	H	0.045257	-0.216894	0.426288
	H372	H	0.023750	0.032303	0.336106
	H373	H	0.043645	0.032198	0.354284
	H374	H	0.045349	-0.533141	0.426516
	H375	H	0.026774	-0.532992	0.449562
	H376	H	0.107019	-0.533391	0.419655
	H377	H	0.126980	-0.533334	0.437660
	H378	H	0.106874	0.033226	0.350373
	H379	H	0.127056	0.033150	0.330649
	Al380	Al	0.075260	-0.000128	0.386961
	Al381	Al	0.075204	0.249849	0.386940
	Al382	Al	-0.007994	0.250150	0.303587
	Al383	Al	-0.007961	0.000149	0.303540
	O384	O	0.088720	0.040963	0.403156
	O385	O	0.075098	0.125045	0.375073
	O386	O	0.075611	0.374801	0.398820
	O387	O	0.145101	0.040555	0.454123
	O388	O	0.062393	0.040869	0.405736
	O389	O	0.009618	0.041250	0.470537
	O390	O	0.062329	0.209198	0.405660
	O391	O	0.061877	0.291258	0.370675
	O392	O	0.005506	0.291172	0.319754
	O393	O	0.088735	0.209151	0.403115
	O394	O	0.088439	0.290362	0.368534
	O395	O	0.145703	0.290720	0.313129
	O396	O	0.009710	0.209261	0.470595
	O397	O	0.061912	0.459190	0.370648
	O398	O	0.005462	0.459254	0.319681
	O399	O	0.145715	0.458535	0.313078
	O400	O	0.088484	0.458295	0.368670
	O401	O	0.145154	0.208704	0.454014
	O402	O	-0.003366	0.374956	0.477720
	O403	O	0.159345	0.124746	0.309173
	C404	C	0.122602	0.214174	0.433593
	C405	C	0.128356	0.125004	0.438712
	C406	C	0.122593	0.036182	0.433495
	C407	C	0.111353	0.036147	0.423359
	C408	C	0.105606	0.125314	0.418225
	C409	C	0.111365	0.214149	0.423444
	C410	C	0.093485	0.125140	0.407333
	C411	C	0.140387	0.124714	0.449814
	C412	C	0.057877	0.124995	0.411033
	C413	C	0.046569	0.124952	0.425000
	C414	C	0.041219	0.214069	0.431612
	C415	C	0.030770	0.213902	0.444548
	C416	C	0.025373	0.124761	0.451146
	C417	C	0.030811	0.035500	0.444705
	C418	C	0.041264	0.035776	0.431756
	C419	C	0.014103	0.125010	0.465207
	C420	C	0.057126	0.375267	0.366461
	C421	C	0.045044	0.375162	0.355404
	C422	C	0.039261	0.464113	0.350361
	C423	C	0.028002	0.463988	0.340252
	C424	C	0.022305	0.375203	0.334991
	C425	C	0.028097	0.286220	0.340025
	C426	C	0.039342	0.286290	0.350170
	C427	C	0.010223	0.375282	0.323920
	C428	C	0.093246	0.374432	0.363888
	C429	C	0.105353	0.374635	0.351550
	C430	C	0.111174	0.285764	0.345772
	C431	C	0.122559	0.285767	0.334720
	C432	C	0.128436	0.374741	0.329221
	C433	C	0.122618	0.463783	0.334980
	C434	C	0.111217	0.463682	0.346025
	C435	C	0.140841	0.374685	0.317587
	H436	H	0.126953	0.216380	0.330452
	H437	H	0.106801	0.216549	0.350122
	H438	H	0.126936	0.283012	0.437662
	H439	H	0.106997	0.283210	0.419524
	H440	H	0.075297	0.125247	0.362023
	H441	H	0.076095	0.375570	0.411909
	H442	H	-0.003826	0.375236	0.464595
	H443	H	0.158559	0.124729	0.322308
	H444	H	0.043713	0.217349	0.354048
	H445	H	0.023780	0.217259	0.335981
	H446	H	0.026716	0.282880	0.449606
	H447	H	0.045276	0.283442	0.426513
	H448	H	0.023630	0.533001	0.336379
	H449	H	0.043579	0.533002	0.354433
	H450	H	0.045390	-0.033213	0.426826
	H451	H	0.026832	-0.033393	0.450002
	H452	H	0.107004	-0.032845	0.419393
	H453	H	0.126936	-0.032629	0.437556
	H454	H	0.106879	0.532713	0.350556
	H455	H	0.127100	0.532831	0.330832
	Al456	Al	0.080354	-0.500323	0.572975
	Al457	Al	0.080328	-0.250073	0.572968
	Al458	Al	-0.002958	-0.249976	0.489531
	Al459	Al	-0.002911	-0.500205	0.489561
	O460	O	0.093960	-0.459174	0.588815
	O461	O	0.079981	-0.375091	0.561025
	O462	O	0.080617	-0.124852	0.584801
	O463	O	0.150041	-0.459178	0.640452
	O464	O	0.067704	-0.459363	0.591968
	O465	O	0.015606	-0.459198	0.658015
	O466	O	0.067691	-0.291284	0.591978
	O467	O	0.066695	-0.208891	0.557102
	O468	O	0.010665	-0.208516	0.505346
	O469	O	0.093998	-0.290786	0.588710
	O470	O	0.093003	-0.208984	0.553927
	O471	O	0.145669	-0.209483	0.488943
	O472	O	0.015594	-0.291174	0.657885
	O473	O	0.066739	-0.040898	0.557028
	O474	O	0.010661	-0.040590	0.505349
	O475	O	0.145652	-0.041558	0.488886
	O476	O	0.093094	-0.041121	0.554035
	O477	O	0.150027	-0.290875	0.640466
	O478	O	0.002698	-0.124924	0.665161
	O479	O	0.158881	-0.375187	0.482253
	C480	C	0.127660	-0.285665	0.619619
	C481	C	0.133269	-0.374884	0.625046
	C482	C	0.127528	-0.463954	0.619850
	C483	C	0.116361	-0.463946	0.609550
	C484	C	0.110713	-0.374767	0.604178
	C485	C	0.116504	-0.285651	0.609299
	C486	C	0.098680	-0.375009	0.593009
	C487	C	0.145295	-0.375077	0.636225
	C488	C	0.063296	-0.375345	0.597473
	C489	C	0.052166	-0.375440	0.611734
	C490	C	0.046824	-0.286606	0.618414
	C491	C	0.036479	-0.286247	0.631556
	C492	C	0.031193	-0.375248	0.638338
	C493	C	0.036533	-0.464202	0.631602
	C494	C	0.046867	-0.464572	0.618432
	C495	C	0.020018	-0.375151	0.652557
	C496	C	0.061980	-0.124895	0.552826
	C497	C	0.049966	-0.124803	0.541715
	C498	C	0.044309	-0.035885	0.536283
	C499	C	0.033143	-0.035796	0.526008
	C500	C	0.027352	-0.124706	0.520920
	C501	C	0.033042	-0.213696	0.526266
	C502	C	0.044196	-0.213775	0.536564
	C503	C	0.015396	-0.124521	0.509637
	C504	C	0.097514	-0.125167	0.548592
	C505	C	0.108744	-0.125154	0.534542
	C506	C	0.114102	-0.214223	0.527932
	C507	C	0.124535	-0.214261	0.514923
	C508	C	0.129924	-0.125249	0.508251
	C509	C	0.124533	-0.036312	0.514830
	C510	C	0.114091	-0.036119	0.527844
	C511	C	0.141182	-0.125457	0.494286
	H512	H	0.128540	-0.283661	0.509898
	H513	H	0.110070	-0.283444	0.533050
	H514	H	0.132035	-0.216657	0.623576
	H515	H	0.112251	-0.216449	0.605115
	H516	H	0.079621	-0.374202	0.547950
	H517	H	0.080869	-0.124478	0.597826
	H518	H	0.002481	-0.124936	0.652111
	H519	H	0.159028	-0.375199	0.495315
	H520	H	0.048530	-0.282759	0.540623
	H521	H	0.028698	-0.282638	0.522280
	H522	H	0.032514	-0.217219	0.636685
	H523	H	0.050816	-0.217666	0.613224
	H524	H	0.028908	0.032886	0.521785
	H525	H	0.048705	0.033190	0.540106
	H526	H	0.050839	-0.533782	0.613308
	H527	H	0.032553	-0.532915	0.636797
	H528	H	0.111972	-0.532888	0.605595
	H529	H	0.131783	-0.533149	0.624022
	H530	H	0.110036	0.033158	0.532845
	H531	H	0.128551	0.032875	0.509715
	Al532	Al	0.080403	-0.000065	0.572938
	Al533	Al	0.080407	0.249748	0.572940
	Al534	Al	-0.002990	0.250130	0.489576
	Al535	Al	-0.003048	-0.000019	0.489479
	O536	O	0.094012	0.040995	0.588823
	O537	O	0.080049	0.124672	0.561080
	O538	O	0.080644	0.374613	0.584787
	O539	O	0.150049	0.040755	0.640468
	O540	O	0.067769	0.040992	0.592048
	O541	O	0.015709	0.040966	0.658087
	O542	O	0.067727	0.209020	0.592060
	O543	O	0.066796	0.290475	0.556959
	O544	O	0.010595	0.290462	0.505542
	O545	O	0.094034	0.209017	0.588839
	O546	O	0.093122	0.290959	0.554042
	O547	O	0.145715	0.290952	0.488851
	O548	O	0.015610	0.209031	0.658024
	O549	O	0.066732	0.458613	0.557027
	O550	O	0.010717	0.458704	0.505326
	O551	O	0.145714	0.459190	0.488912
	O552	O	0.093069	0.459179	0.553906
	O553	O	0.150144	0.208854	0.640372
	O554	O	0.002636	0.375218	0.665259
	O555	O	0.158725	0.124799	0.482129
	C556	C	0.127625	0.213872	0.619799
	C557	C	0.133359	0.124742	0.625057
	C558	C	0.127631	0.035543	0.619880
	C559	C	0.116443	0.035787	0.609599
	C560	C	0.110739	0.124882	0.604275
	C561	C	0.116454	0.213982	0.609527
	C562	C	0.098757	0.124810	0.593079
	C563	C	0.145378	0.124879	0.636157
	C564	C	0.063323	0.124972	0.597506
	C565	C	0.052173	0.125080	0.611753
	C566	C	0.046811	0.214334	0.618385
	C567	C	0.036468	0.214312	0.631526
	C568	C	0.031169	0.125223	0.638289
	C569	C	0.036501	0.036024	0.631629
	C570	C	0.046836	0.036052	0.618502
	C571	C	0.020046	0.125070	0.652581
	C572	C	0.062013	0.374282	0.552807
	C573	C	0.050005	0.374431	0.541611
	C574	C	0.044327	0.463411	0.536304
	C575	C	0.033159	0.463466	0.526006
	C576	C	0.027378	0.374310	0.520870
	C577	C	0.033025	0.285273	0.526231
	C578	C	0.044199	0.285337	0.536528
	C579	C	0.015399	0.374352	0.509691
	C580	C	0.097528	0.375039	0.548556
	C581	C	0.108760	0.374874	0.534449
	C582	C	0.114140	0.285937	0.527835
	C583	C	0.124592	0.285918	0.514865
	C584	C	0.129939	0.374944	0.508210
	C585	C	0.124594	0.463903	0.514869
	C586	C	0.114132	0.463825	0.527811
	C587	C	0.141231	0.374884	0.494221
	H588	H	0.128694	0.217250	0.509830
	H589	H	0.110137	0.217082	0.532923
	H590	H	0.131976	0.282911	0.623759
	H591	H	0.112175	0.283044	0.605444
	H592	H	0.079650	0.125066	0.547986
	H593	H	0.080927	0.374834	0.597847
	H594	H	0.002290	0.375394	0.652165
	H595	H	0.158779	0.125103	0.495269
	H596	H	0.048468	0.216459	0.540696
	H597	H	0.028620	0.216536	0.522336
	H598	H	0.032398	0.283408	0.636630
	H599	H	0.050783	0.283272	0.613262
	H600	H	0.028899	0.532331	0.521917
	H601	H	0.048694	0.532132	0.540343
	H602	H	0.050858	-0.032880	0.613353
	H603	H	0.032532	-0.033256	0.636778
	H604	H	0.112109	-0.033198	0.605538
	H605	H	0.131974	-0.033329	0.623919
	H606	H	0.110054	0.532614	0.532884
	H607	H	0.128640	0.533045	0.509859
	Al608	Al	0.086320	-0.500181	0.760555
	Al609	Al	0.086294	-0.250331	0.760550
	Al610	Al	0.002971	-0.249745	0.677036
	Al611	Al	0.002973	-0.499763	0.677150
	O612	O	0.099895	-0.459310	0.776436
	O613	O	0.085927	-0.375164	0.748643
	O614	O	0.086599	-0.125173	0.772438
	O615	O	0.155980	-0.458935	0.827924
	O616	O	0.073594	-0.459460	0.779568
	O617	O	0.020886	-0.459482	0.844511
	O618	O	0.073555	-0.291320	0.779536
	O619	O	0.072653	-0.209248	0.744620
	O620	O	0.016618	-0.208982	0.692888
	O621	O	0.099914	-0.291061	0.776332
	O622	O	0.098959	-0.208961	0.741529
	O623	O	0.150936	-0.208916	0.675397
	O624	O	0.020889	-0.291357	0.844550
	O625	O	0.072647	-0.041282	0.744671
	O626	O	0.016653	-0.040985	0.692934
	O627	O	0.151006	-0.040608	0.675471
	O628	O	0.098924	-0.040918	0.741486
	O629	O	0.155904	-0.290705	0.828083
	O630	O	0.007798	-0.125324	0.851200
	O631	O	0.163989	-0.374925	0.668214
	C632	C	0.133579	-0.285872	0.807226
	C633	C	0.139264	-0.374960	0.812469
	C634	C	0.133490	-0.464107	0.807270
	C635	C	0.122303	-0.464097	0.797029
	C636	C	0.116635	-0.374920	0.791763
	C637	C	0.122405	-0.285903	0.796961
	C638	C	0.104639	-0.374976	0.780608
	C639	C	0.151251	-0.375053	0.823722
	C640	C	0.069146	-0.375424	0.784896
	C641	C	0.057837	-0.375285	0.798931
	C642	C	0.052427	-0.286184	0.805521
	C643	C	0.041966	-0.286171	0.818473
	C644	C	0.036635	-0.375392	0.825141
	C645	C	0.042047	-0.464513	0.818537
	C646	C	0.052518	-0.464504	0.805585
	C647	C	0.025345	-0.375281	0.839176
	C648	C	0.067929	-0.125305	0.740388
	C649	C	0.055927	-0.125110	0.729216
	C650	C	0.050214	-0.036166	0.723949
	C651	C	0.039048	-0.036111	0.713614
	C652	C	0.033348	-0.125268	0.708364
	C653	C	0.039074	-0.214175	0.713603
	C654	C	0.050229	-0.214138	0.723891
	C655	C	0.021388	-0.124938	0.697188
	C656	C	0.103376	-0.124826	0.736022
	C657	C	0.114467	-0.125068	0.721718
	C658	C	0.119736	-0.214082	0.714939
	C659	C	0.130068	-0.214042	0.701775
	C660	C	0.135433	-0.125032	0.695106
	C661	C	0.130169	-0.036141	0.701907
	C662	C	0.119822	-0.036128	0.715063
	C663	C	0.146567	-0.124587	0.680842
	H664	H	0.134010	-0.283041	0.696554
	H665	H	0.115706	-0.282872	0.720093
	H666	H	0.137930	-0.216887	0.811274
	H667	H	0.118098	-0.216996	0.792854
	H668	H	0.085331	-0.374917	0.735655
	H669	H	0.086765	-0.124934	0.785495
	H670	H	0.007479	-0.126113	0.838223
	H671	H	0.164183	-0.375335	0.681337
	H672	H	0.054546	-0.283175	0.727864
	H673	H	0.034782	-0.283238	0.709529
	H674	H	0.037920	-0.217114	0.823488
	H675	H	0.056446	-0.217003	0.800420
	H676	H	0.034726	0.032984	0.709539
	H677	H	0.054548	0.032849	0.728007
	H678	H	0.056627	-0.533489	0.800538
	H679	H	0.038082	-0.533441	0.823634
	H680	H	0.117924	-0.532826	0.793072
	H681	H	0.137770	-0.533213	0.811403
	H682	H	0.115914	0.032932	0.720286
	H683	H	0.134232	0.032825	0.696827
	Al684	Al	0.086253	0.000014	0.760545
	Al685	Al	0.086261	0.249814	0.760442
	Al686	Al	0.003013	0.249970	0.677127
	Al687	Al	0.003012	0.000244	0.677110
	O688	O	0.099885	0.040930	0.776300
	O689	O	0.085813	0.125081	0.748632
	O690	O	0.086624	0.374624	0.772442
	O691	O	0.155960	0.040774	0.828054
	O692	O	0.073567	0.040567	0.779590
	O693	O	0.020813	0.040458	0.844419
	O694	O	0.073507	0.208553	0.779570
	O695	O	0.072699	0.291068	0.744599
	O696	O	0.016645	0.290903	0.693027
	O697	O	0.099847	0.208660	0.776427
	O698	O	0.098936	0.290840	0.741349
	O699	O	0.151003	0.290989	0.675235
	O700	O	0.020898	0.208654	0.844559
	O701	O	0.072644	0.459168	0.744655
	O702	O	0.016553	0.459168	0.693046
	O703	O	0.150992	0.459021	0.675370
	O704	O	0.098990	0.458920	0.741481
	O705	O	0.155874	0.208827	0.828071
	O706	O	0.007799	0.374889	0.851358
	O707	O	0.164056	0.124760	0.668150
	C708	C	0.133480	0.213396	0.807399
	C709	C	0.139208	0.124498	0.812576
	C710	C	0.133508	0.035743	0.807306
	C711	C	0.122350	0.035799	0.796973
	C712	C	0.116607	0.124742	0.791811
	C713	C	0.122317	0.213518	0.797060
	C714	C	0.104610	0.124701	0.780595
	C715	C	0.151195	0.124617	0.823821
	C716	C	0.069100	0.124616	0.784960
	C717	C	0.057831	0.124507	0.799019
	C718	C	0.052439	0.213460	0.805599
	C719	C	0.041977	0.213362	0.818557
	C720	C	0.036606	0.124413	0.825165
	C721	C	0.042003	0.035513	0.818605
	C722	C	0.052477	0.035559	0.805677
	C723	C	0.025333	0.124432	0.839132
	C724	C	0.067946	0.375124	0.740363
	C725	C	0.055969	0.375088	0.729139
	C726	C	0.050224	0.464141	0.723939
	C727	C	0.039070	0.463903	0.713655
	C728	C	0.033367	0.375065	0.708361
	C729	C	0.039135	0.286048	0.713509
	C730	C	0.050309	0.286098	0.723804
	C731	C	0.021332	0.375033	0.697268
	C732	C	0.103379	0.375014	0.735984
	C733	C	0.114524	0.375136	0.721706
	C734	C	0.119738	0.286208	0.714870
	C735	C	0.130077	0.286147	0.701702
	C736	C	0.135483	0.374924	0.695066
	C737	C	0.130223	0.464035	0.701855
	C738	C	0.119885	0.464152	0.715038
	C739	C	0.146602	0.375027	0.680753
	H740	H	0.134007	0.217093	0.696420
	H741	H	0.115714	0.217220	0.719908
	H742	H	0.137755	0.282115	0.811501
	H743	H	0.117985	0.282308	0.793052
	H744	H	0.085400	0.124489	0.735615
	H745	H	0.087004	0.374626	0.785421
	H746	H	0.007494	0.374556	0.838308
	H747	H	0.164563	0.124653	0.681167
	H748	H	0.054640	0.217469	0.727886
	H749	H	0.034800	0.217183	0.709431
	H750	H	0.037964	0.282366	0.823648
	H751	H	0.056478	0.282696	0.800541
	H752	H	0.034718	0.532731	0.709682
	H753	H	0.054498	0.533110	0.728080
	H754	H	0.056543	-0.033458	0.800632
	H755	H	0.037993	-0.033482	0.823699
	H756	H	0.118049	-0.033114	0.792893
	H757	H	0.137812	-0.033243	0.811307
	H758	H	0.115940	0.532965	0.720268
	H759	H	0.134238	0.533231	0.696718
	Al760	Al	0.091240	-0.500167	0.946428
	Al761	Al	0.091284	-0.250211	0.946497
	Al762	Al	0.007982	-0.250207	0.863222
	Al763	Al	0.008061	-0.499999	0.863239
	O764	O	0.104740	-0.459191	0.962605
	O765	O	0.091094	-0.375054	0.934533
	O766	O	0.091533	-0.124964	0.958460
	O767	O	0.161161	-0.459060	1.013523
	O768	O	0.078062	-0.459112	0.964749
	O769	O	0.021010	-0.459025	1.020527
	O770	O	0.078114	-0.290876	0.964693
	O771	O	0.077792	-0.209745	0.930375
	O772	O	0.021446	-0.209462	0.879424
	O773	O	0.104714	-0.291046	0.962725
	O774	O	0.104232	-0.209548	0.927820
	O775	O	0.156944	-0.208987	0.862936
	O776	O	0.020929	-0.291054	1.020472
	O777	O	0.077832	-0.041252	0.930347
	O778	O	0.021443	-0.041235	0.879225
	O779	O	0.156894	-0.040632	0.862962
	O780	O	0.104221	-0.041416	0.927816
	O781	O	0.161135	-0.290864	1.013551
	O782	O	0.007408	-0.125356	1.024283
	O783	O	0.169893	-0.375357	0.855733
	C784	C	0.138482	-0.285773	0.993285
	C785	C	0.144285	-0.374929	0.998353
	C786	C	0.138586	-0.464208	0.993098
	C787	C	0.127343	-0.464232	0.982976
	C788	C	0.121515	-0.374988	0.978014
	C789	C	0.127223	-0.285750	0.983213
	C790	C	0.109444	-0.375144	0.966944
	C791	C	0.156404	-0.374974	1.009327
	C792	C	0.073311	-0.374911	0.969433
	C793	C	0.061207	-0.374682	0.981824
	C794	C	0.055393	-0.285620	0.987538
	C795	C	0.044041	-0.285808	0.998645
	C796	C	0.038210	-0.374752	1.004246
	C797	C	0.044092	-0.463867	0.998700
	C798	C	0.055436	-0.463666	0.987569
	C799	C	0.025847	-0.374874	1.016023
	C800	C	0.073038	-0.125492	0.926221
	C801	C	0.060913	-0.125084	0.915282
	C802	C	0.055229	-0.035889	0.910028
	C803	C	0.044009	-0.035793	0.899821
	C804	C	0.038224	-0.124988	0.894693
	C805	C	0.043921	-0.214065	0.899917
	C806	C	0.055145	-0.214237	0.910106
	C807	C	0.026174	-0.125004	0.883563
	C808	C	0.108738	-0.125198	0.922537
	C809	C	0.120048	-0.125379	0.908595
	C810	C	0.125403	-0.214319	0.901968
	C811	C	0.135879	-0.214294	0.889025
	C812	C	0.141237	-0.125203	0.882421
	C813	C	0.135868	-0.036272	0.889022
	C814	C	0.125377	-0.036274	0.901958
	C815	C	0.152492	-0.124963	0.868406
	H816	H	0.139871	-0.283114	0.883955
	H817	H	0.121363	-0.283324	0.907069
	H818	H	0.142813	-0.216727	0.997244
	H819	H	0.122816	-0.216938	0.979328
	H820	H	0.090855	-0.375052	0.921529
	H821	H	0.091764	-0.124988	0.971510
	H822	H	0.007948	-0.125541	1.011190
	H823	H	0.170044	-0.375334	0.868856
	H824	H	0.059480	-0.283165	0.914107
	H825	H	0.039546	-0.282658	0.895947
	H826	H	0.039570	-0.217164	1.002900
	H827	H	0.059731	-0.216732	0.983167
	H828	H	0.039726	0.033009	0.895753
	H829	H	0.059655	0.032804	0.913965
	H830	H	0.059878	-0.532496	0.983268
	H831	H	0.039736	-0.532705	1.003041
	H832	H	0.123031	-0.533126	0.978863
	H833	H	0.143031	-0.533087	0.996935
	H834	H	0.121337	0.032406	0.906989
	H835	H	0.139877	0.032554	0.883923
	Al836	Al	0.091334	-0.000035	0.946491
	Al837	Al	0.091359	0.249784	0.946555
	Al838	Al	0.007998	0.249801	0.863182
	Al839	Al	0.007988	-0.000428	0.863158
	O840	O	0.104851	0.040956	0.962604
	O841	O	0.091107	0.124736	0.934608
	O842	O	0.091420	0.374829	0.958487
	O843	O	0.161172	0.040974	1.013720
	O844	O	0.078205	0.040710	0.964837
	O845	O	0.020975	0.040893	1.020369
	O846	O	0.078210	0.208726	0.964894
	O847	O	0.077835	0.290495	0.930336
	O848	O	0.021436	0.290972	0.879428
	O849	O	0.104799	0.209016	0.962780
	O850	O	0.104274	0.290679	0.927907
	O851	O	0.156888	0.291250	0.862884
	O852	O	0.021018	0.208788	1.020400
	O853	O	0.077746	0.458607	0.930408
	O854	O	0.021458	0.458960	0.879435
	O855	O	0.156894	0.459399	0.862872
	O856	O	0.104206	0.458817	0.927871
	O857	O	0.161235	0.209064	1.013644
	O858	O	0.007379	0.374663	1.024340
	O859	O	0.169958	0.124897	0.855782
	C860	C	0.138553	0.213855	0.993429
	C861	C	0.144386	0.124851	0.998434
	C862	C	0.138672	0.035479	0.993217
	C863	C	0.127435	0.035404	0.983076
	C864	C	0.121633	0.124589	0.977962
	C865	C	0.127299	0.213801	0.983300
	C866	C	0.109546	0.124858	0.966905
	C867	C	0.156463	0.125130	1.009453
	C868	C	0.073446	0.124832	0.969582
	C869	C	0.061300	0.124713	0.981835
	C870	C	0.055476	0.213667	0.987508
	C871	C	0.044112	0.213730	0.998570
	C872	C	0.038250	0.124758	1.004150
	C873	C	0.044144	0.035784	0.998591
	C874	C	0.055508	0.035731	0.987540
	C875	C	0.025888	0.124863	1.015971
	C876	C	0.073021	0.374484	0.926185
	C877	C	0.060983	0.374441	0.915151
	C878	C	0.055227	0.463415	0.910015
	C879	C	0.044011	0.463440	0.899877
	C880	C	0.038260	0.374730	0.894662
	C881	C	0.043982	0.285730	0.899847
	C882	C	0.055209	0.285623	0.909988
	C883	C	0.026196	0.374744	0.883645
	C884	C	0.108724	0.374909	0.922497
	C885	C	0.119991	0.375093	0.908545
	C886	C	0.125413	0.286074	0.901976
	C887	C	0.135860	0.285975	0.889013
	C888	C	0.141186	0.375187	0.882322
	C889	C	0.135822	0.464189	0.888968
	C890	C	0.125379	0.464050	0.901928
	C891	C	0.152435	0.375233	0.868234
	H892	H	0.139951	0.216871	0.883970
	H893	H	0.121401	0.217096	0.907108
	H894	H	0.142814	0.282842	0.997561
	H895	H	0.122853	0.282799	0.979476
	H896	H	0.090924	0.125059	0.921510
	H897	H	0.091390	0.375349	0.971463
	H898	H	0.008202	0.374726	1.011168
	H899	H	0.170306	0.125146	0.868911
	H900	H	0.059554	0.216857	0.914050
	H901	H	0.039616	0.217061	0.895939
	H902	H	0.039750	0.282656	1.002923
	H903	H	0.059904	0.282538	0.983185
	H904	H	0.039618	0.532489	0.895946
	H905	H	0.059558	0.532271	0.914015
	H906	H	0.059935	-0.033196	0.983253
	H907	H	0.039768	-0.033158	1.002968
	H908	H	0.123102	-0.033602	0.979040
	H909	H	0.143042	-0.033536	0.997168
	H910	H	0.121321	0.532990	0.906989
	H911	H	0.139822	0.533306	0.883885
	Al912	Al	0.258062	-0.500255	0.113148
	Al913	Al	0.258093	-0.250067	0.113159
	Al914	Al	0.174704	-0.250248	0.029776
	Al915	Al	0.174617	-0.499912	0.029766
	O916	O	0.271490	-0.458946	0.129442
	O917	O	0.257893	-0.375077	0.101260
	O918	O	0.258225	-0.125151	0.124953
	O919	O	0.328004	-0.458528	0.180271
	O920	O	0.244934	-0.458681	0.131432
	O921	O	0.187624	-0.458864	0.187009
	O922	O	0.244929	-0.290558	0.131423
	O923	O	0.244560	-0.209597	0.097005
	O924	O	0.188108	-0.209739	0.046113
	O925	O	0.271532	-0.291078	0.129331
	O926	O	0.271026	-0.209290	0.094500
	O927	O	0.323543	-0.209066	0.029366
	O928	O	0.187650	-0.290924	0.186982
	O929	O	0.244571	-0.041225	0.096880
	O930	O	0.188184	-0.041284	0.045985
	O931	O	0.323541	-0.040975	0.029350
	O932	O	0.270976	-0.041256	0.094360
	O933	O	0.327950	-0.290546	0.180330
	O934	O	0.174195	-0.124852	0.190938
	O935	O	0.336609	-0.374860	0.022307
	C936	C	0.305322	-0.285925	0.160008
	C937	C	0.311138	-0.374778	0.165114
	C938	C	0.305368	-0.463674	0.159960
	C939	C	0.294124	-0.464041	0.149854
	C940	C	0.288340	-0.375151	0.144683
	C941	C	0.294082	-0.286189	0.149900
	C942	C	0.276274	-0.374815	0.133698
	C943	C	0.323223	-0.374673	0.176074
	C944	C	0.240138	-0.374699	0.136060
	C945	C	0.227995	-0.374878	0.148363
	C946	C	0.222129	-0.285993	0.153998
	C947	C	0.210727	-0.285906	0.165040
	C948	C	0.204877	-0.375023	0.170684
	C949	C	0.210772	-0.463984	0.165096
	C950	C	0.222169	-0.464013	0.154064
	C951	C	0.192528	-0.374949	0.182480
	C952	C	0.239808	-0.125309	0.092810
	C953	C	0.227740	-0.125482	0.081722
	C954	C	0.222022	-0.036089	0.076500
	C955	C	0.210782	-0.036047	0.066380
	C956	C	0.204966	-0.125267	0.061335
	C957	C	0.210688	-0.214353	0.066587
	C958	C	0.221926	-0.214562	0.076715
	C959	C	0.192927	-0.125461	0.050222
	C960	C	0.275483	-0.125447	0.089099
	C961	C	0.286719	-0.125287	0.075079
	C962	C	0.292105	-0.214315	0.068427
	C963	C	0.302523	-0.214289	0.055434
	C964	C	0.307860	-0.125270	0.048823
	C965	C	0.302536	-0.036446	0.055554
	C966	C	0.292103	-0.036362	0.068525
	C967	C	0.319127	-0.124932	0.034736
	H968	H	0.306592	-0.283211	0.050389
	H969	H	0.288102	-0.283385	0.073559
	H970	H	0.309637	-0.216744	0.163960
	H971	H	0.289631	-0.217095	0.146020
	H972	H	0.257606	-0.375231	0.088209
	H973	H	0.258195	-0.125098	0.138021
	H974	H	0.175132	-0.124431	0.177823
	H975	H	0.336887	-0.375156	0.035446
	H976	H	0.226232	-0.283632	0.080778
	H977	H	0.206294	-0.283405	0.062704
	H978	H	0.206291	-0.216761	0.169240
	H979	H	0.226507	-0.217011	0.149598
	H980	H	0.206453	0.033188	0.062311
	H981	H	0.226446	0.032766	0.080417
	H982	H	0.226558	-0.533232	0.149707
	H983	H	0.206389	-0.532993	0.169388
	H984	H	0.289747	-0.533055	0.145975
	H985	H	0.309763	-0.532611	0.163888
	H986	H	0.288116	0.032521	0.073672
	H987	H	0.306631	0.032478	0.050538
	Al988	Al	0.258042	-0.000054	0.112998
	Al989	Al	0.258057	0.249829	0.113178
	Al990	Al	0.174750	0.249738	0.029854
	Al991	Al	0.174719	0.000046	0.029832
	O992	O	0.271515	0.040921	0.129199
	O993	O	0.257827	0.125064	0.101121
	O994	O	0.258296	0.374805	0.125068
	O995	O	0.327901	0.040899	0.180295
	O996	O	0.244862	0.040658	0.131315
	O997	O	0.187726	0.040633	0.187032
	O998	O	0.244891	0.208648	0.131411
	O999	O	0.244527	0.290854	0.097046
	O1000	O	0.188193	0.290703	0.045994
	O1001	O	0.271461	0.208870	0.129406
	O1002	O	0.270962	0.290875	0.094476
	O1003	O	0.323629	0.290992	0.029559
	O1004	O	0.187674	0.208541	0.187047
	O1005	O	0.244571	0.459255	0.096927
	O1006	O	0.188169	0.458865	0.045929
	O1007	O	0.323535	0.458978	0.029431
	O1008	O	0.270941	0.458770	0.094401
	O1009	O	0.327884	0.208967	0.180310
	O1010	O	0.174119	0.374929	0.190898
	O1011	O	0.336584	0.124656	0.022306
	C1012	C	0.305256	0.213726	0.160005
	C1013	C	0.311049	0.124768	0.165077
	C1014	C	0.305345	0.035605	0.159820
	C1015	C	0.294087	0.035496	0.149705
	C1016	C	0.288296	0.124520	0.144598
	C1017	C	0.293998	0.213508	0.149896
	C1018	C	0.276247	0.124692	0.133557
	C1019	C	0.323135	0.124939	0.176056
	C1020	C	0.240091	0.124698	0.136092
	C1021	C	0.227972	0.124688	0.148379
	C1022	C	0.222146	0.214044	0.154010
	C1023	C	0.210789	0.214123	0.165087
	C1024	C	0.204913	0.124923	0.170768
	C1025	C	0.210786	0.035737	0.165263
	C1026	C	0.222146	0.035578	0.154189
	C1027	C	0.192599	0.124872	0.182603
	C1028	C	0.239785	0.374969	0.092820
	C1029	C	0.227741	0.375104	0.081720
	C1030	C	0.222010	0.464188	0.076521
	C1031	C	0.210776	0.464415	0.066335
	C1032	C	0.205003	0.375158	0.061280
	C1033	C	0.210725	0.285927	0.066510
	C1034	C	0.221966	0.285994	0.076655
	C1035	C	0.192963	0.374982	0.050138
	C1036	C	0.275391	0.374748	0.089090
	C1037	C	0.286703	0.374824	0.075122
	C1038	C	0.292114	0.285997	0.068598
	C1039	C	0.302575	0.286067	0.055663
	C1040	C	0.307869	0.374931	0.048913
	C1041	C	0.302432	0.463759	0.055402
	C1042	C	0.291969	0.463684	0.068353
	C1043	C	0.319108	0.374917	0.034823
	H1044	H	0.306622	0.217286	0.050605
	H1045	H	0.288113	0.217157	0.073751
	H1046	H	0.309567	0.282713	0.164013
	H1047	H	0.289631	0.282298	0.146013
	H1048	H	0.257527	0.125243	0.088121
	H1049	H	0.258467	0.375212	0.138135
	H1050	H	0.174932	0.375443	0.177782
	H1051	H	0.336904	0.124096	0.035404
	H1052	H	0.226218	0.216868	0.080772
	H1053	H	0.206380	0.216852	0.062513
	H1054	H	0.206427	0.282980	0.169385
	H1055	H	0.226568	0.283036	0.149627
	H1056	H	0.206477	0.533512	0.062248
	H1057	H	0.226323	0.533334	0.080519
	H1058	H	0.226584	-0.033711	0.149908
	H1059	H	0.206410	-0.033122	0.169721
	H1060	H	0.289762	-0.033639	0.145633
	H1061	H	0.309734	-0.033433	0.163676
	H1062	H	0.287848	0.532340	0.073216
	H1063	H	0.306377	0.532507	0.050161
	Al1064	Al	0.256709	-0.500564	0.286396
	Al1065	Al	0.256760	-0.249808	0.286245
	Al1066	Al	0.173390	-0.250699	0.203076
	Al1067	Al	0.173384	-0.499562	0.203048
	O1068	O	0.269280	-0.459355	0.304096
	O1069	O	0.257483	-0.375398	0.274199
	O1070	O	0.255540	-0.125210	0.298237
	O1071	O	0.327720	-0.458911	0.351018
	O1072	O	0.241310	-0.458832	0.300327
	O1073	O	0.175432	-0.459220	0.283206
	O1074	O	0.241285	-0.290590	0.300125
	O1075	O	0.244384	-0.208723	0.267719
	O1076	O	0.185919	-0.208910	0.220819
	O1077	O	0.269256	-0.291353	0.303968
	O1078	O	0.271040	-0.209355	0.270191
	O1079	O	0.328367	-0.209193	0.214793
	O1080	O	0.175440	-0.291108	0.283132
	O1081	O	0.244321	-0.040800	0.267871
	O1082	O	0.185926	-0.040774	0.220839
	O1083	O	0.328259	-0.041257	0.214641
	O1084	O	0.271074	-0.041490	0.270230
	O1085	O	0.327557	-0.290762	0.351353
	O1086	O	0.161172	-0.125094	0.285009
	O1087	O	0.341657	-0.374995	0.208301
	C1088	C	0.304533	-0.285133	0.331538
	C1089	C	0.310497	-0.374754	0.336386
	C1090	C	0.304452	-0.464514	0.331722
	C1091	C	0.292734	-0.464673	0.322742
	C1092	C	0.286704	-0.375002	0.318143
	C1093	C	0.292812	-0.285323	0.322540
	C1094	C	0.274203	-0.375361	0.307944
	C1095	C	0.322846	-0.374798	0.347025
	C1096	C	0.235654	-0.374795	0.299177
	C1097	C	0.221472	-0.374903	0.296101
	C1098	C	0.214813	-0.285084	0.293946
	C1099	C	0.201916	-0.284994	0.289483
	C1100	C	0.195297	-0.374951	0.287138
	C1101	C	0.201916	-0.464781	0.289359
	C1102	C	0.214826	-0.464760	0.293837
	C1103	C	0.181093	-0.375156	0.284091
	C1104	C	0.239518	-0.124920	0.263638
	C1105	C	0.227176	-0.124968	0.253051
	C1106	C	0.221195	-0.035416	0.248171
	C1107	C	0.209474	-0.035490	0.239194
	C1108	C	0.203367	-0.125160	0.234792
	C1109	C	0.209390	-0.214803	0.239496
	C1110	C	0.221133	-0.214678	0.248417
	C1111	C	0.190845	-0.125035	0.224725
	C1112	C	0.275976	-0.125306	0.265742
	C1113	C	0.288316	-0.125391	0.254023
	C1114	C	0.294158	-0.214273	0.248386
	C1115	C	0.305552	-0.214077	0.237359
	C1116	C	0.311386	-0.125205	0.231699
	C1117	C	0.305569	-0.036325	0.237460
	C1118	C	0.294198	-0.036425	0.248485
	C1119	C	0.323550	-0.125281	0.219475
	H1120	H	0.309982	-0.282843	0.233075
	H1121	H	0.289776	-0.283325	0.252715
	H1122	H	0.309052	-0.215346	0.335065
	H1123	H	0.288328	-0.215561	0.319023
	H1124	H	0.258290	-0.374969	0.261082
	H1125	H	0.253568	-0.125354	0.311106
	H1126	H	0.162907	-0.124821	0.272087
	H1127	H	0.341686	-0.375438	0.221399
	H1128	H	0.225614	-0.284600	0.251966
	H1129	H	0.204813	-0.284200	0.236131
	H1130	H	0.196919	-0.214925	0.287891
	H1131	H	0.219772	-0.215072	0.295882
	H1132	H	0.204971	0.034208	0.235583
	H1133	H	0.225748	0.034362	0.251496
	H1134	H	0.219765	-0.534841	0.295666
	H1135	H	0.196879	-0.534735	0.287657
	H1136	H	0.288159	-0.534240	0.319326
	H1137	H	0.308915	-0.534583	0.335294
	H1138	H	0.289810	0.032595	0.252858
	H1139	H	0.310007	0.032933	0.233216
	Al1140	Al	0.256777	-0.000717	0.286241
	Al1141	Al	0.256734	0.250407	0.286388
	Al1142	Al	0.173376	0.249211	0.203016
	Al1143	Al	0.173399	0.000189	0.203134
	O1144	O	0.269255	0.040450	0.304055
	O1145	O	0.257481	0.125104	0.274162
	O1146	O	0.255499	0.374977	0.298437
	O1147	O	0.327701	0.041244	0.351176
	O1148	O	0.241341	0.040501	0.300112
	O1149	O	0.175449	0.040710	0.283101
	O1150	O	0.241303	0.208825	0.300215
	O1151	O	0.244344	0.291210	0.267859
	O1152	O	0.185954	0.290808	0.220719
	O1153	O	0.269246	0.208613	0.304082
	O1154	O	0.271039	0.290847	0.270420
	O1155	O	0.328207	0.291037	0.214683
	O1156	O	0.175450	0.209238	0.283253
	O1157	O	0.244238	0.459050	0.268087
	O1158	O	0.185980	0.458974	0.220723
	O1159	O	0.328249	0.459386	0.214709
	O1160	O	0.270979	0.458737	0.270282
	O1161	O	0.327589	0.209278	0.351405
	O1162	O	0.161216	0.374718	0.285099
	O1163	O	0.341575	0.124987	0.208325
	C1164	C	0.304472	0.214697	0.331720
	C1165	C	0.310528	0.125245	0.336420
	C1166	C	0.304507	0.035740	0.331761
	C1167	C	0.292780	0.035535	0.322740
	C1168	C	0.286703	0.124916	0.318111
	C1169	C	0.292739	0.214370	0.322705
	C1170	C	0.274220	0.124595	0.307978
	C1171	C	0.322805	0.125142	0.347084
	C1172	C	0.235678	0.124602	0.299176
	C1173	C	0.221463	0.124769	0.296134
	C1174	C	0.214849	0.214710	0.293947
	C1175	C	0.201921	0.214790	0.289518
	C1176	C	0.195285	0.124920	0.287298
	C1177	C	0.201938	0.035095	0.289369
	C1178	C	0.214847	0.034977	0.293793
	C1179	C	0.181080	0.125003	0.284197
	C1180	C	0.239495	0.374958	0.263735
	C1181	C	0.227209	0.375120	0.252913
	C1182	C	0.221236	0.464623	0.248119
	C1183	C	0.209532	0.464534	0.239103
	C1184	C	0.203446	0.374995	0.234645
	C1185	C	0.209448	0.285505	0.239308
	C1186	C	0.221145	0.285664	0.248332
	C1187	C	0.190932	0.374864	0.224529
	C1188	C	0.275891	0.374750	0.265861
	C1189	C	0.288229	0.374821	0.254010
	C1190	C	0.294110	0.285964	0.248446
	C1191	C	0.305474	0.286087	0.237341
	C1192	C	0.311277	0.375174	0.231618
	C1193	C	0.305515	0.464086	0.237429
	C1194	C	0.294131	0.463899	0.248531
	C1195	C	0.323430	0.375179	0.219353
	H1196	H	0.309857	0.216925	0.233060
	H1197	H	0.289702	0.216942	0.252778
	H1198	H	0.308945	0.284638	0.335227
	H1199	H	0.288193	0.283791	0.319173
	H1200	H	0.258440	0.125726	0.261088
	H1201	H	0.253544	0.374596	0.311292
	H1202	H	0.163248	0.374795	0.272173
	H1203	H	0.341550	0.124649	0.221325
	H1204	H	0.225633	0.215887	0.251899
	H1205	H	0.204951	0.215800	0.235793
	H1206	H	0.196924	0.284644	0.287859
	H1207	H	0.219790	0.284691	0.295772
	H1208	H	0.205085	0.534423	0.235427
	H1209	H	0.225741	0.534524	0.251546
	H1210	H	0.219862	-0.035127	0.295512
	H1211	H	0.196991	-0.034890	0.287577
	H1212	H	0.288298	-0.034469	0.319257
	H1213	H	0.309005	-0.033987	0.335294
	H1214	H	0.289820	0.532830	0.252997
	H1215	H	0.309971	0.532944	0.233199
	Al1216	Al	0.243315	-0.499467	0.380359
	Al1217	Al	0.243315	-0.250405	0.380410
	Al1218	Al	0.159967	-0.249499	0.297002
	Al1219	Al	0.159969	-0.500575	0.297020
	O1220	O	0.255674	-0.459457	0.398891
	O1221	O	0.244508	-0.374832	0.368374
	O1222	O	0.242661	-0.125304	0.392554
	O1223	O	0.314042	-0.459174	0.446067
	O1224	O	0.229060	-0.458688	0.396474
	O1225	O	0.171789	-0.458965	0.451987
	O1226	O	0.229062	-0.290804	0.396485
	O1227	O	0.230756	-0.208918	0.362672
	O1228	O	0.172322	-0.209367	0.315589
	O1229	O	0.255728	-0.291145	0.398797
	O1230	O	0.258796	-0.209186	0.366633
	O1231	O	0.324694	-0.208824	0.383499
	O1232	O	0.171783	-0.290731	0.451897
	O1233	O	0.230689	-0.041013	0.362763
	O1234	O	0.172389	-0.041374	0.315503
	O1235	O	0.324664	-0.040606	0.383451
	O1236	O	0.258786	-0.041210	0.366626
	O1237	O	0.314044	-0.291258	0.446168
	O1238	O	0.158512	-0.125176	0.458388
	O1239	O	0.338825	-0.375129	0.381613
	C1240	C	0.290462	-0.285390	0.427632
	C1241	C	0.296578	-0.375140	0.432076
	C1242	C	0.290555	-0.464845	0.427450
	C1243	C	0.278822	-0.464994	0.418450
	C1244	C	0.272795	-0.375320	0.413726
	C1245	C	0.278741	-0.285567	0.418622
	C1246	C	0.260503	-0.375392	0.403043
	C1247	C	0.309108	-0.375163	0.442230
	C1248	C	0.224154	-0.374849	0.400881
	C1249	C	0.211785	-0.375071	0.412664
	C1250	C	0.205942	-0.286136	0.418252
	C1251	C	0.194530	-0.285975	0.429264
	C1252	C	0.188692	-0.374856	0.434867
	C1253	C	0.194545	-0.463958	0.429269
	C1254	C	0.205959	-0.464082	0.418262
	C1255	C	0.176508	-0.375021	0.447187
	C1256	C	0.225783	-0.125140	0.358857
	C1257	C	0.213298	-0.125239	0.348642
	C1258	C	0.207194	-0.035812	0.344201
	C1259	C	0.195487	-0.035821	0.335164
	C1260	C	0.189505	-0.125372	0.330419
	C1261	C	0.195559	-0.214846	0.335009
	C1262	C	0.207288	-0.214897	0.343996
	C1263	C	0.177190	-0.125317	0.319691
	C1264	C	0.264440	-0.125152	0.367588
	C1265	C	0.278650	-0.125032	0.370631
	C1266	C	0.285304	-0.214834	0.372775
	C1267	C	0.298239	-0.214777	0.377146
	C1268	C	0.304839	-0.124954	0.379445
	C1269	C	0.298195	-0.035171	0.377244
	C1270	C	0.285271	-0.035274	0.372824
	C1271	C	0.319045	-0.124701	0.382449
	H1272	H	0.303192	-0.284632	0.378879
	H1273	H	0.280333	-0.285037	0.371117
	H1274	H	0.294919	-0.215417	0.431231
	H1275	H	0.274174	-0.216076	0.415249
	H1276	H	0.246341	-0.374312	0.355420
	H1277	H	0.242222	-0.124858	0.405758
	H1278	H	0.158564	-0.125150	0.445227
	H1279	H	0.336900	-0.375150	0.394506
	H1280	H	0.211798	-0.284835	0.347462
	H1281	H	0.191075	-0.284746	0.331398
	H1282	H	0.190131	-0.216931	0.433566
	H1283	H	0.210318	-0.217157	0.413838
	H1284	H	0.190976	0.034124	0.331749
	H1285	H	0.211665	0.033994	0.347842
	H1286	H	0.210332	-0.533160	0.413938
	H1287	H	0.190103	-0.532801	0.433584
	H1288	H	0.274358	-0.534886	0.414895
	H1289	H	0.295116	-0.534361	0.430928
	H1290	H	0.280249	0.034841	0.371178
	H1291	H	0.303150	0.034563	0.379090
	Al1292	Al	0.243331	0.000375	0.380392
	Al1293	Al	0.243329	0.249323	0.380437
	Al1294	Al	0.159959	0.250430	0.297090
	Al1295	Al	0.160016	-0.000410	0.296970
	O1296	O	0.255730	0.040557	0.398861
	O1297	O	0.244441	0.124860	0.368373
	O1298	O	0.242527	0.375192	0.392413
	O1299	O	0.314148	0.040620	0.445859
	O1300	O	0.229053	0.040921	0.396512
	O1301	O	0.171694	0.040490	0.451832
	O1302	O	0.229022	0.208910	0.396483
	O1303	O	0.230771	0.291131	0.362752
	O1304	O	0.172326	0.291614	0.315526
	O1305	O	0.255731	0.208617	0.398847
	O1306	O	0.258768	0.290447	0.366570
	O1307	O	0.324664	0.291199	0.383617
	O1308	O	0.171746	0.208440	0.451807
	O1309	O	0.230744	0.459099	0.362628
	O1310	O	0.172434	0.459493	0.315464
	O1311	O	0.324623	0.459393	0.383354
	O1312	O	0.258766	0.458861	0.366475
	O1313	O	0.314047	0.208848	0.446079
	O1314	O	0.158505	0.375023	0.458350
	O1315	O	0.338882	0.124804	0.381710
	C1316	C	0.290551	0.214427	0.427558
	C1317	C	0.296664	0.124858	0.431914
	C1318	C	0.290652	0.035019	0.427272
	C1319	C	0.278899	0.034868	0.418315
	C1320	C	0.272858	0.124471	0.413746
	C1321	C	0.278824	0.214282	0.418552
	C1322	C	0.260561	0.124691	0.403023
	C1323	C	0.309157	0.124697	0.442106
	C1324	C	0.224147	0.124854	0.400958
	C1325	C	0.211770	0.124764	0.412712
	C1326	C	0.205874	0.213730	0.418305
	C1327	C	0.194462	0.213695	0.429278
	C1328	C	0.188642	0.124453	0.434907
	C1329	C	0.194497	0.035527	0.429270
	C1330	C	0.205907	0.035707	0.418288
	C1331	C	0.176505	0.124473	0.447206
	C1332	C	0.225837	0.375038	0.358703
	C1333	C	0.213331	0.374985	0.348597
	C1334	C	0.207236	0.464581	0.344215
	C1335	C	0.195509	0.464600	0.335184
	C1336	C	0.189540	0.375179	0.330297
	C1337	C	0.195547	0.285556	0.334959
	C1338	C	0.207301	0.285650	0.343963
	C1339	C	0.177232	0.375141	0.319683
	C1340	C	0.264418	0.374802	0.367447
	C1341	C	0.278612	0.374993	0.370442
	C1342	C	0.285221	0.285151	0.372764
	C1343	C	0.298149	0.285144	0.377174
	C1344	C	0.304805	0.374981	0.379303
	C1345	C	0.298159	0.464700	0.377102
	C1346	C	0.285247	0.464667	0.372710
	C1347	C	0.318999	0.375117	0.382440
	H1348	H	0.303126	0.215358	0.379029
	H1349	H	0.280208	0.215298	0.371096
	H1350	H	0.295048	0.284060	0.431157
	H1351	H	0.274301	0.284380	0.415114
	H1352	H	0.246047	0.125000	0.355445
	H1353	H	0.241419	0.375335	0.405500
	H1354	H	0.158533	0.374822	0.445200
	H1355	H	0.336922	0.124501	0.394518
	H1356	H	0.211841	0.216253	0.347399
	H1357	H	0.191095	0.215461	0.331488
	H1358	H	0.190084	0.282508	0.433695
	H1359	H	0.210293	0.282667	0.414014
	H1360	H	0.190981	0.534724	0.331814
	H1361	H	0.211713	0.534444	0.347753
	H1362	H	0.210328	-0.033541	0.414040
	H1363	H	0.190138	-0.033597	0.433700
	H1364	H	0.274462	-0.035055	0.414718
	H1365	H	0.295195	-0.034993	0.430650
	H1366	H	0.280274	0.534638	0.371024
	H1367	H	0.303114	0.534497	0.378887
	Al1368	Al	0.241809	-0.499825	0.553694
	Al1369	Al	0.241892	-0.249889	0.553579
	Al1370	Al	0.158635	-0.250022	0.470305
	Al1371	Al	0.158654	-0.500186	0.470257
	O1372	O	0.255347	-0.459230	0.569877
	O1373	O	0.241738	-0.375248	0.541675
	O1374	O	0.242066	-0.124924	0.565504
	O1375	O	0.311756	-0.458857	0.620820
	O1376	O	0.228929	-0.458777	0.572274
	O1377	O	0.176339	-0.459007	0.637289
	O1378	O	0.229003	-0.290996	0.572168
	O1379	O	0.228453	-0.208885	0.537440
	O1380	O	0.172080	-0.208910	0.486490
	O1381	O	0.255344	-0.291182	0.569808
	O1382	O	0.255097	-0.209433	0.535331
	O1383	O	0.312365	-0.208850	0.479878
	O1384	O	0.176380	-0.290917	0.637349
	O1385	O	0.228521	-0.040723	0.537288
	O1386	O	0.172076	-0.040591	0.486518
	O1387	O	0.312298	-0.041275	0.479831
	O1388	O	0.255054	-0.041263	0.535314
	O1389	O	0.311785	-0.290773	0.620823
	O1390	O	0.163349	-0.125275	0.644502
	O1391	O	0.325879	-0.375002	0.476002
	C1392	C	0.289174	-0.285793	0.600381
	C1393	C	0.294946	-0.374819	0.605524
	C1394	C	0.289255	-0.463946	0.600158
	C1395	C	0.278016	-0.464125	0.590048
	C1396	C	0.272204	-0.375032	0.585005
	C1397	C	0.277929	-0.285947	0.590270
	C1398	C	0.260099	-0.375090	0.574066
	C1399	C	0.307031	-0.374732	0.616568
	C1400	C	0.224536	-0.374852	0.577658
	C1401	C	0.213244	-0.374577	0.591614
	C1402	C	0.207971	-0.285654	0.598378
	C1403	C	0.197505	-0.285754	0.611350
	C1404	C	0.192077	-0.374903	0.617903
	C1405	C	0.197415	-0.463734	0.611215
	C1406	C	0.207870	-0.463663	0.598221
	C1407	C	0.180785	-0.374757	0.631886
	C1408	C	0.223722	-0.124843	0.533184
	C1409	C	0.211699	-0.124755	0.522073
	C1410	C	0.205911	-0.035693	0.517015
	C1411	C	0.194660	-0.035789	0.506918
	C1412	C	0.188913	-0.124838	0.501735
	C1413	C	0.194704	-0.213795	0.506826
	C1414	C	0.205952	-0.213774	0.516915
	C1415	C	0.176835	-0.124712	0.490697
	C1416	C	0.259859	-0.125310	0.530645
	C1417	C	0.272016	-0.125116	0.518422
	C1418	C	0.277844	-0.214069	0.512730
	C1419	C	0.289225	-0.214219	0.501718
	C1420	C	0.295095	-0.125278	0.496146
	C1421	C	0.289247	-0.036309	0.501778
	C1422	C	0.277877	-0.036237	0.512825
	C1423	C	0.307446	-0.125085	0.484349
	H1424	H	0.293601	-0.283323	0.497356
	H1425	H	0.273455	-0.283036	0.517064
	H1426	H	0.293485	-0.216605	0.604434
	H1427	H	0.273569	-0.217147	0.586329
	H1428	H	0.241653	-0.374882	0.528618
	H1429	H	0.242354	-0.124790	0.578599
	H1430	H	0.163234	-0.125693	0.631404
	H1431	H	0.325355	-0.375124	0.489114
	H1432	H	0.210312	-0.282575	0.520905
	H1433	H	0.190412	-0.282742	0.502789
	H1434	H	0.193519	-0.216861	0.616537
	H1435	H	0.212076	-0.216545	0.593434
	H1436	H	0.190258	0.032809	0.502965
	H1437	H	0.210208	0.033330	0.521058
	H1438	H	0.211887	-0.532721	0.593165
	H1439	H	0.193384	-0.532917	0.616208
	H1440	H	0.273704	-0.532962	0.586034
	H1441	H	0.293660	-0.532895	0.604069
	H1442	H	0.273504	0.032831	0.517201
	H1443	H	0.293687	0.032633	0.497479
	Al1444	Al	0.241909	0.000101	0.553588
	Al1445	Al	0.241901	0.250112	0.553649
	Al1446	Al	0.158632	0.249778	0.470184
	Al1447	Al	0.158595	-0.000182	0.470256
	O1448	O	0.255393	0.040628	0.569724
	O1449	O	0.241794	0.125148	0.541617
	O1450	O	0.242071	0.375060	0.565641
	O1451	O	0.311813	0.040860	0.620703
	O1452	O	0.229014	0.040806	0.572310
	O1453	O	0.176363	0.040929	0.637329
	O1454	O	0.229014	0.208705	0.572273
	O1455	O	0.228411	0.291010	0.537577
	O1456	O	0.172089	0.290596	0.486386
	O1457	O	0.255378	0.208611	0.569785
	O1458	O	0.255060	0.291075	0.535351
	O1459	O	0.312269	0.291076	0.479939
	O1460	O	0.176436	0.208784	0.637347
	O1461	O	0.228411	0.459214	0.537532
	O1462	O	0.172156	0.458706	0.486404
	O1463	O	0.312222	0.459402	0.479985
	O1464	O	0.254959	0.459159	0.535277
	O1465	O	0.311728	0.208807	0.620933
	O1466	O	0.163332	0.375134	0.644401
	O1467	O	0.325901	0.124948	0.475979
	C1468	C	0.289215	0.214058	0.600328
	C1469	C	0.294970	0.125131	0.605467
	C1470	C	0.289241	0.036162	0.600229
	C1471	C	0.277992	0.035942	0.590090
	C1472	C	0.272230	0.124995	0.584973
	C1473	C	0.277961	0.214127	0.590190
	C1474	C	0.260152	0.124757	0.573963
	C1475	C	0.307060	0.124649	0.616547
	C1476	C	0.224563	0.124622	0.577664
	C1477	C	0.213242	0.124678	0.591582
	C1478	C	0.207937	0.213587	0.598348
	C1479	C	0.197487	0.213521	0.611324
	C1480	C	0.192097	0.124608	0.617871
	C1481	C	0.197379	0.035832	0.611071
	C1482	C	0.207836	0.035742	0.598109
	C1483	C	0.180832	0.124785	0.631909
	C1484	C	0.223692	0.375066	0.533317
	C1485	C	0.211685	0.374663	0.522131
	C1486	C	0.205959	0.463630	0.516855
	C1487	C	0.194756	0.463509	0.506629
	C1488	C	0.188982	0.374422	0.501565
	C1489	C	0.194728	0.285433	0.506794
	C1490	C	0.205953	0.285537	0.517016
	C1491	C	0.176897	0.374609	0.490526
	C1492	C	0.259810	0.375145	0.530658
	C1493	C	0.271959	0.375249	0.518477
	C1494	C	0.277782	0.286046	0.512825
	C1495	C	0.289186	0.285938	0.501837
	C1496	C	0.295059	0.375061	0.496269
	C1497	C	0.289186	0.464249	0.501802
	C1498	C	0.277779	0.464359	0.512809
	C1499	C	0.307380	0.375104	0.484450
	H1500	H	0.293596	0.216714	0.497535
	H1501	H	0.273371	0.216881	0.517182
	H1502	H	0.293563	0.283005	0.604323
	H1503	H	0.273608	0.283162	0.586267
	H1504	H	0.241948	0.125278	0.528536
	H1505	H	0.242265	0.374778	0.578663
	H1506	H	0.162941	0.375158	0.631367
	H1507	H	0.325334	0.124830	0.489151
	H1508	H	0.210285	0.216770	0.521073
	H1509	H	0.190418	0.216667	0.502783
	H1510	H	0.193508	0.282697	0.616484
	H1511	H	0.211996	0.282266	0.593403
	H1512	H	0.190469	0.532390	0.502516
	H1513	H	0.210297	0.532616	0.520844
	H1514	H	0.211813	-0.033299	0.592957
	H1515	H	0.193254	-0.032993	0.615946
	H1516	H	0.273671	-0.033334	0.586077
	H1517	H	0.293585	-0.032863	0.604198
	H1518	H	0.273339	0.533318	0.517074
	H1519	H	0.293599	0.533226	0.497447
	Al1520	Al	0.246981	-0.500119	0.739743
	Al1521	Al	0.246962	-0.249913	0.739721
	Al1522	Al	0.163650	-0.250046	0.656388
	Al1523	Al	0.163668	-0.500058	0.656369
	O1524	O	0.260600	-0.458914	0.755597
	O1525	O	0.246669	-0.375026	0.727925
	O1526	O	0.247351	-0.124941	0.751585
	O1527	O	0.316689	-0.458995	0.807179
	O1528	O	0.234321	-0.459040	0.758757
	O1529	O	0.182228	-0.459088	0.824734
	O1530	O	0.234324	-0.290873	0.758839
	O1531	O	0.233345	-0.209348	0.723865
	O1532	O	0.177277	-0.209258	0.672344
	O1533	O	0.260623	-0.290810	0.755594
	O1534	O	0.259644	-0.209196	0.720661
	O1535	O	0.312390	-0.208879	0.655770
	O1536	O	0.182189	-0.291042	0.824663
	O1537	O	0.233385	-0.041215	0.723755
	O1538	O	0.177309	-0.041171	0.672126
	O1539	O	0.312350	-0.041105	0.655787
	O1540	O	0.259654	-0.041122	0.720658
	O1541	O	0.316753	-0.290931	0.806976
	O1542	O	0.169206	-0.125113	0.831953
	O1543	O	0.325448	-0.374992	0.648980
	C1544	C	0.294211	-0.285872	0.786556
	C1545	C	0.299974	-0.375027	0.791663
	C1546	C	0.294321	-0.464030	0.786276
	C1547	C	0.283153	-0.464025	0.776019
	C1548	C	0.277350	-0.375014	0.770965
	C1549	C	0.283037	-0.285898	0.776290
	C1550	C	0.265336	-0.374958	0.759781
	C1551	C	0.311984	-0.374864	0.802840
	C1552	C	0.229909	-0.374791	0.764260
	C1553	C	0.218776	-0.374938	0.778476
	C1554	C	0.213437	-0.285838	0.785154
	C1555	C	0.203069	-0.285936	0.798298
	C1556	C	0.197808	-0.375106	0.805045
	C1557	C	0.203147	-0.464081	0.798374
	C1558	C	0.213509	-0.463951	0.785242
	C1559	C	0.186628	-0.374942	0.819271
	C1560	C	0.228659	-0.125220	0.719544
	C1561	C	0.216645	-0.125268	0.708370
	C1562	C	0.210907	-0.036364	0.703191
	C1563	C	0.199718	-0.036468	0.692928
	C1564	C	0.194047	-0.125226	0.687629
	C1565	C	0.199755	-0.214119	0.692826
	C1566	C	0.210938	-0.213992	0.703113
	C1567	C	0.182030	-0.125149	0.676485
	C1568	C	0.264106	-0.125097	0.715278
	C1569	C	0.275275	-0.125175	0.701133
	C1570	C	0.280704	-0.213974	0.694603
	C1571	C	0.291168	-0.214093	0.681690
	C1572	C	0.296525	-0.125193	0.675010
	C1573	C	0.291103	-0.036391	0.681584
	C1574	C	0.280635	-0.036342	0.694506
	C1575	C	0.307881	-0.125045	0.661151
	H1576	H	0.295320	-0.283001	0.676813
	H1577	H	0.276747	-0.282656	0.699810
	H1578	H	0.298533	-0.217037	0.790614
	H1579	H	0.278673	-0.217079	0.772317
	H1580	H	0.246386	-0.375116	0.714831
	H1581	H	0.247783	-0.125173	0.764652
	H1582	H	0.168884	-0.125110	0.818871
	H1583	H	0.325632	-0.375073	0.662033
	H1584	H	0.215279	-0.282714	0.707066
	H1585	H	0.195457	-0.282998	0.688753
	H1586	H	0.199050	-0.217042	0.803425
	H1587	H	0.217416	-0.216715	0.780053
	H1588	H	0.195350	0.032455	0.689003
	H1589	H	0.215219	0.032492	0.707291
	H1590	H	0.217544	-0.533123	0.780207
	H1591	H	0.199180	-0.532930	0.803553
	H1592	H	0.278842	-0.533010	0.771865
	H1593	H	0.298690	-0.533053	0.790183
	H1594	H	0.276650	0.032379	0.699624
	H1595	H	0.295176	0.032233	0.676564
	Al1596	Al	0.246958	-0.000034	0.739666
	Al1597	Al	0.246944	0.249911	0.739748
	Al1598	Al	0.163678	0.249798	0.656278
	Al1599	Al	0.163680	-0.000228	0.656337
	O1600	O	0.260653	0.040857	0.755431
	O1601	O	0.246582	0.125072	0.727829
	O1602	O	0.247275	0.374918	0.751613
	O1603	O	0.316736	0.041059	0.807074
	O1604	O	0.234320	0.040641	0.758855
	O1605	O	0.182248	0.040667	0.824796
	O1606	O	0.234315	0.208726	0.758801
	O1607	O	0.233319	0.290943	0.723820
	O1608	O	0.177298	0.290945	0.672200
	O1609	O	0.260610	0.209153	0.755562
	O1610	O	0.259627	0.291175	0.720751
	O1611	O	0.312347	0.291453	0.655852
	O1612	O	0.182237	0.208942	0.824811
	O1613	O	0.233333	0.459059	0.723927
	O1614	O	0.177294	0.459302	0.672206
	O1615	O	0.312259	0.459532	0.655797
	O1616	O	0.259556	0.458910	0.720612
	O1617	O	0.316681	0.209164	0.807197
	O1618	O	0.169163	0.374646	0.832013
	O1619	O	0.325432	0.124930	0.649030
	C1620	C	0.294237	0.214262	0.786461
	C1621	C	0.299955	0.125212	0.791718
	C1622	C	0.294285	0.035968	0.786418
	C1623	C	0.283123	0.035965	0.776111
	C1624	C	0.277356	0.125026	0.770937
	C1625	C	0.283077	0.214210	0.776160
	C1626	C	0.265348	0.125005	0.759757
	C1627	C	0.311952	0.125193	0.802926
	C1628	C	0.229914	0.124720	0.764279
	C1629	C	0.218751	0.124763	0.778513
	C1630	C	0.213383	0.213884	0.785135
	C1631	C	0.203051	0.213899	0.798315
	C1632	C	0.197782	0.124886	0.805083
	C1633	C	0.203099	0.035767	0.798374
	C1634	C	0.213437	0.035767	0.785210
	C1635	C	0.186642	0.124767	0.819338
	C1636	C	0.228625	0.375089	0.719600
	C1637	C	0.216627	0.374998	0.708370
	C1638	C	0.210941	0.464107	0.703071
	C1639	C	0.199777	0.464048	0.692787
	C1640	C	0.194055	0.375148	0.687606
	C1641	C	0.199770	0.285982	0.692881
	C1642	C	0.210922	0.285994	0.703168
	C1643	C	0.182037	0.374933	0.676441
	C1644	C	0.264034	0.375006	0.715220
	C1645	C	0.275260	0.374772	0.701191
	C1646	C	0.280716	0.285887	0.694629
	C1647	C	0.291203	0.286155	0.681720
	C1648	C	0.296534	0.375341	0.675063
	C1649	C	0.291091	0.464219	0.681614
	C1650	C	0.280608	0.463814	0.694533
	C1651	C	0.307795	0.375301	0.661122
	H1652	H	0.295310	0.217134	0.676689
	H1653	H	0.276699	0.216877	0.699689
	H1654	H	0.298533	0.283137	0.790560
	H1655	H	0.278766	0.283165	0.772121
	H1656	H	0.246375	0.125082	0.714805
	H1657	H	0.247656	0.374637	0.764710
	H1658	H	0.168792	0.374904	0.818958
	H1659	H	0.326081	0.124672	0.662018
	H1660	H	0.215227	0.217167	0.707229
	H1661	H	0.195427	0.217129	0.688852
	H1662	H	0.198985	0.282845	0.803354
	H1663	H	0.217379	0.283034	0.779973
	H1664	H	0.195456	0.532676	0.688686
	H1665	H	0.215294	0.532830	0.707042
	H1666	H	0.217506	-0.033232	0.780126
	H1667	H	0.199077	-0.033349	0.803413
	H1668	H	0.278814	-0.032846	0.771967
	H1669	H	0.298603	-0.033084	0.790542
	H1670	H	0.276525	0.532700	0.699517
	H1671	H	0.295072	0.533239	0.676447
	Al1672	Al	0.252950	-0.500242	0.927077
	Al1673	Al	0.252992	-0.250183	0.927069
	Al1674	Al	0.169580	-0.250310	0.843848
	Al1675	Al	0.169584	-0.500194	0.843807
	O1676	O	0.266556	-0.459304	0.942991
	O1677	O	0.252610	-0.374971	0.915199
	O1678	O	0.253296	-0.125049	0.938849
	O1679	O	0.322670	-0.459336	0.994606
	O1680	O	0.240268	-0.458900	0.946055
	O1681	O	0.187524	-0.459006	1.011038
	O1682	O	0.240303	-0.290784	0.946218
	O1683	O	0.239338	-0.209076	0.911244
	O1684	O	0.183224	-0.209386	0.859709
	O1685	O	0.266633	-0.291130	0.942866
	O1686	O	0.265609	-0.209004	0.907993
	O1687	O	0.317715	-0.209114	0.842041
	O1688	O	0.187587	-0.291408	1.011083
	O1689	O	0.239331	-0.040917	0.911170
	O1690	O	0.183207	-0.041038	0.859767
	O1691	O	0.317764	-0.041030	0.842152
	O1692	O	0.265703	-0.040768	0.908023
	O1693	O	0.322658	-0.290945	0.994508
	O1694	O	0.174551	-0.125174	1.017891
	O1695	O	0.330632	-0.374980	0.834840
	C1696	C	0.300185	-0.286303	0.973857
	C1697	C	0.305880	-0.375372	0.979178
	C1698	C	0.300146	-0.464512	0.973973
	C1699	C	0.288967	-0.464525	0.963691
	C1700	C	0.283303	-0.375445	0.958377
	C1701	C	0.289014	-0.286245	0.963563
	C1702	C	0.271302	-0.375308	0.947180
	C1703	C	0.317927	-0.375119	0.990288
	C1704	C	0.235863	-0.374963	0.951592
	C1705	C	0.224611	-0.375271	0.965645
	C1706	C	0.219261	-0.286423	0.972342
	C1707	C	0.208771	-0.286537	0.985269
	C1708	C	0.203384	-0.375460	0.991820
	C1709	C	0.208698	-0.464305	0.985101
	C1710	C	0.219191	-0.464109	0.972168
	C1711	C	0.192070	-0.375423	1.005733
	C1712	C	0.234592	-0.125178	0.907025
	C1713	C	0.222550	-0.125065	0.895874
	C1714	C	0.216823	-0.035838	0.890687
	C1715	C	0.205647	-0.035877	0.880403
	C1716	C	0.199953	-0.125305	0.875150
	C1717	C	0.205688	-0.214600	0.880312
	C1718	C	0.216876	-0.214379	0.890585
	C1719	C	0.187946	-0.125358	0.863943
	C1720	C	0.270041	-0.124836	0.902564
	C1721	C	0.281181	-0.125152	0.888270
	C1722	C	0.286479	-0.214304	0.881526
	C1723	C	0.296812	-0.214407	0.868382
	C1724	C	0.302169	-0.125257	0.861750
	C1725	C	0.296847	-0.036093	0.868438
	C1726	C	0.286510	-0.036019	0.881569
	C1727	C	0.313324	-0.125138	0.847515
	H1728	H	0.300791	-0.283327	0.863199
	H1729	H	0.282404	-0.283054	0.886577
	H1730	H	0.304518	-0.217392	0.977890
	H1731	H	0.284708	-0.217287	0.959387
	H1732	H	0.252247	-0.375490	0.902143
	H1733	H	0.253548	-0.124689	0.951923
	H1734	H	0.174348	-0.125311	1.004819
	H1735	H	0.330918	-0.374520	0.847903
	H1736	H	0.221245	-0.283517	0.894547
	H1737	H	0.201437	-0.283418	0.876134
	H1738	H	0.204797	-0.217633	0.990436
	H1739	H	0.223330	-0.217440	0.967420
	H1740	H	0.201324	0.033041	0.876358
	H1741	H	0.221115	0.033515	0.894750
	H1742	H	0.223188	-0.533235	0.967009
	H1743	H	0.204635	-0.533307	0.990123
	H1744	H	0.284632	-0.533603	0.959704
	H1745	H	0.304462	-0.533607	0.978079
	H1746	H	0.282467	0.032970	0.886675
	H1747	H	0.300840	0.033074	0.863235
	Al1748	Al	0.252932	-0.000093	0.927047
	Al1749	Al	0.252946	0.249977	0.927014
	Al1750	Al	0.169529	0.249660	0.843829
	Al1751	Al	0.169585	-0.000419	0.843943
	O1752	O	0.266557	0.040969	0.942933
	O1753	O	0.252557	0.124800	0.915059
	O1754	O	0.253283	0.374770	0.938924
	O1755	O	0.322626	0.040786	0.994563
	O1756	O	0.240256	0.040864	0.946037
	O1757	O	0.187636	0.040572	1.011107
	O1758	O	0.240248	0.208959	0.946086
	O1759	O	0.239355	0.291037	0.911101
	O1760	O	0.183155	0.291053	0.859690
	O1761	O	0.266638	0.208916	0.942785
	O1762	O	0.265554	0.291344	0.907946
	O1763	O	0.317702	0.290863	0.842117
	O1764	O	0.187677	0.208491	1.011246
	O1765	O	0.239314	0.459187	0.911234
	O1766	O	0.183196	0.458961	0.859682
	O1767	O	0.317777	0.458979	0.842178
	O1768	O	0.265578	0.459115	0.907952
	O1769	O	0.322589	0.208960	0.994672
	O1770	O	0.174506	0.374796	1.017873
	O1771	O	0.330719	0.125112	0.834857
	C1772	C	0.300217	0.214070	0.973841
	C1773	C	0.305874	0.125063	0.979225
	C1774	C	0.300136	0.036214	0.974039
	C1775	C	0.288980	0.036174	0.963711
	C1776	C	0.283330	0.125037	0.958300
	C1777	C	0.289070	0.214006	0.963491
	C1778	C	0.271349	0.125013	0.947086
	C1779	C	0.317902	0.125163	0.990352
	C1780	C	0.235783	0.124725	0.951458
	C1781	C	0.224555	0.124906	0.965491
	C1782	C	0.219271	0.213875	0.972309
	C1783	C	0.208841	0.213680	0.985302
	C1784	C	0.203400	0.124506	0.991782
	C1785	C	0.208714	0.035452	0.985017
	C1786	C	0.219158	0.035705	0.972061
	C1787	C	0.192109	0.124601	1.005818
	C1788	C	0.234558	0.375165	0.906984
	C1789	C	0.222584	0.375156	0.895758
	C1790	C	0.216785	0.464080	0.890642
	C1791	C	0.205620	0.463900	0.880366
	C1792	C	0.199920	0.374975	0.875103
	C1793	C	0.205699	0.286007	0.880263
	C1794	C	0.216889	0.286088	0.890521
	C1795	C	0.187892	0.374861	0.863953
	C1796	C	0.269977	0.375119	0.902550
	C1797	C	0.281141	0.375178	0.888265
	C1798	C	0.286440	0.286206	0.881557
	C1799	C	0.296812	0.286146	0.868432
	C1800	C	0.302157	0.374997	0.861789
	C1801	C	0.296870	0.463874	0.868491
	C1802	C	0.286495	0.464026	0.881619
	C1803	C	0.313301	0.374915	0.847552
	H1804	H	0.300760	0.217310	0.863287
	H1805	H	0.282458	0.217346	0.886740
	H1806	H	0.304593	0.282825	0.977737
	H1807	H	0.284804	0.282765	0.959361
	H1808	H	0.252173	0.124589	0.902072
	H1809	H	0.253551	0.374830	0.952025
	H1810	H	0.174231	0.374340	1.004829
	H1811	H	0.331173	0.125471	0.847858
	H1812	H	0.221240	0.217134	0.894575
	H1813	H	0.201378	0.217305	0.876225
	H1814	H	0.204844	0.282556	0.990517
	H1815	H	0.223410	0.283003	0.967401
	H1816	H	0.201186	0.532926	0.876466
	H1817	H	0.220989	0.533219	0.894840
	H1818	H	0.223129	-0.033234	0.966884
	H1819	H	0.204638	-0.033796	0.989999
	H1820	H	0.284639	-0.032589	0.959728
	H1821	H	0.304450	-0.032704	0.978098
	H1822	H	0.282577	0.532688	0.886820
	H1823	H	0.300859	0.532649	0.863371
	Al1824	Al	0.419649	-0.500063	0.093694
	Al1825	Al	0.419676	-0.250156	0.093667
	Al1826	Al	0.336265	-0.250141	0.010398
	Al1827	Al	0.336332	-0.499985	0.010464
	O1828	O	0.433256	-0.459317	0.109530
	O1829	O	0.419264	-0.375053	0.081777
	O1830	O	0.419950	-0.125171	0.105625
	O1831	O	0.489358	-0.459060	0.161210
	O1832	O	0.406974	-0.459145	0.112763
	O1833	O	0.354411	-0.459178	0.177724
	O1834	O	0.406962	-0.291072	0.112688
	O1835	O	0.405998	-0.209112	0.077843
	O1836	O	0.349871	-0.208995	0.026314
	O1837	O	0.433273	-0.291160	0.109530
	O1838	O	0.432342	-0.208724	0.074574
	O1839	O	0.484316	-0.208783	0.008588
	O1840	O	0.354340	-0.291230	0.177603
	O1841	O	0.405993	-0.041113	0.077989
	O1842	O	0.349902	-0.040832	0.026326
	O1843	O	0.484355	-0.040768	0.008538
	O1844	O	0.432293	-0.040713	0.074695
	O1845	O	0.489342	-0.290826	0.161202
	O1846	O	0.341285	-0.125082	0.184473
	O1847	O	0.497399	-0.374747	0.001458
	C1848	C	0.466900	-0.286066	0.140508
	C1849	C	0.472627	-0.375179	0.145723
	C1850	C	0.466924	-0.464402	0.140485
	C1851	C	0.455726	-0.464275	0.130207
	C1852	C	0.450017	-0.375232	0.124949
	C1853	C	0.455713	-0.286057	0.130208
	C1854	C	0.438011	-0.375247	0.113806
	C1855	C	0.484645	-0.375123	0.156889
	C1856	C	0.402524	-0.375088	0.118084
	C1857	C	0.391281	-0.375193	0.132131
	C1858	C	0.385848	-0.286111	0.138606
	C1859	C	0.375410	-0.286258	0.151590
	C1860	C	0.370129	-0.375192	0.158349
	C1861	C	0.375526	-0.464328	0.151782
	C1862	C	0.385974	-0.464193	0.138793
	C1863	C	0.358822	-0.375270	0.172297
	C1864	C	0.401248	-0.124922	0.073700
	C1865	C	0.389274	-0.125052	0.062422
	C1866	C	0.383547	-0.035870	0.057171
	C1867	C	0.372366	-0.035706	0.046881
	C1868	C	0.366655	-0.124810	0.041680
	C1869	C	0.372401	-0.213780	0.046883
	C1870	C	0.383562	-0.213854	0.057163
	C1871	C	0.354644	-0.124831	0.030555
	C1872	C	0.436689	-0.124534	0.069151
	C1873	C	0.447902	-0.124364	0.054959
	C1874	C	0.453215	-0.213354	0.048288
	C1875	C	0.463529	-0.213371	0.035089
	C1876	C	0.468769	-0.124421	0.028257
	C1877	C	0.463495	-0.035536	0.034978
	C1878	C	0.453173	-0.035475	0.048212
	C1879	C	0.479915	-0.124628	0.013996
	H1880	H	0.467525	-0.282529	0.030001
	H1881	H	0.449271	-0.282100	0.053427
	H1882	H	0.471176	-0.217161	0.144590
	H1883	H	0.451419	-0.216933	0.126238
	H1884	H	0.418854	-0.376093	0.068687
	H1885	H	0.420108	-0.125483	0.118741
	H1886	H	0.340940	-0.125099	0.171499
	H1887	H	0.498051	-0.374361	0.014417
	H1888	H	0.387860	-0.282963	0.061150
	H1889	H	0.368067	-0.282779	0.042840
	H1890	H	0.371316	-0.217196	0.156504
	H1891	H	0.389834	-0.217099	0.133411
	H1892	H	0.368043	0.033339	0.042847
	H1893	H	0.387878	0.033197	0.061280
	H1894	H	0.390015	-0.533005	0.133765
	H1895	H	0.371509	-0.533049	0.156918
	H1896	H	0.451408	-0.533706	0.126190
	H1897	H	0.471219	-0.533668	0.144563
	H1898	H	0.449152	0.033697	0.053228
	H1899	H	0.467440	0.033199	0.029757
	Al1900	Al	0.419603	0.000331	0.093808
	Al1901	Al	0.419612	0.249907	0.093686
	Al1902	Al	0.336301	0.249674	0.010477
	Al1903	Al	0.336266	-0.000035	0.010348
	O1904	O	0.433222	0.040854	0.109722
	O1905	O	0.419223	0.124885	0.081816
	O1906	O	0.419956	0.374782	0.105613
	O1907	O	0.489385	0.041376	0.161141
	O1908	O	0.407018	0.040949	0.112871
	O1909	O	0.354304	0.040992	0.177764
	O1910	O	0.406955	0.208798	0.112830
	O1911	O	0.406029	0.290881	0.077781
	O1912	O	0.349879	0.290851	0.026324
	O1913	O	0.433227	0.208753	0.109558
	O1914	O	0.432347	0.290448	0.074752
	O1915	O	0.484261	0.290726	0.008439
	O1916	O	0.354305	0.208948	0.177699
	O1917	O	0.406024	0.458834	0.077808
	O1918	O	0.349969	0.458846	0.026251
	O1919	O	0.484289	0.458943	0.008696
	O1920	O	0.432301	0.458507	0.074653
	O1921	O	0.489360	0.209339	0.161141
	O1922	O	0.341257	0.375096	0.184504
	O1923	O	0.497373	0.124961	0.001453
	C1924	C	0.466910	0.214217	0.140430
	C1925	C	0.472625	0.125165	0.145738
	C1926	C	0.466918	0.035847	0.140515
	C1927	C	0.455727	0.035578	0.130258
	C1928	C	0.450016	0.124749	0.124969
	C1929	C	0.455755	0.213880	0.130158
	C1930	C	0.437986	0.124859	0.113881
	C1931	C	0.484631	0.125301	0.156878
	C1932	C	0.402505	0.124962	0.118211
	C1933	C	0.391244	0.124882	0.132191
	C1934	C	0.385859	0.213838	0.138724
	C1935	C	0.375370	0.213724	0.151669
	C1936	C	0.370004	0.124776	0.158291
	C1937	C	0.375455	0.035912	0.151851
	C1938	C	0.385941	0.036034	0.138917
	C1939	C	0.358720	0.125026	0.172340
	C1940	C	0.401248	0.374844	0.073613
	C1941	C	0.389249	0.374944	0.062451
	C1942	C	0.383466	0.463804	0.057328
	C1943	C	0.372311	0.463690	0.047034
	C1944	C	0.366637	0.374675	0.041729
	C1945	C	0.372436	0.285798	0.046763
	C1946	C	0.383613	0.285956	0.057049
	C1947	C	0.354666	0.374787	0.030492
	C1948	C	0.436773	0.374579	0.069312
	C1949	C	0.447910	0.374462	0.055040
	C1950	C	0.453179	0.285474	0.048317
	C1951	C	0.463495	0.285379	0.035102
	C1952	C	0.468786	0.374432	0.028332
	C1953	C	0.463515	0.463445	0.035065
	C1954	C	0.453192	0.463417	0.048235
	C1955	C	0.479903	0.374563	0.014076
	H1956	H	0.467552	0.216620	0.030070
	H1957	H	0.449200	0.216624	0.053561
	H1958	H	0.471206	0.283363	0.144422
	H1959	H	0.451423	0.283042	0.126096
	H1960	H	0.418663	0.124004	0.068816
	H1961	H	0.420209	0.374688	0.118693
	H1962	H	0.340998	0.374960	0.171401
	H1963	H	0.497819	0.125047	0.014539
	H1964	H	0.388018	0.217175	0.060981
	H1965	H	0.368195	0.216903	0.042480
	H1966	H	0.371295	0.282603	0.156731
	H1967	H	0.389890	0.282721	0.133665
	H1968	H	0.367987	0.532821	0.042986
	H1969	H	0.387736	0.532856	0.061440
	H1970	H	0.390026	-0.032934	0.134003
	H1971	H	0.371486	-0.032876	0.157041
	H1972	H	0.451370	-0.033599	0.126269
	H1973	H	0.471260	-0.033211	0.144594
	H1974	H	0.449185	0.532491	0.053321
	H1975	H	0.467502	0.532464	0.029943
	Al1976	Al	0.424691	-0.500189	0.279704
	Al1977	Al	0.424717	-0.250109	0.279848
	Al1978	Al	0.341526	-0.250047	0.196450
	Al1979	Al	0.341462	-0.499787	0.196430
	O1980	O	0.438113	-0.459053	0.295914
	O1981	O	0.424551	-0.374905	0.267846
	O1982	O	0.424859	-0.124931	0.291682
	O1983	O	0.494553	-0.458981	0.346926
	O1984	O	0.411531	-0.458904	0.298006
	O1985	O	0.354290	-0.459048	0.353560
	O1986	O	0.411507	-0.290737	0.298030
	O1987	O	0.411220	-0.208763	0.263702
	O1988	O	0.354903	-0.209063	0.212674
	O1989	O	0.438085	-0.290989	0.296130
	O1990	O	0.437617	-0.209453	0.261018
	O1991	O	0.490334	-0.209095	0.196044
	O1992	O	0.354294	-0.291082	0.353583
	O1993	O	0.411282	-0.040840	0.263719
	O1994	O	0.354808	-0.041250	0.212741
	O1995	O	0.490218	-0.040787	0.195927
	O1996	O	0.437640	-0.041135	0.261036
	O1997	O	0.494524	-0.290798	0.346857
	O1998	O	0.340856	-0.125076	0.357482
	O1999	O	0.503323	-0.374654	0.188999
	C2000	C	0.471862	-0.286147	0.326754
	C2001	C	0.477670	-0.375407	0.331724
	C2002	C	0.471964	-0.464578	0.326511
	C2003	C	0.460726	-0.464460	0.316402
	C2004	C	0.454915	-0.375299	0.311365
	C2005	C	0.460619	-0.286159	0.316652
	C2006	C	0.442856	-0.375096	0.300266
	C2007	C	0.489768	-0.375047	0.342732
	C2008	C	0.406782	-0.374911	0.302761
	C2009	C	0.394692	-0.374868	0.315105
	C2010	C	0.388851	-0.285962	0.320822
	C2011	C	0.377463	-0.286067	0.331854
	C2012	C	0.371590	-0.375102	0.337472
	C2013	C	0.377451	-0.463943	0.331841
	C2014	C	0.388842	-0.463982	0.320786
	C2015	C	0.359227	-0.375107	0.349145
	C2016	C	0.406509	-0.124727	0.259461
	C2017	C	0.394459	-0.124568	0.248422
	C2018	C	0.388663	-0.035743	0.243346
	C2019	C	0.377417	-0.035622	0.233194
	C2020	C	0.371697	-0.124789	0.227956
	C2021	C	0.377512	-0.213594	0.232987
	C2022	C	0.388753	-0.213596	0.243132
	C2023	C	0.359644	-0.125142	0.216910
	C2024	C	0.442072	-0.125301	0.255655
	C2025	C	0.453420	-0.125382	0.241721
	C2026	C	0.458818	-0.214440	0.235166
	C2027	C	0.469284	-0.214190	0.222189
	C2028	C	0.474604	-0.125027	0.215499
	C2029	C	0.469206	-0.035940	0.222072
	C2030	C	0.458753	-0.036110	0.235070
	C2031	C	0.485828	-0.125138	0.201365
	H2032	H	0.473334	-0.283244	0.217138
	H2033	H	0.454779	-0.283589	0.240186
	H2034	H	0.476162	-0.217253	0.330876
	H2035	H	0.456256	-0.217377	0.312746
	H2036	H	0.424303	-0.374969	0.254693
	H2037	H	0.424587	-0.124745	0.304792
	H2038	H	0.341548	-0.124820	0.344405
	H2039	H	0.503576	-0.374586	0.202036
	H2040	H	0.393119	-0.282338	0.247000
	H2041	H	0.373254	-0.282788	0.228886
	H2042	H	0.373060	-0.217082	0.336195
	H2043	H	0.393240	-0.216944	0.316473
	H2044	H	0.373067	0.033264	0.229235
	H2045	H	0.392976	0.033051	0.247361
	H2046	H	0.393216	-0.532883	0.316400
	H2047	H	0.373030	-0.533033	0.336176
	H2048	H	0.456401	-0.533444	0.312301
	H2049	H	0.476330	-0.533754	0.330467
	H2050	H	0.454659	0.032833	0.240014
	H2051	H	0.473198	0.033179	0.216898
	Al2052	Al	0.424781	-0.000318	0.279756
	Al2053	Al	0.424747	0.250005	0.279790
	Al2054	Al	0.341378	0.249876	0.196489
	Al2055	Al	0.341405	0.000135	0.196404
	O2056	O	0.438162	0.041313	0.296086
	O2057	O	0.424568	0.124852	0.267907
	O2058	O	0.424793	0.374906	0.291650
	O2059	O	0.494549	0.041290	0.346993
	O2060	O	0.411583	0.040951	0.298061
	O2061	O	0.354376	0.040663	0.353588
	O2062	O	0.411569	0.209070	0.298056
	O2063	O	0.411307	0.290664	0.263515
	O2064	O	0.354849	0.290223	0.212695
	O2065	O	0.438179	0.209497	0.296075
	O2066	O	0.437623	0.290859	0.261079
	O2067	O	0.490317	0.291052	0.196096
	O2068	O	0.354327	0.208625	0.353501
	O2069	O	0.411205	0.458908	0.263592
	O2070	O	0.354847	0.458550	0.212626
	O2071	O	0.490339	0.459272	0.196093
	O2072	O	0.437539	0.459061	0.260974
	O2073	O	0.494436	0.209364	0.347238
	O2074	O	0.340867	0.374900	0.357532
	O2075	O	0.503299	0.125199	0.188938
	C2076	C	0.471848	0.214770	0.326878
	C2077	C	0.477687	0.125493	0.331852
	C2078	C	0.472006	0.036282	0.326491
	C2079	C	0.460782	0.035769	0.316339
	C2080	C	0.454971	0.125119	0.311364
	C2081	C	0.460634	0.214413	0.316691
	C2082	C	0.442933	0.125559	0.300305
	C2083	C	0.489741	0.125389	0.342898
	C2084	C	0.406832	0.124997	0.302769
	C2085	C	0.394703	0.124837	0.315082
	C2086	C	0.388876	0.213950	0.320830
	C2087	C	0.377483	0.214128	0.331851
	C2088	C	0.371610	0.124875	0.337376
	C2089	C	0.377456	0.035796	0.331681
	C2090	C	0.388863	0.035497	0.320670
	C2091	C	0.359243	0.124727	0.349119
	C2092	C	0.406529	0.374793	0.259373
	C2093	C	0.394447	0.374669	0.248294
	C2094	C	0.388596	0.463901	0.243368
	C2095	C	0.377352	0.463670	0.233208
	C2096	C	0.371673	0.374522	0.227895
	C2097	C	0.377473	0.285362	0.232963
	C2098	C	0.388725	0.285474	0.243085
	C2099	C	0.359610	0.374465	0.216819
	C2100	C	0.442070	0.374820	0.255701
	C2101	C	0.453368	0.375168	0.241667
	C2102	C	0.458787	0.286297	0.235111
	C2103	C	0.469271	0.286238	0.222182
	C2104	C	0.474609	0.375151	0.215520
	C2105	C	0.469225	0.464177	0.222103
	C2106	C	0.458740	0.464168	0.235032
	C2107	C	0.485891	0.375185	0.201486
	H2108	H	0.473359	0.217105	0.217189
	H2109	H	0.454798	0.217256	0.240189
	H2110	H	0.476177	0.283884	0.330966
	H2111	H	0.456231	0.283441	0.312768
	H2112	H	0.424307	0.124759	0.254813
	H2113	H	0.424746	0.375102	0.304734
	H2114	H	0.341536	0.374756	0.344422
	H2115	H	0.503451	0.125093	0.202013
	H2116	H	0.393097	0.216615	0.246994
	H2117	H	0.373204	0.216152	0.228874
	H2118	H	0.373086	0.283419	0.336241
	H2119	H	0.393302	0.283291	0.316528
	H2120	H	0.372922	0.532916	0.229392
	H2121	H	0.392876	0.532827	0.247528
	H2122	H	0.393252	-0.033542	0.316281
	H2123	H	0.373011	-0.033154	0.335932
	H2124	H	0.456537	-0.033311	0.312168
	H2125	H	0.476420	-0.032942	0.330330
	H2126	H	0.454698	0.533196	0.240134
	H2127	H	0.473293	0.533235	0.217036
	Al2128	Al	0.423382	-0.500572	0.453045
	Al2129	Al	0.423351	-0.249514	0.453145
	Al2130	Al	0.340081	-0.250409	0.369634
	Al2131	Al	0.340099	-0.499389	0.369587
	O2132	O	0.435891	-0.459651	0.470756
	O2133	O	0.424066	-0.374924	0.440970
	O2134	O	0.422115	-0.124885	0.465123
	O2135	O	0.494232	-0.459715	0.517919
	O2136	O	0.407948	-0.459375	0.466928
	O2137	O	0.342064	-0.459613	0.450164
	O2138	O	0.407919	-0.291091	0.467011
	O2139	O	0.410930	-0.208633	0.434715
	O2140	O	0.352654	-0.209055	0.387295
	O2141	O	0.435843	-0.291549	0.470890
	O2142	O	0.437647	-0.208715	0.437072
	O2143	O	0.494830	-0.209027	0.381452
	O2144	O	0.342056	-0.291324	0.449979
	O2145	O	0.410889	-0.040839	0.434692
	O2146	O	0.352611	-0.041205	0.387440
	O2147	O	0.494795	-0.040841	0.381430
	O2148	O	0.437630	-0.040815	0.437068
	O2149	O	0.494418	-0.291734	0.517646
	O2150	O	0.327730	-0.124886	0.451748
	O2151	O	0.508126	-0.375042	0.375057
	C2152	C	0.471067	-0.285885	0.498481
	C2153	C	0.477143	-0.375421	0.503007
	C2154	C	0.471196	-0.464861	0.498213
	C2155	C	0.459451	-0.464853	0.489229
	C2156	C	0.453319	-0.375476	0.484877
	C2157	C	0.459315	-0.285926	0.489501
	C2158	C	0.440804	-0.375644	0.474723
	C2159	C	0.489477	-0.375486	0.513639
	C2160	C	0.402268	-0.375312	0.465978
	C2161	C	0.388077	-0.375131	0.462894
	C2162	C	0.381432	-0.285459	0.460573
	C2163	C	0.368541	-0.285762	0.456097
	C2164	C	0.361899	-0.375623	0.453982
	C2165	C	0.368541	-0.465414	0.456244
	C2166	C	0.381445	-0.465197	0.460706
	C2167	C	0.347714	-0.375445	0.451006
	C2168	C	0.406085	-0.124816	0.430515
	C2169	C	0.393824	-0.124928	0.419807
	C2170	C	0.387783	-0.035419	0.415084
	C2171	C	0.376074	-0.035414	0.406085
	C2172	C	0.370052	-0.125040	0.401440
	C2173	C	0.376193	-0.214501	0.405814
	C2174	C	0.387889	-0.214498	0.414836
	C2175	C	0.357552	-0.125111	0.391309
	C2176	C	0.442545	-0.124566	0.432656
	C2177	C	0.454905	-0.124989	0.420873
	C2178	C	0.460717	-0.214059	0.415188
	C2179	C	0.472089	-0.213987	0.404080
	C2180	C	0.477965	-0.125012	0.398555
	C2181	C	0.472161	-0.036047	0.404252
	C2182	C	0.460780	-0.036015	0.415341
	C2183	C	0.490049	-0.124955	0.386131
	H2184	H	0.476406	-0.282762	0.399587
	H2185	H	0.456282	-0.283149	0.419440
	H2186	H	0.475505	-0.216147	0.502102
	H2187	H	0.454749	-0.215896	0.486194
	H2188	H	0.424935	-0.374778	0.427915
	H2189	H	0.420355	-0.124770	0.477910
	H2190	H	0.329460	-0.124975	0.438840
	H2191	H	0.508145	-0.374845	0.388177
	H2192	H	0.392423	-0.284218	0.418237
	H2193	H	0.371675	-0.283954	0.402176
	H2194	H	0.363554	-0.215977	0.454262
	H2195	H	0.386393	-0.215310	0.462278
	H2196	H	0.371502	0.033989	0.402699
	H2197	H	0.392259	0.034162	0.418635
	H2198	H	0.386450	-0.534992	0.462509
	H2199	H	0.363547	-0.535308	0.454579
	H2200	H	0.454981	-0.534629	0.485647
	H2201	H	0.475674	-0.534863	0.501549
	H2202	H	0.456400	0.032986	0.419697
	H2203	H	0.476520	0.032866	0.399833
	Al2204	Al	0.423315	-0.000399	0.453039
	Al2205	Al	0.423382	0.250442	0.453004
	Al2206	Al	0.340084	0.249658	0.369706
	Al2207	Al	0.340120	0.000199	0.369665
	O2208	O	0.435898	0.040934	0.470721
	O2209	O	0.424068	0.125096	0.440905
	O2210	O	0.422149	0.375031	0.465072
	O2211	O	0.494233	0.040704	0.518090
	O2212	O	0.407893	0.041208	0.466874
	O2213	O	0.342043	0.040778	0.450041
	O2214	O	0.407939	0.209444	0.466830
	O2215	O	0.410942	0.291126	0.434559
	O2216	O	0.352611	0.290966	0.387386
	O2217	O	0.435957	0.209063	0.470714
	O2218	O	0.437667	0.290920	0.436987
	O2219	O	0.494946	0.291168	0.381556
	O2220	O	0.341954	0.209068	0.450096
	O2221	O	0.410970	0.459138	0.434557
	O2222	O	0.352623	0.459103	0.387365
	O2223	O	0.494853	0.459160	0.381513
	O2224	O	0.437695	0.458785	0.437030
	O2225	O	0.494317	0.208811	0.517864
	O2226	O	0.327688	0.375189	0.451856
	O2227	O	0.508187	0.124744	0.375159
	C2228	C	0.471137	0.214283	0.498459
	C2229	C	0.477169	0.124659	0.503059
	C2230	C	0.471209	0.035101	0.498115
	C2231	C	0.459483	0.035190	0.489091
	C2232	C	0.453383	0.124798	0.484711
	C2233	C	0.459412	0.214365	0.489437
	C2234	C	0.440861	0.124863	0.474642
	C2235	C	0.489507	0.124490	0.513685
	C2236	C	0.402295	0.125415	0.465842
	C2237	C	0.388075	0.125264	0.462816
	C2238	C	0.381425	0.215051	0.460615
	C2239	C	0.368510	0.215122	0.456207
	C2240	C	0.361886	0.125177	0.453982
	C2241	C	0.368524	0.035356	0.456246
	C2242	C	0.381442	0.035390	0.460662
	C2243	C	0.347642	0.125039	0.451068
	C2244	C	0.406141	0.375317	0.430328
	C2245	C	0.393786	0.374856	0.419688
	C2246	C	0.387779	0.464338	0.415044
	C2247	C	0.376076	0.464458	0.406020
	C2248	C	0.370062	0.375013	0.401381
	C2249	C	0.376127	0.285484	0.405838
	C2250	C	0.387821	0.285381	0.414872
	C2251	C	0.357537	0.374975	0.391252
	C2252	C	0.442575	0.374814	0.432624
	C2253	C	0.454909	0.375023	0.420865
	C2254	C	0.460764	0.285864	0.415278
	C2255	C	0.472130	0.285842	0.404211
	C2256	C	0.478030	0.374874	0.398610
	C2257	C	0.472225	0.463927	0.404377
	C2258	C	0.460849	0.464041	0.415400
	C2259	C	0.490092	0.374845	0.386254
	H2260	H	0.476481	0.216822	0.399799
	H2261	H	0.456336	0.216855	0.419628
	H2262	H	0.475600	0.284094	0.502042
	H2263	H	0.454837	0.283985	0.486056
	H2264	H	0.424817	0.125025	0.427773
	H2265	H	0.420277	0.375010	0.477852
	H2266	H	0.329441	0.375071	0.438910
	H2267	H	0.508128	0.125166	0.388192
	H2268	H	0.392323	0.215571	0.418372
	H2269	H	0.371604	0.215671	0.402329
	H2270	H	0.363476	0.285104	0.454554
	H2271	H	0.386385	0.284873	0.462386
	H2272	H	0.371491	0.534179	0.402675
	H2273	H	0.392214	0.534103	0.418674
	H2274	H	0.386406	-0.034696	0.462442
	H2275	H	0.363544	-0.034670	0.454652
	H2276	H	0.455032	-0.034708	0.485483
	H2277	H	0.475757	-0.034802	0.501499
	H2278	H	0.456478	0.533065	0.419828
	H2279	H	0.476663	0.532842	0.400070
	Al2280	Al	0.409916	-0.499295	0.547085
	Al2281	Al	0.409918	-0.250313	0.547086
	Al2282	Al	0.326627	-0.249519	0.463749
	Al2283	Al	0.326494	-0.500562	0.463905
	O2284	O	0.422194	-0.458903	0.565821
	O2285	O	0.411173	-0.374663	0.535082
	O2286	O	0.409130	-0.125098	0.559323
	O2287	O	0.480645	-0.459299	0.612882
	O2288	O	0.395556	-0.459398	0.563057
	O2289	O	0.338413	-0.459735	0.618758
	O2290	O	0.395645	-0.291408	0.563180
	O2291	O	0.397281	-0.208582	0.529584
	O2292	O	0.339038	-0.209209	0.482262
	O2293	O	0.422311	-0.290855	0.565517
	O2294	O	0.425314	-0.208843	0.533215
	O2295	O	0.491266	-0.209483	0.550020
	O2296	O	0.338393	-0.291509	0.618725
	O2297	O	0.397305	-0.040576	0.529484
	O2298	O	0.338989	-0.041074	0.482268
	O2299	O	0.491273	-0.041307	0.550289
	O2300	O	0.425355	-0.040558	0.533350
	O2301	O	0.480794	-0.290967	0.612624
	O2302	O	0.325167	-0.124858	0.625100
	O2303	O	0.505441	-0.374794	0.548322
	C2304	C	0.457234	-0.285115	0.594057
	C2305	C	0.463218	-0.374786	0.598792
	C2306	C	0.457056	-0.464302	0.594538
	C2307	C	0.445320	-0.464355	0.585611
	C2308	C	0.439417	-0.374804	0.580585
	C2309	C	0.445502	-0.285109	0.585084
	C2310	C	0.427051	-0.374854	0.569899
	C2311	C	0.475784	-0.374852	0.608881
	C2312	C	0.390746	-0.375312	0.567665
	C2313	C	0.378421	-0.375114	0.579537
	C2314	C	0.372571	-0.286157	0.585135
	C2315	C	0.361177	-0.286260	0.596192
	C2316	C	0.355387	-0.375273	0.601876
	C2317	C	0.361216	-0.464180	0.596240
	C2318	C	0.372614	-0.464258	0.585187
	C2319	C	0.343193	-0.375639	0.614070
	C2320	C	0.392355	-0.124653	0.525608
	C2321	C	0.379877	-0.124577	0.515418
	C2322	C	0.373859	-0.035126	0.510736
	C2323	C	0.362158	-0.035316	0.501711
	C2324	C	0.356118	-0.125031	0.497091
	C2325	C	0.362086	-0.214459	0.501939
	C2326	C	0.373783	-0.214351	0.511011
	C2327	C	0.343836	-0.125007	0.486419
	C2328	C	0.430991	-0.124858	0.534222
	C2329	C	0.445172	-0.125210	0.537291
	C2330	C	0.451805	-0.215295	0.539428
	C2331	C	0.464731	-0.215253	0.543863
	C2332	C	0.471390	-0.125480	0.546158
	C2333	C	0.464738	-0.035677	0.543971
	C2334	C	0.451824	-0.035537	0.539549
	C2335	C	0.485622	-0.125302	0.549158
	H2336	H	0.469705	-0.285178	0.545564
	H2337	H	0.446819	-0.285254	0.537697
	H2338	H	0.461828	-0.215385	0.597319
	H2339	H	0.441033	-0.215382	0.581422
	H2340	H	0.412962	-0.374685	0.522189
	H2341	H	0.408263	-0.125348	0.572424
	H2342	H	0.325465	-0.125297	0.612027
	H2343	H	0.503433	-0.374521	0.561192
	H2344	H	0.378241	-0.283824	0.514570
	H2345	H	0.357555	-0.284143	0.498475
	H2346	H	0.356788	-0.217245	0.600450
	H2347	H	0.376928	-0.217250	0.580760
	H2348	H	0.357679	0.034282	0.498157
	H2349	H	0.378404	0.034318	0.514182
	H2350	H	0.377018	-0.533405	0.580975
	H2351	H	0.356824	-0.532944	0.600599
	H2352	H	0.440736	-0.534318	0.582374
	H2353	H	0.461490	-0.533648	0.598225
	H2354	H	0.446866	0.034715	0.537909
	H2355	H	0.469704	0.034313	0.545720
	Al2356	Al	0.409858	0.000687	0.547259
	Al2357	Al	0.409909	0.249724	0.547026
	Al2358	Al	0.326558	0.250288	0.463860
	Al2359	Al	0.326542	-0.000528	0.463762
	O2360	O	0.422214	0.041426	0.565766
	O2361	O	0.411213	0.125065	0.535135
	O2362	O	0.409128	0.375320	0.559136
	O2363	O	0.480674	0.041108	0.612683
	O2364	O	0.395616	0.041059	0.563324
	O2365	O	0.338440	0.041463	0.618915
	O2366	O	0.395627	0.209035	0.563163
	O2367	O	0.397383	0.290944	0.529349
	O2368	O	0.338903	0.291175	0.482380
	O2369	O	0.422254	0.209481	0.565636
	O2370	O	0.425396	0.291454	0.533172
	O2371	O	0.491217	0.290909	0.550016
	O2372	O	0.338389	0.209463	0.618810
	O2373	O	0.397439	0.459327	0.529169
	O2374	O	0.338911	0.459211	0.482394
	O2375	O	0.491307	0.459222	0.550244
	O2376	O	0.425398	0.459529	0.533344
	O2377	O	0.480651	0.209294	0.612796
	O2378	O	0.324974	0.374745	0.625188
	O2379	O	0.505454	0.124888	0.548398
	C2380	C	0.457192	0.214904	0.594106
	C2381	C	0.463204	0.125442	0.598745
	C2382	C	0.457086	0.035908	0.594301
	C2383	C	0.445322	0.036058	0.585358
	C2384	C	0.439358	0.125655	0.580613
	C2385	C	0.445439	0.215119	0.585164
	C2386	C	0.427060	0.125617	0.569857
	C2387	C	0.475708	0.125231	0.608865
	C2388	C	0.390735	0.125344	0.567750
	C2389	C	0.378394	0.125267	0.579496
	C2390	C	0.372554	0.214370	0.585140
	C2391	C	0.361199	0.214515	0.596207
	C2392	C	0.355333	0.125481	0.601895
	C2393	C	0.361116	0.036248	0.596090
	C2394	C	0.372471	0.036215	0.585026
	C2395	C	0.343194	0.125488	0.614130
	C2396	C	0.392451	0.375110	0.525434
	C2397	C	0.379880	0.375053	0.515379
	C2398	C	0.373849	0.464490	0.510780
	C2399	C	0.362132	0.464493	0.501853
	C2400	C	0.356070	0.374956	0.497294
	C2401	C	0.362051	0.285389	0.502067
	C2402	C	0.373780	0.285514	0.510996
	C2403	C	0.343709	0.375076	0.486615
	C2404	C	0.431047	0.375487	0.534212
	C2405	C	0.445252	0.375488	0.537242
	C2406	C	0.451867	0.285619	0.539510
	C2407	C	0.464778	0.285616	0.543923
	C2408	C	0.471420	0.375420	0.546073
	C2409	C	0.464805	0.465276	0.543830
	C2410	C	0.451891	0.465254	0.539412
	C2411	C	0.485616	0.375237	0.549109
	H2412	H	0.469698	0.215531	0.545744
	H2413	H	0.446844	0.215739	0.537894
	H2414	H	0.461748	0.284729	0.597496
	H2415	H	0.441007	0.285099	0.581585
	H2416	H	0.413253	0.124509	0.522296
	H2417	H	0.408173	0.375456	0.572251
	H2418	H	0.324971	0.374534	0.612208
	H2419	H	0.503532	0.125120	0.561314
	H2420	H	0.378293	0.216000	0.514632
	H2421	H	0.357535	0.215475	0.498708
	H2422	H	0.356797	0.283567	0.600553
	H2423	H	0.377014	0.283389	0.580838
	H2424	H	0.357610	0.534430	0.498308
	H2425	H	0.378355	0.534367	0.514207
	H2426	H	0.376891	-0.032582	0.580659
	H2427	H	0.356655	-0.032612	0.600358
	H2428	H	0.440782	-0.033609	0.581916
	H2429	H	0.461536	-0.033822	0.597824
	H2430	H	0.446911	0.535212	0.537735
	H2431	H	0.469812	0.535253	0.545599
	Al2432	Al	0.408634	-0.499944	0.720274
	Al2433	Al	0.408682	-0.249972	0.720407
	Al2434	Al	0.325221	-0.250248	0.636970
	Al2435	Al	0.325169	-0.500035	0.637061
	O2436	O	0.422172	-0.459956	0.736440
	O2437	O	0.408535	-0.374839	0.708458
	O2438	O	0.408837	-0.124806	0.732355
	O2439	O	0.478568	-0.459227	0.787406
	O2440	O	0.395696	-0.459136	0.739019
	O2441	O	0.343054	-0.459439	0.803895
	O2442	O	0.395774	-0.291125	0.739081
	O2443	O	0.395249	-0.208726	0.704177
	O2444	O	0.338748	-0.209039	0.653103
	O2445	O	0.422160	-0.291503	0.736524
	O2446	O	0.421802	-0.208960	0.702119
	O2447	O	0.478998	-0.209270	0.646348
	O2448	O	0.342990	-0.291203	0.803879
	O2449	O	0.395184	-0.040621	0.704140
	O2450	O	0.338776	-0.040829	0.653152
	O2451	O	0.478993	-0.041444	0.646474
	O2452	O	0.421826	-0.040884	0.702133
	O2453	O	0.478509	-0.291020	0.787602
	O2454	O	0.330003	-0.124838	0.811024
	O2455	O	0.492680	-0.374976	0.642561
	C2456	C	0.455990	-0.285839	0.766983
	C2457	C	0.461745	-0.374834	0.772168
	C2458	C	0.456022	-0.463946	0.766968
	C2459	C	0.444790	-0.464170	0.756820
	C2460	C	0.439004	-0.375333	0.751699
	C2461	C	0.444761	-0.286137	0.756822
	C2462	C	0.426931	-0.375644	0.740668
	C2463	C	0.473796	-0.375028	0.783300
	C2464	C	0.391257	-0.374907	0.744370
	C2465	C	0.379933	-0.374900	0.758289
	C2466	C	0.374494	-0.285782	0.764818
	C2467	C	0.364024	-0.285727	0.777764
	C2468	C	0.358704	-0.374913	0.784458
	C2469	C	0.364106	-0.464034	0.777862
	C2470	C	0.374575	-0.464089	0.764925
	C2471	C	0.347447	-0.375243	0.798476
	C2472	C	0.390473	-0.124917	0.699956
	C2473	C	0.378402	-0.125414	0.688881
	C2474	C	0.372616	-0.036433	0.683754
	C2475	C	0.361387	-0.036309	0.673602
	C2476	C	0.355598	-0.125270	0.668396
	C2477	C	0.361376	-0.214360	0.673514
	C2478	C	0.372613	-0.214365	0.683663
	C2479	C	0.343532	-0.125128	0.657289
	C2480	C	0.426565	-0.124940	0.697404
	C2481	C	0.438661	-0.124928	0.684992
	C2482	C	0.444513	-0.213944	0.679398
	C2483	C	0.455874	-0.214240	0.668304
	C2484	C	0.461730	-0.125277	0.662613
	C2485	C	0.455826	-0.036109	0.668120
	C2486	C	0.444465	-0.035932	0.679204
	C2487	C	0.474087	-0.125356	0.650814
	H2488	H	0.460265	-0.283257	0.664051
	H2489	H	0.440122	-0.282928	0.683842
	H2490	H	0.460331	-0.216702	0.770972
	H2491	H	0.440391	-0.217224	0.752854
	H2492	H	0.408568	-0.374870	0.695387
	H2493	H	0.409060	-0.125119	0.745384
	H2494	H	0.329600	-0.124377	0.797955
	H2495	H	0.491992	-0.374530	0.655709
	H2496	H	0.377012	-0.283177	0.687567
	H2497	H	0.357051	-0.283166	0.669452
	H2498	H	0.359914	-0.216647	0.782751
	H2499	H	0.378503	-0.216665	0.759689
	H2500	H	0.357010	0.032524	0.669634
	H2501	H	0.376972	0.032426	0.687743
	H2502	H	0.378626	-0.533229	0.759866
	H2503	H	0.360076	-0.533357	0.782901
	H2504	H	0.440490	-0.533267	0.752817
	H2505	H	0.460400	-0.532792	0.770940
	H2506	H	0.440062	0.033304	0.683444
	H2507	H	0.460213	0.032955	0.663747
	Al2508	Al	0.408617	0.000137	0.720415
	Al2509	Al	0.408663	0.250068	0.720319
	Al2510	Al	0.325195	0.249854	0.637152
	Al2511	Al	0.325196	0.000024	0.637058
	O2512	O	0.422117	0.041071	0.736478
	O2513	O	0.408465	0.124956	0.708390
	O2514	O	0.408756	0.375101	0.732159
	O2515	O	0.478590	0.041440	0.787270
	O2516	O	0.395742	0.041418	0.739108
	O2517	O	0.343019	0.040730	0.803900
	O2518	O	0.395715	0.209433	0.738969
	O2519	O	0.395246	0.291140	0.703964
	O2520	O	0.338696	0.291134	0.653288
	O2521	O	0.422117	0.209199	0.736533
	O2522	O	0.421764	0.290781	0.701940
	O2523	O	0.479026	0.291181	0.646586
	O2524	O	0.342992	0.209031	0.803918
	O2525	O	0.395159	0.459310	0.704109
	O2526	O	0.338671	0.459047	0.653246
	O2527	O	0.479023	0.459343	0.646492
	O2528	O	0.421694	0.458841	0.701853
	O2529	O	0.478551	0.209416	0.787360
	O2530	O	0.330004	0.375152	0.811142
	O2531	O	0.492496	0.124902	0.642601
	C2532	C	0.455899	0.214141	0.767080
	C2533	C	0.461757	0.125147	0.772064
	C2534	C	0.456052	0.036018	0.766837
	C2535	C	0.444812	0.035955	0.756722
	C2536	C	0.438959	0.125025	0.751703
	C2537	C	0.444670	0.214105	0.756954
	C2538	C	0.426884	0.125028	0.740681
	C2539	C	0.473821	0.125382	0.783117
	C2540	C	0.391263	0.125566	0.744382
	C2541	C	0.379926	0.125510	0.758330
	C2542	C	0.374499	0.214407	0.764879
	C2543	C	0.364035	0.214362	0.777859
	C2544	C	0.358704	0.125176	0.784518
	C2545	C	0.364085	0.036249	0.777867
	C2546	C	0.374574	0.036371	0.764920
	C2547	C	0.347448	0.124940	0.798542
	C2548	C	0.390474	0.375249	0.699816
	C2549	C	0.378414	0.375246	0.688696
	C2550	C	0.372592	0.464176	0.683656
	C2551	C	0.361335	0.463865	0.673570
	C2552	C	0.355603	0.375032	0.668362
	C2553	C	0.361426	0.286285	0.673395
	C2554	C	0.372694	0.286409	0.683465
	C2555	C	0.343488	0.375119	0.657414
	C2556	C	0.426515	0.375050	0.697167
	C2557	C	0.438633	0.375341	0.684870
	C2558	C	0.444517	0.286488	0.679355
	C2559	C	0.455934	0.286434	0.668324
	C2560	C	0.461751	0.375232	0.662647
	C2561	C	0.455856	0.464081	0.668161
	C2562	C	0.444440	0.464193	0.679173
	C2563	C	0.474122	0.375323	0.650956
	H2564	H	0.460366	0.217659	0.664151
	H2565	H	0.440205	0.217667	0.683814
	H2566	H	0.460209	0.283124	0.771099
	H2567	H	0.440240	0.283195	0.753131
	H2568	H	0.408529	0.124869	0.695373
	H2569	H	0.408764	0.374742	0.745261
	H2570	H	0.329631	0.374901	0.798078
	H2571	H	0.491655	0.124884	0.655734
	H2572	H	0.377106	0.217746	0.687356
	H2573	H	0.357089	0.217546	0.669417
	H2574	H	0.359999	0.283480	0.782952
	H2575	H	0.378515	0.283557	0.759783
	H2576	H	0.356921	0.532508	0.669730
	H2577	H	0.376908	0.533148	0.687692
	H2578	H	0.378654	-0.032758	0.759940
	H2579	H	0.360083	-0.032840	0.782929
	H2580	H	0.440473	-0.032926	0.752732
	H2581	H	0.460494	-0.032757	0.770701
	H2582	H	0.440032	0.533200	0.683464
	H2583	H	0.460218	0.533334	0.663842
	Al2584	Al	0.413724	-0.500045	0.906268
	Al2585	Al	0.413697	-0.249911	0.906325
	Al2586	Al	0.330360	-0.249793	0.822934
	Al2587	Al	0.330375	-0.499768	0.823002
	O2588	O	0.427298	-0.458774	0.922167
	O2589	O	0.413370	-0.374877	0.894388
	O2590	O	0.414002	-0.124992	0.918222
	O2591	O	0.483285	-0.458792	0.973913
	O2592	O	0.401020	-0.459498	0.925360
	O2593	O	0.348940	-0.459150	0.991237
	O2594	O	0.401075	-0.291326	0.925331
	O2595	O	0.399996	-0.209417	0.890577
	O2596	O	0.344070	-0.209200	0.838717
	O2597	O	0.427331	-0.290638	0.922051
	O2598	O	0.426375	-0.209111	0.887231
	O2599	O	0.479040	-0.208470	0.822266
	O2600	O	0.348946	-0.291071	0.991319
	O2601	O	0.400100	-0.041041	0.890505
	O2602	O	0.343985	-0.041074	0.838712
	O2603	O	0.478979	-0.040220	0.822279
	O2604	O	0.426426	-0.040960	0.887400
	O2605	O	0.483418	-0.290804	0.973588
	O2606	O	0.335890	-0.125134	0.998482
	O2607	O	0.492180	-0.375181	0.815632
	C2608	C	0.461005	-0.285520	0.952810
	C2609	C	0.466605	-0.374565	0.958343
	C2610	C	0.460785	-0.463529	0.953336
	C2611	C	0.449640	-0.463758	0.943011
	C2612	C	0.444040	-0.374741	0.937535
	C2613	C	0.449847	-0.285633	0.942520
	C2614	C	0.432033	-0.374735	0.926395
	C2615	C	0.478623	-0.374627	0.969534
	C2616	C	0.396627	-0.375218	0.930769
	C2617	C	0.385495	-0.374821	0.945048
	C2618	C	0.380186	-0.285751	0.951750
	C2619	C	0.369827	-0.285786	0.964893
	C2620	C	0.364515	-0.374926	0.971594
	C2621	C	0.369836	-0.463933	0.964904
	C2622	C	0.380185	-0.463860	0.951787
	C2623	C	0.353330	-0.375011	0.985850
	C2624	C	0.395296	-0.124848	0.886356
	C2625	C	0.383273	-0.124876	0.875177
	C2626	C	0.377686	-0.035755	0.869663
	C2627	C	0.366545	-0.035751	0.859286
	C2628	C	0.360734	-0.124891	0.854266
	C2629	C	0.366383	-0.214158	0.859655
	C2630	C	0.377516	-0.213967	0.870036
	C2631	C	0.348746	-0.125009	0.842970
	C2632	C	0.430856	-0.125105	0.881945
	C2633	C	0.442082	-0.124911	0.867858
	C2634	C	0.447381	-0.213957	0.861067
	C2635	C	0.457805	-0.213663	0.848091
	C2636	C	0.463261	-0.124661	0.841630
	C2637	C	0.457913	-0.035542	0.848331
	C2638	C	0.447487	-0.035926	0.861298
	C2639	C	0.474550	-0.124340	0.827671
	H2640	H	0.461839	-0.282539	0.842921
	H2641	H	0.443276	-0.282753	0.866094
	H2642	H	0.465426	-0.216705	0.956621
	H2643	H	0.445593	-0.216724	0.938309
	H2644	H	0.412890	-0.375039	0.881331
	H2645	H	0.414224	-0.125459	0.931315
	H2646	H	0.335253	-0.125532	0.985567
	H2647	H	0.492407	-0.375663	0.828695
	H2648	H	0.381784	-0.282882	0.874160
	H2649	H	0.362044	-0.283240	0.855686
	H2650	H	0.365779	-0.216763	0.970020
	H2651	H	0.384144	-0.216699	0.946589
	H2652	H	0.362338	0.033154	0.854966
	H2653	H	0.382093	0.033443	0.873510
	H2654	H	0.384135	-0.533256	0.946613
	H2655	H	0.365843	-0.532920	0.970029
	H2656	H	0.445192	-0.532380	0.939238
	H2657	H	0.465041	-0.532329	0.957579
	H2658	H	0.443495	0.033002	0.866517
	H2659	H	0.462041	0.033343	0.843393
	Al2660	Al	0.413723	0.000050	0.906411
	Al2661	Al	0.413693	0.250040	0.906331
	Al2662	Al	0.330355	0.250140	0.823015
	Al2663	Al	0.330329	0.000151	0.822965
	O2664	O	0.427317	0.040917	0.922242
	O2665	O	0.413285	0.124923	0.894467
	O2666	O	0.414029	0.375024	0.918244
	O2667	O	0.483379	0.041105	0.973799
	O2668	O	0.400971	0.041111	0.925341
	O2669	O	0.348875	0.041074	0.991255
	O2670	O	0.401080	0.209109	0.925548
	O2671	O	0.400016	0.290710	0.890517
	O2672	O	0.344005	0.290421	0.838869
	O2673	O	0.427294	0.209218	0.922214
	O2674	O	0.426352	0.290434	0.887198
	O2675	O	0.479032	0.290816	0.822289
	O2676	O	0.348935	0.209383	0.991304
	O2677	O	0.400114	0.458753	0.890416
	O2678	O	0.343980	0.458675	0.838836
	O2679	O	0.479053	0.458847	0.822342
	O2680	O	0.426334	0.458388	0.887256
	O2681	O	0.483476	0.209357	0.973597
	O2682	O	0.335946	0.374916	0.998572
	O2683	O	0.492186	0.125034	0.815525
	C2684	C	0.461056	0.214241	0.952862
	C2685	C	0.466682	0.125087	0.958330
	C2686	C	0.460890	0.035946	0.953278
	C2687	C	0.449721	0.036186	0.942971
	C2688	C	0.444073	0.125372	0.937561
	C2689	C	0.449886	0.214298	0.942586
	C2690	C	0.432058	0.125372	0.926474
	C2691	C	0.478691	0.125423	0.969459
	C2692	C	0.396638	0.125198	0.930908
	C2693	C	0.385482	0.124910	0.945145
	C2694	C	0.380204	0.214061	0.951909
	C2695	C	0.369845	0.214156	0.965000
	C2696	C	0.364469	0.125054	0.971652
	C2697	C	0.369740	0.035813	0.964873
	C2698	C	0.380083	0.035722	0.951738
	C2699	C	0.353345	0.125205	0.985847
	C2700	C	0.395346	0.374713	0.886218
	C2701	C	0.383350	0.374628	0.875029
	C2702	C	0.377641	0.463722	0.869760
	C2703	C	0.366492	0.463699	0.859448
	C2704	C	0.360732	0.374646	0.854286
	C2705	C	0.366440	0.285595	0.859561
	C2706	C	0.377599	0.285442	0.869865
	C2707	C	0.348736	0.374720	0.843072
	C2708	C	0.430795	0.374543	0.881828
	C2709	C	0.442054	0.374694	0.867750
	C2710	C	0.447337	0.285722	0.860972
	C2711	C	0.457819	0.285898	0.848027
	C2712	C	0.463273	0.374835	0.841609
	C2713	C	0.457954	0.463896	0.848314
	C2714	C	0.447478	0.463724	0.861256
	C2715	C	0.474563	0.374823	0.827676
	H2716	H	0.461756	0.216545	0.842834
	H2717	H	0.443195	0.216715	0.865860
	H2718	H	0.465443	0.283291	0.956725
	H2719	H	0.445636	0.283200	0.938392
	H2720	H	0.412664	0.124521	0.881477
	H2721	H	0.414219	0.374901	0.931359
	H2722	H	0.335502	0.374425	0.985519
	H2723	H	0.492711	0.124359	0.828555
	H2724	H	0.381920	0.216535	0.873853
	H2725	H	0.362107	0.216790	0.855550
	H2726	H	0.365941	0.283399	0.970182
	H2727	H	0.384273	0.283007	0.946827
	H2728	H	0.362167	0.532614	0.855395
	H2729	H	0.382009	0.532974	0.873758
	H2730	H	0.384055	-0.033292	0.946536
	H2731	H	0.365695	-0.033288	0.969966
	H2732	H	0.445334	-0.032684	0.939007
	H2733	H	0.465161	-0.032965	0.957426
	H2734	H	0.443503	0.532510	0.866417
	H2735	H	0.462033	0.532941	0.843368
	Al2736	Al	0.580369	-0.499450	0.072869
	Al2737	Al	0.580331	-0.249714	0.072945
	Al2738	Al	0.497004	-0.250090	-0.010453
	Al2739	Al	0.496970	-0.499993	-0.010299
	O2740	O	0.594029	-0.459150	0.088713
	O2741	O	0.580121	-0.374673	0.060984
	O2742	O	0.580716	-0.124744	0.084777
	O2743	O	0.650077	-0.458900	0.140580
	O2744	O	0.567737	-0.458818	0.091969
	O2745	O	0.515668	-0.458701	0.158060
	O2746	O	0.567687	-0.290767	0.091968
	O2747	O	0.566663	-0.209364	0.057035
	O2748	O	0.510709	-0.209136	0.005318
	O2749	O	0.593971	-0.291227	0.088915
	O2750	O	0.593034	-0.209040	0.053987
	O2751	O	0.645689	-0.208911	-0.011064
	O2752	O	0.515621	-0.290750	0.157869
	O2753	O	0.566712	-0.041031	0.057113
	O2754	O	0.510662	-0.040953	0.005463
	O2755	O	0.645713	-0.040889	-0.011074
	O2756	O	0.593069	-0.040812	0.053896
	O2757	O	0.650048	-0.290676	0.140419
	O2758	O	0.502625	-0.124896	0.165141
	O2759	O	0.658717	-0.375160	-0.017765
	C2760	C	0.627705	-0.286135	0.119692
	C2761	C	0.633371	-0.375186	0.124996
	C2762	C	0.627613	-0.464269	0.119860
	C2763	C	0.616444	-0.463938	0.109532
	C2764	C	0.610780	-0.374906	0.104220
	C2765	C	0.616543	-0.285938	0.109378
	C2766	C	0.598745	-0.374879	0.093011
	C2767	C	0.645350	-0.375146	0.136257
	C2768	C	0.563301	-0.375070	0.097442
	C2769	C	0.552196	-0.375169	0.111730
	C2770	C	0.546819	-0.286290	0.118327
	C2771	C	0.536476	-0.286468	0.131466
	C2772	C	0.531181	-0.375301	0.138242
	C2773	C	0.536588	-0.464108	0.131698
	C2774	C	0.546930	-0.464056	0.118553
	C2775	C	0.520064	-0.374884	0.152485
	C2776	C	0.561964	-0.125009	0.052829
	C2777	C	0.549966	-0.124927	0.041673
	C2778	C	0.544214	-0.035684	0.036528
	C2779	C	0.533057	-0.035663	0.026190
	C2780	C	0.527401	-0.124942	0.020869
	C2781	C	0.533184	-0.214194	0.025955
	C2782	C	0.544343	-0.214149	0.036308
	C2783	C	0.515419	-0.125071	0.009627
	C2784	C	0.597497	-0.125075	0.048585
	C2785	C	0.608773	-0.125336	0.034535
	C2786	C	0.614143	-0.214124	0.027889
	C2787	C	0.624605	-0.214048	0.014920
	C2788	C	0.629953	-0.125047	0.008346
	C2789	C	0.624557	-0.036264	0.014957
	C2790	C	0.614085	-0.036336	0.027921
	C2791	C	0.641245	-0.124924	-0.005697
	H2792	H	0.628664	-0.283178	0.009936
	H2793	H	0.610069	-0.283386	0.032876
	H2794	H	0.632035	-0.216948	0.123647
	H2795	H	0.612256	-0.216899	0.105337
	H2796	H	0.579993	-0.374115	0.047904
	H2797	H	0.580999	-0.124601	0.097943
	H2798	H	0.502055	-0.125275	0.152103
	H2799	H	0.658740	-0.375806	-0.004726
	H2800	H	0.548758	-0.282870	0.040207
	H2801	H	0.528925	-0.283213	0.021806
	H2802	H	0.532425	-0.217546	0.136543
	H2803	H	0.550759	-0.217410	0.113065
	H2804	H	0.528696	0.033165	0.022249
	H2805	H	0.548503	0.033391	0.040604
	H2806	H	0.550958	-0.532884	0.113477
	H2807	H	0.532676	-0.532584	0.136932
	H2808	H	0.612058	-0.532793	0.105562
	H2809	H	0.631897	-0.533336	0.124022
	H2810	H	0.610027	0.032566	0.032923
	H2811	H	0.628586	0.032670	0.009874
	Al2812	Al	0.580344	0.000406	0.072921
	Al2813	Al	0.580317	0.250192	0.072835
	Al2814	Al	0.497028	0.249880	-0.010477
	Al2815	Al	0.497055	-0.000109	-0.010402
	O2816	O	0.593982	0.041304	0.088860
	O2817	O	0.580040	0.124723	0.060960
	O2818	O	0.580715	0.375260	0.084838
	O2819	O	0.649984	0.041120	0.140486
	O2820	O	0.567657	0.041164	0.091953
	O2821	O	0.515642	0.041400	0.157971
	O2822	O	0.567648	0.209102	0.091858
	O2823	O	0.566719	0.291052	0.056993
	O2824	O	0.510634	0.291035	0.005437
	O2825	O	0.594041	0.209324	0.088661
	O2826	O	0.593011	0.290473	0.053804
	O2827	O	0.645814	0.290763	-0.010962
	O2828	O	0.515654	0.209375	0.158023
	O2829	O	0.566702	0.459107	0.057085
	O2830	O	0.510555	0.458938	0.005559
	O2831	O	0.645735	0.459066	-0.011089
	O2832	O	0.593019	0.458865	0.053843
	O2833	O	0.650083	0.209316	0.140347
	O2834	O	0.502609	0.375400	0.165227
	O2835	O	0.658811	0.124978	-0.017783
	C2836	C	0.627674	0.214310	0.119640
	C2837	C	0.633342	0.125233	0.124941
	C2838	C	0.627607	0.036294	0.119684
	C2839	C	0.616464	0.036182	0.109394
	C2840	C	0.610760	0.125271	0.104156
	C2841	C	0.616504	0.214313	0.109340
	C2842	C	0.598775	0.125470	0.092966
	C2843	C	0.645313	0.125183	0.136150
	C2844	C	0.563241	0.125253	0.097368
	C2845	C	0.552127	0.125055	0.111644
	C2846	C	0.546808	0.214135	0.118347
	C2847	C	0.536490	0.214444	0.131494
	C2848	C	0.531188	0.125566	0.138273
	C2849	C	0.536509	0.036567	0.131567
	C2850	C	0.546831	0.036182	0.118421
	C2851	C	0.520082	0.125275	0.152572
	C2852	C	0.561985	0.375083	0.052786
	C2853	C	0.549990	0.375203	0.041600
	C2854	C	0.544188	0.464143	0.036524
	C2855	C	0.533011	0.464053	0.026233
	C2856	C	0.527358	0.375041	0.020880
	C2857	C	0.533083	0.286180	0.026117
	C2858	C	0.544266	0.286232	0.036373
	C2859	C	0.515337	0.374992	0.009704
	C2860	C	0.597449	0.374673	0.048420
	C2861	C	0.608729	0.374815	0.034393
	C2862	C	0.614110	0.285739	0.027852
	C2863	C	0.624610	0.285801	0.014913
	C2864	C	0.629971	0.374878	0.008289
	C2865	C	0.624636	0.463882	0.014912
	C2866	C	0.614158	0.463811	0.027869
	C2867	C	0.641292	0.374846	-0.005716
	H2868	H	0.628678	0.216984	0.009871
	H2869	H	0.610070	0.216624	0.032867
	H2870	H	0.632048	0.282960	0.123673
	H2871	H	0.612197	0.283209	0.105189
	H2872	H	0.579945	0.124934	0.047960
	H2873	H	0.581067	0.375328	0.097897
	H2874	H	0.502121	0.374991	0.152228
	H2875	H	0.658970	0.124386	-0.004709
	H2876	H	0.548547	0.217201	0.040429
	H2877	H	0.528774	0.217559	0.022072
	H2878	H	0.532468	0.283315	0.136600
	H2879	H	0.550807	0.283271	0.113193
	H2880	H	0.528659	0.532884	0.022277
	H2881	H	0.548437	0.533048	0.040716
	H2882	H	0.550844	-0.032642	0.113297
	H2883	H	0.532543	-0.032416	0.136790
	H2884	H	0.612158	-0.032812	0.105328
	H2885	H	0.631921	-0.032889	0.123719
	H2886	H	0.610121	0.532857	0.032892
	H2887	H	0.628681	0.532987	0.009940
	Al2888	Al	0.586269	-0.499979	0.260484
	Al2889	Al	0.586273	-0.249912	0.260483
	Al2890	Al	0.503002	-0.249934	0.176993
	Al2891	Al	0.503001	-0.499650	0.177093
	O2892	O	0.599929	-0.459076	0.276293
	O2893	O	0.585892	-0.374920	0.248641
	O2894	O	0.586523	-0.124877	0.272308
	O2895	O	0.655948	-0.458842	0.327963
	O2896	O	0.573665	-0.458914	0.279646
	O2897	O	0.520900	-0.458769	0.344490
	O2898	O	0.573645	-0.290572	0.279583
	O2899	O	0.572675	-0.209200	0.244540
	O2900	O	0.516630	-0.208900	0.192836
	O2901	O	0.599896	-0.290577	0.276271
	O2902	O	0.598933	-0.209184	0.241401
	O2903	O	0.651002	-0.209061	0.175378
	O2904	O	0.520885	-0.290564	0.344393
	O2905	O	0.572665	-0.041008	0.244502
	O2906	O	0.516579	-0.040688	0.193017
	O2907	O	0.650976	-0.040921	0.175359
	O2908	O	0.598939	-0.041103	0.241363
	O2909	O	0.655967	-0.290594	0.327898
	O2910	O	0.507806	-0.125143	0.351166
	O2911	O	0.663955	-0.374901	0.168324
	C2912	C	0.633515	-0.285672	0.307337
	C2913	C	0.639241	-0.374782	0.312441
	C2914	C	0.633522	-0.463792	0.307193
	C2915	C	0.622352	-0.463947	0.296894
	C2916	C	0.616665	-0.374726	0.291649
	C2917	C	0.622348	-0.285688	0.297001
	C2918	C	0.604642	-0.374732	0.280503
	C2919	C	0.651245	-0.374671	0.323631
	C2920	C	0.569228	-0.374608	0.285003
	C2921	C	0.557902	-0.374729	0.298967
	C2922	C	0.552554	-0.285535	0.305647
	C2923	C	0.542069	-0.285591	0.318537
	C2924	C	0.536666	-0.374790	0.325084
	C2925	C	0.542035	-0.463934	0.318413
	C2926	C	0.552525	-0.463977	0.305547
	C2927	C	0.525314	-0.374869	0.339075
	C2928	C	0.567932	-0.125165	0.240290
	C2929	C	0.555931	-0.125138	0.229106
	C2930	C	0.550188	-0.036078	0.223937
	C2931	C	0.539015	-0.035904	0.213651
	C2932	C	0.533337	-0.124903	0.208345
	C2933	C	0.539113	-0.213931	0.213449
	C2934	C	0.550260	-0.214024	0.223780
	C2935	C	0.521323	-0.124964	0.197160
	C2936	C	0.603342	-0.125097	0.235943
	C2937	C	0.614483	-0.124913	0.221691
	C2938	C	0.619804	-0.213912	0.214981
	C2939	C	0.630143	-0.213944	0.201843
	C2940	C	0.635454	-0.125042	0.195095
	C2941	C	0.630160	-0.035976	0.201849
	C2942	C	0.619812	-0.035895	0.214989
	C2943	C	0.646585	-0.125102	0.180824
	H2944	H	0.634148	-0.282917	0.196708
	H2945	H	0.615815	-0.282818	0.220143
	H2946	H	0.637829	-0.216928	0.311442
	H2947	H	0.617963	-0.216559	0.293046
	H2948	H	0.585588	-0.374794	0.235631
	H2949	H	0.586720	-0.124942	0.285358
	H2950	H	0.507591	-0.124353	0.338139
	H2951	H	0.664049	-0.374578	0.181380
	H2952	H	0.554580	-0.282907	0.227758
	H2953	H	0.534788	-0.282862	0.209338
	H2954	H	0.537996	-0.216699	0.323607
	H2955	H	0.556661	-0.216773	0.300658
	H2956	H	0.534669	0.032538	0.209619
	H2957	H	0.554524	0.032622	0.227983
	H2958	H	0.556569	-0.532995	0.300516
	H2959	H	0.537924	-0.533071	0.323417
	H2960	H	0.618026	-0.532938	0.292878
	H2961	H	0.637831	-0.532712	0.311171
	H2962	H	0.615828	0.033194	0.220165
	H2963	H	0.634161	0.033025	0.196694
	Al2964	Al	0.586291	0.000183	0.260434
	Al2965	Al	0.586268	0.250166	0.260418
	Al2966	Al	0.502995	0.250271	0.177094
	Al2967	Al	0.503017	0.000097	0.177031
	O2968	O	0.599869	0.040811	0.276340
	O2969	O	0.585974	0.125028	0.248488
	O2970	O	0.586676	0.374907	0.272322
	O2971	O	0.655998	0.040980	0.327857
	O2972	O	0.573568	0.041064	0.279476
	O2973	O	0.520942	0.040924	0.344585
	O2974	O	0.573558	0.209251	0.279421
	O2975	O	0.572706	0.290923	0.244453
	O2976	O	0.516619	0.291059	0.192955
	O2977	O	0.599888	0.208843	0.276255
	O2978	O	0.598919	0.291071	0.241348
	O2979	O	0.650958	0.290992	0.175395
	O2980	O	0.520895	0.209013	0.344345
	O2981	O	0.572636	0.458784	0.244657
	O2982	O	0.516616	0.459186	0.192858
	O2983	O	0.651032	0.459186	0.175508
	O2984	O	0.598904	0.459260	0.241385
	O2985	O	0.655917	0.209060	0.327956
	O2986	O	0.507910	0.374641	0.351251
	O2987	O	0.663999	0.124904	0.168269
	C2988	C	0.633466	0.213798	0.307358
	C2989	C	0.639201	0.124742	0.312601
	C2990	C	0.633502	0.035613	0.307289
	C2991	C	0.622339	0.035583	0.296991
	C2992	C	0.616576	0.124750	0.291828
	C2993	C	0.622321	0.213813	0.297045
	C2994	C	0.604603	0.124714	0.280611
	C2995	C	0.651230	0.124941	0.323706
	C2996	C	0.569145	0.125294	0.284872
	C2997	C	0.557864	0.125017	0.298909
	C2998	C	0.552447	0.214094	0.305491
	C2999	C	0.541988	0.214008	0.318434
	C3000	C	0.536675	0.124858	0.325119
	C3001	C	0.542079	0.035795	0.318565
	C3002	C	0.552541	0.035906	0.305590
	C3003	C	0.525364	0.124743	0.339061
	C3004	C	0.567935	0.374841	0.240272
	C3005	C	0.555933	0.374998	0.229056
	C3006	C	0.550124	0.463983	0.224036
	C3007	C	0.538972	0.463818	0.213724
	C3008	C	0.533351	0.374866	0.208268
	C3009	C	0.539135	0.285672	0.213353
	C3010	C	0.550293	0.285878	0.223659
	C3011	C	0.521360	0.375050	0.197108
	C3012	C	0.603320	0.375186	0.235914
	C3013	C	0.614444	0.375196	0.221630
	C3014	C	0.619765	0.286174	0.214960
	C3015	C	0.630099	0.286105	0.201814
	C3016	C	0.635402	0.375057	0.195089
	C3017	C	0.630073	0.463974	0.201753
	C3018	C	0.619734	0.464027	0.214884
	C3019	C	0.646562	0.375195	0.180891
	H3020	H	0.634125	0.217247	0.196679
	H3021	H	0.615791	0.217207	0.220184
	H3022	H	0.637806	0.282809	0.311341
	H3023	H	0.617999	0.283079	0.293010
	H3024	H	0.585663	0.125247	0.235454
	H3025	H	0.587338	0.375189	0.285268
	H3026	H	0.507760	0.374835	0.338074
	H3027	H	0.664336	0.124707	0.181343
	H3028	H	0.554671	0.216704	0.227651
	H3029	H	0.534856	0.216692	0.209172
	H3030	H	0.537898	0.282824	0.323431
	H3031	H	0.556474	0.283116	0.300372
	H3032	H	0.534591	0.532922	0.209849
	H3033	H	0.554385	0.533133	0.228272
	H3034	H	0.556632	-0.032915	0.300569
	H3035	H	0.538039	-0.033143	0.323699
	H3036	H	0.617994	-0.033399	0.292933
	H3037	H	0.637919	-0.033349	0.311201
	H3038	H	0.615734	0.533110	0.220029
	H3039	H	0.634073	0.532780	0.196627
	Al3040	Al	0.591366	-0.499881	0.446542
	Al3041	Al	0.591394	-0.250178	0.446460
	Al3042	Al	0.508003	-0.250414	0.363100
	Al3043	Al	0.508020	-0.500330	0.363164
	O3044	O	0.604794	-0.458946	0.462705
	O3045	O	0.591203	-0.374913	0.434511
	O3046	O	0.591502	-0.125053	0.458374
	O3047	O	0.661264	-0.459052	0.513681
	O3048	O	0.578226	-0.459115	0.464839
	O3049	O	0.520956	-0.459044	0.520243
	O3050	O	0.578252	-0.290975	0.464820
	O3051	O	0.577754	-0.209413	0.430437
	O3052	O	0.521475	-0.209338	0.379315
	O3053	O	0.604865	-0.290713	0.462731
	O3054	O	0.604270	-0.208669	0.427710
	O3055	O	0.656986	-0.208395	0.362896
	O3056	O	0.521036	-0.291103	0.520344
	O3057	O	0.577897	-0.041313	0.430245
	O3058	O	0.521417	-0.041313	0.379451
	O3059	O	0.656978	-0.040499	0.362774
	O3060	O	0.604199	-0.040632	0.427685
	O3061	O	0.661241	-0.290902	0.513589
	O3062	O	0.507490	-0.124979	0.524245
	O3063	O	0.669867	-0.374978	0.355681
	C3064	C	0.638585	-0.286072	0.493463
	C3065	C	0.644391	-0.375452	0.498498
	C3066	C	0.638663	-0.464836	0.493247
	C3067	C	0.627414	-0.464716	0.483139
	C3068	C	0.621609	-0.375318	0.478101
	C3069	C	0.627345	-0.286069	0.483351
	C3070	C	0.609580	-0.375128	0.466962
	C3071	C	0.656488	-0.375011	0.509492
	C3072	C	0.573486	-0.374861	0.469541
	C3073	C	0.561375	-0.374729	0.481889
	C3074	C	0.555582	-0.285668	0.487605
	C3075	C	0.544186	-0.285835	0.498658
	C3076	C	0.538281	-0.374988	0.504136
	C3077	C	0.544083	-0.464029	0.498441
	C3078	C	0.555464	-0.463881	0.487372
	C3079	C	0.525890	-0.375176	0.515869
	C3080	C	0.573061	-0.125248	0.426174
	C3081	C	0.560992	-0.124996	0.415135
	C3082	C	0.555232	-0.035923	0.409971
	C3083	C	0.544018	-0.035885	0.399767
	C3084	C	0.538278	-0.125082	0.394599
	C3085	C	0.544051	-0.214207	0.399718
	C3086	C	0.555266	-0.214054	0.409922
	C3087	C	0.526236	-0.125391	0.383544
	C3088	C	0.608727	-0.124653	0.422400
	C3089	C	0.620060	-0.124246	0.408479
	C3090	C	0.625502	-0.213415	0.401905
	C3091	C	0.635980	-0.213349	0.388992
	C3092	C	0.641307	-0.124189	0.382312
	C3093	C	0.635874	-0.035062	0.388891
	C3094	C	0.625406	-0.035158	0.401832
	C3095	C	0.652528	-0.124432	0.368223
	H3096	H	0.640050	-0.282046	0.383984
	H3097	H	0.621474	-0.282610	0.406994
	H3098	H	0.642923	-0.216941	0.497479
	H3099	H	0.622970	-0.216770	0.479479
	H3100	H	0.590826	-0.375124	0.421475
	H3101	H	0.591405	-0.125263	0.471495
	H3102	H	0.508190	-0.124586	0.511074
	H3103	H	0.669977	-0.374464	0.368824
	H3104	H	0.559654	-0.283045	0.413862
	H3105	H	0.539729	-0.283082	0.395658
	H3106	H	0.539849	-0.216924	0.503028
	H3107	H	0.559987	-0.216572	0.483328
	H3108	H	0.539670	0.032789	0.395823
	H3109	H	0.559602	0.033001	0.413900
	H3110	H	0.559795	-0.532878	0.482899
	H3111	H	0.539646	-0.533057	0.502675
	H3112	H	0.623055	-0.533881	0.479023
	H3113	H	0.643087	-0.534220	0.497041
	H3114	H	0.621293	0.033686	0.406853
	H3115	H	0.639857	0.034063	0.383790
	Al3116	Al	0.591336	0.000028	0.446441
	Al3117	Al	0.591301	0.250014	0.446520
	Al3118	Al	0.508046	0.249508	0.363171
	Al3119	Al	0.507998	-0.000406	0.363252
	O3120	O	0.604806	0.040942	0.462610
	O3121	O	0.591075	0.125052	0.434444
	O3122	O	0.591482	0.374882	0.458478
	O3123	O	0.661219	0.041193	0.513538
	O3124	O	0.578153	0.040658	0.464784
	O3125	O	0.520983	0.041288	0.520406
	O3126	O	0.578205	0.208662	0.464730
	O3127	O	0.577816	0.291575	0.430321
	O3128	O	0.521487	0.290965	0.379379
	O3129	O	0.604785	0.209202	0.462638
	O3130	O	0.604231	0.290657	0.427898
	O3131	O	0.656921	0.290650	0.362853
	O3132	O	0.521037	0.209070	0.520428
	O3133	O	0.577832	0.459762	0.430395
	O3134	O	0.521428	0.459257	0.379364
	O3135	O	0.656874	0.458834	0.362888
	O3136	O	0.604227	0.458846	0.427782
	O3137	O	0.661219	0.209213	0.513585
	O3138	O	0.507395	0.375014	0.524160
	O3139	O	0.669979	0.124976	0.355530
	C3140	C	0.638567	0.213824	0.493281
	C3141	C	0.644339	0.124916	0.498419
	C3142	C	0.638613	0.035778	0.493257
	C3143	C	0.627364	0.035730	0.483118
	C3144	C	0.621591	0.124831	0.478003
	C3145	C	0.627330	0.213875	0.483121
	C3146	C	0.609533	0.125204	0.466874
	C3147	C	0.656445	0.125506	0.509412
	C3148	C	0.573421	0.124606	0.469524
	C3149	C	0.561314	0.124984	0.481825
	C3150	C	0.555494	0.213685	0.487509
	C3151	C	0.544112	0.213801	0.498582
	C3152	C	0.538252	0.125055	0.504172
	C3153	C	0.544101	0.036249	0.498574
	C3154	C	0.555486	0.036172	0.487499
	C3155	C	0.525901	0.124999	0.515934
	C3156	C	0.573066	0.375709	0.426174
	C3157	C	0.561001	0.375953	0.415080
	C3158	C	0.555208	0.464820	0.409977
	C3159	C	0.543996	0.464520	0.399806
	C3160	C	0.538264	0.375597	0.394659
	C3161	C	0.544047	0.286842	0.399781
	C3162	C	0.555265	0.287024	0.409934
	C3163	C	0.526211	0.375226	0.383566
	C3164	C	0.608728	0.374724	0.422541
	C3165	C	0.620023	0.374624	0.408563
	C3166	C	0.625446	0.285459	0.402091
	C3167	C	0.635900	0.285285	0.389091
	C3168	C	0.641221	0.374478	0.382373
	C3169	C	0.635790	0.463600	0.388801
	C3170	C	0.625333	0.463790	0.401803
	C3171	C	0.652460	0.374838	0.368218
	H3172	H	0.639986	0.216229	0.384190
	H3173	H	0.621453	0.216437	0.407217
	H3174	H	0.642882	0.283012	0.497273
	H3175	H	0.623011	0.282982	0.479143
	H3176	H	0.590819	0.125296	0.421422
	H3177	H	0.591683	0.374683	0.471472
	H3178	H	0.508070	0.375003	0.511017
	H3179	H	0.670307	0.125620	0.368628
	H3180	H	0.559604	0.218042	0.413920
	H3181	H	0.539696	0.217894	0.395801
	H3182	H	0.539713	0.282876	0.502836
	H3183	H	0.559865	0.282631	0.483131
	H3184	H	0.539575	0.533347	0.395892
	H3185	H	0.559571	0.533620	0.413947
	H3186	H	0.559831	-0.032820	0.483157
	H3187	H	0.539688	-0.032459	0.502858
	H3188	H	0.623044	-0.033353	0.479112
	H3189	H	0.642957	-0.032995	0.497232
	H3190	H	0.621254	0.533065	0.406672
	H3191	H	0.639778	0.532710	0.383657
	Al3192	Al	0.590113	-0.500322	0.619671
	Al3193	Al	0.590088	-0.249677	0.619746
	Al3194	Al	0.506786	-0.250671	0.536223
	Al3195	Al	0.506725	-0.499684	0.536353
	O3196	O	0.602672	-0.459319	0.637318
	O3197	O	0.590803	-0.375135	0.607480
	O3198	O	0.588898	-0.125365	0.631730
	O3199	O	0.660974	-0.458924	0.684593
	O3200	O	0.574638	-0.459504	0.633549
	O3201	O	0.508765	-0.459014	0.616533
	O3202	O	0.574660	-0.291373	0.633559
	O3203	O	0.577610	-0.208945	0.601323
	O3204	O	0.519339	-0.209274	0.553999
	O3205	O	0.602602	-0.291388	0.637481
	O3206	O	0.604435	-0.209754	0.603807
	O3207	O	0.661523	-0.209542	0.548032
	O3208	O	0.508763	-0.290637	0.616553
	O3209	O	0.577611	-0.041033	0.601361
	O3210	O	0.519363	-0.040960	0.553955
	O3211	O	0.661451	-0.041484	0.547920
	O3212	O	0.604289	-0.041989	0.603551
	O3213	O	0.661012	-0.291163	0.684556
	O3214	O	0.494483	-0.124641	0.618342
	O3215	O	0.675033	-0.374993	0.541739
	C3216	C	0.637898	-0.285610	0.664857
	C3217	C	0.643933	-0.375112	0.669512
	C3218	C	0.637983	-0.464689	0.664729
	C3219	C	0.626247	-0.464620	0.655705
	C3220	C	0.620177	-0.375030	0.651210
	C3221	C	0.626173	-0.285511	0.655834
	C3222	C	0.607621	-0.375386	0.641198
	C3223	C	0.656215	-0.375096	0.680297
	C3224	C	0.568990	-0.375373	0.632524
	C3225	C	0.554797	-0.375147	0.629497
	C3226	C	0.548156	-0.285214	0.627337
	C3227	C	0.535243	-0.285107	0.622943
	C3228	C	0.528607	-0.374812	0.620625
	C3229	C	0.535242	-0.464720	0.622773
	C3230	C	0.548141	-0.464812	0.627178
	C3231	C	0.514405	-0.374764	0.617515
	C3232	C	0.572811	-0.124841	0.597139
	C3233	C	0.560519	-0.125036	0.586369
	C3234	C	0.554550	-0.035548	0.581530
	C3235	C	0.542868	-0.035559	0.572405
	C3236	C	0.536802	-0.125136	0.567978
	C3237	C	0.542870	-0.214510	0.572520
	C3238	C	0.554552	-0.214548	0.581613
	C3239	C	0.524291	-0.125073	0.557826
	C3240	C	0.609252	-0.125586	0.599227
	C3241	C	0.621590	-0.125736	0.587424
	C3242	C	0.627478	-0.214625	0.581843
	C3243	C	0.638817	-0.214320	0.570743
	C3244	C	0.644610	-0.125365	0.565013
	C3245	C	0.638779	-0.036390	0.570688
	C3246	C	0.627424	-0.036678	0.581776
	C3247	C	0.656710	-0.125335	0.552683
	H3248	H	0.643228	-0.283211	0.566423
	H3249	H	0.623081	-0.283551	0.586160
	H3250	H	0.642354	-0.215639	0.668424
	H3251	H	0.621651	-0.215724	0.652457
	H3252	H	0.591647	-0.374776	0.594371
	H3253	H	0.587116	-0.125166	0.644612
	H3254	H	0.496255	-0.124545	0.605530
	H3255	H	0.675271	-0.374631	0.554708
	H3256	H	0.559010	-0.284351	0.585226
	H3257	H	0.538388	-0.284406	0.569023
	H3258	H	0.530230	-0.215107	0.621229
	H3259	H	0.553115	-0.215403	0.629137
	H3260	H	0.538362	0.034034	0.568858
	H3261	H	0.559020	0.034294	0.585053
	H3262	H	0.553125	-0.534871	0.628916
	H3263	H	0.530280	-0.534659	0.620988
	H3264	H	0.621720	-0.534280	0.652222
	H3265	H	0.642482	-0.534739	0.668157
	H3266	H	0.622996	0.032202	0.586114
	H3267	H	0.643147	0.032729	0.566271
	Al3268	Al	0.590067	-0.000661	0.619767
	Al3269	Al	0.590103	0.250518	0.619600
	Al3270	Al	0.506719	0.249657	0.536401
	Al3271	Al	0.506719	0.000194	0.536416
	O3272	O	0.602628	0.040788	0.637426
	O3273	O	0.590843	0.124764	0.607528
	O3274	O	0.588995	0.375112	0.631610
	O3275	O	0.660982	0.040603	0.684431
	O3276	O	0.574639	0.041554	0.633522
	O3277	O	0.508673	0.041330	0.616492
	O3278	O	0.574612	0.209823	0.633299
	O3279	O	0.577667	0.290610	0.601162
	O3280	O	0.519252	0.291083	0.554078
	O3281	O	0.602695	0.208957	0.637223
	O3282	O	0.604326	0.291181	0.603476
	O3283	O	0.661634	0.291297	0.548050
	O3284	O	0.508717	0.209562	0.616666
	O3285	O	0.577679	0.458559	0.601108
	O3286	O	0.519289	0.459347	0.554067
	O3287	O	0.661670	0.459208	0.548085
	O3288	O	0.604426	0.459318	0.603600
	O3289	O	0.661045	0.208842	0.684484
	O3290	O	0.494386	0.375011	0.618441
	O3291	O	0.674835	0.124960	0.541594
	C3292	C	0.637836	0.214432	0.665011
	C3293	C	0.643862	0.124888	0.669680
	C3294	C	0.637834	0.035220	0.664998
	C3295	C	0.626159	0.035358	0.656028
	C3296	C	0.620113	0.124961	0.651427
	C3297	C	0.626163	0.214557	0.656029
	C3298	C	0.607597	0.124780	0.641258
	C3299	C	0.656213	0.124800	0.680264
	C3300	C	0.568990	0.125541	0.632474
	C3301	C	0.554755	0.125419	0.629495
	C3302	C	0.548101	0.215206	0.627366
	C3303	C	0.535183	0.215022	0.622963
	C3304	C	0.528555	0.125246	0.620661
	C3305	C	0.535208	0.035494	0.622842
	C3306	C	0.548121	0.035639	0.627233
	C3307	C	0.514351	0.125283	0.617569
	C3308	C	0.572848	0.374696	0.596965
	C3309	C	0.560512	0.374545	0.586302
	C3310	C	0.554473	0.464349	0.581734
	C3311	C	0.542735	0.464449	0.572724
	C3312	C	0.536706	0.374839	0.568103
	C3313	C	0.542786	0.285049	0.572499
	C3314	C	0.554524	0.285033	0.581487
	C3315	C	0.524210	0.375108	0.558000
	C3316	C	0.609268	0.375262	0.599109
	C3317	C	0.621623	0.375365	0.587377
	C3318	C	0.627525	0.286439	0.581863
	C3319	C	0.638913	0.286388	0.570823
	C3320	C	0.644735	0.375383	0.565080
	C3321	C	0.638873	0.464477	0.570691
	C3322	C	0.627487	0.464377	0.581737
	C3323	C	0.656860	0.375263	0.552779
	H3324	H	0.643344	0.217168	0.566575
	H3325	H	0.623121	0.217315	0.586249
	H3326	H	0.642399	0.284097	0.668577
	H3327	H	0.621610	0.284246	0.652504
	H3328	H	0.591552	0.124924	0.594375
	H3329	H	0.587061	0.374947	0.644534
	H3330	H	0.496256	0.375034	0.605503
	H3331	H	0.674771	0.124756	0.554777
	H3332	H	0.559044	0.215052	0.584838
	H3333	H	0.538279	0.215274	0.568859
	H3334	H	0.530214	0.285016	0.621296
	H3335	H	0.553072	0.285134	0.629099
	H3336	H	0.538216	0.534343	0.569347
	H3337	H	0.558972	0.534315	0.585235
	H3338	H	0.553083	-0.034306	0.628916
	H3339	H	0.530216	-0.034268	0.621078
	H3340	H	0.621611	-0.034228	0.652543
	H3341	H	0.642325	-0.034538	0.668552
	H3342	H	0.623067	0.533433	0.585988
	H3343	H	0.643250	0.533328	0.566291
	Al3344	Al	0.576614	-0.499185	0.713757
	Al3345	Al	0.576619	-0.250294	0.713673
	Al3346	Al	0.493340	-0.249402	0.630388
	Al3347	Al	0.493287	-0.500465	0.630454
	O3348	O	0.588985	-0.458517	0.732270
	O3349	O	0.577711	-0.374786	0.701682
	O3350	O	0.575920	-0.124950	0.725789
	O3351	O	0.647399	-0.459053	0.779337
	O3352	O	0.562257	-0.459437	0.729683
	O3353	O	0.505084	-0.458737	0.785328
	O3354	O	0.562348	-0.291302	0.729831
	O3355	O	0.563973	-0.208863	0.696065
	O3356	O	0.505709	-0.208538	0.648871
	O3357	O	0.588999	-0.290244	0.732225
	O3358	O	0.592055	-0.208702	0.699863
	O3359	O	0.657969	-0.209032	0.716850
	O3360	O	0.505123	-0.290482	0.785264
	O3361	O	0.564012	-0.040875	0.696074
	O3362	O	0.505730	-0.040634	0.648787
	O3363	O	0.657983	-0.040711	0.716703
	O3364	O	0.592129	-0.040526	0.700022
	O3365	O	0.647423	-0.291042	0.779339
	O3366	O	0.491768	-0.125135	0.791682
	O3367	O	0.672237	-0.374862	0.715070
	C3368	C	0.623895	-0.285298	0.760810
	C3369	C	0.629942	-0.374855	0.765327
	C3370	C	0.623851	-0.464201	0.760822
	C3371	C	0.612151	-0.463872	0.751860
	C3372	C	0.606151	-0.374238	0.747158
	C3373	C	0.612195	-0.284933	0.751823
	C3374	C	0.593779	-0.374369	0.736470
	C3375	C	0.642488	-0.374991	0.775439
	C3376	C	0.557418	-0.375206	0.734247
	C3377	C	0.545069	-0.375144	0.745975
	C3378	C	0.539242	-0.286100	0.751606
	C3379	C	0.527866	-0.286051	0.762642
	C3380	C	0.522023	-0.375067	0.768325
	C3381	C	0.527781	-0.464140	0.762515
	C3382	C	0.539154	-0.464209	0.751478
	C3383	C	0.509883	-0.374603	0.780630
	C3384	C	0.559069	-0.124839	0.692151
	C3385	C	0.546588	-0.124731	0.682044
	C3386	C	0.540463	-0.035198	0.677694
	C3387	C	0.528784	-0.035160	0.668620
	C3388	C	0.522822	-0.124676	0.663710
	C3389	C	0.528858	-0.214166	0.668362
	C3390	C	0.540543	-0.214259	0.677399
	C3391	C	0.510527	-0.124600	0.653015
	C3392	C	0.597763	-0.124808	0.700921
	C3393	C	0.611952	-0.125070	0.703949
	C3394	C	0.618587	-0.215061	0.706201
	C3395	C	0.631509	-0.215083	0.710592
	C3396	C	0.638144	-0.125147	0.712852
	C3397	C	0.631532	-0.035286	0.710586
	C3398	C	0.618618	-0.035322	0.706186
	C3399	C	0.652355	-0.124883	0.715785
	H3400	H	0.636483	-0.284996	0.712401
	H3401	H	0.613569	-0.284896	0.704509
	H3402	H	0.628461	-0.215801	0.764226
	H3403	H	0.607684	-0.214988	0.748266
	H3404	H	0.579334	-0.374972	0.688848
	H3405	H	0.575325	-0.124775	0.739016
	H3406	H	0.491859	-0.125752	0.778618
	H3407	H	0.670449	-0.375034	0.728036
	H3408	H	0.545052	-0.283838	0.680865
	H3409	H	0.524385	-0.283846	0.664754
	H3410	H	0.523498	-0.217130	0.767015
	H3411	H	0.543692	-0.216971	0.747290
	H3412	H	0.524237	0.034715	0.665218
	H3413	H	0.544923	0.034348	0.681363
	H3414	H	0.543503	-0.533327	0.747076
	H3415	H	0.523315	-0.533107	0.766809
	H3416	H	0.607650	-0.533636	0.748370
	H3417	H	0.628359	-0.534079	0.764323
	H3418	H	0.613638	0.034890	0.704556
	H3419	H	0.636513	0.034803	0.712404
	Al3420	Al	0.576589	0.000764	0.713771
	Al3421	Al	0.576619	0.249620	0.713777
	Al3422	Al	0.493272	0.250452	0.630522
	Al3423	Al	0.493226	-0.000326	0.630394
	O3424	O	0.589137	0.040687	0.732136
	O3425	O	0.577793	0.125046	0.701786
	O3426	O	0.575964	0.375015	0.725906
	O3427	O	0.647424	0.040731	0.779328
	O3428	O	0.562367	0.041128	0.729870
	O3429	O	0.505065	0.041119	0.785199
	O3430	O	0.562373	0.209022	0.729873
	O3431	O	0.564115	0.291275	0.696052
	O3432	O	0.505745	0.291132	0.648830
	O3433	O	0.589035	0.208772	0.732199
	O3434	O	0.592122	0.291039	0.699975
	O3435	O	0.657976	0.290749	0.716844
	O3436	O	0.505170	0.209402	0.785384
	O3437	O	0.564145	0.459214	0.695942
	O3438	O	0.505730	0.458838	0.648891
	O3439	O	0.658011	0.459085	0.716912
	O3440	O	0.592097	0.459200	0.700060
	O3441	O	0.647474	0.208768	0.779289
	O3442	O	0.491842	0.374966	0.791766
	O3443	O	0.672153	0.125071	0.714960
	C3444	C	0.623961	0.214475	0.760755
	C3445	C	0.629991	0.124836	0.765337
	C3446	C	0.623942	0.035349	0.760744
	C3447	C	0.612231	0.035271	0.751711
	C3448	C	0.606243	0.124914	0.746999
	C3449	C	0.612258	0.214462	0.751731
	C3450	C	0.593901	0.124925	0.736431
	C3451	C	0.642505	0.124769	0.775442
	C3452	C	0.557464	0.125159	0.734298
	C3453	C	0.545078	0.125052	0.746038
	C3454	C	0.539216	0.213924	0.751596
	C3455	C	0.527835	0.214106	0.762618
	C3456	C	0.521983	0.125126	0.768231
	C3457	C	0.527774	0.036262	0.762509
	C3458	C	0.539172	0.035992	0.751498
	C3459	C	0.509855	0.125179	0.780545
	C3460	C	0.559195	0.375131	0.692086
	C3461	C	0.546688	0.374983	0.681998
	C3462	C	0.540650	0.464321	0.677370
	C3463	C	0.528925	0.464175	0.668402
	C3464	C	0.522880	0.374761	0.663751
	C3465	C	0.528811	0.285322	0.668702
	C3466	C	0.540529	0.285607	0.677711
	C3467	C	0.510571	0.374842	0.653038
	C3468	C	0.597759	0.375179	0.700954
	C3469	C	0.611967	0.375265	0.703869
	C3470	C	0.618600	0.285488	0.706149
	C3471	C	0.631523	0.285413	0.710559
	C3472	C	0.638171	0.375212	0.712725
	C3473	C	0.631528	0.464923	0.710556
	C3474	C	0.618608	0.465085	0.706173
	C3475	C	0.652360	0.375093	0.715819
	H3476	H	0.636497	0.215378	0.712207
	H3477	H	0.613630	0.215604	0.704407
	H3478	H	0.628522	0.284192	0.764220
	H3479	H	0.607781	0.284401	0.748217
	H3480	H	0.579820	0.124922	0.688908
	H3481	H	0.575136	0.375049	0.739052
	H3482	H	0.491784	0.375149	0.778644
	H3483	H	0.670029	0.124987	0.727783
	H3484	H	0.544983	0.216049	0.681419
	H3485	H	0.524220	0.215521	0.665435
	H3486	H	0.523406	0.283058	0.766943
	H3487	H	0.543607	0.282857	0.747237
	H3488	H	0.524416	0.534002	0.664900
	H3489	H	0.545187	0.533940	0.680806
	H3490	H	0.543556	-0.033031	0.747090
	H3491	H	0.523331	-0.032308	0.766750
	H3492	H	0.607711	-0.034467	0.748225
	H3493	H	0.628468	-0.034357	0.764216
	H3494	H	0.613626	0.535196	0.704445
	H3495	H	0.636514	0.534999	0.712264
	Al3496	Al	0.575223	-0.500010	0.886954
	Al3497	Al	0.575225	-0.249973	0.886963
	Al3498	Al	0.491988	-0.249743	0.803706
	Al3499	Al	0.491973	-0.500097	0.803640
	O3500	O	0.588794	-0.459592	0.903048
	O3501	O	0.575065	-0.374823	0.875012
	O3502	O	0.575583	-0.124661	0.898836
	O3503	O	0.645231	-0.459184	0.953945
	O3504	O	0.562382	-0.458827	0.905707
	O3505	O	0.509721	-0.458974	0.970697
	O3506	O	0.562352	-0.290685	0.905664
	O3507	O	0.561752	-0.209184	0.870821
	O3508	O	0.505502	-0.209006	0.819759
	O3509	O	0.588675	-0.291568	0.903265
	O3510	O	0.588398	-0.209507	0.868605
	O3511	O	0.645604	-0.209240	0.813006
	O3512	O	0.509670	-0.290837	0.970483
	O3513	O	0.561805	-0.041164	0.870772
	O3514	O	0.505554	-0.040662	0.819625
	O3515	O	0.645687	-0.041325	0.813113
	O3516	O	0.588458	-0.041353	0.868705
	O3517	O	0.645126	-0.290979	0.954067
	O3518	O	0.496700	-0.125070	0.977687
	O3519	O	0.659299	-0.375171	0.809223
	C3520	C	0.622602	-0.286261	0.933548
	C3521	C	0.628370	-0.375295	0.938681
	C3522	C	0.622603	-0.464275	0.933525
	C3523	C	0.611373	-0.464205	0.923408
	C3524	C	0.605604	-0.375246	0.918303
	C3525	C	0.611369	-0.286278	0.923412
	C3526	C	0.593526	-0.375266	0.907271
	C3527	C	0.640458	-0.375226	0.949726
	C3528	C	0.557924	-0.374819	0.911054
	C3529	C	0.546619	-0.374847	0.925064
	C3530	C	0.541196	-0.285862	0.931590
	C3531	C	0.530753	-0.286089	0.944577
	C3532	C	0.525422	-0.375141	0.951226
	C3533	C	0.530812	-0.464178	0.944639
	C3534	C	0.541265	-0.464054	0.931673
	C3535	C	0.514180	-0.374913	0.965204
	C3536	C	0.557044	-0.125256	0.866603
	C3537	C	0.545003	-0.125081	0.855465
	C3538	C	0.539263	-0.035812	0.850317
	C3539	C	0.528062	-0.035812	0.840121
	C3540	C	0.522304	-0.124933	0.835009
	C3541	C	0.528078	-0.214075	0.840056
	C3542	C	0.539288	-0.214190	0.850234
	C3543	C	0.510270	-0.124854	0.823938
	C3544	C	0.593181	-0.125378	0.863899
	C3545	C	0.605355	-0.125113	0.851679
	C3546	C	0.611152	-0.214111	0.845882
	C3547	C	0.622526	-0.214229	0.834826
	C3548	C	0.628431	-0.125154	0.829304
	C3549	C	0.622592	-0.036015	0.834991
	C3550	C	0.611215	-0.036011	0.846034
	C3551	C	0.640774	-0.125115	0.817539
	H3552	H	0.626911	-0.283371	0.830384
	H3553	H	0.606696	-0.283297	0.850113
	H3554	H	0.627010	-0.217715	0.937439
	H3555	H	0.607044	-0.217578	0.919356
	H3556	H	0.575202	-0.374431	0.861940
	H3557	H	0.575967	-0.125379	0.911940
	H3558	H	0.496296	-0.124832	0.964604
	H3559	H	0.658771	-0.374683	0.822361
	H3560	H	0.543678	-0.283143	0.854151
	H3561	H	0.523726	-0.283027	0.836119
	H3562	H	0.526641	-0.217182	0.949559
	H3563	H	0.545206	-0.216860	0.926524
	H3564	H	0.523645	0.033126	0.836220
	H3565	H	0.543653	0.032985	0.854291
	H3566	H	0.545389	-0.532729	0.926637
	H3567	H	0.526810	-0.533492	0.949643
	H3568	H	0.607014	-0.533265	0.919449
	H3569	H	0.627004	-0.533163	0.937462
	H3570	H	0.606837	0.033203	0.850358
	H3571	H	0.627030	0.033040	0.830703
	Al3572	Al	0.575275	0.000371	0.886982
	Al3573	Al	0.575329	0.250005	0.886893
	Al3574	Al	0.491952	0.250159	0.803642
	Al3575	Al	0.491944	-0.000110	0.803539
	O3576	O	0.588802	0.041372	0.903140
	O3577	O	0.575287	0.125146	0.874970
	O3578	O	0.575439	0.374705	0.898876
	O3579	O	0.645203	0.041263	0.954058
	O3580	O	0.562343	0.040584	0.905593
	O3581	O	0.509761	0.041085	0.970576
	O3582	O	0.562540	0.208553	0.905698
	O3583	O	0.561838	0.290426	0.870707
	O3584	O	0.505441	0.291178	0.819866
	O3585	O	0.588836	0.209297	0.903026
	O3586	O	0.588509	0.291153	0.868613
	O3587	O	0.645629	0.290745	0.813009
	O3588	O	0.509739	0.209134	0.970529
	O3589	O	0.561883	0.458637	0.870656
	O3590	O	0.505546	0.459212	0.819692
	O3591	O	0.645696	0.458735	0.813076
	O3592	O	0.588398	0.459165	0.868641
	O3593	O	0.645196	0.209429	0.954111
	O3594	O	0.496618	0.375317	0.977685
	O3595	O	0.659252	0.124967	0.809232
	C3596	C	0.622639	0.214395	0.933594
	C3597	C	0.628392	0.125362	0.938770
	C3598	C	0.622663	0.036249	0.933525
	C3599	C	0.611424	0.036132	0.923427
	C3600	C	0.605641	0.125256	0.918311
	C3601	C	0.611406	0.214276	0.923473
	C3602	C	0.593561	0.125202	0.907304
	C3603	C	0.640440	0.125543	0.949870
	C3604	C	0.557950	0.124996	0.911013
	C3605	C	0.546653	0.125258	0.924931
	C3606	C	0.541248	0.214292	0.931463
	C3607	C	0.530786	0.214332	0.944416
	C3608	C	0.525418	0.125242	0.951046
	C3609	C	0.530841	0.036302	0.944529
	C3610	C	0.541303	0.036327	0.931592
	C3611	C	0.514189	0.124991	0.965153
	C3612	C	0.557095	0.374713	0.866511
	C3613	C	0.545044	0.374524	0.855500
	C3614	C	0.539368	0.463838	0.850151
	C3615	C	0.528177	0.464071	0.839980
	C3616	C	0.522316	0.374959	0.834991
	C3617	C	0.528034	0.285698	0.840233
	C3618	C	0.539240	0.285483	0.850390
	C3619	C	0.510249	0.375154	0.823971
	C3620	C	0.593217	0.375284	0.863894
	C3621	C	0.605395	0.375320	0.851656
	C3622	C	0.611194	0.286058	0.845959
	C3623	C	0.622566	0.285991	0.834927
	C3624	C	0.628441	0.374927	0.829319
	C3625	C	0.622618	0.464059	0.834922
	C3626	C	0.611251	0.464246	0.845949
	C3627	C	0.640810	0.374906	0.817557
	H3628	H	0.626992	0.216889	0.830626
	H3629	H	0.606745	0.216871	0.850260
	H3630	H	0.627001	0.283459	0.937554
	H3631	H	0.607073	0.283189	0.919512
	H3632	H	0.575271	0.125050	0.861964
	H3633	H	0.575596	0.374213	0.911961
	H3634	H	0.496281	0.375695	0.964609
	H3635	H	0.658457	0.125734	0.822336
	H3636	H	0.543597	0.216596	0.854406
	H3637	H	0.523606	0.216858	0.836248
	H3638	H	0.526733	0.283141	0.949413
	H3639	H	0.545304	0.283280	0.926312
	H3640	H	0.523906	0.533147	0.835874
	H3641	H	0.543793	0.532524	0.854002
	H3642	H	0.545371	-0.032587	0.926629
	H3643	H	0.526817	-0.032805	0.949663
	H3644	H	0.607099	-0.032923	0.919380
	H3645	H	0.627015	-0.032854	0.937548
	H3646	H	0.606848	0.533135	0.850239
	H3647	H	0.627059	0.533024	0.830583
	Al3648	Al	0.741905	-0.500019	0.053726
	Al3649	Al	0.741878	-0.249864	0.053689
	Al3650	Al	0.658630	-0.249900	-0.029720
	Al3651	Al	0.658688	-0.499982	-0.029788
	O3652	O	0.755339	-0.458587	0.069957
	O3653	O	0.741779	-0.374859	0.041765
	O3654	O	0.742043	-0.124904	0.065618
	O3655	O	0.811848	-0.459186	0.120702
	O3656	O	0.728986	-0.459097	0.072369
	O3657	O	0.676286	-0.459057	0.137300
	O3658	O	0.729017	-0.290890	0.072417
	O3659	O	0.728467	-0.209339	0.037516
	O3660	O	0.672081	-0.209046	-0.013506
	O3661	O	0.755389	-0.290316	0.069890
	O3662	O	0.755003	-0.208895	0.035291
	O3663	O	0.812230	-0.209033	-0.020096
	O3664	O	0.676329	-0.290911	0.137316
	O3665	O	0.728424	-0.041195	0.037483
	O3666	O	0.672097	-0.040814	-0.013541
	O3667	O	0.812318	-0.041223	-0.020033
	O3668	O	0.754989	-0.040985	0.035316
	O3669	O	0.811883	-0.291029	0.120735
	O3670	O	0.663322	-0.124858	0.144448
	O3671	O	0.825855	-0.375006	-0.024014
	C3672	C	0.789330	-0.285783	0.100278
	C3673	C	0.795034	-0.375010	0.105495
	C3674	C	0.789243	-0.464023	0.100370
	C3675	C	0.777974	-0.463980	0.090256
	C3676	C	0.772247	-0.374667	0.085078
	C3677	C	0.778065	-0.285642	0.090164
	C3678	C	0.760128	-0.374512	0.074130
	C3679	C	0.807116	-0.374876	0.116481
	C3680	C	0.724547	-0.374964	0.077761
	C3681	C	0.713254	-0.374788	0.091773
	C3682	C	0.707931	-0.285721	0.098463
	C3683	C	0.697455	-0.285750	0.111369
	C3684	C	0.692030	-0.375021	0.117880
	C3685	C	0.697348	-0.464065	0.111146
	C3686	C	0.707827	-0.463976	0.098249
	C3687	C	0.680782	-0.374952	0.131901
	C3688	C	0.723695	-0.125309	0.033278
	C3689	C	0.711704	-0.125200	0.022081
	C3690	C	0.705959	-0.036005	0.016940
	C3691	C	0.694743	-0.036138	0.006761
	C3692	C	0.688961	-0.125194	0.001615
	C3693	C	0.694746	-0.214266	0.006681
	C3694	C	0.705973	-0.214295	0.016837
	C3695	C	0.676875	-0.125037	-0.009376
	C3696	C	0.759780	-0.124993	0.030585
	C3697	C	0.771953	-0.124706	0.018400
	C3698	C	0.777746	-0.213452	0.012753
	C3699	C	0.789173	-0.213491	0.001761
	C3700	C	0.795050	-0.124809	-0.003798
	C3701	C	0.789205	-0.036073	0.001736
	C3702	C	0.777790	-0.036003	0.012763
	C3703	C	0.807378	-0.125086	-0.015591
	H3704	H	0.793510	-0.282628	-0.002552
	H3705	H	0.773348	-0.282427	0.017037
	H3706	H	0.793731	-0.216787	0.104210
	H3707	H	0.773737	-0.216186	0.086178
	H3708	H	0.741921	-0.375614	0.028799
	H3709	H	0.742192	-0.125308	0.078667
	H3710	H	0.662861	-0.124410	0.131489
	H3711	H	0.825068	-0.375219	-0.010885
	H3712	H	0.710351	-0.283080	0.020708
	H3713	H	0.690414	-0.283398	0.002662
	H3714	H	0.693425	-0.216664	0.116500
	H3715	H	0.711992	-0.216606	0.093368
	H3716	H	0.690395	0.032666	0.002805
	H3717	H	0.710280	0.032824	0.020916
	H3718	H	0.711769	-0.533065	0.093015
	H3719	H	0.693276	-0.533025	0.116100
	H3720	H	0.773623	-0.532906	0.086349
	H3721	H	0.793539	-0.533280	0.104339
	H3722	H	0.773403	0.033042	0.017060
	H3723	H	0.793609	0.032721	-0.002599
	Al3724	Al	0.741867	-0.000133	0.053683
	Al3725	Al	0.741911	0.249957	0.053750
	Al3726	Al	0.658676	0.250254	-0.029689
	Al3727	Al	0.658592	-0.000267	-0.029778
	O3728	O	0.755351	0.040869	0.069855
	O3729	O	0.741696	0.125144	0.041778
	O3730	O	0.742089	0.375258	0.065685
	O3731	O	0.811761	0.041173	0.120827
	O3732	O	0.728973	0.041453	0.072364
	O3733	O	0.676329	0.041297	0.137377
	O3734	O	0.728964	0.209455	0.072350
	O3735	O	0.728534	0.291244	0.037449
	O3736	O	0.672093	0.291211	-0.013402
	O3737	O	0.755406	0.209024	0.069866
	O3738	O	0.755113	0.291200	0.035502
	O3739	O	0.812363	0.291633	-0.020143
	O3740	O	0.676335	0.209381	0.137438
	O3741	O	0.728462	0.459273	0.037492
	O3742	O	0.672141	0.459209	-0.013515
	O3743	O	0.812278	0.459608	-0.020240
	O3744	O	0.755153	0.459073	0.035513
	O3745	O	0.811800	0.209145	0.120747
	O3746	O	0.663389	0.375351	0.144607
	O3747	O	0.825878	0.125349	-0.024049
	C3748	C	0.789281	0.214280	0.100204
	C3749	C	0.795004	0.125213	0.105441
	C3750	C	0.789263	0.035990	0.100291
	C3751	C	0.778032	0.035962	0.090140
	C3752	C	0.772268	0.124874	0.084962
	C3753	C	0.778045	0.214010	0.090063
	C3754	C	0.760138	0.124682	0.074081
	C3755	C	0.807056	0.125221	0.116555
	C3756	C	0.724503	0.125330	0.077700
	C3757	C	0.713235	0.125497	0.091756
	C3758	C	0.707886	0.214563	0.098438
	C3759	C	0.697426	0.214361	0.111401
	C3760	C	0.692067	0.125299	0.118031
	C3761	C	0.697424	0.036283	0.111402
	C3762	C	0.707875	0.036426	0.098426
	C3763	C	0.680785	0.125026	0.132015
	C3764	C	0.723741	0.375117	0.033245
	C3765	C	0.711714	0.375046	0.022092
	C3766	C	0.705897	0.464041	0.017109
	C3767	C	0.694664	0.464038	0.006981
	C3768	C	0.688960	0.375165	0.001732
	C3769	C	0.694714	0.286165	0.006849
	C3770	C	0.705959	0.286108	0.016936
	C3771	C	0.676899	0.375256	-0.009323
	C3772	C	0.759951	0.374945	0.030838
	C3773	C	0.772070	0.375109	0.018516
	C3774	C	0.777891	0.286312	0.012825
	C3775	C	0.789283	0.286446	0.001757
	C3776	C	0.795092	0.375309	-0.003898
	C3777	C	0.789168	0.464086	0.001593
	C3778	C	0.777806	0.464012	0.012699
	C3779	C	0.807463	0.375487	-0.015626
	H3780	H	0.793725	0.217410	-0.002500
	H3781	H	0.773548	0.217411	0.017334
	H3782	H	0.793633	0.283371	0.104197
	H3783	H	0.773673	0.283018	0.086145
	H3784	H	0.741498	0.124830	0.028710
	H3785	H	0.742364	0.375025	0.078786
	H3786	H	0.663145	0.376184	0.131481
	H3787	H	0.825156	0.125339	-0.010920
	H3788	H	0.710262	0.216997	0.020897
	H3789	H	0.690353	0.217295	0.002811
	H3790	H	0.693344	0.283279	0.116454
	H3791	H	0.711900	0.283802	0.093372
	H3792	H	0.690288	0.532877	0.003122
	H3793	H	0.710197	0.532857	0.021217
	H3794	H	0.711886	-0.032320	0.093344
	H3795	H	0.693386	-0.032668	0.116409
	H3796	H	0.773679	-0.033183	0.086236
	H3797	H	0.793601	-0.032836	0.104310
	H3798	H	0.773425	0.532804	0.017033
	H3799	H	0.793501	0.532966	-0.002797
	Al3800	Al	0.747062	-0.499994	0.239610
	Al3801	Al	0.746915	-0.249770	0.239711
	Al3802	Al	0.663683	-0.249963	0.156347
	Al3803	Al	0.663680	-0.499931	0.156502
	O3804	O	0.760605	-0.458468	0.255559
	O3805	O	0.746618	-0.374831	0.227795
	O3806	O	0.747283	-0.124981	0.251551
	O3807	O	0.816747	-0.458788	0.307067
	O3808	O	0.734325	-0.459204	0.258682
	O3809	O	0.682146	-0.459130	0.324699
	O3810	O	0.734238	-0.290967	0.258729
	O3811	O	0.733322	-0.208611	0.223855
	O3812	O	0.677302	-0.208906	0.172186
	O3813	O	0.760557	-0.290340	0.255601
	O3814	O	0.759572	-0.208739	0.220625
	O3815	O	0.812327	-0.209163	0.155681
	O3816	O	0.682271	-0.291035	0.324674
	O3817	O	0.733348	-0.040468	0.223891
	O3818	O	0.677260	-0.040760	0.172270
	O3819	O	0.812347	-0.041143	0.155706
	O3820	O	0.759693	-0.040836	0.220650
	O3821	O	0.816748	-0.290672	0.307054
	O3822	O	0.669260	-0.124839	0.331826
	O3823	O	0.825532	-0.375182	0.148932
	C3824	C	0.794296	-0.285533	0.286367
	C3825	C	0.799992	-0.374666	0.291598
	C3826	C	0.794284	-0.463600	0.286311
	C3827	C	0.783097	-0.463628	0.276051
	C3828	C	0.777362	-0.374411	0.270932
	C3829	C	0.783112	-0.285468	0.276094
	C3830	C	0.765324	-0.374404	0.259792
	C3831	C	0.811987	-0.374573	0.302852
	C3832	C	0.729897	-0.375166	0.264174
	C3833	C	0.718749	-0.375397	0.278391
	C3834	C	0.713447	-0.286190	0.285123
	C3835	C	0.703102	-0.286295	0.298267
	C3836	C	0.697795	-0.375514	0.305050
	C3837	C	0.703158	-0.464483	0.298383
	C3838	C	0.713503	-0.464464	0.285245
	C3839	C	0.686591	-0.375174	0.319202
	C3840	C	0.728623	-0.124549	0.219590
	C3841	C	0.716632	-0.124631	0.208375
	C3842	C	0.710950	-0.035448	0.203034
	C3843	C	0.699787	-0.035345	0.192715
	C3844	C	0.694044	-0.124606	0.187580
	C3845	C	0.699707	-0.213853	0.192887
	C3846	C	0.710895	-0.213900	0.203196
	C3847	C	0.682008	-0.124998	0.176425
	C3848	C	0.764085	-0.124795	0.215244
	C3849	C	0.775347	-0.125143	0.201182
	C3850	C	0.780731	-0.214087	0.194621
	C3851	C	0.791213	-0.213872	0.181708
	C3852	C	0.796565	-0.124980	0.175038
	C3853	C	0.791198	-0.035998	0.181627
	C3854	C	0.780723	-0.036093	0.194554
	C3855	C	0.807856	-0.125048	0.161040
	H3856	H	0.795277	-0.282899	0.176679
	H3857	H	0.776673	-0.283145	0.199729
	H3858	H	0.798630	-0.216745	0.290414
	H3859	H	0.778791	-0.216445	0.272064
	H3860	H	0.746067	-0.375013	0.214788
	H3861	H	0.747722	-0.125340	0.264623
	H3862	H	0.668745	-0.124065	0.318807
	H3863	H	0.825882	-0.375180	0.162020
	H3864	H	0.715195	-0.283014	0.207263
	H3865	H	0.695393	-0.282906	0.188891
	H3866	H	0.699084	-0.217365	0.303418
	H3867	H	0.717429	-0.217128	0.279889
	H3868	H	0.695495	0.033741	0.188640
	H3869	H	0.715267	0.033608	0.207017
	H3870	H	0.717519	-0.533534	0.280091
	H3871	H	0.699159	-0.533590	0.303606
	H3872	H	0.778770	-0.532773	0.271996
	H3873	H	0.798591	-0.532533	0.290375
	H3874	H	0.776692	0.032977	0.199622
	H3875	H	0.795226	0.032971	0.176511
	Al3876	Al	0.747022	-0.000027	0.239712
	Al3877	Al	0.747098	0.250116	0.239641
	Al3878	Al	0.663658	0.250087	0.156367
	Al3879	Al	0.663631	-0.000127	0.156360
	O3880	O	0.760680	0.040817	0.255470
	O3881	O	0.746718	0.124978	0.227765
	O3882	O	0.747458	0.375137	0.251536
	O3883	O	0.816754	0.040585	0.307159
	O3884	O	0.734395	0.041342	0.258809
	O3885	O	0.682288	0.041106	0.324593
	O3886	O	0.734454	0.209399	0.258763
	O3887	O	0.733447	0.290792	0.223757
	O3888	O	0.677273	0.290790	0.172324
	O3889	O	0.760738	0.208958	0.255463
	O3890	O	0.759743	0.291469	0.220675
	O3891	O	0.812361	0.291070	0.155554
	O3892	O	0.682203	0.209208	0.324613
	O3893	O	0.733461	0.458973	0.223713
	O3894	O	0.677334	0.458995	0.172304
	O3895	O	0.812419	0.459051	0.155602
	O3896	O	0.759764	0.459445	0.220555
	O3897	O	0.816724	0.208621	0.307165
	O3898	O	0.669220	0.374910	0.331887
	O3899	O	0.825403	0.125140	0.148920
	C3900	C	0.794293	0.213566	0.286470
	C3901	C	0.800047	0.124386	0.291648
	C3902	C	0.794343	0.035118	0.286380
	C3903	C	0.783182	0.035141	0.276056
	C3904	C	0.777432	0.124358	0.270855
	C3905	C	0.783141	0.213544	0.276156
	C3906	C	0.765469	0.124725	0.259621
	C3907	C	0.812018	0.124523	0.302905
	C3908	C	0.730019	0.125464	0.264242
	C3909	C	0.718790	0.125676	0.278374
	C3910	C	0.713460	0.214871	0.285032
	C3911	C	0.703081	0.214832	0.298159
	C3912	C	0.697808	0.125781	0.304930
	C3913	C	0.703092	0.036565	0.298190
	C3914	C	0.713467	0.036745	0.285079
	C3915	C	0.686653	0.125156	0.319165
	C3916	C	0.728715	0.374948	0.219480
	C3917	C	0.716707	0.374955	0.208308
	C3918	C	0.710986	0.464034	0.203050
	C3919	C	0.699785	0.464109	0.192825
	C3920	C	0.694059	0.374858	0.187645
	C3921	C	0.699801	0.285816	0.192884
	C3922	C	0.710985	0.285874	0.203129
	C3923	C	0.682003	0.374793	0.176542
	C3924	C	0.764189	0.375325	0.215242
	C3925	C	0.775458	0.375114	0.201171
	C3926	C	0.780810	0.285911	0.194545
	C3927	C	0.791276	0.285847	0.181562
	C3928	C	0.796633	0.374931	0.174929
	C3929	C	0.791262	0.464231	0.181513
	C3930	C	0.780795	0.464200	0.194485
	C3931	C	0.807930	0.375179	0.160936
	H3932	H	0.795316	0.216663	0.176536
	H3933	H	0.776762	0.216763	0.199554
	H3934	H	0.798583	0.282572	0.290503
	H3935	H	0.778804	0.282707	0.272094
	H3936	H	0.746465	0.124100	0.214750
	H3937	H	0.747698	0.375188	0.264625
	H3938	H	0.668993	0.375188	0.318817
	H3939	H	0.825608	0.125889	0.161926
	H3940	H	0.715287	0.216691	0.207143
	H3941	H	0.695432	0.216880	0.188957
	H3942	H	0.699096	0.283869	0.303246
	H3943	H	0.717466	0.283907	0.279906
	H3944	H	0.695399	0.533019	0.188836
	H3945	H	0.715321	0.532995	0.207070
	H3946	H	0.717457	-0.032403	0.279983
	H3947	H	0.699114	-0.032619	0.303262
	H3948	H	0.778909	-0.033708	0.271911
	H3949	H	0.798698	-0.033668	0.290402
	H3950	H	0.776750	0.533530	0.199509
	H3951	H	0.795262	0.533342	0.176458
	Al3952	Al	0.752894	-0.500093	0.426916
	Al3953	Al	0.752979	-0.249911	0.426993
	Al3954	Al	0.669628	-0.249893	0.343758
	Al3955	Al	0.669526	-0.499961	0.343755
	O3956	O	0.766537	-0.459555	0.442861
	O3957	O	0.752664	-0.374790	0.415073
	O3958	O	0.753351	-0.125068	0.438844
	O3959	O	0.822737	-0.459170	0.494358
	O3960	O	0.740300	-0.458791	0.446086
	O3961	O	0.687683	-0.459294	0.511054
	O3962	O	0.740341	-0.290635	0.446091
	O3963	O	0.739326	-0.208890	0.411175
	O3964	O	0.683271	-0.209339	0.359529
	O3965	O	0.766531	-0.291287	0.442884
	O3966	O	0.765629	-0.208892	0.407885
	O3967	O	0.817778	-0.208868	0.342045
	O3968	O	0.687607	-0.291104	0.511053
	O3969	O	0.739321	-0.040945	0.411142
	O3970	O	0.683229	-0.041142	0.359581
	O3971	O	0.817807	-0.040925	0.342013
	O3972	O	0.765639	-0.040599	0.407987
	O3973	O	0.822626	-0.291105	0.494529
	O3974	O	0.674473	-0.125158	0.517798
	O3975	O	0.830672	-0.375055	0.334782
	C3976	C	0.800102	-0.286308	0.473999
	C3977	C	0.805883	-0.375397	0.479085
	C3978	C	0.800187	-0.464406	0.473787
	C3979	C	0.788989	-0.464330	0.463525
	C3980	C	0.783239	-0.375246	0.458371
	C3981	C	0.788914	-0.286171	0.463697
	C3982	C	0.771260	-0.375372	0.447134
	C3983	C	0.817938	-0.375147	0.490220
	C3984	C	0.735895	-0.374679	0.451497
	C3985	C	0.724649	-0.374497	0.465580
	C3986	C	0.719272	-0.285456	0.472155
	C3987	C	0.708778	-0.285618	0.485114
	C3988	C	0.703466	-0.374695	0.491817
	C3989	C	0.708823	-0.463652	0.485184
	C3990	C	0.719293	-0.463557	0.472216
	C3991	C	0.692148	-0.374897	0.505730
	C3992	C	0.734613	-0.124930	0.406909
	C3993	C	0.722575	-0.124915	0.395786
	C3994	C	0.716867	-0.036112	0.390549
	C3995	C	0.705714	-0.036201	0.380219
	C3996	C	0.700013	-0.125191	0.374966
	C3997	C	0.705714	-0.214128	0.380226
	C3998	C	0.716868	-0.214028	0.390545
	C3999	C	0.687999	-0.124994	0.363812
	C4000	C	0.770052	-0.124540	0.402510
	C4001	C	0.781227	-0.124467	0.388305
	C4002	C	0.786523	-0.213485	0.381564
	C4003	C	0.796879	-0.213750	0.368427
	C4004	C	0.802238	-0.124722	0.361779
	C4005	C	0.796915	-0.035612	0.368460
	C4006	C	0.786527	-0.035332	0.381574
	C4007	C	0.813368	-0.124612	0.347473
	H4008	H	0.800792	-0.282672	0.363200
	H4009	H	0.782449	-0.282403	0.386586
	H4010	H	0.804362	-0.217678	0.478138
	H4011	H	0.784583	-0.217122	0.459700
	H4012	H	0.752526	-0.374614	0.401977
	H4013	H	0.753533	-0.125512	0.451943
	H4014	H	0.673978	-0.124692	0.504678
	H4015	H	0.830928	-0.375247	0.347917
	H4016	H	0.721203	-0.282906	0.394471
	H4017	H	0.701341	-0.282908	0.376285
	H4018	H	0.704674	-0.216722	0.490108
	H4019	H	0.723249	-0.216217	0.467079
	H4020	H	0.701361	0.032908	0.376267
	H4021	H	0.721226	0.032877	0.394512
	H4022	H	0.723327	-0.532584	0.467149
	H4023	H	0.704805	-0.532872	0.490131
	H4024	H	0.784716	-0.533389	0.459376
	H4025	H	0.804507	-0.533262	0.477728
	H4026	H	0.782520	0.033740	0.386601
	H4027	H	0.800897	0.033496	0.363250
	Al4028	Al	0.752957	0.000158	0.427031
	Al4029	Al	0.752891	0.249924	0.427050
	Al4030	Al	0.669559	0.249926	0.343739
	Al4031	Al	0.669616	-0.000042	0.343764
	O4032	O	0.766561	0.041171	0.442924
	O4033	O	0.752471	0.125069	0.415158
	O4034	O	0.753258	0.375175	0.438920
	O4035	O	0.822654	0.040936	0.494487
	O4036	O	0.740292	0.040609	0.446072
	O4037	O	0.687593	0.040672	0.510958
	O4038	O	0.740274	0.208655	0.446103
	O4039	O	0.739269	0.290691	0.411028
	O4040	O	0.683144	0.290956	0.359598
	O4041	O	0.766517	0.209314	0.442917
	O4042	O	0.765561	0.290978	0.407997
	O4043	O	0.817747	0.290514	0.342115
	O4044	O	0.687597	0.208933	0.510932
	O4045	O	0.739298	0.459045	0.411099
	O4046	O	0.683212	0.459182	0.359516
	O4047	O	0.817720	0.458763	0.342121
	O4048	O	0.765573	0.458969	0.407951
	O4049	O	0.822592	0.209060	0.494607
	O4050	O	0.674653	0.374920	0.517885
	O4051	O	0.830840	0.124841	0.334829
	C4052	C	0.800114	0.213996	0.473960
	C4053	C	0.805888	0.125052	0.479090
	C4054	C	0.800179	0.036055	0.473778
	C4055	C	0.789030	0.036036	0.463472
	C4056	C	0.783281	0.125172	0.458322
	C4057	C	0.788969	0.214206	0.463664
	C4058	C	0.771283	0.125274	0.447108
	C4059	C	0.817885	0.125063	0.490285
	C4060	C	0.735868	0.124630	0.451555
	C4061	C	0.724650	0.124637	0.465614
	C4062	C	0.719291	0.213819	0.472228
	C4063	C	0.708803	0.213687	0.485160
	C4064	C	0.703422	0.124589	0.491720
	C4065	C	0.708784	0.035570	0.485133
	C4066	C	0.719260	0.035604	0.472193
	C4067	C	0.692095	0.124774	0.505660
	C4068	C	0.734535	0.375133	0.406821
	C4069	C	0.722507	0.375072	0.395728
	C4070	C	0.716827	0.464380	0.390410
	C4071	C	0.705629	0.464425	0.380169
	C4072	C	0.699882	0.375227	0.374999
	C4073	C	0.705540	0.286068	0.380378
	C4074	C	0.716728	0.285955	0.390638
	C4075	C	0.687889	0.374971	0.363850
	C4076	C	0.769976	0.374750	0.402547
	C4077	C	0.781138	0.374622	0.388299
	C4078	C	0.786435	0.285415	0.381621
	C4079	C	0.796810	0.285380	0.368505
	C4080	C	0.802147	0.374368	0.361786
	C4081	C	0.796894	0.463367	0.368569
	C4082	C	0.786523	0.463532	0.381667
	C4083	C	0.813313	0.374728	0.347568
	H4084	H	0.800811	0.216223	0.363402
	H4085	H	0.782447	0.216584	0.386768
	H4086	H	0.804403	0.282935	0.478091
	H4087	H	0.784612	0.283032	0.459620
	H4088	H	0.751826	0.125344	0.402169
	H4089	H	0.753629	0.374944	0.452009
	H4090	H	0.674390	0.375109	0.504800
	H4091	H	0.831311	0.124578	0.347933
	H4092	H	0.720988	0.216914	0.394780
	H4093	H	0.701179	0.217082	0.376452
	H4094	H	0.704785	0.282894	0.490229
	H4095	H	0.723359	0.282789	0.467191
	H4096	H	0.701314	0.533514	0.376078
	H4097	H	0.721192	0.533465	0.394376
	H4098	H	0.723274	-0.033453	0.467181
	H4099	H	0.704730	-0.033336	0.490220
	H4100	H	0.784771	-0.032900	0.459286
	H4101	H	0.804533	-0.032587	0.477793
	H4102	H	0.782592	0.532631	0.386908
	H4103	H	0.800966	0.532762	0.363553
	Al4104	Al	0.758109	-0.500208	0.613097
	Al4105	Al	0.758005	-0.250126	0.613110
	Al4106	Al	0.674751	-0.250154	0.529740
	Al4107	Al	0.674750	-0.499932	0.529776
	O4108	O	0.771588	-0.459156	0.629206
	O4109	O	0.757840	-0.375002	0.601111
	O4110	O	0.758165	-0.125203	0.625051
	O4111	O	0.827909	-0.458731	0.680355
	O4112	O	0.744924	-0.459414	0.631318
	O4113	O	0.687735	-0.459496	0.686973
	O4114	O	0.744865	-0.291072	0.631335
	O4115	O	0.744560	-0.208838	0.596842
	O4116	O	0.688211	-0.208872	0.545937
	O4117	O	0.771469	-0.291065	0.629364
	O4118	O	0.770945	-0.209074	0.594562
	O4119	O	0.823627	-0.209172	0.529444
	O4120	O	0.687700	-0.291347	0.686961
	O4121	O	0.744566	-0.040966	0.597007
	O4122	O	0.688075	-0.040867	0.545932
	O4123	O	0.823552	-0.040983	0.529351
	O4124	O	0.770949	-0.041227	0.594448
	O4125	O	0.827863	-0.290727	0.680345
	O4126	O	0.674162	-0.125232	0.690844
	O4127	O	0.836748	-0.375288	0.522203
	C4128	C	0.805298	-0.286135	0.659957
	C4129	C	0.811047	-0.375197	0.665122
	C4130	C	0.805328	-0.464200	0.659855
	C4131	C	0.794084	-0.464297	0.649709
	C4132	C	0.788324	-0.375183	0.644581
	C4133	C	0.794072	-0.286174	0.649793
	C4134	C	0.776254	-0.375040	0.633530
	C4135	C	0.823145	-0.374881	0.676126
	C4136	C	0.740088	-0.375359	0.636024
	C4137	C	0.727968	-0.375439	0.648309
	C4138	C	0.722135	-0.286314	0.653946
	C4139	C	0.710729	-0.286109	0.664997
	C4140	C	0.704909	-0.375284	0.670619
	C4141	C	0.710766	-0.464426	0.665015
	C4142	C	0.722153	-0.464500	0.653935
	C4143	C	0.692583	-0.375388	0.682461
	C4144	C	0.739804	-0.124696	0.592757
	C4145	C	0.727734	-0.124406	0.581708
	C4146	C	0.721939	-0.035272	0.576631
	C4147	C	0.710720	-0.035213	0.566456
	C4148	C	0.704978	-0.124337	0.561208
	C4149	C	0.710768	-0.213436	0.566272
	C4150	C	0.721992	-0.213361	0.576425
	C4151	C	0.692889	-0.124672	0.550183
	C4152	C	0.775408	-0.125468	0.589099
	C4153	C	0.786699	-0.124953	0.575101
	C4154	C	0.792154	-0.213886	0.568607
	C4155	C	0.802609	-0.213975	0.555598
	C4156	C	0.807888	-0.125044	0.548820
	C4157	C	0.802428	-0.036120	0.555357
	C4158	C	0.791980	-0.035992	0.568367
	C4159	C	0.819149	-0.125093	0.534815
	H4160	H	0.806707	-0.283101	0.550740
	H4161	H	0.788191	-0.282826	0.573777
	H4162	H	0.809647	-0.217032	0.663884
	H4163	H	0.789678	-0.217295	0.645816
	H4164	H	0.757472	-0.374929	0.588069
	H4165	H	0.758163	-0.125610	0.638058
	H4166	H	0.674855	-0.125195	0.677732
	H4167	H	0.837271	-0.375243	0.535228
	H4168	H	0.726356	-0.282550	0.580354
	H4169	H	0.706444	-0.282482	0.562274
	H4170	H	0.706316	-0.217093	0.669257
	H4171	H	0.726523	-0.217170	0.649578
	H4172	H	0.706297	0.033690	0.562594
	H4173	H	0.726259	0.033717	0.580683
	H4174	H	0.726527	-0.533446	0.649617
	H4175	H	0.706362	-0.533614	0.669308
	H4176	H	0.789769	-0.533598	0.645726
	H4177	H	0.809731	-0.533036	0.663812
	H4178	H	0.787868	0.033133	0.573308
	H4179	H	0.806408	0.032918	0.550216
	Al4180	Al	0.758088	-0.000200	0.613200
	Al4181	Al	0.758201	0.249799	0.613134
	Al4182	Al	0.674753	0.249999	0.529790
	Al4183	Al	0.674684	0.000042	0.529664
	O4184	O	0.771572	0.040840	0.629292
	O4185	O	0.757959	0.124783	0.601231
	O4186	O	0.758230	0.374880	0.625017
	O4187	O	0.828013	0.041436	0.680356
	O4188	O	0.744916	0.040959	0.631439
	O4189	O	0.687670	0.041340	0.686812
	O4190	O	0.744993	0.209280	0.631480
	O4191	O	0.744618	0.290511	0.596898
	O4192	O	0.688240	0.290413	0.545928
	O4193	O	0.771612	0.208864	0.629333
	O4194	O	0.771075	0.290894	0.594451
	O4195	O	0.823657	0.290945	0.529443
	O4196	O	0.687707	0.209189	0.686944
	O4197	O	0.744614	0.458467	0.596957
	O4198	O	0.688171	0.458581	0.546006
	O4199	O	0.823692	0.459083	0.529377
	O4200	O	0.770976	0.458650	0.594392
	O4201	O	0.827928	0.209440	0.680396
	O4202	O	0.674155	0.374994	0.690887
	O4203	O	0.836623	0.124729	0.522268
	C4204	C	0.805335	0.214055	0.660060
	C4205	C	0.811114	0.124919	0.665123
	C4206	C	0.805387	0.035807	0.659906
	C4207	C	0.794139	0.035807	0.649769
	C4208	C	0.788394	0.124809	0.644623
	C4209	C	0.794087	0.213851	0.649908
	C4210	C	0.776356	0.124680	0.633548
	C4211	C	0.823207	0.125259	0.676154
	C4212	C	0.740151	0.125069	0.636073
	C4213	C	0.728001	0.125263	0.648279
	C4214	C	0.722114	0.214408	0.653769
	C4215	C	0.710734	0.214381	0.664830
	C4216	C	0.704888	0.125415	0.670505
	C4217	C	0.710820	0.036290	0.665062
	C4218	C	0.722192	0.036368	0.653991
	C4219	C	0.692577	0.125400	0.682372
	C4220	C	0.739815	0.374427	0.592756
	C4221	C	0.727696	0.374628	0.581772
	C4222	C	0.721906	0.463536	0.576758
	C4223	C	0.710664	0.463760	0.566610
	C4224	C	0.704940	0.374668	0.561386
	C4225	C	0.710737	0.285725	0.566359
	C4226	C	0.721983	0.285772	0.576471
	C4227	C	0.692937	0.374637	0.550196
	C4228	C	0.775468	0.374916	0.589051
	C4229	C	0.786760	0.375232	0.575024
	C4230	C	0.792142	0.286489	0.568382
	C4231	C	0.802617	0.286423	0.555451
	C4232	C	0.807958	0.375344	0.548857
	C4233	C	0.802538	0.464179	0.555403
	C4234	C	0.792066	0.464319	0.568340
	C4235	C	0.819229	0.375225	0.534817
	H4236	H	0.806651	0.217542	0.550414
	H4237	H	0.788131	0.217445	0.573393
	H4238	H	0.809651	0.283050	0.664128
	H4239	H	0.789701	0.283248	0.646098
	H4240	H	0.757613	0.124557	0.588176
	H4241	H	0.758054	0.374647	0.638065
	H4242	H	0.674846	0.375150	0.677697
	H4243	H	0.836895	0.124519	0.535204
	H4244	H	0.726410	0.216938	0.580217
	H4245	H	0.706464	0.216675	0.562206
	H4246	H	0.706225	0.283027	0.668997
	H4247	H	0.726479	0.283414	0.649417
	H4248	H	0.706316	0.532594	0.562660
	H4249	H	0.726262	0.532367	0.580712
	H4250	H	0.726673	-0.032529	0.649836
	H4251	H	0.706438	-0.032606	0.669468
	H4252	H	0.789788	-0.033109	0.645819
	H4253	H	0.809713	-0.033222	0.663836
	H4254	H	0.787964	0.533349	0.573307
	H4255	H	0.806581	0.533217	0.550340
	Al4256	Al	0.756801	-0.500089	0.786246
	Al4257	Al	0.756759	-0.249347	0.786332
	Al4258	Al	0.673451	-0.250509	0.703078
	Al4259	Al	0.673447	-0.499478	0.703082
	O4260	O	0.769286	-0.459017	0.804085
	O4261	O	0.757524	-0.374872	0.774199
	O4262	O	0.755526	-0.124779	0.798334
	O4263	O	0.827625	-0.459590	0.851207
	O4264	O	0.741324	-0.458872	0.800064
	O4265	O	0.675417	-0.459071	0.783131
	O4266	O	0.741313	-0.290646	0.800164
	O4267	O	0.744342	-0.209105	0.767914
	O4268	O	0.685986	-0.208701	0.720801
	O4269	O	0.769260	-0.290958	0.804062
	O4270	O	0.771012	-0.208765	0.770231
	O4271	O	0.828259	-0.209133	0.714657
	O4272	O	0.675382	-0.290590	0.783199
	O4273	O	0.744383	-0.041000	0.767847
	O4274	O	0.685995	-0.040675	0.720678
	O4275	O	0.828231	-0.040797	0.714594
	O4276	O	0.771061	-0.040935	0.770182
	O4277	O	0.827683	-0.291526	0.851200
	O4278	O	0.661079	-0.124934	0.785111
	O4279	O	0.841536	-0.375017	0.708403
	C4280	C	0.804531	-0.285295	0.831591
	C4281	C	0.810533	-0.374913	0.836309
	C4282	C	0.804479	-0.464477	0.831668
	C4283	C	0.792773	-0.464326	0.822674
	C4284	C	0.786744	-0.374764	0.818064
	C4285	C	0.792805	-0.285195	0.822612
	C4286	C	0.774219	-0.374720	0.807990
	C4287	C	0.822843	-0.375442	0.847038
	C4288	C	0.735641	-0.374777	0.799108
	C4289	C	0.721434	-0.374847	0.796153
	C4290	C	0.714790	-0.284904	0.793934
	C4291	C	0.701875	-0.284877	0.789518
	C4292	C	0.695235	-0.374822	0.787243
	C4293	C	0.701859	-0.464681	0.789484
	C4294	C	0.714793	-0.464801	0.793899
	C4295	C	0.681039	-0.374730	0.784159
	C4296	C	0.739577	-0.124956	0.763667
	C4297	C	0.727248	-0.124922	0.752982
	C4298	C	0.721276	-0.035285	0.748203
	C4299	C	0.709557	-0.035349	0.739214
	C4300	C	0.703470	-0.124694	0.734738
	C4301	C	0.709501	-0.214280	0.739368
	C4302	C	0.721203	-0.214539	0.748370
	C4303	C	0.690930	-0.124641	0.724625
	C4304	C	0.775930	-0.125049	0.765712
	C4305	C	0.788289	-0.124952	0.753926
	C4306	C	0.794128	-0.214033	0.748376
	C4307	C	0.805532	-0.214021	0.737296
	C4308	C	0.811325	-0.124945	0.731627
	C4309	C	0.805491	-0.035888	0.737207
	C4310	C	0.794080	-0.035824	0.748291
	C4311	C	0.823496	-0.124815	0.719369
	H4312	H	0.809940	-0.283007	0.733130
	H4313	H	0.789774	-0.282936	0.752700
	H4314	H	0.809062	-0.215396	0.835090
	H4315	H	0.788282	-0.215445	0.819182
	H4316	H	0.758205	-0.374810	0.761098
	H4317	H	0.753652	-0.124830	0.811185
	H4318	H	0.662834	-0.125083	0.772167
	H4319	H	0.841458	-0.375780	0.721529
	H4320	H	0.725684	-0.284326	0.751843
	H4321	H	0.704962	-0.283902	0.735850
	H4322	H	0.696912	-0.214660	0.787792
	H4323	H	0.719761	-0.214999	0.795682
	H4324	H	0.705088	0.034193	0.735592
	H4325	H	0.725819	0.034565	0.751618
	H4326	H	0.719793	-0.534611	0.795603
	H4327	H	0.696843	-0.534756	0.787731
	H4328	H	0.788190	-0.534239	0.819317
	H4329	H	0.808930	-0.534626	0.835210
	H4330	H	0.789692	0.033282	0.752531
	H4331	H	0.809900	0.033330	0.732959
	Al4332	Al	0.756771	-0.000255	0.786314
	Al4333	Al	0.756733	0.250797	0.786236
	Al4334	Al	0.673471	0.249427	0.703053
	Al4335	Al	0.673419	0.000652	0.702935
	O4336	O	0.769284	0.040833	0.804054
	O4337	O	0.757519	0.125255	0.774157
	O4338	O	0.755569	0.375212	0.798281
	O4339	O	0.827568	0.040685	0.851378
	O4340	O	0.741328	0.041299	0.800023
	O4341	O	0.675434	0.040870	0.783230
	O4342	O	0.741317	0.209609	0.800066
	O4343	O	0.744323	0.291288	0.767892
	O4344	O	0.685943	0.290606	0.720813
	O4345	O	0.769271	0.209116	0.803979
	O4346	O	0.771015	0.290854	0.770091
	O4347	O	0.828268	0.290726	0.714763
	O4348	O	0.675460	0.209262	0.783299
	O4349	O	0.744335	0.459338	0.767835
	O4350	O	0.685919	0.458743	0.720954
	O4351	O	0.828288	0.459061	0.714681
	O4352	O	0.771017	0.458798	0.770131
	O4353	O	0.827673	0.208737	0.851169
	O4354	O	0.661195	0.374952	0.784998
	O4355	O	0.841644	0.125076	0.708468
	C4356	C	0.804504	0.214721	0.831664
	C4357	C	0.810467	0.124844	0.836458
	C4358	C	0.804456	0.035238	0.831729
	C4359	C	0.792729	0.035350	0.822689
	C4360	C	0.786712	0.125076	0.818096
	C4361	C	0.792774	0.214711	0.822644
	C4362	C	0.774188	0.125100	0.807955
	C4363	C	0.822834	0.124811	0.847072
	C4364	C	0.735676	0.125416	0.799088
	C4365	C	0.721479	0.125256	0.796025
	C4366	C	0.714834	0.215156	0.793806
	C4367	C	0.701908	0.215003	0.789399
	C4368	C	0.695283	0.124996	0.787188
	C4369	C	0.701939	0.035053	0.789469
	C4370	C	0.714852	0.035268	0.793855
	C4371	C	0.681084	0.124949	0.784242
	C4372	C	0.739521	0.375127	0.763691
	C4373	C	0.727204	0.375028	0.752963
	C4374	C	0.721178	0.464561	0.748292
	C4375	C	0.709442	0.464283	0.739320
	C4376	C	0.703411	0.374512	0.734786
	C4377	C	0.709517	0.284980	0.739222
	C4378	C	0.721251	0.285337	0.748190
	C4379	C	0.690870	0.374648	0.724732
	C4380	C	0.775878	0.374793	0.765607
	C4381	C	0.788298	0.374792	0.753948
	C4382	C	0.794205	0.285795	0.748422
	C4383	C	0.805610	0.285889	0.737401
	C4384	C	0.811368	0.375136	0.731660
	C4385	C	0.805540	0.464083	0.737354
	C4386	C	0.794139	0.463901	0.748341
	C4387	C	0.823515	0.374787	0.719445
	H4388	H	0.810039	0.216821	0.733096
	H4389	H	0.789792	0.216846	0.752729
	H4390	H	0.809015	0.284458	0.835092
	H4391	H	0.788282	0.284386	0.819130
	H4392	H	0.758335	0.125308	0.760983
	H4393	H	0.753601	0.375196	0.811189
	H4394	H	0.663066	0.374501	0.772161
	H4395	H	0.841611	0.124604	0.721494
	H4396	H	0.725787	0.215240	0.751706
	H4397	H	0.705032	0.215030	0.735712
	H4398	H	0.696940	0.284887	0.787503
	H4399	H	0.719826	0.284799	0.795532
	H4400	H	0.704858	0.533925	0.735876
	H4401	H	0.725604	0.534552	0.751837
	H4402	H	0.719822	-0.034562	0.795573
	H4403	H	0.696984	-0.035176	0.787733
	H4404	H	0.788200	-0.034168	0.819204
	H4405	H	0.808950	-0.034721	0.835233
	H4406	H	0.789685	0.533195	0.752548
	H4407	H	0.809928	0.533221	0.732977
	Al4408	Al	0.743273	-0.499722	0.880387
	Al4409	Al	0.743274	-0.250396	0.880321
	Al4410	Al	0.659921	-0.249629	0.797095
	Al4411	Al	0.659977	-0.500504	0.796939
	O4412	O	0.755749	-0.458895	0.898710
	O4413	O	0.744428	-0.374882	0.868361
	O4414	O	0.742601	-0.124848	0.892460
	O4415	O	0.814132	-0.458543	0.945910
	O4416	O	0.728999	-0.458874	0.896467
	O4417	O	0.671778	-0.458820	0.951924
	O4418	O	0.729022	-0.290739	0.896430
	O4419	O	0.730789	-0.208811	0.862552
	O4420	O	0.672407	-0.209223	0.815487
	O4421	O	0.755683	-0.290905	0.898781
	O4422	O	0.758769	-0.209267	0.866436
	O4423	O	0.824606	-0.209459	0.883517
	O4424	O	0.671801	-0.290492	0.951999
	O4425	O	0.730743	-0.040396	0.862626
	O4426	O	0.672278	-0.041105	0.815684
	O4427	O	0.824631	-0.041218	0.883578
	O4428	O	0.758750	-0.040791	0.866347
	O4429	O	0.814041	-0.290626	0.946045
	O4430	O	0.658415	-0.125231	0.958310
	O4431	O	0.838833	-0.374772	0.881649
	C4432	C	0.790547	-0.285002	0.927499
	C4433	C	0.796614	-0.374581	0.932008
	C4434	C	0.790587	-0.464132	0.927469
	C4435	C	0.778851	-0.464288	0.918446
	C4436	C	0.772841	-0.374825	0.913687
	C4437	C	0.778821	-0.285121	0.918459
	C4438	C	0.760515	-0.374726	0.902995
	C4439	C	0.809155	-0.374558	0.942135
	C4440	C	0.724118	-0.374674	0.900877
	C4441	C	0.711779	-0.374746	0.912747
	C4442	C	0.705954	-0.285523	0.918437
	C4443	C	0.694583	-0.285462	0.929460
	C4444	C	0.688699	-0.374647	0.934998
	C4445	C	0.694492	-0.463824	0.929263
	C4446	C	0.705880	-0.463887	0.918257
	C4447	C	0.676570	-0.374730	0.947272
	C4448	C	0.725846	-0.124765	0.858644
	C4449	C	0.713328	-0.124755	0.848499
	C4450	C	0.707157	-0.035284	0.844273
	C4451	C	0.695418	-0.035325	0.835323
	C4452	C	0.689533	-0.124822	0.830302
	C4453	C	0.695607	-0.214307	0.834829
	C4454	C	0.707354	-0.214324	0.843765
	C4455	C	0.677156	-0.125030	0.819762
	C4456	C	0.764406	-0.125032	0.867421
	C4457	C	0.778592	-0.124985	0.870475
	C4458	C	0.785223	-0.214898	0.872689
	C4459	C	0.798128	-0.214896	0.877164
	C4460	C	0.804753	-0.125047	0.879484
	C4461	C	0.798105	-0.035038	0.877278
	C4462	C	0.785202	-0.035135	0.872786
	C4463	C	0.818961	-0.125276	0.882532
	H4464	H	0.803148	-0.284755	0.878926
	H4465	H	0.780268	-0.285002	0.870971
	H4466	H	0.795046	-0.215241	0.931089
	H4467	H	0.774334	-0.215177	0.914939
	H4468	H	0.746285	-0.374998	0.855500
	H4469	H	0.741904	-0.124638	0.905602
	H4470	H	0.658293	-0.125144	0.945327
	H4471	H	0.836840	-0.374351	0.894543
	H4472	H	0.711915	-0.283959	0.847111
	H4473	H	0.691185	-0.284166	0.831201
	H4474	H	0.690213	-0.216449	0.933903
	H4475	H	0.710454	-0.216548	0.914232
	H4476	H	0.690848	0.034549	0.832011
	H4477	H	0.711573	0.034312	0.848040
	H4478	H	0.710261	-0.532936	0.913881
	H4479	H	0.690044	-0.533110	0.933527
	H4480	H	0.774395	-0.534007	0.914981
	H4481	H	0.795089	-0.533910	0.930963
	H4482	H	0.780185	0.034792	0.871111
	H4483	H	0.803042	0.034937	0.879087
	Al4484	Al	0.743323	0.000342	0.880294
	Al4485	Al	0.743280	0.249533	0.880447
	Al4486	Al	0.659996	0.250474	0.797061
	Al4487	Al	0.659946	-0.000469	0.797081
	O4488	O	0.755682	0.040535	0.898746
	O4489	O	0.744471	0.125334	0.868357
	O4490	O	0.742620	0.375197	0.892571
	O4491	O	0.814018	0.040833	0.946155
	O4492	O	0.728988	0.040870	0.896293
	O4493	O	0.671727	0.041080	0.951847
	O4494	O	0.728951	0.208737	0.896454
	O4495	O	0.730778	0.291033	0.862625
	O4496	O	0.672336	0.291287	0.815621
	O4497	O	0.755700	0.208413	0.898831
	O4498	O	0.758767	0.290956	0.866650
	O4499	O	0.824587	0.290633	0.883392
	O4500	O	0.671846	0.209052	0.952033
	O4501	O	0.730771	0.459271	0.862605
	O4502	O	0.672359	0.459295	0.815470
	O4503	O	0.824624	0.458875	0.883563
	O4504	O	0.758741	0.459235	0.866518
	O4505	O	0.814125	0.208896	0.945885
	O4506	O	0.658530	0.374799	0.958394
	O4507	O	0.838859	0.124762	0.881681
	C4508	C	0.790599	0.214360	0.927330
	C4509	C	0.796616	0.124918	0.931974
	C4510	C	0.790579	0.035331	0.927390
	C4511	C	0.778866	0.035226	0.918379
	C4512	C	0.772845	0.124524	0.913711
	C4513	C	0.778887	0.214184	0.918323
	C4514	C	0.760508	0.124608	0.903037
	C4515	C	0.809129	0.124797	0.942134
	C4516	C	0.724099	0.124718	0.900838
	C4517	C	0.711774	0.124549	0.912618
	C4518	C	0.705925	0.213692	0.918214
	C4519	C	0.694566	0.213624	0.929290
	C4520	C	0.688717	0.124684	0.935005
	C4521	C	0.694539	0.035650	0.929348
	C4522	C	0.705904	0.035701	0.918269
	C4523	C	0.676584	0.125047	0.947267
	C4524	C	0.725812	0.375121	0.858750
	C4525	C	0.713313	0.375340	0.848601
	C4526	C	0.707209	0.464871	0.844134
	C4527	C	0.695498	0.465010	0.835137
	C4528	C	0.689510	0.375348	0.830375
	C4529	C	0.695577	0.285799	0.834978
	C4530	C	0.707278	0.285647	0.843954
	C4531	C	0.677168	0.375431	0.819765
	C4532	C	0.764390	0.375111	0.867586
	C4533	C	0.778588	0.375281	0.870633
	C4534	C	0.785212	0.285364	0.872809
	C4535	C	0.798120	0.285316	0.877226
	C4536	C	0.804757	0.375137	0.879538
	C4537	C	0.798135	0.465090	0.877348
	C4538	C	0.785229	0.465152	0.872913
	C4539	C	0.818982	0.374837	0.882489
	H4540	H	0.803098	0.215138	0.879001
	H4541	H	0.780191	0.215539	0.871136
	H4542	H	0.795108	0.284485	0.930702
	H4543	H	0.774417	0.284174	0.914736
	H4544	H	0.746324	0.125816	0.855573
	H4545	H	0.741767	0.375412	0.905617
	H4546	H	0.658551	0.374598	0.945343
	H4547	H	0.837091	0.124805	0.894540
	H4548	H	0.711863	0.216014	0.847365
	H4549	H	0.691100	0.215894	0.831348
	H4550	H	0.690164	0.282728	0.933630
	H4551	H	0.710336	0.282717	0.913870
	H4552	H	0.690987	0.534855	0.831654
	H4553	H	0.711724	0.534328	0.847689
	H4554	H	0.710347	-0.033545	0.913902
	H4555	H	0.690128	-0.033328	0.933747
	H4556	H	0.774397	-0.034839	0.914840
	H4557	H	0.795094	-0.034338	0.930868
	H4558	H	0.780270	0.535136	0.871327
	H4559	H	0.803136	0.534908	0.879187
	Al4560	Al	0.909895	-0.499459	0.047181
	Al4561	Al	0.909957	-0.250689	0.046972
	Al4562	Al	0.826615	-0.249461	-0.036083
	Al4563	Al	0.826611	-0.500455	-0.036278
	O4564	O	0.922241	-0.458808	0.065703
	O4565	O	0.911158	-0.375072	0.035086
	O4566	O	0.909290	-0.125091	0.059096
	O4567	O	0.980762	-0.458832	0.112668
	O4568	O	0.895609	-0.458708	0.063201
	O4569	O	0.838419	-0.458711	0.118595
	O4570	O	0.895743	-0.290797	0.063229
	O4571	O	0.897419	-0.209487	0.029263
	O4572	O	0.838930	-0.208936	-0.017545
	O4573	O	0.922353	-0.290917	0.065419
	O4574	O	0.925458	-0.208913	0.033201
	O4575	O	0.991254	-0.209600	0.050462
	O4576	O	0.838461	-0.290531	0.118726
	O4577	O	0.897427	-0.041240	0.029361
	O4578	O	0.838943	-0.040727	-0.017553
	O4579	O	0.991335	-0.041476	0.050468
	O4580	O	0.925443	-0.040513	0.033247
	O4581	O	0.980727	-0.290854	0.112665
	O4582	O	0.825092	-0.125263	0.125093
	O4583	O	1.005507	-0.375221	0.048627
	C4584	C	0.957233	-0.285249	0.094050
	C4585	C	0.963244	-0.374804	0.098668
	C4586	C	0.957114	-0.464387	0.094317
	C4587	C	0.945386	-0.464577	0.085332
	C4588	C	0.939471	-0.375028	0.080430
	C4589	C	0.945516	-0.285457	0.085060
	C4590	C	0.927134	-0.374805	0.069768
	C4591	C	0.975824	-0.374865	0.108756
	C4592	C	0.890801	-0.374457	0.067713
	C4593	C	0.878431	-0.374629	0.079442
	C4594	C	0.872624	-0.285620	0.085173
	C4595	C	0.861229	-0.285426	0.096157
	C4596	C	0.855355	-0.374424	0.101679
	C4597	C	0.861138	-0.463343	0.095923
	C4598	C	0.872522	-0.463560	0.084929
	C4599	C	0.843216	-0.374578	0.113931
	C4600	C	0.892492	-0.125180	0.025429
	C4601	C	0.879976	-0.125212	0.015329
	C4602	C	0.873918	-0.035464	0.010768
	C4603	C	0.862194	-0.035377	0.001844
	C4604	C	0.856119	-0.125020	-0.002789
	C4605	C	0.862112	-0.214804	0.001985
	C4606	C	0.873841	-0.214761	0.010908
	C4607	C	0.843758	-0.124976	-0.013348
	C4608	C	0.931082	-0.124703	0.034261
	C4609	C	0.945264	-0.125015	0.037383
	C4610	C	0.951876	-0.214689	0.039598
	C4611	C	0.964804	-0.214990	0.044031
	C4612	C	0.971431	-0.125251	0.046336
	C4613	C	0.964788	-0.035581	0.044236
	C4614	C	0.951878	-0.035404	0.039772
	C4615	C	0.985624	-0.125385	0.049510
	H4616	H	0.969797	-0.284977	0.045689
	H4617	H	0.946902	-0.284536	0.037727
	H4618	H	0.961831	-0.215413	0.097416
	H4619	H	0.941057	-0.215610	0.081470
	H4620	H	0.913281	-0.375508	0.022221
	H4621	H	0.908586	-0.125062	0.072268
	H4622	H	0.825069	-0.125261	0.112055
	H4623	H	1.003478	-0.375237	0.061525
	H4624	H	0.878369	-0.284324	0.014417
	H4625	H	0.857605	-0.284771	-0.001474
	H4626	H	0.856922	-0.216547	0.100598
	H4627	H	0.877110	-0.216702	0.080943
	H4628	H	0.857688	0.034225	-0.001744
	H4629	H	0.878509	0.034347	0.014163
	H4630	H	0.876892	-0.532439	0.080578
	H4631	H	0.856689	-0.532034	0.100227
	H4632	H	0.940861	-0.534450	0.081936
	H4633	H	0.961593	-0.534127	0.097892
	H4634	H	0.946928	0.034629	0.038042
	H4635	H	0.969764	0.034461	0.046018
	Al4636	Al	0.909949	0.000729	0.047026
	Al4637	Al	0.909930	0.249652	0.047229
	Al4638	Al	0.826608	0.250618	-0.036313
	Al4639	Al	0.826564	-0.000472	-0.036073
	O4640	O	0.922316	0.040687	0.065557
	O4641	O	0.911048	0.125337	0.035112
	O4642	O	0.909115	0.374938	0.059338
	O4643	O	0.980722	0.040792	0.112665
	O4644	O	0.895625	0.040971	0.063098
	O4645	O	0.838337	0.040546	0.118653
	O4646	O	0.895653	0.208611	0.063295
	O4647	O	0.897351	0.291013	0.029541
	O4648	O	0.839064	0.291122	-0.017927
	O4649	O	0.922319	0.208590	0.065619
	O4650	O	0.925312	0.291116	0.033375
	O4651	O	0.991243	0.290331	0.050318
	O4652	O	0.838394	0.208508	0.118625
	O4653	O	0.897404	0.459160	0.029339
	O4654	O	0.839038	0.459106	-0.017836
	O4655	O	0.991214	0.458489	0.050409
	O4656	O	0.925406	0.459077	0.033480
	O4657	O	0.980864	0.208825	0.112411
	O4658	O	0.825169	0.375303	0.124962
	O4659	O	1.005516	0.124603	0.048413
	C4660	C	0.957306	0.214144	0.093865
	C4661	C	0.963320	0.124619	0.098560
	C4662	C	0.957178	0.034975	0.094217
	C4663	C	0.945424	0.035058	0.085291
	C4664	C	0.939473	0.124627	0.080451
	C4665	C	0.945562	0.214156	0.084943
	C4666	C	0.927157	0.124697	0.069781
	C4667	C	0.975856	0.124827	0.108684
	C4668	C	0.890755	0.124689	0.067667
	C4669	C	0.878390	0.124462	0.079433
	C4670	C	0.872544	0.213255	0.085115
	C4671	C	0.861137	0.213137	0.096101
	C4672	C	0.855291	0.124235	0.101707
	C4673	C	0.861103	0.035371	0.096004
	C4674	C	0.872506	0.035517	0.084985
	C4675	C	0.843147	0.124473	0.113875
	C4676	C	0.892411	0.374966	0.025610
	C4677	C	0.879868	0.375137	0.015528
	C4678	C	0.873872	0.464614	0.010835
	C4679	C	0.862181	0.464410	0.001771
	C4680	C	0.856111	0.374825	-0.002791
	C4681	C	0.862051	0.285221	0.002061
	C4682	C	0.873756	0.285560	0.011115
	C4683	C	0.843861	0.374858	-0.013633
	C4684	C	0.931024	0.374859	0.034394
	C4685	C	0.945206	0.374778	0.037410
	C4686	C	0.951835	0.284908	0.039520
	C4687	C	0.964767	0.284726	0.043948
	C4688	C	0.971412	0.374373	0.046244
	C4689	C	0.964811	0.464305	0.043949
	C4690	C	0.951886	0.464462	0.039551
	C4691	C	0.985606	0.374409	0.049388
	H4692	H	0.969738	0.214812	0.045657
	H4693	H	0.946874	0.215147	0.037669
	H4694	H	0.961845	0.283943	0.097270
	H4695	H	0.941099	0.283925	0.081357
	H4696	H	0.912780	0.126352	0.022217
	H4697	H	0.908019	0.375224	0.072424
	H4698	H	0.824943	0.375279	0.111924
	H4699	H	1.003739	0.124493	0.061297
	H4700	H	0.878239	0.215940	0.014698
	H4701	H	0.857550	0.215492	-0.001387
	H4702	H	0.856734	0.282160	0.100430
	H4703	H	0.876930	0.282300	0.080827
	H4704	H	0.857758	0.534429	-0.001885
	H4705	H	0.878448	0.534162	0.014202
	H4706	H	0.876896	-0.033276	0.080525
	H4707	H	0.856697	-0.033675	0.100269
	H4708	H	0.940875	-0.034724	0.081949
	H4709	H	0.961667	-0.034819	0.097849
	H4710	H	0.946942	0.534592	0.037777
	H4711	H	0.969802	0.534243	0.045681
	Al4712	Al	0.908679	-0.499927	0.220301
	Al4713	Al	0.908606	-0.250174	0.220312
	Al4714	Al	0.825258	-0.250088	0.137045
	Al4715	Al	0.825308	-0.499668	0.136883
	O4716	O	0.922138	-0.458724	0.236435
	O4717	O	0.908496	-0.375058	0.208339
	O4718	O	0.908757	-0.124934	0.232221
	O4719	O	0.978464	-0.459077	0.287412
	O4720	O	0.895772	-0.459156	0.238967
	O4721	O	0.843036	-0.459449	0.303769
	O4722	O	0.895696	-0.291046	0.238914
	O4723	O	0.895161	-0.208789	0.204073
	O4724	O	0.838731	-0.208940	0.153163
	O4725	O	0.922109	-0.290703	0.236500
	O4726	O	0.921714	-0.209042	0.201948
	O4727	O	0.978994	-0.208911	0.146482
	O4728	O	0.843014	-0.291177	0.303807
	O4729	O	0.895204	-0.040460	0.204060
	O4730	O	0.838722	-0.040838	0.153170
	O4731	O	0.978988	-0.040901	0.146522
	O4732	O	0.921746	-0.041003	0.201944
	O4733	O	0.978540	-0.290826	0.287426
	O4734	O	0.830137	-0.124869	0.311053
	O4735	O	0.992553	-0.374823	0.142474
	C4736	C	0.955975	-0.285440	0.266944
	C4737	C	0.961753	-0.374590	0.271979
	C4738	C	0.956019	-0.463692	0.266769
	C4739	C	0.944781	-0.463577	0.256638
	C4740	C	0.938995	-0.374393	0.251620
	C4741	C	0.944732	-0.285288	0.256830
	C4742	C	0.926915	-0.374769	0.240579
	C4743	C	0.973788	-0.374800	0.283150
	C4744	C	0.891282	-0.375346	0.244304
	C4745	C	0.879994	-0.375198	0.258314
	C4746	C	0.874611	-0.286055	0.264940
	C4747	C	0.864132	-0.285958	0.277857
	C4748	C	0.858734	-0.375148	0.284403
	C4749	C	0.864088	-0.464295	0.277749
	C4750	C	0.874574	-0.464377	0.264846
	C4751	C	0.847493	-0.375389	0.298467
	C4752	C	0.890473	-0.124716	0.199748
	C4753	C	0.878443	-0.124467	0.188620
	C4754	C	0.872717	-0.035430	0.183321
	C4755	C	0.861460	-0.035426	0.173217
	C4756	C	0.855639	-0.124711	0.168234
	C4757	C	0.861361	-0.213727	0.173541
	C4758	C	0.872612	-0.213811	0.183620
	C4759	C	0.843540	-0.124808	0.157258
	C4760	C	0.926512	-0.125155	0.197283
	C4761	C	0.938664	-0.125542	0.184922
	C4762	C	0.944474	-0.214460	0.179181
	C4763	C	0.955878	-0.214242	0.168206
	C4764	C	0.961749	-0.125033	0.162721
	C4765	C	0.955869	-0.036066	0.168293
	C4766	C	0.944469	-0.036412	0.179292
	C4767	C	0.974119	-0.124850	0.150959
	H4768	H	0.960264	-0.283061	0.163851
	H4769	H	0.940096	-0.283577	0.183508
	H4770	H	0.960326	-0.216426	0.270879
	H4771	H	0.940371	-0.216175	0.252941
	H4772	H	0.908483	-0.375107	0.195259
	H4773	H	0.908967	-0.124913	0.245318
	H4774	H	0.829825	-0.125201	0.297970
	H4775	H	0.991869	-0.375547	0.155573
	H4776	H	0.876905	-0.282996	0.187684
	H4777	H	0.856989	-0.282640	0.169619
	H4778	H	0.860091	-0.217028	0.282985
	H4779	H	0.878697	-0.217068	0.259909
	H4780	H	0.857172	0.033652	0.169083
	H4781	H	0.877129	0.033628	0.187174
	H4782	H	0.878586	-0.533390	0.259781
	H4783	H	0.860017	-0.533234	0.282823
	H4784	H	0.940458	-0.532696	0.252602
	H4785	H	0.960410	-0.532785	0.270634
	H4786	H	0.940086	0.032717	0.183730
	H4787	H	0.960254	0.032941	0.163989
	Al4788	Al	0.908626	0.000051	0.220287
	Al4789	Al	0.908666	0.249936	0.220379
	Al4790	Al	0.825310	0.250033	0.136932
	Al4791	Al	0.825199	-0.000004	0.136977
	O4792	O	0.922113	0.040617	0.236581
	O4793	O	0.908580	0.125082	0.208409
	O4794	O	0.908901	0.375121	0.232318
	O4795	O	0.978542	0.040662	0.287480
	O4796	O	0.895737	0.040944	0.238913
	O4797	O	0.843046	0.041116	0.303843
	O4798	O	0.895798	0.209313	0.239037
	O4799	O	0.895187	0.290846	0.204191
	O4800	O	0.838755	0.290740	0.153120
	O4801	O	0.922160	0.208969	0.236463
	O4802	O	0.921838	0.290851	0.202031
	O4803	O	0.978972	0.291251	0.146277
	O4804	O	0.842968	0.209332	0.303805
	O4805	O	0.895234	0.459015	0.204099
	O4806	O	0.838876	0.459158	0.152971
	O4807	O	0.979063	0.459310	0.146454
	O4808	O	0.921863	0.459034	0.202094
	O4809	O	0.978578	0.208707	0.287398
	O4810	O	0.829961	0.375079	0.311097
	O4811	O	0.992525	0.125194	0.142478
	C4812	C	0.956084	0.213749	0.266782
	C4813	C	0.961778	0.124754	0.272052
	C4814	C	0.956014	0.035770	0.266901
	C4815	C	0.944768	0.035734	0.256783
	C4816	C	0.939024	0.124745	0.251608
	C4817	C	0.944851	0.213717	0.256633
	C4818	C	0.926921	0.124754	0.240684
	C4819	C	0.973782	0.124721	0.283218
	C4820	C	0.891278	0.125129	0.244246
	C4821	C	0.879989	0.125437	0.258279
	C4822	C	0.874597	0.214582	0.264887
	C4823	C	0.864136	0.214552	0.277823
	C4824	C	0.858754	0.125411	0.284411
	C4825	C	0.864135	0.036353	0.277755
	C4826	C	0.874600	0.036214	0.264835
	C4827	C	0.847471	0.125433	0.298475
	C4828	C	0.890467	0.374912	0.199977
	C4829	C	0.878387	0.374694	0.188824
	C4830	C	0.872703	0.463719	0.183532
	C4831	C	0.861472	0.463887	0.173347
	C4832	C	0.855643	0.374796	0.168320
	C4833	C	0.861331	0.285699	0.173606
	C4834	C	0.872573	0.285596	0.183781
	C4835	C	0.843553	0.375105	0.157246
	C4836	C	0.926604	0.374832	0.197340
	C4837	C	0.938728	0.375167	0.185003
	C4838	C	0.944547	0.285915	0.179291
	C4839	C	0.955916	0.285994	0.168207
	C4840	C	0.961790	0.375240	0.162658
	C4841	C	0.955957	0.464435	0.168321
	C4842	C	0.944604	0.464381	0.179422
	C4843	C	0.974100	0.375178	0.150780
	H4844	H	0.960266	0.216989	0.163792
	H4845	H	0.940141	0.216563	0.183571
	H4846	H	0.960461	0.282880	0.270709
	H4847	H	0.940537	0.282516	0.252560
	H4848	H	0.908508	0.124943	0.195381
	H4849	H	0.909149	0.374958	0.245407
	H4850	H	0.829778	0.375431	0.297922
	H4851	H	0.991855	0.125039	0.155586
	H4852	H	0.876855	0.216809	0.187933
	H4853	H	0.856922	0.216728	0.169784
	H4854	H	0.860081	0.283752	0.282892
	H4855	H	0.878629	0.283591	0.259838
	H4856	H	0.857178	0.532831	0.169336
	H4857	H	0.877058	0.532661	0.187533
	H4858	H	0.878656	-0.032842	0.259727
	H4859	H	0.860062	-0.032933	0.282757
	H4860	H	0.940383	-0.033178	0.252869
	H4861	H	0.960337	-0.033084	0.270954
	H4862	H	0.940207	0.533565	0.183814
	H4863	H	0.960360	0.533583	0.163988
	Al4864	Al	0.913740	-0.500140	0.406259
	Al4865	Al	0.913753	-0.249757	0.406187
	Al4866	Al	0.830423	-0.250082	0.322951
	Al4867	Al	0.830327	-0.499774	0.322935
	O4868	O	0.927409	-0.459532	0.422084
	O4869	O	0.913490	-0.375312	0.394356
	O4870	O	0.914170	-0.124791	0.418059
	O4871	O	0.983474	-0.458947	0.473662
	O4872	O	0.901168	-0.458721	0.425401
	O4873	O	0.848997	-0.458780	0.491129
	O4874	O	0.901081	-0.290671	0.425247
	O4875	O	0.900095	-0.209343	0.390446
	O4876	O	0.844038	-0.209255	0.338873
	O4877	O	0.927370	-0.291177	0.422201
	O4878	O	0.926474	-0.208780	0.387145
	O4879	O	0.979086	-0.208770	0.322300
	O4880	O	0.848975	-0.290522	0.491265
	O4881	O	0.900107	-0.041279	0.390371
	O4882	O	0.844079	-0.041166	0.338864
	O4883	O	0.979212	-0.040604	0.322283
	O4884	O	0.926402	-0.040421	0.387144
	O4885	O	0.983434	-0.290746	0.473678
	O4886	O	0.835872	-0.125252	0.498548
	O4887	O	0.992110	-0.374985	0.315560
	C4888	C	0.960944	-0.286170	0.453184
	C4889	C	0.966689	-0.375192	0.458325
	C4890	C	0.961036	-0.464398	0.453031
	C4891	C	0.949846	-0.464381	0.442743
	C4892	C	0.944125	-0.375349	0.437546
	C4893	C	0.949767	-0.286241	0.442880
	C4894	C	0.932086	-0.375326	0.426417
	C4895	C	0.978729	-0.375070	0.469425
	C4896	C	0.896701	-0.374640	0.430776
	C4897	C	0.885526	-0.374552	0.444988
	C4898	C	0.880211	-0.285505	0.451649
	C4899	C	0.869835	-0.285658	0.464763
	C4900	C	0.864550	-0.374735	0.471531
	C4901	C	0.869888	-0.463871	0.464906
	C4902	C	0.880255	-0.463578	0.451782
	C4903	C	0.853360	-0.374454	0.485741
	C4904	C	0.895374	-0.125341	0.386170
	C4905	C	0.883356	-0.125346	0.375010
	C4906	C	0.877714	-0.036183	0.369648
	C4907	C	0.866526	-0.036042	0.359384
	C4908	C	0.860771	-0.125185	0.354298
	C4909	C	0.866448	-0.214289	0.359584
	C4910	C	0.877608	-0.214409	0.369897
	C4911	C	0.848774	-0.125190	0.343110
	C4912	C	0.930897	-0.124566	0.381732
	C4913	C	0.942110	-0.124389	0.367733
	C4914	C	0.947483	-0.213411	0.361047
	C4915	C	0.957959	-0.213313	0.348130
	C4916	C	0.963344	-0.124172	0.341534
	C4917	C	0.957976	-0.035214	0.348217
	C4918	C	0.947506	-0.035340	0.361175
	C4919	C	0.974676	-0.124486	0.327618
	H4920	H	0.961993	-0.282144	0.343075
	H4921	H	0.943425	-0.282463	0.366082
	H4922	H	0.965235	-0.217088	0.457276
	H4923	H	0.945405	-0.217348	0.438924
	H4924	H	0.913052	-0.375973	0.381315
	H4925	H	0.914648	-0.124924	0.431099
	H4926	H	0.835328	-0.124937	0.485466
	H4927	H	0.992404	-0.374859	0.328585
	H4928	H	0.881926	-0.283241	0.373927
	H4929	H	0.862104	-0.283377	0.355578
	H4930	H	0.865812	-0.216769	0.469853
	H4931	H	0.884158	-0.216446	0.446500
	H4932	H	0.862254	0.033020	0.355257
	H4933	H	0.882101	0.032758	0.373546
	H4934	H	0.884260	-0.532525	0.446648
	H4935	H	0.865916	-0.532961	0.470082
	H4936	H	0.945532	-0.533261	0.438703
	H4937	H	0.965396	-0.533179	0.457051
	H4938	H	0.943470	0.033445	0.366336
	H4939	H	0.962083	0.033594	0.343203
	Al4940	Al	0.913713	-0.000170	0.406176
	Al4941	Al	0.913636	0.249918	0.406222
	Al4942	Al	0.830363	0.250035	0.322974
	Al4943	Al	0.830446	0.000013	0.322923
	O4944	O	0.927284	0.041225	0.422145
	O4945	O	0.913275	0.124997	0.394335
	O4946	O	0.913977	0.375009	0.418118
	O4947	O	0.983296	0.041138	0.473701
	O4948	O	0.901007	0.040360	0.425273
	O4949	O	0.848900	0.040507	0.491257
	O4950	O	0.901028	0.208312	0.425363
	O4951	O	0.900073	0.291237	0.390383
	O4952	O	0.844021	0.291223	0.338802
	O4953	O	0.927276	0.209324	0.422060
	O4954	O	0.926366	0.290724	0.387267
	O4955	O	0.979122	0.290510	0.322349
	O4956	O	0.848954	0.208493	0.491283
	O4957	O	0.900123	0.459575	0.390323
	O4958	O	0.844032	0.459440	0.338719
	O4959	O	0.979086	0.458531	0.322408
	O4960	O	0.926410	0.458641	0.387198
	O4961	O	0.983338	0.209358	0.473667
	O4962	O	0.835946	0.374712	0.498512
	O4963	O	0.992316	0.124838	0.315479
	C4964	C	0.960915	0.214551	0.452978
	C4965	C	0.966602	0.125380	0.458259
	C4966	C	0.960850	0.036355	0.453097
	C4967	C	0.949699	0.036366	0.442783
	C4968	C	0.944034	0.125474	0.437456
	C4969	C	0.949767	0.214594	0.442654
	C4970	C	0.932008	0.125560	0.426366
	C4971	C	0.978606	0.125401	0.469421
	C4972	C	0.896616	0.124141	0.430789
	C4973	C	0.885485	0.124267	0.445053
	C4974	C	0.880169	0.213390	0.451771
	C4975	C	0.869839	0.213492	0.464920
	C4976	C	0.864497	0.124604	0.471641
	C4977	C	0.869822	0.035631	0.464913
	C4978	C	0.880167	0.035358	0.451796
	C4979	C	0.853333	0.124491	0.485892
	C4980	C	0.895367	0.375550	0.386144
	C4981	C	0.883337	0.375640	0.375017
	C4982	C	0.877667	0.464705	0.369615
	C4983	C	0.866506	0.464435	0.359334
	C4984	C	0.860765	0.375143	0.354179
	C4985	C	0.866456	0.286139	0.359522
	C4986	C	0.877610	0.286490	0.369809
	C4987	C	0.848752	0.375280	0.343004
	C4988	C	0.930811	0.374725	0.381842
	C4989	C	0.942092	0.374357	0.367806
	C4990	C	0.947420	0.285364	0.361149
	C4991	C	0.957913	0.285351	0.348256
	C4992	C	0.963312	0.374336	0.341661
	C4993	C	0.957925	0.463364	0.348247
	C4994	C	0.947431	0.463588	0.361131
	C4995	C	0.974635	0.374582	0.327749
	H4996	H	0.961916	0.216452	0.343152
	H4997	H	0.943345	0.216442	0.366176
	H4998	H	0.965287	0.283468	0.457037
	H4999	H	0.945431	0.283670	0.438652
	H5000	H	0.912862	0.124727	0.381322
	H5001	H	0.914378	0.374337	0.431103
	H5002	H	0.835584	0.374677	0.485412
	H5003	H	0.992843	0.124734	0.328472
	H5004	H	0.881925	0.217657	0.373878
	H5005	H	0.862120	0.217068	0.355548
	H5006	H	0.865864	0.282311	0.470150
	H5007	H	0.884193	0.282276	0.446635
	H5008	H	0.862191	0.533163	0.355182
	H5009	H	0.882024	0.533559	0.373560
	H5010	H	0.884168	-0.033541	0.446695
	H5011	H	0.865867	-0.033424	0.470093
	H5012	H	0.945314	-0.032376	0.438882
	H5013	H	0.965161	-0.032279	0.457193
	H5014	H	0.943375	0.532705	0.366164
	H5015	H	0.961994	0.532644	0.343239
	Al5016	Al	0.919662	-0.500098	0.593745
	Al5017	Al	0.919596	-0.249971	0.593762
	Al5018	Al	0.836285	-0.250326	0.510341
	Al5019	Al	0.836368	-0.500039	0.510287
	O5020	O	0.933283	-0.458899	0.609609
	O5021	O	0.919260	-0.375061	0.581903
	O5022	O	0.919932	-0.124536	0.605602
	O5023	O	0.989347	-0.459043	0.661219
	O5024	O	0.906960	-0.458883	0.612734
	O5025	O	0.854256	-0.458782	0.677658
	O5026	O	0.906895	-0.290918	0.612724
	O5027	O	0.905958	-0.209141	0.577884
	O5028	O	0.849921	-0.209041	0.526336
	O5029	O	0.933246	-0.290649	0.609656
	O5030	O	0.932257	-0.209257	0.574664
	O5031	O	0.984453	-0.209253	0.508652
	O5032	O	0.854292	-0.290660	0.677728
	O5033	O	0.906078	-0.040764	0.577642
	O5034	O	0.849879	-0.040928	0.526210
	O5035	O	0.984376	-0.041303	0.508603
	O5036	O	0.932340	-0.041169	0.574635
	O5037	O	0.989421	-0.290854	0.661059
	O5038	O	0.841257	-0.125203	0.684538
	O5039	O	0.997481	-0.375211	0.501409
	C5040	C	0.966923	-0.285811	0.640481
	C5041	C	0.972662	-0.374959	0.645633
	C5042	C	0.966910	-0.463921	0.640435
	C5043	C	0.955712	-0.463912	0.630197
	C5044	C	0.950025	-0.374723	0.624963
	C5045	C	0.955736	-0.285674	0.630237
	C5046	C	0.937993	-0.374734	0.613842
	C5047	C	0.984658	-0.374974	0.656868
	C5048	C	0.902487	-0.375130	0.618132
	C5049	C	0.891256	-0.374974	0.632257
	C5050	C	0.885836	-0.286232	0.638789
	C5051	C	0.875397	-0.286198	0.651736
	C5052	C	0.870066	-0.374921	0.658431
	C5053	C	0.875425	-0.463775	0.651840
	C5054	C	0.885884	-0.463781	0.638900
	C5055	C	0.858766	-0.374715	0.672409
	C5056	C	0.901267	-0.124940	0.573543
	C5057	C	0.889246	-0.124460	0.562432
	C5058	C	0.883619	-0.035295	0.557033
	C5059	C	0.872423	-0.035338	0.546779
	C5060	C	0.866641	-0.124566	0.541688
	C5061	C	0.872282	-0.213712	0.547069
	C5062	C	0.883478	-0.213497	0.557339
	C5063	C	0.854621	-0.124696	0.530538
	C5064	C	0.936669	-0.125388	0.569140
	C5065	C	0.947817	-0.125562	0.554888
	C5066	C	0.953138	-0.214519	0.548184
	C5067	C	0.963512	-0.214256	0.535018
	C5068	C	0.968816	-0.125188	0.528291
	C5069	C	0.963493	-0.036306	0.535029
	C5070	C	0.953128	-0.036544	0.548191
	C5071	C	0.980014	-0.125426	0.514120
	H5072	H	0.967576	-0.283299	0.530035
	H5073	H	0.949143	-0.283411	0.553293
	H5074	H	0.971219	-0.216944	0.644620
	H5075	H	0.951391	-0.216683	0.626247
	H5076	H	0.918938	-0.375257	0.568923
	H5077	H	0.920108	-0.124226	0.618689
	H5078	H	0.840965	-0.125782	0.671497
	H5079	H	0.997892	-0.374782	0.514462
	H5080	H	0.887748	-0.282492	0.561574
	H5081	H	0.867899	-0.282612	0.543231
	H5082	H	0.871342	-0.217176	0.656732
	H5083	H	0.889836	-0.217412	0.633596
	H5084	H	0.868155	0.033525	0.542616
	H5085	H	0.887996	0.033740	0.560968
	H5086	H	0.889938	-0.532728	0.633837
	H5087	H	0.871381	-0.532437	0.656967
	H5088	H	0.951344	-0.532824	0.626208
	H5089	H	0.971179	-0.532715	0.644557
	H5090	H	0.949110	0.032708	0.553273
	H5091	H	0.967513	0.032922	0.530003
	Al5092	Al	0.919650	-0.000108	0.593589
	Al5093	Al	0.919638	0.250066	0.593692
	Al5094	Al	0.836301	0.249825	0.510432
	Al5095	Al	0.836273	-0.000308	0.510381
	O5096	O	0.933307	0.040934	0.609537
	O5097	O	0.919359	0.125119	0.581761
	O5098	O	0.920005	0.375015	0.605619
	O5099	O	0.989350	0.040865	0.661254
	O5100	O	0.906933	0.041112	0.612622
	O5101	O	0.854429	0.041006	0.677784
	O5102	O	0.906980	0.209021	0.612724
	O5103	O	0.906059	0.290844	0.577846
	O5104	O	0.849915	0.290652	0.526316
	O5105	O	0.933329	0.208946	0.609497
	O5106	O	0.932330	0.291216	0.574634
	O5107	O	0.984338	0.291189	0.508632
	O5108	O	0.854338	0.208708	0.677769
	O5109	O	0.906015	0.459100	0.577852
	O5110	O	0.849981	0.458909	0.526182
	O5111	O	0.984460	0.459140	0.508675
	O5112	O	0.932259	0.459326	0.574595
	O5113	O	0.989448	0.208960	0.661146
	O5114	O	0.841303	0.374900	0.684561
	O5115	O	0.997269	0.124961	0.501412
	C5116	C	0.966971	0.214037	0.640468
	C5117	C	0.972649	0.125043	0.645795
	C5118	C	0.966903	0.036040	0.640653
	C5119	C	0.955741	0.035936	0.630310
	C5120	C	0.950068	0.124933	0.624989
	C5121	C	0.955803	0.214063	0.630113
	C5122	C	0.938063	0.124925	0.613734
	C5123	C	0.984654	0.124960	0.656930
	C5124	C	0.902466	0.125089	0.618003
	C5125	C	0.891234	0.125019	0.632097
	C5126	C	0.885872	0.213869	0.638688
	C5127	C	0.875419	0.213803	0.651662
	C5128	C	0.870074	0.124931	0.658328
	C5129	C	0.875499	0.035908	0.651848
	C5130	C	0.885956	0.036047	0.638885
	C5131	C	0.858829	0.125029	0.672395
	C5132	C	0.901297	0.375028	0.573600
	C5133	C	0.889275	0.374491	0.562456
	C5134	C	0.883603	0.463729	0.557148
	C5135	C	0.872431	0.463812	0.546817
	C5136	C	0.866695	0.374754	0.541658
	C5137	C	0.872314	0.285384	0.547103
	C5138	C	0.883488	0.285195	0.557414
	C5139	C	0.854694	0.374901	0.530477
	C5140	C	0.936704	0.375224	0.569158
	C5141	C	0.947860	0.375621	0.554983
	C5142	C	0.953177	0.286638	0.548251
	C5143	C	0.963504	0.286453	0.535073
	C5144	C	0.968832	0.375393	0.528330
	C5145	C	0.963481	0.464413	0.535014
	C5146	C	0.953128	0.464677	0.548167
	C5147	C	0.980008	0.375328	0.514143
	H5148	H	0.967541	0.217318	0.529977
	H5149	H	0.949201	0.217499	0.553370
	H5150	H	0.971347	0.282932	0.644403
	H5151	H	0.951512	0.282959	0.625999
	H5152	H	0.918971	0.124990	0.568685
	H5153	H	0.920507	0.374569	0.618590
	H5154	H	0.841186	0.374253	0.671490
	H5155	H	0.997513	0.124571	0.514529
	H5156	H	0.887707	0.215936	0.561605
	H5157	H	0.867919	0.216270	0.543211
	H5158	H	0.871369	0.282648	0.656707
	H5159	H	0.889886	0.283241	0.633549
	H5160	H	0.868197	0.532881	0.542684
	H5161	H	0.887963	0.532904	0.561165
	H5162	H	0.890048	-0.032604	0.633868
	H5163	H	0.871546	-0.033203	0.657025
	H5164	H	0.951451	-0.032967	0.626261
	H5165	H	0.971184	-0.033069	0.644662
	H5166	H	0.949071	0.533510	0.553206
	H5167	H	0.967499	0.533279	0.529852
	Al5168	Al	0.924723	-0.500253	0.779809
	Al5169	Al	0.924786	-0.250086	0.779797
	Al5170	Al	0.841428	-0.250011	0.696522
	Al5171	Al	0.841432	-0.499920	0.696465
	O5172	O	0.938191	-0.459108	0.795974
	O5173	O	0.924635	-0.375063	0.767829
	O5174	O	0.924877	-0.124813	0.791569
	O5175	O	0.994571	-0.459294	0.846885
	O5176	O	0.911596	-0.458969	0.798087
	O5177	O	0.854308	-0.458854	0.853610
	O5178	O	0.911651	-0.290965	0.798185
	O5179	O	0.911290	-0.209366	0.763577
	O5180	O	0.854869	-0.208874	0.712744
	O5181	O	0.938213	-0.290994	0.796006
	O5182	O	0.937697	-0.208977	0.761143
	O5183	O	0.990303	-0.209238	0.696061
	O5184	O	0.854404	-0.290763	0.853718
	O5185	O	0.911300	-0.041231	0.763501
	O5186	O	0.854874	-0.040851	0.712647
	O5187	O	0.990380	-0.041131	0.696194
	O5188	O	0.937682	-0.040722	0.761095
	O5189	O	0.994485	-0.291084	0.847003
	O5190	O	0.840782	-0.124872	0.857505
	O5191	O	1.003260	-0.374887	0.688948
	C5192	C	0.971943	-0.286277	0.826726
	C5193	C	0.977699	-0.375420	0.831779
	C5194	C	0.971972	-0.464456	0.826597
	C5195	C	0.960721	-0.464289	0.816466
	C5196	C	0.954978	-0.375165	0.811369
	C5197	C	0.960708	-0.286246	0.816581
	C5198	C	0.942976	-0.375049	0.800209
	C5199	C	0.989767	-0.375077	0.842800
	C5200	C	0.906846	-0.374852	0.802780
	C5201	C	0.894726	-0.374705	0.815154
	C5202	C	0.888917	-0.285648	0.820933
	C5203	C	0.877536	-0.286053	0.832005
	C5204	C	0.871610	-0.375002	0.837464
	C5205	C	0.877399	-0.463773	0.831632
	C5206	C	0.888791	-0.463656	0.820567
	C5207	C	0.859266	-0.374873	0.849217
	C5208	C	0.906536	-0.125406	0.759352
	C5209	C	0.894459	-0.125405	0.748362
	C5210	C	0.888695	-0.036204	0.743258
	C5211	C	0.877455	-0.035968	0.733110
	C5212	C	0.871682	-0.125047	0.727961
	C5213	C	0.877433	-0.214279	0.733062
	C5214	C	0.888645	-0.214554	0.743220
	C5215	C	0.859655	-0.124907	0.716874
	C5216	C	0.942125	-0.124813	0.755699
	C5217	C	0.953402	-0.124877	0.741711
	C5218	C	0.958728	-0.213830	0.735039
	C5219	C	0.969170	-0.213923	0.722070
	C5220	C	0.974591	-0.125039	0.715513
	C5221	C	0.969274	-0.035963	0.722169
	C5222	C	0.958822	-0.035968	0.735143
	C5223	C	0.985863	-0.125125	0.701469
	H5224	H	0.973178	-0.282928	0.716959
	H5225	H	0.954646	-0.282995	0.739919
	H5226	H	0.976248	-0.217260	0.830764
	H5227	H	0.956411	-0.217090	0.812573
	H5228	H	0.924547	-0.375664	0.754761
	H5229	H	0.924712	-0.124937	0.804687
	H5230	H	0.841527	-0.124969	0.844354
	H5231	H	1.003558	-0.374571	0.702051
	H5232	H	0.893002	-0.283789	0.747137
	H5233	H	0.873098	-0.283044	0.729061
	H5234	H	0.873162	-0.217448	0.836451
	H5235	H	0.893286	-0.216619	0.816635
	H5236	H	0.873107	0.033004	0.729098
	H5237	H	0.893054	0.032694	0.747250
	H5238	H	0.893108	-0.532608	0.815956
	H5239	H	0.872920	-0.533034	0.835757
	H5240	H	0.956414	-0.533376	0.812405
	H5241	H	0.976297	-0.533438	0.830607
	H5242	H	0.954800	0.032801	0.740243
	H5243	H	0.973355	0.032993	0.717147
	Al5244	Al	0.924711	-0.000082	0.779734
	Al5245	Al	0.924693	0.249812	0.779720
	Al5246	Al	0.841454	0.249668	0.696500
	Al5247	Al	0.841497	0.000011	0.696402
	O5248	O	0.938127	0.040988	0.795971
	O5249	O	0.924553	0.125085	0.767781
	O5250	O	0.924866	0.374642	0.791665
	O5251	O	0.994543	0.040906	0.846876
	O5252	O	0.911514	0.040707	0.798039
	O5253	O	0.854345	0.040656	0.853615
	O5254	O	0.911610	0.208821	0.798102
	O5255	O	0.911242	0.291114	0.763673
	O5256	O	0.854883	0.290745	0.712697
	O5257	O	0.938199	0.208892	0.795911
	O5258	O	0.937593	0.291014	0.761055
	O5259	O	0.990246	0.291015	0.696064
	O5260	O	0.854357	0.208471	0.853745
	O5261	O	0.911213	0.459062	0.763658
	O5262	O	0.854856	0.459038	0.712646
	O5263	O	0.990312	0.459003	0.696188
	O5264	O	0.937616	0.458947	0.761087
	O5265	O	0.994546	0.208790	0.846998
	O5266	O	0.840814	0.374961	0.857530
	O5267	O	1.003358	0.125073	0.688989
	C5268	C	0.971937	0.213786	0.826593
	C5269	C	0.977678	0.124783	0.831803
	C5270	C	0.971929	0.035747	0.826613
	C5271	C	0.960696	0.035759	0.816465
	C5272	C	0.954929	0.124820	0.811322
	C5273	C	0.960704	0.213832	0.816442
	C5274	C	0.942912	0.124966	0.800174
	C5275	C	0.989752	0.125198	0.842802
	C5276	C	0.906785	0.124855	0.802781
	C5277	C	0.894691	0.125024	0.815148
	C5278	C	0.888888	0.213779	0.820839
	C5279	C	0.877481	0.213776	0.831887
	C5280	C	0.871596	0.124969	0.837420
	C5281	C	0.877430	0.036124	0.831787
	C5282	C	0.888818	0.036258	0.820707
	C5283	C	0.859246	0.124803	0.849236
	C5284	C	0.906467	0.375000	0.759455
	C5285	C	0.894406	0.375097	0.748394
	C5286	C	0.888637	0.464098	0.743304
	C5287	C	0.877393	0.464324	0.733163
	C5288	C	0.871656	0.375254	0.727974
	C5289	C	0.877403	0.286343	0.733131
	C5290	C	0.888648	0.286335	0.743267
	C5291	C	0.859610	0.374766	0.716889
	C5292	C	0.942089	0.375048	0.755684
	C5293	C	0.953360	0.375071	0.741702
	C5294	C	0.958708	0.286243	0.735012
	C5295	C	0.969159	0.286198	0.722064
	C5296	C	0.974575	0.375010	0.715501
	C5297	C	0.969238	0.463954	0.722194
	C5298	C	0.958796	0.463898	0.735132
	C5299	C	0.985839	0.375249	0.701521
	H5300	H	0.973192	0.217321	0.717005
	H5301	H	0.954613	0.217664	0.740116
	H5302	H	0.976304	0.282968	0.830572
	H5303	H	0.956358	0.282699	0.812430
	H5304	H	0.924623	0.124748	0.754672
	H5305	H	0.924804	0.374152	0.804749
	H5306	H	0.841504	0.374604	0.844369
	H5307	H	1.003753	0.124802	0.701989
	H5308	H	0.892965	0.217416	0.747215
	H5309	H	0.873050	0.217617	0.729188
	H5310	H	0.873120	0.282593	0.836162
	H5311	H	0.893302	0.282647	0.816516
	H5312	H	0.873026	0.533234	0.729237
	H5313	H	0.892993	0.533002	0.747306
	H5314	H	0.893136	-0.032538	0.816262
	H5315	H	0.873014	-0.032793	0.836067
	H5316	H	0.956391	-0.033317	0.812433
	H5317	H	0.976293	-0.033423	0.830591
	H5318	H	0.954827	0.532969	0.740282
	H5319	H	0.973352	0.532601	0.717230
	Al5320	Al	0.923377	-0.500618	0.953097
	Al5321	Al	0.923385	-0.249793	0.953121
	Al5322	Al	0.840103	-0.250283	0.869655
	Al5323	Al	0.840084	-0.499376	0.869649
	O5324	O	0.935994	-0.459367	0.970702
	O5325	O	0.924070	-0.375118	0.940980
	O5326	O	0.922218	-0.125155	0.965092
	O5327	O	0.994331	-0.459315	1.018004
	O5328	O	0.907873	-0.459292	0.966799
	O5329	O	0.842044	-0.458823	0.949927
	O5330	O	0.907917	-0.291043	0.966923
	O5331	O	0.911017	-0.208972	0.934602
	O5332	O	0.852657	-0.208799	0.887266
	O5333	O	0.935872	-0.291479	0.970857
	O5334	O	0.937704	-0.209153	0.937131
	O5335	O	0.994868	-0.208784	0.881436
	O5336	O	0.842084	-0.290566	0.950151
	O5337	O	0.910934	-0.040742	0.934704
	O5338	O	0.852660	-0.040583	0.887292
	O5339	O	0.994796	-0.040564	0.881453
	O5340	O	0.937702	-0.041136	0.937084
	O5341	O	0.994253	-0.291313	1.018183
	O5342	O	0.827712	-0.124964	0.951918
	O5343	O	1.008134	-0.375064	0.875159
	C5344	C	0.971161	-0.285663	0.998427
	C5345	C	0.977189	-0.375434	1.003069
	C5346	C	0.971225	-0.465039	0.998173
	C5347	C	0.959536	-0.465072	0.989108
	C5348	C	0.953420	-0.375239	0.984733
	C5349	C	0.959460	-0.285525	0.989344
	C5350	C	0.940890	-0.375359	0.974588
	C5351	C	0.989483	-0.375387	1.013880
	C5352	C	0.902246	-0.375149	0.965922
	C5353	C	0.888071	-0.375077	0.962840
	C5354	C	0.881421	-0.285190	0.960878
	C5355	C	0.868497	-0.285142	0.956515
	C5356	C	0.861899	-0.374919	0.953991
	C5357	C	0.868535	-0.464751	0.956097
	C5358	C	0.881443	-0.464908	0.960483
	C5359	C	0.847693	-0.374739	0.950998
	C5360	C	0.906150	-0.124946	0.930410
	C5361	C	0.893841	-0.125337	0.919718
	C5362	C	0.887895	-0.035817	0.914846
	C5363	C	0.876207	-0.035656	0.905800
	C5364	C	0.870095	-0.125077	0.901323
	C5365	C	0.876097	-0.214716	0.905972
	C5366	C	0.887798	-0.214822	0.915013
	C5367	C	0.857616	-0.124639	0.891206
	C5368	C	0.942563	-0.125110	0.932622
	C5369	C	0.954938	-0.125417	0.920898
	C5370	C	0.960761	-0.214339	0.915190
	C5371	C	0.972128	-0.214044	0.904104
	C5372	C	0.977981	-0.124944	0.898568
	C5373	C	0.972164	-0.036111	0.904273
	C5374	C	0.960789	-0.036372	0.915357
	C5375	C	0.990058	-0.125010	0.886153
	H5376	H	0.976498	-0.282719	0.899600
	H5377	H	0.956267	-0.283453	0.919244
	H5378	H	0.975659	-0.215708	1.001996
	H5379	H	0.954965	-0.215602	0.985803
	H5380	H	0.924677	-0.375568	0.927771
	H5381	H	0.920525	-0.124850	0.978144
	H5382	H	0.829305	-0.124416	0.938956
	H5383	H	1.008169	-0.375053	0.888228
	H5384	H	0.892301	-0.284648	0.918580
	H5385	H	0.871552	-0.284691	0.902507
	H5386	H	0.863506	-0.215068	0.954797
	H5387	H	0.886409	-0.215256	0.962684
	H5388	H	0.871729	0.033888	0.902194
	H5389	H	0.892416	0.034249	0.918274
	H5390	H	0.886407	-0.535014	0.962010
	H5391	H	0.863598	-0.534703	0.954074
	H5392	H	0.955092	-0.534826	0.985418
	H5393	H	0.975730	-0.534957	1.001609
	H5394	H	0.956294	0.032294	0.919559
	H5395	H	0.976516	0.032832	0.899891
	Al5396	Al	0.923437	-0.000547	0.953168
	Al5397	Al	0.923362	0.250278	0.953110
	Al5398	Al	0.840069	0.249475	0.869734
	Al5399	Al	0.840074	0.000203	0.869691
	O5400	O	0.936000	0.040275	0.970810
	O5401	O	0.924081	0.124816	0.940963
	O5402	O	0.922176	0.374913	0.965160
	O5403	O	0.994296	0.040483	1.018026
	O5404	O	0.907929	0.040498	0.966869
	O5405	O	0.842020	0.040397	0.950051
	O5406	O	0.907900	0.208748	0.966918
	O5407	O	0.910929	0.290893	0.934737
	O5408	O	0.852581	0.290914	0.887442
	O5409	O	0.935896	0.208390	0.970894
	O5410	O	0.937665	0.290716	0.937107
	O5411	O	0.994809	0.290745	0.881456
	O5412	O	0.842054	0.208760	0.949854
	O5413	O	0.910985	0.458930	0.934618
	O5414	O	0.852643	0.459303	0.887335
	O5415	O	0.994866	0.458980	0.881510
	O5416	O	0.937610	0.458490	0.937035
	O5417	O	0.994313	0.208553	1.017991
	O5418	O	0.827818	0.375146	0.951699
	O5419	O	1.008125	0.124891	0.875098
	C5420	C	0.971157	0.214239	0.998486
	C5421	C	0.977183	0.124544	1.003163
	C5422	C	0.971198	0.034970	0.998327
	C5423	C	0.959471	0.035096	0.989319
	C5424	C	0.953362	0.124832	0.984899
	C5425	C	0.959426	0.214542	0.989474
	C5426	C	0.940896	0.124424	0.974711
	C5427	C	0.989468	0.124587	1.013836
	C5428	C	0.902256	0.124575	0.965890
	C5429	C	0.888057	0.124505	0.962869
	C5430	C	0.881392	0.214354	0.960758
	C5431	C	0.868488	0.214452	0.956326
	C5432	C	0.861866	0.124704	0.953957
	C5433	C	0.868532	0.034893	0.956027
	C5434	C	0.881446	0.034768	0.960422
	C5435	C	0.847665	0.124574	0.950963
	C5436	C	0.906119	0.374938	0.930460
	C5437	C	0.893804	0.374933	0.919756
	C5438	C	0.887824	0.464485	0.914950
	C5439	C	0.876121	0.464551	0.905939
	C5440	C	0.870049	0.375073	0.901443
	C5441	C	0.876108	0.285561	0.905984
	C5442	C	0.887803	0.285390	0.915021
	C5443	C	0.857537	0.375064	0.891257
	C5444	C	0.942549	0.374642	0.932625
	C5445	C	0.954906	0.374433	0.920873
	C5446	C	0.960716	0.285727	0.915166
	C5447	C	0.972096	0.286072	0.904087
	C5448	C	0.977956	0.374976	0.898556
	C5449	C	0.972192	0.463621	0.904343
	C5450	C	0.960802	0.463206	0.915426
	C5451	C	0.990076	0.375221	0.886241
	H5452	H	0.976447	0.217707	0.899710
	H5453	H	0.956305	0.216955	0.919392
	H5454	H	0.975654	0.284071	1.002039
	H5455	H	0.954895	0.284465	0.985991
	H5456	H	0.924656	0.124574	0.927789
	H5457	H	0.920311	0.374933	0.978025
	H5458	H	0.829743	0.375151	0.938839
	H5459	H	1.007921	0.125187	0.888136
	H5460	H	0.892285	0.215252	0.918511
	H5461	H	0.871592	0.215858	0.902380
	H5462	H	0.863520	0.284305	0.954648
	H5463	H	0.886358	0.284344	0.962511
	H5464	H	0.871658	0.534189	0.902321
	H5465	H	0.892338	0.534189	0.918442
	H5466	H	0.886461	-0.035063	0.961991
	H5467	H	0.863562	-0.035204	0.954187
	H5468	H	0.954973	-0.034509	0.985750
	H5469	H	0.975706	-0.035002	1.001791
	H5470	H	0.956466	0.531825	0.919919
	H5471	H	0.976656	0.532505	0.900165
