data_Molecule from HDF5

_cell_length_a		57.971237
_cell_length_b		19.171122
_cell_length_c		161.252099
_cell_angle_alpha	90.002939
_cell_angle_beta	89.998289
_cell_angle_gamma	89.972853
_symmetry_space_group_name_H-M	'P 1'
_symmetry_Int_Tables_number		1

loop_
	_symmetry_equiv_pos_as_xyz
	x,y,z

loop_
	_atom_site_label
	_atom_site_type_symbol
	_atom_site_fract_x
	_atom_site_fract_y
	_atom_site_fract_z
	O0	O	0.104325	0.693466	0.051744
	O1	O	0.104093	0.810243	0.051741
	O2	O	0.024108	0.694799	0.071456
	O3	O	0.023605	0.811572	0.071556
	O4	O	0.023646	0.194058	0.071526
	O5	O	0.023977	0.310782	0.071475
	O6	O	0.023996	0.694314	0.051740
	O7	O	0.023953	0.811230	0.051719
	O8	O	0.023914	0.194059	0.051729
	O9	O	0.023965	0.310920	0.051710
	O10	O	0.104168	0.693319	0.071476
	O11	O	0.103893	0.810130	0.071430
	O12	O	0.104031	0.194449	0.071479
	O13	O	0.104158	0.311258	0.071488
	O14	O	0.104153	0.193811	0.051750
	O15	O	0.104240	0.310552	0.051684
	O16	O	0.086009	0.693702	0.008991
	O17	O	0.041407	0.693835	0.008976
	O18	O	0.086106	0.694072	0.114232
	O19	O	0.085992	0.811021	0.114195
	O20	O	0.041396	0.694663	0.114287
	O21	O	0.041589	0.811401	0.114252
	O22	O	0.041538	0.810758	0.008950
	O23	O	0.086161	0.810509	0.008996
	O24	O	0.086035	0.193732	0.008972
	O25	O	0.041502	0.194203	0.008957
	O26	O	0.086139	0.193982	0.114252
	O27	O	0.086325	0.310622	0.114262
	O28	O	0.041634	0.193801	0.114216
	O29	O	0.041532	0.310854	0.114227
	O30	O	0.041491	0.311087	0.008979
	O31	O	0.086088	0.310489	0.008982
	H32	H	0.030634	0.643115	0.085178
	H33	H	0.030416	0.863222	0.085180
	H34	H	0.030682	0.142595	0.085164
	H35	H	0.030697	0.362672	0.085176
	H36	H	0.030768	0.862885	0.038060
	H37	H	0.030330	0.642742	0.038084
	H38	H	0.030822	0.362611	0.038082
	H39	H	0.030561	0.142258	0.038063
	H40	H	0.133093	0.063901	0.064815
	H41	H	0.137365	0.063943	0.061830
	H42	H	0.137265	0.940667	0.061838
	H43	H	0.132923	0.940619	0.064786
	H44	H	0.120403	0.064273	0.064978
	H45	H	0.120231	0.940421	0.064958
	H46	H	-0.005065	0.064056	0.068069
	H47	H	-0.005172	0.940683	0.068049
	H48	H	0.010989	0.064081	0.067604
	H49	H	0.010918	0.940682	0.067614
	H50	H	0.020413	0.064556	0.060524
	H51	H	0.020387	0.940733	0.060509
	H52	H	-0.006679	0.441145	0.059540
	H53	H	-0.007974	0.440484	0.062566
	H54	H	0.004380	0.441448	0.058076
	H55	H	0.107250	0.441153	0.061015
	H56	H	0.121481	0.440812	0.054879
	H57	H	0.137671	0.440756	0.055905
	H58	H	-0.007929	0.564195	0.062574
	H59	H	-0.006488	0.563879	0.059539
	H60	H	0.137728	0.564371	0.055907
	H61	H	0.121708	0.564144	0.054914
	H62	H	0.107271	0.564062	0.061003
	H63	H	0.004443	0.564492	0.058097
	H64	H	0.097479	0.641664	0.085176
	H65	H	0.096904	0.861871	0.085071
	H66	H	0.096588	0.142874	0.085089
	H67	H	0.097645	0.362559	0.085206
	H68	H	0.034365	0.642576	0.022649
	H69	H	0.092855	0.641921	0.022653
	H70	H	0.093205	0.861835	0.022636
	H71	H	0.034806	0.862716	0.022602
	H72	H	0.097155	0.641662	0.038092
	H73	H	0.097495	0.861865	0.038083
	H74	H	0.093297	0.642057	0.100623
	H75	H	0.092652	0.862183	0.100517
	H76	H	0.051735	0.440234	0.001589
	H77	H	0.056402	0.440487	0.124015
	H78	H	0.053213	0.440382	-0.004119
	H79	H	0.063886	0.440458	-0.005932
	H80	H	0.067461	0.440775	0.126423
	H81	H	0.061270	0.441285	0.126572
	H82	H	0.056329	0.564491	0.124025
	H83	H	0.051498	0.563625	0.001574
	H84	H	0.061142	0.564498	0.126587
	H85	H	0.067497	0.564432	0.126407
	H86	H	0.063961	0.564079	-0.005878
	H87	H	0.053195	0.563955	-0.004172
	H88	H	0.092647	0.142373	0.100534
	H89	H	0.093739	0.362389	0.100634
	H90	H	0.055669	0.064238	0.001435
	H91	H	0.063469	0.064205	0.002809
	H92	H	0.054760	0.064308	-0.002825
	H93	H	0.034370	0.863057	0.100630
	H94	H	0.034558	0.643246	0.100614
	H95	H	0.034630	0.362660	0.100617
	H96	H	0.034647	0.142524	0.100601
	H97	H	0.034587	0.142485	0.022594
	H98	H	0.093008	0.141973	0.022676
	H99	H	0.093223	0.361829	0.022651
	H100	H	0.034834	0.362669	0.022635
	H101	H	0.097074	0.142074	0.038126
	H102	H	0.097343	0.361890	0.038085
	H103	H	0.062895	0.064351	0.123493
	H104	H	0.061792	0.064068	0.123961
	H105	H	0.062634	0.063880	0.124726
	H106	H	0.063526	0.940884	0.002810
	H107	H	0.055669	0.941003	0.001430
	H108	H	0.054794	0.940513	-0.002738
	H109	H	0.062878	0.940748	0.123446
	H110	H	0.061810	0.940578	0.123916
	H111	H	0.062686	0.940621	0.124715
	Zn112	Zn	0.001769	0.679953	0.061618
	Zn113	Zn	0.001559	0.825010	0.061618
	Zn114	Zn	0.001632	0.180130	0.061617
	Zn115	Zn	0.001692	0.325271	0.061587
	Zn116	Zn	0.063810	0.679945	0.124076
	Zn117	Zn	0.063875	0.825104	0.124124
	Zn118	Zn	0.063784	0.179942	0.124116
	Zn119	Zn	0.063803	0.325223	0.124076
	C120	C	0.101695	0.751824	0.048245
	C121	C	0.026324	0.753079	0.075011
	C122	C	0.030574	0.753144	0.084201
	C123	C	0.031570	0.690988	0.088590
	C124	C	0.031445	0.815330	0.088599
	C125	C	0.026308	0.252489	0.075013
	C126	C	0.030597	0.252602	0.084233
	C127	C	0.031589	0.190361	0.088608
	C128	C	0.031589	0.314906	0.088615
	C129	C	0.026409	0.752777	0.048228
	C130	C	0.030704	0.752749	0.039028
	C131	C	0.031725	0.815044	0.034634
	C132	C	0.031486	0.690510	0.034655
	C133	C	0.026436	0.252403	0.048223
	C134	C	0.030709	0.252382	0.039005
	C135	C	0.031737	0.314779	0.034640
	C136	C	0.031605	0.190107	0.034618
	C137	C	0.132863	0.042763	0.062885
	C138	C	0.132800	0.962078	0.062876
	C139	C	0.002585	0.042819	0.066217
	C140	C	0.002571	0.962136	0.066207
	C141	C	0.012134	0.043055	0.059056
	C142	C	0.012164	0.962039	0.059043
	C143	C	-0.004897	0.462067	0.061205
	C144	C	0.114369	0.462058	0.063189
	C145	C	0.128820	0.462087	0.057026
	C146	C	-0.004880	0.542926	0.061206
	C147	C	0.128835	0.543020	0.057040
	C148	C	0.114410	0.542873	0.063178
	C149	C	0.101559	0.751776	0.074956
	C150	C	0.101569	0.252849	0.074987
	C151	C	0.097128	0.751818	0.084164
	C152	C	0.096309	0.689630	0.088573
	C153	C	0.095987	0.814168	0.088515
	C154	C	0.097288	0.252732	0.084197
	C155	C	0.095927	0.190511	0.088552
	C156	C	0.096541	0.314795	0.088606
	C157	C	0.101614	0.252070	0.048221
	C158	C	0.088513	0.752087	0.012504
	C159	C	0.039009	0.752322	0.012469
	C160	C	0.038971	0.753020	0.110755
	C161	C	0.096141	0.689538	0.034670
	C162	C	0.096318	0.814031	0.034661
	C163	C	0.092918	0.751901	0.021719
	C164	C	0.034656	0.752518	0.021693
	C165	C	0.033508	0.690373	0.026083
	C166	C	0.093926	0.689602	0.026097
	C167	C	0.094118	0.814054	0.026088
	C168	C	0.033769	0.814956	0.026055
	C169	C	0.097205	0.751759	0.039045
	C170	C	0.088507	0.752489	0.110715
	C171	C	0.094160	0.689724	0.097153
	C172	C	0.093818	0.814412	0.097093
	C173	C	0.092908	0.752198	0.101496
	C174	C	0.059376	0.462035	0.123280
	C175	C	0.059951	0.461942	-0.003937
	C176	C	0.064234	0.462234	0.125842
	C177	C	0.059315	0.543004	0.123283
	C178	C	0.064177	0.542831	0.125849
	C179	C	0.059902	0.542901	-0.003948
	C180	C	0.088801	0.252251	0.110754
	C181	C	0.093792	0.190276	0.097129
	C182	C	0.094404	0.314635	0.097182
	C183	C	0.093105	0.252366	0.101537
	C184	C	0.060602	0.042844	0.001329
	C185	C	0.088574	0.252056	0.012490
	C186	C	0.039031	0.252649	0.012461
	C187	C	0.039057	0.252356	0.110747
	C188	C	0.096187	0.189727	0.034673
	C189	C	0.096306	0.314144	0.034651
	C190	C	0.092940	0.251964	0.021709
	C191	C	0.034768	0.252604	0.021684
	C192	C	0.034603	0.753137	0.101538
	C193	C	0.033511	0.815296	0.097174
	C194	C	0.033630	0.690983	0.097165
	C195	C	0.034725	0.252520	0.101551
	C196	C	0.033734	0.314874	0.097188
	C197	C	0.033710	0.190307	0.097178
	C198	C	0.033688	0.190241	0.026039
	C199	C	0.093991	0.189803	0.026100
	C200	C	0.094110	0.314062	0.026080
	C201	C	0.033831	0.314849	0.026062
	C202	C	0.097288	0.251956	0.039027
	C203	C	0.062736	0.042952	0.123815
	C204	C	0.059724	0.042968	-0.002955
	C205	C	0.060653	0.962156	0.001327
	C206	C	0.062769	0.962022	0.123821
	C207	C	0.059728	0.961880	-0.002925
	N208	N	0.001576	0.069905	0.061628
	N209	N	0.001558	0.935298	0.061617
	N210	N	0.001824	0.435157	0.061602
	N211	N	0.001799	0.569700	0.061593
	N212	N	0.063843	0.435312	0.124057
	N213	N	0.063772	0.569830	0.124072
	N214	N	0.063751	0.069703	0.124142
	N215	N	0.063787	0.935163	0.124128
	O216	O	0.103892	0.694841	0.176697
	O217	O	0.104043	0.811642	0.176653
	O218	O	0.023792	0.692941	0.196478
	O219	O	0.023891	0.810016	0.196549
	O220	O	0.023904	0.195207	0.196516
	O221	O	0.023758	0.312212	0.196497
	O222	O	0.023749	0.693205	0.176712
	O223	O	0.024294	0.810143	0.176814
	O224	O	0.024135	0.195015	0.176782
	O225	O	0.023849	0.311897	0.176761
	O226	O	0.103676	0.694998	0.196479
	O227	O	0.103829	0.811840	0.196450
	O228	O	0.103832	0.193611	0.196443
	O229	O	0.103641	0.310627	0.196503
	O230	O	0.104015	0.193189	0.176690
	O231	O	0.103697	0.310102	0.176733
	O232	O	0.086325	0.693984	0.133896
	O233	O	0.041534	0.693916	0.133977
	O234	O	0.086370	0.695938	0.239281
	O235	O	0.085962	0.812689	0.239240
	O236	O	0.041855	0.691946	0.239256
	O237	O	0.041305	0.808769	0.239260
	O238	O	0.041575	0.810889	0.134005
	O239	O	0.086238	0.810857	0.133961
	O240	O	0.086287	0.194255	0.133966
	O241	O	0.041523	0.194136	0.134012
	O242	O	0.086007	0.192346	0.239224
	O243	O	0.086733	0.309200	0.239308
	O244	O	0.041254	0.195820	0.239289
	O245	O	0.042046	0.312615	0.239236
	O246	O	0.041483	0.311025	0.133969
	O247	O	0.085976	0.311075	0.133979
	H248	H	0.031286	0.640735	0.210066
	H249	H	0.030146	0.860759	0.210193
	H250	H	0.030219	0.143820	0.210195
	H251	H	0.031189	0.364256	0.210100
	H252	H	0.031142	0.862068	0.163104
	H253	H	0.030555	0.642113	0.163082
	H254	H	0.030287	0.363568	0.163080
	H255	H	0.031244	0.143515	0.163145
	H256	H	0.128138	0.064268	0.188310
	H257	H	0.131060	0.064094	0.187150
	H258	H	0.131030	0.940664	0.187158
	H259	H	0.128087	0.940826	0.188280
	H260	H	0.122213	0.064312	0.187773
	H261	H	0.122304	0.941001	0.187805
	H262	H	0.000926	0.064565	0.196717
	H263	H	0.000994	0.941005	0.196732
	H264	H	0.022739	0.064340	0.193418
	H265	H	0.022769	0.941009	0.193411
	H266	H	0.026733	0.063956	0.181892
	H267	H	0.026765	0.941111	0.181893
	H268	H	0.005876	0.440492	0.189249
	H269	H	0.009933	0.440554	0.187096
	H270	H	-0.004121	0.440945	0.188993
	H271	H	0.116926	0.440739	0.184751
	H272	H	0.127492	0.440946	0.182963
	H273	H	0.134542	0.440550	0.184724
	H274	H	0.009943	0.564482	0.187106
	H275	H	0.005834	0.564240	0.189246
	H276	H	0.134517	0.564545	0.184725
	H277	H	0.127526	0.564509	0.182966
	H278	H	0.116820	0.563827	0.184765
	H279	H	-0.004126	0.564245	0.188968
	H280	H	0.097339	0.643868	0.210195
	H281	H	0.096665	0.863705	0.210069
	H282	H	0.096626	0.141403	0.210064
	H283	H	0.097833	0.361755	0.210203
	H284	H	0.034678	0.642041	0.147630
	H285	H	0.093264	0.642388	0.147574
	H286	H	0.093233	0.862266	0.147527
	H287	H	0.035122	0.862204	0.147658
	H288	H	0.097161	0.642687	0.163029
	H289	H	0.097193	0.862712	0.162971
	H290	H	0.093308	0.644238	0.225621
	H291	H	0.092592	0.864111	0.225518
	H292	H	0.059144	0.440987	0.121994
	H293	H	0.069268	0.441065	0.246214
	H294	H	0.067660	0.441065	0.121768
	H295	H	0.071223	0.440532	0.123610
	H296	H	0.055329	0.441287	0.249144
	H297	H	0.058545	0.441135	0.246592
	H298	H	0.069185	0.564340	0.246189
	H299	H	0.059040	0.564131	0.121992
	H300	H	0.058579	0.564776	0.246575
	H301	H	0.055202	0.564389	0.249149
	H302	H	0.071129	0.564260	0.123639
	H303	H	0.067692	0.564087	0.121757
	H304	H	0.092583	0.141128	0.225509
	H305	H	0.093893	0.361158	0.225658
	H306	H	0.065704	0.064409	0.124151
	H307	H	0.065162	0.064573	0.123617
	H308	H	0.064319	0.064433	0.124796
	H309	H	0.034295	0.860398	0.225616
	H310	H	0.035468	0.640291	0.225521
	H311	H	0.035203	0.364565	0.225538
	H312	H	0.034267	0.144349	0.225627
	H313	H	0.035222	0.143146	0.147708
	H314	H	0.093765	0.142101	0.147560
	H315	H	0.092398	0.362526	0.147678
	H316	H	0.034265	0.363262	0.147602
	H317	H	0.097914	0.141823	0.163015
	H318	H	0.096547	0.362023	0.163105
	H319	H	0.064047	0.064237	0.246435
	H320	H	0.058265	0.064114	0.247214
	H321	H	0.056818	0.064374	0.250245
	H322	H	0.065129	0.941169	0.123603
	H323	H	0.065768	0.940839	0.124177
	H324	H	0.064305	0.940712	0.124813
	H325	H	0.064019	0.940872	0.246447
	H326	H	0.058249	0.940860	0.247231
	H327	H	0.056885	0.940728	0.250262
	Zn328	Zn	0.001392	0.679874	0.186607
	Zn329	Zn	0.001825	0.825024	0.186655
	Zn330	Zn	0.001843	0.179835	0.186629
	Zn331	Zn	0.001433	0.324689	0.186613
	Zn332	Zn	0.064459	0.680045	0.249153
	Zn333	Zn	0.063456	0.825193	0.249131
	Zn334	Zn	0.063439	0.180079	0.249110
	Zn335	Zn	0.064535	0.325338	0.249136
	C336	C	0.101490	0.753169	0.173164
	C337	C	0.026337	0.751300	0.199993
	C338	C	0.030690	0.750794	0.209205
	C339	C	0.032041	0.688350	0.213538
	C340	C	0.031410	0.812963	0.213606
	C341	C	0.026330	0.253797	0.199989
	C342	C	0.030595	0.254055	0.209196
	C343	C	0.031347	0.191811	0.213602
	C344	C	0.031844	0.316499	0.213551
	C345	C	0.026565	0.751795	0.173264
	C346	C	0.030869	0.752080	0.164035
	C347	C	0.032025	0.814397	0.159663
	C348	C	0.031695	0.689790	0.159649
	C349	C	0.026412	0.253450	0.173262
	C350	C	0.030632	0.253492	0.164036
	C351	C	0.031373	0.315739	0.159641
	C352	C	0.031873	0.191183	0.159684
	C353	C	0.128725	0.043060	0.187418
	C354	C	0.128706	0.962132	0.187408
	C355	C	0.009232	0.043151	0.192842
	C356	C	0.009220	0.962030	0.192844
	C357	C	0.013301	0.042791	0.181236
	C358	C	0.013247	0.962023	0.181242
	C359	C	0.006183	0.462122	0.187771
	C360	C	0.118924	0.462268	0.186348
	C361	C	0.129610	0.462091	0.184548
	C362	C	0.006193	0.543132	0.187756
	C363	C	0.129607	0.543077	0.184567
	C364	C	0.118946	0.543074	0.186359
	C365	C	0.101352	0.753501	0.199979
	C366	C	0.101393	0.251976	0.199974
	C367	C	0.097144	0.753716	0.209201
	C368	C	0.096278	0.691695	0.213604
	C369	C	0.095906	0.816069	0.213535
	C370	C	0.097152	0.251647	0.209189
	C371	C	0.095844	0.189195	0.213524
	C372	C	0.096527	0.313795	0.213607
	C373	C	0.101462	0.251662	0.173199
	C374	C	0.088807	0.752322	0.137426
	C375	C	0.039128	0.752368	0.137486
	C376	C	0.039091	0.750242	0.235748
	C377	C	0.096239	0.690406	0.159580
	C378	C	0.096250	0.814828	0.159555
	C379	C	0.093157	0.752311	0.146620
	C380	C	0.034916	0.752193	0.146708
	C381	C	0.033791	0.689844	0.151070
	C382	C	0.094172	0.690211	0.151000
	C383	C	0.094168	0.814572	0.150979
	C384	C	0.034077	0.814443	0.151085
	C385	C	0.097260	0.752748	0.163947
	C386	C	0.088674	0.754374	0.235757
	C387	C	0.094175	0.691957	0.222183
	C388	C	0.093771	0.816302	0.222115
	C389	C	0.093020	0.754232	0.226543
	C390	C	0.069733	0.462409	0.247819
	C391	C	0.067964	0.462221	0.123049
	C392	C	0.058978	0.462250	0.248200
	C393	C	0.069730	0.543021	0.247828
	C394	C	0.058929	0.543194	0.248204
	C395	C	0.067932	0.543168	0.123050
	C396	C	0.088888	0.250775	0.235765
	C397	C	0.093743	0.188949	0.222100
	C398	C	0.094449	0.313464	0.222183
	C399	C	0.093127	0.251046	0.226526
	C400	C	0.064994	0.043027	0.123946
	C401	C	0.088651	0.252686	0.137466
	C402	C	0.039039	0.252669	0.137492
	C403	C	0.039154	0.254315	0.235750
	C404	C	0.096574	0.189652	0.159586
	C405	C	0.095836	0.314236	0.159634
	C406	C	0.093029	0.252399	0.146661
	C407	C	0.034652	0.253135	0.146702
	C408	C	0.034766	0.750250	0.226530
	C409	C	0.033516	0.812633	0.222178
	C410	C	0.034131	0.688146	0.222118
	C411	C	0.034700	0.254476	0.226534
	C412	C	0.033967	0.316651	0.222126
	C413	C	0.033424	0.192113	0.222181
	C414	C	0.033951	0.191020	0.151109
	C415	C	0.094428	0.189934	0.151010
	C416	C	0.093710	0.314473	0.151066
	C417	C	0.033464	0.315584	0.151060
	C418	C	0.097186	0.251849	0.163979
	C419	C	0.061817	0.042955	0.247418
	C420	C	0.063561	0.042918	0.124581
	C421	C	0.065039	0.962293	0.123952
	C422	C	0.061797	0.962223	0.247436
	C423	C	0.063574	0.961989	0.124592
	N424	N	0.001983	0.069706	0.186640
	N425	N	0.001966	0.935166	0.186659
	N426	N	0.001437	0.435265	0.186592
	N427	N	0.001439	0.569871	0.186591
	N428	N	0.064609	0.435453	0.249127
	N429	N	0.064566	0.570006	0.249122
	N430	N	0.063456	0.069888	0.249098
	N431	N	0.063471	0.935347	0.249116
	O432	O	0.103955	0.696262	0.301774
	O433	O	0.104513	0.813252	0.301727
	O434	O	0.023488	0.694688	0.321469
	O435	O	0.023596	0.811739	0.321476
	O436	O	0.023828	0.194368	0.321418
	O437	O	0.023652	0.311198	0.321441
	O438	O	0.023785	0.694265	0.301791
	O439	O	0.023470	0.811058	0.301714
	O440	O	0.023489	0.194783	0.301682
	O441	O	0.023602	0.311718	0.301809
	O442	O	0.103903	0.695744	0.321408
	O443	O	0.104456	0.812475	0.321468
	O444	O	0.104752	0.192367	0.321529
	O445	O	0.104034	0.309339	0.321451
	O446	O	0.104331	0.192077	0.301765
	O447	O	0.104012	0.308743	0.301736
	O448	O	0.086770	0.696640	0.258976
	O449	O	0.042158	0.692519	0.259062
	O450	O	0.085742	0.693471	0.364102
	O451	O	0.086435	0.810578	0.364236
	O452	O	0.041005	0.695215	0.364274
	O453	O	0.041540	0.811977	0.364171
	O454	O	0.041416	0.809329	0.259001
	O455	O	0.085875	0.813331	0.259020
	O456	O	0.085969	0.191889	0.258991
	O457	O	0.041208	0.196200	0.258962
	O458	O	0.086181	0.194144	0.364208
	O459	O	0.085969	0.310972	0.364168
	O460	O	0.041437	0.193650	0.364207
	O461	O	0.041258	0.310366	0.364243
	O462	O	0.042169	0.312987	0.259041
	O463	O	0.086649	0.308806	0.258991
	H464	H	0.029702	0.642984	0.335216
	H465	H	0.030917	0.863376	0.335097
	H466	H	0.030707	0.142783	0.335029
	H467	H	0.030373	0.362603	0.335110
	H468	H	0.029933	0.862167	0.288027
	H469	H	0.031310	0.642113	0.288212
	H470	H	0.031302	0.363997	0.288173
	H471	H	0.029992	0.143701	0.288019
	H472	H	0.145585	0.064105	0.306584
	H473	H	0.128240	0.064442	0.303296
	H474	H	0.128248	0.940821	0.303307
	H475	H	0.145449	0.940719	0.306619
	H476	H	0.146470	0.064411	0.316167
	H477	H	0.146448	0.941045	0.316178
	H478	H	-0.001898	0.064702	0.313434
	H479	H	-0.001904	0.941421	0.313452
	H480	H	0.003200	0.064305	0.313638
	H481	H	0.003105	0.940929	0.313660
	H482	H	0.007271	0.064336	0.311665
	H483	H	0.007282	0.940829	0.311645
	H484	H	-0.014882	0.440638	0.310795
	H485	H	-0.011042	0.440451	0.315422
	H486	H	-0.002102	0.440597	0.306011
	H487	H	0.126140	0.440900	0.311301
	H488	H	0.126904	0.440502	0.311589
	H489	H	0.126612	0.441053	0.311865
	H490	H	-0.010995	0.564217	0.315415
	H491	H	-0.014863	0.564469	0.310771
	H492	H	0.126750	0.563751	0.311853
	H493	H	0.126916	0.564532	0.311590
	H494	H	0.126265	0.564208	0.311348
	H495	H	-0.002049	0.563958	0.305948
	H496	H	0.096450	0.643875	0.334989
	H497	H	0.098060	0.863890	0.335200
	H498	H	0.097973	0.141101	0.335205
	H499	H	0.097078	0.361348	0.335036
	H500	H	0.035550	0.641326	0.272760
	H501	H	0.093692	0.644757	0.272650
	H502	H	0.092821	0.864701	0.272667
	H503	H	0.034224	0.861391	0.272597
	H504	H	0.097693	0.644586	0.288078
	H505	H	0.096915	0.864723	0.288117
	H506	H	0.092304	0.642873	0.350393
	H507	H	0.093897	0.862826	0.350643
	H508	H	0.073747	0.440635	0.248494
	H509	H	0.057036	0.441085	0.372600
	H510	H	0.069379	0.440709	0.252004
	H511	H	0.061570	0.440753	0.252312
	H512	H	0.063301	0.441017	0.376805
	H513	H	0.057574	0.440812	0.375793
	H514	H	0.057013	0.564392	0.372619
	H515	H	0.073792	0.564045	0.248495
	H516	H	0.057560	0.564432	0.375767
	H517	H	0.063337	0.564535	0.376802
	H518	H	0.061550	0.564351	0.252328
	H519	H	0.069382	0.564361	0.252027
	H520	H	0.093550	0.141924	0.350644
	H521	H	0.092748	0.362221	0.350464
	H522	H	0.069595	0.064271	0.250577
	H523	H	0.070615	0.064434	0.248380
	H524	H	0.061615	0.064463	0.251666
	H525	H	0.034979	0.863572	0.350526
	H526	H	0.033770	0.643430	0.350681
	H527	H	0.034273	0.362380	0.350554
	H528	H	0.034701	0.142245	0.350467
	H529	H	0.034239	0.144416	0.272616
	H530	H	0.092700	0.139953	0.272644
	H531	H	0.093484	0.359940	0.272616
	H532	H	0.035562	0.364431	0.272747
	H533	H	0.096893	0.139892	0.288086
	H534	H	0.097512	0.359924	0.288043
	H535	H	0.052153	0.064745	0.381053
	H536	H	0.071017	0.064086	0.381785
	H537	H	0.086372	0.064063	0.374247
	H538	H	0.070678	0.940486	0.248366
	H539	H	0.069662	0.940786	0.250619
	H540	H	0.061671	0.941038	0.251685
	H541	H	0.052067	0.941013	0.381052
	H542	H	0.071100	0.940729	0.381781
	H543	H	0.086435	0.940750	0.374255
	Zn544	Zn	0.001285	0.680026	0.311598
	Zn545	Zn	0.001139	0.825131	0.311589
	Zn546	Zn	0.001316	0.180407	0.311573
	Zn547	Zn	0.001156	0.325133	0.311618
	Zn548	Zn	0.063529	0.680301	0.374038
	Zn549	Zn	0.063976	0.825135	0.374126
	Zn550	Zn	0.063873	0.180270	0.374090
	Zn551	Zn	0.063611	0.325189	0.374098
	C552	C	0.101741	0.754762	0.298253
	C553	C	0.026026	0.753150	0.324963
	C554	C	0.030472	0.753108	0.334187
	C555	C	0.031083	0.690928	0.338619
	C556	C	0.031763	0.815519	0.338539
	C557	C	0.026219	0.252767	0.324935
	C558	C	0.030570	0.252765	0.334141
	C559	C	0.031617	0.190511	0.338498
	C560	C	0.031382	0.314828	0.338544
	C561	C	0.026166	0.752571	0.298255
	C562	C	0.030606	0.752188	0.289067
	C563	C	0.031267	0.814178	0.284644
	C564	C	0.032047	0.689701	0.284743
	C565	C	0.026039	0.253520	0.298244
	C566	C	0.030498	0.253931	0.289050
	C567	C	0.031941	0.316314	0.284720
	C568	C	0.031207	0.191775	0.284630
	C569	C	0.134292	0.043099	0.306721
	C570	C	0.134281	0.962177	0.306705
	C571	C	0.000783	0.043039	0.313012
	C572	C	0.000772	0.962186	0.313030
	C573	C	0.004940	0.042957	0.310999
	C574	C	0.004927	0.962056	0.311014
	C575	C	-0.009236	0.461953	0.312727
	C576	C	0.125865	0.462249	0.311415
	C577	C	0.126594	0.462194	0.311699
	C578	C	-0.009268	0.543012	0.312715
	C579	C	0.126615	0.543110	0.311709
	C580	C	0.125925	0.542771	0.311435
	C581	C	0.101691	0.754090	0.324950
	C582	C	0.101930	0.250869	0.324987
	C583	C	0.097286	0.753830	0.334162
	C584	C	0.095870	0.691382	0.338465
	C585	C	0.096723	0.815908	0.338591
	C586	C	0.097354	0.251123	0.334187
	C587	C	0.096555	0.189047	0.338605
	C588	C	0.096062	0.313692	0.338508
	C589	C	0.101751	0.250235	0.298230
	C590	C	0.088787	0.755053	0.262510
	C591	C	0.039289	0.750901	0.262533
	C592	C	0.038834	0.753528	0.360712
	C593	C	0.096558	0.692450	0.284663
	C594	C	0.096121	0.816927	0.284675
	C595	C	0.093197	0.754825	0.271716
	C596	C	0.034920	0.751220	0.271743
	C597	C	0.034253	0.689185	0.276169
	C598	C	0.094446	0.692587	0.276093
	C599	C	0.093972	0.817012	0.276103
	C600	C	0.033467	0.813667	0.276078
	C601	C	0.097354	0.754650	0.289047
	C602	C	0.088534	0.752189	0.360679
	C603	C	0.093627	0.690878	0.347028
	C604	C	0.094520	0.815324	0.347163
	C605	C	0.093035	0.752737	0.351484
	C606	C	0.060716	0.462302	0.372531
	C607	C	0.065241	0.462086	0.251364
	C608	C	0.061247	0.462095	0.375708
	C609	C	0.060717	0.543088	0.372524
	C610	C	0.061257	0.543063	0.375696
	C611	C	0.065223	0.543090	0.251375
	C612	C	0.088581	0.252487	0.360685
	C613	C	0.094287	0.189570	0.347170
	C614	C	0.093851	0.314156	0.347074
	C615	C	0.092959	0.252076	0.351492
	C616	C	0.068395	0.043003	0.249373
	C617	C	0.088790	0.250178	0.262485
	C618	C	0.039170	0.254640	0.262504
	C619	C	0.038937	0.252074	0.360708
	C620	C	0.096176	0.187732	0.284644
	C621	C	0.096514	0.312078	0.284624
	C622	C	0.093224	0.249916	0.271682
	C623	C	0.034666	0.254546	0.271713
	C624	C	0.034614	0.753461	0.351509
	C625	C	0.033868	0.815731	0.347111
	C626	C	0.033195	0.691053	0.347197
	C627	C	0.034617	0.252380	0.351494
	C628	C	0.033529	0.314635	0.347120
	C629	C	0.033719	0.190320	0.347073
	C630	C	0.033317	0.192144	0.276056
	C631	C	0.093962	0.187723	0.276071
	C632	C	0.094382	0.312092	0.276050
	C633	C	0.034065	0.316568	0.276141
	C634	C	0.097383	0.249929	0.289023
	C635	C	0.062154	0.043077	0.379499
	C636	C	0.060380	0.043018	0.250468
	C637	C	0.068430	0.962083	0.249387
	C638	C	0.062179	0.962213	0.379515
	C639	C	0.060389	0.962131	0.250483
	N640	N	0.001233	0.069857	0.311594
	N641	N	0.001233	0.935251	0.311605
	N642	N	0.001006	0.435322	0.311634
	N643	N	0.001023	0.569844	0.311594
	N644	N	0.063595	0.435313	0.374059
	N645	N	0.063507	0.569900	0.374051
	N646	N	0.063733	0.069925	0.374077
	N647	N	0.063794	0.935324	0.374103
	O648	O	0.104206	0.692490	0.426650
	O649	O	0.103819	0.809440	0.426612
	O650	O	0.023406	0.693765	0.446553
	O651	O	0.023714	0.810787	0.446515
	O652	O	0.023601	0.194002	0.446462
	O653	O	0.023604	0.310776	0.446526
	O654	O	0.023804	0.694567	0.426708
	O655	O	0.023371	0.811165	0.426691
	O656	O	0.023601	0.194081	0.426757
	O657	O	0.023846	0.310977	0.426769
	O658	O	0.104207	0.693271	0.446491
	O659	O	0.103761	0.810241	0.446475
	O660	O	0.103624	0.195679	0.446461
	O661	O	0.104203	0.312553	0.446497
	O662	O	0.103613	0.195680	0.426726
	O663	O	0.104264	0.312613	0.426673
	O664	O	0.086163	0.693048	0.383906
	O665	O	0.041520	0.694736	0.384002
	O666	O	0.086489	0.693875	0.489322
	O667	O	0.086057	0.810815	0.489195
	O668	O	0.041790	0.694102	0.489296
	O669	O	0.041587	0.810937	0.489283
	O670	O	0.041605	0.811669	0.383954
	O671	O	0.086121	0.809703	0.383962
	O672	O	0.086234	0.194713	0.383973
	O673	O	0.041668	0.193501	0.384002
	O674	O	0.086296	0.194549	0.489167
	O675	O	0.086404	0.311377	0.489293
	O676	O	0.041672	0.193680	0.489215
	O677	O	0.041735	0.310530	0.489216
	O678	O	0.041684	0.310420	0.384002
	O679	O	0.086045	0.311522	0.383951
	H680	H	0.030457	0.642208	0.460218
	H681	H	0.030621	0.862471	0.460194
	H682	H	0.030279	0.142410	0.460117
	H683	H	0.030773	0.362315	0.460151
	H684	H	0.030295	0.863139	0.413021
	H685	H	0.030743	0.643079	0.413060
	H686	H	0.030241	0.362581	0.413092
	H687	H	0.030756	0.142466	0.413157
	H688	H	0.131950	0.064639	0.438445
	H689	H	0.133721	0.064493	0.436051
	H690	H	0.133654	0.940933	0.436037
	H691	H	0.131938	0.940671	0.438427
	H692	H	0.122901	0.064257	0.439337
	H693	H	0.122900	0.940850	0.439317
	H694	H	0.011007	0.064496	0.435331
	H695	H	0.011153	0.941073	0.435359
	H696	H	0.004845	0.064164	0.433059
	H697	H	0.004893	0.940957	0.433133
	H698	H	-0.006832	0.064009	0.434151
	H699	H	-0.006877	0.940636	0.434221
	H700	H	0.001507	0.440570	0.434493
	H701	H	-0.002992	0.440736	0.435180
	H702	H	0.007070	0.440886	0.435941
	H703	H	0.115783	0.441193	0.434424
	H704	H	0.128416	0.440786	0.432249
	H705	H	0.136874	0.441099	0.434311
	H706	H	-0.002927	0.564290	0.435164
	H707	H	0.001575	0.564530	0.434460
	H708	H	0.136863	0.564460	0.434344
	H709	H	0.128459	0.564564	0.432254
	H710	H	0.115821	0.564327	0.434417
	H711	H	0.007082	0.564386	0.435923
	H712	H	0.097447	0.641548	0.460159
	H713	H	0.097099	0.861896	0.460113
	H714	H	0.096605	0.144379	0.460089
	H715	H	0.097514	0.364098	0.460156
	H716	H	0.034910	0.643112	0.397616
	H717	H	0.093491	0.640943	0.397509
	H718	H	0.093016	0.860970	0.397575
	H719	H	0.034529	0.863269	0.397594
	H720	H	0.097591	0.640565	0.412975
	H721	H	0.096944	0.860811	0.413010
	H722	H	0.093354	0.641887	0.475609
	H723	H	0.093049	0.862153	0.475550
	H724	H	0.062329	0.440798	0.371353
	H725	H	0.076246	0.440695	0.497042
	H726	H	0.070349	0.440843	0.372754
	H727	H	0.070674	0.440849	0.375074
	H728	H	0.052630	0.440775	0.496373
	H729	H	0.062529	0.440728	0.494251
	H730	H	0.076307	0.563792	0.497035
	H731	H	0.062387	0.564381	0.371320
	H732	H	0.062631	0.564187	0.494253
	H733	H	0.052728	0.564351	0.496362
	H734	H	0.070554	0.564273	0.375027
	H735	H	0.070159	0.564634	0.372752
	H736	H	0.092701	0.143916	0.475509
	H737	H	0.093610	0.363806	0.475630
	H738	H	0.052822	0.064216	0.366986
	H739	H	0.041601	0.064608	0.372518
	H740	H	0.078625	0.063961	0.367998
	H741	H	0.034883	0.862477	0.475624
	H742	H	0.034763	0.642383	0.475648
	H743	H	0.034947	0.362198	0.475562
	H744	H	0.034546	0.142210	0.475569
	H745	H	0.034842	0.142052	0.397727
	H746	H	0.093010	0.143408	0.397679
	H747	H	0.092974	0.363436	0.397610
	H748	H	0.034300	0.362404	0.397652
	H749	H	0.097080	0.143770	0.413132
	H750	H	0.097107	0.363727	0.413040
	H751	H	0.075635	0.064168	0.495578
	H752	H	0.064155	0.064072	0.493686
	H753	H	0.050026	0.064278	0.497288
	H754	H	0.041549	0.941090	0.372554
	H755	H	0.052756	0.940726	0.367030
	H756	H	0.078703	0.940606	0.367995
	H757	H	0.075642	0.940107	0.495621
	H758	H	0.064137	0.940713	0.493707
	H759	H	0.049879	0.941190	0.497294
	Zn760	Zn	0.001413	0.680463	0.436632
	Zn761	Zn	0.001296	0.824615	0.436631
	Zn762	Zn	0.001207	0.180575	0.436616
	Zn763	Zn	0.001410	0.324768	0.436620
	Zn764	Zn	0.064019	0.680211	0.499179
	Zn765	Zn	0.064053	0.824871	0.499169
	Zn766	Zn	0.064131	0.180257	0.499055
	Zn767	Zn	0.063769	0.324911	0.499142
	C768	C	0.101581	0.750808	0.423134
	C769	C	0.026081	0.752263	0.450022
	C770	C	0.030525	0.752353	0.459236
	C771	C	0.031529	0.690076	0.463628
	C772	C	0.031601	0.814649	0.463618
	C773	C	0.026101	0.252264	0.449999
	C774	C	0.030508	0.252206	0.459205
	C775	C	0.031443	0.190012	0.463569
	C776	C	0.031687	0.314455	0.463584
	C777	C	0.026042	0.752928	0.423175
	C778	C	0.030472	0.753150	0.413981
	C779	C	0.031439	0.815391	0.409603
	C780	C	0.031651	0.690828	0.409626
	C781	C	0.026217	0.252522	0.423265
	C782	C	0.030517	0.252508	0.414045
	C783	C	0.031366	0.314775	0.409663
	C784	C	0.031627	0.190162	0.409699
	C785	C	0.130948	0.043204	0.437062
	C786	C	0.130901	0.962074	0.437053
	C787	C	0.006150	0.043142	0.434836
	C788	C	0.006165	0.962167	0.434874
	C789	C	-0.005639	0.042997	0.435957
	C790	C	-0.005619	0.962030	0.435973
	C791	C	-0.000160	0.461964	0.435288
	C792	C	0.118347	0.462460	0.436348
	C793	C	0.131034	0.462303	0.434156
	C794	C	-0.000160	0.543005	0.435272
	C795	C	0.131008	0.543298	0.434160
	C796	C	0.118356	0.543131	0.436342
	C797	C	0.101524	0.751715	0.449986
	C798	C	0.101440	0.254156	0.449977
	C799	C	0.097307	0.751666	0.459206
	C800	C	0.096395	0.689420	0.463591
	C801	C	0.096213	0.814119	0.463557
	C802	C	0.097092	0.254292	0.459190
	C803	C	0.095905	0.192029	0.463543
	C804	C	0.096360	0.316367	0.463589
	C805	C	0.101424	0.254146	0.423207
	C806	C	0.088693	0.751215	0.387443
	C807	C	0.039048	0.753291	0.387464
	C808	C	0.039229	0.752447	0.485776
	C809	C	0.096449	0.688436	0.409557
	C810	C	0.096145	0.812944	0.409578
	C811	C	0.093130	0.750926	0.396638
	C812	C	0.034699	0.753253	0.396670
	C813	C	0.033815	0.690928	0.401054
	C814	C	0.094296	0.688566	0.400986
	C815	C	0.094016	0.813186	0.401011
	C816	C	0.033619	0.815479	0.401031
	C817	C	0.097282	0.750669	0.413937
	C818	C	0.088783	0.752177	0.485758
	C819	C	0.094240	0.689559	0.472167
	C820	C	0.094054	0.814200	0.472129
	C821	C	0.093134	0.751930	0.476532
	C822	C	0.073085	0.462055	0.499110
	C823	C	0.068651	0.462272	0.373945
	C824	C	0.059277	0.461957	0.496319
	C825	C	0.073153	0.542932	0.499122
	C826	C	0.059328	0.543024	0.496321
	C827	C	0.068612	0.543175	0.373934
	C828	C	0.088814	0.253237	0.485725
	C829	C	0.093800	0.191822	0.472110
	C830	C	0.094285	0.316229	0.472169
	C831	C	0.093107	0.253901	0.476513
	C832	C	0.051535	0.042997	0.370913
	C833	C	0.088665	0.253207	0.387462
	C834	C	0.039132	0.251972	0.387500
	C835	C	0.039194	0.252087	0.485716
	C836	C	0.096163	0.191440	0.409661
	C837	C	0.096181	0.315995	0.409610
	C838	C	0.093095	0.253353	0.396668
	C839	C	0.034707	0.252215	0.396713
	C840	C	0.034800	0.752351	0.476562
	C841	C	0.033787	0.814707	0.472187
	C842	C	0.033734	0.690055	0.472199
	C843	C	0.034807	0.252103	0.476526
	C844	C	0.033885	0.314400	0.472154
	C845	C	0.033653	0.189985	0.472142
	C846	C	0.033799	0.190022	0.401124
	C847	C	0.094111	0.191286	0.401080
	C848	C	0.094088	0.315644	0.401040
	C849	C	0.033518	0.314562	0.401087
	C850	C	0.097191	0.253851	0.413993
	C851	C	0.068419	0.042983	0.495806
	C852	C	0.077570	0.042940	0.371905
	C853	C	0.051539	0.962095	0.370920
	C854	C	0.068397	0.961922	0.495823
	C855	C	0.077605	0.962004	0.371918
	N856	N	0.001183	0.069973	0.436621
	N857	N	0.001201	0.935203	0.436665
	N858	N	0.001418	0.435209	0.436609
	N859	N	0.001404	0.569858	0.436564
	N860	N	0.063905	0.435194	0.499137
	N861	N	0.064017	0.569853	0.499132
	N862	N	0.064258	0.069892	0.499098
	N863	N	0.064200	0.935239	0.499110
	O864	O	0.104286	0.694214	0.551733
	O865	O	0.104315	0.811047	0.551716
	O866	O	0.023643	0.695463	0.571461
	O867	O	0.023581	0.812197	0.571443
	O868	O	0.023350	0.192600	0.571492
	O869	O	0.023743	0.309370	0.571516
	O870	O	0.023966	0.695087	0.551809
	O871	O	0.023240	0.811886	0.551713
	O872	O	0.023364	0.192489	0.551724
	O873	O	0.023574	0.309302	0.551758
	O874	O	0.104084	0.693988	0.571420
	O875	O	0.104200	0.810882	0.571478
	O876	O	0.104307	0.194558	0.571484
	O877	O	0.104280	0.311366	0.571476
	O878	O	0.104253	0.194548	0.551709
	O879	O	0.104212	0.311363	0.551708
	O880	O	0.086096	0.693887	0.509075
	O881	O	0.041648	0.694610	0.509028
	O882	O	0.085974	0.692939	0.614154
	O883	O	0.086717	0.809866	0.614202
	O884	O	0.041511	0.695394	0.614187
	O885	O	0.042162	0.812222	0.614203
	O886	O	0.041812	0.811658	0.509030
	O887	O	0.086441	0.810839	0.508960
	O888	O	0.086490	0.194652	0.508960
	O889	O	0.041834	0.193462	0.508980
	O890	O	0.086832	0.195022	0.614266
	O891	O	0.086299	0.311910	0.614203
	O892	O	0.042177	0.192599	0.614185
	O893	O	0.041590	0.309489	0.614255
	O894	O	0.041551	0.310237	0.509030
	O895	O	0.086128	0.311558	0.509018
	H896	H	0.030393	0.644318	0.585087
	H897	H	0.030711	0.864287	0.585098
	H898	H	0.030789	0.140501	0.585137
	H899	H	0.030127	0.360776	0.585179
	H900	H	0.030550	0.863372	0.538043
	H901	H	0.030631	0.643346	0.538137
	H902	H	0.030612	0.360791	0.538133
	H903	H	0.030524	0.141118	0.538058
	H904	H	0.137308	0.064311	0.557047
	H905	H	0.123808	0.064236	0.555712
	H906	H	0.123863	0.941066	0.555727
	H907	H	0.137358	0.941349	0.557073
	H908	H	0.142101	0.064748	0.563695
	H909	H	0.142079	0.941416	0.563748
	H910	H	-0.006208	0.064407	0.561995
	H911	H	-0.006317	0.940727	0.562038
	H912	H	-0.002897	0.064506	0.563748
	H913	H	-0.002841	0.940909	0.563792
	H914	H	0.005228	0.064113	0.563551
	H915	H	0.005154	0.940607	0.563536
	H916	H	0.007964	0.440743	0.561312
	H917	H	0.005020	0.440933	0.559660
	H918	H	0.004505	0.440688	0.563678
	H919	H	0.132129	0.441148	0.561816
	H920	H	0.127900	0.440956	0.563464
	H921	H	0.123438	0.440942	0.563122
	H922	H	0.005063	0.564182	0.559660
	H923	H	0.007912	0.564060	0.561290
	H924	H	0.123396	0.564604	0.563127
	H925	H	0.127933	0.564410	0.563463
	H926	H	0.132089	0.564607	0.561788
	H927	H	0.004461	0.564519	0.563666
	H928	H	0.097157	0.641557	0.585037
	H929	H	0.097674	0.861937	0.585136
	H930	H	0.097714	0.143068	0.585129
	H931	H	0.096948	0.363149	0.585087
	H932	H	0.034802	0.643253	0.522678
	H933	H	0.093051	0.642806	0.522668
	H934	H	0.093268	0.862939	0.522614
	H935	H	0.034790	0.863169	0.522623
	H936	H	0.097266	0.642914	0.538083
	H937	H	0.097383	0.862765	0.538050
	H938	H	0.093017	0.641183	0.600494
	H939	H	0.093608	0.861514	0.600571
	H940	H	0.076377	0.440293	0.501137
	H941	H	0.065337	0.440789	0.629291
	H942	H	0.062919	0.440928	0.504035
	H943	H	0.052842	0.441328	0.502041
	H944	H	0.075895	0.441112	0.620973
	H945	H	0.078215	0.440457	0.625319
	H946	H	0.065251	0.564349	0.629272
	H947	H	0.076536	0.564432	0.501149
	H948	H	0.078102	0.564752	0.625315
	H949	H	0.075703	0.564108	0.620954
	H950	H	0.053014	0.564155	0.502024
	H951	H	0.062969	0.564628	0.504050
	H952	H	0.093611	0.143105	0.600572
	H953	H	0.092916	0.363342	0.600526
	H954	H	0.066948	0.064578	0.504406
	H955	H	0.077360	0.063991	0.501785
	H956	H	0.051226	0.065132	0.501825
	H957	H	0.035012	0.864323	0.600535
	H958	H	0.034604	0.644097	0.600517
	H959	H	0.034499	0.360933	0.600603
	H960	H	0.035202	0.140605	0.600565
	H961	H	0.034822	0.141162	0.522627
	H962	H	0.093440	0.143066	0.522608
	H963	H	0.093135	0.363200	0.522598
	H964	H	0.034922	0.361103	0.522698
	H965	H	0.097490	0.143133	0.538055
	H966	H	0.097232	0.363236	0.538027
	H967	H	0.065744	0.064554	0.618231
	H968	H	0.052689	0.063925	0.619972
	H969	H	0.049592	0.064150	0.626718
	H970	H	0.077281	0.941162	0.501805
	H971	H	0.066994	0.940950	0.504463
	H972	H	0.051081	0.940838	0.501837
	H973	H	0.065687	0.940668	0.618216
	H974	H	0.052712	0.941002	0.619986
	H975	H	0.049660	0.940896	0.626729
	Zn976	Zn	0.001430	0.679915	0.561593
	Zn977	Zn	0.000858	0.825074	0.561598
	Zn978	Zn	0.000820	0.179992	0.561584
	Zn979	Zn	0.001543	0.324901	0.561651
	Zn980	Zn	0.063818	0.679986	0.624050
	Zn981	Zn	0.064542	0.825141	0.624100
	Zn982	Zn	0.064427	0.179898	0.624075
	Zn983	Zn	0.063897	0.325080	0.624063
	C984	C	0.101724	0.752593	0.548226
	C985	C	0.026104	0.753958	0.574953
	C986	C	0.030520	0.754321	0.584164
	C987	C	0.031513	0.692021	0.588531
	C988	C	0.031680	0.816497	0.588547
	C989	C	0.026079	0.250828	0.575004
	C990	C	0.030600	0.250689	0.584195
	C991	C	0.031807	0.188381	0.588563
	C992	C	0.031465	0.312950	0.588588
	C993	C	0.026114	0.753417	0.548252
	C994	C	0.030548	0.753322	0.539046
	C995	C	0.031569	0.815470	0.534641
	C996	C	0.031582	0.691043	0.534690
	C997	C	0.026027	0.250916	0.548237
	C998	C	0.030516	0.250969	0.539033
	C999	C	0.031584	0.313170	0.534674
	C1000	C	0.031564	0.188829	0.534636
	C1001	C	0.129491	0.043196	0.557763
	C1002	C	0.129523	0.962257	0.557764
	C1003	C	-0.003177	0.043030	0.562546
	C1004	C	-0.003197	0.962042	0.562554
	C1005	C	0.004941	0.043114	0.562319
	C1006	C	0.005025	0.962295	0.562311
	C1007	C	0.005202	0.462088	0.560785
	C1008	C	0.130173	0.462232	0.561171
	C1009	C	0.125971	0.462177	0.562842
	C1010	C	0.005212	0.542822	0.560769
	C1011	C	0.125935	0.543265	0.562836
	C1012	C	0.130151	0.543035	0.561173
	C1013	C	0.101652	0.752323	0.574944
	C1014	C	0.101781	0.253012	0.574988
	C1015	C	0.097270	0.751821	0.584146
	C1016	C	0.096186	0.689314	0.588496
	C1017	C	0.096486	0.814007	0.588538
	C1018	C	0.097325	0.253174	0.584183
	C1019	C	0.096519	0.190889	0.588562
	C1020	C	0.096134	0.315451	0.588543
	C1021	C	0.101775	0.252930	0.548203
	C1022	C	0.088714	0.752575	0.512518
	C1023	C	0.039235	0.753175	0.512523
	C1024	C	0.039303	0.753983	0.610690
	C1025	C	0.096253	0.690617	0.534653
	C1026	C	0.096348	0.814942	0.534621
	C1027	C	0.093148	0.752848	0.521696
	C1028	C	0.034761	0.753190	0.521722
	C1029	C	0.033757	0.690994	0.526115
	C1030	C	0.094105	0.690596	0.526087
	C1031	C	0.094234	0.815135	0.526048
	C1032	C	0.033772	0.815447	0.526073
	C1033	C	0.097319	0.752790	0.539015
	C1034	C	0.088816	0.751369	0.610672
	C1035	C	0.094079	0.689134	0.597073
	C1036	C	0.094423	0.813705	0.597109
	C1037	C	0.093184	0.751377	0.601466
	C1038	C	0.060679	0.462321	0.627354
	C1039	C	0.059512	0.462258	0.502008
	C1040	C	0.073579	0.462036	0.623376
	C1041	C	0.060672	0.542835	0.627343
	C1042	C	0.073528	0.542922	0.623369
	C1043	C	0.059565	0.542945	0.502025
	C1044	C	0.088977	0.253413	0.610726
	C1045	C	0.094401	0.190986	0.597139
	C1046	C	0.094001	0.315483	0.597116
	C1047	C	0.093226	0.253299	0.601517
	C1048	C	0.070096	0.042899	0.502056
	C1049	C	0.088770	0.253041	0.512493
	C1050	C	0.039237	0.251661	0.512509
	C1051	C	0.039374	0.251056	0.610717
	C1052	C	0.096458	0.190800	0.534620
	C1053	C	0.096304	0.315388	0.534607
	C1054	C	0.093270	0.253001	0.521675
	C1055	C	0.034790	0.251246	0.521713
	C1056	C	0.034885	0.754293	0.601492
	C1057	C	0.033948	0.816467	0.597118
	C1058	C	0.033727	0.692066	0.597099
	C1059	C	0.034957	0.250846	0.601510
	C1060	C	0.033647	0.313077	0.597158
	C1061	C	0.034034	0.188486	0.597135
	C1062	C	0.033754	0.188960	0.526066
	C1063	C	0.094324	0.190808	0.526048
	C1064	C	0.094158	0.315390	0.526034
	C1065	C	0.033760	0.313275	0.526104
	C1066	C	0.097379	0.253031	0.538993
	C1067	C	0.060631	0.043061	0.620418
	C1068	C	0.054161	0.043284	0.499437
	C1069	C	0.070015	0.962377	0.502086
	C1070	C	0.060619	0.962142	0.620424
	C1071	C	0.054133	0.962155	0.499455
	N1072	N	0.000666	0.069821	0.561581
	N1073	N	0.000688	0.935279	0.561586
	N1074	N	0.001567	0.435205	0.561632
	N1075	N	0.001538	0.569772	0.561604
	N1076	N	0.063957	0.435199	0.624054
	N1077	N	0.063913	0.569784	0.624053
	N1078	N	0.064475	0.069820	0.624136
	N1079	N	0.064496	0.935301	0.624128
	O1080	O	0.103935	0.693397	0.676776
	O1081	O	0.103902	0.810327	0.676729
	O1082	O	0.023866	0.694142	0.696567
	O1083	O	0.023897	0.811060	0.696511
	O1084	O	0.024181	0.194167	0.696456
	O1085	O	0.023908	0.311188	0.696495
	O1086	O	0.023986	0.693905	0.676669
	O1087	O	0.024201	0.810923	0.676737
	O1088	O	0.024232	0.194358	0.676748
	O1089	O	0.023839	0.311236	0.676669
	O1090	O	0.104153	0.693316	0.696495
	O1091	O	0.103773	0.810085	0.696470
	O1092	O	0.103780	0.195057	0.696508
	O1093	O	0.104320	0.311883	0.696564
	O1094	O	0.103927	0.194952	0.676751
	O1095	O	0.103959	0.311826	0.676783
	O1096	O	0.086213	0.692810	0.633966
	O1097	O	0.041607	0.694970	0.633906
	O1098	O	0.086005	0.693129	0.739233
	O1099	O	0.086211	0.809956	0.739254
	O1100	O	0.041239	0.695470	0.739363
	O1101	O	0.041763	0.812195	0.739267
	O1102	O	0.042136	0.811860	0.633978
	O1103	O	0.086721	0.809680	0.633961
	O1104	O	0.086557	0.195115	0.633997
	O1105	O	0.041812	0.193114	0.633917
	O1106	O	0.086356	0.194882	0.739253
	O1107	O	0.086487	0.311989	0.739280
	O1108	O	0.041815	0.193549	0.739199
	O1109	O	0.041541	0.310272	0.739265
	O1110	O	0.041573	0.310042	0.633905
	O1111	O	0.086038	0.311952	0.634028
	H1112	H	0.030502	0.642973	0.710260
	H1113	H	0.030720	0.863237	0.710139
	H1114	H	0.030964	0.142278	0.710091
	H1115	H	0.030360	0.362345	0.710191
	H1116	H	0.031564	0.862828	0.663109
	H1117	H	0.030315	0.642791	0.662984
	H1118	H	0.030388	0.362632	0.662985
	H1119	H	0.031133	0.142451	0.663101
	H1120	H	0.128440	0.064424	0.681762
	H1121	H	0.117216	0.064406	0.682843
	H1122	H	0.117198	0.940853	0.682822
	H1123	H	0.128464	0.940882	0.681773
	H1124	H	0.139801	0.064424	0.685823
	H1125	H	0.139749	0.940625	0.685808
	H1126	H	0.014347	0.063590	0.679508
	H1127	H	0.014334	0.940679	0.679540
	H1128	H	-0.005203	0.064328	0.678641
	H1129	H	-0.005166	0.940646	0.678630
	H1130	H	-0.021399	0.064463	0.686281
	H1131	H	-0.021453	0.940681	0.686273
	H1132	H	0.007279	0.441093	0.688074
	H1133	H	0.008525	0.440981	0.686026
	H1134	H	-0.000229	0.440609	0.688953
	H1135	H	0.128802	0.441360	0.692106
	H1136	H	0.112986	0.441065	0.689310
	H1137	H	0.112152	0.441013	0.684672
	H1138	H	0.008514	0.564631	0.686043
	H1139	H	0.007326	0.564299	0.688060
	H1140	H	0.112122	0.564727	0.684681
	H1141	H	0.113031	0.564860	0.689310
	H1142	H	0.128996	0.564539	0.692089
	H1143	H	-0.000142	0.564028	0.688960
	H1144	H	0.097211	0.641595	0.710122
	H1145	H	0.097046	0.861554	0.710177
	H1146	H	0.097001	0.143455	0.710167
	H1147	H	0.097281	0.363626	0.710179
	H1148	H	0.034490	0.643007	0.647567
	H1149	H	0.092323	0.640735	0.647700
	H1150	H	0.093684	0.860892	0.647597
	H1151	H	0.035738	0.863309	0.647667
	H1152	H	0.096372	0.641020	0.663151
	H1153	H	0.097760	0.861154	0.663028
	H1154	H	0.092992	0.641456	0.725560
	H1155	H	0.092904	0.861514	0.725576
	H1156	H	0.053710	0.441204	0.627799
	H1157	H	0.048362	0.440658	0.750100
	H1158	H	0.050535	0.440546	0.621872
	H1159	H	0.059978	0.440774	0.618982
	H1160	H	0.073809	0.440967	0.753409
	H1161	H	0.061077	0.440617	0.754636
	H1162	H	0.048293	0.564078	0.750096
	H1163	H	0.053691	0.564057	0.627789
	H1164	H	0.061100	0.564405	0.754675
	H1165	H	0.073816	0.564470	0.753419
	H1166	H	0.059883	0.564305	0.618970
	H1167	H	0.050598	0.564303	0.621887
	H1168	H	0.092932	0.143426	0.725596
	H1169	H	0.093108	0.363513	0.725639
	H1170	H	0.078108	0.063994	0.627447
	H1171	H	0.080396	0.064084	0.622520
	H1172	H	0.060376	0.064552	0.629858
	H1173	H	0.034795	0.863760	0.725571
	H1174	H	0.034538	0.643484	0.725697
	H1175	H	0.034485	0.362172	0.725613
	H1176	H	0.035188	0.141866	0.725539
	H1177	H	0.035218	0.141807	0.647670
	H1178	H	0.093504	0.143517	0.647628
	H1179	H	0.092948	0.363824	0.647673
	H1180	H	0.034482	0.362166	0.647540
	H1181	H	0.097459	0.143564	0.663064
	H1182	H	0.096881	0.363703	0.663135
	H1183	H	0.060820	0.064427	0.756612
	H1184	H	0.077868	0.064859	0.754849
	H1185	H	0.083682	0.064470	0.746422
	H1186	H	0.080342	0.940641	0.622516
	H1187	H	0.078231	0.940742	0.627429
	H1188	H	0.060338	0.940565	0.629868
	H1189	H	0.060948	0.940732	0.756654
	H1190	H	0.077951	0.940971	0.754904
	H1191	H	0.083797	0.940929	0.746413
	Zn1192	Zn	0.001863	0.680090	0.686612
	Zn1193	Zn	0.001777	0.825051	0.686619
	Zn1194	Zn	0.001900	0.179887	0.686597
	Zn1195	Zn	0.001725	0.324826	0.686605
	Zn1196	Zn	0.063662	0.679906	0.749160
	Zn1197	Zn	0.064206	0.825062	0.749163
	Zn1198	Zn	0.064012	0.180009	0.749117
	Zn1199	Zn	0.063747	0.325168	0.749111
	C1200	C	0.101463	0.751717	0.673248
	C1201	C	0.026360	0.752724	0.700044
	C1202	C	0.030710	0.753042	0.709265
	C1203	C	0.031614	0.690911	0.713674
	C1204	C	0.031758	0.815494	0.713601
	C1205	C	0.026472	0.252671	0.699973
	C1206	C	0.030721	0.252391	0.709194
	C1207	C	0.031879	0.190002	0.713547
	C1208	C	0.031541	0.314509	0.713596
	C1209	C	0.026546	0.752511	0.673197
	C1210	C	0.030918	0.752791	0.663979
	C1211	C	0.032312	0.815157	0.659640
	C1212	C	0.031586	0.690706	0.659568
	C1213	C	0.026482	0.252723	0.673194
	C1214	C	0.030809	0.252626	0.663982
	C1215	C	0.031569	0.314739	0.659571
	C1216	C	0.032013	0.190172	0.659640
	C1217	C	0.123700	0.042987	0.683438
	C1218	C	0.123717	0.962177	0.683442
	C1219	C	0.003872	0.042693	0.681057
	C1220	C	0.003859	0.962096	0.681063
	C1221	C	-0.012544	0.043088	0.688765
	C1222	C	-0.012561	0.962334	0.688769
	C1223	C	0.006287	0.462069	0.686932
	C1224	C	0.132174	0.462375	0.689719
	C1225	C	0.116218	0.462267	0.686905
	C1226	C	0.006339	0.542985	0.686919
	C1227	C	0.116235	0.543285	0.686911
	C1228	C	0.132232	0.543121	0.689713
	C1229	C	0.101480	0.751680	0.700005
	C1230	C	0.101584	0.253467	0.700043
	C1231	C	0.097169	0.751589	0.709216
	C1232	C	0.096188	0.689290	0.713572
	C1233	C	0.096126	0.813763	0.713595
	C1234	C	0.097133	0.253562	0.709245
	C1235	C	0.096080	0.191213	0.713600
	C1236	C	0.096202	0.315869	0.713615
	C1237	C	0.101499	0.253473	0.673257
	C1238	C	0.088858	0.751132	0.637477
	C1239	C	0.039436	0.753358	0.637449
	C1240	C	0.039028	0.753735	0.735805
	C1241	C	0.095741	0.688788	0.659689
	C1242	C	0.096470	0.813274	0.659622
	C1243	C	0.093119	0.750861	0.646684
	C1244	C	0.035083	0.753249	0.646644
	C1245	C	0.033750	0.690904	0.650996
	C1246	C	0.093651	0.688606	0.651107
	C1247	C	0.094410	0.813176	0.651043
	C1248	C	0.034487	0.815376	0.651063
	C1249	C	0.097110	0.751201	0.664023
	C1250	C	0.088588	0.751544	0.735746
	C1251	C	0.094051	0.689286	0.722146
	C1252	C	0.093987	0.813689	0.722166
	C1253	C	0.092984	0.751469	0.726549
	C1254	C	0.053626	0.462107	0.748156
	C1255	C	0.057547	0.462084	0.621356
	C1256	C	0.066468	0.462070	0.752739
	C1257	C	0.053585	0.542862	0.748174
	C1258	C	0.066470	0.543068	0.752758
	C1259	C	0.057526	0.543162	0.621371
	C1260	C	0.088770	0.253467	0.735773
	C1261	C	0.093967	0.191237	0.722172
	C1262	C	0.094071	0.315794	0.722195
	C1263	C	0.093060	0.253471	0.726561
	C1264	C	0.075384	0.042751	0.624754
	C1265	C	0.088802	0.253588	0.637514
	C1266	C	0.039197	0.251578	0.637414
	C1267	C	0.039198	0.252002	0.735720
	C1268	C	0.096390	0.191344	0.659636
	C1269	C	0.096078	0.315942	0.659672
	C1270	C	0.093138	0.253792	0.646700
	C1271	C	0.034918	0.251961	0.646629
	C1272	C	0.034762	0.753595	0.726602
	C1273	C	0.033826	0.815749	0.722179
	C1274	C	0.033662	0.691218	0.722250
	C1275	C	0.034835	0.252049	0.726520
	C1276	C	0.033651	0.314396	0.722168
	C1277	C	0.033994	0.189812	0.722122
	C1278	C	0.034100	0.189892	0.651057
	C1279	C	0.094295	0.191388	0.651064
	C1280	C	0.093946	0.316003	0.651095
	C1281	C	0.033681	0.314356	0.650989
	C1282	C	0.097204	0.253637	0.664029
	C1283	C	0.067972	0.043145	0.754019
	C1284	C	0.057491	0.043044	0.627193
	C1285	C	0.075401	0.962050	0.624756
	C1286	C	0.068018	0.962080	0.754039
	C1287	C	0.057515	0.961957	0.627200
	N1288	N	0.001885	0.069901	0.686616
	N1289	N	0.001869	0.935426	0.686614
	N1290	N	0.001806	0.435140	0.686592
	N1291	N	0.001879	0.569719	0.686590
	N1292	N	0.063705	0.435406	0.749111
	N1293	N	0.063679	0.569903	0.749115
	N1294	N	0.064114	0.069676	0.749125
	N1295	N	0.064126	0.935122	0.749145
	O1296	O	0.103913	0.694310	0.801781
	O1297	O	0.104254	0.811124	0.801731
	O1298	O	0.023451	0.693218	0.821521
	O1299	O	0.023847	0.810012	0.821491
	O1300	O	0.024015	0.195804	0.821458
	O1301	O	0.023541	0.312630	0.821487
	O1302	O	0.023441	0.693549	0.801693
	O1303	O	0.023867	0.810411	0.801773
	O1304	O	0.023726	0.195203	0.801748
	O1305	O	0.023218	0.312186	0.801684
	O1306	O	0.103756	0.695020	0.821571
	O1307	O	0.103999	0.811878	0.821524
	O1308	O	0.104246	0.193643	0.821578
	O1309	O	0.103813	0.310539	0.821544
	O1310	O	0.104181	0.193623	0.801718
	O1311	O	0.103634	0.310472	0.801807
	O1312	O	0.085846	0.693046	0.759071
	O1313	O	0.041201	0.694776	0.758973
	O1314	O	0.086093	0.694752	0.864258
	O1315	O	0.085603	0.811623	0.864280
	O1316	O	0.041504	0.693357	0.864261
	O1317	O	0.041108	0.810132	0.864279
	O1318	O	0.041816	0.811680	0.759033
	O1319	O	0.086540	0.809777	0.759003
	O1320	O	0.086339	0.194464	0.758980
	O1321	O	0.041757	0.193502	0.759040
	O1322	O	0.085972	0.193663	0.864342
	O1323	O	0.086100	0.310429	0.864335
	O1324	O	0.041273	0.195097	0.864232
	O1325	O	0.041510	0.312069	0.864247
	O1326	O	0.041217	0.310372	0.758918
	O1327	O	0.085866	0.311379	0.759078
	H1328	H	0.030302	0.641607	0.835169
	H1329	H	0.030686	0.861504	0.835109
	H1330	H	0.030544	0.143914	0.835117
	H1331	H	0.030576	0.364290	0.835160
	H1332	H	0.031083	0.862269	0.788185
	H1333	H	0.029987	0.642143	0.788006
	H1334	H	0.029805	0.363456	0.787974
	H1335	H	0.031145	0.143138	0.788152
	H1336	H	0.129164	0.064219	0.808255
	H1337	H	0.121064	0.064420	0.808753
	H1338	H	0.121043	0.941077	0.808767
	H1339	H	0.129175	0.940435	0.808326
	H1340	H	0.136233	0.064177	0.811459
	H1341	H	0.136184	0.940447	0.811481
	H1342	H	0.023896	0.064117	0.811647
	H1343	H	0.023914	0.940659	0.811600
	H1344	H	0.015912	0.064143	0.805540
	H1345	H	0.015950	0.940502	0.805517
	H1346	H	-0.009480	0.064577	0.804813
	H1347	H	-0.009615	0.940949	0.804750
	H1348	H	0.010497	0.440512	0.815012
	H1349	H	0.014378	0.440612	0.811185
	H1350	H	-0.004561	0.440908	0.816026
	H1351	H	0.131778	0.440479	0.810022
	H1352	H	0.132254	0.440314	0.813047
	H1353	H	0.127117	0.440457	0.814261
	H1354	H	0.014372	0.564368	0.811166
	H1355	H	0.010727	0.564268	0.814979
	H1356	H	0.127138	0.563868	0.814306
	H1357	H	0.132383	0.563888	0.813050
	H1358	H	0.131736	0.564216	0.809989
	H1359	H	-0.004559	0.564206	0.816006
	H1360	H	0.097038	0.643506	0.835178
	H1361	H	0.097074	0.863645	0.835185
	H1362	H	0.097564	0.142037	0.835243
	H1363	H	0.096766	0.362171	0.835252
	H1364	H	0.034107	0.642780	0.772549
	H1365	H	0.092519	0.641657	0.772744
	H1366	H	0.093492	0.861940	0.772599
	H1367	H	0.035061	0.863009	0.772743
	H1368	H	0.096634	0.642443	0.788167
	H1369	H	0.097563	0.862487	0.788050
	H1370	H	0.092869	0.643337	0.850615
	H1371	H	0.092801	0.863723	0.850615
	H1372	H	0.051674	0.440708	0.745528
	H1373	H	0.066596	0.440361	0.874535
	H1374	H	0.069129	0.440832	0.743851
	H1375	H	0.078384	0.441049	0.747179
	H1376	H	0.063455	0.440969	0.873176
	H1377	H	0.065732	0.440837	0.873389
	H1378	H	0.066773	0.564039	0.874538
	H1379	H	0.051595	0.563980	0.745545
	H1380	H	0.065857	0.564459	0.873337
	H1381	H	0.063428	0.564166	0.873139
	H1382	H	0.078443	0.564460	0.747193
	H1383	H	0.069002	0.564387	0.743819
	H1384	H	0.093356	0.141980	0.850684
	H1385	H	0.092671	0.361989	0.850677
	H1386	H	0.047730	0.063946	0.744411
	H1387	H	0.043434	0.064214	0.750605
	H1388	H	0.070949	0.064023	0.741993
	H1389	H	0.034656	0.861837	0.850568
	H1390	H	0.034371	0.641605	0.850591
	H1391	H	0.034686	0.364075	0.850597
	H1392	H	0.034622	0.143707	0.850572
	H1393	H	0.035396	0.142411	0.772731
	H1394	H	0.093367	0.142665	0.772597
	H1395	H	0.092262	0.362689	0.772789
	H1396	H	0.034046	0.362637	0.772538
	H1397	H	0.097647	0.142026	0.788028
	H1398	H	0.096497	0.362330	0.788213
	H1399	H	0.068309	0.064057	0.874564
	H1400	H	0.067487	0.063972	0.873041
	H1401	H	0.062028	0.064025	0.872390
	H1402	H	0.043430	0.940618	0.750595
	H1403	H	0.047610	0.940774	0.744409
	H1404	H	0.070970	0.940639	0.742006
	H1405	H	0.068369	0.940489	0.874565
	H1406	H	0.067349	0.940323	0.873082
	H1407	H	0.061952	0.940775	0.872377
	Zn1408	Zn	0.001048	0.680320	0.811625
	Zn1409	Zn	0.001572	0.824973	0.811602
	Zn1410	Zn	0.001694	0.180319	0.811659
	Zn1411	Zn	0.000888	0.324982	0.811656
	Zn1412	Zn	0.063841	0.680016	0.874142
	Zn1413	Zn	0.063296	0.824819	0.874190
	Zn1414	Zn	0.063385	0.180088	0.874154
	Zn1415	Zn	0.063705	0.324868	0.874181
	C1416	C	0.101611	0.752663	0.798248
	C1417	C	0.026184	0.751571	0.825007
	C1418	C	0.030489	0.751623	0.834215
	C1419	C	0.031334	0.689395	0.838601
	C1420	C	0.031540	0.813844	0.838575
	C1421	C	0.026259	0.254241	0.824982
	C1422	C	0.030695	0.254127	0.834197
	C1423	C	0.031625	0.191693	0.838559
	C1424	C	0.031656	0.316403	0.838584
	C1425	C	0.026161	0.752007	0.798229
	C1426	C	0.030513	0.752219	0.789026
	C1427	C	0.031816	0.814687	0.784714
	C1428	C	0.031239	0.690081	0.784605
	C1429	C	0.025919	0.253660	0.798218
	C1430	C	0.030358	0.253361	0.789014
	C1431	C	0.031045	0.315478	0.784588
	C1432	C	0.031806	0.190806	0.784693
	C1433	C	0.125441	0.042929	0.809349
	C1434	C	0.125463	0.962052	0.809358
	C1435	C	0.015130	0.042878	0.809401
	C1436	C	0.015121	0.961971	0.809376
	C1437	C	-0.010490	0.043233	0.808621
	C1438	C	-0.010510	0.962156	0.808614
	C1439	C	0.009467	0.462001	0.812722
	C1440	C	0.128209	0.461864	0.810077
	C1441	C	0.128743	0.461914	0.813132
	C1442	C	0.009488	0.543117	0.812708
	C1443	C	0.128760	0.542719	0.813138
	C1444	C	0.128179	0.542788	0.810084
	C1445	C	0.101373	0.753587	0.825048
	C1446	C	0.101607	0.252081	0.825076
	C1447	C	0.097057	0.753640	0.834262
	C1448	C	0.096037	0.691285	0.838624
	C1449	C	0.096061	0.815841	0.838627
	C1450	C	0.097107	0.252036	0.834279
	C1451	C	0.096285	0.189794	0.838663
	C1452	C	0.095886	0.314211	0.838664
	C1453	C	0.101499	0.252088	0.798259
	C1454	C	0.088696	0.751398	0.762541
	C1455	C	0.039021	0.753239	0.762499
	C1456	C	0.038923	0.751698	0.860751
	C1457	C	0.095793	0.690076	0.784710
	C1458	C	0.096351	0.814565	0.784642
	C1459	C	0.092951	0.751734	0.771741
	C1460	C	0.034727	0.752992	0.771711
	C1461	C	0.033381	0.690401	0.776029
	C1462	C	0.093627	0.689669	0.776143
	C1463	C	0.094213	0.814200	0.776068
	C1464	C	0.033975	0.815057	0.776143
	C1465	C	0.097174	0.752473	0.789052
	C1466	C	0.088375	0.753359	0.860773
	C1467	C	0.093924	0.691276	0.847198
	C1468	C	0.093912	0.815836	0.847199
	C1469	C	0.092886	0.753620	0.851581
	C1470	C	0.065276	0.461907	0.874676
	C1471	C	0.071101	0.462184	0.746460
	C1472	C	0.064405	0.462316	0.873503
	C1473	C	0.065345	0.542710	0.874663
	C1474	C	0.064441	0.542926	0.873484
	C1475	C	0.071071	0.543138	0.746474
	C1476	C	0.088548	0.252002	0.860838
	C1477	C	0.094129	0.189789	0.847242
	C1478	C	0.093745	0.314193	0.847240
	C1479	C	0.092940	0.251939	0.851621
	C1480	C	0.050407	0.042751	0.747938
	C1481	C	0.088553	0.252827	0.762542
	C1482	C	0.039051	0.252098	0.762490
	C1483	C	0.038976	0.253678	0.860742
	C1484	C	0.096379	0.189984	0.784646
	C1485	C	0.095724	0.314502	0.784759
	C1486	C	0.092957	0.252681	0.771755
	C1487	C	0.034612	0.252500	0.771697
	C1488	C	0.034575	0.751731	0.851544
	C1489	C	0.033632	0.813915	0.847148
	C1490	C	0.033465	0.689481	0.847172
	C1491	C	0.034755	0.253807	0.851519
	C1492	C	0.033741	0.316234	0.847159
	C1493	C	0.033721	0.191553	0.847139
	C1494	C	0.034033	0.190404	0.776122
	C1495	C	0.094247	0.190260	0.776075
	C1496	C	0.093602	0.314747	0.776187
	C1497	C	0.033276	0.315041	0.776020
	C1498	C	0.097096	0.252121	0.789074
	C1499	C	0.066710	0.042810	0.873882
	C1500	C	0.073832	0.043018	0.745517
	C1501	C	0.050406	0.961990	0.747943
	C1502	C	0.066689	0.961821	0.873893
	C1503	C	0.073897	0.962205	0.745512
	N1504	N	0.001671	0.069925	0.811666
	N1505	N	0.001656	0.935280	0.811643
	N1506	N	0.000979	0.435210	0.811632
	N1507	N	0.001004	0.569928	0.811611
	N1508	N	0.063928	0.435086	0.874208
	N1509	N	0.063970	0.569702	0.874179
	N1510	N	0.063378	0.069676	0.874145
	N1511	N	0.063324	0.935080	0.874158
	O1512	O	0.103903	0.694571	0.926752
	O1513	O	0.104198	0.811372	0.926784
	O1514	O	0.023525	0.693454	0.946518
	O1515	O	0.024059	0.810118	0.946441
	O1516	O	0.023646	0.195019	0.946465
	O1517	O	0.023575	0.311913	0.946466
	O1518	O	0.023454	0.692823	0.926777
	O1519	O	0.023663	0.809578	0.926753
	O1520	O	0.023681	0.194193	0.926801
	O1521	O	0.023431	0.311140	0.926771
	O1522	O	0.103929	0.694767	0.946433
	O1523	O	0.104464	0.811601	0.946487
	O1524	O	0.104553	0.192840	0.946562
	O1525	O	0.103795	0.309795	0.946455
	O1526	O	0.103938	0.193151	0.926869
	O1527	O	0.103864	0.309895	0.926827
	O1528	O	0.086036	0.694709	0.884004
	O1529	O	0.041337	0.692976	0.884002
	O1530	O	0.085958	0.694189	0.989181
	O1531	O	0.085997	0.811150	0.989195
	O1532	O	0.041406	0.693989	0.989250
	O1533	O	0.041498	0.810831	0.989245
	O1534	O	0.041216	0.809705	0.884047
	O1535	O	0.085901	0.811541	0.884004
	O1536	O	0.085626	0.193145	0.884067
	O1537	O	0.041136	0.194433	0.884009
	O1538	O	0.086231	0.193576	0.989241
	O1539	O	0.086161	0.310229	0.989222
	O1540	O	0.041463	0.194250	0.989206
	O1541	O	0.041464	0.311370	0.989240
	O1542	O	0.041150	0.311169	0.884017
	O1543	O	0.085975	0.309927	0.884093
	H1544	H	0.030151	0.642257	0.960180
	H1545	H	0.030882	0.862082	0.960134
	H1546	H	0.031197	0.143303	0.960080
	H1547	H	0.029955	0.363471	0.960175
	H1548	H	0.030565	0.860910	0.913130
	H1549	H	0.030444	0.640906	0.913115
	H1550	H	0.030338	0.362140	0.913144
	H1551	H	0.030475	0.142302	0.913090
	H1552	H	0.122790	0.064017	0.937874
	H1553	H	0.126906	0.063901	0.938516
	H1554	H	0.126833	0.940794	0.938487
	H1555	H	0.122725	0.940189	0.937838
	H1556	H	0.122076	0.063930	0.935690
	H1557	H	0.122103	0.940757	0.935674
	H1558	H	-0.015031	0.064185	0.938006
	H1559	H	-0.014956	0.940871	0.937963
	H1560	H	-0.006307	0.064248	0.942018
	H1561	H	-0.006282	0.940309	0.942011
	H1562	H	0.013004	0.064626	0.941058
	H1563	H	0.013005	0.940804	0.941057
	H1564	H	-0.010262	0.440871	0.937796
	H1565	H	-0.003728	0.440546	0.940501
	H1566	H	-0.005826	0.440603	0.933162
	H1567	H	0.141136	0.440557	0.936931
	H1568	H	0.130678	0.440192	0.941716
	H1569	H	0.118311	0.440748	0.941085
	H1570	H	-0.003801	0.563977	0.940518
	H1571	H	-0.010303	0.563901	0.937810
	H1572	H	0.118303	0.564293	0.941057
	H1573	H	0.130555	0.564370	0.941724
	H1574	H	0.141093	0.563753	0.936911
	H1575	H	-0.005881	0.564269	0.933183
	H1576	H	0.096952	0.643082	0.960091
	H1577	H	0.097482	0.863129	0.960140
	H1578	H	0.097770	0.141387	0.960176
	H1579	H	0.096656	0.361403	0.960068
	H1580	H	0.034394	0.640880	0.897676
	H1581	H	0.092656	0.643166	0.897688
	H1582	H	0.093269	0.863284	0.897681
	H1583	H	0.034531	0.860951	0.897690
	H1584	H	0.096848	0.643294	0.913113
	H1585	H	0.097536	0.863238	0.913113
	H1586	H	0.092799	0.642932	0.975525
	H1587	H	0.093286	0.862880	0.975579
	H1588	H	0.064925	0.440714	0.875173
	H1589	H	0.061212	0.440585	1.004018
	H1590	H	0.061675	0.440693	0.874846
	H1591	H	0.061018	0.440682	0.873999
	H1592	H	0.077012	0.440673	0.997442
	H1593	H	0.075925	0.440689	1.001656
	H1594	H	0.061183	0.563934	1.004076
	H1595	H	0.065016	0.563758	0.875156
	H1596	H	0.075751	0.564135	1.001649
	H1597	H	0.076878	0.564228	0.997450
	H1598	H	0.061047	0.564547	0.873953
	H1599	H	0.061682	0.564098	0.874861
	H1600	H	0.093523	0.141614	0.975616
	H1601	H	0.092469	0.361756	0.975493
	H1602	H	0.059879	0.064396	0.875455
	H1603	H	0.063944	0.064081	0.875920
	H1604	H	0.058730	0.064237	0.873392
	H1605	H	0.034834	0.862397	0.975571
	H1606	H	0.034178	0.642481	0.975637
	H1607	H	0.034214	0.363187	0.975602
	H1608	H	0.035391	0.142973	0.975517
	H1609	H	0.034477	0.142352	0.897676
	H1610	H	0.092782	0.141228	0.897733
	H1611	H	0.092697	0.361175	0.897749
	H1612	H	0.034256	0.362463	0.897685
	H1613	H	0.096934	0.141158	0.913155
	H1614	H	0.096770	0.361110	0.913186
	H1615	H	0.073286	0.064060	1.000395
	H1616	H	0.072679	0.064038	0.997317
	H1617	H	0.061924	0.064401	0.995453
	H1618	H	0.063887	0.940803	0.875957
	H1619	H	0.059845	0.940930	0.875446
	H1620	H	0.058678	0.940848	0.873372
	H1621	H	0.073218	0.940434	1.000413
	H1622	H	0.072542	0.940690	0.997298
	H1623	H	0.061899	0.940690	0.995471
	Zn1624	Zn	0.001056	0.679868	0.936665
	Zn1625	Zn	0.001597	0.824936	0.936599
	Zn1626	Zn	0.001346	0.180022	0.936611
	Zn1627	Zn	0.001155	0.324923	0.936597
	Zn1628	Zn	0.063777	0.679812	0.999105
	Zn1629	Zn	0.063855	0.824808	0.999124
	Zn1630	Zn	0.063737	0.180024	0.999086
	Zn1631	Zn	0.063997	0.324785	0.999103
	C1632	C	0.101608	0.753101	0.923262
	C1633	C	0.026238	0.751841	0.949992
	C1634	C	0.030497	0.752150	0.959212
	C1635	C	0.031290	0.690070	0.963607
	C1636	C	0.031692	0.814342	0.963578
	C1637	C	0.026072	0.253471	0.949969
	C1638	C	0.030505	0.253411	0.959192
	C1639	C	0.031913	0.191021	0.963537
	C1640	C	0.031249	0.315583	0.963588
	C1641	C	0.026059	0.751052	0.923269
	C1642	C	0.030438	0.750936	0.914070
	C1643	C	0.031498	0.813143	0.909703
	C1644	C	0.031401	0.688761	0.909689
	C1645	C	0.026033	0.252603	0.923282
	C1646	C	0.030450	0.252273	0.914062
	C1647	C	0.031362	0.314492	0.909689
	C1648	C	0.031447	0.190091	0.909664
	C1649	C	0.125340	0.042705	0.937763
	C1650	C	0.125298	0.961898	0.937753
	C1651	C	-0.007460	0.042846	0.939117
	C1652	C	-0.007451	0.962059	0.939106
	C1653	C	0.011916	0.043030	0.938153
	C1654	C	0.011984	0.962226	0.938163
	C1655	C	-0.004903	0.461973	0.938475
	C1656	C	0.135523	0.462093	0.935308
	C1657	C	0.124950	0.461870	0.940141
	C1658	C	-0.004892	0.542683	0.938502
	C1659	C	0.124949	0.542964	0.940139
	C1660	C	0.135529	0.542793	0.935304
	C1661	C	0.101654	0.753180	0.949956
	C1662	C	0.101666	0.251390	0.949994
	C1663	C	0.097193	0.753214	0.959165
	C1664	C	0.096068	0.690893	0.963529
	C1665	C	0.096366	0.815331	0.963558
	C1666	C	0.097171	0.251389	0.959189
	C1667	C	0.096449	0.189210	0.963591
	C1668	C	0.095841	0.313694	0.963523
	C1669	C	0.101415	0.251395	0.923334
	C1670	C	0.088501	0.753155	0.887507
	C1671	C	0.038792	0.751198	0.887535
	C1672	C	0.038924	0.752402	0.985749
	C1673	C	0.096008	0.691125	0.909680
	C1674	C	0.096369	0.815555	0.909676
	C1675	C	0.092946	0.753232	0.896715
	C1676	C	0.034447	0.750953	0.896744
	C1677	C	0.033468	0.688709	0.901120
	C1678	C	0.093802	0.691104	0.901106
	C1679	C	0.094135	0.815458	0.901103
	C1680	C	0.033566	0.813203	0.901128
	C1681	C	0.097215	0.753332	0.914058
	C1682	C	0.088467	0.752713	0.985688
	C1683	C	0.093874	0.690737	0.972101
	C1684	C	0.094161	0.815196	0.972136
	C1685	C	0.092904	0.752935	0.976485
	C1686	C	0.058396	0.461809	1.001834
	C1687	C	0.062015	0.461849	0.874353
	C1688	C	0.073095	0.461871	0.999435
	C1689	C	0.058312	0.542567	1.001831
	C1690	C	0.073034	0.542690	0.999429
	C1691	C	0.062024	0.542944	0.874344
	C1692	C	0.088556	0.251856	0.985707
	C1693	C	0.094272	0.189400	0.972162
	C1694	C	0.093698	0.313866	0.972092
	C1695	C	0.092981	0.251758	0.976502
	C1696	C	0.062290	0.042878	0.875269
	C1697	C	0.088259	0.251401	0.887582
	C1698	C	0.038707	0.252805	0.887525
	C1699	C	0.039020	0.252889	0.985727
	C1700	C	0.095960	0.189013	0.909736
	C1701	C	0.095868	0.313306	0.909753
	C1702	C	0.092711	0.251302	0.896786
	C1703	C	0.034427	0.252467	0.896724
	C1704	C	0.034650	0.752418	0.976546
	C1705	C	0.033795	0.814535	0.972152
	C1706	C	0.033416	0.690181	0.972186
	C1707	C	0.034616	0.253052	0.976521
	C1708	C	0.033370	0.315362	0.972165
	C1709	C	0.034023	0.190839	0.972115
	C1710	C	0.033496	0.190170	0.901089
	C1711	C	0.093777	0.189043	0.901158
	C1712	C	0.093718	0.313363	0.901176
	C1713	C	0.033404	0.314599	0.901110
	C1714	C	0.096920	0.251154	0.914129
	C1715	C	0.070480	0.042799	0.998914
	C1716	C	0.061162	0.042876	0.873191
	C1717	C	0.062275	0.962072	0.875286
	C1718	C	0.070452	0.961978	0.998920
	C1719	C	0.061123	0.962083	0.873204
	N1720	N	0.001495	0.069604	0.936614
	N1721	N	0.001544	0.935049	0.936602
	N1722	N	0.001106	0.435240	0.936633
	N1723	N	0.001061	0.569814	0.936667
	N1724	N	0.063877	0.434999	0.999113
	N1725	N	0.063776	0.569627	0.999123
	N1726	N	0.063637	0.069697	0.999090
	N1727	N	0.063651	0.935076	0.999112
	O1728	O	0.229455	0.693724	0.051716
	O1729	O	0.229149	0.810528	0.051718
	O1730	O	0.148828	0.694723	0.071496
	O1731	O	0.148617	0.811566	0.071535
	O1732	O	0.148790	0.194132	0.071504
	O1733	O	0.148685	0.310949	0.071497
	O1734	O	0.149070	0.694452	0.051768
	O1735	O	0.148783	0.811331	0.051742
	O1736	O	0.148726	0.193327	0.051721
	O1737	O	0.148814	0.310227	0.051743
	O1738	O	0.229383	0.693850	0.071508
	O1739	O	0.229059	0.810902	0.071404
	O1740	O	0.229025	0.194133	0.071439
	O1741	O	0.229531	0.310726	0.071499
	O1742	O	0.229251	0.194849	0.051694
	O1743	O	0.229593	0.311549	0.051665
	O1744	O	0.211110	0.693832	0.008944
	O1745	O	0.166257	0.694473	0.009015
	O1746	O	0.211493	0.694900	0.114222
	O1747	O	0.211033	0.811875	0.114154
	O1748	O	0.166780	0.693742	0.114228
	O1749	O	0.166394	0.810634	0.114281
	O1750	O	0.166373	0.811334	0.009008
	O1751	O	0.210848	0.810424	0.009025
	O1752	O	0.211084	0.194287	0.008984
	O1753	O	0.166374	0.193245	0.008976
	O1754	O	0.210774	0.192985	0.114167
	O1755	O	0.211320	0.309943	0.114256
	O1756	O	0.166379	0.195058	0.114296
	O1757	O	0.166889	0.311864	0.114222
	O1758	O	0.166316	0.309919	0.008971
	O1759	O	0.210862	0.311134	0.008962
	H1760	H	0.155870	0.642754	0.085140
	H1761	H	0.155339	0.862956	0.085224
	H1762	H	0.155300	0.142661	0.085226
	H1763	H	0.156207	0.362835	0.085120
	H1764	H	0.155466	0.862942	0.038105
	H1765	H	0.155653	0.642968	0.038128
	H1766	H	0.155650	0.361926	0.038081
	H1767	H	0.155534	0.141662	0.038070
	H1768	H	0.264972	0.064287	0.062505
	H1769	H	0.262189	0.064376	0.058445
	H1770	H	0.262185	0.940643	0.058470
	H1771	H	0.265079	0.940705	0.062494
	H1772	H	0.253580	0.064129	0.066506
	H1773	H	0.253696	0.940872	0.066485
	H1774	H	0.130599	0.064297	0.057996
	H1775	H	0.130478	0.940303	0.057995
	H1776	H	0.121265	0.064206	0.058124
	H1777	H	0.121192	0.940970	0.058133
	H1778	H	0.115369	0.064088	0.062172
	H1779	H	0.115416	0.940883	0.062135
	H1780	H	0.134818	0.440404	0.067877
	H1781	H	0.145263	0.440631	0.063416
	H1782	H	0.112823	0.440632	0.066502
	H1783	H	0.277160	0.440938	0.060224
	H1784	H	0.263811	0.440694	0.069750
	H1785	H	0.242078	0.441090	0.070265
	H1786	H	0.145265	0.563946	0.063415
	H1787	H	0.134755	0.564248	0.067900
	H1788	H	0.242049	0.564827	0.070247
	H1789	H	0.263744	0.564398	0.069820
	H1790	H	0.277108	0.564120	0.060288
	H1791	H	0.112882	0.564408	0.066507
	H1792	H	0.222997	0.642696	0.085185
	H1793	H	0.221606	0.862881	0.085028
	H1794	H	0.221919	0.142129	0.085110
	H1795	H	0.222639	0.362215	0.085215
	H1796	H	0.159630	0.642897	0.022680
	H1797	H	0.218251	0.642042	0.022629
	H1798	H	0.217997	0.861896	0.022656
	H1799	H	0.159556	0.862974	0.022671
	H1800	H	0.222679	0.642034	0.038051
	H1801	H	0.222332	0.862075	0.038080
	H1802	H	0.218729	0.642955	0.100610
	H1803	H	0.217453	0.863377	0.100469
	H1804	H	0.180662	0.440826	-0.000538
	H1805	H	0.192823	0.440668	0.123924
	H1806	H	0.184829	0.440836	-0.003402
	H1807	H	0.191494	0.440797	-0.003478
	H1808	H	0.187021	0.440948	0.123046
	H1809	H	0.190022	0.440093	0.122818
	H1810	H	0.192913	0.563928	0.123928
	H1811	H	0.180634	0.563735	-0.000570
	H1812	H	0.190073	0.564048	0.122761
	H1813	H	0.187090	0.563927	0.123013
	H1814	H	0.191525	0.564541	-0.003441
	H1815	H	0.185038	0.564310	-0.003340
	H1816	H	0.217817	0.141797	0.100538
	H1817	H	0.218498	0.361489	0.100648
	H1818	H	0.200867	0.064660	-0.000543
	H1819	H	0.197226	0.064267	-0.004022
	H1820	H	0.191971	0.064108	0.003382
	H1821	H	0.159475	0.862697	0.100663
	H1822	H	0.160026	0.642508	0.100578
	H1823	H	0.160156	0.363155	0.100558
	H1824	H	0.159225	0.143263	0.100684
	H1825	H	0.159357	0.141671	0.022634
	H1826	H	0.217490	0.143134	0.022631
	H1827	H	0.218657	0.362805	0.022580
	H1828	H	0.159523	0.361809	0.022633
	H1829	H	0.221807	0.143221	0.038053
	H1830	H	0.223024	0.363098	0.037988
	H1831	H	0.180805	0.063982	0.127750
	H1832	H	0.191312	0.063967	0.128646
	H1833	H	0.201381	0.064252	0.124802
	H1834	H	0.197147	0.940997	-0.004052
	H1835	H	0.200903	0.941066	-0.000595
	H1836	H	0.191978	0.940484	0.003356
	H1837	H	0.181007	0.940840	0.127698
	H1838	H	0.191332	0.941143	0.128587
	H1839	H	0.201399	0.940907	0.124796
	Zn1840	Zn	0.126677	0.680018	0.061637
	Zn1841	Zn	0.126342	0.824845	0.061622
	Zn1842	Zn	0.126449	0.180258	0.061671
	Zn1843	Zn	0.126526	0.324900	0.061604
	Zn1844	Zn	0.189244	0.679868	0.124057
	Zn1845	Zn	0.188857	0.825132	0.124083
	Zn1846	Zn	0.188742	0.179947	0.124140
	Zn1847	Zn	0.189184	0.324937	0.124112
	C1848	C	0.226829	0.752087	0.048214
	C1849	C	0.151159	0.753052	0.075018
	C1850	C	0.155535	0.752905	0.084234
	C1851	C	0.156695	0.690531	0.088586
	C1852	C	0.156397	0.815083	0.088635
	C1853	C	0.151282	0.252577	0.075004
	C1854	C	0.155595	0.252761	0.084218
	C1855	C	0.156383	0.190605	0.088624
	C1856	C	0.156921	0.315049	0.088562
	C1857	C	0.151345	0.752895	0.048250
	C1858	C	0.155646	0.752882	0.039043
	C1859	C	0.156512	0.815213	0.034667
	C1860	C	0.156573	0.690694	0.034678
	C1861	C	0.151265	0.251810	0.048236
	C1862	C	0.155551	0.251871	0.039023
	C1863	C	0.156535	0.314140	0.034648
	C1864	C	0.156473	0.189581	0.034642
	C1865	C	0.260410	0.042885	0.060769
	C1866	C	0.260403	0.962011	0.060766
	C1867	C	0.126002	0.042930	0.059002
	C1868	C	0.125993	0.962055	0.059007
	C1869	C	0.120098	0.042963	0.063066
	C1870	C	0.120110	0.961919	0.063047
	C1871	C	0.136470	0.461876	0.064587
	C1872	C	0.266010	0.462103	0.058195
	C1873	C	0.252585	0.462085	0.067808
	C1874	C	0.136480	0.542652	0.064593
	C1875	C	0.252544	0.543094	0.067812
	C1876	C	0.265978	0.542830	0.058214
	C1877	C	0.226740	0.752496	0.074945
	C1878	C	0.226742	0.252429	0.074985
	C1879	C	0.222232	0.752703	0.084148
	C1880	C	0.221561	0.690594	0.088582
	C1881	C	0.220905	0.815250	0.088487
	C1882	C	0.222296	0.252209	0.084180
	C1883	C	0.221083	0.189830	0.088544
	C1884	C	0.221452	0.314220	0.088602
	C1885	C	0.226844	0.253240	0.048168
	C1886	C	0.213490	0.752007	0.012491
	C1887	C	0.163927	0.752914	0.012520
	C1888	C	0.164161	0.752264	0.110752
	C1889	C	0.221458	0.689762	0.034631
	C1890	C	0.221296	0.814231	0.034646
	C1891	C	0.218009	0.751922	0.021689
	C1892	C	0.159598	0.752838	0.021724
	C1893	C	0.158632	0.690690	0.026105
	C1894	C	0.219209	0.689756	0.026060
	C1895	C	0.219073	0.814081	0.026076
	C1896	C	0.158616	0.815188	0.026094
	C1897	C	0.222384	0.752005	0.039015
	C1898	C	0.213728	0.753319	0.110690
	C1899	C	0.219427	0.690764	0.097155
	C1900	C	0.218735	0.815443	0.097065
	C1901	C	0.218116	0.753209	0.101482
	C1902	C	0.191509	0.462060	0.124368
	C1903	C	0.188272	0.462010	-0.002761
	C1904	C	0.188713	0.461923	0.123239
	C1905	C	0.191580	0.542601	0.124349
	C1906	C	0.188775	0.542817	0.123206
	C1907	C	0.188316	0.543013	-0.002746
	C1908	C	0.213554	0.251555	0.110720
	C1909	C	0.218874	0.189589	0.097118
	C1910	C	0.219242	0.313971	0.097174
	C1911	C	0.217933	0.251754	0.101504
	C1912	C	0.196279	0.043209	-0.001926
	C1913	C	0.213525	0.252814	0.012454
	C1914	C	0.163863	0.251599	0.012489
	C1915	C	0.164091	0.253407	0.110761
	C1916	C	0.221000	0.190907	0.034613
	C1917	C	0.221672	0.315302	0.034585
	C1918	C	0.218000	0.253068	0.021660
	C1919	C	0.159629	0.251727	0.021703
	C1920	C	0.159717	0.752550	0.101557
	C1921	C	0.158573	0.814944	0.097209
	C1922	C	0.158862	0.690336	0.097161
	C1923	C	0.159734	0.253262	0.101548
	C1924	C	0.158990	0.315372	0.097138
	C1925	C	0.158467	0.190809	0.097206
	C1926	C	0.158553	0.189511	0.026070
	C1927	C	0.218790	0.190831	0.026039
	C1928	C	0.219429	0.315180	0.026018
	C1929	C	0.158589	0.314040	0.026073
	C1930	C	0.222371	0.253237	0.038973
	C1931	C	0.186790	0.042983	0.127117
	C1932	C	0.187313	0.042582	0.002047
	C1933	C	0.196268	0.962308	-0.001940
	C1934	C	0.186871	0.962283	0.127102
	C1935	C	0.187332	0.961726	0.002037
	N1936	N	0.126321	0.069992	0.061660
	N1937	N	0.126248	0.935348	0.061634
	N1938	N	0.126574	0.434988	0.061578
	N1939	N	0.126646	0.569611	0.061591
	N1940	N	0.189199	0.435066	0.124093
	N1941	N	0.189273	0.569587	0.124059
	N1942	N	0.188784	0.069890	0.124145
	N1943	N	0.188817	0.935312	0.124118
	O1944	O	0.229216	0.694418	0.176678
	O1945	O	0.229165	0.811193	0.176669
	O1946	O	0.148381	0.693476	0.196416
	O1947	O	0.148421	0.810287	0.196470
	O1948	O	0.148687	0.194797	0.196433
	O1949	O	0.148378	0.311451	0.196430
	O1950	O	0.148419	0.693360	0.176754
	O1951	O	0.148634	0.810150	0.176751
	O1952	O	0.148616	0.194605	0.176720
	O1953	O	0.148320	0.311534	0.176728
	O1954	O	0.229099	0.694200	0.196542
	O1955	O	0.229034	0.810925	0.196457
	O1956	O	0.228948	0.194778	0.196432
	O1957	O	0.229261	0.311542	0.196486
	O1958	O	0.228763	0.194520	0.176792
	O1959	O	0.229318	0.311217	0.176696
	O1960	O	0.211529	0.694434	0.133927
	O1961	O	0.166950	0.692912	0.133992
	O1962	O	0.211045	0.695152	0.239232
	O1963	O	0.210742	0.811944	0.239238
	O1964	O	0.166526	0.693499	0.239201
	O1965	O	0.166146	0.810212	0.239202
	O1966	O	0.166613	0.809760	0.133981
	O1967	O	0.211356	0.811469	0.133923
	O1968	O	0.211292	0.193123	0.133983
	O1969	O	0.166514	0.194752	0.134011
	O1970	O	0.210733	0.193924	0.239180
	O1971	O	0.211152	0.310557	0.239243
	O1972	O	0.166337	0.194949	0.239156
	O1973	O	0.166498	0.311828	0.239167
	O1974	O	0.166791	0.311532	0.133995
	O1975	O	0.211509	0.310041	0.133953
	H1976	H	0.155921	0.641788	0.210083
	H1977	H	0.155079	0.861509	0.210119
	H1978	H	0.155237	0.143354	0.210105
	H1979	H	0.156004	0.363351	0.209997
	H1980	H	0.155226	0.861284	0.163018
	H1981	H	0.155763	0.641491	0.163105
	H1982	H	0.155494	0.363246	0.163090
	H1983	H	0.155720	0.143197	0.163073
	H1984	H	0.253881	0.064303	0.186166
	H1985	H	0.252136	0.064479	0.185658
	H1986	H	0.252077	0.940906	0.185647
	H1987	H	0.253870	0.940870	0.186169
	H1988	H	0.253266	0.064786	0.187293
	H1989	H	0.253461	0.940827	0.187292
	H1990	H	0.129453	0.063859	0.185139
	H1991	H	0.129406	0.940618	0.185124
	H1992	H	0.125288	0.064047	0.184758
	H1993	H	0.125213	0.940377	0.184749
	H1994	H	0.121242	0.064694	0.186281
	H1995	H	0.121056	0.940940	0.186340
	H1996	H	0.125750	0.441286	0.190229
	H1997	H	0.133533	0.441160	0.188911
	H1998	H	0.116149	0.440870	0.187813
	H1999	H	0.250618	0.441406	0.190194
	H2000	H	0.241705	0.440658	0.187543
	H2001	H	0.243054	0.440549	0.184510
	H2002	H	0.133487	0.564510	0.188951
	H2003	H	0.125844	0.564411	0.190248
	H2004	H	0.243075	0.564011	0.184501
	H2005	H	0.241549	0.564142	0.187504
	H2006	H	0.250496	0.564718	0.190239
	H2007	H	0.116035	0.564211	0.187789
	H2008	H	0.222479	0.642908	0.210188
	H2009	H	0.221572	0.862848	0.210100
	H2010	H	0.221863	0.142602	0.210092
	H2011	H	0.222233	0.362569	0.210172
	H2012	H	0.159963	0.641298	0.147657
	H2013	H	0.218391	0.642760	0.147589
	H2014	H	0.218256	0.862971	0.147585
	H2015	H	0.159325	0.860936	0.147600
	H2016	H	0.222577	0.642644	0.163020
	H2017	H	0.222398	0.862789	0.163014
	H2018	H	0.218260	0.643249	0.225637
	H2019	H	0.217345	0.863304	0.225525
	H2020	H	0.191838	0.441082	0.124993
	H2021	H	0.179043	0.441239	0.249059
	H2022	H	0.187767	0.440636	0.125307
	H2023	H	0.185752	0.440890	0.124496
	H2024	H	0.193652	0.440654	0.252088
	H2025	H	0.185494	0.440855	0.252348
	H2026	H	0.179049	0.564523	0.249063
	H2027	H	0.191923	0.563885	0.124998
	H2028	H	0.185427	0.564185	0.252335
	H2029	H	0.193527	0.564114	0.252073
	H2030	H	0.185727	0.564412	0.124442
	H2031	H	0.187735	0.564510	0.125292
	H2032	H	0.217725	0.142479	0.225547
	H2033	H	0.218148	0.362204	0.225577
	H2034	H	0.184108	0.063989	0.119914
	H2035	H	0.176771	0.064187	0.122650
	H2036	H	0.198290	0.064570	0.121132
	H2037	H	0.159081	0.861541	0.225557
	H2038	H	0.159974	0.641833	0.225527
	H2039	H	0.160083	0.363586	0.225444
	H2040	H	0.159279	0.143818	0.225541
	H2041	H	0.159860	0.143301	0.147659
	H2042	H	0.217460	0.142081	0.147669
	H2043	H	0.218850	0.361977	0.147532
	H2044	H	0.159682	0.363334	0.147639
	H2045	H	0.221501	0.142608	0.163127
	H2046	H	0.222926	0.362651	0.162964
	H2047	H	0.195994	0.064291	0.247474
	H2048	H	0.189941	0.064136	0.245984
	H2049	H	0.180794	0.064476	0.247498
	H2050	H	0.176835	0.940514	0.122690
	H2051	H	0.184237	0.940510	0.119901
	H2052	H	0.198386	0.941050	0.121121
	H2053	H	0.196007	0.940904	0.247488
	H2054	H	0.189821	0.940857	0.245925
	H2055	H	0.180702	0.940856	0.247525
	Zn2056	Zn	0.125871	0.679645	0.186584
	Zn2057	Zn	0.126204	0.825232	0.186574
	Zn2058	Zn	0.126325	0.179600	0.186582
	Zn2059	Zn	0.125756	0.325320	0.186587
	Zn2060	Zn	0.188806	0.679725	0.249079
	Zn2061	Zn	0.188364	0.825168	0.249108
	Zn2062	Zn	0.188434	0.179771	0.249043
	Zn2063	Zn	0.188729	0.325205	0.249099
	C2064	C	0.226727	0.752766	0.173164
	C2065	C	0.150937	0.751755	0.199944
	C2066	C	0.155394	0.751704	0.209167
	C2067	C	0.156666	0.689557	0.213532
	C2068	C	0.156241	0.813840	0.213553
	C2069	C	0.151065	0.253224	0.199939
	C2070	C	0.155574	0.253487	0.209121
	C2071	C	0.156378	0.191339	0.213516
	C2072	C	0.156795	0.315743	0.213455
	C2073	C	0.151057	0.751719	0.173242
	C2074	C	0.155466	0.751463	0.164032
	C2075	C	0.156318	0.813454	0.159616
	C2076	C	0.156622	0.689182	0.159659
	C2077	C	0.151058	0.253153	0.173231
	C2078	C	0.155667	0.253224	0.164034
	C2079	C	0.156636	0.315395	0.159652
	C2080	C	0.156731	0.191051	0.159656
	C2081	C	0.252582	0.043055	0.186098
	C2082	C	0.252557	0.962389	0.186097
	C2083	C	0.127049	0.042854	0.185379
	C2084	C	0.127009	0.962031	0.185359
	C2085	C	0.122929	0.042780	0.186915
	C2086	C	0.122905	0.962006	0.186928
	C2087	C	0.128592	0.462295	0.188785
	C2088	C	0.253747	0.462328	0.188844
	C2089	C	0.244746	0.462314	0.186163
	C2090	C	0.128600	0.542868	0.188791
	C2091	C	0.244716	0.543133	0.186153
	C2092	C	0.253700	0.543159	0.188853
	C2093	C	0.226589	0.752759	0.200009
	C2094	C	0.226579	0.253096	0.199953
	C2095	C	0.222192	0.753002	0.209226
	C2096	C	0.221382	0.690812	0.213616
	C2097	C	0.220842	0.815273	0.213566
	C2098	C	0.222179	0.252662	0.209161
	C2099	C	0.221041	0.190370	0.213529
	C2100	C	0.221264	0.314675	0.213562
	C2101	C	0.226558	0.252773	0.173230
	C2102	C	0.213901	0.752956	0.137423
	C2103	C	0.164286	0.751273	0.137487
	C2104	C	0.163885	0.751787	0.235694
	C2105	C	0.221448	0.690501	0.159590
	C2106	C	0.221380	0.814997	0.159584
	C2107	C	0.218217	0.752847	0.146639
	C2108	C	0.159817	0.751085	0.146693
	C2109	C	0.158886	0.689030	0.151086
	C2110	C	0.219293	0.690538	0.151013
	C2111	C	0.219229	0.815065	0.151016
	C2112	C	0.158554	0.813214	0.151048
	C2113	C	0.222378	0.752762	0.163961
	C2114	C	0.213383	0.753636	0.235744
	C2115	C	0.219161	0.691018	0.222191
	C2116	C	0.218607	0.815453	0.222136
	C2117	C	0.217856	0.753459	0.226546
	C2118	C	0.182873	0.462206	0.248074
	C2119	C	0.187402	0.461954	0.124687
	C2120	C	0.189311	0.462103	0.251374
	C2121	C	0.182862	0.543191	0.248080
	C2122	C	0.189333	0.543085	0.251372
	C2123	C	0.187406	0.543007	0.124660
	C2124	C	0.213408	0.252287	0.235696
	C2125	C	0.218833	0.190186	0.222105
	C2126	C	0.219076	0.314515	0.222132
	C2127	C	0.217887	0.252314	0.226487
	C2128	C	0.182613	0.042937	0.122040
	C2129	C	0.213869	0.251595	0.137464
	C2130	C	0.164225	0.253238	0.137511
	C2131	C	0.163961	0.253500	0.235660
	C2132	C	0.220826	0.190321	0.159669
	C2133	C	0.221649	0.314600	0.159584
	C2134	C	0.218205	0.251966	0.146674
	C2135	C	0.159935	0.253273	0.146708
	C2136	C	0.159553	0.751679	0.226502
	C2137	C	0.158315	0.813800	0.222128
	C2138	C	0.158806	0.689581	0.222107
	C2139	C	0.159731	0.253805	0.226441
	C2140	C	0.158932	0.315819	0.222028
	C2141	C	0.158489	0.191554	0.222084
	C2142	C	0.158902	0.191058	0.151086
	C2143	C	0.218766	0.189969	0.151090
	C2144	C	0.219549	0.314317	0.151006
	C2145	C	0.158839	0.315518	0.151076
	C2146	C	0.222241	0.252612	0.164021
	C2147	C	0.191754	0.043050	0.247331
	C2148	C	0.196965	0.043015	0.123277
	C2149	C	0.182693	0.961979	0.122034
	C2150	C	0.191730	0.962232	0.247342
	C2151	C	0.196955	0.962160	0.123262
	N2152	N	0.126170	0.069700	0.186600
	N2153	N	0.126117	0.935289	0.186590
	N2154	N	0.125711	0.435422	0.186569
	N2155	N	0.125725	0.569888	0.186579
	N2156	N	0.188793	0.435399	0.249065
	N2157	N	0.188795	0.569904	0.249069
	N2158	N	0.188380	0.069865	0.249087
	N2159	N	0.188369	0.935391	0.249096
	O2160	O	0.229149	0.694173	0.301659
	O2161	O	0.229082	0.811060	0.301678
	O2162	O	0.148582	0.692840	0.321523
	O2163	O	0.149136	0.809703	0.321464
	O2164	O	0.149383	0.196403	0.321420
	O2165	O	0.148281	0.312975	0.321541
	O2166	O	0.148604	0.692216	0.301725
	O2167	O	0.149289	0.808910	0.301821
	O2168	O	0.149039	0.195797	0.301735
	O2169	O	0.148617	0.312715	0.301714
	O2170	O	0.228933	0.694207	0.321363
	O2171	O	0.228939	0.810766	0.321394
	O2172	O	0.229110	0.194513	0.321464
	O2173	O	0.228964	0.311455	0.321401
	O2174	O	0.229044	0.194657	0.301671
	O2175	O	0.229412	0.311587	0.301594
	O2176	O	0.211377	0.694806	0.258884
	O2177	O	0.166755	0.692897	0.259016
	O2178	O	0.211182	0.693683	0.364168
	O2179	O	0.211623	0.810565	0.364221
	O2180	O	0.166553	0.694736	0.364263
	O2181	O	0.166906	0.811368	0.364213
	O2182	O	0.166361	0.809634	0.259025
	O2183	O	0.210818	0.811501	0.258969
	O2184	O	0.210787	0.193863	0.258900
	O2185	O	0.166269	0.195187	0.258994
	O2186	O	0.211462	0.194973	0.364158
	O2187	O	0.211208	0.311924	0.364198
	O2188	O	0.166787	0.194275	0.364204
	O2189	O	0.166468	0.311162	0.364259
	O2190	O	0.166424	0.312005	0.258946
	O2191	O	0.211232	0.310686	0.258878
	H2192	H	0.155121	0.641504	0.335254
	H2193	H	0.156134	0.861352	0.335061
	H2194	H	0.156667	0.144365	0.335070
	H2195	H	0.154584	0.364123	0.335233
	H2196	H	0.155977	0.860725	0.288151
	H2197	H	0.155551	0.640728	0.288088
	H2198	H	0.155760	0.364309	0.288024
	H2199	H	0.155667	0.144269	0.288071
	H2200	H	0.255844	0.064312	0.311325
	H2201	H	0.253697	0.064824	0.310152
	H2202	H	0.253805	0.941053	0.310127
	H2203	H	0.255884	0.941030	0.311334
	H2204	H	0.253406	0.064185	0.313055
	H2205	H	0.253471	0.940920	0.313083
	H2206	H	0.105623	0.064173	0.308396
	H2207	H	0.105556	0.941068	0.308408
	H2208	H	0.106289	0.064669	0.315383
	H2209	H	0.106312	0.940836	0.315407
	H2210	H	0.129935	0.064763	0.319891
	H2211	H	0.129893	0.940770	0.319911
	H2212	H	0.125104	0.440527	0.311731
	H2213	H	0.125637	0.441276	0.311927
	H2214	H	0.125447	0.441092	0.311355
	H2215	H	0.262073	0.440840	0.305820
	H2216	H	0.270181	0.441062	0.313225
	H2217	H	0.260026	0.441240	0.317799
	H2218	H	0.125777	0.564385	0.311943
	H2219	H	0.125192	0.564789	0.311733
	H2220	H	0.260070	0.564405	0.317778
	H2221	H	0.270134	0.564525	0.313258
	H2222	H	0.261992	0.564733	0.305802
	H2223	H	0.125614	0.564213	0.311366
	H2224	H	0.222009	0.642342	0.335070
	H2225	H	0.222574	0.862254	0.335120
	H2226	H	0.222687	0.143415	0.335109
	H2227	H	0.221818	0.363360	0.335054
	H2228	H	0.159633	0.640862	0.272633
	H2229	H	0.218254	0.642879	0.272537
	H2230	H	0.217898	0.862837	0.272602
	H2231	H	0.159908	0.861004	0.272723
	H2232	H	0.222419	0.642649	0.287985
	H2233	H	0.222126	0.862445	0.288052
	H2234	H	0.218003	0.642223	0.350498
	H2235	H	0.218570	0.862187	0.350539
	H2236	H	0.182519	0.440899	0.246376
	H2237	H	0.171010	0.440356	0.370380
	H2238	H	0.193774	0.440921	0.246038
	H2239	H	0.198444	0.441057	0.248471
	H2240	H	0.189169	0.440971	0.381646
	H2241	H	0.173091	0.440555	0.378989
	H2242	H	0.170980	0.563908	0.370335
	H2243	H	0.182520	0.565013	0.246415
	H2244	H	0.173165	0.564154	0.378989
	H2245	H	0.189115	0.563952	0.381641
	H2246	H	0.198425	0.563460	0.248448
	H2247	H	0.193660	0.564203	0.246013
	H2248	H	0.218521	0.143499	0.350525
	H2249	H	0.217565	0.363554	0.350509
	H2250	H	0.188321	0.063976	0.252252
	H2251	H	0.195169	0.064321	0.251105
	H2252	H	0.180110	0.064635	0.250136
	H2253	H	0.160178	0.862436	0.350489
	H2254	H	0.159106	0.642416	0.350678
	H2255	H	0.158614	0.363425	0.350701
	H2256	H	0.160662	0.143538	0.350492
	H2257	H	0.159672	0.143839	0.272668
	H2258	H	0.217455	0.142418	0.272608
	H2259	H	0.218427	0.362470	0.272510
	H2260	H	0.159885	0.363994	0.272561
	H2261	H	0.221642	0.142842	0.288051
	H2262	H	0.222582	0.362848	0.287952
	H2263	H	0.199515	0.064085	0.373150
	H2264	H	0.194067	0.063940	0.370673
	H2265	H	0.182134	0.064302	0.371314
	H2266	H	0.195110	0.940734	0.251152
	H2267	H	0.188452	0.941045	0.252275
	H2268	H	0.180035	0.941079	0.250189
	H2269	H	0.199815	0.940473	0.373159
	H2270	H	0.194140	0.940855	0.370672
	H2271	H	0.182001	0.941201	0.371303
	Zn2272	Zn	0.126221	0.680106	0.311632
	Zn2273	Zn	0.127069	0.825302	0.311640
	Zn2274	Zn	0.127014	0.179967	0.311603
	Zn2275	Zn	0.125966	0.325305	0.311611
	Zn2276	Zn	0.189112	0.680176	0.374095
	Zn2277	Zn	0.189329	0.825318	0.374073
	Zn2278	Zn	0.189329	0.180227	0.374054
	Zn2279	Zn	0.189186	0.325156	0.374129
	C2280	C	0.226659	0.752625	0.298164
	C2281	C	0.151344	0.751239	0.324993
	C2282	C	0.155664	0.751507	0.334197
	C2283	C	0.156323	0.689546	0.338636
	C2284	C	0.156851	0.813905	0.338537
	C2285	C	0.151301	0.254658	0.325000
	C2286	C	0.155649	0.254372	0.334213
	C2287	C	0.157187	0.191992	0.338544
	C2288	C	0.156038	0.316335	0.338640
	C2289	C	0.151386	0.750625	0.298259
	C2290	C	0.155692	0.750778	0.289055
	C2291	C	0.156785	0.813002	0.284701
	C2292	C	0.156597	0.688592	0.284666
	C2293	C	0.151317	0.254325	0.298227
	C2294	C	0.155748	0.254377	0.289013
	C2295	C	0.156764	0.316436	0.284600
	C2296	C	0.156716	0.192075	0.284650
	C2297	C	0.253834	0.043385	0.310953
	C2298	C	0.253875	0.962374	0.310954
	C2299	C	0.111509	0.043062	0.311832
	C2300	C	0.111467	0.962325	0.311835
	C2301	C	0.135259	0.043017	0.316362
	C2302	C	0.135231	0.962212	0.316356
	C2303	C	0.125551	0.462073	0.311783
	C2304	C	0.253336	0.462177	0.306991
	C2305	C	0.261540	0.462463	0.314478
	C2306	C	0.125611	0.543273	0.311797
	C2307	C	0.261505	0.543136	0.314470
	C2308	C	0.253344	0.543341	0.306995
	C2309	C	0.226555	0.752408	0.324911
	C2310	C	0.226584	0.253091	0.324929
	C2311	C	0.222267	0.752333	0.334133
	C2312	C	0.221182	0.690139	0.338507
	C2313	C	0.221436	0.814425	0.338533
	C2314	C	0.222354	0.253415	0.334141
	C2315	C	0.221513	0.191238	0.338527
	C2316	C	0.221077	0.315732	0.338507
	C2317	C	0.226747	0.253033	0.298135
	C2318	C	0.213631	0.753114	0.262432
	C2319	C	0.164146	0.751175	0.262531
	C2320	C	0.164276	0.752983	0.360720
	C2321	C	0.221320	0.690413	0.284553
	C2322	C	0.221142	0.814844	0.284601
	C2323	C	0.218038	0.752946	0.271632
	C2324	C	0.159815	0.751009	0.271730
	C2325	C	0.158739	0.688665	0.276090
	C2326	C	0.219162	0.690615	0.275977
	C2327	C	0.218980	0.815024	0.276025
	C2328	C	0.158882	0.813133	0.276132
	C2329	C	0.222305	0.752550	0.288951
	C2330	C	0.213907	0.752157	0.360692
	C2331	C	0.219085	0.690096	0.347085
	C2332	C	0.219356	0.814409	0.347111
	C2333	C	0.218245	0.752193	0.351493
	C2334	C	0.181047	0.462012	0.370006
	C2335	C	0.194145	0.462227	0.247703
	C2336	C	0.183230	0.462038	0.378691
	C2337	C	0.181059	0.542664	0.370009
	C2338	C	0.183215	0.542855	0.378687
	C2339	C	0.194125	0.542757	0.247703
	C2340	C	0.213778	0.253545	0.360669
	C2341	C	0.219395	0.191271	0.347098
	C2342	C	0.218908	0.315819	0.347084
	C2343	C	0.218137	0.253570	0.351461
	C2344	C	0.190896	0.043087	0.250987
	C2345	C	0.213541	0.252238	0.262396
	C2346	C	0.163974	0.253727	0.262484
	C2347	C	0.164156	0.252830	0.360743
	C2348	C	0.220907	0.190559	0.284592
	C2349	C	0.221431	0.314969	0.284536
	C2350	C	0.218033	0.252364	0.271604
	C2351	C	0.159762	0.253916	0.271675
	C2352	C	0.159749	0.752546	0.351532
	C2353	C	0.158963	0.814474	0.347107
	C2354	C	0.158416	0.690072	0.347209
	C2355	C	0.159760	0.253473	0.351537
	C2356	C	0.158177	0.315902	0.347213
	C2357	C	0.159282	0.191486	0.347112
	C2358	C	0.158780	0.191862	0.276079
	C2359	C	0.218714	0.190266	0.276019
	C2360	C	0.219253	0.314736	0.275960
	C2361	C	0.158876	0.316301	0.276020
	C2362	C	0.222274	0.252820	0.288939
	C2363	C	0.194933	0.042956	0.372484
	C2364	C	0.182504	0.043058	0.248887
	C2365	C	0.190867	0.962316	0.251018
	C2366	C	0.194957	0.962063	0.372475
	C2367	C	0.182447	0.961938	0.248912
	N2368	N	0.127040	0.069837	0.311614
	N2369	N	0.126998	0.935352	0.311632
	N2370	N	0.125967	0.435386	0.311613
	N2371	N	0.126044	0.569871	0.311621
	N2372	N	0.189165	0.435167	0.374115
	N2373	N	0.189146	0.569726	0.374099
	N2374	N	0.189322	0.070032	0.374046
	N2375	N	0.189354	0.935438	0.374065
	O2376	O	0.228668	0.694963	0.426728
	O2377	O	0.228922	0.811875	0.426681
	O2378	O	0.148883	0.695764	0.446417
	O2379	O	0.148299	0.812545	0.446440
	O2380	O	0.148088	0.193079	0.446507
	O2381	O	0.148638	0.309889	0.446458
	O2382	O	0.148734	0.695732	0.426737
	O2383	O	0.148328	0.812632	0.426725
	O2384	O	0.148126	0.192486	0.426688
	O2385	O	0.148755	0.309500	0.426738
	O2386	O	0.228712	0.695343	0.446455
	O2387	O	0.228947	0.812133	0.446487
	O2388	O	0.228859	0.193429	0.446503
	O2389	O	0.228783	0.310508	0.446474
	O2390	O	0.228949	0.193658	0.426699
	O2391	O	0.228651	0.310527	0.426740
	O2392	O	0.211409	0.693403	0.383989
	O2393	O	0.166921	0.694868	0.383994
	O2394	O	0.211207	0.694679	0.489212
	O2395	O	0.211162	0.811535	0.489239
	O2396	O	0.166675	0.694967	0.489120
	O2397	O	0.166598	0.811913	0.489190
	O2398	O	0.167040	0.811781	0.384001
	O2399	O	0.211663	0.810471	0.383908
	O2400	O	0.211578	0.194153	0.383944
	O2401	O	0.166932	0.193817	0.383959
	O2402	O	0.211194	0.194303	0.489247
	O2403	O	0.211103	0.311171	0.489235
	O2404	O	0.166526	0.194415	0.489233
	O2405	O	0.166539	0.311381	0.489174
	O2406	O	0.166796	0.310253	0.383979
	O2407	O	0.211426	0.311179	0.383989
	H2408	H	0.155519	0.644151	0.460043
	H2409	H	0.155273	0.864510	0.460119
	H2410	H	0.155052	0.141784	0.460212
	H2411	H	0.155749	0.361847	0.460068
	H2412	H	0.155577	0.864124	0.413092
	H2413	H	0.155422	0.644047	0.413069
	H2414	H	0.155932	0.361084	0.413111
	H2415	H	0.155319	0.141393	0.413062
	H2416	H	0.253424	0.064887	0.442969
	H2417	H	0.266206	0.064453	0.440048
	H2418	H	0.266160	0.941179	0.440043
	H2419	H	0.253481	0.941169	0.442955
	H2420	H	0.235208	0.064392	0.439602
	H2421	H	0.235182	0.940884	0.439551
	H2422	H	0.127055	0.064116	0.433648
	H2423	H	0.126969	0.941039	0.433631
	H2424	H	0.120337	0.064335	0.434325
	H2425	H	0.120313	0.940606	0.434308
	H2426	H	0.117950	0.064549	0.437590
	H2427	H	0.117953	0.940857	0.437596
	H2428	H	0.126595	0.440578	0.440934
	H2429	H	0.135787	0.440724	0.439329
	H2430	H	0.115079	0.441117	0.438086
	H2431	H	0.243510	0.441070	0.435192
	H2432	H	0.251897	0.440992	0.433651
	H2433	H	0.257614	0.440720	0.434975
	H2434	H	0.135824	0.564285	0.439325
	H2435	H	0.126614	0.564502	0.440895
	H2436	H	0.257782	0.564537	0.435012
	H2437	H	0.252012	0.563973	0.433617
	H2438	H	0.243468	0.564327	0.435144
	H2439	H	0.115061	0.564372	0.438086
	H2440	H	0.222137	0.643488	0.460155
	H2441	H	0.221869	0.863628	0.460120
	H2442	H	0.221995	0.142122	0.460192
	H2443	H	0.222072	0.362465	0.460151
	H2444	H	0.159816	0.643833	0.397655
	H2445	H	0.217812	0.642227	0.397677
	H2446	H	0.218813	0.862294	0.397515
	H2447	H	0.160007	0.863820	0.397650
	H2448	H	0.221648	0.642706	0.413140
	H2449	H	0.222672	0.863123	0.412958
	H2450	H	0.218074	0.643573	0.475568
	H2451	H	0.217809	0.863505	0.475566
	H2452	H	0.185428	0.441143	0.366714
	H2453	H	0.176262	0.441323	0.504637
	H2454	H	0.207246	0.440790	0.370340
	H2455	H	0.208839	0.440777	0.376652
	H2456	H	0.208387	0.440996	0.500174
	H2457	H	0.199072	0.440826	0.505156
	H2458	H	0.176323	0.565188	0.504590
	H2459	H	0.185391	0.563639	0.366689
	H2460	H	0.199155	0.564868	0.505138
	H2461	H	0.208452	0.564100	0.500160
	H2462	H	0.208838	0.564972	0.376635
	H2463	H	0.207182	0.564510	0.370327
	H2464	H	0.217965	0.142584	0.475632
	H2465	H	0.218057	0.362539	0.475596
	H2466	H	0.186394	0.064325	0.377660
	H2467	H	0.195156	0.064510	0.377203
	H2468	H	0.178900	0.064470	0.374264
	H2469	H	0.159489	0.863859	0.475564
	H2470	H	0.159630	0.643778	0.475460
	H2471	H	0.160050	0.362372	0.475495
	H2472	H	0.159382	0.142492	0.475635
	H2473	H	0.159537	0.141555	0.397636
	H2474	H	0.217951	0.142151	0.397626
	H2475	H	0.218306	0.362556	0.397665
	H2476	H	0.160192	0.361509	0.397688
	H2477	H	0.221791	0.142122	0.413072
	H2478	H	0.222116	0.362272	0.413114
	H2479	H	0.190308	0.064538	0.494969
	H2480	H	0.180989	0.064685	0.496039
	H2481	H	0.178139	0.064843	0.500691
	H2482	H	0.195293	0.940907	0.377206
	H2483	H	0.186489	0.941196	0.377729
	H2484	H	0.178868	0.941107	0.374290
	H2485	H	0.190182	0.940946	0.494993
	H2486	H	0.181044	0.941224	0.496037
	H2487	H	0.178096	0.941487	0.500718
	Zn2488	Zn	0.126496	0.680528	0.436590
	Zn2489	Zn	0.125726	0.824958	0.436548
	Zn2490	Zn	0.125796	0.180458	0.436598
	Zn2491	Zn	0.126527	0.325134	0.436600
	Zn2492	Zn	0.188726	0.680431	0.499036
	Zn2493	Zn	0.188707	0.825244	0.499104
	Zn2494	Zn	0.188777	0.180489	0.499087
	Zn2495	Zn	0.188735	0.325348	0.499086
	C2496	C	0.226334	0.753362	0.423209
	C2497	C	0.151111	0.754237	0.449928
	C2498	C	0.155451	0.754336	0.459124
	C2499	C	0.156535	0.691928	0.463469
	C2500	C	0.156445	0.816520	0.463520
	C2501	C	0.150872	0.251471	0.449982
	C2502	C	0.155300	0.251731	0.459178
	C2503	C	0.156224	0.189704	0.463597
	C2504	C	0.156555	0.314115	0.463518
	C2505	C	0.151063	0.754215	0.423234
	C2506	C	0.155442	0.754061	0.414041
	C2507	C	0.156565	0.816310	0.409658
	C2508	C	0.156436	0.691810	0.409646
	C2509	C	0.150988	0.250976	0.423223
	C2510	C	0.155425	0.251210	0.414003
	C2511	C	0.156744	0.313500	0.409659
	C2512	C	0.156367	0.189109	0.409631
	C2513	C	0.257525	0.043377	0.440228
	C2514	C	0.257527	0.962324	0.440213
	C2515	C	0.124204	0.042951	0.434662
	C2516	C	0.124164	0.962187	0.434662
	C2517	C	0.121796	0.043002	0.437972
	C2518	C	0.121778	0.962176	0.437950
	C2519	C	0.129981	0.462115	0.439206
	C2520	C	0.245261	0.462234	0.436458
	C2521	C	0.253740	0.462296	0.434920
	C2522	C	0.129972	0.543070	0.439192
	C2523	C	0.253824	0.543178	0.434923
	C2524	C	0.245275	0.543341	0.436442
	C2525	C	0.226360	0.753735	0.449972
	C2526	C	0.226318	0.252008	0.449973
	C2527	C	0.222051	0.753658	0.459175
	C2528	C	0.221121	0.691393	0.463559
	C2529	C	0.221003	0.815860	0.463547
	C2530	C	0.222069	0.252229	0.459185
	C2531	C	0.221066	0.190083	0.463588
	C2532	C	0.221098	0.314556	0.463568
	C2533	C	0.226371	0.252094	0.423209
	C2534	C	0.213986	0.752030	0.387453
	C2535	C	0.164459	0.753354	0.387504
	C2536	C	0.164004	0.753559	0.485657
	C2537	C	0.220948	0.690464	0.409675
	C2538	C	0.221502	0.815100	0.409574
	C2539	C	0.218263	0.752251	0.396677
	C2540	C	0.159907	0.753726	0.396715
	C2541	C	0.158715	0.691609	0.401077
	C2542	C	0.218978	0.690126	0.401098
	C2543	C	0.219540	0.814704	0.400999
	C2544	C	0.158838	0.816097	0.401084
	C2545	C	0.222110	0.753011	0.413999
	C2546	C	0.213667	0.753224	0.485721
	C2547	C	0.218971	0.691319	0.472133
	C2548	C	0.218840	0.815838	0.472124
	C2549	C	0.217960	0.753524	0.476499
	C2550	C	0.176829	0.462660	0.501180
	C2551	C	0.203081	0.461989	0.373666
	C2552	C	0.199826	0.462325	0.501730
	C2553	C	0.176818	0.543492	0.501164
	C2554	C	0.199839	0.543136	0.501707
	C2555	C	0.203034	0.543179	0.373657
	C2556	C	0.213657	0.252706	0.485731
	C2557	C	0.218964	0.190184	0.472167
	C2558	C	0.219015	0.314818	0.472144
	C2559	C	0.217978	0.252584	0.476515
	C2560	C	0.190434	0.042985	0.376555
	C2561	C	0.214035	0.252558	0.387455
	C2562	C	0.164310	0.251917	0.387486
	C2563	C	0.164011	0.252788	0.485704
	C2564	C	0.220994	0.189866	0.409624
	C2565	C	0.221183	0.314525	0.409650
	C2566	C	0.218169	0.252381	0.396670
	C2567	C	0.159855	0.251579	0.396677
	C2568	C	0.159644	0.753799	0.476446
	C2569	C	0.158552	0.816275	0.472098
	C2570	C	0.158639	0.691694	0.472038
	C2571	C	0.159628	0.252461	0.476493
	C2572	C	0.158777	0.314492	0.472086
	C2573	C	0.158456	0.190077	0.472166
	C2574	C	0.158645	0.189335	0.401063
	C2575	C	0.218983	0.190032	0.401047
	C2576	C	0.219185	0.314583	0.401073
	C2577	C	0.159005	0.313682	0.401083
	C2578	C	0.222103	0.252179	0.413993
	C2579	C	0.186477	0.043163	0.496440
	C2580	C	0.182859	0.043218	0.373130
	C2581	C	0.190486	0.962319	0.376571
	C2582	C	0.186469	0.962264	0.496461
	C2583	C	0.182809	0.962292	0.373139
	N2584	N	0.125668	0.069907	0.436568
	N2585	N	0.125613	0.935259	0.436556
	N2586	N	0.126496	0.435568	0.436563
	N2587	N	0.126475	0.570198	0.436561
	N2588	N	0.188794	0.435635	0.499081
	N2589	N	0.188804	0.570216	0.499039
	N2590	N	0.188784	0.070007	0.499085
	N2591	N	0.188791	0.935371	0.499119
	O2592	O	0.229561	0.693142	0.551688
	O2593	O	0.228670	0.809984	0.551751
	O2594	O	0.148697	0.694105	0.571503
	O2595	O	0.148949	0.811021	0.571471
	O2596	O	0.148853	0.194213	0.571465
	O2597	O	0.148961	0.311132	0.571465
	O2598	O	0.149109	0.694396	0.551772
	O2599	O	0.148789	0.811175	0.551741
	O2600	O	0.148821	0.193787	0.551694
	O2601	O	0.148870	0.310610	0.551738
	O2602	O	0.229388	0.693724	0.571547
	O2603	O	0.228933	0.810524	0.571496
	O2604	O	0.228688	0.195992	0.571426
	O2605	O	0.229427	0.312889	0.571520
	O2606	O	0.228717	0.195846	0.551727
	O2607	O	0.229390	0.312795	0.551701
	O2608	O	0.211053	0.694345	0.508950
	O2609	O	0.166510	0.694566	0.508943
	O2610	O	0.211350	0.694533	0.614307
	O2611	O	0.211099	0.811663	0.614257
	O2612	O	0.166525	0.694123	0.614233
	O2613	O	0.166235	0.810842	0.614266
	O2614	O	0.166348	0.811369	0.508959
	O2615	O	0.211014	0.811148	0.509008
	O2616	O	0.211028	0.194342	0.509011
	O2617	O	0.166368	0.194336	0.508943
	O2618	O	0.210876	0.194363	0.614176
	O2619	O	0.211189	0.311315	0.614296
	O2620	O	0.166514	0.194287	0.614277
	O2621	O	0.166325	0.311106	0.614248
	O2622	O	0.166346	0.311178	0.508952
	O2623	O	0.211239	0.311460	0.508919
	H2624	H	0.155305	0.642369	0.585163
	H2625	H	0.155962	0.862301	0.585134
	H2626	H	0.156034	0.142384	0.585105
	H2627	H	0.155427	0.362724	0.585130
	H2628	H	0.155505	0.862819	0.538082
	H2629	H	0.155749	0.642617	0.538028
	H2630	H	0.155731	0.362624	0.538093
	H2631	H	0.155416	0.142406	0.538055
	H2632	H	0.243716	0.065184	0.551987
	H2633	H	0.225876	0.064243	0.557334
	H2634	H	0.225860	0.941012	0.557371
	H2635	H	0.243721	0.940673	0.551998
	H2636	H	0.273630	0.064904	0.555922
	H2637	H	0.273620	0.941346	0.555882
	H2638	H	0.110210	0.064665	0.560545
	H2639	H	0.110196	0.941035	0.560543
	H2640	H	0.113646	0.064482	0.565396
	H2641	H	0.113723	0.940559	0.565397
	H2642	H	0.132166	0.064680	0.567239
	H2643	H	0.132028	0.941011	0.567248
	H2644	H	0.124584	0.440739	0.559760
	H2645	H	0.121454	0.440941	0.560989
	H2646	H	0.130630	0.440933	0.560268
	H2647	H	0.225882	0.441463	0.556399
	H2648	H	0.256596	0.441084	0.551175
	H2649	H	0.277173	0.441501	0.556210
	H2650	H	0.121561	0.564028	0.560958
	H2651	H	0.124591	0.564318	0.559764
	H2652	H	0.277160	0.564622	0.556193
	H2653	H	0.256696	0.564931	0.551127
	H2654	H	0.225899	0.564837	0.556431
	H2655	H	0.130640	0.564254	0.560237
	H2656	H	0.222631	0.642053	0.585239
	H2657	H	0.222068	0.862318	0.585117
	H2658	H	0.221709	0.144047	0.585043
	H2659	H	0.222485	0.364216	0.585190
	H2660	H	0.159897	0.642845	0.522624
	H2661	H	0.218816	0.641937	0.522537
	H2662	H	0.217256	0.862142	0.522695
	H2663	H	0.159651	0.862851	0.522656
	H2664	H	0.223000	0.641434	0.537996
	H2665	H	0.221356	0.861695	0.538118
	H2666	H	0.218226	0.642558	0.600678
	H2667	H	0.217678	0.862815	0.600531
	H2668	H	0.168808	0.441748	0.499243
	H2669	H	0.196524	0.440627	0.624154
	H2670	H	0.181627	0.440630	0.492417
	H2671	H	0.198392	0.440680	0.492833
	H2672	H	0.185031	0.441333	0.621687
	H2673	H	0.191524	0.441198	0.621505
	H2674	H	0.196477	0.564578	0.624128
	H2675	H	0.168817	0.564758	0.499217
	H2676	H	0.191532	0.564922	0.621508
	H2677	H	0.185030	0.564619	0.621702
	H2678	H	0.198315	0.563975	0.492759
	H2679	H	0.181677	0.564136	0.492368
	H2680	H	0.217480	0.143311	0.600470
	H2681	H	0.218228	0.363605	0.600640
	H2682	H	0.198001	0.064720	0.501588
	H2683	H	0.200139	0.064179	0.498163
	H2684	H	0.185340	0.065086	0.503009
	H2685	H	0.159950	0.862264	0.600579
	H2686	H	0.159368	0.642364	0.600578
	H2687	H	0.159386	0.362707	0.600550
	H2688	H	0.159988	0.142412	0.600563
	H2689	H	0.159415	0.142759	0.522603
	H2690	H	0.217409	0.143438	0.522702
	H2691	H	0.218553	0.363507	0.522516
	H2692	H	0.159783	0.362836	0.522673
	H2693	H	0.221557	0.144116	0.538131
	H2694	H	0.222851	0.364107	0.537970
	H2695	H	0.186891	0.064564	0.624630
	H2696	H	0.188758	0.064615	0.624971
	H2697	H	0.190906	0.064318	0.624459
	H2698	H	0.200024	0.940926	0.498181
	H2699	H	0.198175	0.941060	0.501605
	H2700	H	0.185258	0.941299	0.503093
	H2701	H	0.187067	0.941194	0.624574
	H2702	H	0.188619	0.940870	0.624935
	H2703	H	0.190901	0.940823	0.624469
	Zn2704	Zn	0.126638	0.680071	0.561594
	Zn2705	Zn	0.126542	0.825057	0.561629
	Zn2706	Zn	0.126521	0.180220	0.561591
	Zn2707	Zn	0.126656	0.325238	0.561585
	Zn2708	Zn	0.188882	0.680524	0.624098
	Zn2709	Zn	0.188639	0.825102	0.624103
	Zn2710	Zn	0.188881	0.180427	0.624143
	Zn2711	Zn	0.188645	0.325072	0.624125
	C2712	C	0.226662	0.751506	0.548207
	C2713	C	0.151305	0.752596	0.574983
	C2714	C	0.155720	0.752462	0.584189
	C2715	C	0.156485	0.690180	0.588575
	C2716	C	0.156842	0.814615	0.588570
	C2717	C	0.151379	0.252669	0.574960
	C2718	C	0.155671	0.252538	0.584171
	C2719	C	0.156847	0.190218	0.588547
	C2720	C	0.156504	0.314767	0.588547
	C2721	C	0.151404	0.752756	0.548241
	C2722	C	0.155664	0.752701	0.539030
	C2723	C	0.156592	0.814922	0.534663
	C2724	C	0.156709	0.690563	0.534631
	C2725	C	0.151245	0.252298	0.548206
	C2726	C	0.155701	0.252486	0.539009
	C2727	C	0.156722	0.314826	0.534653
	C2728	C	0.156560	0.190291	0.534619
	C2729	C	0.239053	0.043520	0.556479
	C2730	C	0.239044	0.962273	0.556480
	C2731	C	0.115783	0.043216	0.562604
	C2732	C	0.115787	0.962311	0.562608
	C2733	C	0.134336	0.043245	0.564451
	C2734	C	0.134291	0.962448	0.564463
	C2735	C	0.124003	0.462346	0.560688
	C2736	C	0.231972	0.462560	0.561058
	C2737	C	0.262889	0.462482	0.555769
	C2738	C	0.124014	0.543041	0.560678
	C2739	C	0.262890	0.543426	0.555776
	C2740	C	0.231973	0.543408	0.561078
	C2741	C	0.226682	0.752125	0.575032
	C2742	C	0.226549	0.254421	0.574966
	C2743	C	0.222209	0.752180	0.584234
	C2744	C	0.221361	0.689946	0.588649
	C2745	C	0.221080	0.814555	0.588571
	C2746	C	0.222153	0.254218	0.584183
	C2747	C	0.220879	0.191709	0.588510
	C2748	C	0.221329	0.316310	0.588602
	C2749	C	0.226561	0.254391	0.548208
	C2750	C	0.213582	0.752597	0.512487
	C2751	C	0.163969	0.752925	0.512464
	C2752	C	0.163989	0.752485	0.610731
	C2753	C	0.221587	0.689385	0.534593
	C2754	C	0.220634	0.813803	0.534665
	C2755	C	0.218005	0.752025	0.521682
	C2756	C	0.159730	0.752869	0.521675
	C2757	C	0.158838	0.690657	0.526052
	C2758	C	0.219404	0.689649	0.526016
	C2759	C	0.218515	0.814106	0.526093
	C2760	C	0.158696	0.815038	0.526079
	C2761	C	0.222172	0.751471	0.539012
	C2762	C	0.213583	0.753036	0.610775
	C2763	C	0.219186	0.690319	0.597229
	C2764	C	0.218907	0.814799	0.597144
	C2765	C	0.217994	0.752794	0.601575
	C2766	C	0.193462	0.462229	0.624905
	C2767	C	0.189669	0.461983	0.494314
	C2768	C	0.188416	0.462507	0.622251
	C2769	C	0.193517	0.543150	0.624890
	C2770	C	0.188414	0.543274	0.622264
	C2771	C	0.189674	0.543052	0.494289
	C2772	C	0.213472	0.253024	0.610727
	C2773	C	0.218702	0.191338	0.597084
	C2774	C	0.219128	0.315924	0.597173
	C2775	C	0.217863	0.253449	0.601508
	C2776	C	0.196374	0.043185	0.499681
	C2777	C	0.213558	0.253094	0.512459
	C2778	C	0.163976	0.252728	0.512462
	C2779	C	0.163971	0.252589	0.610744
	C2780	C	0.220776	0.191771	0.534666
	C2781	C	0.221488	0.316252	0.534570
	C2782	C	0.217985	0.253499	0.521662
	C2783	C	0.159706	0.252703	0.521670
	C2784	C	0.159671	0.752383	0.601524
	C2785	C	0.158871	0.814564	0.597147
	C2786	C	0.158545	0.690110	0.597149
	C2787	C	0.159640	0.252517	0.601524
	C2788	C	0.158535	0.314738	0.597129
	C2789	C	0.158863	0.190186	0.597136
	C2790	C	0.158657	0.190449	0.526045
	C2791	C	0.218681	0.191402	0.526090
	C2792	C	0.219338	0.315945	0.525992
	C2793	C	0.158827	0.314861	0.526077
	C2794	C	0.222064	0.254221	0.538999
	C2795	C	0.188131	0.043250	0.624623
	C2796	C	0.183588	0.043467	0.501144
	C2797	C	0.196408	0.962452	0.499693
	C2798	C	0.188060	0.962263	0.624599
	C2799	C	0.183576	0.962563	0.501174
	N2800	N	0.126559	0.069897	0.561608
	N2801	N	0.126544	0.935356	0.561644
	N2802	N	0.126733	0.435517	0.561570
	N2803	N	0.126741	0.570035	0.561554
	N2804	N	0.188790	0.435340	0.624123
	N2805	N	0.188873	0.569953	0.624121
	N2806	N	0.188893	0.070124	0.624129
	N2807	N	0.188813	0.935533	0.624088
	O2808	O	0.228496	0.695471	0.676714
	O2809	O	0.228818	0.812559	0.676724
	O2810	O	0.148776	0.695161	0.696513
	O2811	O	0.148341	0.812143	0.696564
	O2812	O	0.148445	0.193364	0.696541
	O2813	O	0.148851	0.310407	0.696501
	O2814	O	0.148796	0.694745	0.676761
	O2815	O	0.148509	0.811684	0.676719
	O2816	O	0.148509	0.193259	0.676735
	O2817	O	0.148481	0.310010	0.676755
	O2818	O	0.228247	0.695390	0.696457
	O2819	O	0.228685	0.812143	0.696503
	O2820	O	0.228729	0.193615	0.696505
	O2821	O	0.228498	0.310517	0.696520
	O2822	O	0.228702	0.193654	0.676735
	O2823	O	0.228332	0.310594	0.676799
	O2824	O	0.211095	0.694846	0.633972
	O2825	O	0.166609	0.694039	0.633979
	O2826	O	0.210959	0.694706	0.739253
	O2827	O	0.210818	0.811645	0.739277
	O2828	O	0.166370	0.694681	0.739282
	O2829	O	0.166218	0.811284	0.739305
	O2830	O	0.166447	0.810940	0.633985
	O2831	O	0.211176	0.811592	0.633904
	O2832	O	0.211289	0.194327	0.633953
	O2833	O	0.166395	0.194449	0.633989
	O2834	O	0.210978	0.193880	0.739278
	O2835	O	0.210879	0.310889	0.739263
	O2836	O	0.166425	0.194136	0.739273
	O2837	O	0.166365	0.311006	0.739251
	O2838	O	0.166398	0.311368	0.633994
	O2839	O	0.210974	0.311049	0.634021
	H2840	H	0.155457	0.643641	0.710176
	H2841	H	0.155240	0.863553	0.710203
	H2842	H	0.155433	0.141778	0.710213
	H2843	H	0.155359	0.362300	0.710182
	H2844	H	0.155384	0.862950	0.663051
	H2845	H	0.155524	0.643058	0.663132
	H2846	H	0.155595	0.362011	0.663147
	H2847	H	0.155421	0.141909	0.663048
	H2848	H	0.242780	0.064878	0.686219
	H2849	H	0.244744	0.064654	0.688616
	H2850	H	0.244800	0.941209	0.688675
	H2851	H	0.242759	0.940938	0.686201
	H2852	H	0.249378	0.064551	0.683691
	H2853	H	0.249389	0.940697	0.683682
	H2854	H	0.113049	0.064301	0.688386
	H2855	H	0.113054	0.940645	0.688366
	H2856	H	0.121213	0.064548	0.691343
	H2857	H	0.121284	0.941256	0.691322
	H2858	H	0.136662	0.064389	0.689851
	H2859	H	0.136735	0.941190	0.689835
	H2860	H	0.138388	0.440715	0.683176
	H2861	H	0.126763	0.440915	0.681139
	H2862	H	0.139558	0.441061	0.689526
	H2863	H	0.252760	0.441309	0.687929
	H2864	H	0.247921	0.441103	0.687719
	H2865	H	0.246435	0.440776	0.686556
	H2866	H	0.126886	0.564308	0.681120
	H2867	H	0.138496	0.564348	0.683176
	H2868	H	0.246392	0.564596	0.686525
	H2869	H	0.247711	0.564381	0.687732
	H2870	H	0.252661	0.564377	0.687948
	H2871	H	0.139676	0.564353	0.689495
	H2872	H	0.221773	0.643582	0.710133
	H2873	H	0.221657	0.863712	0.710148
	H2874	H	0.222189	0.142000	0.710198
	H2875	H	0.221445	0.362118	0.710120
	H2876	H	0.159692	0.642514	0.647691
	H2877	H	0.217561	0.643753	0.647643
	H2878	H	0.218056	0.863664	0.647595
	H2879	H	0.159595	0.862770	0.647645
	H2880	H	0.221627	0.644066	0.663079
	H2881	H	0.222085	0.863898	0.663037
	H2882	H	0.217849	0.643276	0.725563
	H2883	H	0.217606	0.863596	0.725606
	H2884	H	0.193701	0.441110	0.626263
	H2885	H	0.191290	0.440919	0.751877
	H2886	H	0.184800	0.441123	0.626468
	H2887	H	0.181092	0.441300	0.624559
	H2888	H	0.193964	0.440519	0.746910
	H2889	H	0.196856	0.440864	0.749115
	H2890	H	0.191278	0.564509	0.751866
	H2891	H	0.193792	0.564390	0.626207
	H2892	H	0.196736	0.564220	0.749149
	H2893	H	0.193967	0.564295	0.746919
	H2894	H	0.181389	0.564793	0.624591
	H2895	H	0.185041	0.564520	0.626489
	H2896	H	0.218150	0.142260	0.725649
	H2897	H	0.217373	0.362529	0.725543
	H2898	H	0.188618	0.064581	0.623319
	H2899	H	0.186948	0.064512	0.623685
	H2900	H	0.190920	0.064338	0.623795
	H2901	H	0.159343	0.863539	0.725624
	H2902	H	0.159575	0.643271	0.725597
	H2903	H	0.159360	0.362561	0.725614
	H2904	H	0.159548	0.142061	0.725667
	H2905	H	0.159546	0.142616	0.647615
	H2906	H	0.217803	0.142236	0.647670
	H2907	H	0.217880	0.362638	0.647689
	H2908	H	0.159737	0.362602	0.647717
	H2909	H	0.221555	0.142300	0.663107
	H2910	H	0.221649	0.362231	0.663163
	H2911	H	0.203226	0.064614	0.745862
	H2912	H	0.191051	0.064316	0.743044
	H2913	H	0.173491	0.064325	0.746297
	H2914	H	0.186918	0.941164	0.623651
	H2915	H	0.188555	0.941126	0.623292
	H2916	H	0.190904	0.941169	0.623730
	H2917	H	0.203232	0.940558	0.745829
	H2918	H	0.190993	0.940935	0.743019
	H2919	H	0.173361	0.941217	0.746318
	Zn2920	Zn	0.126610	0.680414	0.686625
	Zn2921	Zn	0.126132	0.825206	0.686621
	Zn2922	Zn	0.126055	0.180221	0.686688
	Zn2923	Zn	0.126446	0.325082	0.686640
	Zn2924	Zn	0.188655	0.680263	0.749101
	Zn2925	Zn	0.188606	0.825259	0.749174
	Zn2926	Zn	0.188785	0.180141	0.749168
	Zn2927	Zn	0.188777	0.325124	0.749150
	C2928	C	0.226239	0.754103	0.673213
	C2929	C	0.151047	0.753637	0.700041
	C2930	C	0.155409	0.753607	0.709251
	C2931	C	0.156454	0.691355	0.713626
	C2932	C	0.156307	0.815813	0.713638
	C2933	C	0.151142	0.251914	0.700016
	C2934	C	0.155493	0.252002	0.709239
	C2935	C	0.156454	0.189730	0.713638
	C2936	C	0.156364	0.314393	0.713618
	C2937	C	0.151029	0.753191	0.673222
	C2938	C	0.155432	0.753020	0.664002
	C2939	C	0.156386	0.815137	0.659619
	C2940	C	0.156497	0.690650	0.659659
	C2941	C	0.151015	0.251644	0.673235
	C2942	C	0.155356	0.251934	0.664024
	C2943	C	0.156447	0.314345	0.659686
	C2944	C	0.156356	0.189878	0.659629
	C2945	C	0.245676	0.043344	0.687229
	C2946	C	0.245680	0.962375	0.687224
	C2947	C	0.119494	0.043184	0.689012
	C2948	C	0.119518	0.962226	0.689004
	C2949	C	0.135026	0.043220	0.687517
	C2950	C	0.135048	0.962292	0.687507
	C2951	C	0.130973	0.462228	0.683354
	C2952	C	0.252964	0.462384	0.687221
	C2953	C	0.248072	0.462248	0.687009
	C2954	C	0.131001	0.543157	0.683346
	C2955	C	0.248009	0.543203	0.687001
	C2956	C	0.252951	0.543251	0.687231
	C2957	C	0.226026	0.753771	0.699997
	C2958	C	0.226138	0.251986	0.700013
	C2959	C	0.221623	0.753634	0.709214
	C2960	C	0.220733	0.691314	0.713575
	C2961	C	0.220654	0.815917	0.713586
	C2962	C	0.221740	0.251994	0.709221
	C2963	C	0.221020	0.189778	0.713626
	C2964	C	0.220583	0.314344	0.713576
	C2965	C	0.226051	0.252198	0.673265
	C2966	C	0.213561	0.753359	0.637452
	C2967	C	0.164014	0.752440	0.637478
	C2968	C	0.163839	0.753049	0.735771
	C2969	C	0.220715	0.691713	0.659633
	C2970	C	0.220993	0.816123	0.659607
	C2971	C	0.217906	0.753617	0.646645
	C2972	C	0.159556	0.752616	0.646666
	C2973	C	0.158646	0.690489	0.651081
	C2974	C	0.218653	0.691585	0.651055
	C2975	C	0.218928	0.815890	0.651028
	C2976	C	0.158579	0.814897	0.651049
	C2977	C	0.221839	0.754027	0.663992
	C2978	C	0.213328	0.753249	0.735764
	C2979	C	0.218723	0.691261	0.722153
	C2980	C	0.218584	0.815739	0.722167
	C2981	C	0.217630	0.753454	0.726558
	C2982	C	0.188098	0.462314	0.751035
	C2983	C	0.184523	0.462415	0.625154
	C2984	C	0.193644	0.461997	0.748304
	C2985	C	0.188095	0.543065	0.751026
	C2986	C	0.193639	0.542946	0.748292
	C2987	C	0.184647	0.543454	0.625162
	C2988	C	0.213306	0.252354	0.735768
	C2989	C	0.218879	0.190001	0.722201
	C2990	C	0.218450	0.314552	0.722149
	C2991	C	0.217630	0.252355	0.726548
	C2992	C	0.188079	0.043431	0.623673
	C2993	C	0.213594	0.252629	0.637503
	C2994	C	0.163909	0.252910	0.637494
	C2995	C	0.163952	0.252520	0.735757
	C2996	C	0.220748	0.190098	0.659666
	C2997	C	0.220804	0.314658	0.659690
	C2998	C	0.217830	0.252489	0.646714
	C2999	C	0.159545	0.252687	0.646691
	C3000	C	0.159467	0.753371	0.726588
	C3001	C	0.158365	0.815707	0.722212
	C3002	C	0.158522	0.691256	0.722198
	C3003	C	0.159488	0.252328	0.726572
	C3004	C	0.158427	0.314575	0.722193
	C3005	C	0.158554	0.189848	0.722216
	C3006	C	0.158496	0.190283	0.651051
	C3007	C	0.218735	0.190186	0.651090
	C3008	C	0.218788	0.314669	0.651107
	C3009	C	0.158610	0.314667	0.651111
	C3010	C	0.221764	0.252292	0.664048
	C3011	C	0.194906	0.043155	0.745684
	C3012	C	0.190373	0.043050	0.624131
	C3013	C	0.188042	0.962462	0.623654
	C3014	C	0.194898	0.962002	0.745681
	C3015	C	0.190341	0.962269	0.624124
	N3016	N	0.126028	0.070035	0.686665
	N3017	N	0.126063	0.935482	0.686646
	N3018	N	0.126443	0.435374	0.686653
	N3019	N	0.126492	0.569972	0.686653
	N3020	N	0.188652	0.435290	0.749090
	N3021	N	0.188654	0.569907	0.749105
	N3022	N	0.188711	0.069812	0.749142
	N3023	N	0.188686	0.935296	0.749142
	O3024	O	0.229024	0.694699	0.801762
	O3025	O	0.229226	0.811630	0.801755
	O3026	O	0.148533	0.693413	0.821496
	O3027	O	0.148557	0.810260	0.821514
	O3028	O	0.148549	0.195093	0.821541
	O3029	O	0.148422	0.311977	0.821545
	O3030	O	0.148589	0.693308	0.801823
	O3031	O	0.148888	0.809941	0.801863
	O3032	O	0.148702	0.194716	0.801783
	O3033	O	0.148345	0.311463	0.801734
	O3034	O	0.229188	0.694430	0.821503
	O3035	O	0.229293	0.811372	0.821508
	O3036	O	0.228904	0.194196	0.821454
	O3037	O	0.229223	0.310987	0.821553
	O3038	O	0.229076	0.194068	0.801746
	O3039	O	0.228919	0.311042	0.801774
	O3040	O	0.210910	0.694094	0.759039
	O3041	O	0.166284	0.693823	0.759055
	O3042	O	0.211440	0.694596	0.864228
	O3043	O	0.211294	0.811351	0.864244
	O3044	O	0.166956	0.693321	0.864185
	O3045	O	0.166699	0.810129	0.864234
	O3046	O	0.166437	0.810718	0.759053
	O3047	O	0.211070	0.810940	0.758999
	O3048	O	0.210885	0.194108	0.759044
	O3049	O	0.166225	0.194464	0.759001
	O3050	O	0.211107	0.193352	0.864218
	O3051	O	0.211634	0.310040	0.864292
	O3052	O	0.166797	0.194821	0.864288
	O3053	O	0.166969	0.311697	0.864251
	O3054	O	0.166185	0.311330	0.758974
	O3055	O	0.210849	0.310981	0.759040
	H3056	H	0.155542	0.641826	0.835120
	H3057	H	0.155410	0.861822	0.835167
	H3058	H	0.155659	0.143321	0.835176
	H3059	H	0.155238	0.363592	0.835227
	H3060	H	0.156006	0.861946	0.788191
	H3061	H	0.155281	0.641764	0.788155
	H3062	H	0.155236	0.363077	0.788073
	H3063	H	0.155259	0.143316	0.788112
	H3064	H	0.252561	0.064748	0.816478
	H3065	H	0.262416	0.064613	0.814496
	H3066	H	0.262459	0.941127	0.814484
	H3067	H	0.252546	0.941031	0.816501
	H3068	H	0.239211	0.064786	0.813631
	H3069	H	0.239125	0.941326	0.813648
	H3070	H	0.116957	0.064178	0.812505
	H3071	H	0.116903	0.941000	0.812501
	H3072	H	0.122081	0.064248	0.814810
	H3073	H	0.122071	0.940485	0.814842
	H3074	H	0.133274	0.063815	0.814210
	H3075	H	0.133226	0.940299	0.814211
	H3076	H	0.119127	0.440770	0.810697
	H3077	H	0.119525	0.440637	0.812928
	H3078	H	0.126240	0.440783	0.809034
	H3079	H	0.256774	0.441251	0.813150
	H3080	H	0.249267	0.441274	0.814001
	H3081	H	0.245005	0.441165	0.812634
	H3082	H	0.119445	0.564129	0.812937
	H3083	H	0.119053	0.564041	0.810704
	H3084	H	0.244999	0.564663	0.812586
	H3085	H	0.249314	0.564781	0.814005
	H3086	H	0.256916	0.564381	0.813135
	H3087	H	0.126168	0.564264	0.809030
	H3088	H	0.222417	0.643146	0.835150
	H3089	H	0.222285	0.862977	0.835131
	H3090	H	0.222140	0.141775	0.835143
	H3091	H	0.222416	0.361951	0.835223
	H3092	H	0.159321	0.641995	0.772716
	H3093	H	0.217486	0.642703	0.772722
	H3094	H	0.218455	0.863107	0.772611
	H3095	H	0.160052	0.862152	0.772735
	H3096	H	0.221682	0.642937	0.788156
	H3097	H	0.222677	0.863412	0.788056
	H3098	H	0.218305	0.643149	0.850582
	H3099	H	0.218162	0.863079	0.850567
	H3100	H	0.184470	0.441318	0.751590
	H3101	H	0.171673	0.441149	0.873209
	H3102	H	0.180681	0.441224	0.748527
	H3103	H	0.184762	0.440469	0.746576
	H3104	H	0.195947	0.440944	0.880142
	H3105	H	0.180920	0.441186	0.879824
	H3106	H	0.171633	0.564556	0.873216
	H3107	H	0.184443	0.564269	0.751577
	H3108	H	0.180924	0.564465	0.879850
	H3109	H	0.195998	0.564397	0.880146
	H3110	H	0.184603	0.564337	0.746529
	H3111	H	0.180661	0.564565	0.748525
	H3112	H	0.218126	0.141714	0.850590
	H3113	H	0.218481	0.361665	0.850633
	H3114	H	0.189519	0.064126	0.755318
	H3115	H	0.202289	0.064098	0.752918
	H3116	H	0.172833	0.064568	0.751525
	H3117	H	0.159739	0.861843	0.850594
	H3118	H	0.159815	0.641602	0.850537
	H3119	H	0.159696	0.363315	0.850651
	H3120	H	0.160036	0.143211	0.850600
	H3121	H	0.159446	0.143076	0.772672
	H3122	H	0.217801	0.142653	0.772697
	H3123	H	0.217889	0.362677	0.772670
	H3124	H	0.159346	0.363000	0.772653
	H3125	H	0.222169	0.142555	0.788110
	H3126	H	0.222213	0.362780	0.788107
	H3127	H	0.192046	0.064570	0.874653
	H3128	H	0.192086	0.064176	0.873610
	H3129	H	0.188655	0.064344	0.872890
	H3130	H	0.202358	0.940898	0.752966
	H3131	H	0.189448	0.940629	0.755355
	H3132	H	0.172788	0.940834	0.751508
	H3133	H	0.192061	0.940446	0.874643
	H3134	H	0.192212	0.940874	0.873583
	H3135	H	0.188624	0.940914	0.872839
	Zn3136	Zn	0.126099	0.679832	0.811671
	Zn3137	Zn	0.126427	0.824983	0.811678
	Zn3138	Zn	0.126369	0.179850	0.811643
	Zn3139	Zn	0.125971	0.324782	0.811611
	Zn3140	Zn	0.189249	0.679857	0.874136
	Zn3141	Zn	0.188907	0.825139	0.874084
	Zn3142	Zn	0.188864	0.179919	0.874153
	Zn3143	Zn	0.189259	0.325102	0.874155
	C3144	C	0.226635	0.753175	0.798256
	C3145	C	0.150997	0.751772	0.825010
	C3146	C	0.155413	0.751905	0.834219
	C3147	C	0.156482	0.689599	0.838563
	C3148	C	0.156470	0.814094	0.838603
	C3149	C	0.150953	0.253568	0.825042
	C3150	C	0.155362	0.253542	0.834241
	C3151	C	0.156542	0.191226	0.838605
	C3152	C	0.156360	0.315724	0.838632
	C3153	C	0.151199	0.751627	0.798326
	C3154	C	0.155496	0.751801	0.789109
	C3155	C	0.156740	0.814169	0.784736
	C3156	C	0.156324	0.689650	0.784725
	C3157	C	0.150958	0.253092	0.798248
	C3158	C	0.155373	0.253200	0.789056
	C3159	C	0.156286	0.315293	0.784663
	C3160	C	0.156356	0.191017	0.784685
	C3161	C	0.255906	0.043459	0.814470
	C3162	C	0.255949	0.962542	0.814495
	C3163	C	0.121329	0.042980	0.813149
	C3164	C	0.121311	0.962013	0.813146
	C3165	C	0.132582	0.042488	0.812523
	C3166	C	0.132529	0.961740	0.812536
	C3167	C	0.121086	0.461978	0.811782
	C3168	C	0.255838	0.462569	0.812002
	C3169	C	0.248268	0.462399	0.812870
	C3170	C	0.121057	0.542794	0.811788
	C3171	C	0.248260	0.543524	0.812874
	C3172	C	0.255876	0.543345	0.811989
	C3173	C	0.226784	0.752926	0.825008
	C3174	C	0.226622	0.252435	0.825011
	C3175	C	0.222380	0.753029	0.834214
	C3176	C	0.221372	0.690835	0.838581
	C3177	C	0.221285	0.815340	0.838572
	C3178	C	0.222404	0.251872	0.834214
	C3179	C	0.221345	0.189599	0.838582
	C3180	C	0.221488	0.313920	0.838617
	C3181	C	0.226545	0.252596	0.798261
	C3182	C	0.213456	0.752595	0.762533
	C3183	C	0.163915	0.752225	0.762560
	C3184	C	0.164289	0.751749	0.860718
	C3185	C	0.220954	0.690805	0.784697
	C3186	C	0.221506	0.815465	0.784640
	C3187	C	0.217992	0.752894	0.771721
	C3188	C	0.159589	0.752031	0.771775
	C3189	C	0.158410	0.689845	0.776153
	C3190	C	0.218784	0.690642	0.776126
	C3191	C	0.219303	0.815269	0.776065
	C3192	C	0.158825	0.814294	0.776158
	C3193	C	0.222223	0.753212	0.789048
	C3194	C	0.213879	0.753055	0.860739
	C3195	C	0.219281	0.690994	0.847155
	C3196	C	0.219193	0.815390	0.847145
	C3197	C	0.218250	0.753233	0.851535
	C3198	C	0.179420	0.462218	0.871795
	C3199	C	0.184259	0.462194	0.747950
	C3200	C	0.188669	0.462123	0.878450
	C3201	C	0.179371	0.542984	0.871789
	C3202	C	0.188690	0.542926	0.878456
	C3203	C	0.184275	0.543071	0.747937
	C3204	C	0.213877	0.251709	0.860746
	C3205	C	0.219227	0.189494	0.847156
	C3206	C	0.219406	0.313940	0.847186
	C3207	C	0.218355	0.251687	0.851541
	C3208	C	0.194024	0.042719	0.752833
	C3209	C	0.213325	0.252578	0.762545
	C3210	C	0.163743	0.252954	0.762498
	C3211	C	0.164373	0.253217	0.860768
	C3212	C	0.221122	0.190472	0.784688
	C3213	C	0.221118	0.314958	0.784675
	C3214	C	0.217780	0.252570	0.771746
	C3215	C	0.159331	0.253068	0.771702
	C3216	C	0.159823	0.751741	0.851530
	C3217	C	0.158771	0.814033	0.847171
	C3218	C	0.158782	0.689583	0.847130
	C3219	C	0.159785	0.253278	0.851555
	C3220	C	0.158623	0.315590	0.847199
	C3221	C	0.158794	0.191044	0.847173
	C3222	C	0.158404	0.190955	0.776101
	C3223	C	0.218868	0.190362	0.776121
	C3224	C	0.218871	0.314890	0.776106
	C3225	C	0.158335	0.315257	0.776086
	C3226	C	0.222077	0.252730	0.789061
	C3227	C	0.191253	0.042921	0.874143
	C3228	C	0.177242	0.043187	0.748974
	C3229	C	0.194013	0.962097	0.752836
	C3230	C	0.191307	0.962025	0.874107
	C3231	C	0.177189	0.962273	0.748974
	N3232	N	0.126479	0.069522	0.811653
	N3233	N	0.126471	0.934971	0.811676
	N3234	N	0.126035	0.435115	0.811658
	N3235	N	0.126020	0.569684	0.811666
	N3236	N	0.189428	0.435237	0.874178
	N3237	N	0.189382	0.569763	0.874164
	N3238	N	0.188903	0.069881	0.874097
	N3239	N	0.188915	0.935330	0.874064
	O3240	O	0.228970	0.695408	0.926779
	O3241	O	0.229134	0.812285	0.926766
	O3242	O	0.148526	0.693440	0.946509
	O3243	O	0.148930	0.810350	0.946469
	O3244	O	0.149182	0.194723	0.946386
	O3245	O	0.148561	0.311553	0.946524
	O3246	O	0.148584	0.692939	0.926743
	O3247	O	0.148907	0.809771	0.926765
	O3248	O	0.148729	0.194599	0.926732
	O3249	O	0.148543	0.311598	0.926729
	O3250	O	0.228961	0.694992	0.946508
	O3251	O	0.229390	0.811726	0.946595
	O3252	O	0.229474	0.193527	0.946565
	O3253	O	0.228643	0.310475	0.946481
	O3254	O	0.229000	0.193257	0.926792
	O3255	O	0.228788	0.310105	0.926783
	O3256	O	0.211379	0.694867	0.884021
	O3257	O	0.166774	0.693588	0.883981
	O3258	O	0.210853	0.693659	0.989215
	O3259	O	0.211301	0.810486	0.989338
	O3260	O	0.166115	0.694445	0.989302
	O3261	O	0.166476	0.811270	0.989210
	O3262	O	0.166746	0.810479	0.884032
	O3263	O	0.211304	0.811726	0.884001
	O3264	O	0.211396	0.193414	0.884014
	O3265	O	0.166672	0.194587	0.884048
	O3266	O	0.211156	0.194100	0.989267
	O3267	O	0.210944	0.311053	0.989250
	O3268	O	0.166565	0.193508	0.989190
	O3269	O	0.166220	0.310190	0.989209
	O3270	O	0.166567	0.311406	0.883962
	O3271	O	0.211266	0.310251	0.884087
	H3272	H	0.154891	0.642049	0.960236
	H3273	H	0.156069	0.862182	0.960060
	H3274	H	0.156187	0.142595	0.960006
	H3275	H	0.154653	0.362499	0.960193
	H3276	H	0.156200	0.861074	0.913180
	H3277	H	0.155004	0.641287	0.913045
	H3278	H	0.155108	0.363293	0.913065
	H3279	H	0.155803	0.143208	0.913119
	H3280	H	0.238538	0.064449	0.937163
	H3281	H	0.244201	0.064518	0.940542
	H3282	H	0.244157	0.940824	0.940543
	H3283	H	0.238475	0.941160	0.937165
	H3284	H	0.245889	0.064647	0.932450
	H3285	H	0.245761	0.940767	0.932461
	H3286	H	0.131665	0.064262	0.937159
	H3287	H	0.131783	0.940638	0.937212
	H3288	H	0.131259	0.064460	0.935629
	H3289	H	0.131217	0.940309	0.935605
	H3290	H	0.125763	0.064057	0.934771
	H3291	H	0.125622	0.941202	0.934727
	H3292	H	0.119648	0.440626	0.931899
	H3293	H	0.111933	0.440912	0.935434
	H3294	H	0.136521	0.440683	0.932796
	H3295	H	0.244752	0.440805	0.936088
	H3296	H	0.250303	0.440279	0.934323
	H3297	H	0.255579	0.440792	0.934926
	H3298	H	0.111879	0.563919	0.935407
	H3299	H	0.119681	0.564278	0.931903
	H3300	H	0.255481	0.563878	0.934904
	H3301	H	0.250278	0.564250	0.934333
	H3302	H	0.244833	0.564308	0.936144
	H3303	H	0.136484	0.564244	0.932763
	H3304	H	0.221892	0.642987	0.960094
	H3305	H	0.222783	0.863129	0.960288
	H3306	H	0.222953	0.142142	0.960200
	H3307	H	0.221633	0.362239	0.960148
	H3308	H	0.159142	0.641697	0.897605
	H3309	H	0.217907	0.643416	0.897715
	H3310	H	0.218544	0.863719	0.897632
	H3311	H	0.160319	0.861797	0.897758
	H3312	H	0.221958	0.643756	0.913140
	H3313	H	0.222650	0.863888	0.913096
	H3314	H	0.217612	0.642437	0.975559
	H3315	H	0.218450	0.862498	0.975695
	H3316	H	0.179968	0.440827	0.868713
	H3317	H	0.184029	0.440751	1.001500
	H3318	H	0.200553	0.440753	0.869086
	H3319	H	0.207386	0.440284	0.873947
	H3320	H	0.196359	0.440867	0.999273
	H3321	H	0.193174	0.440493	1.001391
	H3322	H	0.184179	0.564537	1.001491
	H3323	H	0.179946	0.563928	0.868679
	H3324	H	0.193190	0.564386	1.001404
	H3325	H	0.196250	0.563950	0.999312
	H3326	H	0.207368	0.564007	0.873917
	H3327	H	0.200637	0.564313	0.869098
	H3328	H	0.218730	0.142352	0.975670
	H3329	H	0.217311	0.362405	0.975574
	H3330	H	0.186035	0.064345	0.874830
	H3331	H	0.188464	0.064415	0.875375
	H3332	H	0.186147	0.064616	0.873385
	H3333	H	0.160169	0.862737	0.975508
	H3334	H	0.159079	0.642634	0.975662
	H3335	H	0.158695	0.362110	0.975628
	H3336	H	0.160249	0.141831	0.975439
	H3337	H	0.160034	0.143263	0.897681
	H3338	H	0.218643	0.141210	0.897667
	H3339	H	0.217706	0.361501	0.897720
	H3340	H	0.159486	0.363329	0.897640
	H3341	H	0.222666	0.141436	0.913103
	H3342	H	0.221720	0.361443	0.913171
	H3343	H	0.183194	0.064057	0.995165
	H3344	H	0.176742	0.064221	0.998056
	H3345	H	0.181776	0.064091	1.002806
	H3346	H	0.188686	0.940874	0.875314
	H3347	H	0.186019	0.941293	0.874811
	H3348	H	0.186043	0.940886	0.873358
	H3349	H	0.183220	0.940452	0.995157
	H3350	H	0.176638	0.940539	0.998081
	H3351	H	0.181797	0.940309	1.002811
	Zn3352	Zn	0.126233	0.679705	0.936595
	Zn3353	Zn	0.126673	0.824715	0.936597
	Zn3354	Zn	0.126686	0.179798	0.936636
	Zn3355	Zn	0.126184	0.324969	0.936625
	Zn3356	Zn	0.188560	0.680166	0.999124
	Zn3357	Zn	0.188685	0.824822	0.999145
	Zn3358	Zn	0.188742	0.180140	0.999115
	Zn3359	Zn	0.188428	0.324849	0.999122
	C3360	C	0.226644	0.753893	0.923264
	C3361	C	0.151145	0.751913	0.949992
	C3362	C	0.155449	0.752145	0.959200
	C3363	C	0.156162	0.690092	0.963623
	C3364	C	0.156810	0.814514	0.963532
	C3365	C	0.151248	0.252930	0.949966
	C3366	C	0.155530	0.252614	0.959164
	C3367	C	0.156895	0.190211	0.963486
	C3368	C	0.156032	0.314664	0.963592
	C3369	C	0.151254	0.751337	0.923252
	C3370	C	0.155607	0.751257	0.914037
	C3371	C	0.156889	0.813583	0.909710
	C3372	C	0.156274	0.689137	0.909633
	C3373	C	0.151082	0.253196	0.923236
	C3374	C	0.155432	0.253302	0.914027
	C3375	C	0.156318	0.315541	0.909641
	C3376	C	0.156661	0.191002	0.909680
	C3377	C	0.244030	0.042934	0.938289
	C3378	C	0.244015	0.962238	0.938289
	C3379	C	0.130250	0.042974	0.936461
	C3380	C	0.130238	0.961724	0.936443
	C3381	C	0.124643	0.042540	0.935587
	C3382	C	0.124637	0.962009	0.935581
	C3383	C	0.118566	0.462064	0.934435
	C3384	C	0.246787	0.462340	0.936928
	C3385	C	0.252399	0.462004	0.935120
	C3386	C	0.118562	0.542839	0.934428
	C3387	C	0.252386	0.542830	0.935132
	C3388	C	0.246842	0.543010	0.936939
	C3389	C	0.226722	0.753285	0.950061
	C3390	C	0.226678	0.252050	0.950036
	C3391	C	0.222252	0.753013	0.959251
	C3392	C	0.221007	0.690650	0.963571
	C3393	C	0.221524	0.815094	0.963670
	C3394	C	0.222223	0.252170	0.959249
	C3395	C	0.221622	0.189933	0.963636
	C3396	C	0.220823	0.314458	0.963606
	C3397	C	0.226498	0.251587	0.923279
	C3398	C	0.213810	0.753414	0.887516
	C3399	C	0.164267	0.751950	0.887509
	C3400	C	0.163856	0.752743	0.985742
	C3401	C	0.221150	0.691547	0.909695
	C3402	C	0.221498	0.816168	0.909663
	C3403	C	0.218191	0.753650	0.896732
	C3404	C	0.159746	0.751805	0.896709
	C3405	C	0.158394	0.689412	0.901055
	C3406	C	0.219052	0.691381	0.901121
	C3407	C	0.219364	0.816025	0.901087
	C3408	C	0.159004	0.813827	0.901137
	C3409	C	0.222335	0.753966	0.914054
	C3410	C	0.213577	0.752234	0.985775
	C3411	C	0.218811	0.690317	0.972146
	C3412	C	0.219307	0.814719	0.972237
	C3413	C	0.217960	0.752365	0.976569
	C3414	C	0.183956	0.462022	1.000119
	C3415	C	0.200137	0.462017	0.872215
	C3416	C	0.193087	0.462038	1.000023
	C3417	C	0.184007	0.542776	1.000117
	C3418	C	0.193079	0.542900	1.000025
	C3419	C	0.200140	0.543021	0.872210
	C3420	C	0.213539	0.252594	0.985765
	C3421	C	0.219445	0.190050	0.972214
	C3422	C	0.218646	0.314542	0.972174
	C3423	C	0.218043	0.252346	0.976573
	C3424	C	0.187721	0.043115	0.874841
	C3425	C	0.213813	0.251685	0.887546
	C3426	C	0.164168	0.253194	0.887512
	C3427	C	0.163953	0.251792	0.985695
	C3428	C	0.221483	0.189174	0.909670
	C3429	C	0.220960	0.313673	0.909709
	C3430	C	0.218175	0.251434	0.896750
	C3431	C	0.159695	0.253308	0.896710
	C3432	C	0.159596	0.752693	0.976534
	C3433	C	0.158921	0.814799	0.972111
	C3434	C	0.158286	0.690376	0.972199
	C3435	C	0.159551	0.251865	0.976500
	C3436	C	0.158125	0.314269	0.972169
	C3437	C	0.159006	0.189883	0.972060
	C3438	C	0.158833	0.191023	0.901104
	C3439	C	0.219354	0.189131	0.901100
	C3440	C	0.218871	0.313684	0.901134
	C3441	C	0.158497	0.315540	0.901077
	C3442	C	0.222219	0.251386	0.914068
	C3443	C	0.182239	0.042943	0.997270
	C3444	C	0.187791	0.043241	0.873393
	C3445	C	0.187770	0.962338	0.874819
	C3446	C	0.182213	0.961970	0.997279
	C3447	C	0.187793	0.962353	0.873361
	N3448	N	0.126716	0.069426	0.936609
	N3449	N	0.126735	0.934891	0.936592
	N3450	N	0.126331	0.435218	0.936668
	N3451	N	0.126322	0.569760	0.936654
	N3452	N	0.188430	0.435052	0.999116
	N3453	N	0.188491	0.569727	0.999158
	N3454	N	0.188609	0.069774	0.999150
	N3455	N	0.188604	0.935180	0.999121
	O3456	O	0.354729	0.694291	0.051704
	O3457	O	0.354209	0.811091	0.051787
	O3458	O	0.273793	0.694513	0.071530
	O3459	O	0.273771	0.811412	0.071517
	O3460	O	0.273614	0.193347	0.071549
	O3461	O	0.273849	0.310207	0.071491
	O3462	O	0.273955	0.694122	0.051792
	O3463	O	0.273748	0.811050	0.051711
	O3464	O	0.273789	0.193768	0.051698
	O3465	O	0.274187	0.310736	0.051770
	O3466	O	0.354798	0.693575	0.071515
	O3467	O	0.354260	0.810468	0.071468
	O3468	O	0.353978	0.195754	0.071409
	O3469	O	0.354507	0.312509	0.071504
	O3470	O	0.354315	0.195112	0.051781
	O3471	O	0.354717	0.311856	0.051701
	O3472	O	0.336599	0.695706	0.008963
	O3473	O	0.292254	0.693580	0.009050
	O3474	O	0.336815	0.693988	0.114255
	O3475	O	0.336677	0.811043	0.114166
	O3476	O	0.292195	0.694757	0.114275
	O3477	O	0.291936	0.811703	0.114249
	O3478	O	0.291925	0.810402	0.008998
	O3479	O	0.336435	0.812504	0.009005
	O3480	O	0.336209	0.193411	0.009044
	O3481	O	0.291648	0.195935	0.008929
	O3482	O	0.336633	0.194695	0.114179
	O3483	O	0.336892	0.311633	0.114246
	O3484	O	0.292012	0.194636	0.114259
	O3485	O	0.292140	0.311093	0.114238
	O3486	O	0.292399	0.312669	0.009068
	O3487	O	0.336712	0.310187	0.008971
	H3488	H	0.280827	0.642719	0.085179
	H3489	H	0.280594	0.862698	0.085184
	H3490	H	0.280451	0.142200	0.085256
	H3491	H	0.281050	0.362401	0.085141
	H3492	H	0.280148	0.862488	0.038056
	H3493	H	0.281553	0.642238	0.038158
	H3494	H	0.281964	0.362900	0.038200
	H3495	H	0.279987	0.142901	0.037968
	H3496	H	0.355152	0.064964	0.068377
	H3497	H	0.376995	0.065155	0.071881
	H3498	H	0.377054	0.941234	0.071926
	H3499	H	0.355129	0.941651	0.068368
	H3500	H	0.351817	0.065359	0.056702
	H3501	H	0.351758	0.941973	0.056624
	H3502	H	0.246944	0.064350	0.056907
	H3503	H	0.246859	0.940762	0.056906
	H3504	H	0.238498	0.064334	0.059790
	H3505	H	0.238503	0.940942	0.059835
	H3506	H	0.242411	0.064126	0.065324
	H3507	H	0.242467	0.940816	0.065369
	H3508	H	0.235521	0.440697	0.054368
	H3509	H	0.225738	0.440904	0.061336
	H3510	H	0.265184	0.440631	0.053715
	H3511	H	0.380682	0.441723	0.056344
	H3512	H	0.391901	0.441494	0.061065
	H3513	H	0.387716	0.441573	0.065309
	H3514	H	0.225695	0.564552	0.061334
	H3515	H	0.235500	0.564360	0.054357
	H3516	H	0.387791	0.565326	0.065311
	H3517	H	0.391819	0.565606	0.061019
	H3518	H	0.380700	0.564692	0.056367
	H3519	H	0.265226	0.564019	0.053742
	H3520	H	0.347957	0.641909	0.085176
	H3521	H	0.347087	0.862108	0.085097
	H3522	H	0.346906	0.144221	0.085053
	H3523	H	0.348237	0.363885	0.085186
	H3524	H	0.285925	0.642039	0.022731
	H3525	H	0.344314	0.643616	0.022543
	H3526	H	0.342552	0.863728	0.022741
	H3527	H	0.284427	0.862146	0.022630
	H3528	H	0.348418	0.643048	0.037991
	H3529	H	0.346656	0.863057	0.038180
	H3530	H	0.343816	0.642094	0.100599
	H3531	H	0.342906	0.862164	0.100538
	H3532	H	0.306605	0.441109	0.001014
	H3533	H	0.319394	0.441121	0.118310
	H3534	H	0.306818	0.441160	-0.002938
	H3535	H	0.313944	0.440581	-0.004300
	H3536	H	0.298084	0.441146	0.125434
	H3537	H	0.300922	0.441017	0.120502
	H3538	H	0.319498	0.564744	0.118350
	H3539	H	0.306554	0.564489	0.001009
	H3540	H	0.301110	0.564784	0.120493
	H3541	H	0.298089	0.564575	0.125472
	H3542	H	0.313933	0.564784	-0.004280
	H3543	H	0.306887	0.564561	-0.002924
	H3544	H	0.342935	0.143906	0.100468
	H3545	H	0.344192	0.363459	0.100638
	H3546	H	0.300973	0.064862	-0.003919
	H3547	H	0.299090	0.064265	0.000764
	H3548	H	0.317556	0.065066	-0.006315
	H3549	H	0.284886	0.862772	0.100616
	H3550	H	0.285116	0.642711	0.100612
	H3551	H	0.285331	0.362634	0.100562
	H3552	H	0.284667	0.142756	0.100664
	H3553	H	0.284206	0.143537	0.022533
	H3554	H	0.342459	0.142160	0.022743
	H3555	H	0.344158	0.362379	0.022552
	H3556	H	0.286160	0.363867	0.022770
	H3557	H	0.346725	0.142885	0.038174
	H3558	H	0.348388	0.363059	0.037970
	H3559	H	0.313784	0.064460	0.125754
	H3560	H	0.317552	0.064636	0.125428
	H3561	H	0.319002	0.065104	0.123535
	H3562	H	0.299165	0.941175	0.000761
	H3563	H	0.300931	0.940977	-0.003884
	H3564	H	0.317492	0.941514	-0.006331
	H3565	H	0.313642	0.941311	0.125778
	H3566	H	0.317582	0.940982	0.125409
	H3567	H	0.318896	0.941245	0.123536
	Zn3568	Zn	0.251681	0.680193	0.061648
	Zn3569	Zn	0.251447	0.825122	0.061602
	Zn3570	Zn	0.251512	0.179950	0.061569
	Zn3571	Zn	0.251678	0.324864	0.061593
	Zn3572	Zn	0.314487	0.680478	0.124142
	Zn3573	Zn	0.314381	0.825430	0.124101
	Zn3574	Zn	0.314493	0.180268	0.124091
	Zn3575	Zn	0.314403	0.325264	0.124081
	C3576	C	0.351950	0.752721	0.048245
	C3577	C	0.276250	0.752987	0.075029
	C3578	C	0.280711	0.752756	0.084247
	C3579	C	0.281758	0.690502	0.088620
	C3580	C	0.281711	0.815007	0.088614
	C3581	C	0.276190	0.251881	0.075028
	C3582	C	0.280630	0.252284	0.084230
	C3583	C	0.281586	0.190226	0.088637
	C3584	C	0.281906	0.314598	0.088579
	C3585	C	0.276363	0.752480	0.048246
	C3586	C	0.280836	0.752333	0.039045
	C3587	C	0.281514	0.814618	0.034649
	C3588	C	0.282281	0.689975	0.034707
	C3589	C	0.276449	0.252358	0.048230
	C3590	C	0.280826	0.252808	0.039017
	C3591	C	0.282424	0.315300	0.034701
	C3592	C	0.281406	0.190860	0.034578
	C3593	C	0.368908	0.043699	0.067917
	C3594	C	0.368856	0.962824	0.067919
	C3595	C	0.245011	0.043005	0.059202
	C3596	C	0.244995	0.962109	0.059213
	C3597	C	0.248915	0.042985	0.064775
	C3598	C	0.248927	0.962208	0.064775
	C3599	C	0.236127	0.462111	0.058831
	C3600	C	0.375125	0.463027	0.058034
	C3601	C	0.386408	0.462722	0.062734
	C3602	C	0.236106	0.543053	0.058843
	C3603	C	0.386467	0.543845	0.062751
	C3604	C	0.375171	0.543590	0.058050
	C3605	C	0.351995	0.752011	0.074985
	C3606	C	0.351788	0.254073	0.074967
	C3607	C	0.347622	0.752075	0.084185
	C3608	C	0.346836	0.689811	0.088584
	C3609	C	0.346326	0.814385	0.088539
	C3610	C	0.347416	0.254168	0.084154
	C3611	C	0.346187	0.191939	0.088490
	C3612	C	0.346893	0.316159	0.088580
	C3613	C	0.352059	0.253365	0.048228
	C3614	C	0.339061	0.754048	0.012492
	C3615	C	0.289578	0.752049	0.012520
	C3616	C	0.289566	0.753130	0.110770
	C3617	C	0.347014	0.690923	0.034593
	C3618	C	0.346060	0.815342	0.034708
	C3619	C	0.343349	0.753718	0.021697
	C3620	C	0.285190	0.752013	0.021727
	C3621	C	0.284522	0.689910	0.026140
	C3622	C	0.344851	0.691270	0.026017
	C3623	C	0.343877	0.815792	0.026133
	C3624	C	0.283741	0.814431	0.026080
	C3625	C	0.347578	0.752867	0.039029
	C3626	C	0.339151	0.752350	0.110710
	C3627	C	0.344688	0.689885	0.097152
	C3628	C	0.344183	0.814454	0.097111
	C3629	C	0.343460	0.752206	0.101497
	C3630	C	0.322035	0.462524	0.121082
	C3631	C	0.311484	0.462383	-0.002900
	C3632	C	0.303494	0.462419	0.123246
	C3633	C	0.322043	0.543372	0.121114
	C3634	C	0.303520	0.543260	0.123267
	C3635	C	0.311495	0.543421	-0.002894
	C3636	C	0.339153	0.253272	0.110702
	C3637	C	0.344161	0.191710	0.097061
	C3638	C	0.344822	0.315945	0.097154
	C3639	C	0.343495	0.253669	0.101485
	C3640	C	0.303726	0.043376	-0.001402
	C3641	C	0.339002	0.251879	0.012502
	C3642	C	0.289514	0.254165	0.012502
	C3643	C	0.289544	0.252852	0.110736
	C3644	C	0.346088	0.190624	0.034701
	C3645	C	0.346995	0.315053	0.034594
	C3646	C	0.343486	0.252203	0.021691
	C3647	C	0.285075	0.253699	0.021694
	C3648	C	0.285066	0.752786	0.101571
	C3649	C	0.283967	0.814995	0.097188
	C3650	C	0.284008	0.690492	0.097195
	C3651	C	0.284997	0.252767	0.101552
	C3652	C	0.284159	0.314846	0.097152
	C3653	C	0.283823	0.190440	0.097209
	C3654	C	0.283602	0.191251	0.026010
	C3655	C	0.343934	0.190187	0.026126
	C3656	C	0.344892	0.314649	0.026021
	C3657	C	0.284636	0.315790	0.026133
	C3658	C	0.347645	0.253008	0.039022
	C3659	C	0.315383	0.043222	0.125197
	C3660	C	0.320442	0.043315	-0.003829
	C3661	C	0.303724	0.962437	-0.001392
	C3662	C	0.315363	0.962422	0.125204
	C3663	C	0.320411	0.962585	-0.003836
	N3664	N	0.251467	0.069806	0.061595
	N3665	N	0.251464	0.935270	0.061587
	N3666	N	0.251595	0.435222	0.061618
	N3667	N	0.251521	0.569820	0.061643
	N3668	N	0.314479	0.435672	0.124093
	N3669	N	0.314486	0.570273	0.124132
	N3670	N	0.314602	0.070030	0.124090
	N3671	N	0.314535	0.935460	0.124092
	O3672	O	0.354367	0.694664	0.176723
	O3673	O	0.354290	0.811460	0.176786
	O3674	O	0.273734	0.693912	0.196459
	O3675	O	0.273885	0.810928	0.196445
	O3676	O	0.273710	0.194315	0.196415
	O3677	O	0.273780	0.311051	0.196476
	O3678	O	0.273782	0.694443	0.176726
	O3679	O	0.273696	0.811172	0.176676
	O3680	O	0.273700	0.193867	0.176678
	O3681	O	0.273909	0.310728	0.176730
	O3682	O	0.354068	0.695174	0.196477
	O3683	O	0.354319	0.811929	0.196546
	O3684	O	0.354147	0.194510	0.196541
	O3685	O	0.354223	0.311369	0.196520
	O3686	O	0.354272	0.194103	0.176698
	O3687	O	0.354206	0.311091	0.176713
	O3688	O	0.336674	0.694465	0.134031
	O3689	O	0.292009	0.694585	0.133987
	O3690	O	0.336066	0.694572	0.239230
	O3691	O	0.335998	0.811433	0.239241
	O3692	O	0.291833	0.694085	0.239179
	O3693	O	0.291375	0.810855	0.239249
	O3694	O	0.291881	0.811362	0.133950
	O3695	O	0.336649	0.811390	0.133984
	O3696	O	0.336630	0.194591	0.133997
	O3697	O	0.291969	0.194729	0.133928
	O3698	O	0.336121	0.194441	0.239245
	O3699	O	0.336328	0.311274	0.239315
	O3700	O	0.291554	0.194358	0.239261
	O3701	O	0.291729	0.311275	0.239183
	O3702	O	0.292343	0.311516	0.134013
	O3703	O	0.336723	0.311619	0.133968
	H3704	H	0.280694	0.642544	0.210102
	H3705	H	0.280583	0.862370	0.210111
	H3706	H	0.280515	0.142426	0.210141
	H3707	H	0.280914	0.362336	0.210125
	H3708	H	0.280282	0.862816	0.163002
	H3709	H	0.281210	0.642804	0.163066
	H3710	H	0.281186	0.362825	0.163074
	H3711	H	0.280241	0.142704	0.162970
	H3712	H	0.367540	0.064698	0.188627
	H3713	H	0.374876	0.064853	0.190399
	H3714	H	0.375098	0.941255	0.190413
	H3715	H	0.367577	0.941599	0.188656
	H3716	H	0.368238	0.065059	0.184283
	H3717	H	0.368424	0.941274	0.184275
	H3718	H	0.249174	0.064775	0.186020
	H3719	H	0.249152	0.940809	0.186063
	H3720	H	0.248820	0.064208	0.186838
	H3721	H	0.248780	0.941318	0.186845
	H3722	H	0.251066	0.064403	0.187581
	H3723	H	0.251248	0.941069	0.187556
	H3724	H	0.260507	0.440958	0.184977
	H3725	H	0.253912	0.441148	0.183046
	H3726	H	0.258587	0.441135	0.189118
	H3727	H	0.383465	0.441239	0.188129
	H3728	H	0.374910	0.441213	0.189554
	H3729	H	0.369230	0.441088	0.188120
	H3730	H	0.253828	0.564290	0.183039
	H3731	H	0.260463	0.564692	0.185004
	H3732	H	0.369208	0.564510	0.188076
	H3733	H	0.374834	0.564749	0.189566
	H3734	H	0.383546	0.564481	0.188121
	H3735	H	0.258500	0.564613	0.189152
	H3736	H	0.347384	0.643387	0.210125
	H3737	H	0.347257	0.863096	0.210165
	H3738	H	0.347382	0.143021	0.210224
	H3739	H	0.347710	0.363145	0.210241
	H3740	H	0.285384	0.642884	0.147649
	H3741	H	0.343812	0.643111	0.147619
	H3742	H	0.342690	0.863439	0.147706
	H3743	H	0.284576	0.862952	0.147579
	H3744	H	0.347958	0.643132	0.163055
	H3745	H	0.346844	0.863304	0.163142
	H3746	H	0.343112	0.643180	0.225561
	H3747	H	0.343036	0.862966	0.225599
	H3748	H	0.330053	0.441171	0.121707
	H3749	H	0.312521	0.441145	0.246143
	H3750	H	0.326000	0.440975	0.128526
	H3751	H	0.312485	0.440604	0.130077
	H3752	H	0.307314	0.441038	0.250970
	H3753	H	0.305573	0.441493	0.248515
	H3754	H	0.312418	0.564489	0.246141
	H3755	H	0.329914	0.564517	0.121757
	H3756	H	0.305684	0.564580	0.248528
	H3757	H	0.307368	0.564808	0.250959
	H3758	H	0.312504	0.564171	0.130106
	H3759	H	0.325924	0.564636	0.128537
	H3760	H	0.343175	0.142992	0.225638
	H3761	H	0.343549	0.363144	0.225682
	H3762	H	0.310984	0.064639	0.123040
	H3763	H	0.310010	0.064758	0.124397
	H3764	H	0.316197	0.064274	0.122519
	H3765	H	0.284783	0.862512	0.225533
	H3766	H	0.284862	0.642470	0.225530
	H3767	H	0.284880	0.362518	0.225552
	H3768	H	0.284571	0.142546	0.225590
	H3769	H	0.284669	0.143147	0.147549
	H3770	H	0.343203	0.142825	0.147617
	H3771	H	0.343473	0.363256	0.147627
	H3772	H	0.285678	0.362870	0.147667
	H3773	H	0.347297	0.142581	0.163061
	H3774	H	0.347556	0.362926	0.163070
	H3775	H	0.320096	0.064351	0.247972
	H3776	H	0.315529	0.064486	0.246699
	H3777	H	0.308162	0.064430	0.247727
	H3778	H	0.309871	0.940781	0.124399
	H3779	H	0.311000	0.941362	0.123001
	H3780	H	0.316238	0.941278	0.122540
	H3781	H	0.320038	0.940472	0.248006
	H3782	H	0.315451	0.941112	0.246687
	H3783	H	0.308121	0.941465	0.247742
	Zn3784	Zn	0.251281	0.680238	0.186593
	Zn3785	Zn	0.251425	0.825349	0.186575
	Zn3786	Zn	0.251378	0.180114	0.186604
	Zn3787	Zn	0.251482	0.325149	0.186587
	Zn3788	Zn	0.313825	0.680661	0.249119
	Zn3789	Zn	0.313747	0.825107	0.249099
	Zn3790	Zn	0.313823	0.180499	0.249116
	Zn3791	Zn	0.313853	0.325008	0.249091
	C3792	C	0.351834	0.753184	0.173238
	C3793	C	0.276248	0.752439	0.199949
	C3794	C	0.280625	0.752508	0.209169
	C3795	C	0.281668	0.690256	0.213536
	C3796	C	0.281592	0.814712	0.213543
	C3797	C	0.276259	0.252532	0.199949
	C3798	C	0.280666	0.252354	0.209164
	C3799	C	0.281559	0.190176	0.213559
	C3800	C	0.281784	0.314574	0.213548
	C3801	C	0.276297	0.752712	0.173193
	C3802	C	0.280804	0.752744	0.164002
	C3803	C	0.281569	0.815013	0.159603
	C3804	C	0.282053	0.690668	0.159637
	C3805	C	0.276300	0.252392	0.173204
	C3806	C	0.280692	0.252699	0.164010
	C3807	C	0.282060	0.314958	0.159653
	C3808	C	0.281518	0.190680	0.159587
	C3809	C	0.372649	0.043370	0.188765
	C3810	C	0.372669	0.962618	0.188758
	C3811	C	0.249607	0.043185	0.186457
	C3812	C	0.249624	0.962326	0.186495
	C3813	C	0.252000	0.043253	0.187194
	C3814	C	0.252030	0.962233	0.187200
	C3815	C	0.255668	0.462172	0.184689
	C3816	C	0.381890	0.462641	0.186808
	C3817	C	0.373200	0.462455	0.188239
	C3818	C	0.255659	0.543016	0.184694
	C3819	C	0.373195	0.543399	0.188238
	C3820	C	0.381873	0.543501	0.186822
	C3821	C	0.351688	0.753488	0.200013
	C3822	C	0.351716	0.253014	0.200038
	C3823	C	0.347266	0.753312	0.209212
	C3824	C	0.346284	0.691039	0.213565
	C3825	C	0.346211	0.815363	0.213596
	C3826	C	0.347378	0.253159	0.209258
	C3827	C	0.346325	0.190865	0.213642
	C3828	C	0.346518	0.315373	0.213656
	C3829	C	0.351774	0.252622	0.173213
	C3830	C	0.339048	0.753057	0.137505
	C3831	C	0.289452	0.753003	0.137476
	C3832	C	0.289154	0.752518	0.235702
	C3833	C	0.346724	0.690923	0.159625
	C3834	C	0.346127	0.815534	0.159674
	C3835	C	0.343327	0.753342	0.146703
	C3836	C	0.285012	0.752887	0.146674
	C3837	C	0.284210	0.690710	0.151066
	C3838	C	0.344569	0.690976	0.151054
	C3839	C	0.343969	0.815518	0.151105
	C3840	C	0.283750	0.815141	0.151028
	C3841	C	0.347430	0.753177	0.164033
	C3842	C	0.338570	0.753043	0.235736
	C3843	C	0.344130	0.690971	0.222141
	C3844	C	0.344061	0.815234	0.222171
	C3845	C	0.343058	0.753091	0.226536
	C3846	C	0.315312	0.462224	0.247151
	C3847	C	0.318013	0.462273	0.127922
	C3848	C	0.308403	0.462423	0.249573
	C3849	C	0.315332	0.543293	0.247165
	C3850	C	0.308428	0.543268	0.249576
	C3851	C	0.318005	0.543254	0.127940
	C3852	C	0.338708	0.252929	0.235784
	C3853	C	0.344150	0.190780	0.222213
	C3854	C	0.344336	0.315344	0.222230
	C3855	C	0.343131	0.253064	0.226582
	C3856	C	0.311596	0.043379	0.123814
	C3857	C	0.339091	0.253150	0.137485
	C3858	C	0.289640	0.253020	0.137475
	C3859	C	0.289180	0.252720	0.235724
	C3860	C	0.346406	0.190459	0.159641
	C3861	C	0.346525	0.315089	0.159644
	C3862	C	0.343383	0.252935	0.146704
	C3863	C	0.285100	0.252987	0.146681
	C3864	C	0.284774	0.752550	0.226497
	C3865	C	0.283716	0.814714	0.222121
	C3866	C	0.283826	0.690310	0.222116
	C3867	C	0.284779	0.252493	0.226508
	C3868	C	0.283885	0.314732	0.222126
	C3869	C	0.283689	0.190226	0.222139
	C3870	C	0.283773	0.190740	0.151021
	C3871	C	0.344269	0.190578	0.151071
	C3872	C	0.344423	0.315338	0.151069
	C3873	C	0.284341	0.315132	0.151087
	C3874	C	0.347428	0.252697	0.164020
	C3875	C	0.316769	0.043281	0.247811
	C3876	C	0.316783	0.043308	0.123323
	C3877	C	0.311538	0.962373	0.123812
	C3878	C	0.316735	0.962236	0.247825
	C3879	C	0.316800	0.962486	0.123318
	N3880	N	0.251443	0.070056	0.186583
	N3881	N	0.251450	0.935514	0.186606
	N3882	N	0.251367	0.435400	0.186576
	N3883	N	0.251312	0.570049	0.186569
	N3884	N	0.313797	0.435452	0.249074
	N3885	N	0.313815	0.570152	0.249071
	N3886	N	0.313895	0.070142	0.249085
	N3887	N	0.313813	0.935535	0.249084
	O3888	O	0.354490	0.693743	0.301694
	O3889	O	0.354216	0.810681	0.301690
	O3890	O	0.273562	0.694749	0.321485
	O3891	O	0.273495	0.811608	0.321474
	O3892	O	0.273731	0.194138	0.321462
	O3893	O	0.273633	0.310937	0.321507
	O3894	O	0.273768	0.694679	0.301734
	O3895	O	0.273766	0.811423	0.301734
	O3896	O	0.273610	0.194045	0.301711
	O3897	O	0.273890	0.310814	0.301759
	O3898	O	0.354264	0.693901	0.321445
	O3899	O	0.354130	0.810845	0.321452
	O3900	O	0.354135	0.195858	0.321443
	O3901	O	0.354266	0.312684	0.321445
	O3902	O	0.354245	0.195369	0.301708
	O3903	O	0.354463	0.312203	0.301709
	O3904	O	0.336183	0.694149	0.258983
	O3905	O	0.291454	0.694558	0.258978
	O3906	O	0.335947	0.693400	0.364143
	O3907	O	0.336420	0.810223	0.364223
	O3908	O	0.291385	0.695630	0.364279
	O3909	O	0.291971	0.812444	0.364197
	O3910	O	0.291657	0.811433	0.259030
	O3911	O	0.336221	0.811116	0.258953
	O3912	O	0.336263	0.194527	0.259010
	O3913	O	0.291608	0.194419	0.258957
	O3914	O	0.336375	0.195934	0.364194
	O3915	O	0.336105	0.312925	0.364145
	O3916	O	0.291861	0.193533	0.364218
	O3917	O	0.291351	0.310297	0.364258
	O3918	O	0.291496	0.311299	0.258981
	O3919	O	0.336005	0.311600	0.258986
	H3920	H	0.279846	0.643418	0.335222
	H3921	H	0.280962	0.863485	0.335081
	H3922	H	0.281030	0.141878	0.335100
	H3923	H	0.280138	0.362021	0.335186
	H3924	H	0.280738	0.863024	0.288093
	H3925	H	0.280720	0.643195	0.288098
	H3926	H	0.280639	0.362681	0.288097
	H3927	H	0.280158	0.142528	0.287999
	H3928	H	0.374264	0.064943	0.307577
	H3929	H	0.366528	0.064652	0.309552
	H3930	H	0.366404	0.941441	0.309589
	H3931	H	0.374310	0.941178	0.307590
	H3932	H	0.386109	0.065012	0.309514
	H3933	H	0.386147	0.941441	0.309524
	H3934	H	0.248426	0.064429	0.310269
	H3935	H	0.248349	0.941297	0.310214
	H3936	H	0.246663	0.064317	0.311504
	H3937	H	0.246472	0.941242	0.311495
	H3938	H	0.249432	0.064414	0.313111
	H3939	H	0.249432	0.940546	0.313159
	H3940	H	0.232205	0.441291	0.311189
	H3941	H	0.238141	0.441329	0.316599
	H3942	H	0.245940	0.441006	0.304930
	H3943	H	0.370352	0.441381	0.311121
	H3944	H	0.375797	0.441307	0.309253
	H3945	H	0.381078	0.440982	0.309764
	H3946	H	0.238174	0.564714	0.316562
	H3947	H	0.232177	0.564886	0.311167
	H3948	H	0.381023	0.564654	0.309791
	H3949	H	0.375693	0.564741	0.309255
	H3950	H	0.370174	0.564247	0.311113
	H3951	H	0.245972	0.564774	0.304938
	H3952	H	0.347257	0.641961	0.335094
	H3953	H	0.347469	0.862125	0.335118
	H3954	H	0.347415	0.144042	0.335095
	H3955	H	0.347075	0.364342	0.335067
	H3956	H	0.284806	0.643005	0.272671
	H3957	H	0.343329	0.642390	0.272599
	H3958	H	0.342904	0.862602	0.272627
	H3959	H	0.284770	0.862980	0.272660
	H3960	H	0.347614	0.642080	0.288034
	H3961	H	0.347091	0.862360	0.288075
	H3962	H	0.342969	0.641738	0.350523
	H3963	H	0.343288	0.862025	0.350559
	H3964	H	0.319163	0.440876	0.246831
	H3965	H	0.316467	0.441176	0.372234
	H3966	H	0.321670	0.440890	0.250134
	H3967	H	0.316608	0.441026	0.251904
	H3968	H	0.307950	0.441553	0.374225
	H3969	H	0.309648	0.441280	0.372572
	H3970	H	0.316580	0.564250	0.372267
	H3971	H	0.319281	0.564863	0.246820
	H3972	H	0.309824	0.564896	0.372598
	H3973	H	0.307895	0.565211	0.374206
	H3974	H	0.316549	0.564476	0.251904
	H3975	H	0.321554	0.564115	0.250159
	H3976	H	0.343214	0.144006	0.350535
	H3977	H	0.342935	0.364533	0.350508
	H3978	H	0.313410	0.064983	0.251537
	H3979	H	0.318926	0.064375	0.250781
	H3980	H	0.307270	0.064715	0.249800
	H3981	H	0.285168	0.864030	0.350503
	H3982	H	0.284148	0.643836	0.350652
	H3983	H	0.284154	0.361769	0.350608
	H3984	H	0.284952	0.141742	0.350552
	H3985	H	0.284252	0.142878	0.272564
	H3986	H	0.343195	0.143161	0.272661
	H3987	H	0.343346	0.363596	0.272569
	H3988	H	0.284775	0.362718	0.272669
	H3989	H	0.347418	0.143483	0.288096
	H3990	H	0.347490	0.363848	0.288007
	H3991	H	0.323141	0.065020	0.376055
	H3992	H	0.324208	0.064656	0.372943
	H3993	H	0.314604	0.064547	0.370373
	H3994	H	0.318780	0.940763	0.250796
	H3995	H	0.313444	0.941203	0.251538
	H3996	H	0.307337	0.941480	0.249753
	H3997	H	0.323242	0.941317	0.376075
	H3998	H	0.324260	0.941591	0.372951
	H3999	H	0.314646	0.941177	0.370370
	Zn4000	Zn	0.251430	0.680602	0.311557
	Zn4001	Zn	0.251311	0.825145	0.311572
	Zn4002	Zn	0.251295	0.180503	0.311553
	Zn4003	Zn	0.251502	0.325067	0.311553
	Zn4004	Zn	0.313771	0.680645	0.374093
	Zn4005	Zn	0.314304	0.825165	0.374102
	Zn4006	Zn	0.314337	0.180685	0.374087
	Zn4007	Zn	0.313686	0.325218	0.374093
	C4008	C	0.351787	0.752167	0.298200
	C4009	C	0.275996	0.753247	0.324990
	C4010	C	0.280466	0.753351	0.334205
	C4011	C	0.281204	0.691269	0.338624
	C4012	C	0.281791	0.815737	0.338535
	C4013	C	0.276185	0.252436	0.324991
	C4014	C	0.280503	0.252041	0.334203
	C4015	C	0.281710	0.189679	0.338555
	C4016	C	0.281234	0.314155	0.338598
	C4017	C	0.276246	0.753042	0.298228
	C4018	C	0.280570	0.753094	0.289021
	C4019	C	0.281635	0.815288	0.284660
	C4020	C	0.281657	0.690857	0.284663
	C4021	C	0.276212	0.252441	0.298229
	C4022	C	0.280521	0.252476	0.289030
	C4023	C	0.281639	0.314820	0.284672
	C4024	C	0.281372	0.190417	0.284608
	C4025	C	0.371952	0.043411	0.309358
	C4026	C	0.371935	0.962572	0.309379
	C4027	C	0.248482	0.043009	0.311064
	C4028	C	0.248437	0.962394	0.311052
	C4029	C	0.251370	0.043227	0.312686
	C4030	C	0.251384	0.962262	0.312706
	C4031	C	0.239426	0.462544	0.313269
	C4032	C	0.372472	0.462588	0.311955
	C4033	C	0.377961	0.462550	0.310062
	C4034	C	0.239441	0.543426	0.313263
	C4035	C	0.377958	0.543545	0.310049
	C4036	C	0.372461	0.543293	0.311960
	C4037	C	0.351648	0.752307	0.324942
	C4038	C	0.351668	0.254320	0.324938
	C4039	C	0.347334	0.752112	0.334166
	C4040	C	0.346282	0.689750	0.338535
	C4041	C	0.346427	0.814316	0.338553
	C4042	C	0.347235	0.254221	0.334147
	C4043	C	0.346292	0.191902	0.338524
	C4044	C	0.346142	0.316493	0.338513
	C4045	C	0.351827	0.253864	0.298210
	C4046	C	0.338664	0.752680	0.262474
	C4047	C	0.289072	0.752920	0.262506
	C4048	C	0.289094	0.753991	0.360747
	C4049	C	0.346539	0.689986	0.284613
	C4050	C	0.346230	0.814583	0.284629
	C4051	C	0.343079	0.752555	0.271682
	C4052	C	0.284748	0.752950	0.271709
	C4053	C	0.283810	0.690825	0.276088
	C4054	C	0.344295	0.690164	0.276042
	C4055	C	0.344025	0.814765	0.276057
	C4056	C	0.283773	0.815149	0.276086
	C4057	C	0.347444	0.752284	0.288991
	C4058	C	0.338631	0.751865	0.360673
	C4059	C	0.344081	0.689653	0.347106
	C4060	C	0.344258	0.814274	0.347125
	C4061	C	0.343066	0.751954	0.351485
	C4062	C	0.316866	0.462467	0.373251
	C4063	C	0.317713	0.462436	0.250512
	C4064	C	0.310129	0.462505	0.373589
	C4065	C	0.316892	0.543209	0.373262
	C4066	C	0.310147	0.543505	0.373582
	C4067	C	0.317686	0.543198	0.250519
	C4068	C	0.338715	0.254384	0.360665
	C4069	C	0.344128	0.191850	0.347096
	C4070	C	0.343961	0.316532	0.347080
	C4071	C	0.343020	0.254233	0.351459
	C4072	C	0.315579	0.043123	0.250623
	C4073	C	0.338671	0.253192	0.262482
	C4074	C	0.289047	0.252795	0.262476
	C4075	C	0.289088	0.251882	0.360732
	C4076	C	0.346450	0.191303	0.284649
	C4077	C	0.346517	0.315965	0.284588
	C4078	C	0.343195	0.253403	0.271684
	C4079	C	0.284633	0.252803	0.271697
	C4080	C	0.284687	0.753866	0.351541
	C4081	C	0.283965	0.816002	0.347111
	C4082	C	0.283342	0.691504	0.347202
	C4083	C	0.284644	0.251806	0.351532
	C4084	C	0.283324	0.314021	0.347169
	C4085	C	0.283839	0.189574	0.347133
	C4086	C	0.283456	0.190525	0.276033
	C4087	C	0.344252	0.191090	0.276074
	C4088	C	0.344292	0.315845	0.276021
	C4089	C	0.283694	0.314980	0.276097
	C4090	C	0.347475	0.253814	0.288999
	C4091	C	0.321245	0.043350	0.374397
	C4092	C	0.309354	0.043399	0.248845
	C4093	C	0.315504	0.962139	0.250620
	C4094	C	0.321250	0.962477	0.374417
	C4095	C	0.309331	0.962758	0.248851
	N4096	N	0.251220	0.070240	0.311555
	N4097	N	0.251237	0.935624	0.311572
	N4098	N	0.251401	0.435467	0.311599
	N4099	N	0.251365	0.570051	0.311591
	N4100	N	0.313722	0.435582	0.374088
	N4101	N	0.313758	0.570237	0.374108
	N4102	N	0.314343	0.070334	0.374121
	N4103	N	0.314343	0.935663	0.374117
	O4104	O	0.354424	0.693547	0.426710
	O4105	O	0.354042	0.810331	0.426715
	O4106	O	0.273352	0.693387	0.446457
	O4107	O	0.273379	0.810404	0.446527
	O4108	O	0.273529	0.195596	0.446478
	O4109	O	0.273476	0.312401	0.446373
	O4110	O	0.273197	0.693963	0.426643
	O4111	O	0.273511	0.810792	0.426734
	O4112	O	0.273655	0.194828	0.426812
	O4113	O	0.273337	0.311784	0.426702
	O4114	O	0.354172	0.693985	0.446480
	O4115	O	0.353828	0.810836	0.446463
	O4116	O	0.353712	0.194896	0.446425
	O4117	O	0.354249	0.311742	0.446487
	O4118	O	0.354118	0.195502	0.426677
	O4119	O	0.354158	0.312268	0.426764
	O4120	O	0.336323	0.693237	0.383954
	O4121	O	0.291396	0.695863	0.383913
	O4122	O	0.336352	0.696016	0.489243
	O4123	O	0.335788	0.812796	0.489192
	O4124	O	0.291629	0.692587	0.489201
	O4125	O	0.291160	0.809432	0.489217
	O4126	O	0.291959	0.812649	0.384020
	O4127	O	0.336372	0.810090	0.383991
	O4128	O	0.336461	0.195541	0.383968
	O4129	O	0.291957	0.193517	0.384021
	O4130	O	0.335716	0.193108	0.489151
	O4131	O	0.336331	0.309995	0.489263
	O4132	O	0.291234	0.196264	0.489193
	O4133	O	0.291745	0.313215	0.489179
	O4134	O	0.291609	0.310202	0.383941
	O4135	O	0.336178	0.312347	0.383958
	H4136	H	0.280971	0.641664	0.460034
	H4137	H	0.279969	0.861827	0.460189
	H4138	H	0.280249	0.144362	0.460142
	H4139	H	0.280716	0.364717	0.460025
	H4140	H	0.280930	0.862769	0.413148
	H4141	H	0.280013	0.642806	0.412943
	H4142	H	0.280485	0.362894	0.413033
	H4143	H	0.280713	0.142874	0.413152
	H4144	H	0.377655	0.064827	0.436671
	H4145	H	0.377346	0.064864	0.436211
	H4146	H	0.377374	0.941222	0.436288
	H4147	H	0.377642	0.941088	0.436697
	H4148	H	0.376361	0.064446	0.437080
	H4149	H	0.376327	0.941654	0.437095
	H4150	H	0.265196	0.064429	0.432695
	H4151	H	0.265182	0.941248	0.432680
	H4152	H	0.251854	0.064538	0.430192
	H4153	H	0.251859	0.940396	0.430219
	H4154	H	0.234508	0.064232	0.434209
	H4155	H	0.234601	0.941005	0.434152
	H4156	H	0.250984	0.441389	0.439537
	H4157	H	0.257263	0.441276	0.438389
	H4158	H	0.243134	0.440972	0.437640
	H4159	H	0.385959	0.441634	0.434588
	H4160	H	0.385088	0.441250	0.439151
	H4161	H	0.376854	0.440948	0.440595
	H4162	H	0.257198	0.564791	0.438430
	H4163	H	0.250991	0.564628	0.439549
	H4164	H	0.376905	0.564612	0.440607
	H4165	H	0.385128	0.564712	0.439122
	H4166	H	0.385952	0.564855	0.434621
	H4167	H	0.243139	0.564861	0.437653
	H4168	H	0.347530	0.643036	0.460184
	H4169	H	0.346779	0.862920	0.460018
	H4170	H	0.346741	0.142613	0.460023
	H4171	H	0.347641	0.362966	0.460198
	H4172	H	0.284230	0.643775	0.397501
	H4173	H	0.343201	0.641144	0.397660
	H4174	H	0.343145	0.861461	0.397623
	H4175	H	0.285159	0.863583	0.397690
	H4176	H	0.347344	0.641490	0.413105
	H4177	H	0.347183	0.861500	0.413065
	H4178	H	0.343358	0.643723	0.475624
	H4179	H	0.342556	0.864051	0.475463
	H4180	H	0.319507	0.441094	0.373639
	H4181	H	0.316039	0.441027	0.505993
	H4182	H	0.316864	0.441028	0.375866
	H4183	H	0.311987	0.441468	0.376101
	H4184	H	0.329796	0.441345	0.495094
	H4185	H	0.332727	0.441195	0.500822
	H4186	H	0.315942	0.564548	0.505961
	H4187	H	0.319509	0.564681	0.373642
	H4188	H	0.332755	0.564565	0.500781
	H4189	H	0.329634	0.564572	0.495058
	H4190	H	0.311990	0.564610	0.376154
	H4191	H	0.317011	0.564901	0.375891
	H4192	H	0.342601	0.141715	0.475452
	H4193	H	0.343513	0.362110	0.475649
	H4194	H	0.305213	0.064671	0.375897
	H4195	H	0.312203	0.064486	0.377758
	H4196	H	0.306622	0.064841	0.371641
	H4197	H	0.284210	0.861284	0.475622
	H4198	H	0.285189	0.641092	0.475485
	H4199	H	0.284892	0.365018	0.475480
	H4200	H	0.284387	0.144813	0.475570
	H4201	H	0.284948	0.142127	0.397726
	H4202	H	0.343109	0.144112	0.397628
	H4203	H	0.343191	0.364329	0.397632
	H4204	H	0.284696	0.362421	0.397572
	H4205	H	0.347242	0.144084	0.413041
	H4206	H	0.347294	0.364265	0.413081
	H4207	H	0.335030	0.064510	0.498846
	H4208	H	0.326980	0.064601	0.492961
	H4209	H	0.301950	0.064521	0.492390
	H4210	H	0.312218	0.941210	0.377779
	H4211	H	0.305237	0.941162	0.375881
	H4212	H	0.306574	0.940974	0.371628
	H4213	H	0.335068	0.940941	0.498830
	H4214	H	0.326868	0.941116	0.492980
	H4215	H	0.302012	0.941055	0.492447
	Zn4216	Zn	0.250994	0.680476	0.436536
	Zn4217	Zn	0.251219	0.825147	0.436596
	Zn4218	Zn	0.251233	0.180592	0.436642
	Zn4219	Zn	0.250862	0.325371	0.436570
	Zn4220	Zn	0.314042	0.680412	0.499099
	Zn4221	Zn	0.313361	0.825044	0.499069
	Zn4222	Zn	0.313323	0.180671	0.499073
	Zn4223	Zn	0.314125	0.325334	0.499094
	C4224	C	0.351732	0.751881	0.423206
	C4225	C	0.275970	0.751777	0.449987
	C4226	C	0.280421	0.751717	0.459187
	C4227	C	0.281735	0.689263	0.463510
	C4228	C	0.281156	0.813937	0.463592
	C4229	C	0.276040	0.254250	0.449930
	C4230	C	0.280422	0.254520	0.459122
	C4231	C	0.281353	0.192368	0.463536
	C4232	C	0.281602	0.316945	0.463466
	C4233	C	0.275907	0.752467	0.423194
	C4234	C	0.280460	0.752794	0.413992
	C4235	C	0.281763	0.815208	0.409674
	C4236	C	0.281255	0.690786	0.409561
	C4237	C	0.276019	0.253138	0.423255
	C4238	C	0.280443	0.252935	0.414025
	C4239	C	0.281524	0.315009	0.409603
	C4240	C	0.281635	0.190487	0.409689
	C4241	C	0.377154	0.043594	0.436472
	C4242	C	0.377172	0.962505	0.436492
	C4243	C	0.256559	0.043295	0.432790
	C4244	C	0.256583	0.962217	0.432790
	C4245	C	0.239101	0.042991	0.436824
	C4246	C	0.239151	0.962389	0.436805
	C4247	C	0.253224	0.462539	0.438335
	C4248	C	0.380600	0.462697	0.434486
	C4249	C	0.379846	0.462494	0.439030
	C4250	C	0.253218	0.543243	0.438343
	C4251	C	0.379816	0.543582	0.439019
	C4252	C	0.380634	0.543430	0.434479
	C4253	C	0.351568	0.752418	0.449976
	C4254	C	0.351530	0.253263	0.449960
	C4255	C	0.347175	0.752827	0.459189
	C4256	C	0.346342	0.690858	0.463598
	C4257	C	0.345875	0.815362	0.463507
	C4258	C	0.347136	0.252814	0.459172
	C4259	C	0.345848	0.190273	0.463498
	C4260	C	0.346351	0.314944	0.463592
	C4261	C	0.351599	0.254053	0.423214
	C4262	C	0.338801	0.751568	0.387480
	C4263	C	0.289201	0.754164	0.387472
	C4264	C	0.289026	0.750922	0.485699
	C4265	C	0.346288	0.689143	0.409647
	C4266	C	0.346237	0.813781	0.409631
	C4267	C	0.343100	0.751398	0.396690
	C4268	C	0.284830	0.753726	0.396678
	C4269	C	0.283521	0.691214	0.400988
	C4270	C	0.344130	0.689070	0.401076
	C4271	C	0.344125	0.813670	0.401059
	C4272	C	0.284032	0.815702	0.401098
	C4273	C	0.347315	0.751621	0.414004
	C4274	C	0.338552	0.754454	0.485714
	C4275	C	0.344161	0.691529	0.472170
	C4276	C	0.343693	0.815964	0.472078
	C4277	C	0.342948	0.754061	0.476511
	C4278	C	0.309874	0.462529	0.503483
	C4279	C	0.314269	0.462521	0.375502
	C4280	C	0.326740	0.462480	0.498245
	C4281	C	0.309867	0.543384	0.503472
	C4282	C	0.326695	0.543281	0.498240
	C4283	C	0.314268	0.543477	0.375507
	C4284	C	0.338591	0.251616	0.485710
	C4285	C	0.343723	0.189836	0.472073
	C4286	C	0.344221	0.314416	0.472168
	C4287	C	0.342955	0.251900	0.476495
	C4288	C	0.310213	0.043424	0.376112
	C4289	C	0.338768	0.254031	0.387471
	C4290	C	0.289247	0.251996	0.387484
	C4291	C	0.289001	0.254857	0.485681
	C4292	C	0.346269	0.192049	0.409621
	C4293	C	0.346280	0.316569	0.409635
	C4294	C	0.343131	0.254241	0.396670
	C4295	C	0.284878	0.252338	0.396689
	C4296	C	0.284650	0.751108	0.476500
	C4297	C	0.283340	0.813604	0.472163
	C4298	C	0.283934	0.689007	0.472081
	C4299	C	0.284684	0.254963	0.476452
	C4300	C	0.283745	0.317162	0.472046
	C4301	C	0.283487	0.192595	0.472111
	C4302	C	0.283872	0.190207	0.401116
	C4303	C	0.344187	0.192024	0.401049
	C4304	C	0.344185	0.316473	0.401055
	C4305	C	0.283755	0.314733	0.401029
	C4306	C	0.347269	0.254325	0.414005
	C4307	C	0.326363	0.043150	0.496739
	C4308	C	0.311621	0.043457	0.371824
	C4309	C	0.310194	0.962632	0.376127
	C4310	C	0.326303	0.962327	0.496747
	C4311	C	0.311612	0.962441	0.371821
	N4312	N	0.251067	0.070158	0.436620
	N4313	N	0.251107	0.935537	0.436611
	N4314	N	0.250762	0.435507	0.436542
	N4315	N	0.250798	0.570066	0.436536
	N4316	N	0.314120	0.435530	0.499128
	N4317	N	0.314033	0.570138	0.499100
	N4318	N	0.313334	0.070210	0.499044
	N4319	N	0.313323	0.935513	0.499054
	O4320	O	0.354115	0.693902	0.551642
	O4321	O	0.353176	0.810637	0.551783
	O4322	O	0.273756	0.696109	0.571510
	O4323	O	0.273488	0.813022	0.571472
	O4324	O	0.273333	0.192847	0.571450
	O4325	O	0.273866	0.309728	0.571464
	O4326	O	0.273994	0.695803	0.551804
	O4327	O	0.273130	0.812523	0.551624
	O4328	O	0.273145	0.193262	0.551640
	O4329	O	0.274043	0.310014	0.551795
	O4330	O	0.353962	0.693512	0.571474
	O4331	O	0.353509	0.810404	0.571510
	O4332	O	0.353509	0.195575	0.571500
	O4333	O	0.353962	0.312281	0.571514
	O4334	O	0.353445	0.195140	0.551756
	O4335	O	0.353976	0.311941	0.551637
	O4336	O	0.336363	0.695877	0.508881
	O4337	O	0.291785	0.693057	0.509004
	O4338	O	0.335670	0.693110	0.614240
	O4339	O	0.335835	0.809753	0.614167
	O4340	O	0.291142	0.695946	0.614207
	O4341	O	0.291477	0.812904	0.614235
	O4342	O	0.290934	0.809909	0.508905
	O4343	O	0.335567	0.812773	0.509019
	O4344	O	0.335500	0.192787	0.509044
	O4345	O	0.290999	0.195585	0.508891
	O4346	O	0.336019	0.195645	0.614269
	O4347	O	0.335703	0.312504	0.614236
	O4348	O	0.291356	0.192882	0.614187
	O4349	O	0.291059	0.309840	0.614249
	O4350	O	0.291864	0.312467	0.509051
	O4351	O	0.336436	0.309435	0.508889
	H4352	H	0.280546	0.644670	0.585123
	H4353	H	0.280437	0.865048	0.585130
	H4354	H	0.280130	0.141169	0.585118
	H4355	H	0.280613	0.361008	0.585123
	H4356	H	0.279476	0.863381	0.537899
	H4357	H	0.281520	0.643082	0.538188
	H4358	H	0.281711	0.362367	0.538211
	H4359	H	0.279396	0.142518	0.537908
	H4360	H	0.363271	0.064787	0.560459
	H4361	H	0.365237	0.064644	0.564242
	H4362	H	0.365197	0.941122	0.564233
	H4363	H	0.363328	0.940965	0.560470
	H4364	H	0.374510	0.064661	0.557054
	H4365	H	0.374312	0.941389	0.557077
	H4366	H	0.231464	0.064118	0.568620
	H4367	H	0.231413	0.941463	0.568654
	H4368	H	0.253252	0.064854	0.571450
	H4369	H	0.253354	0.941195	0.571478
	H4370	H	0.277765	0.064574	0.564116
	H4371	H	0.277575	0.941145	0.564088
	H4372	H	0.251984	0.440988	0.572244
	H4373	H	0.274510	0.441239	0.568395
	H4374	H	0.224005	0.441034	0.565298
	H4375	H	0.375735	0.441238	0.568668
	H4376	H	0.357336	0.440966	0.563817
	H4377	H	0.359227	0.440918	0.557864
	H4378	H	0.274545	0.564249	0.568391
	H4379	H	0.252122	0.564837	0.572236
	H4380	H	0.359246	0.564588	0.557821
	H4381	H	0.357460	0.564728	0.563796
	H4382	H	0.375773	0.564967	0.568657
	H4383	H	0.223888	0.564665	0.565337
	H4384	H	0.347048	0.641080	0.585120
	H4385	H	0.346971	0.861337	0.585157
	H4386	H	0.346957	0.144061	0.585173
	H4387	H	0.347152	0.364149	0.585144
	H4388	H	0.285686	0.641944	0.522751
	H4389	H	0.343748	0.643597	0.522478
	H4390	H	0.342149	0.863824	0.522710
	H4391	H	0.283629	0.862308	0.522487
	H4392	H	0.347647	0.642688	0.537918
	H4393	H	0.346051	0.862888	0.538165
	H4394	H	0.342816	0.640772	0.600561
	H4395	H	0.342846	0.860970	0.600592
	H4396	H	0.300767	0.441089	0.504070
	H4397	H	0.306754	0.440962	0.622359
	H4398	H	0.296595	0.441149	0.496260
	H4399	H	0.308881	0.440973	0.492467
	H4400	H	0.312023	0.441379	0.626892
	H4401	H	0.306445	0.441536	0.625610
	H4402	H	0.306820	0.564672	0.622375
	H4403	H	0.300699	0.564577	0.504082
	H4404	H	0.306427	0.564730	0.625606
	H4405	H	0.312051	0.565183	0.626901
	H4406	H	0.308685	0.564537	0.492473
	H4407	H	0.296510	0.564810	0.496284
	H4408	H	0.342842	0.144209	0.600612
	H4409	H	0.342998	0.364140	0.600603
	H4410	H	0.303006	0.064485	0.505922
	H4411	H	0.321279	0.064498	0.506336
	H4412	H	0.291844	0.064718	0.497883
	H4413	H	0.284454	0.864950	0.600570
	H4414	H	0.284540	0.644731	0.600572
	H4415	H	0.284629	0.361505	0.600554
	H4416	H	0.284147	0.141117	0.600574
	H4417	H	0.283545	0.143509	0.522458
	H4418	H	0.342152	0.141795	0.522728
	H4419	H	0.343659	0.361746	0.522509
	H4420	H	0.285825	0.363400	0.522773
	H4421	H	0.346245	0.142762	0.538188
	H4422	H	0.347688	0.362714	0.537950
	H4423	H	0.329747	0.065118	0.622891
	H4424	H	0.321470	0.064795	0.618960
	H4425	H	0.302685	0.064870	0.619817
	H4426	H	0.321271	0.940826	0.506304
	H4427	H	0.303003	0.941201	0.505917
	H4428	H	0.291870	0.941254	0.497882
	H4429	H	0.329860	0.941455	0.622873
	H4430	H	0.321428	0.941308	0.618956
	H4431	H	0.302869	0.941106	0.619850
	Zn4432	Zn	0.251696	0.680539	0.561614
	Zn4433	Zn	0.250941	0.825223	0.561574
	Zn4434	Zn	0.250839	0.180558	0.561571
	Zn4435	Zn	0.251702	0.325237	0.561605
	Zn4436	Zn	0.313148	0.680622	0.624120
	Zn4437	Zn	0.313964	0.825311	0.624108
	Zn4438	Zn	0.313818	0.180621	0.624107
	Zn4439	Zn	0.313178	0.325520	0.624088
	C4440	C	0.351226	0.752388	0.548190
	C4441	C	0.276130	0.754705	0.574987
	C4442	C	0.280551	0.754895	0.584196
	C4443	C	0.281508	0.692554	0.588562
	C4444	C	0.281451	0.817242	0.588568
	C4445	C	0.276049	0.251139	0.574965
	C4446	C	0.280452	0.251062	0.584181
	C4447	C	0.281226	0.188834	0.588558
	C4448	C	0.281518	0.313353	0.588563
	C4449	C	0.276041	0.753930	0.548204
	C4450	C	0.280515	0.753301	0.539004
	C4451	C	0.280991	0.815257	0.534540
	C4452	C	0.282121	0.690670	0.534700
	C4453	C	0.276121	0.251782	0.548215
	C4454	C	0.280437	0.252374	0.538999
	C4455	C	0.282085	0.314865	0.534707
	C4456	C	0.280813	0.190447	0.534530
	C4457	C	0.367287	0.043505	0.562157
	C4458	C	0.367232	0.962487	0.562157
	C4459	C	0.244599	0.043248	0.567812
	C4460	C	0.244656	0.962488	0.567807
	C4461	C	0.269157	0.043367	0.560419
	C4462	C	0.269136	0.962655	0.560401
	C4463	C	0.260201	0.462299	0.568030
	C4464	C	0.381494	0.462494	0.565912
	C4465	C	0.362962	0.462506	0.561025
	C4466	C	0.260239	0.543252	0.568031
	C4467	C	0.363051	0.543447	0.561020
	C4468	C	0.381541	0.543346	0.565909
	C4469	C	0.351328	0.751782	0.574998
	C4470	C	0.351334	0.253994	0.575033
	C4471	C	0.347047	0.751295	0.584192
	C4472	C	0.346022	0.688887	0.588559
	C4473	C	0.345978	0.813497	0.588578
	C4474	C	0.347020	0.254092	0.584231
	C4475	C	0.345950	0.191912	0.588606
	C4476	C	0.346073	0.316382	0.588591
	C4477	C	0.351269	0.253392	0.548197
	C4478	C	0.338476	0.754196	0.512444
	C4479	C	0.288967	0.751544	0.512472
	C4480	C	0.288896	0.754549	0.610718
	C4481	C	0.346409	0.690686	0.534534
	C4482	C	0.345530	0.815274	0.534671
	C4483	C	0.342882	0.753755	0.521641
	C4484	C	0.284666	0.751981	0.521669
	C4485	C	0.284276	0.690027	0.526124
	C4486	C	0.344305	0.691224	0.525960
	C4487	C	0.343413	0.815727	0.526098
	C4488	C	0.283171	0.814585	0.525972
	C4489	C	0.346950	0.752717	0.538968
	C4490	C	0.338334	0.751202	0.610705
	C4491	C	0.343794	0.688679	0.597131
	C4492	C	0.343767	0.813268	0.597148
	C4493	C	0.342806	0.750928	0.601507
	C4494	C	0.310612	0.462432	0.622410
	C4495	C	0.305679	0.462224	0.495624
	C4496	C	0.310216	0.462790	0.625685
	C4497	C	0.310614	0.543450	0.622415
	C4498	C	0.310229	0.543514	0.625687
	C4499	C	0.305644	0.543217	0.495618
	C4500	C	0.338416	0.254095	0.610755
	C4501	C	0.343817	0.192000	0.597179
	C4502	C	0.343916	0.316317	0.597170
	C4503	C	0.342869	0.254109	0.601558
	C4504	C	0.312450	0.043376	0.504259
	C4505	C	0.338469	0.251266	0.512480
	C4506	C	0.289039	0.253899	0.512474
	C4507	C	0.288805	0.251396	0.610714
	C4508	C	0.345576	0.190344	0.534695
	C4509	C	0.346391	0.314747	0.534561
	C4510	C	0.342815	0.251738	0.521683
	C4511	C	0.284629	0.253574	0.521674
	C4512	C	0.284550	0.754826	0.601514
	C4513	C	0.283548	0.817139	0.597143
	C4514	C	0.283565	0.692548	0.597136
	C4515	C	0.284492	0.251275	0.601510
	C4516	C	0.283622	0.313533	0.597141
	C4517	C	0.283349	0.188919	0.597138
	C4518	C	0.282982	0.191076	0.525955
	C4519	C	0.343407	0.189792	0.526123
	C4520	C	0.344250	0.314175	0.525993
	C4521	C	0.284245	0.315448	0.526132
	C4522	C	0.346991	0.252863	0.538995
	C4523	C	0.322509	0.043611	0.621765
	C4524	C	0.301247	0.043311	0.496182
	C4525	C	0.312443	0.962444	0.504269
	C4526	C	0.322544	0.962663	0.621779
	C4527	C	0.301262	0.962398	0.496197
	N4528	N	0.250912	0.070303	0.561573
	N4529	N	0.250918	0.935687	0.561587
	N4530	N	0.251721	0.435610	0.561610
	N4531	N	0.251751	0.570219	0.561621
	N4532	N	0.313085	0.435762	0.624108
	N4533	N	0.313086	0.570354	0.624105
	N4534	N	0.313801	0.070319	0.624140
	N4535	N	0.313906	0.935698	0.624159
	O4536	O	0.353901	0.693617	0.676794
	O4537	O	0.353662	0.810440	0.676740
	O4538	O	0.272794	0.692833	0.696554
	O4539	O	0.273544	0.809795	0.696446
	O4540	O	0.273413	0.194582	0.696526
	O4541	O	0.273119	0.311447	0.696530
	O4542	O	0.273030	0.693897	0.676742
	O4543	O	0.273451	0.810801	0.676787
	O4544	O	0.273400	0.195122	0.676826
	O4545	O	0.273007	0.312037	0.676722
	O4546	O	0.353780	0.693971	0.696459
	O4547	O	0.353684	0.810770	0.696464
	O4548	O	0.353550	0.196194	0.696482
	O4549	O	0.353938	0.313142	0.696521
	O4550	O	0.353831	0.195845	0.676752
	O4551	O	0.353855	0.312644	0.676734
	O4552	O	0.335442	0.692799	0.634070
	O4553	O	0.290739	0.695809	0.633958
	O4554	O	0.336017	0.693419	0.739219
	O4555	O	0.336042	0.810270	0.739209
	O4556	O	0.291153	0.695098	0.739281
	O4557	O	0.291619	0.811817	0.739216
	O4558	O	0.291666	0.812665	0.634050
	O4559	O	0.336277	0.809519	0.633990
	O4560	O	0.336166	0.195983	0.633948
	O4561	O	0.291678	0.193503	0.634066
	O4562	O	0.336370	0.195827	0.739256
	O4563	O	0.335792	0.312515	0.739229
	O4564	O	0.291772	0.193331	0.739235
	O4565	O	0.291049	0.310146	0.739342
	O4566	O	0.291066	0.310462	0.634014
	O4567	O	0.335660	0.312787	0.633996
	H4568	H	0.279607	0.641930	0.710242
	H4569	H	0.280674	0.862134	0.710064
	H4570	H	0.280520	0.142939	0.710134
	H4571	H	0.279959	0.362607	0.710238
	H4572	H	0.280754	0.862867	0.663213
	H4573	H	0.279909	0.642936	0.663071
	H4574	H	0.279686	0.363195	0.663044
	H4575	H	0.280387	0.143100	0.663222
	H4576	H	0.368875	0.064839	0.688475
	H4577	H	0.375182	0.065004	0.689788
	H4578	H	0.375106	0.941848	0.689725
	H4579	H	0.368852	0.941474	0.688419
	H4580	H	0.368734	0.064568	0.684916
	H4581	H	0.368872	0.941049	0.684922
	H4582	H	0.254168	0.064441	0.689465
	H4583	H	0.254222	0.941061	0.689452
	H4584	H	0.259115	0.064335	0.687607
	H4585	H	0.259053	0.940857	0.687596
	H4586	H	0.256365	0.064178	0.684286
	H4587	H	0.256252	0.941142	0.684283
	H4588	H	0.253035	0.440915	0.685303
	H4589	H	0.249367	0.441478	0.685148
	H4590	H	0.254812	0.440843	0.686935
	H4591	H	0.376567	0.441427	0.684896
	H4592	H	0.380816	0.441435	0.686099
	H4593	H	0.380217	0.441389	0.687473
	H4594	H	0.249335	0.564698	0.685115
	H4595	H	0.252889	0.564967	0.685278
	H4596	H	0.380208	0.564943	0.687524
	H4597	H	0.380805	0.565038	0.686100
	H4598	H	0.376507	0.565113	0.684936
	H4599	H	0.254889	0.564980	0.686925
	H4600	H	0.346500	0.642203	0.710103
	H4601	H	0.347252	0.862059	0.710162
	H4602	H	0.346564	0.144691	0.710109
	H4603	H	0.347173	0.364909	0.710212
	H4604	H	0.284195	0.643766	0.647629
	H4605	H	0.342653	0.641143	0.647737
	H4606	H	0.342527	0.861176	0.647664
	H4607	H	0.284945	0.863713	0.647787
	H4608	H	0.346911	0.641690	0.663163
	H4609	H	0.346796	0.861445	0.663101
	H4610	H	0.342481	0.642079	0.725555
	H4611	H	0.343226	0.861984	0.725590
	H4612	H	0.312720	0.441041	0.621238
	H4613	H	0.301113	0.440895	0.749350
	H4614	H	0.320341	0.441465	0.623032
	H4615	H	0.319981	0.441198	0.625387
	H4616	H	0.320381	0.441167	0.752830
	H4617	H	0.310090	0.441606	0.753363
	H4618	H	0.301185	0.564466	0.749317
	H4619	H	0.312668	0.564464	0.621268
	H4620	H	0.309944	0.564584	0.753383
	H4621	H	0.320364	0.564661	0.752858
	H4622	H	0.320024	0.565194	0.625408
	H4623	H	0.320242	0.564831	0.623022
	H4624	H	0.342425	0.144405	0.725529
	H4625	H	0.342978	0.364560	0.725627
	H4626	H	0.308844	0.064538	0.629745
	H4627	H	0.322475	0.064873	0.629101
	H4628	H	0.297485	0.064732	0.624385
	H4629	H	0.284907	0.862880	0.725508
	H4630	H	0.283831	0.642892	0.725676
	H4631	H	0.284234	0.362185	0.725662
	H4632	H	0.284767	0.142333	0.725567
	H4633	H	0.284709	0.142072	0.647778
	H4634	H	0.343136	0.144284	0.647621
	H4635	H	0.342466	0.364296	0.647645
	H4636	H	0.283883	0.362519	0.647608
	H4637	H	0.347338	0.144220	0.663087
	H4638	H	0.346654	0.364137	0.663089
	H4639	H	0.291652	0.064983	0.746854
	H4640	H	0.294674	0.064744	0.753751
	H4641	H	0.319560	0.064427	0.757181
	H4642	H	0.322638	0.941408	0.629135
	H4643	H	0.308989	0.941401	0.629770
	H4644	H	0.297611	0.941212	0.624392
	H4645	H	0.291677	0.941002	0.746804
	H4646	H	0.294622	0.941454	0.753746
	H4647	H	0.319664	0.941263	0.757191
	Zn4648	Zn	0.250607	0.680375	0.686611
	Zn4649	Zn	0.251143	0.825237	0.686661
	Zn4650	Zn	0.251045	0.180389	0.686608
	Zn4651	Zn	0.250728	0.325349	0.686632
	Zn4652	Zn	0.313545	0.680604	0.749117
	Zn4653	Zn	0.313946	0.825498	0.749104
	Zn4654	Zn	0.314045	0.180702	0.749140
	Zn4655	Zn	0.313391	0.325652	0.749117
	C4656	C	0.351293	0.751876	0.673266
	C4657	C	0.275652	0.751398	0.700002
	C4658	C	0.280118	0.751955	0.709209
	C4659	C	0.280867	0.689945	0.713635
	C4660	C	0.281458	0.814424	0.713538
	C4661	C	0.275776	0.253064	0.700034
	C4662	C	0.280270	0.252826	0.709240
	C4663	C	0.281463	0.190532	0.713594
	C4664	C	0.281140	0.314795	0.713649
	C4665	C	0.275742	0.752403	0.673256
	C4666	C	0.280267	0.752782	0.664061
	C4667	C	0.281538	0.815251	0.659734
	C4668	C	0.281095	0.690816	0.659659
	C4669	C	0.275670	0.253442	0.673268
	C4670	C	0.280089	0.253083	0.664053
	C4671	C	0.280922	0.315225	0.659636
	C4672	C	0.281342	0.190615	0.659736
	C4673	C	0.373005	0.043577	0.688477
	C4674	C	0.373020	0.962653	0.688444
	C4675	C	0.255174	0.043252	0.688038
	C4676	C	0.255171	0.962360	0.688026
	C4677	C	0.252381	0.043086	0.684674
	C4678	C	0.252388	0.962177	0.684674
	C4679	C	0.251050	0.462563	0.685587
	C4680	C	0.375168	0.462695	0.685539
	C4681	C	0.379415	0.462691	0.686735
	C4682	C	0.251042	0.543371	0.685585
	C4683	C	0.379399	0.543500	0.686745
	C4684	C	0.375145	0.543556	0.685546
	C4685	C	0.351276	0.752306	0.699975
	C4686	C	0.351266	0.254698	0.700002
	C4687	C	0.346904	0.752164	0.709189
	C4688	C	0.345728	0.689958	0.713555
	C4689	C	0.346120	0.814258	0.713580
	C4690	C	0.346903	0.254707	0.709212
	C4691	C	0.345716	0.192441	0.713558
	C4692	C	0.346055	0.316926	0.713614
	C4693	C	0.351394	0.254219	0.673229
	C4694	C	0.338318	0.751139	0.637539
	C4695	C	0.288773	0.754198	0.637516
	C4696	C	0.288876	0.753383	0.735734
	C4697	C	0.345893	0.689285	0.659707
	C4698	C	0.345781	0.813686	0.659669
	C4699	C	0.342667	0.751178	0.646741
	C4700	C	0.284460	0.753726	0.646727
	C4701	C	0.283232	0.691389	0.651084
	C4702	C	0.343728	0.689106	0.651135
	C4703	C	0.343632	0.813510	0.651092
	C4704	C	0.283727	0.815661	0.651164
	C4705	C	0.346879	0.751597	0.664063
	C4706	C	0.338473	0.751787	0.735708
	C4707	C	0.343610	0.689848	0.722129
	C4708	C	0.343999	0.814140	0.722153
	C4709	C	0.342820	0.751984	0.726516
	C4710	C	0.305874	0.462336	0.747973
	C4711	C	0.318286	0.462618	0.624182
	C4712	C	0.314781	0.462603	0.752043
	C4713	C	0.305916	0.543463	0.747983
	C4714	C	0.314774	0.543375	0.752037
	C4715	C	0.318280	0.543549	0.624174
	C4716	C	0.338499	0.254221	0.735727
	C4717	C	0.343663	0.192265	0.722132
	C4718	C	0.343942	0.316792	0.722188
	C4719	C	0.342837	0.254385	0.726534
	C4720	C	0.315203	0.043369	0.628040
	C4721	C	0.338370	0.254387	0.637488
	C4722	C	0.288857	0.251977	0.637543
	C4723	C	0.288915	0.251823	0.735782
	C4724	C	0.346139	0.191964	0.659637
	C4725	C	0.345769	0.316320	0.659640
	C4726	C	0.342733	0.254192	0.646689
	C4727	C	0.284413	0.252200	0.646740
	C4728	C	0.284392	0.752976	0.726542
	C4729	C	0.283628	0.814915	0.722115
	C4730	C	0.283055	0.690545	0.722209
	C4731	C	0.284556	0.252182	0.726577
	C4732	C	0.283353	0.314460	0.722221
	C4733	C	0.283672	0.190202	0.722170
	C4734	C	0.283535	0.190130	0.651161
	C4735	C	0.343974	0.191987	0.651062
	C4736	C	0.343587	0.316371	0.651070
	C4737	C	0.283097	0.314788	0.651063
	C4738	C	0.346958	0.254130	0.664024
	C4739	C	0.298662	0.043379	0.749969
	C4740	C	0.303744	0.043442	0.622632
	C4741	C	0.315275	0.962724	0.628053
	C4742	C	0.298617	0.962466	0.749980
	C4743	C	0.303801	0.962385	0.622653
	N4744	N	0.251078	0.070132	0.686649
	N4745	N	0.251061	0.935546	0.686634
	N4746	N	0.250708	0.435539	0.686598
	N4747	N	0.250636	0.570096	0.686599
	N4748	N	0.313575	0.435686	0.749099
	N4749	N	0.313588	0.570227	0.749108
	N4750	N	0.313978	0.070263	0.749131
	N4751	N	0.313923	0.935648	0.749122
	O4752	O	0.354076	0.693453	0.801715
	O4753	O	0.353902	0.810384	0.801724
	O4754	O	0.273605	0.694094	0.821554
	O4755	O	0.273933	0.811022	0.821486
	O4756	O	0.273685	0.194562	0.821496
	O4757	O	0.273961	0.311205	0.821486
	O4758	O	0.273799	0.694349	0.801713
	O4759	O	0.273745	0.811018	0.801771
	O4760	O	0.274071	0.194926	0.801810
	O4761	O	0.273650	0.311717	0.801713
	O4762	O	0.354009	0.693712	0.821513
	O4763	O	0.353888	0.810455	0.821493
	O4764	O	0.353723	0.195100	0.821464
	O4765	O	0.354320	0.311971	0.821535
	O4766	O	0.353997	0.195291	0.801699
	O4767	O	0.353803	0.312214	0.801796
	O4768	O	0.335982	0.693622	0.758985
	O4769	O	0.291129	0.695451	0.758956
	O4770	O	0.336347	0.693659	0.864277
	O4771	O	0.336317	0.810576	0.864248
	O4772	O	0.291691	0.694977	0.864278
	O4773	O	0.291810	0.811720	0.864288
	O4774	O	0.291770	0.812426	0.759042
	O4775	O	0.336156	0.810445	0.758977
	O4776	O	0.336045	0.195556	0.759032
	O4777	O	0.291612	0.193929	0.759013
	O4778	O	0.336332	0.195495	0.864265
	O4779	O	0.336217	0.312353	0.864262
	O4780	O	0.291856	0.193953	0.864268
	O4781	O	0.291676	0.310837	0.864249
	O4782	O	0.291240	0.310806	0.758973
	O4783	O	0.335987	0.312471	0.758988
	H4784	H	0.280726	0.642922	0.835193
	H4785	H	0.280566	0.862999	0.835173
	H4786	H	0.280810	0.142773	0.835162
	H4787	H	0.280726	0.362993	0.835200
	H4788	H	0.280670	0.863487	0.788123
	H4789	H	0.280549	0.643170	0.788047
	H4790	H	0.280451	0.362677	0.788075
	H4791	H	0.280651	0.142545	0.788125
	H4792	H	0.368899	0.064247	0.810351
	H4793	H	0.368812	0.064871	0.812791
	H4794	H	0.368910	0.941247	0.812767
	H4795	H	0.368897	0.941434	0.810320
	H4796	H	0.376908	0.064277	0.808717
	H4797	H	0.377006	0.941074	0.808754
	H4798	H	0.262571	0.064849	0.808892
	H4799	H	0.262672	0.941125	0.808906
	H4800	H	0.252909	0.064560	0.806827
	H4801	H	0.252780	0.940849	0.806864
	H4802	H	0.239179	0.064291	0.809571
	H4803	H	0.239379	0.940939	0.809566
	H4804	H	0.252127	0.441128	0.809186
	H4805	H	0.246628	0.441243	0.809836
	H4806	H	0.258051	0.441090	0.811119
	H4807	H	0.368323	0.441510	0.814890
	H4808	H	0.365183	0.441156	0.809920
	H4809	H	0.372702	0.441241	0.807436
	H4810	H	0.246672	0.564294	0.809814
	H4811	H	0.252263	0.564955	0.809189
	H4812	H	0.372734	0.564403	0.807434
	H4813	H	0.365100	0.565034	0.809968
	H4814	H	0.368344	0.565068	0.814910
	H4815	H	0.258083	0.564777	0.811094
	H4816	H	0.347215	0.641847	0.835185
	H4817	H	0.347072	0.861967	0.835162
	H4818	H	0.346829	0.143303	0.835192
	H4819	H	0.347347	0.363598	0.835174
	H4820	H	0.284562	0.643765	0.772604
	H4821	H	0.343107	0.642038	0.772572
	H4822	H	0.342836	0.862013	0.772621
	H4823	H	0.284717	0.863621	0.772682
	H4824	H	0.347241	0.641943	0.788032
	H4825	H	0.346924	0.861994	0.788050
	H4826	H	0.343205	0.641936	0.850625
	H4827	H	0.343097	0.862025	0.850602
	H4828	H	0.305110	0.440837	0.745833
	H4829	H	0.330330	0.440762	0.870363
	H4830	H	0.319285	0.441316	0.745099
	H4831	H	0.325683	0.441408	0.748068
	H4832	H	0.296750	0.441246	0.870949
	H4833	H	0.309800	0.440942	0.867336
	H4834	H	0.330405	0.564254	0.870376
	H4835	H	0.305136	0.564977	0.745852
	H4836	H	0.309668	0.564439	0.867370
	H4837	H	0.296878	0.564636	0.870957
	H4838	H	0.325701	0.564792	0.748081
	H4839	H	0.319217	0.564758	0.745135
	H4840	H	0.342881	0.143650	0.850609
	H4841	H	0.343447	0.363811	0.850642
	H4842	H	0.330625	0.064508	0.743328
	H4843	H	0.312423	0.064590	0.740809
	H4844	H	0.334845	0.064500	0.752809
	H4845	H	0.284637	0.863357	0.850604
	H4846	H	0.284789	0.643196	0.850626
	H4847	H	0.284907	0.362521	0.850646
	H4848	H	0.284950	0.142632	0.850569
	H4849	H	0.284704	0.142323	0.772671
	H4850	H	0.343193	0.144190	0.772608
	H4851	H	0.342772	0.364431	0.772691
	H4852	H	0.284510	0.362453	0.772637
	H4853	H	0.347253	0.143953	0.788041
	H4854	H	0.346914	0.364019	0.788143
	H4855	H	0.312815	0.064291	0.868027
	H4856	H	0.300457	0.064742	0.870605
	H4857	H	0.300305	0.064978	0.877635
	H4858	H	0.312281	0.940876	0.740812
	H4859	H	0.330579	0.941247	0.743309
	H4860	H	0.334796	0.940828	0.752756
	H4861	H	0.312843	0.940796	0.868062
	H4862	H	0.300336	0.941499	0.870624
	H4863	H	0.300432	0.941138	0.877674
	Zn4864	Zn	0.251435	0.680588	0.811616
	Zn4865	Zn	0.251505	0.825307	0.811639
	Zn4866	Zn	0.251421	0.180462	0.811633
	Zn4867	Zn	0.251386	0.325093	0.811626
	Zn4868	Zn	0.313996	0.679979	0.874174
	Zn4869	Zn	0.314293	0.825366	0.874170
	Zn4870	Zn	0.314185	0.180222	0.874111
	Zn4871	Zn	0.313951	0.325298	0.874151
	C4872	C	0.351531	0.751867	0.798215
	C4873	C	0.276210	0.752651	0.825024
	C4874	C	0.280505	0.752943	0.834229
	C4875	C	0.281589	0.690770	0.838616
	C4876	C	0.281476	0.815203	0.838611
	C4877	C	0.276340	0.252818	0.825002
	C4878	C	0.280724	0.252839	0.834203
	C4879	C	0.281828	0.190673	0.838577
	C4880	C	0.281784	0.315028	0.838602
	C4881	C	0.276194	0.752835	0.798225
	C4882	C	0.280541	0.753234	0.789032
	C4883	C	0.281565	0.815609	0.784683
	C4884	C	0.281489	0.691127	0.784638
	C4885	C	0.276341	0.253215	0.798256
	C4886	C	0.280607	0.252710	0.789042
	C4887	C	0.281456	0.314869	0.784649
	C4888	C	0.281596	0.190351	0.784675
	C4889	C	0.370778	0.043313	0.811574
	C4890	C	0.370802	0.962495	0.811571
	C4891	C	0.256079	0.043329	0.808858
	C4892	C	0.256115	0.962360	0.808870
	C4893	C	0.242472	0.043092	0.811609
	C4894	C	0.242479	0.962330	0.811624
	C4895	C	0.249966	0.462411	0.810071
	C4896	C	0.374107	0.462689	0.814440
	C4897	C	0.370937	0.462411	0.809466
	C4898	C	0.249962	0.543206	0.810061
	C4899	C	0.370934	0.543251	0.809468
	C4900	C	0.374153	0.543590	0.814437
	C4901	C	0.351508	0.752063	0.825013
	C4902	C	0.351528	0.253521	0.825000
	C4903	C	0.347208	0.751908	0.834215
	C4904	C	0.346242	0.689685	0.838605
	C4905	C	0.346176	0.814161	0.838585
	C4906	C	0.347156	0.253539	0.834209
	C4907	C	0.345996	0.191309	0.838601
	C4908	C	0.346333	0.315839	0.838605
	C4909	C	0.351377	0.253902	0.798246
	C4910	C	0.338572	0.752013	0.762489
	C4911	C	0.288981	0.753894	0.762497
	C4912	C	0.289218	0.753413	0.860774
	C4913	C	0.346175	0.689737	0.784620
	C4914	C	0.345965	0.814086	0.784633
	C4915	C	0.342904	0.751968	0.771689
	C4916	C	0.284614	0.753721	0.771706
	C4917	C	0.283580	0.691400	0.776064
	C4918	C	0.343998	0.689709	0.776046
	C4919	C	0.343806	0.814252	0.776060
	C4920	C	0.283690	0.815805	0.776108
	C4921	C	0.347125	0.751852	0.789013
	C4922	C	0.338799	0.752044	0.860758
	C4923	C	0.344153	0.689683	0.847180
	C4924	C	0.344083	0.814222	0.847159
	C4925	C	0.343122	0.751980	0.851542
	C4926	C	0.326903	0.462231	0.873503
	C4927	C	0.320130	0.462601	0.747245
	C4928	C	0.306105	0.462294	0.870459
	C4929	C	0.326927	0.543054	0.873506
	C4930	C	0.306111	0.543128	0.870467
	C4931	C	0.320141	0.543274	0.747248
	C4932	C	0.338769	0.253965	0.860761
	C4933	C	0.343857	0.191431	0.847174
	C4934	C	0.344200	0.315994	0.847183
	C4935	C	0.343029	0.253767	0.851546
	C4936	C	0.319547	0.043113	0.743911
	C4937	C	0.338518	0.254146	0.762504
	C4938	C	0.288983	0.252370	0.762500
	C4939	C	0.289271	0.252352	0.860750
	C4940	C	0.346210	0.191885	0.784625
	C4941	C	0.346018	0.316366	0.784680
	C4942	C	0.342966	0.254252	0.771708
	C4943	C	0.284629	0.252412	0.771710
	C4944	C	0.284704	0.753259	0.851565
	C4945	C	0.283650	0.815412	0.847185
	C4946	C	0.283740	0.690911	0.847194
	C4947	C	0.284933	0.252551	0.851534
	C4948	C	0.283891	0.314915	0.847180
	C4949	C	0.283940	0.190455	0.847150
	C4950	C	0.283646	0.190186	0.776096
	C4951	C	0.344112	0.191929	0.776052
	C4952	C	0.343906	0.316487	0.776101
	C4953	C	0.283509	0.314686	0.776077
	C4954	C	0.347065	0.254031	0.789031
	C4955	C	0.308649	0.043263	0.870593
	C4956	C	0.323726	0.043345	0.753427
	C4957	C	0.319503	0.962372	0.743906
	C4958	C	0.308659	0.962438	0.870615
	C4959	C	0.323746	0.962421	0.753432
	N4960	N	0.251442	0.070193	0.811654
	N4961	N	0.251485	0.935624	0.811664
	N4962	N	0.251380	0.435414	0.811663
	N4963	N	0.251386	0.570127	0.811641
	N4964	N	0.314051	0.435467	0.874135
	N4965	N	0.314081	0.569981	0.874158
	N4966	N	0.314320	0.070165	0.874135
	N4967	N	0.314369	0.935613	0.874147
	O4968	O	0.354111	0.694884	0.926833
	O4969	O	0.354596	0.811714	0.926768
	O4970	O	0.273649	0.693564	0.946499
	O4971	O	0.273917	0.810443	0.946476
	O4972	O	0.273893	0.195037	0.946555
	O4973	O	0.273353	0.311879	0.946513
	O4974	O	0.273382	0.693650	0.926719
	O4975	O	0.273697	0.810483	0.926767
	O4976	O	0.273429	0.194654	0.926768
	O4977	O	0.273429	0.311404	0.926747
	O4978	O	0.354402	0.695276	0.946462
	O4979	O	0.354633	0.811987	0.946437
	O4980	O	0.354589	0.193765	0.946459
	O4981	O	0.354334	0.310576	0.946492
	O4982	O	0.354720	0.194129	0.926731
	O4983	O	0.354020	0.311027	0.926788
	O4984	O	0.336201	0.693620	0.884093
	O4985	O	0.291435	0.694752	0.883994
	O4986	O	0.336510	0.695244	0.989183
	O4987	O	0.336208	0.812264	0.989177
	O4988	O	0.292071	0.693480	0.989224
	O4989	O	0.291673	0.810429	0.989246
	O4990	O	0.291958	0.811690	0.884057
	O4991	O	0.336562	0.810511	0.884028
	O4992	O	0.336414	0.195038	0.883975
	O4993	O	0.292015	0.193432	0.884081
	O4994	O	0.336204	0.193389	0.989218
	O4995	O	0.336575	0.309902	0.989229
	O4996	O	0.291665	0.195758	0.989271
	O4997	O	0.292068	0.312660	0.989267
	O4998	O	0.291583	0.310344	0.883976
	O4999	O	0.336105	0.311973	0.884063
	H5000	H	0.280784	0.641811	0.960175
	H5001	H	0.280777	0.862163	0.960146
	H5002	H	0.280647	0.143831	0.960207
	H5003	H	0.280601	0.363776	0.960161
	H5004	H	0.281126	0.862796	0.913183
	H5005	H	0.280114	0.642289	0.913049
	H5006	H	0.280066	0.362889	0.913022
	H5007	H	0.280819	0.142631	0.913167
	H5008	H	0.386220	0.064433	0.936081
	H5009	H	0.381996	0.064870	0.933798
	H5010	H	0.381893	0.940985	0.933783
	H5011	H	0.386170	0.941486	0.936078
	H5012	H	0.381528	0.064643	0.939461
	H5013	H	0.381473	0.941107	0.939443
	H5014	H	0.259196	0.064123	0.940464
	H5015	H	0.259154	0.940527	0.940452
	H5016	H	0.264525	0.064272	0.936993
	H5017	H	0.264510	0.941429	0.937002
	H5018	H	0.256828	0.064290	0.932359
	H5019	H	0.256684	0.940685	0.932398
	H5020	H	0.252992	0.441025	0.938855
	H5021	H	0.257019	0.440853	0.937519
	H5022	H	0.245817	0.441490	0.937999
	H5023	H	0.367400	0.441278	0.933562
	H5024	H	0.381710	0.441177	0.932430
	H5025	H	0.388707	0.441252	0.935235
	H5026	H	0.257069	0.564197	0.937524
	H5027	H	0.253029	0.564836	0.938826
	H5028	H	0.388803	0.564230	0.935271
	H5029	H	0.381640	0.564612	0.932483
	H5030	H	0.367592	0.565319	0.933563
	H5031	H	0.245874	0.564706	0.938008
	H5032	H	0.347349	0.643706	0.960086
	H5033	H	0.347502	0.863935	0.960116
	H5034	H	0.347377	0.142123	0.960089
	H5035	H	0.347405	0.361672	0.960118
	H5036	H	0.284252	0.642935	0.897600
	H5037	H	0.342653	0.642424	0.897789
	H5038	H	0.343724	0.862569	0.897632
	H5039	H	0.285205	0.863230	0.897744
	H5040	H	0.346812	0.643034	0.913219
	H5041	H	0.347942	0.863089	0.913077
	H5042	H	0.343052	0.643809	0.975535
	H5043	H	0.343188	0.863685	0.975541
	H5044	H	0.332620	0.440680	0.876171
	H5045	H	0.313451	0.441411	1.002512
	H5046	H	0.315006	0.440840	0.881103
	H5047	H	0.299842	0.441262	0.878915
	H5048	H	0.323320	0.441283	0.997756
	H5049	H	0.323161	0.441518	1.000619
	H5050	H	0.313470	0.564626	1.002508
	H5051	H	0.332671	0.564484	0.876184
	H5052	H	0.323023	0.564611	1.000643
	H5053	H	0.323290	0.564862	0.997783
	H5054	H	0.299841	0.564556	0.878898
	H5055	H	0.314953	0.564751	0.881160
	H5056	H	0.343204	0.141960	0.975542
	H5057	H	0.343359	0.361689	0.975542
	H5058	H	0.329710	0.064644	0.876696
	H5059	H	0.329828	0.064529	0.871573
	H5060	H	0.312797	0.064858	0.880225
	H5061	H	0.284911	0.862087	0.975590
	H5062	H	0.284819	0.641835	0.975606
	H5063	H	0.284889	0.364049	0.975605
	H5064	H	0.284887	0.143913	0.975637
	H5065	H	0.285219	0.142231	0.897746
	H5066	H	0.343581	0.143062	0.897611
	H5067	H	0.342878	0.363089	0.897705
	H5068	H	0.284429	0.362267	0.897590
	H5069	H	0.347777	0.142630	0.913072
	H5070	H	0.346970	0.362846	0.913124
	H5071	H	0.313295	0.064070	1.004710
	H5072	H	0.325411	0.064803	1.002938
	H5073	H	0.327841	0.064906	0.996574
	H5074	H	0.329801	0.940857	0.871568
	H5075	H	0.329843	0.941293	0.876730
	H5076	H	0.312846	0.941209	0.880233
	H5077	H	0.313290	0.940906	1.004691
	H5078	H	0.325399	0.940782	1.002947
	H5079	H	0.327942	0.941416	0.996565
	Zn5080	Zn	0.251122	0.680145	0.936626
	Zn5081	Zn	0.251477	0.824798	0.936641
	Zn5082	Zn	0.251504	0.180181	0.936698
	Zn5083	Zn	0.251042	0.325053	0.936629
	Zn5084	Zn	0.314440	0.680859	0.999135
	Zn5085	Zn	0.314049	0.825105	0.999072
	Zn5086	Zn	0.313986	0.180620	0.999124
	Zn5087	Zn	0.314556	0.325025	0.999088
	C5088	C	0.351882	0.753212	0.923299
	C5089	C	0.276286	0.751965	0.949981
	C5090	C	0.280737	0.751924	0.959191
	C5091	C	0.281706	0.689653	0.963589
	C5092	C	0.281710	0.814254	0.963570
	C5093	C	0.276098	0.253649	0.950043
	C5094	C	0.280579	0.253851	0.959253
	C5095	C	0.281627	0.191577	0.963634
	C5096	C	0.281570	0.316093	0.963613
	C5097	C	0.275977	0.752112	0.923238
	C5098	C	0.280458	0.752390	0.914044
	C5099	C	0.281828	0.815016	0.909719
	C5100	C	0.281295	0.690223	0.909640
	C5101	C	0.275951	0.252998	0.923255
	C5102	C	0.280449	0.252867	0.914053
	C5103	C	0.281306	0.314911	0.909630
	C5104	C	0.281741	0.190414	0.909714
	C5105	C	0.382268	0.043467	0.935366
	C5106	C	0.382265	0.962622	0.935367
	C5107	C	0.259134	0.042924	0.938187
	C5108	C	0.259103	0.962075	0.938187
	C5109	C	0.251346	0.043150	0.933544
	C5110	C	0.251336	0.962124	0.933537
	C5111	C	0.253952	0.462261	0.937760
	C5112	C	0.368785	0.462574	0.935690
	C5113	C	0.382988	0.462537	0.934578
	C5114	C	0.253979	0.543343	0.937742
	C5115	C	0.383010	0.543189	0.934590
	C5116	C	0.368813	0.543526	0.935700
	C5117	C	0.351989	0.753724	0.949948
	C5118	C	0.351961	0.252070	0.949973
	C5119	C	0.347479	0.753892	0.959143
	C5120	C	0.346379	0.691561	0.963515
	C5121	C	0.346467	0.816099	0.963530
	C5122	C	0.347557	0.251849	0.959173
	C5123	C	0.346463	0.189776	0.963540
	C5124	C	0.346498	0.313927	0.963547
	C5125	C	0.351804	0.252586	0.923264
	C5126	C	0.338814	0.752111	0.887569
	C5127	C	0.289160	0.753211	0.887517
	C5128	C	0.289437	0.751919	0.985726
	C5129	C	0.346078	0.690716	0.909757
	C5130	C	0.346706	0.815203	0.909680
	C5131	C	0.343250	0.752390	0.896775
	C5132	C	0.284711	0.753141	0.896734
	C5133	C	0.283451	0.690655	0.901067
	C5134	C	0.343940	0.690369	0.901190
	C5135	C	0.344547	0.814886	0.901106
	C5136	C	0.283999	0.815345	0.901145
	C5137	C	0.347455	0.753068	0.914103
	C5138	C	0.338755	0.753798	0.985675
	C5139	C	0.344191	0.691530	0.972092
	C5140	C	0.344251	0.816082	0.972097
	C5141	C	0.343204	0.753873	0.976462
	C5142	C	0.311218	0.462553	1.001062
	C5143	C	0.309144	0.462343	0.878470
	C5144	C	0.320938	0.462701	0.999167
	C5145	C	0.311195	0.543453	1.001050
	C5146	C	0.320914	0.543325	0.999173
	C5147	C	0.309162	0.543247	0.878483
	C5148	C	0.338851	0.251607	0.985695
	C5149	C	0.344249	0.189723	0.972113
	C5150	C	0.344288	0.313864	0.972113
	C5151	C	0.343255	0.251744	0.976503
	C5152	C	0.325738	0.043230	0.874139
	C5153	C	0.338762	0.253373	0.887518
	C5154	C	0.289271	0.252005	0.887526
	C5155	C	0.289314	0.254262	0.985778
	C5156	C	0.346586	0.190538	0.909667
	C5157	C	0.346146	0.315051	0.909699
	C5158	C	0.343089	0.253046	0.896735
	C5159	C	0.284836	0.252223	0.896728
	C5160	C	0.284978	0.751955	0.976519
	C5161	C	0.283926	0.814286	0.972145
	C5162	C	0.283937	0.689579	0.972158
	C5163	C	0.284729	0.254031	0.976580
	C5164	C	0.283743	0.316136	0.972187
	C5165	C	0.283726	0.191667	0.972215
	C5166	C	0.283999	0.190133	0.901147
	C5167	C	0.344365	0.190677	0.901090
	C5168	C	0.343931	0.315253	0.901133
	C5169	C	0.283535	0.314606	0.901059
	C5170	C	0.347368	0.252771	0.914060
	C5171	C	0.317956	0.043280	1.002592
	C5172	C	0.308640	0.043481	0.877664
	C5173	C	0.325715	0.962383	0.874157
	C5174	C	0.317949	0.962300	1.002585
	C5175	C	0.308656	0.962524	0.877688
	N5176	N	0.251518	0.069729	0.936648
	N5177	N	0.251483	0.935120	0.936667
	N5178	N	0.251078	0.435393	0.936634
	N5179	N	0.251106	0.570036	0.936626
	N5180	N	0.314516	0.435589	0.999132
	N5181	N	0.314505	0.570352	0.999138
	N5182	N	0.314024	0.070176	0.999130
	N5183	N	0.314031	0.935511	0.999127
	O5184	O	0.478643	0.695133	0.051746
	O5185	O	0.478818	0.812015	0.051703
	O5186	O	0.399372	0.695527	0.071499
	O5187	O	0.398919	0.812431	0.071559
	O5188	O	0.398878	0.194395	0.071517
	O5189	O	0.399259	0.311192	0.071443
	O5190	O	0.399328	0.695777	0.051762
	O5191	O	0.398785	0.812565	0.051681
	O5192	O	0.399026	0.193847	0.051748
	O5193	O	0.399434	0.310592	0.051842
	O5194	O	0.478893	0.694936	0.071529
	O5195	O	0.478733	0.811733	0.071488
	O5196	O	0.478863	0.195181	0.071559
	O5197	O	0.479029	0.312014	0.071529
	O5198	O	0.478784	0.194670	0.051789
	O5199	O	0.478788	0.311665	0.051668
	O5200	O	0.461425	0.695225	0.008972
	O5201	O	0.416847	0.694230	0.008994
	O5202	O	0.461277	0.695414	0.114243
	O5203	O	0.461168	0.812431	0.114314
	O5204	O	0.416483	0.694717	0.114293
	O5205	O	0.416626	0.811402	0.114290
	O5206	O	0.416452	0.811076	0.008930
	O5207	O	0.461196	0.812050	0.008951
	O5208	O	0.461432	0.194386	0.008969
	O5209	O	0.416708	0.194792	0.008986
	O5210	O	0.461189	0.194402	0.114299
	O5211	O	0.461303	0.311459	0.114275
	O5212	O	0.416485	0.195526	0.114274
	O5213	O	0.416723	0.312456	0.114231
	O5214	O	0.416805	0.311634	0.009031
	O5215	O	0.461371	0.311099	0.008960
	H5216	H	0.406047	0.643564	0.085174
	H5217	H	0.405169	0.863888	0.085241
	H5218	H	0.405063	0.142890	0.085251
	H5219	H	0.406646	0.362974	0.085085
	H5220	H	0.405271	0.863906	0.038009
	H5221	H	0.406431	0.643826	0.038154
	H5222	H	0.406103	0.362621	0.038143
	H5223	H	0.405598	0.142450	0.038040
	H5224	H	0.502120	0.065359	0.067895
	H5225	H	0.514932	0.064760	0.065390
	H5226	H	0.514838	0.941873	0.065365
	H5227	H	0.502040	0.941589	0.067848
	H5228	H	0.485051	0.065225	0.064116
	H5229	H	0.485175	0.941060	0.064090
	H5230	H	0.403648	0.065101	0.065008
	H5231	H	0.403579	0.941314	0.065008
	H5232	H	0.401191	0.065060	0.056444
	H5233	H	0.401269	0.941447	0.056438
	H5234	H	0.371276	0.065427	0.051656
	H5235	H	0.371253	0.941920	0.051599
	H5236	H	0.362675	0.440845	0.063049
	H5237	H	0.370889	0.441134	0.066466
	H5238	H	0.368351	0.441723	0.057200
	H5239	H	0.499981	0.441059	0.059738
	H5240	H	0.505535	0.442059	0.060590
	H5241	H	0.505900	0.442019	0.062166
	H5242	H	0.370743	0.564802	0.066478
	H5243	H	0.362600	0.564810	0.063058
	H5244	H	0.505845	0.565131	0.062172
	H5245	H	0.505385	0.565692	0.060631
	H5246	H	0.499982	0.565134	0.059765
	H5247	H	0.368279	0.564776	0.057223
	H5248	H	0.472944	0.643407	0.085189
	H5249	H	0.471473	0.863600	0.085118
	H5250	H	0.471373	0.143347	0.085147
	H5251	H	0.472769	0.363411	0.085247
	H5252	H	0.410400	0.643244	0.022692
	H5253	H	0.467997	0.643848	0.022640
	H5254	H	0.468228	0.864033	0.022604
	H5255	H	0.409267	0.863256	0.022563
	H5256	H	0.471801	0.643722	0.038071
	H5257	H	0.472174	0.863867	0.038053
	H5258	H	0.468933	0.643699	0.100633
	H5259	H	0.467465	0.863807	0.100567
	H5260	H	0.433208	0.441233	-0.002943
	H5261	H	0.440754	0.441957	0.125060
	H5262	H	0.442574	0.441155	-0.003586
	H5263	H	0.447067	0.441342	-0.001667
	H5264	H	0.440553	0.441513	0.123071
	H5265	H	0.442174	0.441708	0.123875
	H5266	H	0.440809	0.565033	0.125058
	H5267	H	0.433287	0.564699	-0.002931
	H5268	H	0.442242	0.564996	0.123829
	H5269	H	0.440535	0.565207	0.123057
	H5270	H	0.447091	0.564634	-0.001698
	H5271	H	0.442592	0.564569	-0.003559
	H5272	H	0.467163	0.142941	0.100603
	H5273	H	0.468712	0.362947	0.100655
	H5274	H	0.435771	0.064977	0.002878
	H5275	H	0.444977	0.064913	0.002405
	H5276	H	0.428057	0.065089	-0.000684
	H5277	H	0.409104	0.863414	0.100690
	H5278	H	0.410057	0.643298	0.100597
	H5279	H	0.410604	0.363583	0.100501
	H5280	H	0.409142	0.143492	0.100701
	H5281	H	0.409622	0.142889	0.022590
	H5282	H	0.468466	0.142591	0.022622
	H5283	H	0.467887	0.362671	0.022604
	H5284	H	0.410083	0.362960	0.022709
	H5285	H	0.472442	0.142577	0.038062
	H5286	H	0.471795	0.362681	0.038074
	H5287	H	0.464114	0.065198	0.122183
	H5288	H	0.450983	0.065137	0.115987
	H5289	H	0.421299	0.064741	0.117316
	H5290	H	0.445025	0.941478	0.002410
	H5291	H	0.435864	0.941975	0.002883
	H5292	H	0.428001	0.941591	-0.000695
	H5293	H	0.464253	0.941631	0.122222
	H5294	H	0.450842	0.941439	0.115973
	H5295	H	0.421467	0.941641	0.117311
	Zn5296	Zn	0.377058	0.681029	0.061610
	Zn5297	Zn	0.376644	0.825334	0.061624
	Zn5298	Zn	0.376621	0.180867	0.061653
	Zn5299	Zn	0.376910	0.325264	0.061607
	Zn5300	Zn	0.438993	0.680857	0.124125
	Zn5301	Zn	0.438768	0.826003	0.124198
	Zn5302	Zn	0.438829	0.180707	0.124133
	Zn5303	Zn	0.439040	0.325783	0.124110
	C5304	C	0.476285	0.753552	0.048216
	C5305	C	0.401537	0.753960	0.075026
	C5306	C	0.405729	0.753771	0.084247
	C5307	C	0.406875	0.691389	0.088604
	C5308	C	0.406351	0.815936	0.088647
	C5309	C	0.401484	0.252842	0.074992
	C5310	C	0.405853	0.252879	0.084203
	C5311	C	0.406396	0.190857	0.088644
	C5312	C	0.407243	0.315219	0.088540
	C5313	C	0.401563	0.754084	0.048218
	C5314	C	0.405818	0.753819	0.039006
	C5315	C	0.406460	0.816015	0.034596
	C5316	C	0.407124	0.691430	0.034668
	C5317	C	0.401665	0.252297	0.048274
	C5318	C	0.405921	0.252390	0.039042
	C5319	C	0.406971	0.314820	0.034690
	C5320	C	0.406692	0.190339	0.034620
	C5321	C	0.506497	0.043631	0.065342
	C5322	C	0.506493	0.963008	0.065326
	C5323	C	0.395617	0.043701	0.060970
	C5324	C	0.395650	0.962774	0.060972
	C5325	C	0.365530	0.043861	0.056146
	C5326	C	0.365518	0.962921	0.056116
	C5327	C	0.369405	0.462781	0.063921
	C5328	C	0.498951	0.462658	0.060567
	C5329	C	0.504456	0.463171	0.061438
	C5330	C	0.369460	0.543811	0.063934
	C5331	C	0.504409	0.543905	0.061441
	C5332	C	0.498999	0.543761	0.060582
	C5333	C	0.476438	0.753442	0.075023
	C5334	C	0.476512	0.253693	0.075056
	C5335	C	0.472046	0.753565	0.084218
	C5336	C	0.471545	0.691244	0.088601
	C5337	C	0.470740	0.815835	0.088572
	C5338	C	0.472095	0.253364	0.084250
	C5339	C	0.470699	0.190998	0.088607
	C5340	C	0.471483	0.315445	0.088643
	C5341	C	0.476353	0.252926	0.048222
	C5342	C	0.463776	0.753751	0.012466
	C5343	C	0.414138	0.752721	0.012461
	C5344	C	0.414080	0.753083	0.110776
	C5345	C	0.471009	0.691609	0.034632
	C5346	C	0.471182	0.816081	0.034611
	C5347	C	0.468072	0.753942	0.021668
	C5348	C	0.409856	0.753162	0.021673
	C5349	C	0.409160	0.691163	0.026093
	C5350	C	0.468962	0.691695	0.026055
	C5351	C	0.469095	0.816165	0.026035
	C5352	C	0.408530	0.815594	0.026020
	C5353	C	0.472048	0.753810	0.039002
	C5354	C	0.463659	0.754078	0.110774
	C5355	C	0.469448	0.691456	0.097182
	C5356	C	0.468638	0.815929	0.097147
	C5357	C	0.467981	0.753875	0.101553
	C5358	C	0.439326	0.463084	0.124861
	C5359	C	0.443310	0.462567	-0.002185
	C5360	C	0.440771	0.462810	0.123614
	C5361	C	0.439324	0.543858	0.124858
	C5362	C	0.440721	0.543741	0.123613
	C5363	C	0.443329	0.543424	-0.002177
	C5364	C	0.463716	0.252889	0.110792
	C5365	C	0.468630	0.190722	0.097187
	C5366	C	0.469437	0.315230	0.097216
	C5367	C	0.468130	0.252924	0.101580
	C5368	C	0.440054	0.043621	0.001715
	C5369	C	0.463839	0.252764	0.012477
	C5370	C	0.414317	0.253116	0.012513
	C5371	C	0.414206	0.253940	0.110740
	C5372	C	0.471325	0.190445	0.034633
	C5373	C	0.470970	0.314902	0.034626
	C5374	C	0.468178	0.252765	0.021676
	C5375	C	0.409885	0.252787	0.021700
	C5376	C	0.409690	0.753339	0.101567
	C5377	C	0.408429	0.815767	0.097221
	C5378	C	0.408891	0.691166	0.097179
	C5379	C	0.409799	0.253571	0.101549
	C5380	C	0.409324	0.315634	0.097119
	C5381	C	0.408509	0.191157	0.097225
	C5382	C	0.408760	0.190520	0.026043
	C5383	C	0.469299	0.190519	0.026054
	C5384	C	0.468969	0.315022	0.026045
	C5385	C	0.409037	0.314929	0.026112
	C5386	C	0.472097	0.252705	0.039003
	C5387	C	0.452628	0.043841	0.120417
	C5388	C	0.432252	0.043929	-0.001869
	C5389	C	0.440060	0.962773	0.001716
	C5390	C	0.452628	0.962769	0.120440
	C5391	C	0.432182	0.962793	-0.001875
	N5392	N	0.376666	0.070427	0.061672
	N5393	N	0.376648	0.935776	0.061662
	N5394	N	0.376985	0.436109	0.061591
	N5395	N	0.377042	0.570817	0.061595
	N5396	N	0.439058	0.436091	0.124122
	N5397	N	0.439035	0.570663	0.124112
	N5398	N	0.438857	0.070716	0.124196
	N5399	N	0.438834	0.936144	0.124192
	O5400	O	0.479203	0.694123	0.176755
	O5401	O	0.479058	0.811058	0.176794
	O5402	O	0.398636	0.694255	0.196505
	O5403	O	0.398953	0.810963	0.196448
	O5404	O	0.398812	0.194969	0.196512
	O5405	O	0.398741	0.311692	0.196561
	O5406	O	0.399038	0.694113	0.176811
	O5407	O	0.398815	0.810966	0.176782
	O5408	O	0.398797	0.194961	0.176772
	O5409	O	0.398824	0.311680	0.176761
	O5410	O	0.479352	0.694122	0.196498
	O5411	O	0.479054	0.810993	0.196483
	O5412	O	0.478909	0.195372	0.196475
	O5413	O	0.479254	0.312219	0.196476
	O5414	O	0.479055	0.195342	0.176797
	O5415	O	0.479195	0.312253	0.176746
	O5416	O	0.461540	0.694623	0.133952
	O5417	O	0.416847	0.694184	0.134040
	O5418	O	0.461438	0.693753	0.239231
	O5419	O	0.461703	0.810534	0.239291
	O5420	O	0.416914	0.695178	0.239264
	O5421	O	0.417119	0.811916	0.239248
	O5422	O	0.416325	0.810978	0.134014
	O5423	O	0.461054	0.811382	0.134051
	O5424	O	0.460966	0.194610	0.134035
	O5425	O	0.416320	0.195248	0.133953
	O5426	O	0.461610	0.195592	0.239254
	O5427	O	0.461450	0.312470	0.239280
	O5428	O	0.416914	0.194443	0.239285
	O5429	O	0.416989	0.311290	0.239255
	O5430	O	0.416797	0.312184	0.134055
	O5431	O	0.461567	0.311495	0.133954
	H5432	H	0.405487	0.643145	0.210209
	H5433	H	0.406124	0.863012	0.210082
	H5434	H	0.405567	0.143206	0.210183
	H5435	H	0.406026	0.363272	0.210217
	H5436	H	0.405621	0.862564	0.163143
	H5437	H	0.406067	0.642833	0.163137
	H5438	H	0.405941	0.363407	0.163116
	H5439	H	0.405480	0.143072	0.163061
	H5440	H	0.491149	0.064811	0.191506
	H5441	H	0.505094	0.064931	0.192578
	H5442	H	0.505075	0.941457	0.192567
	H5443	H	0.491214	0.941257	0.191491
	H5444	H	0.485164	0.064922	0.184883
	H5445	H	0.485176	0.941089	0.184819
	H5446	H	0.385817	0.064764	0.188465
	H5447	H	0.385857	0.941090	0.188444
	H5448	H	0.386412	0.064506	0.185274
	H5449	H	0.386423	0.941475	0.185291
	H5450	H	0.376331	0.064704	0.182878
	H5451	H	0.376265	0.941177	0.182851
	H5452	H	0.376381	0.441336	0.183634
	H5453	H	0.370052	0.441394	0.184692
	H5454	H	0.384114	0.441185	0.185636
	H5455	H	0.498652	0.441599	0.188628
	H5456	H	0.495401	0.442164	0.186328
	H5457	H	0.498154	0.442048	0.184769
	H5458	H	0.370142	0.564568	0.184667
	H5459	H	0.376562	0.565248	0.183678
	H5460	H	0.498272	0.565316	0.184790
	H5461	H	0.495319	0.565238	0.186363
	H5462	H	0.498649	0.565441	0.188672
	H5463	H	0.384134	0.564921	0.185652
	H5464	H	0.472325	0.642549	0.210110
	H5465	H	0.472207	0.862468	0.210167
	H5466	H	0.472182	0.143992	0.210147
	H5467	H	0.472074	0.364187	0.210104
	H5468	H	0.410148	0.642595	0.147724
	H5469	H	0.468597	0.642926	0.147624
	H5470	H	0.467898	0.862882	0.147715
	H5471	H	0.409496	0.862584	0.147698
	H5472	H	0.472521	0.642527	0.163052
	H5473	H	0.471865	0.862509	0.163189
	H5474	H	0.468429	0.642438	0.225581
	H5475	H	0.468310	0.862491	0.225591
	H5476	H	0.438099	0.441518	0.125200
	H5477	H	0.442864	0.441508	0.245991
	H5478	H	0.435682	0.441543	0.124155
	H5479	H	0.436803	0.441498	0.123230
	H5480	H	0.429397	0.441563	0.249501
	H5481	H	0.432110	0.441426	0.246746
	H5482	H	0.443016	0.565076	0.245962
	H5483	H	0.438057	0.565269	0.125214
	H5484	H	0.432047	0.564629	0.246714
	H5485	H	0.429430	0.565077	0.249471
	H5486	H	0.436845	0.565122	0.123259
	H5487	H	0.435744	0.565430	0.124166
	H5488	H	0.468302	0.144272	0.225584
	H5489	H	0.468184	0.364325	0.225552
	H5490	H	0.430971	0.065133	0.133092
	H5491	H	0.452630	0.064805	0.132077
	H5492	H	0.412979	0.065484	0.124546
	H5493	H	0.410310	0.863593	0.225533
	H5494	H	0.409664	0.643544	0.225637
	H5495	H	0.410121	0.363013	0.225656
	H5496	H	0.409715	0.143060	0.225612
	H5497	H	0.409539	0.143367	0.147624
	H5498	H	0.467690	0.142960	0.147724
	H5499	H	0.468447	0.363252	0.147641
	H5500	H	0.409991	0.363568	0.147687
	H5501	H	0.471787	0.143215	0.163149
	H5502	H	0.472498	0.363499	0.163077
	H5503	H	0.436011	0.064938	0.252076
	H5504	H	0.443626	0.064607	0.251983
	H5505	H	0.448412	0.064616	0.248709
	H5506	H	0.452600	0.942058	0.132113
	H5507	H	0.430991	0.941559	0.133060
	H5508	H	0.412906	0.941642	0.124546
	H5509	H	0.436018	0.941289	0.252077
	H5510	H	0.443527	0.941448	0.251981
	H5511	H	0.448462	0.941578	0.248722
	Zn5512	Zn	0.376456	0.680432	0.186616
	Zn5513	Zn	0.376579	0.825468	0.186651
	Zn5514	Zn	0.376497	0.180558	0.186627
	Zn5515	Zn	0.376474	0.325373	0.186638
	Zn5516	Zn	0.439021	0.680906	0.249141
	Zn5517	Zn	0.439526	0.825804	0.249130
	Zn5518	Zn	0.439480	0.180730	0.249120
	Zn5519	Zn	0.439059	0.325769	0.249136
	C5520	C	0.476686	0.752567	0.173273
	C5521	C	0.401307	0.752672	0.199989
	C5522	C	0.405822	0.753082	0.209198
	C5523	C	0.406681	0.691071	0.213619
	C5524	C	0.407056	0.815400	0.213545
	C5525	C	0.401253	0.253247	0.200049
	C5526	C	0.405628	0.253221	0.209251
	C5527	C	0.406606	0.191000	0.213614
	C5528	C	0.406831	0.315401	0.213634
	C5529	C	0.401392	0.752521	0.173294
	C5530	C	0.405780	0.752644	0.164081
	C5531	C	0.406627	0.814825	0.159704
	C5532	C	0.406943	0.690560	0.159706
	C5533	C	0.401256	0.253311	0.173253
	C5534	C	0.405599	0.253314	0.164046
	C5535	C	0.406774	0.315591	0.159683
	C5536	C	0.406526	0.191060	0.159651
	C5537	C	0.498993	0.043727	0.190632
	C5538	C	0.499003	0.962870	0.190620
	C5539	C	0.383590	0.043380	0.186818
	C5540	C	0.383616	0.962612	0.186801
	C5541	C	0.373434	0.043546	0.184389
	C5542	C	0.373417	0.962457	0.184370
	C5543	C	0.374093	0.462503	0.184804
	C5544	C	0.501340	0.462944	0.188161
	C5545	C	0.498047	0.463174	0.185835
	C5546	C	0.374132	0.543315	0.184820
	C5547	C	0.498055	0.543801	0.185867
	C5548	C	0.501355	0.544024	0.188170
	C5549	C	0.476691	0.752544	0.199992
	C5550	C	0.476532	0.253876	0.199968
	C5551	C	0.472369	0.752520	0.209209
	C5552	C	0.471446	0.690205	0.213567
	C5553	C	0.471362	0.814707	0.213595
	C5554	C	0.472255	0.254072	0.209177
	C5555	C	0.471304	0.191871	0.213567
	C5556	C	0.471265	0.316384	0.213549
	C5557	C	0.476591	0.253717	0.173280
	C5558	C	0.463794	0.752892	0.137515
	C5559	C	0.414151	0.752550	0.137540
	C5560	C	0.414524	0.753586	0.235750
	C5561	C	0.471511	0.690446	0.159645
	C5562	C	0.471121	0.814812	0.159719
	C5563	C	0.468281	0.752861	0.146721
	C5564	C	0.409778	0.752631	0.146738
	C5565	C	0.409008	0.690521	0.151129
	C5566	C	0.469428	0.690599	0.151072
	C5567	C	0.469027	0.815031	0.151138
	C5568	C	0.408714	0.814799	0.151123
	C5569	C	0.472316	0.752473	0.164064
	C5570	C	0.463997	0.752163	0.235756
	C5571	C	0.469342	0.690152	0.222148
	C5572	C	0.469304	0.814598	0.222169
	C5573	C	0.468331	0.752312	0.226546
	C5574	C	0.443856	0.462682	0.247622
	C5575	C	0.437008	0.462903	0.123806
	C5576	C	0.432935	0.462822	0.248391
	C5577	C	0.443857	0.543600	0.247603
	C5578	C	0.432924	0.543727	0.248376
	C5579	C	0.436976	0.543803	0.123805
	C5580	C	0.463979	0.254125	0.235754
	C5581	C	0.469274	0.191998	0.222145
	C5582	C	0.469240	0.316481	0.222127
	C5583	C	0.468278	0.254276	0.226526
	C5584	C	0.441037	0.043783	0.130373
	C5585	C	0.463721	0.253122	0.137505
	C5586	C	0.414085	0.253634	0.137507
	C5587	C	0.414403	0.252817	0.235772
	C5588	C	0.470988	0.191100	0.159710
	C5589	C	0.471396	0.315568	0.159660
	C5590	C	0.468065	0.253109	0.146726
	C5591	C	0.409775	0.253493	0.146715
	C5592	C	0.410161	0.753642	0.226545
	C5593	C	0.409246	0.815679	0.222127
	C5594	C	0.408893	0.691328	0.222190
	C5595	C	0.409967	0.252976	0.226573
	C5596	C	0.409032	0.315286	0.222209
	C5597	C	0.408852	0.190870	0.222185
	C5598	C	0.408657	0.191043	0.151074
	C5599	C	0.468854	0.190890	0.151134
	C5600	C	0.469273	0.315506	0.151084
	C5601	C	0.408898	0.315703	0.151110
	C5602	C	0.472171	0.253393	0.164070
	C5603	C	0.439702	0.043520	0.251264
	C5604	C	0.422824	0.043799	0.121786
	C5605	C	0.441002	0.963020	0.130390
	C5606	C	0.439699	0.962547	0.251261
	C5607	C	0.422841	0.963055	0.121799
	N5608	N	0.376546	0.070281	0.186654
	N5609	N	0.376598	0.935694	0.186665
	N5610	N	0.376380	0.435595	0.186625
	N5611	N	0.376407	0.570171	0.186624
	N5612	N	0.439040	0.435924	0.249138
	N5613	N	0.439013	0.570460	0.249120
	N5614	N	0.439473	0.070510	0.249108
	N5615	N	0.439488	0.935958	0.249107
	O5616	O	0.478972	0.694946	0.301813
	O5617	O	0.479199	0.811790	0.301732
	O5618	O	0.399089	0.695332	0.321448
	O5619	O	0.398591	0.812198	0.321545
	O5620	O	0.398599	0.193899	0.321531
	O5621	O	0.399093	0.310926	0.321454
	O5622	O	0.398971	0.695534	0.301731
	O5623	O	0.398703	0.812333	0.301716
	O5624	O	0.398902	0.193636	0.301717
	O5625	O	0.399141	0.310493	0.301717
	O5626	O	0.479176	0.695068	0.321555
	O5627	O	0.478925	0.811950	0.321489
	O5628	O	0.478938	0.194386	0.321474
	O5629	O	0.479093	0.311393	0.321557
	O5630	O	0.479124	0.195224	0.301789
	O5631	O	0.479068	0.312069	0.301816
	O5632	O	0.461172	0.693816	0.259061
	O5633	O	0.416855	0.695479	0.259010
	O5634	O	0.461530	0.696092	0.364312
	O5635	O	0.461052	0.812813	0.364267
	O5636	O	0.416888	0.693458	0.364229
	O5637	O	0.416352	0.810474	0.364283
	O5638	O	0.417070	0.812324	0.258997
	O5639	O	0.461816	0.810690	0.258990
	O5640	O	0.461666	0.195683	0.259008
	O5641	O	0.417185	0.193816	0.259028
	O5642	O	0.460966	0.192861	0.364238
	O5643	O	0.461510	0.309808	0.364272
	O5644	O	0.416279	0.196142	0.364251
	O5645	O	0.416913	0.313116	0.364174
	O5646	O	0.416748	0.310722	0.258996
	O5647	O	0.461281	0.312703	0.259074
	H5648	H	0.405935	0.643007	0.335046
	H5649	H	0.405561	0.863435	0.335231
	H5650	H	0.404921	0.142800	0.335261
	H5651	H	0.406026	0.363233	0.335017
	H5652	H	0.405702	0.864156	0.288072
	H5653	H	0.405737	0.643829	0.288084
	H5654	H	0.405630	0.361832	0.288062
	H5655	H	0.406106	0.141777	0.288062
	H5656	H	0.507307	0.065050	0.317080
	H5657	H	0.516691	0.064740	0.313525
	H5658	H	0.516715	0.941531	0.313552
	H5659	H	0.507175	0.941098	0.317065
	H5660	H	0.489054	0.064950	0.315459
	H5661	H	0.488960	0.941383	0.315438
	H5662	H	0.367689	0.064949	0.314207
	H5663	H	0.367703	0.941392	0.314263
	H5664	H	0.376392	0.064969	0.315640
	H5665	H	0.376361	0.941519	0.315703
	H5666	H	0.387090	0.064400	0.312951
	H5667	H	0.386976	0.941255	0.312927
	H5668	H	0.378934	0.441435	0.313802
	H5669	H	0.382909	0.441593	0.312405
	H5670	H	0.371551	0.441040	0.313020
	H5671	H	0.503022	0.441391	0.320404
	H5672	H	0.478926	0.441681	0.315164
	H5673	H	0.479398	0.441543	0.307732
	H5674	H	0.382846	0.564773	0.312425
	H5675	H	0.378884	0.565070	0.313810
	H5676	H	0.479435	0.565308	0.307785
	H5677	H	0.478850	0.564596	0.315122
	H5678	H	0.502955	0.565229	0.320401
	H5679	H	0.371688	0.564941	0.313067
	H5680	H	0.472654	0.644029	0.335224
	H5681	H	0.472094	0.864305	0.335145
	H5682	H	0.472033	0.142299	0.335075
	H5683	H	0.472370	0.362372	0.335237
	H5684	H	0.409855	0.643846	0.272644
	H5685	H	0.468056	0.642119	0.272700
	H5686	H	0.468755	0.862459	0.272633
	H5687	H	0.409813	0.864200	0.272636
	H5688	H	0.472001	0.642531	0.288155
	H5689	H	0.472632	0.862955	0.288076
	H5690	H	0.468597	0.644368	0.350648
	H5691	H	0.467963	0.864471	0.350598
	H5692	H	0.448211	0.441407	0.248125
	H5693	H	0.422836	0.441383	0.376790
	H5694	H	0.444722	0.441358	0.251928
	H5695	H	0.436685	0.441724	0.252487
	H5696	H	0.453755	0.441489	0.377920
	H5697	H	0.440506	0.441760	0.380559
	H5698	H	0.422805	0.565117	0.376724
	H5699	H	0.448202	0.564979	0.248157
	H5700	H	0.440572	0.564991	0.380558
	H5701	H	0.453754	0.564449	0.377962
	H5702	H	0.436627	0.565288	0.252440
	H5703	H	0.444563	0.565076	0.251891
	H5704	H	0.467939	0.141453	0.350544
	H5705	H	0.468352	0.361529	0.350678
	H5706	H	0.434014	0.064825	0.246559
	H5707	H	0.430493	0.064857	0.248966
	H5708	H	0.444338	0.065099	0.246396
	H5709	H	0.409622	0.862544	0.350671
	H5710	H	0.410069	0.642078	0.350497
	H5711	H	0.410235	0.364162	0.350451
	H5712	H	0.409213	0.143914	0.350698
	H5713	H	0.410240	0.142096	0.272632
	H5714	H	0.468312	0.143752	0.272646
	H5715	H	0.468316	0.364157	0.272709
	H5716	H	0.409719	0.361974	0.272625
	H5717	H	0.472332	0.143513	0.288096
	H5718	H	0.472359	0.364136	0.288150
	H5719	H	0.450551	0.065103	0.378363
	H5720	H	0.455205	0.065522	0.373582
	H5721	H	0.442788	0.065242	0.368240
	H5722	H	0.430621	0.941404	0.248958
	H5723	H	0.434076	0.941216	0.246566
	H5724	H	0.444405	0.941605	0.246417
	H5725	H	0.450521	0.941967	0.378401
	H5726	H	0.455387	0.941719	0.373600
	H5727	H	0.442801	0.941328	0.368227
	Zn5728	Zn	0.376752	0.680712	0.311591
	Zn5729	Zn	0.376337	0.825325	0.311602
	Zn5730	Zn	0.376366	0.180829	0.311582
	Zn5731	Zn	0.376787	0.325473	0.311559
	Zn5732	Zn	0.439289	0.680661	0.374154
	Zn5733	Zn	0.438566	0.825553	0.374124
	Zn5734	Zn	0.438479	0.180607	0.374110
	Zn5735	Zn	0.439267	0.325446	0.374117
	C5736	C	0.476572	0.753235	0.298277
	C5737	C	0.401395	0.753670	0.325005
	C5738	C	0.405704	0.753220	0.334220
	C5739	C	0.406793	0.690585	0.338540
	C5740	C	0.406593	0.815319	0.338641
	C5741	C	0.401264	0.252444	0.324990
	C5742	C	0.405549	0.252926	0.334200
	C5743	C	0.406249	0.190870	0.338631
	C5744	C	0.406842	0.315581	0.338503
	C5745	C	0.401438	0.753965	0.298225
	C5746	C	0.405797	0.753928	0.289018
	C5747	C	0.406743	0.816241	0.284638
	C5748	C	0.406787	0.691657	0.284643
	C5749	C	0.401533	0.251997	0.298221
	C5750	C	0.405782	0.251897	0.289016
	C5751	C	0.406648	0.314122	0.284639
	C5752	C	0.406868	0.189689	0.284641
	C5753	C	0.509194	0.043558	0.314337
	C5754	C	0.509140	0.962638	0.314336
	C5755	C	0.373181	0.043774	0.314060
	C5756	C	0.373176	0.962816	0.314073
	C5757	C	0.383902	0.043422	0.311316
	C5758	C	0.383876	0.962597	0.311330
	C5759	C	0.379788	0.462763	0.312712
	C5760	C	0.509199	0.462601	0.316794
	C5761	C	0.485009	0.463021	0.311493
	C5762	C	0.379806	0.543707	0.312707
	C5763	C	0.484996	0.543684	0.311509
	C5764	C	0.509194	0.543721	0.316813
	C5765	C	0.476631	0.753646	0.325029
	C5766	C	0.476594	0.252753	0.325018
	C5767	C	0.472368	0.754125	0.334243
	C5768	C	0.471505	0.691951	0.338633
	C5769	C	0.471162	0.816573	0.338596
	C5770	C	0.472237	0.252352	0.334228
	C5771	C	0.471144	0.189834	0.338558
	C5772	C	0.471343	0.314473	0.338641
	C5773	C	0.476623	0.253731	0.298307
	C5774	C	0.464062	0.752271	0.262526
	C5775	C	0.414419	0.753972	0.262500
	C5776	C	0.414143	0.751956	0.360762
	C5777	C	0.471158	0.690278	0.284709
	C5778	C	0.471537	0.814967	0.284663
	C5779	C	0.468286	0.752321	0.271745
	C5780	C	0.410065	0.753951	0.271703
	C5781	C	0.408928	0.691663	0.276071
	C5782	C	0.469106	0.690016	0.276134
	C5783	C	0.469496	0.814766	0.276089
	C5784	C	0.408893	0.816325	0.276066
	C5785	C	0.472353	0.752755	0.289064
	C5786	C	0.463869	0.754452	0.360790
	C5787	C	0.469377	0.692178	0.347207
	C5788	C	0.469007	0.816635	0.347174
	C5789	C	0.468176	0.754428	0.351575
	C5790	C	0.427228	0.462977	0.374081
	C5791	C	0.440224	0.462875	0.251392
	C5792	C	0.445078	0.462814	0.377885
	C5793	C	0.427228	0.543975	0.374075
	C5794	C	0.445059	0.543447	0.377910
	C5795	C	0.440188	0.543705	0.251379
	C5796	C	0.463737	0.251270	0.360761
	C5797	C	0.468994	0.189384	0.347133
	C5798	C	0.469234	0.313904	0.347218
	C5799	C	0.468133	0.251404	0.351551
	C5800	C	0.434172	0.043623	0.248109
	C5801	C	0.463980	0.254121	0.262546
	C5802	C	0.414433	0.252282	0.262514
	C5803	C	0.414085	0.254574	0.360722
	C5804	C	0.471370	0.191537	0.284685
	C5805	C	0.471366	0.316240	0.284724
	C5806	C	0.468234	0.254013	0.271764
	C5807	C	0.409994	0.252172	0.271711
	C5808	C	0.409805	0.752202	0.351549
	C5809	C	0.408675	0.814786	0.347217
	C5810	C	0.408895	0.690134	0.347114
	C5811	C	0.409703	0.254057	0.351509
	C5812	C	0.408978	0.316170	0.347076
	C5813	C	0.408398	0.191471	0.347205
	C5814	C	0.409048	0.189822	0.276073
	C5815	C	0.469259	0.191563	0.276108
	C5816	C	0.469260	0.316326	0.276145
	C5817	C	0.408783	0.314299	0.276068
	C5818	C	0.472347	0.253849	0.289092
	C5819	C	0.449091	0.043742	0.375482
	C5820	C	0.444570	0.043669	0.247960
	C5821	C	0.434195	0.962782	0.248103
	C5822	C	0.449143	0.962947	0.375498
	C5823	C	0.444601	0.962808	0.247969
	N5824	N	0.376347	0.070408	0.311582
	N5825	N	0.376284	0.935725	0.311604
	N5826	N	0.376781	0.435824	0.311565
	N5827	N	0.376753	0.570450	0.311582
	N5828	N	0.439261	0.436052	0.374127
	N5829	N	0.439289	0.570673	0.374123
	N5830	N	0.438405	0.070467	0.374107
	N5831	N	0.438464	0.935896	0.374133
	O5832	O	0.479370	0.695544	0.426720
	O5833	O	0.479284	0.812176	0.426810
	O5834	O	0.398959	0.695726	0.446472
	O5835	O	0.398520	0.812636	0.446473
	O5836	O	0.398286	0.193138	0.446506
	O5837	O	0.398878	0.309980	0.446479
	O5838	O	0.399161	0.695083	0.426801
	O5839	O	0.398600	0.811985	0.426696
	O5840	O	0.398503	0.194111	0.426711
	O5841	O	0.398881	0.311149	0.426751
	O5842	O	0.479025	0.694149	0.446486
	O5843	O	0.479107	0.810938	0.446544
	O5844	O	0.479178	0.195117	0.446548
	O5845	O	0.479072	0.311896	0.446505
	O5846	O	0.479232	0.194363	0.426703
	O5847	O	0.479339	0.311357	0.426690
	O5848	O	0.461424	0.696668	0.383992
	O5849	O	0.416937	0.693709	0.384051
	O5850	O	0.460784	0.693089	0.489183
	O5851	O	0.461175	0.810127	0.489288
	O5852	O	0.416306	0.696115	0.489215
	O5853	O	0.416556	0.812982	0.489225
	O5854	O	0.416232	0.810431	0.383941
	O5855	O	0.460818	0.813370	0.384061
	O5856	O	0.460748	0.193152	0.383988
	O5857	O	0.416172	0.196387	0.383887
	O5858	O	0.461136	0.196250	0.489272
	O5859	O	0.460771	0.313130	0.489223
	O5860	O	0.416396	0.193008	0.489280
	O5861	O	0.416150	0.309997	0.489256
	O5862	O	0.417039	0.313219	0.384080
	O5863	O	0.461560	0.310060	0.383893
	H5864	H	0.405408	0.644434	0.460182
	H5865	H	0.405659	0.864710	0.460089
	H5866	H	0.405658	0.141345	0.460153
	H5867	H	0.405332	0.361535	0.460199
	H5868	H	0.405168	0.863204	0.413017
	H5869	H	0.406219	0.643086	0.413182
	H5870	H	0.406109	0.363090	0.413173
	H5871	H	0.405018	0.142966	0.413006
	H5872	H	0.493370	0.064879	0.434260
	H5873	H	0.491132	0.065120	0.437349
	H5874	H	0.490964	0.941311	0.437369
	H5875	H	0.493265	0.941878	0.434235
	H5876	H	0.505134	0.064839	0.433085
	H5877	H	0.505085	0.941144	0.433094
	H5878	H	0.375641	0.064639	0.436046
	H5879	H	0.375773	0.941757	0.436029
	H5880	H	0.374749	0.064979	0.436367
	H5881	H	0.374814	0.941554	0.436327
	H5882	H	0.375161	0.065258	0.436951
	H5883	H	0.375122	0.941010	0.436958
	H5884	H	0.366950	0.441299	0.434829
	H5885	H	0.366318	0.441223	0.438115
	H5886	H	0.378116	0.441440	0.432775
	H5887	H	0.491226	0.441566	0.433450
	H5888	H	0.506384	0.441376	0.432053
	H5889	H	0.514314	0.441176	0.434978
	H5890	H	0.366443	0.564615	0.438113
	H5891	H	0.367041	0.564665	0.434802
	H5892	H	0.514252	0.564657	0.435038
	H5893	H	0.506405	0.565105	0.432072
	H5894	H	0.491313	0.564940	0.433443
	H5895	H	0.378294	0.564959	0.432794
	H5896	H	0.472231	0.642259	0.460142
	H5897	H	0.472152	0.862250	0.460215
	H5898	H	0.472118	0.143788	0.460211
	H5899	H	0.472123	0.363893	0.460157
	H5900	H	0.410193	0.642465	0.397755
	H5901	H	0.468452	0.645045	0.397634
	H5902	H	0.467972	0.864699	0.397746
	H5903	H	0.408996	0.862437	0.397554
	H5904	H	0.472642	0.644522	0.413055
	H5905	H	0.472100	0.864153	0.413164
	H5906	H	0.468058	0.642019	0.475572
	H5907	H	0.468041	0.862057	0.475646
	H5908	H	0.423021	0.441779	0.371339
	H5909	H	0.440882	0.441419	0.496933
	H5910	H	0.441109	0.441438	0.367727
	H5911	H	0.454043	0.441444	0.370517
	H5912	H	0.432180	0.441223	0.499411
	H5913	H	0.433642	0.440695	0.497578
	H5914	H	0.440858	0.564543	0.496969
	H5915	H	0.423096	0.565214	0.371321
	H5916	H	0.433656	0.564776	0.497551
	H5917	H	0.432162	0.564708	0.499422
	H5918	H	0.454138	0.564859	0.370506
	H5919	H	0.441091	0.565031	0.367718
	H5920	H	0.467910	0.144245	0.475647
	H5921	H	0.467939	0.364383	0.475589
	H5922	H	0.422171	0.064906	0.375725
	H5923	H	0.431390	0.064993	0.379612
	H5924	H	0.428728	0.064732	0.369122
	H5925	H	0.409699	0.864825	0.475535
	H5926	H	0.409442	0.644743	0.475611
	H5927	H	0.409304	0.361366	0.475626
	H5928	H	0.409663	0.141349	0.475619
	H5929	H	0.409111	0.143880	0.397550
	H5930	H	0.467687	0.141471	0.397652
	H5931	H	0.468773	0.361525	0.397531
	H5932	H	0.410231	0.364094	0.397754
	H5933	H	0.472015	0.141945	0.413098
	H5934	H	0.472975	0.362251	0.412963
	H5935	H	0.453191	0.064854	0.501580
	H5936	H	0.453499	0.064919	0.496851
	H5937	H	0.437975	0.064779	0.493523
	H5938	H	0.431393	0.941319	0.379615
	H5939	H	0.422155	0.941229	0.375717
	H5940	H	0.428797	0.941651	0.369142
	H5941	H	0.453208	0.941640	0.501577
	H5942	H	0.453468	0.941178	0.496838
	H5943	H	0.438005	0.941394	0.493479
	Zn5944	Zn	0.376613	0.680401	0.436613
	Zn5945	Zn	0.376154	0.825183	0.436592
	Zn5946	Zn	0.376235	0.180793	0.436576
	Zn5947	Zn	0.376480	0.325500	0.436635
	Zn5948	Zn	0.438297	0.680602	0.499087
	Zn5949	Zn	0.439001	0.825387	0.499148
	Zn5950	Zn	0.439074	0.180777	0.499128
	Zn5951	Zn	0.438393	0.325358	0.499121
	C5952	C	0.476813	0.754043	0.423249
	C5953	C	0.401182	0.754295	0.449974
	C5954	C	0.405482	0.754612	0.459183
	C5955	C	0.406485	0.692371	0.463584
	C5956	C	0.406569	0.816985	0.463538
	C5957	C	0.401123	0.251491	0.449997
	C5958	C	0.405438	0.251396	0.459218
	C5959	C	0.406531	0.189162	0.463594
	C5960	C	0.406337	0.313574	0.463608
	C5961	C	0.401374	0.753414	0.423251
	C5962	C	0.405690	0.753189	0.414045
	C5963	C	0.406348	0.815272	0.409621
	C5964	C	0.406962	0.690765	0.409723
	C5965	C	0.401163	0.252637	0.423234
	C5966	C	0.405604	0.252968	0.414037
	C5967	C	0.406908	0.315513	0.409711
	C5968	C	0.406288	0.190995	0.409607
	C5969	C	0.494656	0.043492	0.436028
	C5970	C	0.494631	0.962841	0.436041
	C5971	C	0.375443	0.043523	0.436287
	C5972	C	0.375510	0.962806	0.436290
	C5973	C	0.375869	0.043551	0.436909
	C5974	C	0.375856	0.962709	0.436900
	C5975	C	0.369286	0.462590	0.436522
	C5976	C	0.492799	0.462840	0.435718
	C5977	C	0.508018	0.462652	0.434321
	C5978	C	0.369308	0.543395	0.436508
	C5979	C	0.508036	0.543620	0.434341
	C5980	C	0.492796	0.543878	0.435731
	C5981	C	0.476568	0.752458	0.450024
	C5982	C	0.476553	0.253622	0.450029
	C5983	C	0.472217	0.752295	0.459233
	C5984	C	0.471216	0.689953	0.463590
	C5985	C	0.471176	0.814438	0.463632
	C5986	C	0.472143	0.253906	0.459239
	C5987	C	0.471112	0.191730	0.463631
	C5988	C	0.471122	0.316224	0.463603
	C5989	C	0.476840	0.252825	0.423196
	C5990	C	0.463678	0.755008	0.387532
	C5991	C	0.414089	0.752175	0.387507
	C5992	C	0.413989	0.754666	0.485712
	C5993	C	0.471444	0.692377	0.409649
	C5994	C	0.471256	0.816616	0.409712
	C5995	C	0.468106	0.754900	0.396727
	C5996	C	0.409773	0.752462	0.396719
	C5997	C	0.409083	0.690410	0.401152
	C5998	C	0.469293	0.692655	0.401076
	C5999	C	0.469058	0.816888	0.401140
	C6000	C	0.408423	0.814873	0.401049
	C6001	C	0.472400	0.754342	0.414053
	C6002	C	0.463449	0.751738	0.485743
	C6003	C	0.469045	0.689823	0.472157
	C6004	C	0.469036	0.814327	0.472199
	C6005	C	0.467979	0.752071	0.476547
	C6006	C	0.441604	0.462627	0.498028
	C6007	C	0.445356	0.462715	0.370429
	C6008	C	0.434339	0.462198	0.498647
	C6009	C	0.441593	0.543258	0.498024
	C6010	C	0.434336	0.543377	0.498651
	C6011	C	0.445387	0.543702	0.370437
	C6012	C	0.463385	0.254699	0.485748
	C6013	C	0.468919	0.191988	0.472204
	C6014	C	0.468930	0.316525	0.472172
	C6015	C	0.467822	0.254405	0.476550
	C6016	C	0.429864	0.043778	0.376724
	C6017	C	0.463678	0.251609	0.387437
	C6018	C	0.414142	0.254596	0.387497
	C6019	C	0.413835	0.251367	0.485759
	C6020	C	0.471084	0.189686	0.409652
	C6021	C	0.471663	0.314243	0.409580
	C6022	C	0.468116	0.251548	0.396654
	C6023	C	0.409760	0.253984	0.396709
	C6024	C	0.409583	0.754819	0.476505
	C6025	C	0.408659	0.817090	0.472113
	C6026	C	0.408557	0.692482	0.472152
	C6027	C	0.409544	0.251264	0.476543
	C6028	C	0.408420	0.313588	0.472183
	C6029	C	0.408605	0.189062	0.472170
	C6030	C	0.408433	0.191465	0.401030
	C6031	C	0.468846	0.189377	0.401071
	C6032	C	0.469449	0.313934	0.401006
	C6033	C	0.409085	0.316030	0.401143
	C6034	C	0.472330	0.252190	0.413995
	C6035	C	0.449604	0.043548	0.499191
	C6036	C	0.436473	0.043685	0.370117
	C6037	C	0.429859	0.962763	0.376727
	C6038	C	0.449597	0.962615	0.499184
	C6039	C	0.436503	0.962872	0.370110
	N6040	N	0.376167	0.070359	0.436574
	N6041	N	0.376218	0.935715	0.436575
	N6042	N	0.376552	0.435669	0.436693
	N6043	N	0.376581	0.570286	0.436675
	N6044	N	0.438480	0.435557	0.499098
	N6045	N	0.438448	0.570162	0.499104
	N6046	N	0.439153	0.070394	0.499122
	N6047	N	0.439112	0.935771	0.499105
	O6048	O	0.478608	0.693498	0.551728
	O6049	O	0.478383	0.810454	0.551737
	O6050	O	0.398471	0.695381	0.571451
	O6051	O	0.398316	0.812222	0.571419
	O6052	O	0.398187	0.193637	0.571477
	O6053	O	0.398621	0.310608	0.571428
	O6054	O	0.398609	0.695775	0.551725
	O6055	O	0.398023	0.812536	0.551722
	O6056	O	0.398226	0.193484	0.551711
	O6057	O	0.398451	0.310112	0.551723
	O6058	O	0.478842	0.693681	0.571523
	O6059	O	0.478629	0.810523	0.571516
	O6060	O	0.478546	0.195078	0.571467
	O6061	O	0.478823	0.311940	0.571515
	O6062	O	0.478368	0.195481	0.551719
	O6063	O	0.478793	0.312366	0.551765
	O6064	O	0.460907	0.693217	0.508940
	O6065	O	0.416395	0.696275	0.508989
	O6066	O	0.460857	0.694362	0.614288
	O6067	O	0.460934	0.811190	0.614237
	O6068	O	0.416324	0.695240	0.614182
	O6069	O	0.416455	0.812102	0.614194
	O6070	O	0.416683	0.813172	0.509018
	O6071	O	0.461278	0.810213	0.508959
	O6072	O	0.461265	0.196159	0.508987
	O6073	O	0.416629	0.193331	0.509012
	O6074	O	0.461009	0.195028	0.614237
	O6075	O	0.460826	0.311941	0.614242
	O6076	O	0.416629	0.194413	0.614186
	O6077	O	0.416350	0.311334	0.614184
	O6078	O	0.416318	0.310085	0.509006
	O6079	O	0.460857	0.313153	0.508988
	H6080	H	0.405354	0.643956	0.585100
	H6081	H	0.405308	0.864165	0.585107
	H6082	H	0.405355	0.142298	0.585133
	H6083	H	0.405398	0.362576	0.585067
	H6084	H	0.404779	0.864697	0.538050
	H6085	H	0.405594	0.644656	0.538081
	H6086	H	0.405680	0.361859	0.538091
	H6087	H	0.405070	0.141631	0.538059
	H6088	H	0.518552	0.065165	0.563509
	H6089	H	0.516411	0.064685	0.557905
	H6090	H	0.516268	0.941243	0.557940
	H6091	H	0.518499	0.941198	0.563542
	H6092	H	0.501582	0.064922	0.568286
	H6093	H	0.501499	0.941461	0.568314
	H6094	H	0.379119	0.064552	0.566003
	H6095	H	0.378972	0.941023	0.565965
	H6096	H	0.387140	0.064786	0.563505
	H6097	H	0.387157	0.941228	0.563509
	H6098	H	0.384472	0.064979	0.558335
	H6099	H	0.384471	0.941391	0.558344
	H6100	H	0.393488	0.441334	0.558125
	H6101	H	0.380074	0.441290	0.554589
	H6102	H	0.391078	0.441332	0.566282
	H6103	H	0.486760	0.441285	0.559115
	H6104	H	0.502742	0.441358	0.555974
	H6105	H	0.514122	0.441459	0.558444
	H6106	H	0.380184	0.564791	0.554593
	H6107	H	0.393692	0.564621	0.558111
	H6108	H	0.514190	0.565019	0.558451
	H6109	H	0.502723	0.565088	0.555988
	H6110	H	0.486719	0.564928	0.559145
	H6111	H	0.391079	0.564739	0.566256
	H6112	H	0.471814	0.642046	0.585195
	H6113	H	0.471941	0.862155	0.585149
	H6114	H	0.471687	0.143386	0.585152
	H6115	H	0.471901	0.363690	0.585185
	H6116	H	0.409852	0.644600	0.522674
	H6117	H	0.468009	0.641355	0.522607
	H6118	H	0.467962	0.861744	0.522597
	H6119	H	0.409066	0.864896	0.522616
	H6120	H	0.471917	0.641525	0.538074
	H6121	H	0.471884	0.861955	0.538033
	H6122	H	0.467844	0.642271	0.600624
	H6123	H	0.467943	0.862501	0.600590
	H6124	H	0.444674	0.441259	0.498366
	H6125	H	0.459446	0.441212	0.623185
	H6126	H	0.442416	0.441157	0.500943
	H6127	H	0.437183	0.441785	0.501369
	H6128	H	0.425535	0.441157	0.618006
	H6129	H	0.443056	0.441286	0.616675
	H6130	H	0.459474	0.564705	0.623213
	H6131	H	0.444586	0.564876	0.498355
	H6132	H	0.443018	0.564415	0.616661
	H6133	H	0.425559	0.564674	0.618002
	H6134	H	0.437209	0.564593	0.501369
	H6135	H	0.442504	0.565108	0.500928
	H6136	H	0.467548	0.143427	0.600582
	H6137	H	0.467802	0.363402	0.600625
	H6138	H	0.426092	0.064899	0.502253
	H6139	H	0.437452	0.064690	0.504719
	H6140	H	0.426449	0.064507	0.495772
	H6141	H	0.409527	0.863921	0.600564
	H6142	H	0.409486	0.643871	0.600541
	H6143	H	0.409629	0.362962	0.600505
	H6144	H	0.409685	0.142581	0.600579
	H6145	H	0.409160	0.141687	0.522606
	H6146	H	0.467765	0.144691	0.522582
	H6147	H	0.468076	0.364753	0.522643
	H6148	H	0.409738	0.361887	0.522654
	H6149	H	0.471677	0.144285	0.538031
	H6150	H	0.472062	0.364307	0.538100
	H6151	H	0.450189	0.065298	0.620162
	H6152	H	0.437742	0.064904	0.618366
	H6153	H	0.423270	0.064822	0.622441
	H6154	H	0.437397	0.941452	0.504696
	H6155	H	0.426150	0.940860	0.502251
	H6156	H	0.426436	0.941158	0.495759
	H6157	H	0.450290	0.941605	0.620162
	H6158	H	0.437877	0.941636	0.618331
	H6159	H	0.423279	0.940970	0.622442
	Zn6160	Zn	0.376306	0.680717	0.561576
	Zn6161	Zn	0.375570	0.825277	0.561605
	Zn6162	Zn	0.375789	0.180474	0.561607
	Zn6163	Zn	0.376123	0.325199	0.561557
	Zn6164	Zn	0.438407	0.680624	0.624103
	Zn6165	Zn	0.438753	0.825347	0.624106
	Zn6166	Zn	0.438633	0.180611	0.624089
	Zn6167	Zn	0.438426	0.325327	0.624103
	C6168	C	0.476106	0.751956	0.548219
	C6169	C	0.400962	0.753914	0.574936
	C6170	C	0.405238	0.754056	0.584154
	C6171	C	0.406312	0.691792	0.588530
	C6172	C	0.406317	0.816273	0.588529
	C6173	C	0.400934	0.252144	0.574950
	C6174	C	0.405254	0.252396	0.584153
	C6175	C	0.406322	0.190166	0.588551
	C6176	C	0.406335	0.314755	0.588513
	C6177	C	0.400823	0.754259	0.548208
	C6178	C	0.405138	0.754627	0.538992
	C6179	C	0.405977	0.816900	0.534615
	C6180	C	0.406444	0.692395	0.534643
	C6181	C	0.400893	0.251783	0.548209
	C6182	C	0.405249	0.251772	0.539027
	C6183	C	0.406498	0.313980	0.534657
	C6184	C	0.406179	0.189530	0.534636
	C6185	C	0.513025	0.043708	0.560951
	C6186	C	0.512981	0.962617	0.560957
	C6187	C	0.381147	0.043275	0.563921
	C6188	C	0.381069	0.962369	0.563921
	C6189	C	0.378455	0.043277	0.558730
	C6190	C	0.378404	0.962481	0.558728
	C6191	C	0.384013	0.462523	0.557719
	C6192	C	0.490371	0.462752	0.561554
	C6193	C	0.506469	0.462648	0.558378
	C6194	C	0.384072	0.543426	0.557720
	C6195	C	0.506470	0.543553	0.558382
	C6196	C	0.490364	0.543694	0.561557
	C6197	C	0.476235	0.752079	0.575023
	C6198	C	0.476156	0.253465	0.574986
	C6199	C	0.472041	0.752111	0.584232
	C6200	C	0.470955	0.689912	0.588617
	C6201	C	0.471020	0.814442	0.588598
	C6202	C	0.471809	0.253507	0.584181
	C6203	C	0.470716	0.191328	0.588559
	C6204	C	0.470839	0.315684	0.588589
	C6205	C	0.476094	0.254109	0.548240
	C6206	C	0.463634	0.751594	0.512441
	C6207	C	0.414034	0.754747	0.512499
	C6208	C	0.413878	0.753715	0.610686
	C6209	C	0.470932	0.689363	0.534623
	C6210	C	0.470898	0.814026	0.534607
	C6211	C	0.467955	0.751563	0.521653
	C6212	C	0.409522	0.754703	0.521676
	C6213	C	0.408632	0.692455	0.526075
	C6214	C	0.468937	0.689261	0.526038
	C6215	C	0.468902	0.813915	0.526029
	C6216	C	0.408215	0.816954	0.526046
	C6217	C	0.471923	0.751745	0.538983
	C6218	C	0.463490	0.752652	0.610766
	C6219	C	0.468837	0.690072	0.597194
	C6220	C	0.468916	0.814588	0.597173
	C6221	C	0.467884	0.752438	0.601558
	C6222	C	0.451831	0.462274	0.625698
	C6223	C	0.439453	0.462729	0.500611
	C6224	C	0.435353	0.462581	0.619121
	C6225	C	0.451892	0.543445	0.625709
	C6226	C	0.435377	0.543370	0.619117
	C6227	C	0.439472	0.543557	0.500600
	C6228	C	0.463444	0.253532	0.610733
	C6229	C	0.468654	0.191223	0.597137
	C6230	C	0.468788	0.315786	0.597165
	C6231	C	0.467732	0.253457	0.601517
	C6232	C	0.433696	0.043487	0.502330
	C6233	C	0.463558	0.254772	0.512490
	C6234	C	0.413878	0.251683	0.512506
	C6235	C	0.414042	0.252818	0.610681
	C6236	C	0.470828	0.192221	0.534617
	C6237	C	0.471007	0.316699	0.534651
	C6238	C	0.467793	0.254760	0.521694
	C6239	C	0.409497	0.251788	0.521709
	C6240	C	0.409513	0.753868	0.601481
	C6241	C	0.408486	0.816211	0.597107
	C6242	C	0.408488	0.691677	0.597106
	C6243	C	0.409568	0.252774	0.601471
	C6244	C	0.408535	0.315018	0.597084
	C6245	C	0.408554	0.190313	0.597123
	C6246	C	0.408336	0.189523	0.526064
	C6247	C	0.468748	0.192341	0.526041
	C6248	C	0.468906	0.316953	0.526077
	C6249	C	0.408640	0.314034	0.526084
	C6250	C	0.471929	0.254393	0.539010
	C6251	C	0.442604	0.043531	0.620547
	C6252	C	0.434052	0.043395	0.495820
	C6253	C	0.433702	0.962557	0.502333
	C6254	C	0.442638	0.962775	0.620533
	C6255	C	0.434035	0.962584	0.495816
	N6256	N	0.375656	0.070181	0.561608
	N6257	N	0.375535	0.935613	0.561601
	N6258	N	0.376185	0.435583	0.561559
	N6259	N	0.376277	0.570249	0.561547
	N6260	N	0.438310	0.435762	0.624118
	N6261	N	0.438335	0.570394	0.624118
	N6262	N	0.438590	0.070214	0.624086
	N6263	N	0.438603	0.935618	0.624100
	O6264	O	0.478976	0.694045	0.676738
	O6265	O	0.478975	0.810791	0.676740
	O6266	O	0.398520	0.695067	0.696467
	O6267	O	0.398108	0.811829	0.696523
	O6268	O	0.398182	0.193914	0.696546
	O6269	O	0.398660	0.310827	0.696458
	O6270	O	0.398669	0.695785	0.676763
	O6271	O	0.398403	0.812623	0.676747
	O6272	O	0.398263	0.193839	0.676732
	O6273	O	0.398712	0.310682	0.676768
	O6274	O	0.479512	0.694106	0.696550
	O6275	O	0.478507	0.810975	0.696371
	O6276	O	0.478854	0.196420	0.696420
	O6277	O	0.479320	0.313333	0.696522
	O6278	O	0.478748	0.195740	0.676803
	O6279	O	0.479103	0.312590	0.676762
	O6280	O	0.460839	0.694268	0.633983
	O6281	O	0.416237	0.695029	0.634013
	O6282	O	0.461290	0.695590	0.739244
	O6283	O	0.460713	0.812305	0.739153
	O6284	O	0.416523	0.693562	0.739212
	O6285	O	0.416216	0.810497	0.739269
	O6286	O	0.416172	0.812032	0.633956
	O6287	O	0.461001	0.811050	0.633976
	O6288	O	0.460786	0.195086	0.634035
	O6289	O	0.416313	0.194069	0.633956
	O6290	O	0.460924	0.194038	0.739178
	O6291	O	0.461146	0.310782	0.739249
	O6292	O	0.416403	0.195306	0.739229
	O6293	O	0.416475	0.312352	0.739208
	O6294	O	0.416190	0.310943	0.633986
	O6295	O	0.460805	0.311984	0.633992
	H6296	H	0.405772	0.643021	0.710081
	H6297	H	0.404967	0.863242	0.710201
	H6298	H	0.404773	0.142792	0.710213
	H6299	H	0.405793	0.362880	0.710045
	H6300	H	0.405277	0.864133	0.663054
	H6301	H	0.405514	0.644106	0.663107
	H6302	H	0.405280	0.362086	0.663087
	H6303	H	0.405323	0.142029	0.663069
	H6304	H	0.504100	0.065178	0.687437
	H6305	H	0.504816	0.065105	0.686327
	H6306	H	0.504728	0.941481	0.686326
	H6307	H	0.504114	0.941675	0.687400
	H6308	H	0.500024	0.065166	0.687880
	H6309	H	0.500223	0.941503	0.687913
	H6310	H	0.383737	0.064948	0.687938
	H6311	H	0.383740	0.941502	0.687946
	H6312	H	0.383610	0.065045	0.685326
	H6313	H	0.383652	0.941471	0.685327
	H6314	H	0.375013	0.064802	0.683622
	H6315	H	0.375055	0.941488	0.683585
	H6316	H	0.372218	0.441096	0.687341
	H6317	H	0.375217	0.440979	0.688191
	H6318	H	0.372942	0.441120	0.685424
	H6319	H	0.504261	0.441626	0.685794
	H6320	H	0.504596	0.441721	0.687266
	H6321	H	0.502095	0.441243	0.687838
	H6322	H	0.375292	0.564713	0.688209
	H6323	H	0.372152	0.564316	0.687331
	H6324	H	0.502055	0.565212	0.687832
	H6325	H	0.504547	0.564707	0.687247
	H6326	H	0.504228	0.565319	0.685811
	H6327	H	0.372916	0.564658	0.685417
	H6328	H	0.473060	0.643091	0.710170
	H6329	H	0.471151	0.863282	0.710041
	H6330	H	0.471524	0.144303	0.709993
	H6331	H	0.472840	0.363933	0.710233
	H6332	H	0.409525	0.643618	0.647663
	H6333	H	0.467789	0.642742	0.647619
	H6334	H	0.467857	0.862697	0.647671
	H6335	H	0.409305	0.864027	0.647615
	H6336	H	0.471852	0.642636	0.663084
	H6337	H	0.471937	0.862659	0.663083
	H6338	H	0.468851	0.643408	0.725614
	H6339	H	0.466990	0.863690	0.725454
	H6340	H	0.453909	0.441053	0.629307
	H6341	H	0.433650	0.441456	0.749967
	H6342	H	0.430006	0.441419	0.631162
	H6343	H	0.418021	0.441069	0.626385
	H6344	H	0.443608	0.441504	0.750306
	H6345	H	0.439329	0.441661	0.751173
	H6346	H	0.433664	0.564860	0.749954
	H6347	H	0.453912	0.564850	0.629336
	H6348	H	0.439365	0.565010	0.751162
	H6349	H	0.443488	0.565234	0.750265
	H6350	H	0.417942	0.564884	0.626389
	H6351	H	0.429987	0.564632	0.631165
	H6352	H	0.467217	0.142965	0.725411
	H6353	H	0.468618	0.362956	0.725667
	H6354	H	0.442299	0.064538	0.629680
	H6355	H	0.452905	0.065117	0.626680
	H6356	H	0.425240	0.064741	0.627211
	H6357	H	0.409092	0.862636	0.725656
	H6358	H	0.410023	0.642508	0.725512
	H6359	H	0.410062	0.363639	0.725477
	H6360	H	0.409026	0.143641	0.725643
	H6361	H	0.409525	0.142278	0.647615
	H6362	H	0.467883	0.143781	0.647687
	H6363	H	0.467705	0.363818	0.647637
	H6364	H	0.409357	0.362345	0.647655
	H6365	H	0.472228	0.144026	0.663095
	H6366	H	0.472056	0.364202	0.663069
	H6367	H	0.448117	0.064803	0.748042
	H6368	H	0.442534	0.064449	0.745804
	H6369	H	0.431248	0.064682	0.746655
	H6370	H	0.452912	0.941427	0.626750
	H6371	H	0.442255	0.941441	0.629742
	H6372	H	0.425168	0.941095	0.627243
	H6373	H	0.448149	0.941245	0.748058
	H6374	H	0.442520	0.941396	0.745776
	H6375	H	0.431235	0.941160	0.746616
	Zn6376	Zn	0.376372	0.680380	0.686600
	Zn6377	Zn	0.375910	0.825679	0.686632
	Zn6378	Zn	0.375898	0.180429	0.686646
	Zn6379	Zn	0.376365	0.325616	0.686623
	Zn6380	Zn	0.438984	0.680910	0.749085
	Zn6381	Zn	0.438528	0.825347	0.749095
	Zn6382	Zn	0.438631	0.180956	0.749082
	Zn6383	Zn	0.438882	0.325607	0.749139
	C6384	C	0.476525	0.752407	0.673229
	C6385	C	0.400773	0.753376	0.700006
	C6386	C	0.405230	0.753175	0.709200
	C6387	C	0.406588	0.690748	0.713543
	C6388	C	0.406080	0.815269	0.713613
	C6389	C	0.400904	0.252493	0.699996
	C6390	C	0.405265	0.252854	0.709201
	C6391	C	0.405948	0.190742	0.713613
	C6392	C	0.406537	0.315337	0.713515
	C6393	C	0.400966	0.754241	0.673239
	C6394	C	0.405234	0.754089	0.664012
	C6395	C	0.406194	0.816285	0.659620
	C6396	C	0.406334	0.691778	0.659646
	C6397	C	0.400988	0.252160	0.673249
	C6398	C	0.405428	0.252027	0.664036
	C6399	C	0.406311	0.314330	0.659662
	C6400	C	0.406360	0.189925	0.659641
	C6401	C	0.503595	0.043766	0.686811
	C6402	C	0.503603	0.962916	0.686809
	C6403	C	0.381606	0.043718	0.686645
	C6404	C	0.381608	0.962728	0.686648
	C6405	C	0.372910	0.043482	0.684899
	C6406	C	0.372946	0.962709	0.684877
	C6407	C	0.374413	0.462346	0.687443
	C6408	C	0.502550	0.462910	0.685851
	C6409	C	0.502866	0.462704	0.687303
	C6410	C	0.374382	0.543421	0.687462
	C6411	C	0.502851	0.543474	0.687299
	C6412	C	0.502525	0.544055	0.685850
	C6413	C	0.476556	0.752761	0.699964
	C6414	C	0.476630	0.254752	0.699976
	C6415	C	0.472180	0.753160	0.709165
	C6416	C	0.471644	0.690986	0.713573
	C6417	C	0.470572	0.815546	0.713494
	C6418	C	0.472183	0.254204	0.709189
	C6419	C	0.470744	0.191733	0.713492
	C6420	C	0.471507	0.316025	0.713628
	C6421	C	0.476500	0.254152	0.673262
	C6422	C	0.463489	0.752621	0.637480
	C6423	C	0.413709	0.753636	0.637478
	C6424	C	0.413882	0.752090	0.735742
	C6425	C	0.470962	0.690374	0.659637
	C6426	C	0.471020	0.814818	0.659653
	C6427	C	0.467843	0.752655	0.646690
	C6428	C	0.409365	0.753781	0.646683
	C6429	C	0.408474	0.691568	0.651069
	C6430	C	0.468817	0.690495	0.651060
	C6431	C	0.468844	0.814874	0.651084
	C6432	C	0.408340	0.816197	0.651043
	C6433	C	0.472120	0.752477	0.664018
	C6434	C	0.463520	0.753912	0.735694
	C6435	C	0.469479	0.691252	0.722150
	C6436	C	0.468438	0.815707	0.722066
	C6437	C	0.467976	0.753672	0.726495
	C6438	C	0.434990	0.462616	0.749112
	C6439	C	0.427760	0.462738	0.627550
	C6440	C	0.440784	0.462759	0.750303
	C6441	C	0.435009	0.543577	0.749095
	C6442	C	0.440746	0.543559	0.750292
	C6443	C	0.427763	0.543448	0.627552
	C6444	C	0.463549	0.252525	0.735709
	C6445	C	0.468536	0.191106	0.722065
	C6446	C	0.469309	0.315337	0.722200
	C6447	C	0.467942	0.252914	0.726520
	C6448	C	0.445210	0.043513	0.627127
	C6449	C	0.463287	0.253625	0.637517
	C6450	C	0.413886	0.252457	0.637486
	C6451	C	0.413950	0.253818	0.735719
	C6452	C	0.471047	0.191864	0.659684
	C6453	C	0.470967	0.316299	0.659661
	C6454	C	0.467710	0.253870	0.646712
	C6455	C	0.409455	0.252325	0.646694
	C6456	C	0.409507	0.752550	0.726534
	C6457	C	0.408260	0.814917	0.722191
	C6458	C	0.408777	0.690448	0.722116
	C6459	C	0.409453	0.253679	0.726516
	C6460	C	0.408712	0.315661	0.722091
	C6461	C	0.408132	0.191205	0.722187
	C6462	C	0.408467	0.190020	0.651061
	C6463	C	0.468829	0.191711	0.651107
	C6464	C	0.468731	0.316148	0.651084
	C6465	C	0.408384	0.314468	0.651084
	C6466	C	0.472036	0.254163	0.664058
	C6467	C	0.443524	0.043380	0.747490
	C6468	C	0.428057	0.043451	0.624651
	C6469	C	0.445235	0.962660	0.627151
	C6470	C	0.443528	0.962574	0.747486
	C6471	C	0.428025	0.962360	0.624651
	N6472	N	0.375888	0.070372	0.686681
	N6473	N	0.375877	0.935835	0.686640
	N6474	N	0.376326	0.435896	0.686548
	N6475	N	0.376319	0.570372	0.686584
	N6476	N	0.438838	0.435788	0.749115
	N6477	N	0.438839	0.570413	0.749088
	N6478	N	0.438523	0.070394	0.749115
	N6479	N	0.438524	0.935692	0.749082
	O6480	O	0.479151	0.694565	0.801665
	O6481	O	0.479145	0.811697	0.801685
	O6482	O	0.398834	0.695254	0.821459
	O6483	O	0.398335	0.812132	0.821506
	O6484	O	0.398249	0.193598	0.821521
	O6485	O	0.398985	0.310334	0.821434
	O6486	O	0.398928	0.694896	0.801796
	O6487	O	0.398473	0.811780	0.801709
	O6488	O	0.398640	0.193983	0.801762
	O6489	O	0.398621	0.310880	0.801752
	O6490	O	0.478809	0.694219	0.821433
	O6491	O	0.479051	0.811267	0.821446
	O6492	O	0.479130	0.194554	0.821477
	O6493	O	0.479074	0.311441	0.821479
	O6494	O	0.478975	0.194775	0.801709
	O6495	O	0.479231	0.311858	0.801673
	O6496	O	0.461257	0.695225	0.758924
	O6497	O	0.416676	0.693911	0.759014
	O6498	O	0.461475	0.694359	0.864219
	O6499	O	0.461504	0.811225	0.864224
	O6500	O	0.416912	0.694632	0.864206
	O6501	O	0.416961	0.811575	0.864217
	O6502	O	0.416369	0.810882	0.758980
	O6503	O	0.460990	0.812217	0.758946
	O6504	O	0.460724	0.193955	0.759037
	O6505	O	0.416117	0.195587	0.758941
	O6506	O	0.461585	0.194544	0.864244
	O6507	O	0.461678	0.311610	0.864241
	O6508	O	0.416785	0.194523	0.864261
	O6509	O	0.416912	0.311436	0.864213
	O6510	O	0.416828	0.312418	0.759070
	O6511	O	0.461420	0.310658	0.758910
	H6512	H	0.406015	0.643619	0.835098
	H6513	H	0.405223	0.864056	0.835155
	H6514	H	0.405309	0.142067	0.835171
	H6515	H	0.405805	0.362466	0.835127
	H6516	H	0.405402	0.863393	0.788027
	H6517	H	0.405781	0.642865	0.788128
	H6518	H	0.405514	0.362723	0.788159
	H6519	H	0.405196	0.142332	0.788055
	H6520	H	0.500208	0.064847	0.810322
	H6521	H	0.497879	0.065162	0.811020
	H6522	H	0.497919	0.941311	0.811034
	H6523	H	0.500265	0.941339	0.810327
	H6524	H	0.504234	0.065017	0.810848
	H6525	H	0.504116	0.941412	0.810848
	H6526	H	0.376760	0.064813	0.814476
	H6527	H	0.376803	0.941397	0.814485
	H6528	H	0.382702	0.064673	0.813308
	H6529	H	0.382611	0.941169	0.813275
	H6530	H	0.382831	0.064656	0.809961
	H6531	H	0.382650	0.940436	0.809973
	H6532	H	0.388436	0.440960	0.812550
	H6533	H	0.386248	0.441131	0.808949
	H6534	H	0.378107	0.441510	0.815992
	H6535	H	0.505131	0.441784	0.811889
	H6536	H	0.501749	0.441836	0.813004
	H6537	H	0.498540	0.441800	0.812674
	H6538	H	0.386177	0.564479	0.808892
	H6539	H	0.388590	0.564728	0.812515
	H6540	H	0.498579	0.565220	0.812648
	H6541	H	0.501910	0.565040	0.812982
	H6542	H	0.505194	0.564750	0.811865
	H6543	H	0.378279	0.564973	0.815975
	H6544	H	0.472223	0.642746	0.835130
	H6545	H	0.471887	0.863016	0.835080
	H6546	H	0.472514	0.142704	0.835150
	H6547	H	0.472048	0.363082	0.835129
	H6548	H	0.409869	0.642543	0.772695
	H6549	H	0.467913	0.643462	0.772570
	H6550	H	0.468101	0.863548	0.772603
	H6551	H	0.409495	0.862863	0.772600
	H6552	H	0.472063	0.643103	0.788013
	H6553	H	0.472226	0.863210	0.788072
	H6554	H	0.468301	0.642740	0.850578
	H6555	H	0.467938	0.863051	0.850532
	H6556	H	0.433593	0.441230	0.748265
	H6557	H	0.423515	0.441610	0.865375
	H6558	H	0.439331	0.440967	0.747040
	H6559	H	0.443553	0.441070	0.747917
	H6560	H	0.426293	0.441273	0.883374
	H6561	H	0.411215	0.441384	0.876518
	H6562	H	0.423397	0.565130	0.865409
	H6563	H	0.433661	0.565156	0.748186
	H6564	H	0.411110	0.564917	0.876495
	H6565	H	0.426193	0.564793	0.883367
	H6566	H	0.443600	0.564407	0.747906
	H6567	H	0.439387	0.564705	0.747029
	H6568	H	0.468584	0.142702	0.850603
	H6569	H	0.468107	0.363032	0.850579
	H6570	H	0.436191	0.064296	0.752577
	H6571	H	0.444443	0.064857	0.751988
	H6572	H	0.428553	0.064578	0.749514
	H6573	H	0.409447	0.863985	0.850592
	H6574	H	0.410177	0.643482	0.850530
	H6575	H	0.409948	0.362700	0.850540
	H6576	H	0.409486	0.142442	0.850619
	H6577	H	0.409356	0.143078	0.772627
	H6578	H	0.467305	0.142989	0.772691
	H6579	H	0.468955	0.362953	0.772576
	H6580	H	0.409715	0.363292	0.772726
	H6581	H	0.471460	0.143174	0.788125
	H6582	H	0.473037	0.363236	0.787999
	H6583	H	0.442184	0.064206	0.867136
	H6584	H	0.426623	0.064535	0.868831
	H6585	H	0.421254	0.065171	0.876646
	H6586	H	0.444434	0.941153	0.751977
	H6587	H	0.436184	0.941053	0.752563
	H6588	H	0.428608	0.940975	0.749491
	H6589	H	0.442296	0.940950	0.867202
	H6590	H	0.426521	0.941246	0.868843
	H6591	H	0.421241	0.941530	0.876694
	Zn6592	Zn	0.376472	0.680400	0.811624
	Zn6593	Zn	0.376092	0.825430	0.811617
	Zn6594	Zn	0.376121	0.180527	0.811626
	Zn6595	Zn	0.376471	0.325729	0.811609
	Zn6596	Zn	0.439143	0.680591	0.874084
	Zn6597	Zn	0.439254	0.825392	0.874090
	Zn6598	Zn	0.439233	0.180555	0.874106
	Zn6599	Zn	0.439307	0.325427	0.874059
	C6600	C	0.476637	0.753170	0.798184
	C6601	C	0.401058	0.753657	0.824987
	C6602	C	0.405535	0.753714	0.834199
	C6603	C	0.406855	0.691411	0.838549
	C6604	C	0.406398	0.816207	0.838584
	C6605	C	0.401136	0.252046	0.824990
	C6606	C	0.405540	0.252329	0.834192
	C6607	C	0.406406	0.190053	0.838587
	C6608	C	0.406729	0.314644	0.838560
	C6609	C	0.401202	0.753230	0.798247
	C6610	C	0.405556	0.753052	0.789038
	C6611	C	0.406492	0.815350	0.784625
	C6612	C	0.406707	0.690615	0.784685
	C6613	C	0.401092	0.252398	0.798252
	C6614	C	0.405447	0.252603	0.789057
	C6615	C	0.406530	0.315026	0.784707
	C6616	C	0.406352	0.190421	0.784660
	C6617	C	0.499623	0.043714	0.810900
	C6618	C	0.499643	0.962688	0.810916
	C6619	C	0.378775	0.043260	0.813306
	C6620	C	0.378770	0.962530	0.813283
	C6621	C	0.378869	0.043323	0.809940
	C6622	C	0.378877	0.962302	0.809950
	C6623	C	0.384490	0.462474	0.810980
	C6624	C	0.503876	0.462877	0.811369
	C6625	C	0.500441	0.462936	0.812512
	C6626	C	0.384509	0.543277	0.810961
	C6627	C	0.500476	0.543786	0.812497
	C6628	C	0.503885	0.543706	0.811350
	C6629	C	0.476477	0.752745	0.824937
	C6630	C	0.476623	0.252977	0.824979
	C6631	C	0.472179	0.752749	0.834159
	C6632	C	0.471201	0.690525	0.838554
	C6633	C	0.471033	0.815154	0.838519
	C6634	C	0.472335	0.252950	0.834193
	C6635	C	0.471500	0.190564	0.838575
	C6636	C	0.471230	0.315252	0.838568
	C6637	C	0.476576	0.253297	0.798207
	C6638	C	0.463599	0.753742	0.762430
	C6639	C	0.414072	0.752413	0.762501
	C6640	C	0.414418	0.753163	0.860723
	C6641	C	0.471216	0.690911	0.784582
	C6642	C	0.471323	0.815598	0.784609
	C6643	C	0.468117	0.753589	0.771638
	C6644	C	0.409703	0.752611	0.771711
	C6645	C	0.408782	0.690436	0.776110
	C6646	C	0.469053	0.691154	0.776003
	C6647	C	0.469169	0.815735	0.776026
	C6648	C	0.408601	0.815096	0.776049
	C6649	C	0.472338	0.753237	0.788966
	C6650	C	0.463957	0.752809	0.860711
	C6651	C	0.469153	0.690567	0.847130
	C6652	C	0.468951	0.815209	0.847100
	C6653	C	0.468191	0.752877	0.851496
	C6654	C	0.436511	0.462760	0.867205
	C6655	C	0.440744	0.462582	0.747898
	C6656	C	0.424131	0.462795	0.878401
	C6657	C	0.436488	0.543536	0.867192
	C6658	C	0.424112	0.543787	0.878394
	C6659	C	0.440760	0.543371	0.747910
	C6660	C	0.464014	0.253033	0.860737
	C6661	C	0.469415	0.190534	0.847151
	C6662	C	0.469167	0.315216	0.847145
	C6663	C	0.468317	0.252886	0.851516
	C6664	C	0.439880	0.043344	0.751432
	C6665	C	0.463590	0.252449	0.762487
	C6666	C	0.413971	0.253824	0.762514
	C6667	C	0.414330	0.252925	0.860740
	C6668	C	0.470757	0.190932	0.784664
	C6669	C	0.471651	0.315407	0.784601
	C6670	C	0.467984	0.252860	0.771681
	C6671	C	0.409706	0.253273	0.771736
	C6672	C	0.409916	0.753523	0.851519
	C6673	C	0.408663	0.816044	0.847158
	C6674	C	0.409068	0.691369	0.847119
	C6675	C	0.409890	0.252588	0.851524
	C6676	C	0.408924	0.314770	0.847131
	C6677	C	0.408627	0.190200	0.847163
	C6678	C	0.408511	0.190818	0.776086
	C6679	C	0.468585	0.190769	0.776093
	C6680	C	0.469501	0.315174	0.776033
	C6681	C	0.408717	0.315330	0.776137
	C6682	C	0.472165	0.253211	0.789000
	C6683	C	0.435707	0.043326	0.869597
	C6684	C	0.432163	0.043348	0.748340
	C6685	C	0.439846	0.962491	0.751428
	C6686	C	0.435724	0.962574	0.869607
	C6687	C	0.432163	0.962258	0.748320
	N6688	N	0.376140	0.070248	0.811589
	N6689	N	0.376171	0.935589	0.811590
	N6690	N	0.376496	0.435608	0.811620
	N6691	N	0.376554	0.570144	0.811603
	N6692	N	0.439355	0.435872	0.874086
	N6693	N	0.439301	0.570376	0.874067
	N6694	N	0.439392	0.070484	0.874101
	N6695	N	0.439392	0.935869	0.874112
	O6696	O	0.479066	0.694122	0.926722
	O6697	O	0.478962	0.810964	0.926718
	O6698	O	0.399039	0.693988	0.946484
	O6699	O	0.399412	0.810880	0.946470
	O6700	O	0.399319	0.195455	0.946501
	O6701	O	0.398908	0.312149	0.946541
	O6702	O	0.398837	0.694054	0.926691
	O6703	O	0.399374	0.811019	0.926736
	O6704	O	0.399179	0.196094	0.926676
	O6705	O	0.398895	0.312838	0.926681
	O6706	O	0.479041	0.694634	0.946530
	O6707	O	0.478831	0.811550	0.946480
	O6708	O	0.478719	0.194901	0.946462
	O6709	O	0.478891	0.311666	0.946501
	O6710	O	0.478929	0.195057	0.926765
	O6711	O	0.479136	0.311880	0.926706
	O6712	O	0.461544	0.694324	0.883950
	O6713	O	0.416829	0.694708	0.883958
	O6714	O	0.461509	0.695031	0.989269
	O6715	O	0.461470	0.811669	0.989270
	O6716	O	0.416687	0.694182	0.989267
	O6717	O	0.416790	0.811082	0.989220
	O6718	O	0.416915	0.811561	0.883982
	O6719	O	0.461515	0.811235	0.883960
	O6720	O	0.461330	0.194690	0.883988
	O6721	O	0.416971	0.195265	0.883937
	O6722	O	0.461260	0.194391	0.989228
	O6723	O	0.461501	0.311103	0.989254
	O6724	O	0.416598	0.195425	0.989282
	O6725	O	0.416816	0.312148	0.989260
	O6726	O	0.416794	0.311877	0.883895
	O6727	O	0.461562	0.311595	0.883967
	H6728	H	0.405210	0.642232	0.960159
	H6729	H	0.406234	0.862177	0.960123
	H6730	H	0.405867	0.143994	0.960182
	H6731	H	0.405827	0.363794	0.960177
	H6732	H	0.406254	0.862624	0.913104
	H6733	H	0.405410	0.642544	0.912994
	H6734	H	0.405212	0.364287	0.912990
	H6735	H	0.406216	0.144144	0.913062
	H6736	H	0.506700	0.065003	0.939595
	H6737	H	0.511103	0.064785	0.936992
	H6738	H	0.511003	0.941277	0.936987
	H6739	H	0.506618	0.941396	0.939605
	H6740	H	0.495201	0.064965	0.939557
	H6741	H	0.495150	0.941650	0.939511
	H6742	H	0.371524	0.064708	0.934023
	H6743	H	0.371535	0.941221	0.934015
	H6744	H	0.368049	0.064620	0.936502
	H6745	H	0.368093	0.941696	0.936482
	H6746	H	0.373848	0.064926	0.939629
	H6747	H	0.373868	0.940981	0.939579
	H6748	H	0.374025	0.441537	0.940998
	H6749	H	0.384418	0.441272	0.940176
	H6750	H	0.364300	0.441578	0.937173
	H6751	H	0.499654	0.441263	0.940508
	H6752	H	0.490601	0.441076	0.937380
	H6753	H	0.492845	0.441906	0.934203
	H6754	H	0.384379	0.565141	0.940197
	H6755	H	0.374127	0.564943	0.940990
	H6756	H	0.492969	0.564688	0.934189
	H6757	H	0.490629	0.564970	0.937363
	H6758	H	0.499583	0.565078	0.940515
	H6759	H	0.364368	0.564588	0.937173
	H6760	H	0.471880	0.642961	0.960151
	H6761	H	0.472738	0.862816	0.960162
	H6762	H	0.472192	0.143058	0.960165
	H6763	H	0.471868	0.363130	0.960194
	H6764	H	0.409539	0.642921	0.897554
	H6765	H	0.468097	0.642432	0.897590
	H6766	H	0.468110	0.862629	0.897634
	H6767	H	0.410415	0.862911	0.897677
	H6768	H	0.472088	0.642113	0.913050
	H6769	H	0.472151	0.862432	0.913065
	H6770	H	0.467859	0.643160	0.975585
	H6771	H	0.468751	0.863036	0.975614
	H6772	H	0.447553	0.441567	0.864112
	H6773	H	0.431076	0.441036	0.999420
	H6774	H	0.468273	0.441395	0.873504
	H6775	H	0.459289	0.441062	0.881620
	H6776	H	0.443952	0.441217	1.001489
	H6777	H	0.437122	0.441048	1.001942
	H6778	H	0.430979	0.564663	0.999362
	H6779	H	0.447541	0.564892	0.864101
	H6780	H	0.437138	0.565073	1.001970
	H6781	H	0.443927	0.564819	1.001493
	H6782	H	0.459269	0.565004	0.881608
	H6783	H	0.468132	0.565015	0.873481
	H6784	H	0.468210	0.142953	0.975605
	H6785	H	0.467919	0.362874	0.975621
	H6786	H	0.454579	0.065100	0.878452
	H6787	H	0.458504	0.064971	0.872750
	H6788	H	0.433063	0.064653	0.880737
	H6789	H	0.410131	0.862404	0.975569
	H6790	H	0.409116	0.642244	0.975622
	H6791	H	0.409809	0.363671	0.975633
	H6792	H	0.409847	0.143879	0.975606
	H6793	H	0.410240	0.143899	0.897599
	H6794	H	0.468181	0.143019	0.897643
	H6795	H	0.468478	0.363282	0.897599
	H6796	H	0.409303	0.364005	0.897554
	H6797	H	0.472146	0.143212	0.913085
	H6798	H	0.472446	0.363419	0.913053
	H6799	H	0.449725	0.064747	0.998216
	H6800	H	0.443958	0.064954	0.995607
	H6801	H	0.431584	0.065375	0.996239
	H6802	H	0.458439	0.941190	0.872755
	H6803	H	0.454593	0.941455	0.878451
	H6804	H	0.433233	0.941451	0.880715
	H6805	H	0.449749	0.941557	0.998194
	H6806	H	0.443989	0.941379	0.995573
	H6807	H	0.431443	0.941319	0.996223
	Zn6808	Zn	0.376777	0.680470	0.936637
	Zn6809	Zn	0.377078	0.825371	0.936600
	Zn6810	Zn	0.377161	0.180535	0.936586
	Zn6811	Zn	0.376630	0.325501	0.936635
	Zn6812	Zn	0.439089	0.680685	0.999133
	Zn6813	Zn	0.438892	0.825560	0.999099
	Zn6814	Zn	0.438997	0.180905	0.999110
	Zn6815	Zn	0.439078	0.325504	0.999124
	C6816	C	0.476552	0.752481	0.923209
	C6817	C	0.401583	0.752381	0.949990
	C6818	C	0.405920	0.752194	0.959194
	C6819	C	0.406491	0.689963	0.963584
	C6820	C	0.407048	0.814447	0.963565
	C6821	C	0.401564	0.253785	0.950038
	C6822	C	0.405928	0.253895	0.959232
	C6823	C	0.406875	0.191740	0.963606
	C6824	C	0.406850	0.316058	0.963611
	C6825	C	0.401551	0.752508	0.923216
	C6826	C	0.405878	0.752493	0.914002
	C6827	C	0.407061	0.814820	0.909657
	C6828	C	0.406590	0.690395	0.909588
	C6829	C	0.401550	0.254563	0.923176
	C6830	C	0.405762	0.254314	0.913964
	C6831	C	0.406475	0.316413	0.909566
	C6832	C	0.406996	0.191954	0.909603
	C6833	C	0.506807	0.043727	0.937848
	C6834	C	0.506765	0.962780	0.937847
	C6835	C	0.371732	0.043240	0.935596
	C6836	C	0.371700	0.962678	0.935604
	C6837	C	0.377556	0.043470	0.938757
	C6838	C	0.377515	0.962340	0.938745
	C6839	C	0.378587	0.462622	0.939545
	C6840	C	0.503226	0.462659	0.939162
	C6841	C	0.494236	0.462833	0.936018
	C6842	C	0.378576	0.543624	0.939555
	C6843	C	0.494267	0.543590	0.936020
	C6844	C	0.503261	0.543471	0.939172
	C6845	C	0.476522	0.753145	0.950008
	C6846	C	0.476354	0.253221	0.949994
	C6847	C	0.472203	0.753097	0.959216
	C6848	C	0.471034	0.690838	0.963593
	C6849	C	0.471496	0.815204	0.963600
	C6850	C	0.472059	0.253056	0.959214
	C6851	C	0.471173	0.190823	0.963595
	C6852	C	0.471030	0.315240	0.963608
	C6853	C	0.476502	0.253412	0.923234
	C6854	C	0.463933	0.752741	0.887456
	C6855	C	0.414443	0.753092	0.887481
	C6856	C	0.414251	0.752545	0.985741
	C6857	C	0.471155	0.689979	0.909616
	C6858	C	0.471171	0.814587	0.909625
	C6859	C	0.468175	0.752455	0.896663
	C6860	C	0.409954	0.752980	0.896677
	C6861	C	0.408708	0.690601	0.901015
	C6862	C	0.469082	0.690122	0.901036
	C6863	C	0.469099	0.814655	0.901050
	C6864	C	0.409159	0.815063	0.901085
	C6865	C	0.472215	0.752253	0.913993
	C6866	C	0.463929	0.753371	0.985756
	C6867	C	0.468974	0.690950	0.972168
	C6868	C	0.469454	0.815255	0.972175
	C6869	C	0.468209	0.753238	0.976546
	C6870	C	0.433965	0.462637	0.998461
	C6871	C	0.457306	0.462611	0.876648
	C6872	C	0.440176	0.462574	1.001036
	C6873	C	0.433969	0.543334	0.998453
	C6874	C	0.440174	0.543549	1.001042
	C6875	C	0.457274	0.543580	0.876654
	C6876	C	0.463796	0.252705	0.985740
	C6877	C	0.469082	0.190639	0.972171
	C6878	C	0.468945	0.315125	0.972181
	C6879	C	0.468046	0.252821	0.976538
	C6880	C	0.452042	0.043572	0.875212
	C6881	C	0.463897	0.253165	0.887477
	C6882	C	0.414337	0.253673	0.887428
	C6883	C	0.414237	0.253756	0.985760
	C6884	C	0.471247	0.190993	0.909644
	C6885	C	0.471438	0.315564	0.909618
	C6886	C	0.468240	0.253215	0.896678
	C6887	C	0.409959	0.253868	0.896636
	C6888	C	0.409866	0.752319	0.976533
	C6889	C	0.409108	0.814552	0.972144
	C6890	C	0.408578	0.689990	0.972167
	C6891	C	0.409951	0.253781	0.976559
	C6892	C	0.408910	0.316001	0.972187
	C6893	C	0.408943	0.191685	0.972177
	C6894	C	0.409111	0.191753	0.901028
	C6895	C	0.469187	0.190938	0.901064
	C6896	C	0.469355	0.315531	0.901042
	C6897	C	0.408606	0.316167	0.900999
	C6898	C	0.472275	0.253294	0.914009
	C6899	C	0.444795	0.043473	0.997487
	C6900	C	0.430366	0.043672	0.877478
	C6901	C	0.451980	0.962661	0.875215
	C6902	C	0.444795	0.962771	0.997470
	C6903	C	0.430402	0.962777	0.877489
	N6904	N	0.377223	0.070451	0.936583
	N6905	N	0.377191	0.935817	0.936564
	N6906	N	0.376777	0.435525	0.936609
	N6907	N	0.376790	0.570075	0.936612
	N6908	N	0.439136	0.435850	0.999101
	N6909	N	0.439160	0.570431	0.999101
	N6910	N	0.439029	0.070413	0.999115
	N6911	N	0.439004	0.935768	0.999090
	O6912	O	0.603875	0.694233	0.051817
	O6913	O	0.604207	0.811168	0.051729
	O6914	O	0.523579	0.694426	0.071391
	O6915	O	0.523266	0.811191	0.071481
	O6916	O	0.523468	0.194914	0.071495
	O6917	O	0.523545	0.311771	0.071433
	O6918	O	0.523230	0.694939	0.051696
	O6919	O	0.523569	0.811722	0.051835
	O6920	O	0.523572	0.194698	0.051758
	O6921	O	0.523215	0.311403	0.051647
	O6922	O	0.604229	0.694471	0.071582
	O6923	O	0.603987	0.811291	0.071508
	O6924	O	0.603932	0.195207	0.071472
	O6925	O	0.604310	0.311856	0.071555
	O6926	O	0.604137	0.195402	0.051711
	O6927	O	0.604019	0.312353	0.051821
	O6928	O	0.585655	0.692486	0.009078
	O6929	O	0.540967	0.696813	0.008933
	O6930	O	0.585958	0.695685	0.114246
	O6931	O	0.585521	0.812473	0.114248
	O6932	O	0.541377	0.693242	0.114148
	O6933	O	0.540875	0.810111	0.114239
	O6934	O	0.542065	0.813598	0.009078
	O6935	O	0.586794	0.809408	0.008933
	O6936	O	0.586556	0.196876	0.009004
	O6937	O	0.542086	0.193155	0.009007
	O6938	O	0.585680	0.193874	0.114248
	O6939	O	0.585824	0.310768	0.114236
	O6940	O	0.540784	0.195900	0.114242
	O6941	O	0.541184	0.312818	0.114205
	O6942	O	0.541236	0.309822	0.008928
	O6943	O	0.585756	0.313704	0.009047
	H6944	H	0.531223	0.642349	0.085022
	H6945	H	0.529856	0.862341	0.085149
	H6946	H	0.530116	0.143848	0.085167
	H6947	H	0.530765	0.363904	0.085086
	H6948	H	0.531372	0.864090	0.038207
	H6949	H	0.529644	0.644162	0.038001
	H6950	H	0.529592	0.362420	0.037966
	H6951	H	0.531156	0.142491	0.038167
	H6952	H	0.639200	0.064840	0.064560
	H6953	H	0.640775	0.065034	0.059976
	H6954	H	0.640758	0.941396	0.059978
	H6955	H	0.639192	0.941591	0.064539
	H6956	H	0.622947	0.064269	0.066993
	H6957	H	0.623112	0.941047	0.066997
	H6958	H	0.515387	0.065452	0.058236
	H6959	H	0.515400	0.941348	0.058201
	H6960	H	0.503025	0.064985	0.055483
	H6961	H	0.502903	0.941540	0.055479
	H6962	H	0.485425	0.064507	0.058889
	H6963	H	0.485490	0.941756	0.058876
	H6964	H	0.497163	0.441509	0.062793
	H6965	H	0.501138	0.441555	0.063444
	H6966	H	0.496424	0.441489	0.060675
	H6967	H	0.616144	0.441351	0.055943
	H6968	H	0.637935	0.441403	0.056223
	H6969	H	0.645562	0.441788	0.061264
	H6970	H	0.501175	0.565309	0.063406
	H6971	H	0.497157	0.564766	0.062799
	H6972	H	0.645437	0.564907	0.061264
	H6973	H	0.638011	0.565030	0.056212
	H6974	H	0.616129	0.565317	0.055971
	H6975	H	0.496481	0.564424	0.060698
	H6976	H	0.597556	0.643344	0.085227
	H6977	H	0.596227	0.863299	0.085112
	H6978	H	0.596410	0.143005	0.085092
	H6979	H	0.597492	0.363199	0.085259
	H6980	H	0.533767	0.644899	0.022571
	H6981	H	0.592063	0.641585	0.022757
	H6982	H	0.594126	0.861356	0.022546
	H6983	H	0.535595	0.864841	0.022791
	H6984	H	0.596160	0.642024	0.038208
	H6985	H	0.598223	0.862336	0.037993
	H6986	H	0.593182	0.644004	0.100646
	H6987	H	0.591906	0.863905	0.100534
	H6988	H	0.558217	0.441855	-0.007972
	H6989	H	0.565257	0.441589	0.112757
	H6990	H	0.580333	0.441794	-0.005082
	H6991	H	0.583269	0.441418	0.000993
	H6992	H	0.535259	0.441180	0.129214
	H6993	H	0.534420	0.441390	0.119662
	H6994	H	0.565391	0.564974	0.112762
	H6995	H	0.558227	0.564687	-0.007959
	H6996	H	0.534345	0.564878	0.119663
	H6997	H	0.535262	0.564958	0.129207
	H6998	H	0.583329	0.565639	0.001038
	H6999	H	0.580386	0.564928	-0.005050
	H7000	H	0.592247	0.142331	0.100538
	H7001	H	0.593267	0.362524	0.100674
	H7002	H	0.567822	0.065111	0.004412
	H7003	H	0.577795	0.065089	0.001621
	H7004	H	0.551893	0.064732	0.002093
	H7005	H	0.533988	0.862111	0.100580
	H7006	H	0.535364	0.641989	0.100466
	H7007	H	0.534886	0.364145	0.100534
	H7008	H	0.534207	0.144125	0.100594
	H7009	H	0.535589	0.141800	0.022745
	H7010	H	0.593617	0.144947	0.022603
	H7011	H	0.592244	0.365087	0.022778
	H7012	H	0.533899	0.361823	0.022553
	H7013	H	0.597658	0.144299	0.038039
	H7014	H	0.596249	0.364524	0.038214
	H7015	H	0.558693	0.064651	0.118871
	H7016	H	0.549125	0.064865	0.121880
	H7017	H	0.552463	0.064943	0.128006
	H7018	H	0.577741	0.941044	0.001606
	H7019	H	0.567902	0.941040	0.004435
	H7020	H	0.551760	0.941537	0.002097
	H7021	H	0.558607	0.941370	0.118867
	H7022	H	0.549106	0.941408	0.121913
	H7023	H	0.552519	0.941779	0.128028
	Zn7024	Zn	0.500925	0.681126	0.061574
	Zn7025	Zn	0.501054	0.825741	0.061606
	Zn7026	Zn	0.501110	0.181097	0.061659
	Zn7027	Zn	0.501086	0.325566	0.061560
	Zn7028	Zn	0.563607	0.680990	0.124116
	Zn7029	Zn	0.562956	0.825484	0.124100
	Zn7030	Zn	0.563032	0.180702	0.124134
	Zn7031	Zn	0.563580	0.325441	0.124102
	C7032	C	0.601581	0.752557	0.048277
	C7033	C	0.525925	0.752680	0.074940
	C7034	C	0.530486	0.752308	0.084140
	C7035	C	0.531871	0.690029	0.088487
	C7036	C	0.531151	0.814423	0.088547
	C7037	C	0.525982	0.253468	0.074972
	C7038	C	0.530445	0.253824	0.084169
	C7039	C	0.531266	0.191664	0.088569
	C7040	C	0.531676	0.316098	0.088535
	C7041	C	0.525889	0.753539	0.048261
	C7042	C	0.530467	0.754068	0.039066
	C7043	C	0.532004	0.816441	0.034747
	C7044	C	0.531023	0.692064	0.034625
	C7045	C	0.525847	0.252851	0.048189
	C7046	C	0.530270	0.252502	0.039013
	C7047	C	0.530957	0.314462	0.034589
	C7048	C	0.531839	0.190159	0.034699
	C7049	C	0.636387	0.043520	0.062083
	C7050	C	0.636378	0.962700	0.062089
	C7051	C	0.507052	0.043910	0.058120
	C7052	C	0.507018	0.962747	0.058117
	C7053	C	0.489405	0.043679	0.061549
	C7054	C	0.489449	0.962850	0.061538
	C7055	C	0.499634	0.462738	0.062699
	C7056	C	0.615791	0.462497	0.059239
	C7057	C	0.637767	0.462912	0.059492
	C7058	C	0.499631	0.543678	0.062700
	C7059	C	0.637702	0.543614	0.059519
	C7060	C	0.615752	0.543593	0.059246
	C7061	C	0.601554	0.752967	0.075035
	C7062	C	0.601548	0.253445	0.075023
	C7063	C	0.596943	0.753283	0.084206
	C7064	C	0.596226	0.691327	0.088617
	C7065	C	0.595580	0.815610	0.088556
	C7066	C	0.597048	0.253089	0.084226
	C7067	C	0.595692	0.190672	0.088562
	C7068	C	0.596292	0.315176	0.088647
	C7069	C	0.601560	0.254084	0.048268
	C7070	C	0.588601	0.751003	0.012521
	C7071	C	0.539058	0.755138	0.012514
	C7072	C	0.538751	0.751750	0.110677
	C7073	C	0.595568	0.689742	0.034757
	C7074	C	0.596719	0.814293	0.034634
	C7075	C	0.592999	0.751402	0.021748
	C7076	C	0.534640	0.754843	0.021727
	C7077	C	0.533162	0.692439	0.026050
	C7078	C	0.593408	0.689351	0.026180
	C7079	C	0.594557	0.813906	0.026055
	C7080	C	0.534182	0.816871	0.026174
	C7081	C	0.597063	0.752229	0.039088
	C7082	C	0.588207	0.754138	0.110729
	C7083	C	0.594023	0.691617	0.097180
	C7084	C	0.593350	0.816042	0.097123
	C7085	C	0.592677	0.753935	0.101526
	C7086	C	0.573457	0.462671	0.117417
	C7087	C	0.577006	0.462865	-0.001722
	C7088	C	0.542379	0.462727	0.124356
	C7089	C	0.573505	0.543560	0.117415
	C7090	C	0.542398	0.543699	0.124353
	C7091	C	0.576992	0.543973	-0.001702
	C7092	C	0.588233	0.252256	0.110738
	C7093	C	0.593467	0.190328	0.097137
	C7094	C	0.594041	0.314838	0.097218
	C7095	C	0.592704	0.252377	0.101548
	C7096	C	0.570612	0.043672	0.001997
	C7097	C	0.588633	0.255382	0.012534
	C7098	C	0.539112	0.251512	0.012474
	C7099	C	0.538594	0.254359	0.110715
	C7100	C	0.596441	0.192334	0.034652
	C7101	C	0.595725	0.316792	0.034748
	C7102	C	0.593002	0.255154	0.021744
	C7103	C	0.534688	0.251781	0.021688
	C7104	C	0.534550	0.751969	0.101477
	C7105	C	0.533266	0.814341	0.097124
	C7106	C	0.533983	0.689852	0.097063
	C7107	C	0.534460	0.254196	0.101498
	C7108	C	0.533763	0.316320	0.097111
	C7109	C	0.533360	0.191840	0.097143
	C7110	C	0.534122	0.189817	0.026126
	C7111	C	0.594330	0.192642	0.026078
	C7112	C	0.593549	0.317194	0.026175
	C7113	C	0.533229	0.314095	0.026023
	C7114	C	0.597118	0.254418	0.039074
	C7115	C	0.556294	0.043428	0.121367
	C7116	C	0.554510	0.043664	-0.000330
	C7117	C	0.570612	0.962479	0.002003
	C7118	C	0.556247	0.962627	0.121368
	C7119	C	0.554488	0.962764	-0.000315
	N7120	N	0.501029	0.070648	0.061651
	N7121	N	0.500989	0.936008	0.061625
	N7122	N	0.501020	0.435942	0.061573
	N7123	N	0.500995	0.570614	0.061583
	N7124	N	0.563453	0.435880	0.124103
	N7125	N	0.563473	0.570501	0.124105
	N7126	N	0.562942	0.070329	0.124061
	N7127	N	0.562894	0.935729	0.124067
	O7128	O	0.603813	0.694649	0.176683
	O7129	O	0.603543	0.811408	0.176760
	O7130	O	0.523802	0.695704	0.196569
	O7131	O	0.523719	0.812674	0.196535
	O7132	O	0.523666	0.193817	0.196516
	O7133	O	0.523732	0.310928	0.196527
	O7134	O	0.523985	0.695098	0.176821
	O7135	O	0.523624	0.811888	0.176771
	O7136	O	0.523634	0.194652	0.176770
	O7137	O	0.523967	0.311605	0.176783
	O7138	O	0.603551	0.694260	0.196466
	O7139	O	0.603480	0.811167	0.196506
	O7140	O	0.603582	0.195051	0.196523
	O7141	O	0.603613	0.311731	0.196491
	O7142	O	0.603486	0.194668	0.176764
	O7143	O	0.603802	0.311576	0.176689
	O7144	O	0.586197	0.695841	0.133902
	O7145	O	0.541436	0.693849	0.134045
	O7146	O	0.586054	0.693341	0.239247
	O7147	O	0.586656	0.810227	0.239262
	O7148	O	0.541303	0.696532	0.239325
	O7149	O	0.541806	0.813279	0.239299
	O7150	O	0.540694	0.810605	0.133971
	O7151	O	0.585422	0.812664	0.134044
	O7152	O	0.585329	0.193572	0.134059
	O7153	O	0.540674	0.196051	0.133952
	O7154	O	0.586599	0.196069	0.239342
	O7155	O	0.585950	0.313044	0.239205
	O7156	O	0.541988	0.193350	0.239261
	O7157	O	0.541314	0.310037	0.239361
	O7158	O	0.541484	0.312918	0.134075
	O7159	O	0.586391	0.310469	0.133890
	H7160	H	0.530322	0.644507	0.210227
	H7161	H	0.530651	0.864826	0.210163
	H7162	H	0.530876	0.142087	0.210152
	H7163	H	0.530249	0.362192	0.210223
	H7164	H	0.530170	0.863501	0.163037
	H7165	H	0.531142	0.643115	0.163215
	H7166	H	0.531533	0.363214	0.163200
	H7167	H	0.529632	0.143188	0.163017
	H7168	H	0.653329	0.064996	0.188209
	H7169	H	0.647004	0.064461	0.180132
	H7170	H	0.647074	0.941279	0.180142
	H7171	H	0.653381	0.941119	0.188253
	H7172	H	0.630903	0.065002	0.196479
	H7173	H	0.630842	0.941322	0.196492
	H7174	H	0.518148	0.065105	0.187391
	H7175	H	0.518197	0.941415	0.187349
	H7176	H	0.513840	0.064710	0.182513
	H7177	H	0.513752	0.941439	0.182519
	H7178	H	0.494669	0.064576	0.181050
	H7179	H	0.494708	0.941198	0.181082
	H7180	H	0.507831	0.441099	0.186613
	H7181	H	0.505490	0.441013	0.184893
	H7182	H	0.503882	0.441694	0.188748
	H7183	H	0.625697	0.440990	0.186325
	H7184	H	0.626693	0.440964	0.186443
	H7185	H	0.626809	0.441127	0.186704
	H7186	H	0.505348	0.564709	0.184921
	H7187	H	0.507784	0.564493	0.186615
	H7188	H	0.626766	0.564712	0.186698
	H7189	H	0.626571	0.564335	0.186443
	H7190	H	0.625620	0.564327	0.186339
	H7191	H	0.503916	0.565205	0.188757
	H7192	H	0.596856	0.642186	0.210152
	H7193	H	0.597120	0.862395	0.210197
	H7194	H	0.597239	0.143450	0.210228
	H7195	H	0.596534	0.363602	0.210090
	H7196	H	0.535010	0.642395	0.147771
	H7197	H	0.593638	0.644127	0.147496
	H7198	H	0.591889	0.864112	0.147735
	H7199	H	0.534065	0.862582	0.147611
	H7200	H	0.597486	0.643551	0.162950
	H7201	H	0.595854	0.863288	0.163176
	H7202	H	0.592921	0.641833	0.225586
	H7203	H	0.593248	0.862037	0.225657
	H7204	H	0.588762	0.441359	0.117257
	H7205	H	0.543244	0.441414	0.243951
	H7206	H	0.589921	0.441318	0.130329
	H7207	H	0.567332	0.441388	0.135403
	H7208	H	0.561343	0.441214	0.258128
	H7209	H	0.543054	0.441776	0.254277
	H7210	H	0.543251	0.565044	0.243952
	H7211	H	0.588771	0.565130	0.117323
	H7212	H	0.543080	0.564722	0.254322
	H7213	H	0.561288	0.564882	0.258149
	H7214	H	0.567308	0.564984	0.135387
	H7215	H	0.589918	0.564883	0.130355
	H7216	H	0.593221	0.143973	0.225669
	H7217	H	0.592494	0.364107	0.225536
	H7218	H	0.577642	0.064839	0.125340
	H7219	H	0.575154	0.064870	0.120868
	H7220	H	0.564655	0.065135	0.129458
	H7221	H	0.534767	0.864990	0.225626
	H7222	H	0.534373	0.644879	0.225668
	H7223	H	0.534387	0.361854	0.225674
	H7224	H	0.535046	0.141772	0.225602
	H7225	H	0.533535	0.143858	0.147567
	H7226	H	0.591672	0.142525	0.147708
	H7227	H	0.593761	0.362695	0.147551
	H7228	H	0.535460	0.363795	0.147764
	H7229	H	0.595829	0.142810	0.163140
	H7230	H	0.597921	0.363128	0.163001
	H7231	H	0.576027	0.065204	0.249784
	H7232	H	0.573187	0.065187	0.246373
	H7233	H	0.560112	0.064957	0.245247
	H7234	H	0.575178	0.941231	0.120823
	H7235	H	0.577614	0.940890	0.125321
	H7236	H	0.564588	0.941410	0.129444
	H7237	H	0.576091	0.941568	0.249754
	H7238	H	0.573173	0.941507	0.246373
	H7239	H	0.560057	0.941581	0.245265
	Zn7240	Zn	0.501714	0.680833	0.186664
	Zn7241	Zn	0.501297	0.825821	0.186650
	Zn7242	Zn	0.501369	0.180465	0.186628
	Zn7243	Zn	0.501638	0.325755	0.186643
	Zn7244	Zn	0.563738	0.680801	0.249158
	Zn7245	Zn	0.564422	0.825672	0.249164
	Zn7246	Zn	0.564376	0.180777	0.249152
	Zn7247	Zn	0.563733	0.325557	0.249157
	C7248	C	0.601183	0.753117	0.173206
	C7249	C	0.526262	0.754321	0.200046
	C7250	C	0.530521	0.754638	0.209254
	C7251	C	0.531407	0.692389	0.213637
	C7252	C	0.531573	0.817056	0.213612
	C7253	C	0.526172	0.252345	0.200008
	C7254	C	0.530527	0.252193	0.209224
	C7255	C	0.531736	0.189867	0.213594
	C7256	C	0.531384	0.314251	0.213635
	C7257	C	0.526278	0.753436	0.173291
	C7258	C	0.530631	0.753247	0.164092
	C7259	C	0.531292	0.815356	0.159662
	C7260	C	0.531869	0.690813	0.159757
	C7261	C	0.526286	0.253080	0.173278
	C7262	C	0.530591	0.253184	0.164060
	C7263	C	0.532080	0.315497	0.159734
	C7264	C	0.531000	0.191125	0.159625
	C7265	C	0.643731	0.043371	0.184824
	C7266	C	0.643774	0.962548	0.184833
	C7267	C	0.512165	0.043424	0.185404
	C7268	C	0.512100	0.962573	0.185389
	C7269	C	0.492938	0.043549	0.183935
	C7270	C	0.492958	0.962636	0.183927
	C7271	C	0.505277	0.462631	0.185997
	C7272	C	0.625510	0.462494	0.186478
	C7273	C	0.626490	0.462456	0.186603
	C7274	C	0.505289	0.543498	0.186009
	C7275	C	0.626474	0.543335	0.186591
	C7276	C	0.625472	0.543181	0.186476
	C7277	C	0.601136	0.752594	0.199996
	C7278	C	0.601225	0.253482	0.200017
	C7279	C	0.596984	0.752272	0.209219
	C7280	C	0.595920	0.689947	0.213589
	C7281	C	0.596067	0.814478	0.213616
	C7282	C	0.596950	0.253583	0.209215
	C7283	C	0.596128	0.191428	0.213634
	C7284	C	0.595717	0.315951	0.213550
	C7285	C	0.601250	0.253036	0.173218
	C7286	C	0.588331	0.754153	0.137474
	C7287	C	0.538701	0.752203	0.137534
	C7288	C	0.539075	0.754959	0.235803
	C7289	C	0.596250	0.691397	0.159554
	C7290	C	0.595313	0.815713	0.159694
	C7291	C	0.592638	0.754128	0.146674
	C7292	C	0.534560	0.752365	0.146761
	C7293	C	0.533883	0.690388	0.151180
	C7294	C	0.594135	0.691741	0.150980
	C7295	C	0.593201	0.816067	0.151118
	C7296	C	0.533326	0.814927	0.151084
	C7297	C	0.596791	0.753342	0.163997
	C7298	C	0.588843	0.751725	0.235753
	C7299	C	0.593870	0.689699	0.222163
	C7300	C	0.594026	0.814335	0.222193
	C7301	C	0.592988	0.751932	0.226539
	C7302	C	0.555421	0.462636	0.243913
	C7303	C	0.574648	0.462749	0.130573
	C7304	C	0.555241	0.462802	0.254359
	C7305	C	0.555368	0.543803	0.243934
	C7306	C	0.555217	0.543445	0.254380
	C7307	C	0.574651	0.543583	0.130568
	C7308	C	0.588763	0.254390	0.235770
	C7309	C	0.594069	0.191691	0.222211
	C7310	C	0.593625	0.316243	0.222125
	C7311	C	0.592971	0.254115	0.226540
	C7312	C	0.572878	0.043536	0.123367
	C7313	C	0.588350	0.252193	0.137473
	C7314	C	0.538661	0.254394	0.137525
	C7315	C	0.539090	0.251756	0.235792
	C7316	C	0.595367	0.190554	0.159673
	C7317	C	0.596516	0.315217	0.159586
	C7318	C	0.592779	0.252618	0.146679
	C7319	C	0.534444	0.254009	0.146728
	C7320	C	0.534662	0.754887	0.226583
	C7321	C	0.533694	0.817143	0.222192
	C7322	C	0.533493	0.692584	0.222217
	C7323	C	0.534695	0.251862	0.226574
	C7324	C	0.533498	0.314129	0.222217
	C7325	C	0.533863	0.189656	0.222177
	C7326	C	0.532997	0.191570	0.151048
	C7327	C	0.593169	0.190441	0.151103
	C7328	C	0.594361	0.314970	0.151009
	C7329	C	0.534070	0.315904	0.151159
	C7330	C	0.596927	0.252984	0.164002
	C7331	C	0.571925	0.043867	0.248370
	C7332	C	0.559701	0.043788	0.127524
	C7333	C	0.572826	0.962481	0.123348
	C7334	C	0.571950	0.962944	0.248356
	C7335	C	0.559700	0.962888	0.127524
	N7336	N	0.501360	0.070443	0.186656
	N7337	N	0.501370	0.935971	0.186632
	N7338	N	0.501582	0.436000	0.186693
	N7339	N	0.501588	0.570593	0.186707
	N7340	N	0.563683	0.435831	0.249156
	N7341	N	0.563683	0.570452	0.249171
	N7342	N	0.564399	0.070563	0.249170
	N7343	N	0.564459	0.935961	0.249156
	O7344	O	0.603998	0.694673	0.301834
	O7345	O	0.604274	0.811560	0.301740
	O7346	O	0.523851	0.694361	0.321494
	O7347	O	0.523721	0.811195	0.321467
	O7348	O	0.523773	0.195112	0.321489
	O7349	O	0.523686	0.312007	0.321539
	O7350	O	0.523488	0.694790	0.301678
	O7351	O	0.524074	0.811655	0.301786
	O7352	O	0.523723	0.194844	0.301791
	O7353	O	0.523574	0.311648	0.301779
	O7354	O	0.603949	0.695304	0.321534
	O7355	O	0.604175	0.812311	0.321550
	O7356	O	0.604245	0.193882	0.321555
	O7357	O	0.603891	0.310775	0.321519
	O7358	O	0.604162	0.194390	0.301736
	O7359	O	0.603913	0.311225	0.301831
	O7360	O	0.586133	0.693470	0.259093
	O7361	O	0.541412	0.695921	0.259014
	O7362	O	0.585912	0.694748	0.364293
	O7363	O	0.585687	0.811626	0.364282
	O7364	O	0.541398	0.694321	0.364218
	O7365	O	0.541094	0.811367	0.364263
	O7366	O	0.541959	0.812736	0.259028
	O7367	O	0.586556	0.810601	0.259039
	O7368	O	0.586580	0.195930	0.259003
	O7369	O	0.541949	0.193474	0.259075
	O7370	O	0.585975	0.194586	0.364311
	O7371	O	0.585921	0.311345	0.364293
	O7372	O	0.541240	0.194859	0.364279
	O7373	O	0.541227	0.311825	0.364279
	O7374	O	0.541741	0.310480	0.259055
	O7375	O	0.586184	0.313061	0.259048
	H7376	H	0.530561	0.642655	0.335139
	H7377	H	0.530845	0.862989	0.335133
	H7378	H	0.530479	0.143109	0.335202
	H7379	H	0.530482	0.363753	0.335197
	H7380	H	0.530744	0.863882	0.288135
	H7381	H	0.530362	0.643701	0.288042
	H7382	H	0.530273	0.362891	0.288037
	H7383	H	0.530935	0.142551	0.288173
	H7384	H	0.627061	0.065255	0.316857
	H7385	H	0.637949	0.064727	0.314855
	H7386	H	0.637990	0.941238	0.314842
	H7387	H	0.627142	0.941402	0.316890
	H7388	H	0.612951	0.065039	0.313624
	H7389	H	0.612907	0.941111	0.313634
	H7390	H	0.511520	0.064905	0.307094
	H7391	H	0.511535	0.941580	0.307101
	H7392	H	0.498250	0.065191	0.305915
	H7393	H	0.498240	0.941180	0.305907
	H7394	H	0.485243	0.065206	0.310739
	H7395	H	0.485243	0.941639	0.310739
	H7396	H	0.521706	0.441559	0.306795
	H7397	H	0.504286	0.441561	0.302948
	H7398	H	0.521066	0.441426	0.316841
	H7399	H	0.627605	0.441188	0.312607
	H7400	H	0.624244	0.441166	0.312458
	H7401	H	0.623249	0.441111	0.311625
	H7402	H	0.504119	0.565573	0.302926
	H7403	H	0.521873	0.564496	0.306745
	H7404	H	0.623181	0.564313	0.311647
	H7405	H	0.624241	0.564404	0.312481
	H7406	H	0.627643	0.564956	0.312618
	H7407	H	0.520944	0.564977	0.316893
	H7408	H	0.596990	0.643828	0.335164
	H7409	H	0.597281	0.863637	0.335252
	H7410	H	0.597447	0.142458	0.335214
	H7411	H	0.596718	0.362668	0.335172
	H7412	H	0.534482	0.644355	0.272612
	H7413	H	0.592868	0.642281	0.272764
	H7414	H	0.593591	0.862282	0.272638
	H7415	H	0.534883	0.864203	0.272698
	H7416	H	0.596835	0.642715	0.288227
	H7417	H	0.597519	0.862850	0.288074
	H7418	H	0.592896	0.643238	0.350588
	H7419	H	0.593027	0.863378	0.350690
	H7420	H	0.561663	0.441450	0.240157
	H7421	H	0.561813	0.441236	0.376407
	H7422	H	0.586546	0.441738	0.245414
	H7423	H	0.586409	0.441433	0.253007
	H7424	H	0.569496	0.441148	0.373539
	H7425	H	0.568706	0.441370	0.375454
	H7426	H	0.561788	0.564713	0.376455
	H7427	H	0.561563	0.565284	0.240202
	H7428	H	0.568772	0.564922	0.375476
	H7429	H	0.569522	0.564941	0.373558
	H7430	H	0.586410	0.565328	0.253024
	H7431	H	0.586528	0.565047	0.245430
	H7432	H	0.593212	0.142692	0.350665
	H7433	H	0.592391	0.362942	0.350584
	H7434	H	0.557219	0.064972	0.252489
	H7435	H	0.566818	0.064799	0.253292
	H7436	H	0.553285	0.064680	0.247846
	H7437	H	0.534766	0.862892	0.350581
	H7438	H	0.534479	0.642708	0.350566
	H7439	H	0.534504	0.363503	0.350650
	H7440	H	0.534430	0.143138	0.350622
	H7441	H	0.535216	0.142064	0.272752
	H7442	H	0.593427	0.143896	0.272601
	H7443	H	0.592783	0.364246	0.272752
	H7444	H	0.534587	0.362082	0.272613
	H7445	H	0.597480	0.143195	0.288056
	H7446	H	0.596938	0.363659	0.288187
	H7447	H	0.556929	0.065063	0.378645
	H7448	H	0.568730	0.065251	0.378784
	H7449	H	0.577272	0.064417	0.373866
	H7450	H	0.566757	0.941396	0.253286
	H7451	H	0.557103	0.941177	0.252463
	H7452	H	0.553364	0.941535	0.247817
	H7453	H	0.556878	0.941398	0.378669
	H7454	H	0.568641	0.941251	0.378798
	H7455	H	0.577355	0.941490	0.373889
	Zn7456	Zn	0.501358	0.680726	0.311667
	Zn7457	Zn	0.501425	0.825741	0.311615
	Zn7458	Zn	0.501491	0.180578	0.311638
	Zn7459	Zn	0.501432	0.325746	0.311652
	Zn7460	Zn	0.563492	0.680922	0.374189
	Zn7461	Zn	0.563406	0.825556	0.374141
	Zn7462	Zn	0.563435	0.180783	0.374173
	Zn7463	Zn	0.563446	0.325596	0.374156
	C7464	C	0.601625	0.752985	0.298289
	C7465	C	0.526286	0.752839	0.324988
	C7466	C	0.530563	0.752883	0.334205
	C7467	C	0.531534	0.690527	0.338568
	C7468	C	0.531691	0.815193	0.338572
	C7469	C	0.526226	0.253480	0.325017
	C7470	C	0.530498	0.253452	0.334235
	C7471	C	0.531403	0.191145	0.338621
	C7472	C	0.531432	0.315771	0.338621
	C7473	C	0.526230	0.753336	0.298240
	C7474	C	0.530423	0.753761	0.289027
	C7475	C	0.531649	0.816148	0.284688
	C7476	C	0.531414	0.691633	0.284635
	C7477	C	0.526146	0.253207	0.298278
	C7478	C	0.530623	0.252862	0.289084
	C7479	C	0.531502	0.314877	0.284659
	C7480	C	0.531870	0.190350	0.284735
	C7481	C	0.630916	0.043526	0.314756
	C7482	C	0.630910	0.962667	0.314757
	C7483	C	0.503951	0.043689	0.307855
	C7484	C	0.503936	0.962725	0.307846
	C7485	C	0.490895	0.043619	0.312717
	C7486	C	0.490879	0.962857	0.312702
	C7487	C	0.509922	0.462962	0.306633
	C7488	C	0.627813	0.462771	0.312111
	C7489	C	0.624390	0.462494	0.311935
	C7490	C	0.509922	0.543721	0.306641
	C7491	C	0.624373	0.543250	0.311955
	C7492	C	0.627822	0.543464	0.312110
	C7493	C	0.601534	0.753860	0.325036
	C7494	C	0.601561	0.252351	0.325037
	C7495	C	0.597142	0.753753	0.334264
	C7496	C	0.596059	0.691360	0.338618
	C7497	C	0.596197	0.815839	0.338677
	C7498	C	0.597168	0.252491	0.334250
	C7499	C	0.596314	0.190308	0.338643
	C7500	C	0.595873	0.314848	0.338613
	C7501	C	0.601576	0.252974	0.298282
	C7502	C	0.588830	0.752043	0.262560
	C7503	C	0.539136	0.754387	0.262522
	C7504	C	0.538797	0.752846	0.360744
	C7505	C	0.596074	0.690421	0.284765
	C7506	C	0.596454	0.814947	0.284677
	C7507	C	0.593212	0.752282	0.271780
	C7508	C	0.534720	0.754312	0.271726
	C7509	C	0.533568	0.691933	0.276066
	C7510	C	0.593958	0.690111	0.276189
	C7511	C	0.594323	0.814709	0.276109
	C7512	C	0.533826	0.816489	0.276120
	C7513	C	0.597310	0.752805	0.289092
	C7514	C	0.588339	0.753180	0.360792
	C7515	C	0.593843	0.691116	0.347190
	C7516	C	0.593968	0.815682	0.347251
	C7517	C	0.592881	0.753275	0.351599
	C7518	C	0.560657	0.462638	0.375387
	C7519	C	0.580511	0.462926	0.249202
	C7520	C	0.567586	0.462751	0.374414
	C7521	C	0.560621	0.543542	0.375398
	C7522	C	0.567591	0.543645	0.374424
	C7523	C	0.580497	0.543794	0.249213
	C7524	C	0.588463	0.252943	0.360796
	C7525	C	0.594105	0.190455	0.347219
	C7526	C	0.593678	0.314995	0.347188
	C7527	C	0.592859	0.252794	0.351586
	C7528	C	0.562621	0.043610	0.251906
	C7529	C	0.588859	0.254490	0.262526
	C7530	C	0.539300	0.251942	0.262557
	C7531	C	0.538836	0.253342	0.360773
	C7532	C	0.596376	0.191178	0.284655
	C7533	C	0.596057	0.315888	0.284736
	C7534	C	0.593167	0.254130	0.271742
	C7535	C	0.534899	0.252100	0.271765
	C7536	C	0.534577	0.752811	0.351533
	C7537	C	0.533711	0.815129	0.347147
	C7538	C	0.533563	0.690502	0.347143
	C7539	C	0.534530	0.253387	0.351566
	C7540	C	0.533493	0.315795	0.347202
	C7541	C	0.533478	0.191035	0.347195
	C7542	C	0.534038	0.189907	0.276163
	C7543	C	0.594295	0.191563	0.276074
	C7544	C	0.593970	0.316253	0.276158
	C7545	C	0.533681	0.314521	0.276090
	C7546	C	0.597211	0.253338	0.289076
	C7547	C	0.562938	0.043699	0.377522
	C7548	C	0.558707	0.043578	0.247247
	C7549	C	0.562634	0.962608	0.251907
	C7550	C	0.562903	0.962606	0.377535
	C7551	C	0.558756	0.962801	0.247233
	N7552	N	0.501383	0.070423	0.311643
	N7553	N	0.501338	0.935862	0.311632
	N7554	N	0.501401	0.436036	0.311671
	N7555	N	0.501420	0.570612	0.311660
	N7556	N	0.563358	0.435924	0.374192
	N7557	N	0.563349	0.570520	0.374200
	N7558	N	0.563301	0.070381	0.374162
	N7559	N	0.563280	0.935787	0.374165
	O7560	O	0.604094	0.694224	0.426734
	O7561	O	0.603902	0.811023	0.426766
	O7562	O	0.523865	0.694497	0.446535
	O7563	O	0.523564	0.811450	0.446613
	O7564	O	0.523618	0.194781	0.446566
	O7565	O	0.523824	0.311637	0.446549
	O7566	O	0.523925	0.694826	0.426826
	O7567	O	0.523909	0.811611	0.426842
	O7568	O	0.523913	0.194753	0.426849
	O7569	O	0.524053	0.311453	0.426812
	O7570	O	0.604072	0.694476	0.446598
	O7571	O	0.603819	0.811299	0.446485
	O7572	O	0.603672	0.195155	0.446461
	O7573	O	0.604003	0.311922	0.446485
	O7574	O	0.604066	0.195758	0.426714
	O7575	O	0.604101	0.312724	0.426708
	O7576	O	0.585829	0.694416	0.384029
	O7577	O	0.541133	0.694710	0.384042
	O7578	O	0.586618	0.695369	0.489292
	O7579	O	0.586018	0.812091	0.489236
	O7580	O	0.541832	0.693868	0.489290
	O7581	O	0.541475	0.810496	0.489286
	O7582	O	0.541421	0.811619	0.384076
	O7583	O	0.585936	0.811368	0.384011
	O7584	O	0.585833	0.195035	0.383987
	O7585	O	0.541225	0.194657	0.384044
	O7586	O	0.585807	0.193435	0.489190
	O7587	O	0.586452	0.310329	0.489289
	O7588	O	0.541329	0.195701	0.489320
	O7589	O	0.541720	0.312603	0.489308
	O7590	O	0.541267	0.311545	0.384045
	O7591	O	0.585768	0.311826	0.384030
	H7592	H	0.531098	0.642641	0.460138
	H7593	H	0.530079	0.862717	0.460239
	H7594	H	0.530194	0.143571	0.460251
	H7595	H	0.530795	0.363679	0.460212
	H7596	H	0.530553	0.863382	0.413132
	H7597	H	0.530856	0.643374	0.413167
	H7598	H	0.531093	0.362907	0.413147
	H7599	H	0.530653	0.142701	0.413160
	H7600	H	0.645165	0.064930	0.436302
	H7601	H	0.637836	0.065156	0.431195
	H7602	H	0.637842	0.941332	0.431202
	H7603	H	0.645245	0.941482	0.436325
	H7604	H	0.633318	0.065087	0.442949
	H7605	H	0.633302	0.941548	0.442957
	H7606	H	0.499805	0.065174	0.440414
	H7607	H	0.499769	0.941312	0.440422
	H7608	H	0.508372	0.064993	0.439575
	H7609	H	0.508345	0.941633	0.439610
	H7610	H	0.511385	0.064907	0.435334
	H7611	H	0.511476	0.941242	0.435345
	H7612	H	0.499027	0.441608	0.441413
	H7613	H	0.510022	0.441648	0.440383
	H7614	H	0.488083	0.441518	0.437371
	H7615	H	0.630764	0.441686	0.435651
	H7616	H	0.630492	0.441520	0.437773
	H7617	H	0.626698	0.441771	0.438481
	H7618	H	0.510115	0.564860	0.440388
	H7619	H	0.499027	0.564653	0.441422
	H7620	H	0.626734	0.564833	0.438515
	H7621	H	0.630610	0.564849	0.437773
	H7622	H	0.630696	0.564803	0.435636
	H7623	H	0.488118	0.565043	0.437385
	H7624	H	0.597723	0.643156	0.460239
	H7625	H	0.596665	0.863537	0.460089
	H7626	H	0.596519	0.142938	0.460071
	H7627	H	0.597574	0.362887	0.460186
	H7628	H	0.534784	0.643307	0.397731
	H7629	H	0.593077	0.642957	0.397628
	H7630	H	0.592687	0.863211	0.397692
	H7631	H	0.534503	0.863353	0.397684
	H7632	H	0.597359	0.642769	0.413061
	H7633	H	0.596974	0.862928	0.413116
	H7634	H	0.593685	0.643768	0.475650
	H7635	H	0.592539	0.863825	0.475543
	H7636	H	0.557627	0.441353	0.375217
	H7637	H	0.567806	0.441460	0.501899
	H7638	H	0.558686	0.441952	0.372585
	H7639	H	0.563732	0.441583	0.371895
	H7640	H	0.569059	0.441514	0.496683
	H7641	H	0.572637	0.441065	0.498871
	H7642	H	0.567845	0.564795	0.501907
	H7643	H	0.557589	0.564598	0.375237
	H7644	H	0.572641	0.564943	0.498877
	H7645	H	0.569047	0.565151	0.496699
	H7646	H	0.563675	0.565306	0.371922
	H7647	H	0.558672	0.565184	0.372586
	H7648	H	0.592479	0.142537	0.475513
	H7649	H	0.593452	0.362310	0.475622
	H7650	H	0.555584	0.065233	0.369955
	H7651	H	0.549328	0.065003	0.373536
	H7652	H	0.571753	0.064550	0.370146
	H7653	H	0.534262	0.862430	0.475656
	H7654	H	0.535313	0.642340	0.475573
	H7655	H	0.534885	0.363929	0.475644
	H7656	H	0.534136	0.143865	0.475711
	H7657	H	0.534466	0.142740	0.397723
	H7658	H	0.592685	0.143394	0.397686
	H7659	H	0.593071	0.363559	0.397621
	H7660	H	0.534931	0.362892	0.397715
	H7661	H	0.597057	0.143903	0.413100
	H7662	H	0.597442	0.363970	0.413039
	H7663	H	0.578603	0.064994	0.500568
	H7664	H	0.576415	0.064513	0.495996
	H7665	H	0.559843	0.064691	0.493810
	H7666	H	0.549289	0.941498	0.373520
	H7667	H	0.555552	0.941255	0.369926
	H7668	H	0.571802	0.941497	0.370126
	H7669	H	0.578557	0.941072	0.500562
	H7670	H	0.576368	0.941492	0.495985
	H7671	H	0.559864	0.941439	0.493800
	Zn7672	Zn	0.501433	0.680659	0.436621
	Zn7673	Zn	0.501490	0.825551	0.436701
	Zn7674	Zn	0.501423	0.180612	0.436659
	Zn7675	Zn	0.501476	0.325661	0.436623
	Zn7676	Zn	0.564255	0.680802	0.499163
	Zn7677	Zn	0.563715	0.825486	0.499106
	Zn7678	Zn	0.563743	0.180918	0.499135
	Zn7679	Zn	0.564160	0.325599	0.499169
	C7680	C	0.601522	0.752627	0.423234
	C7681	C	0.526211	0.752839	0.450059
	C7682	C	0.530657	0.752718	0.459248
	C7683	C	0.531938	0.690375	0.463595
	C7684	C	0.531396	0.814866	0.463641
	C7685	C	0.526137	0.253208	0.450064
	C7686	C	0.530524	0.253506	0.459278
	C7687	C	0.531303	0.191386	0.463670
	C7688	C	0.531710	0.315861	0.463646
	C7689	C	0.526420	0.753252	0.423320
	C7690	C	0.530655	0.753398	0.414094
	C7691	C	0.531580	0.815626	0.409704
	C7692	C	0.531702	0.691135	0.409723
	C7693	C	0.526444	0.252983	0.423320
	C7694	C	0.530740	0.252770	0.414105
	C7695	C	0.531793	0.315031	0.409722
	C7696	C	0.531563	0.190541	0.409735
	C7697	C	0.637403	0.043791	0.434512
	C7698	C	0.637468	0.962687	0.434506
	C7699	C	0.503399	0.043748	0.439125
	C7700	C	0.503414	0.962779	0.439148
	C7701	C	0.506487	0.043650	0.434868
	C7702	C	0.506512	0.962686	0.434870
	C7703	C	0.503770	0.462839	0.439768
	C7704	C	0.628246	0.462908	0.435609
	C7705	C	0.628015	0.462693	0.437732
	C7706	C	0.503751	0.543551	0.439767
	C7707	C	0.628044	0.543452	0.437750
	C7708	C	0.628197	0.543721	0.435610
	C7709	C	0.601492	0.753052	0.450031
	C7710	C	0.601417	0.253515	0.449981
	C7711	C	0.597009	0.753343	0.459214
	C7712	C	0.596389	0.691183	0.463617
	C7713	C	0.595808	0.815798	0.463538
	C7714	C	0.596951	0.253003	0.459179
	C7715	C	0.595695	0.190563	0.463524
	C7716	C	0.596304	0.315052	0.463584
	C7717	C	0.601636	0.254217	0.423212
	C7718	C	0.588391	0.752929	0.387502
	C7719	C	0.538882	0.753148	0.387561
	C7720	C	0.539230	0.752113	0.485766
	C7721	C	0.596172	0.690575	0.409631
	C7722	C	0.595973	0.815220	0.409674
	C7723	C	0.592880	0.753089	0.396703
	C7724	C	0.534571	0.753310	0.396757
	C7725	C	0.533729	0.691115	0.401148
	C7726	C	0.593989	0.690794	0.401059
	C7727	C	0.593790	0.815328	0.401099
	C7728	C	0.533604	0.815553	0.401123
	C7729	C	0.597132	0.752792	0.414023
	C7730	C	0.588727	0.753744	0.485739
	C7731	C	0.594274	0.691478	0.472184
	C7732	C	0.593688	0.815980	0.472116
	C7733	C	0.592949	0.753832	0.476521
	C7734	C	0.564241	0.462721	0.501192
	C7735	C	0.561763	0.462861	0.372758
	C7736	C	0.569104	0.462557	0.498139
	C7737	C	0.564266	0.543448	0.501181
	C7738	C	0.569111	0.543555	0.498142
	C7739	C	0.561764	0.543751	0.372764
	C7740	C	0.588588	0.251977	0.485736
	C7741	C	0.593577	0.190323	0.472096
	C7742	C	0.594150	0.314679	0.472154
	C7743	C	0.592862	0.252368	0.476506
	C7744	C	0.555314	0.043827	0.372379
	C7745	C	0.588308	0.253357	0.387510
	C7746	C	0.538891	0.253095	0.387560
	C7747	C	0.539012	0.254150	0.485812
	C7748	C	0.596169	0.191568	0.409663
	C7749	C	0.596361	0.316096	0.409625
	C7750	C	0.592935	0.253443	0.396705
	C7751	C	0.534618	0.252857	0.396768
	C7752	C	0.534887	0.752269	0.476560
	C7753	C	0.533547	0.814660	0.472212
	C7754	C	0.534081	0.690171	0.472166
	C7755	C	0.534626	0.253925	0.476600
	C7756	C	0.533853	0.316105	0.472216
	C7757	C	0.533433	0.191525	0.472244
	C7758	C	0.533563	0.190584	0.401159
	C7759	C	0.593926	0.191285	0.401091
	C7760	C	0.594097	0.315822	0.401058
	C7761	C	0.533804	0.315104	0.401147
	C7762	C	0.597245	0.253931	0.414017
	C7763	C	0.573879	0.043424	0.498516
	C7764	C	0.571553	0.043335	0.372576
	C7765	C	0.555272	0.962679	0.372369
	C7766	C	0.573840	0.962574	0.498510
	C7767	C	0.571569	0.962841	0.372581
	N7768	N	0.501548	0.070405	0.436682
	N7769	N	0.501524	0.935849	0.436679
	N7770	N	0.501522	0.436018	0.436608
	N7771	N	0.501524	0.570584	0.436617
	N7772	N	0.564292	0.435639	0.499151
	N7773	N	0.564300	0.570277	0.499160
	N7774	N	0.563752	0.070426	0.499121
	N7775	N	0.563719	0.935798	0.499113
	O7776	O	0.604330	0.695197	0.551703
	O7777	O	0.604205	0.812049	0.551760
	O7778	O	0.523477	0.695178	0.571434
	O7779	O	0.523096	0.812134	0.571473
	O7780	O	0.523141	0.193544	0.571467
	O7781	O	0.523506	0.310409	0.571451
	O7782	O	0.523386	0.695084	0.551760
	O7783	O	0.522999	0.811886	0.551703
	O7784	O	0.523220	0.194427	0.551726
	O7785	O	0.523429	0.311013	0.551780
	O7786	O	0.604060	0.694695	0.571509
	O7787	O	0.604281	0.811439	0.571541
	O7788	O	0.604134	0.194502	0.571551
	O7789	O	0.604162	0.311442	0.571537
	O7790	O	0.604061	0.194053	0.551750
	O7791	O	0.603990	0.310831	0.551773
	O7792	O	0.586525	0.695826	0.509033
	O7793	O	0.541955	0.694059	0.509038
	O7794	O	0.585762	0.693873	0.614207
	O7795	O	0.586413	0.810817	0.614304
	O7796	O	0.541214	0.695696	0.614219
	O7797	O	0.541400	0.812516	0.614205
	O7798	O	0.541566	0.810951	0.508997
	O7799	O	0.586116	0.812661	0.509044
	O7800	O	0.586040	0.193558	0.509071
	O7801	O	0.541512	0.195627	0.509011
	O7802	O	0.586279	0.195611	0.614291
	O7803	O	0.585755	0.312546	0.614231
	O7804	O	0.541445	0.193974	0.614237
	O7805	O	0.541305	0.310843	0.614183
	O7806	O	0.542043	0.312386	0.509109
	O7807	O	0.586620	0.310194	0.508966
	H7808	H	0.530441	0.643640	0.585126
	H7809	H	0.530370	0.863938	0.585078
	H7810	H	0.530447	0.141854	0.585092
	H7811	H	0.530324	0.362141	0.585093
	H7812	H	0.529717	0.863154	0.538016
	H7813	H	0.531053	0.642889	0.538185
	H7814	H	0.530979	0.362921	0.538230
	H7815	H	0.529713	0.143069	0.537972
	H7816	H	0.627954	0.064990	0.562352
	H7817	H	0.629110	0.064788	0.561620
	H7818	H	0.629093	0.941363	0.561644
	H7819	H	0.628218	0.941871	0.562304
	H7820	H	0.625231	0.064785	0.562451
	H7821	H	0.625306	0.941117	0.562441
	H7822	H	0.496338	0.065086	0.555006
	H7823	H	0.496349	0.941539	0.555059
	H7824	H	0.483918	0.065331	0.558518
	H7825	H	0.483974	0.941328	0.558512
	H7826	H	0.486909	0.064675	0.566210
	H7827	H	0.486916	0.941443	0.566170
	H7828	H	0.502118	0.441489	0.567317
	H7829	H	0.513849	0.441492	0.565006
	H7830	H	0.486425	0.441282	0.563910
	H7831	H	0.628624	0.441154	0.560524
	H7832	H	0.629832	0.441254	0.562025
	H7833	H	0.627613	0.441083	0.562874
	H7834	H	0.513737	0.564665	0.565021
	H7835	H	0.502012	0.565143	0.567300
	H7836	H	0.627820	0.564891	0.562893
	H7837	H	0.630041	0.564600	0.562026
	H7838	H	0.628603	0.564880	0.560517
	H7839	H	0.486510	0.564780	0.563942
	H7840	H	0.596807	0.642948	0.585163
	H7841	H	0.597370	0.863075	0.585232
	H7842	H	0.597556	0.143081	0.585258
	H7843	H	0.596632	0.363357	0.585113
	H7844	H	0.535343	0.642506	0.522743
	H7845	H	0.593479	0.644370	0.522649
	H7846	H	0.592604	0.864099	0.522707
	H7847	H	0.534020	0.862695	0.522601
	H7848	H	0.597529	0.644064	0.538070
	H7849	H	0.596691	0.863971	0.538132
	H7850	H	0.592632	0.642797	0.600599
	H7851	H	0.593245	0.862786	0.600652
	H7852	H	0.560741	0.441268	0.501908
	H7853	H	0.577066	0.440667	0.625324
	H7854	H	0.555816	0.441269	0.498929
	H7855	H	0.559385	0.441501	0.496708
	H7856	H	0.559424	0.441295	0.619275
	H7857	H	0.571094	0.440996	0.619896
	H7858	H	0.577221	0.564342	0.625314
	H7859	H	0.560664	0.564527	0.501905
	H7860	H	0.571174	0.564492	0.619908
	H7861	H	0.559441	0.564897	0.619247
	H7862	H	0.559372	0.565082	0.496684
	H7863	H	0.555854	0.564850	0.498926
	H7864	H	0.593413	0.143788	0.600687
	H7865	H	0.592445	0.363824	0.600542
	H7866	H	0.552792	0.064774	0.503004
	H7867	H	0.564961	0.065022	0.504631
	H7868	H	0.549878	0.064590	0.496754
	H7869	H	0.534523	0.864190	0.600531
	H7870	H	0.534370	0.643904	0.600565
	H7871	H	0.534463	0.361980	0.600503
	H7872	H	0.534596	0.141975	0.600545
	H7873	H	0.534030	0.143914	0.522566
	H7874	H	0.592557	0.141987	0.522710
	H7875	H	0.593564	0.362092	0.522609
	H7876	H	0.535311	0.363826	0.522785
	H7877	H	0.596455	0.142259	0.538145
	H7878	H	0.597494	0.362409	0.538052
	H7879	H	0.560665	0.064953	0.621255
	H7880	H	0.555734	0.064588	0.623095
	H7881	H	0.558569	0.064746	0.626457
	H7882	H	0.564992	0.941190	0.504593
	H7883	H	0.552974	0.941215	0.502995
	H7884	H	0.549864	0.941205	0.496771
	H7885	H	0.560663	0.941688	0.621215
	H7886	H	0.555763	0.941539	0.623094
	H7887	H	0.558483	0.940849	0.626471
	Zn7888	Zn	0.501034	0.681038	0.561635
	Zn7889	Zn	0.500679	0.825428	0.561610
	Zn7890	Zn	0.500700	0.180965	0.561600
	Zn7891	Zn	0.501109	0.325354	0.561628
	Zn7892	Zn	0.563434	0.680895	0.624098
	Zn7893	Zn	0.563765	0.825517	0.624075
	Zn7894	Zn	0.563885	0.180681	0.624099
	Zn7895	Zn	0.563328	0.325346	0.624099
	C7896	C	0.601709	0.753736	0.548237
	C7897	C	0.525812	0.753650	0.574953
	C7898	C	0.530264	0.753780	0.584160
	C7899	C	0.531341	0.691591	0.588538
	C7900	C	0.531367	0.816151	0.588525
	C7901	C	0.525858	0.251928	0.574951
	C7902	C	0.530224	0.251892	0.584145
	C7903	C	0.531350	0.189698	0.588522
	C7904	C	0.531315	0.314203	0.588516
	C7905	C	0.525687	0.753422	0.548230
	C7906	C	0.530204	0.753088	0.539038
	C7907	C	0.530990	0.815213	0.534622
	C7908	C	0.531743	0.690625	0.534711
	C7909	C	0.525900	0.252736	0.548247
	C7910	C	0.530292	0.252960	0.539043
	C7911	C	0.531763	0.315421	0.534740
	C7912	C	0.531036	0.191050	0.534602
	C7913	C	0.628014	0.043607	0.561898
	C7914	C	0.628055	0.962858	0.561894
	C7915	C	0.492874	0.043621	0.558029
	C7916	C	0.492905	0.962640	0.558060
	C7917	C	0.495937	0.043625	0.565757
	C7918	C	0.495877	0.962936	0.565755
	C7919	C	0.506089	0.462725	0.564975
	C7920	C	0.626865	0.462508	0.560703
	C7921	C	0.628087	0.462539	0.562240
	C7922	C	0.506058	0.543554	0.564972
	C7923	C	0.628169	0.543422	0.562235
	C7924	C	0.626872	0.543456	0.560685
	C7925	C	0.601583	0.753044	0.575033
	C7926	C	0.601586	0.252991	0.575031
	C7927	C	0.597153	0.753042	0.584237
	C7928	C	0.595965	0.690708	0.588607
	C7929	C	0.596285	0.815187	0.588638
	C7930	C	0.597273	0.253193	0.584228
	C7931	C	0.596407	0.191109	0.588641
	C7932	C	0.595875	0.315599	0.588566
	C7933	C	0.601476	0.252475	0.548257
	C7934	C	0.588726	0.754324	0.512555
	C7935	C	0.539190	0.752476	0.512514
	C7936	C	0.538813	0.754107	0.610699
	C7937	C	0.596451	0.691884	0.534661
	C7938	C	0.595992	0.816214	0.534691
	C7939	C	0.593086	0.754235	0.521738
	C7940	C	0.534709	0.752480	0.521729
	C7941	C	0.534008	0.690356	0.526143
	C7942	C	0.594306	0.692020	0.526094
	C7943	C	0.593817	0.816338	0.526123
	C7944	C	0.533287	0.814921	0.526056
	C7945	C	0.597283	0.753977	0.539043
	C7946	C	0.588523	0.752430	0.610758
	C7947	C	0.593766	0.690581	0.597174
	C7948	C	0.594091	0.815077	0.597203
	C7949	C	0.592849	0.752818	0.601550
	C7950	C	0.570757	0.462404	0.626230
	C7951	C	0.559315	0.462586	0.498169
	C7952	C	0.564763	0.462582	0.620774
	C7953	C	0.570812	0.543409	0.626227
	C7954	C	0.564798	0.543372	0.620763
	C7955	C	0.559338	0.543494	0.498169
	C7956	C	0.588580	0.254070	0.610757
	C7957	C	0.594233	0.191392	0.597211
	C7958	C	0.593727	0.315969	0.597136
	C7959	C	0.592984	0.253834	0.601543
	C7960	C	0.560179	0.043572	0.502582
	C7961	C	0.588812	0.251953	0.512523
	C7962	C	0.539195	0.253928	0.512548
	C7963	C	0.538860	0.252237	0.610699
	C7964	C	0.595819	0.189991	0.534700
	C7965	C	0.596396	0.314446	0.534642
	C7966	C	0.593080	0.251956	0.521726
	C7967	C	0.534779	0.253825	0.521737
	C7968	C	0.534535	0.754006	0.601485
	C7969	C	0.533537	0.816342	0.597101
	C7970	C	0.533467	0.691660	0.597113
	C7971	C	0.534575	0.252027	0.601468
	C7972	C	0.533521	0.314189	0.597083
	C7973	C	0.533584	0.189771	0.597096
	C7974	C	0.533297	0.191488	0.526038
	C7975	C	0.593722	0.189818	0.526127
	C7976	C	0.594320	0.314278	0.526071
	C7977	C	0.534019	0.315856	0.526172
	C7978	C	0.597151	0.252293	0.539053
	C7979	C	0.559674	0.043401	0.622659
	C7980	C	0.557217	0.043487	0.496296
	C7981	C	0.560184	0.962579	0.502583
	C7982	C	0.559649	0.962629	0.622666
	C7983	C	0.557171	0.962621	0.496315
	N7984	N	0.500613	0.070568	0.561565
	N7985	N	0.500563	0.935872	0.561574
	N7986	N	0.501073	0.435799	0.561624
	N7987	N	0.501031	0.570457	0.561631
	N7988	N	0.563325	0.435777	0.624131
	N7989	N	0.563398	0.570414	0.624130
	N7990	N	0.563787	0.070346	0.624071
	N7991	N	0.563795	0.935786	0.624070
	O7992	O	0.603741	0.696316	0.676708
	O7993	O	0.604381	0.813069	0.676660
	O7994	O	0.524016	0.695624	0.696430
	O7995	O	0.523364	0.812421	0.696543
	O7996	O	0.523455	0.194098	0.696483
	O7997	O	0.523857	0.310879	0.696451
	O7998	O	0.523399	0.695545	0.676680
	O7999	O	0.523814	0.812469	0.676785
	O8000	O	0.523575	0.193820	0.676703
	O8001	O	0.523700	0.310775	0.676675
	O8002	O	0.603739	0.696225	0.696454
	O8003	O	0.604168	0.813054	0.696452
	O8004	O	0.604270	0.193059	0.696469
	O8005	O	0.603807	0.310008	0.696437
	O8006	O	0.604419	0.193611	0.676618
	O8007	O	0.603852	0.310567	0.676727
	O8008	O	0.585656	0.694379	0.634035
	O8009	O	0.541265	0.695526	0.633991
	O8010	O	0.586125	0.695501	0.739196
	O8011	O	0.585942	0.812364	0.739209
	O8012	O	0.541709	0.694025	0.739192
	O8013	O	0.541304	0.810758	0.739227
	O8014	O	0.541385	0.812378	0.633950
	O8015	O	0.586156	0.811164	0.633925
	O8016	O	0.586308	0.195442	0.633880
	O8017	O	0.541578	0.193602	0.633986
	O8018	O	0.586079	0.193520	0.739205
	O8019	O	0.586173	0.310329	0.739179
	O8020	O	0.541393	0.194838	0.739238
	O8021	O	0.541646	0.311843	0.739186
	O8022	O	0.541127	0.310454	0.633917
	O8023	O	0.585652	0.312475	0.634017
	H8024	H	0.531262	0.643460	0.710016
	H8025	H	0.529860	0.863286	0.710207
	H8026	H	0.530036	0.142549	0.710178
	H8027	H	0.530834	0.362570	0.710089
	H8028	H	0.531007	0.864398	0.663123
	H8029	H	0.529866	0.644260	0.662997
	H8030	H	0.530209	0.362116	0.663023
	H8031	H	0.530723	0.142253	0.663068
	H8032	H	0.630814	0.064565	0.686386
	H8033	H	0.629093	0.064492	0.685343
	H8034	H	0.629094	0.941174	0.685273
	H8035	H	0.630935	0.940705	0.686355
	H8036	H	0.628640	0.064527	0.687886
	H8037	H	0.628667	0.941433	0.687844
	H8038	H	0.501570	0.064881	0.685265
	H8039	H	0.501583	0.941360	0.685281
	H8040	H	0.498646	0.064874	0.685628
	H8041	H	0.498579	0.941888	0.685647
	H8042	H	0.497725	0.064746	0.687132
	H8043	H	0.497723	0.941481	0.687198
	H8044	H	0.498311	0.441416	0.686153
	H8045	H	0.498509	0.441172	0.687205
	H8046	H	0.501554	0.441580	0.685336
	H8047	H	0.619924	0.441310	0.690169
	H8048	H	0.614767	0.441346	0.685764
	H8049	H	0.620545	0.441661	0.682965
	H8050	H	0.498524	0.564846	0.687224
	H8051	H	0.498206	0.564647	0.686162
	H8052	H	0.620573	0.564856	0.682970
	H8053	H	0.614721	0.565083	0.685741
	H8054	H	0.619944	0.564995	0.690143
	H8055	H	0.501573	0.565612	0.685349
	H8056	H	0.597391	0.644561	0.710077
	H8057	H	0.597041	0.864942	0.710102
	H8058	H	0.597017	0.141611	0.710136
	H8059	H	0.597020	0.361604	0.710109
	H8060	H	0.533965	0.644347	0.647595
	H8061	H	0.591830	0.643152	0.647738
	H8062	H	0.593759	0.863414	0.647494
	H8063	H	0.535156	0.864519	0.647671
	H8064	H	0.595989	0.644229	0.663175
	H8065	H	0.597935	0.864298	0.662934
	H8066	H	0.593113	0.644228	0.725510
	H8067	H	0.592658	0.864742	0.725526
	H8068	H	0.569625	0.440943	0.628658
	H8069	H	0.559835	0.441767	0.746771
	H8070	H	0.553533	0.441812	0.627760
	H8071	H	0.549321	0.441578	0.623823
	H8072	H	0.560467	0.441228	0.751451
	H8073	H	0.556591	0.441057	0.749657
	H8074	H	0.559811	0.565225	0.746813
	H8075	H	0.569815	0.564705	0.628662
	H8076	H	0.556618	0.564996	0.749699
	H8077	H	0.560585	0.564854	0.751478
	H8078	H	0.549344	0.565211	0.623818
	H8079	H	0.553611	0.565252	0.627802
	H8080	H	0.592956	0.141801	0.725571
	H8081	H	0.593025	0.361747	0.725558
	H8082	H	0.572188	0.064773	0.624479
	H8083	H	0.570191	0.064848	0.622053
	H8084	H	0.565557	0.064581	0.627032
	H8085	H	0.533948	0.862732	0.725631
	H8086	H	0.535326	0.642547	0.725471
	H8087	H	0.535090	0.363098	0.725514
	H8088	H	0.534299	0.142860	0.725616
	H8089	H	0.534788	0.142007	0.647632
	H8090	H	0.593647	0.143472	0.647464
	H8091	H	0.591857	0.363515	0.647743
	H8092	H	0.534205	0.362168	0.647584
	H8093	H	0.597987	0.142634	0.662891
	H8094	H	0.596162	0.362593	0.663170
	H8095	H	0.564057	0.064891	0.748007
	H8096	H	0.561624	0.064839	0.748292
	H8097	H	0.560810	0.064765	0.749528
	H8098	H	0.570061	0.940992	0.622059
	H8099	H	0.572236	0.941345	0.624505
	H8100	H	0.565402	0.941080	0.627068
	H8101	H	0.563995	0.941096	0.748021
	H8102	H	0.561525	0.941594	0.748279
	H8103	H	0.560726	0.941095	0.749524
	Zn8104	Zn	0.501519	0.680779	0.686621
	Zn8105	Zn	0.501157	0.825885	0.686600
	Zn8106	Zn	0.501132	0.180683	0.686607
	Zn8107	Zn	0.501635	0.325648	0.686573
	Zn8108	Zn	0.563960	0.681047	0.749100
	Zn8109	Zn	0.563608	0.825559	0.749084
	Zn8110	Zn	0.563715	0.180702	0.749124
	Zn8111	Zn	0.563979	0.325117	0.749070
	C8112	C	0.601534	0.754697	0.673177
	C8113	C	0.526158	0.753911	0.699998
	C8114	C	0.530534	0.753458	0.709210
	C8115	C	0.531930	0.690984	0.713517
	C8116	C	0.531131	0.815426	0.713616
	C8117	C	0.526110	0.252477	0.699988
	C8118	C	0.530466	0.252526	0.709206
	C8119	C	0.531269	0.190336	0.713602
	C8120	C	0.531695	0.314854	0.713555
	C8121	C	0.526056	0.754126	0.673224
	C8122	C	0.530351	0.754288	0.664002
	C8123	C	0.531745	0.816687	0.659666
	C8124	C	0.531079	0.692062	0.659601
	C8125	C	0.526070	0.252185	0.673194
	C8126	C	0.530409	0.252086	0.663984
	C8127	C	0.531258	0.314292	0.659595
	C8128	C	0.531568	0.189911	0.659623
	C8129	C	0.629138	0.043305	0.686028
	C8130	C	0.629135	0.962336	0.686011
	C8131	C	0.500413	0.043654	0.685756
	C8132	C	0.500369	0.962827	0.685780
	C8133	C	0.499462	0.043678	0.687280
	C8134	C	0.499515	0.962766	0.687292
	C8135	C	0.499205	0.462910	0.686665
	C8136	C	0.625150	0.462552	0.689387
	C8137	C	0.619849	0.462675	0.684956
	C8138	C	0.499207	0.543601	0.686673
	C8139	C	0.619802	0.543524	0.684948
	C8140	C	0.625077	0.543448	0.689382
	C8141	C	0.601498	0.754702	0.699966
	C8142	C	0.601541	0.251491	0.699956
	C8143	C	0.597141	0.754783	0.709169
	C8144	C	0.596254	0.692364	0.713530
	C8145	C	0.596065	0.817092	0.713537
	C8146	C	0.597116	0.251635	0.709181
	C8147	C	0.596114	0.189403	0.713566
	C8148	C	0.596111	0.313893	0.713546
	C8149	C	0.601616	0.252173	0.673171
	C8150	C	0.588450	0.752867	0.637477
	C8151	C	0.538813	0.754089	0.637468
	C8152	C	0.538998	0.752406	0.735706
	C8153	C	0.595520	0.691766	0.659674
	C8154	C	0.596599	0.816353	0.659537
	C8155	C	0.592923	0.753206	0.646670
	C8156	C	0.534518	0.754341	0.646681
	C8157	C	0.533169	0.692102	0.651034
	C8158	C	0.593369	0.691197	0.651106
	C8159	C	0.594454	0.815757	0.650967
	C8160	C	0.533848	0.816668	0.651087
	C8161	C	0.597188	0.754349	0.663978
	C8162	C	0.588486	0.754017	0.735693
	C8163	C	0.594103	0.692285	0.722098
	C8164	C	0.593848	0.816838	0.722108
	C8165	C	0.592859	0.754468	0.726486
	C8166	C	0.563235	0.462883	0.747263
	C8167	C	0.554589	0.462825	0.625361
	C8168	C	0.559980	0.462461	0.750149
	C8169	C	0.563220	0.543695	0.747272
	C8170	C	0.559991	0.543596	0.750176
	C8171	C	0.554596	0.543689	0.625365
	C8172	C	0.588607	0.251833	0.735696
	C8173	C	0.593967	0.189515	0.722142
	C8174	C	0.594007	0.313982	0.722124
	C8175	C	0.592993	0.251761	0.726501
	C8176	C	0.569184	0.043550	0.623463
	C8177	C	0.588477	0.253824	0.637444
	C8178	C	0.538853	0.252078	0.637454
	C8179	C	0.539026	0.253274	0.735725
	C8180	C	0.596634	0.190509	0.659512
	C8181	C	0.595642	0.315035	0.659676
	C8182	C	0.592894	0.253548	0.646637
	C8183	C	0.534470	0.252059	0.646655
	C8184	C	0.534652	0.752602	0.726522
	C8185	C	0.533228	0.814989	0.722185
	C8186	C	0.534013	0.690591	0.722092
	C8187	C	0.534635	0.253006	0.726536
	C8188	C	0.533829	0.315081	0.722126
	C8189	C	0.533423	0.190631	0.722178
	C8190	C	0.533654	0.189851	0.651048
	C8191	C	0.594388	0.191057	0.650945
	C8192	C	0.593432	0.315522	0.651106
	C8193	C	0.533335	0.314366	0.651016
	C8194	C	0.597254	0.252456	0.663957
	C8195	C	0.563036	0.043480	0.748404
	C8196	C	0.562471	0.043347	0.626030
	C8197	C	0.569201	0.962639	0.623468
	C8198	C	0.562992	0.962690	0.748413
	C8199	C	0.562470	0.962319	0.626044
	N8200	N	0.501144	0.070527	0.686610
	N8201	N	0.501116	0.935979	0.686629
	N8202	N	0.501584	0.436029	0.686579
	N8203	N	0.501564	0.570593	0.686591
	N8204	N	0.563989	0.435736	0.749055
	N8205	N	0.564015	0.570429	0.749076
	N8206	N	0.563672	0.070393	0.749093
	N8207	N	0.563606	0.935836	0.749090
	O8208	O	0.603802	0.694175	0.801746
	O8209	O	0.603579	0.811125	0.801817
	O8210	O	0.523783	0.694782	0.821407
	O8211	O	0.523526	0.811587	0.821475
	O8212	O	0.523695	0.194742	0.821455
	O8213	O	0.523890	0.311639	0.821441
	O8214	O	0.523871	0.694826	0.801779
	O8215	O	0.523775	0.811684	0.801729
	O8216	O	0.523562	0.195149	0.801687
	O8217	O	0.523663	0.311763	0.801740
	O8218	O	0.604019	0.694426	0.821522
	O8219	O	0.603791	0.811271	0.821488
	O8220	O	0.603695	0.194948	0.821489
	O8221	O	0.604011	0.311860	0.821554
	O8222	O	0.603652	0.195244	0.801760
	O8223	O	0.603929	0.312095	0.801729
	O8224	O	0.586267	0.695158	0.758995
	O8225	O	0.541707	0.694483	0.759022
	O8226	O	0.585804	0.695384	0.864241
	O8227	O	0.585544	0.812118	0.864209
	O8228	O	0.541209	0.693712	0.864182
	O8229	O	0.540905	0.810837	0.864210
	O8230	O	0.541204	0.811163	0.758951
	O8231	O	0.585951	0.811788	0.759013
	O8232	O	0.586053	0.194447	0.758993
	O8233	O	0.541244	0.195784	0.758930
	O8234	O	0.585580	0.193886	0.864258
	O8235	O	0.585920	0.310795	0.864272
	O8236	O	0.540867	0.195728	0.864270
	O8237	O	0.541281	0.312545	0.864204
	O8238	O	0.541706	0.312531	0.758993
	O8239	O	0.586299	0.311105	0.758939
	H8240	H	0.530614	0.642700	0.835053
	H8241	H	0.530294	0.862734	0.835129
	H8242	H	0.530339	0.143134	0.835160
	H8243	H	0.530808	0.363554	0.835087
	H8244	H	0.530266	0.863237	0.788038
	H8245	H	0.530875	0.643232	0.788132
	H8246	H	0.531117	0.363853	0.788108
	H8247	H	0.530203	0.143802	0.788011
	H8248	H	0.629019	0.065198	0.810002
	H8249	H	0.624542	0.064418	0.809738
	H8250	H	0.624456	0.941297	0.809719
	H8251	H	0.629088	0.941004	0.809994
	H8252	H	0.631272	0.065336	0.812067
	H8253	H	0.631317	0.941610	0.812111
	H8254	H	0.498556	0.064911	0.812516
	H8255	H	0.498725	0.941542	0.812489
	H8256	H	0.501553	0.065072	0.812890
	H8257	H	0.501372	0.941797	0.812848
	H8258	H	0.504717	0.065315	0.811924
	H8259	H	0.504648	0.941532	0.811916
	H8260	H	0.499990	0.441115	0.810219
	H8261	H	0.497583	0.441225	0.811053
	H8262	H	0.504542	0.441431	0.810681
	H8263	H	0.626801	0.441595	0.809581
	H8264	H	0.631664	0.441471	0.811160
	H8265	H	0.630700	0.441092	0.812821
	H8266	H	0.497492	0.564837	0.811031
	H8267	H	0.500007	0.565024	0.810199
	H8268	H	0.630741	0.564673	0.812837
	H8269	H	0.631684	0.564708	0.811164
	H8270	H	0.626829	0.565003	0.809618
	H8271	H	0.504390	0.565107	0.810659
	H8272	H	0.597324	0.643395	0.835176
	H8273	H	0.596779	0.863282	0.835100
	H8274	H	0.596839	0.143132	0.835087
	H8275	H	0.597144	0.362868	0.835229
	H8276	H	0.534870	0.642815	0.772713
	H8277	H	0.593542	0.643139	0.772593
	H8278	H	0.592790	0.863386	0.772729
	H8279	H	0.534225	0.862969	0.772592
	H8280	H	0.597488	0.642812	0.788040
	H8281	H	0.596633	0.862779	0.788184
	H8282	H	0.593174	0.643448	0.850616
	H8283	H	0.592594	0.863757	0.850543
	H8284	H	0.566088	0.441480	0.746454
	H8285	H	0.578807	0.441915	0.871322
	H8286	H	0.571436	0.441306	0.748936
	H8287	H	0.569104	0.441035	0.751006
	H8288	H	0.549009	0.441179	0.870789
	H8289	H	0.561164	0.441760	0.868015
	H8290	H	0.578776	0.564633	0.871305
	H8291	H	0.566153	0.565023	0.746482
	H8292	H	0.561172	0.564832	0.868008
	H8293	H	0.548964	0.565320	0.870788
	H8294	H	0.569096	0.564135	0.751023
	H8295	H	0.571412	0.564837	0.748917
	H8296	H	0.592664	0.142403	0.850542
	H8297	H	0.593008	0.362317	0.850643
	H8298	H	0.566141	0.064695	0.749773
	H8299	H	0.566755	0.064892	0.748873
	H8300	H	0.562668	0.065089	0.750150
	H8301	H	0.534247	0.862177	0.850577
	H8302	H	0.534582	0.642319	0.850509
	H8303	H	0.534712	0.363914	0.850540
	H8304	H	0.534322	0.143485	0.850608
	H8305	H	0.534247	0.144022	0.772597
	H8306	H	0.592636	0.143249	0.772686
	H8307	H	0.593551	0.363281	0.772594
	H8308	H	0.535117	0.364027	0.772661
	H8309	H	0.596560	0.143320	0.788118
	H8310	H	0.597525	0.363386	0.788042
	H8311	H	0.552899	0.065435	0.869786
	H8312	H	0.547176	0.065154	0.874064
	H8313	H	0.557423	0.065431	0.879391
	H8314	H	0.566533	0.941086	0.748893
	H8315	H	0.566026	0.941474	0.749794
	H8316	H	0.562624	0.941220	0.750161
	H8317	H	0.552852	0.941896	0.869727
	H8318	H	0.547151	0.941661	0.874003
	H8319	H	0.557378	0.941624	0.879404
	Zn8320	Zn	0.501390	0.680706	0.811574
	Zn8321	Zn	0.501282	0.825667	0.811599
	Zn8322	Zn	0.501354	0.180869	0.811590
	Zn8323	Zn	0.501301	0.325833	0.811601
	Zn8324	Zn	0.563510	0.680867	0.874105
	Zn8325	Zn	0.563006	0.825750	0.874067
	Zn8326	Zn	0.563078	0.180884	0.874123
	Zn8327	Zn	0.563559	0.325612	0.874134
	C8328	C	0.601231	0.752720	0.798270
	C8329	C	0.526138	0.753086	0.824944
	C8330	C	0.530331	0.752722	0.834163
	C8331	C	0.531456	0.690293	0.838498
	C8332	C	0.531286	0.814848	0.838544
	C8333	C	0.526196	0.253232	0.824954
	C8334	C	0.530528	0.253385	0.834163
	C8335	C	0.531393	0.191092	0.838566
	C8336	C	0.531613	0.315725	0.838533
	C8337	C	0.526299	0.753171	0.798244
	C8338	C	0.530547	0.753088	0.789024
	C8339	C	0.531359	0.815302	0.784617
	C8340	C	0.531649	0.690892	0.784676
	C8341	C	0.526120	0.253561	0.798197
	C8342	C	0.530439	0.253836	0.788997
	C8343	C	0.531776	0.316123	0.784652
	C8344	C	0.531270	0.191747	0.784600
	C8345	C	0.626568	0.043608	0.810316
	C8346	C	0.626579	0.962573	0.810319
	C8347	C	0.500345	0.043601	0.812401
	C8348	C	0.500365	0.962968	0.812383
	C8349	C	0.503596	0.043752	0.811429
	C8350	C	0.503553	0.962770	0.811432
	C8351	C	0.499415	0.462678	0.810883
	C8352	C	0.625018	0.462685	0.810329
	C8353	C	0.629887	0.462525	0.811885
	C8354	C	0.499412	0.543551	0.810877
	C8355	C	0.629894	0.543536	0.811903
	C8356	C	0.624994	0.543540	0.810341
	C8357	C	0.601356	0.752888	0.825003
	C8358	C	0.601468	0.253333	0.825027
	C8359	C	0.597099	0.753249	0.834221
	C8360	C	0.596184	0.691120	0.838613
	C8361	C	0.595862	0.815644	0.838564
	C8362	C	0.597048	0.253041	0.834233
	C8363	C	0.595928	0.190601	0.838564
	C8364	C	0.596115	0.315001	0.838642
	C8365	C	0.601373	0.253648	0.798226
	C8366	C	0.588650	0.753512	0.762502
	C8367	C	0.538925	0.752851	0.762494
	C8368	C	0.538582	0.752216	0.860701
	C8369	C	0.596234	0.690622	0.784620
	C8370	C	0.595820	0.815113	0.784702
	C8371	C	0.592887	0.753370	0.771706
	C8372	C	0.534613	0.752806	0.771686
	C8373	C	0.533746	0.690781	0.776104
	C8374	C	0.594169	0.690867	0.776042
	C8375	C	0.593773	0.815372	0.776127
	C8376	C	0.533414	0.815177	0.776037
	C8377	C	0.596931	0.752769	0.789039
	C8378	C	0.588251	0.753720	0.860725
	C8379	C	0.593988	0.691324	0.847182
	C8380	C	0.593667	0.815862	0.847139
	C8381	C	0.592710	0.753669	0.851540
	C8382	C	0.574923	0.462977	0.873977
	C8383	C	0.568597	0.462591	0.749727
	C8384	C	0.557277	0.462770	0.870657
	C8385	C	0.574960	0.543673	0.873982
	C8386	C	0.557228	0.543896	0.870653
	C8387	C	0.568598	0.543360	0.749742
	C8388	C	0.588277	0.252285	0.860759
	C8389	C	0.593745	0.190209	0.847139
	C8390	C	0.593956	0.314653	0.847211
	C8391	C	0.592840	0.252299	0.851552
	C8392	C	0.565652	0.043416	0.749291
	C8393	C	0.588722	0.252864	0.762476
	C8394	C	0.538990	0.254144	0.762472
	C8395	C	0.538667	0.254071	0.860719
	C8396	C	0.595862	0.191149	0.784668
	C8397	C	0.596372	0.315605	0.784619
	C8398	C	0.593051	0.253165	0.771677
	C8399	C	0.534702	0.254128	0.771667
	C8400	C	0.534358	0.752154	0.851479
	C8401	C	0.533290	0.814570	0.847122
	C8402	C	0.533457	0.690020	0.847079
	C8403	C	0.534413	0.253812	0.851504
	C8404	C	0.533616	0.316003	0.847110
	C8405	C	0.533387	0.191248	0.847148
	C8406	C	0.533469	0.191883	0.776028
	C8407	C	0.593778	0.191032	0.776093
	C8408	C	0.594282	0.315450	0.776042
	C8409	C	0.533979	0.316192	0.776079
	C8410	C	0.597155	0.253445	0.789011
	C8411	C	0.553402	0.043957	0.872493
	C8412	C	0.562218	0.043640	0.749658
	C8413	C	0.565594	0.962575	0.749285
	C8414	C	0.553352	0.962956	0.872457
	C8415	C	0.562183	0.962604	0.749659
	N8416	N	0.501202	0.070526	0.811579
	N8417	N	0.501216	0.935953	0.811573
	N8418	N	0.501265	0.436042	0.811601
	N8419	N	0.501252	0.570567	0.811569
	N8420	N	0.563469	0.436155	0.874115
	N8421	N	0.563453	0.570816	0.874121
	N8422	N	0.562836	0.070483	0.874122
	N8423	N	0.562852	0.935936	0.874097
	O8424	O	0.604355	0.694658	0.926631
	O8425	O	0.603881	0.811572	0.926722
	O8426	O	0.523524	0.695240	0.946584
	O8427	O	0.523412	0.812147	0.946521
	O8428	O	0.523593	0.194123	0.946490
	O8429	O	0.523366	0.310952	0.946573
	O8430	O	0.523749	0.694953	0.926810
	O8431	O	0.523512	0.811701	0.926702
	O8432	O	0.523417	0.194481	0.926753
	O8433	O	0.523773	0.311160	0.926816
	O8434	O	0.603885	0.694133	0.946416
	O8435	O	0.604277	0.810926	0.946520
	O8436	O	0.604286	0.194849	0.946499
	O8437	O	0.603867	0.311786	0.946389
	O8438	O	0.603818	0.194876	0.926781
	O8439	O	0.604083	0.311857	0.926718
	O8440	O	0.585909	0.695776	0.883935
	O8441	O	0.541402	0.694102	0.884041
	O8442	O	0.585765	0.692994	0.989189
	O8443	O	0.586517	0.809770	0.989264
	O8444	O	0.541206	0.696725	0.989285
	O8445	O	0.542000	0.813564	0.989253
	O8446	O	0.540767	0.811063	0.883936
	O8447	O	0.585482	0.812648	0.883975
	O8448	O	0.585335	0.193872	0.884029
	O8449	O	0.540733	0.195800	0.883977
	O8450	O	0.586613	0.196661	0.989276
	O8451	O	0.585731	0.313428	0.989171
	O8452	O	0.542002	0.193165	0.989273
	O8453	O	0.541309	0.309882	0.989258
	O8454	O	0.541381	0.312674	0.884035
	O8455	O	0.585892	0.310727	0.883998
	H8456	H	0.529905	0.644456	0.960280
	H8457	H	0.531359	0.864457	0.960100
	H8458	H	0.530976	0.141985	0.960122
	H8459	H	0.529864	0.361607	0.960232
	H8460	H	0.529985	0.863251	0.913043
	H8461	H	0.530838	0.643120	0.913175
	H8462	H	0.530840	0.363514	0.913148
	H8463	H	0.530051	0.143434	0.913063
	H8464	H	0.614496	0.064826	0.935126
	H8465	H	0.615446	0.064899	0.938886
	H8466	H	0.615327	0.941443	0.938890
	H8467	H	0.614355	0.941179	0.935099
	H8468	H	0.626150	0.064960	0.932101
	H8469	H	0.626191	0.940996	0.932045
	H8470	H	0.505371	0.064676	0.933360
	H8471	H	0.505425	0.941488	0.933386
	H8472	H	0.496962	0.064994	0.933318
	H8473	H	0.497003	0.941338	0.933300
	H8474	H	0.491061	0.065243	0.936900
	H8475	H	0.491010	0.941662	0.936867
	H8476	H	0.511325	0.441301	0.935271
	H8477	H	0.504814	0.441594	0.932982
	H8478	H	0.508362	0.441553	0.939615
	H8479	H	0.652437	0.441535	0.936344
	H8480	H	0.635814	0.441308	0.945210
	H8481	H	0.614186	0.441090	0.944713
	H8482	H	0.504845	0.564736	0.932998
	H8483	H	0.511448	0.565017	0.935265
	H8484	H	0.614193	0.564517	0.944734
	H8485	H	0.635836	0.564567	0.945287
	H8486	H	0.652351	0.564913	0.936414
	H8487	H	0.508349	0.564820	0.939623
	H8488	H	0.596426	0.642145	0.960062
	H8489	H	0.597545	0.862063	0.960216
	H8490	H	0.597966	0.143819	0.960221
	H8491	H	0.596073	0.364035	0.960022
	H8492	H	0.534769	0.642707	0.897727
	H8493	H	0.592975	0.643742	0.897591
	H8494	H	0.592403	0.864065	0.897642
	H8495	H	0.533925	0.863164	0.897593
	H8496	H	0.597110	0.643412	0.913015
	H8497	H	0.596587	0.863574	0.913093
	H8498	H	0.592295	0.641727	0.975521
	H8499	H	0.593469	0.861448	0.975645
	H8500	H	0.579319	0.441159	0.876538
	H8501	H	0.545104	0.440926	0.996008
	H8502	H	0.562585	0.441491	0.880296
	H8503	H	0.549721	0.441565	0.877910
	H8504	H	0.565238	0.441634	1.006465
	H8505	H	0.549080	0.441595	1.004305
	H8506	H	0.545055	0.565069	0.996011
	H8507	H	0.579397	0.564915	0.876489
	H8508	H	0.549011	0.564793	1.004326
	H8509	H	0.565129	0.565024	1.006475
	H8510	H	0.549717	0.565043	0.877905
	H8511	H	0.562671	0.565221	0.880327
	H8512	H	0.593858	0.144572	0.975661
	H8513	H	0.591941	0.364668	0.975460
	H8514	H	0.578373	0.065032	0.873176
	H8515	H	0.570796	0.065335	0.869281
	H8516	H	0.570532	0.065082	0.879010
	H8517	H	0.535512	0.865107	0.975548
	H8518	H	0.533932	0.645125	0.975723
	H8519	H	0.534002	0.361246	0.975648
	H8520	H	0.535236	0.141560	0.975568
	H8521	H	0.533983	0.143913	0.897613
	H8522	H	0.592210	0.142349	0.897683
	H8523	H	0.593146	0.362463	0.897630
	H8524	H	0.534805	0.363891	0.897704
	H8525	H	0.596512	0.142740	0.913130
	H8526	H	0.597375	0.362681	0.913041
	H8527	H	0.575385	0.064561	0.995493
	H8528	H	0.563693	0.064729	0.993804
	H8529	H	0.549951	0.065123	0.997601
	H8530	H	0.570945	0.941815	0.869208
	H8531	H	0.578372	0.942356	0.873135
	H8532	H	0.570609	0.941780	0.879015
	H8533	H	0.575324	0.941892	0.995469
	H8534	H	0.563604	0.941471	0.993775
	H8535	H	0.550057	0.941385	0.997630
	Zn8536	Zn	0.501372	0.680617	0.936671
	Zn8537	Zn	0.501104	0.825605	0.936632
	Zn8538	Zn	0.501110	0.180648	0.936626
	Zn8539	Zn	0.501271	0.325599	0.936636
	Zn8540	Zn	0.563426	0.680927	0.999119
	Zn8541	Zn	0.564476	0.825770	0.999145
	Zn8542	Zn	0.564448	0.180855	0.999134
	Zn8543	Zn	0.563476	0.325748	0.999124
	C8544	C	0.601575	0.753241	0.923184
	C8545	C	0.526042	0.753834	0.950055
	C8546	C	0.530496	0.754335	0.959255
	C8547	C	0.531136	0.692359	0.963673
	C8548	C	0.531991	0.816812	0.963578
	C8549	C	0.525997	0.252387	0.950032
	C8550	C	0.530345	0.251856	0.959229
	C8551	C	0.531740	0.189617	0.963589
	C8552	C	0.531097	0.313797	0.963632
	C8553	C	0.526072	0.753202	0.923238
	C8554	C	0.530386	0.753253	0.914025
	C8555	C	0.531167	0.815471	0.909616
	C8556	C	0.531655	0.690832	0.909703
	C8557	C	0.526067	0.252922	0.923267
	C8558	C	0.530378	0.253425	0.914056
	C8559	C	0.531627	0.315788	0.909699
	C8560	C	0.531189	0.191314	0.909660
	C8561	C	0.617915	0.043627	0.936886
	C8562	C	0.617867	0.962774	0.936889
	C8563	C	0.501115	0.043558	0.934205
	C8564	C	0.501148	0.962750	0.934194
	C8565	C	0.495189	0.043721	0.937793
	C8566	C	0.495166	0.962790	0.937764
	C8567	C	0.506287	0.462737	0.934786
	C8568	C	0.642088	0.462816	0.933838
	C8569	C	0.625435	0.462661	0.942772
	C8570	C	0.506337	0.543687	0.934796
	C8571	C	0.625433	0.543375	0.942785
	C8572	C	0.642112	0.543673	0.933870
	C8573	C	0.601536	0.752383	0.949969
	C8574	C	0.601558	0.253474	0.949949
	C8575	C	0.597202	0.752087	0.959182
	C8576	C	0.595796	0.689832	0.963523
	C8577	C	0.596427	0.814077	0.963605
	C8578	C	0.597187	0.253885	0.959159
	C8579	C	0.596609	0.191832	0.963603
	C8580	C	0.595578	0.316322	0.963492
	C8581	C	0.601417	0.253279	0.923244
	C8582	C	0.588330	0.754197	0.887447
	C8583	C	0.538579	0.752671	0.887487
	C8584	C	0.539149	0.755248	0.985772
	C8585	C	0.596170	0.691350	0.909591
	C8586	C	0.595837	0.815938	0.909633
	C8587	C	0.592754	0.754075	0.896658
	C8588	C	0.534412	0.752912	0.896704
	C8589	C	0.533689	0.690730	0.901127
	C8590	C	0.593902	0.691587	0.901019
	C8591	C	0.593587	0.816175	0.901060
	C8592	C	0.533214	0.815286	0.901041
	C8593	C	0.597181	0.753552	0.913979
	C8594	C	0.588598	0.751332	0.985714
	C8595	C	0.593661	0.689545	0.972102
	C8596	C	0.594319	0.813844	0.972182
	C8597	C	0.593038	0.751497	0.976516
	C8598	C	0.554753	0.462798	0.995370
	C8599	C	0.558065	0.462954	0.877807
	C8600	C	0.558830	0.462859	1.003739
	C8601	C	0.554742	0.543690	0.995376
	C8602	C	0.558770	0.543429	1.003766
	C8603	C	0.558039	0.543665	0.877822
	C8604	C	0.588658	0.255017	0.985715
	C8605	C	0.594459	0.192244	0.972175
	C8606	C	0.593384	0.316700	0.972066
	C8607	C	0.592925	0.254656	0.976496
	C8608	C	0.571490	0.043806	0.871978
	C8609	C	0.588164	0.252242	0.887506
	C8610	C	0.538590	0.254218	0.887509
	C8611	C	0.539083	0.251379	0.985760
	C8612	C	0.595642	0.190398	0.909672
	C8613	C	0.596124	0.314862	0.909635
	C8614	C	0.592624	0.252285	0.896705
	C8615	C	0.534405	0.253959	0.896716
	C8616	C	0.534725	0.755152	0.976568
	C8617	C	0.534163	0.817220	0.972153
	C8618	C	0.533271	0.692756	0.972247
	C8619	C	0.534610	0.251385	0.976555
	C8620	C	0.533227	0.313575	0.972204
	C8621	C	0.533904	0.189326	0.972163
	C8622	C	0.533265	0.191660	0.901082
	C8623	C	0.593404	0.190140	0.901096
	C8624	C	0.593936	0.314640	0.901063
	C8625	C	0.533693	0.316036	0.901120
	C8626	C	0.596950	0.252721	0.914026
	C8627	C	0.568164	0.043469	0.995821
	C8628	C	0.563665	0.043883	0.877877
	C8629	C	0.571528	0.963031	0.871953
	C8630	C	0.568140	0.962906	0.995822
	C8631	C	0.563682	0.962971	0.877867
	N8632	N	0.501039	0.070571	0.936620
	N8633	N	0.501049	0.936058	0.936592
	N8634	N	0.501280	0.435833	0.936659
	N8635	N	0.501302	0.570403	0.936655
	N8636	N	0.563550	0.435946	0.999104
	N8637	N	0.563534	0.570508	0.999134
	N8638	N	0.564456	0.070445	0.999176
	N8639	N	0.564441	0.935898	0.999171
	O8640	O	0.728538	0.693180	0.051816
	O8641	O	0.728272	0.809868	0.051742
	O8642	O	0.648780	0.695049	0.071520
	O8643	O	0.648589	0.812013	0.071593
	O8644	O	0.648333	0.194195	0.071569
	O8645	O	0.648824	0.311039	0.071498
	O8646	O	0.648511	0.695533	0.051732
	O8647	O	0.648752	0.812217	0.051811
	O8648	O	0.648839	0.194317	0.051833
	O8649	O	0.648617	0.311182	0.051737
	O8650	O	0.728611	0.693974	0.071609
	O8651	O	0.728409	0.810883	0.071530
	O8652	O	0.728308	0.195655	0.071507
	O8653	O	0.728667	0.312667	0.071552
	O8654	O	0.728496	0.195633	0.051689
	O8655	O	0.728781	0.312556	0.051725
	O8656	O	0.710539	0.692733	0.009065
	O8657	O	0.665787	0.696354	0.008943
	O8658	O	0.711193	0.694756	0.114355
	O8659	O	0.711121	0.811559	0.114326
	O8660	O	0.666559	0.694244	0.114291
	O8661	O	0.666344	0.811161	0.114348
	O8662	O	0.666697	0.813244	0.009061
	O8663	O	0.711234	0.809592	0.009001
	O8664	O	0.711438	0.196435	0.008970
	O8665	O	0.666609	0.193052	0.009046
	O8666	O	0.710883	0.194850	0.114282
	O8667	O	0.711080	0.311610	0.114328
	O8668	O	0.666351	0.194550	0.114293
	O8669	O	0.666532	0.311546	0.114252
	O8670	O	0.665930	0.309889	0.008977
	O8671	O	0.710596	0.313316	0.008977
	H8672	H	0.655882	0.643172	0.085167
	H8673	H	0.655075	0.863357	0.085260
	H8674	H	0.654930	0.142940	0.085206
	H8675	H	0.655733	0.362945	0.085165
	H8676	H	0.655946	0.864533	0.038116
	H8677	H	0.654728	0.644133	0.038005
	H8678	H	0.654764	0.362410	0.038035
	H8679	H	0.656117	0.141962	0.038169
	H8680	H	0.754889	0.064439	0.060697
	H8681	H	0.751484	0.064561	0.059773
	H8682	H	0.751381	0.941355	0.059809
	H8683	H	0.754874	0.941046	0.060721
	H8684	H	0.754277	0.064915	0.062823
	H8685	H	0.754205	0.941026	0.062834
	H8686	H	0.626747	0.065040	0.056154
	H8687	H	0.626951	0.941189	0.056175
	H8688	H	0.614891	0.064734	0.057936
	H8689	H	0.614924	0.941336	0.057981
	H8690	H	0.612780	0.064817	0.064204
	H8691	H	0.612848	0.941277	0.064218
	H8692	H	0.617960	0.441347	0.067729
	H8693	H	0.634016	0.441625	0.067937
	H8694	H	0.607706	0.441110	0.060817
	H8695	H	0.734355	0.441279	0.059193
	H8696	H	0.751756	0.441321	0.055266
	H8697	H	0.765163	0.441221	0.057805
	H8698	H	0.633922	0.564989	0.067908
	H8699	H	0.618008	0.564703	0.067744
	H8700	H	0.765144	0.564664	0.057764
	H8701	H	0.751774	0.564647	0.055264
	H8702	H	0.734297	0.564606	0.059189
	H8703	H	0.607694	0.564736	0.060844
	H8704	H	0.722321	0.642466	0.085321
	H8705	H	0.721621	0.862753	0.085146
	H8706	H	0.721144	0.143784	0.085109
	H8707	H	0.722533	0.363924	0.085240
	H8708	H	0.658806	0.644734	0.022572
	H8709	H	0.717862	0.640775	0.022673
	H8710	H	0.717889	0.860740	0.022606
	H8711	H	0.660069	0.864699	0.022683
	H8712	H	0.721875	0.640764	0.038121
	H8713	H	0.721857	0.860990	0.038019
	H8714	H	0.718351	0.643139	0.100763
	H8715	H	0.717629	0.863150	0.100598
	H8716	H	0.689227	0.441541	0.001803
	H8717	H	0.683215	0.440589	0.126723
	H8718	H	0.681279	0.441705	0.000431
	H8719	H	0.680793	0.441161	-0.001923
	H8720	H	0.697545	0.441637	0.124646
	H8721	H	0.693403	0.441159	0.126931
	H8722	H	0.683108	0.564895	0.126734
	H8723	H	0.689254	0.564941	0.001816
	H8724	H	0.693506	0.565361	0.126918
	H8725	H	0.697567	0.564736	0.124634
	H8726	H	0.680827	0.565018	-0.001906
	H8727	H	0.681163	0.564666	0.000413
	H8728	H	0.717256	0.143504	0.100572
	H8729	H	0.718615	0.363660	0.100691
	H8730	H	0.689328	0.064882	-0.004799
	H8731	H	0.680853	0.064922	-0.003511
	H8732	H	0.699325	0.064776	-0.002044
	H8733	H	0.659070	0.862998	0.100688
	H8734	H	0.660014	0.642994	0.100610
	H8735	H	0.659943	0.363078	0.100594
	H8736	H	0.659109	0.142997	0.100639
	H8737	H	0.660196	0.141509	0.022708
	H8738	H	0.718332	0.144928	0.022608
	H8739	H	0.717418	0.365197	0.022659
	H8740	H	0.658828	0.361806	0.022591
	H8741	H	0.722313	0.144636	0.038054
	H8742	H	0.721507	0.364981	0.038106
	H8743	H	0.688484	0.065055	0.125360
	H8744	H	0.691060	0.064860	0.124974
	H8745	H	0.691592	0.064595	0.123665
	H8746	H	0.680942	0.941220	-0.003548
	H8747	H	0.689438	0.941171	-0.004816
	H8748	H	0.699377	0.941783	-0.002062
	H8749	H	0.688472	0.941873	0.125363
	H8750	H	0.690987	0.941141	0.124965
	H8751	H	0.691548	0.941042	0.123667
	Zn8752	Zn	0.626458	0.680981	0.061654
	Zn8753	Zn	0.626255	0.825469	0.061693
	Zn8754	Zn	0.626260	0.180874	0.061641
	Zn8755	Zn	0.626562	0.325398	0.061655
	Zn8756	Zn	0.688812	0.680625	0.124173
	Zn8757	Zn	0.688629	0.825455	0.124182
	Zn8758	Zn	0.688657	0.180632	0.124166
	Zn8759	Zn	0.688672	0.325156	0.124188
	C8760	C	0.725975	0.751299	0.048264
	C8761	C	0.651096	0.753419	0.075059
	C8762	C	0.655447	0.753242	0.084249
	C8763	C	0.656672	0.690945	0.088603
	C8764	C	0.656246	0.815427	0.088649
	C8765	C	0.651103	0.252695	0.075026
	C8766	C	0.655498	0.252939	0.084222
	C8767	C	0.656241	0.190763	0.088615
	C8768	C	0.656701	0.315191	0.088586
	C8769	C	0.651030	0.754037	0.048249
	C8770	C	0.655439	0.754295	0.039056
	C8771	C	0.656734	0.816667	0.034695
	C8772	C	0.656060	0.692230	0.034623
	C8773	C	0.651161	0.252577	0.048274
	C8774	C	0.655421	0.252212	0.039054
	C8775	C	0.656054	0.314326	0.034632
	C8776	C	0.656832	0.189795	0.034703
	C8777	C	0.752454	0.043132	0.060611
	C8778	C	0.752408	0.962555	0.060612
	C8779	C	0.622309	0.043543	0.058250
	C8780	C	0.622307	0.962660	0.058261
	C8781	C	0.620099	0.043508	0.064545
	C8782	C	0.620133	0.962567	0.064549
	C8783	C	0.626153	0.462674	0.066204
	C8784	C	0.738856	0.462563	0.061835
	C8785	C	0.756454	0.462438	0.057886
	C8786	C	0.626121	0.543529	0.066203
	C8787	C	0.756460	0.543464	0.057873
	C8788	C	0.738835	0.543440	0.061839
	C8789	C	0.726136	0.752520	0.075073
	C8790	C	0.726053	0.254123	0.075025
	C8791	C	0.722022	0.752593	0.084282
	C8792	C	0.721228	0.690480	0.088712
	C8793	C	0.720870	0.815036	0.088609
	C8794	C	0.721762	0.253887	0.084220
	C8795	C	0.720453	0.191494	0.088571
	C8796	C	0.721228	0.316035	0.088639
	C8797	C	0.726201	0.254245	0.048200
	C8798	C	0.713345	0.751118	0.012544
	C8799	C	0.663798	0.754727	0.012504
	C8800	C	0.663989	0.752777	0.110805
	C8801	C	0.720899	0.688637	0.034692
	C8802	C	0.720905	0.812961	0.034625
	C8803	C	0.717786	0.750728	0.021733
	C8804	C	0.659471	0.754652	0.021723
	C8805	C	0.658120	0.692364	0.026049
	C8806	C	0.718784	0.688471	0.026119
	C8807	C	0.718862	0.813042	0.026059
	C8808	C	0.658866	0.816831	0.026116
	C8809	C	0.721755	0.750905	0.039056
	C8810	C	0.713625	0.753124	0.110829
	C8811	C	0.719197	0.690724	0.097287
	C8812	C	0.718838	0.815290	0.097186
	C8813	C	0.718052	0.753104	0.101612
	C8814	C	0.683366	0.462564	0.125202
	C8815	C	0.682846	0.462731	-0.000801
	C8816	C	0.693696	0.462621	0.125377
	C8817	C	0.683379	0.543406	0.125183
	C8818	C	0.693735	0.543481	0.125373
	C8819	C	0.682868	0.543607	-0.000799
	C8820	C	0.713405	0.253276	0.110786
	C8821	C	0.718360	0.191332	0.097150
	C8822	C	0.719151	0.315864	0.097219
	C8823	C	0.717746	0.253515	0.101555
	C8824	C	0.686138	0.043701	-0.003299
	C8825	C	0.713473	0.255003	0.012475
	C8826	C	0.663788	0.251479	0.012511
	C8827	C	0.663981	0.253017	0.110766
	C8828	C	0.721189	0.192548	0.034626
	C8829	C	0.720719	0.317198	0.034657
	C8830	C	0.717853	0.255048	0.021691
	C8831	C	0.659528	0.251662	0.021715
	C8832	C	0.659576	0.752989	0.101582
	C8833	C	0.658378	0.815322	0.097224
	C8834	C	0.658791	0.690797	0.097181
	C8835	C	0.659688	0.253091	0.101554
	C8836	C	0.658845	0.315308	0.097163
	C8837	C	0.658379	0.190786	0.097189
	C8838	C	0.658939	0.189456	0.026124
	C8839	C	0.719124	0.192751	0.026054
	C8840	C	0.718614	0.317320	0.026083
	C8841	C	0.658179	0.314073	0.026056
	C8842	C	0.721932	0.254728	0.039008
	C8843	C	0.689463	0.043586	0.124901
	C8844	C	0.696178	0.043424	-0.000541
	C8845	C	0.686171	0.962766	-0.003312
	C8846	C	0.689486	0.962673	0.124904
	C8847	C	0.696243	0.962664	-0.000550
	N8848	N	0.626284	0.070569	0.061637
	N8849	N	0.626295	0.935951	0.061657
	N8850	N	0.626569	0.435675	0.061645
	N8851	N	0.626536	0.570339	0.061661
	N8852	N	0.688579	0.435621	0.124186
	N8853	N	0.688663	0.570276	0.124166
	N8854	N	0.688679	0.070429	0.124177
	N8855	N	0.688698	0.935833	0.124182
	O8856	O	0.729435	0.693553	0.176759
	O8857	O	0.728871	0.810487	0.176809
	O8858	O	0.648151	0.694704	0.196486
	O8859	O	0.648004	0.811347	0.196517
	O8860	O	0.648057	0.194544	0.196530
	O8861	O	0.648363	0.311572	0.196510
	O8862	O	0.648284	0.694474	0.176775
	O8863	O	0.648139	0.811503	0.176789
	O8864	O	0.648282	0.194374	0.176774
	O8865	O	0.648375	0.311304	0.176787
	O8866	O	0.729255	0.693256	0.196490
	O8867	O	0.729069	0.810224	0.196488
	O8868	O	0.729110	0.195745	0.196494
	O8869	O	0.729403	0.312494	0.196518
	O8870	O	0.728990	0.194975	0.176816
	O8871	O	0.729560	0.311829	0.176788
	O8872	O	0.711114	0.694772	0.134044
	O8873	O	0.666627	0.694064	0.134083
	O8874	O	0.710577	0.693971	0.239251
	O8875	O	0.710666	0.810850	0.239224
	O8876	O	0.666080	0.694489	0.239249
	O8877	O	0.666162	0.811394	0.239217
	O8878	O	0.666149	0.811009	0.134022
	O8879	O	0.710815	0.811577	0.134075
	O8880	O	0.710844	0.194429	0.134096
	O8881	O	0.666244	0.195015	0.134031
	O8882	O	0.710524	0.195004	0.239174
	O8883	O	0.710815	0.312009	0.239269
	O8884	O	0.666132	0.194556	0.239237
	O8885	O	0.666141	0.311438	0.239213
	O8886	O	0.666585	0.311971	0.134090
	O8887	O	0.711047	0.311290	0.134028
	H8888	H	0.655202	0.642942	0.210143
	H8889	H	0.655339	0.863093	0.210162
	H8890	H	0.655288	0.142763	0.210125
	H8891	H	0.655032	0.363094	0.210188
	H8892	H	0.654530	0.863058	0.163086
	H8893	H	0.655721	0.642979	0.163165
	H8894	H	0.656123	0.363160	0.163214
	H8895	H	0.654658	0.142687	0.163098
	H8896	H	0.731951	0.064629	0.185930
	H8897	H	0.737399	0.064714	0.191546
	H8898	H	0.737433	0.941006	0.191561
	H8899	H	0.731832	0.941602	0.185963
	H8900	H	0.746591	0.064939	0.179791
	H8901	H	0.746651	0.941343	0.179786
	H8902	H	0.615856	0.064868	0.177293
	H8903	H	0.615884	0.941253	0.177272
	H8904	H	0.599514	0.065106	0.183302
	H8905	H	0.599520	0.941074	0.183295
	H8906	H	0.608170	0.064925	0.194398
	H8907	H	0.608099	0.941752	0.194405
	H8908	H	0.625245	0.441290	0.186879
	H8909	H	0.625985	0.441408	0.186964
	H8910	H	0.625112	0.441500	0.186508
	H8911	H	0.744672	0.441367	0.182420
	H8912	H	0.760522	0.441444	0.182767
	H8913	H	0.765539	0.440543	0.186481
	H8914	H	0.625996	0.565084	0.186960
	H8915	H	0.625293	0.564906	0.186822
	H8916	H	0.765607	0.564578	0.186436
	H8917	H	0.760386	0.564363	0.182782
	H8918	H	0.744771	0.564741	0.182416
	H8919	H	0.625135	0.564694	0.186499
	H8920	H	0.722450	0.641799	0.210185
	H8921	H	0.721457	0.861718	0.210080
	H8922	H	0.721600	0.144201	0.210088
	H8923	H	0.722751	0.364089	0.210242
	H8924	H	0.659966	0.642600	0.147726
	H8925	H	0.718748	0.642836	0.147657
	H8926	H	0.717418	0.862573	0.147748
	H8927	H	0.658711	0.862676	0.147653
	H8928	H	0.723017	0.642318	0.163072
	H8929	H	0.721705	0.862161	0.163186
	H8930	H	0.718192	0.641953	0.225636
	H8931	H	0.717136	0.862065	0.225494
	H8932	H	0.679758	0.441352	0.124342
	H8933	H	0.697538	0.441195	0.253073
	H8934	H	0.685284	0.441113	0.121228
	H8935	H	0.692815	0.441268	0.121365
	H8936	H	0.693033	0.441839	0.244351
	H8937	H	0.701611	0.441805	0.247350
	H8938	H	0.697532	0.565038	0.253021
	H8939	H	0.679701	0.564215	0.124339
	H8940	H	0.701584	0.564649	0.247360
	H8941	H	0.692958	0.565089	0.244350
	H8942	H	0.692850	0.564596	0.121354
	H8943	H	0.685361	0.564654	0.121199
	H8944	H	0.717304	0.144001	0.225526
	H8945	H	0.718402	0.363678	0.225677
	H8946	H	0.685989	0.064764	0.123516
	H8947	H	0.685522	0.065139	0.124501
	H8948	H	0.689492	0.064212	0.123053
	H8949	H	0.659379	0.863080	0.225568
	H8950	H	0.659214	0.642809	0.225594
	H8951	H	0.659103	0.362982	0.225614
	H8952	H	0.659471	0.142667	0.225576
	H8953	H	0.658935	0.143065	0.147656
	H8954	H	0.717355	0.142977	0.147788
	H8955	H	0.718525	0.363033	0.147631
	H8956	H	0.660357	0.363354	0.147773
	H8957	H	0.721525	0.143515	0.163221
	H8958	H	0.722743	0.363463	0.163064
	H8959	H	0.697347	0.065097	0.249737
	H8960	H	0.695565	0.064814	0.247046
	H8961	H	0.685433	0.064628	0.245956
	H8962	H	0.685551	0.941379	0.124529
	H8963	H	0.685938	0.941151	0.123560
	H8964	H	0.689415	0.941767	0.123022
	H8965	H	0.697380	0.941112	0.249677
	H8966	H	0.695440	0.941589	0.247015
	H8967	H	0.685412	0.941228	0.245965
	Zn8968	Zn	0.625888	0.680435	0.186620
	Zn8969	Zn	0.625792	0.825511	0.186647
	Zn8970	Zn	0.625775	0.180441	0.186644
	Zn8971	Zn	0.625953	0.325466	0.186625
	Zn8972	Zn	0.688324	0.680913	0.249146
	Zn8973	Zn	0.688461	0.825307	0.249093
	Zn8974	Zn	0.688530	0.180620	0.249095
	Zn8975	Zn	0.688356	0.324995	0.249153
	C8976	C	0.726676	0.752008	0.173286
	C8977	C	0.650647	0.752998	0.200013
	C8978	C	0.655084	0.752972	0.209218
	C8979	C	0.656163	0.690765	0.213583
	C8980	C	0.656227	0.815207	0.213578
	C8981	C	0.650703	0.253050	0.200008
	C8982	C	0.655090	0.252957	0.209205
	C8983	C	0.656213	0.190608	0.213570
	C8984	C	0.656015	0.315210	0.213598
	C8985	C	0.650739	0.753037	0.173296
	C8986	C	0.655172	0.752980	0.164086
	C8987	C	0.655820	0.815117	0.159680
	C8988	C	0.656562	0.690622	0.159726
	C8989	C	0.650812	0.252854	0.173289
	C8990	C	0.655248	0.252925	0.164090
	C8991	C	0.656742	0.315332	0.159753
	C8992	C	0.655950	0.190688	0.159690
	C8993	C	0.739095	0.043458	0.188198
	C8994	C	0.739077	0.962757	0.188193
	C8995	C	0.612466	0.043576	0.181963
	C8996	C	0.612459	0.962510	0.181960
	C8997	C	0.621196	0.043517	0.193124
	C8998	C	0.621139	0.962794	0.193141
	C8999	C	0.625699	0.462647	0.186841
	C9000	C	0.744246	0.462529	0.184791
	C9001	C	0.760093	0.462500	0.185145
	C9002	C	0.625696	0.543656	0.186838
	C9003	C	0.760051	0.543429	0.185149
	C9004	C	0.744268	0.543449	0.184785
	C9005	C	0.726586	0.751689	0.199978
	C9006	C	0.726719	0.254139	0.200008
	C9007	C	0.722000	0.751688	0.209185
	C9008	C	0.721247	0.689576	0.213602
	C9009	C	0.720685	0.813932	0.213535
	C9010	C	0.722147	0.254141	0.209206
	C9011	C	0.720812	0.191882	0.213537
	C9012	C	0.721438	0.316250	0.213629
	C9013	C	0.726774	0.253476	0.173296
	C9014	C	0.713487	0.753130	0.137558
	C9015	C	0.663871	0.752559	0.137546
	C9016	C	0.663586	0.752892	0.235732
	C9017	C	0.721695	0.690137	0.159679
	C9018	C	0.720935	0.814557	0.159727
	C9019	C	0.717967	0.752755	0.146759
	C9020	C	0.659454	0.752650	0.146760
	C9021	C	0.658747	0.690432	0.151150
	C9022	C	0.719433	0.690422	0.151113
	C9023	C	0.718676	0.814753	0.151161
	C9024	C	0.658019	0.814967	0.151108
	C9025	C	0.722298	0.752237	0.164079
	C9026	C	0.713093	0.752303	0.235730
	C9027	C	0.718960	0.689676	0.222179
	C9028	C	0.718373	0.814216	0.222104
	C9029	C	0.717530	0.752113	0.226518
	C9030	C	0.690884	0.462505	0.252465
	C9031	C	0.688977	0.462308	0.122070
	C9032	C	0.694922	0.462901	0.246733
	C9033	C	0.690874	0.543655	0.252471
	C9034	C	0.694911	0.543510	0.246738
	C9035	C	0.689004	0.543228	0.122047
	C9036	C	0.713187	0.253642	0.235731
	C9037	C	0.718522	0.191661	0.222107
	C9038	C	0.719141	0.316031	0.222202
	C9039	C	0.717687	0.253737	0.226528
	C9040	C	0.686513	0.043815	0.124068
	C9041	C	0.713442	0.252948	0.137556
	C9042	C	0.663946	0.253423	0.137567
	C9043	C	0.663653	0.252952	0.235722
	C9044	C	0.720779	0.191081	0.159752
	C9045	C	0.721435	0.315580	0.159665
	C9046	C	0.717861	0.253031	0.146760
	C9047	C	0.659481	0.253272	0.146770
	C9048	C	0.659281	0.752891	0.226547
	C9049	C	0.658337	0.815182	0.222151
	C9050	C	0.658260	0.690704	0.222161
	C9051	C	0.659215	0.252854	0.226515
	C9052	C	0.658175	0.315212	0.222169
	C9053	C	0.658385	0.190484	0.222142
	C9054	C	0.658154	0.190861	0.151119
	C9055	C	0.718576	0.190917	0.151179
	C9056	C	0.719233	0.315338	0.151095
	C9057	C	0.658918	0.315499	0.151181
	C9058	C	0.722200	0.253478	0.164090
	C9059	C	0.694320	0.043661	0.248556
	C9060	C	0.690017	0.043248	0.123558
	C9061	C	0.686524	0.962658	0.124063
	C9062	C	0.694302	0.962733	0.248547
	C9063	C	0.689994	0.962582	0.123566
	N9064	N	0.625792	0.070202	0.186619
	N9065	N	0.625794	0.935611	0.186633
	N9066	N	0.625952	0.435761	0.186617
	N9067	N	0.625909	0.570316	0.186608
	N9068	N	0.688266	0.435742	0.249203
	N9069	N	0.688252	0.570474	0.249193
	N9070	N	0.688389	0.070457	0.249059
	N9071	N	0.688371	0.935865	0.249045
	O9072	O	0.728536	0.695868	0.301755
	O9073	O	0.729039	0.812815	0.301688
	O9074	O	0.648612	0.694169	0.321567
	O9075	O	0.648731	0.810813	0.321524
	O9076	O	0.648806	0.194963	0.321538
	O9077	O	0.648567	0.311635	0.321572
	O9078	O	0.648610	0.694445	0.301809
	O9079	O	0.648886	0.811292	0.301864
	O9080	O	0.648754	0.194932	0.301787
	O9081	O	0.648583	0.311778	0.301764
	O9082	O	0.728566	0.695707	0.321497
	O9083	O	0.728992	0.812655	0.321571
	O9084	O	0.728879	0.193511	0.321505
	O9085	O	0.728630	0.310433	0.321512
	O9086	O	0.729160	0.193386	0.301626
	O9087	O	0.728604	0.310282	0.301710
	O9088	O	0.710684	0.694802	0.259012
	O9089	O	0.666246	0.695169	0.259048
	O9090	O	0.711344	0.694419	0.364262
	O9091	O	0.711475	0.810994	0.364304
	O9092	O	0.666766	0.694946	0.364274
	O9093	O	0.666819	0.811668	0.364260
	O9094	O	0.666351	0.811848	0.259038
	O9095	O	0.710978	0.811562	0.258935
	O9096	O	0.711099	0.194381	0.258867
	O9097	O	0.666337	0.194393	0.259052
	O9098	O	0.711513	0.195115	0.364315
	O9099	O	0.711118	0.311882	0.364213
	O9100	O	0.666940	0.194097	0.364253
	O9101	O	0.666507	0.310953	0.364304
	O9102	O	0.665938	0.311246	0.258979
	O9103	O	0.710684	0.311204	0.259024
	H9104	H	0.655113	0.642932	0.335216
	H9105	H	0.655934	0.862695	0.335153
	H9106	H	0.655862	0.142979	0.335164
	H9107	H	0.655189	0.363159	0.335267
	H9108	H	0.655826	0.862997	0.288191
	H9109	H	0.655384	0.643229	0.288121
	H9110	H	0.655317	0.363273	0.288075
	H9111	H	0.655871	0.143019	0.288162
	H9112	H	0.756944	0.064734	0.316886
	H9113	H	0.766079	0.064751	0.313457
	H9114	H	0.766044	0.941345	0.313441
	H9115	H	0.756958	0.941319	0.316869
	H9116	H	0.739319	0.064528	0.315337
	H9117	H	0.739380	0.941285	0.315323
	H9118	H	0.638797	0.064915	0.308838
	H9119	H	0.638746	0.941441	0.308812
	H9120	H	0.628343	0.064725	0.306448
	H9121	H	0.628453	0.941336	0.306433
	H9122	H	0.613474	0.064275	0.309233
	H9123	H	0.613440	0.941185	0.309227
	H9124	H	0.627860	0.441179	0.310766
	H9125	H	0.625424	0.441228	0.310625
	H9126	H	0.629164	0.441875	0.311905
	H9127	H	0.744788	0.441286	0.310164
	H9128	H	0.752442	0.441273	0.309200
	H9129	H	0.757022	0.441385	0.310570
	H9130	H	0.625326	0.565022	0.310663
	H9131	H	0.627852	0.564988	0.310757
	H9132	H	0.756883	0.564758	0.310548
	H9133	H	0.752479	0.565011	0.309196
	H9134	H	0.744904	0.564976	0.310167
	H9135	H	0.629172	0.564469	0.311906
	H9136	H	0.721554	0.644115	0.335075
	H9137	H	0.722877	0.863781	0.335287
	H9138	H	0.722597	0.141951	0.335258
	H9139	H	0.721654	0.362268	0.335095
	H9140	H	0.659436	0.643527	0.272674
	H9141	H	0.717771	0.643555	0.272682
	H9142	H	0.717993	0.863453	0.272608
	H9143	H	0.659861	0.863311	0.272777
	H9144	H	0.721831	0.643974	0.288126
	H9145	H	0.722104	0.863978	0.288040
	H9146	H	0.717574	0.643217	0.350504
	H9147	H	0.718936	0.863055	0.350732
	H9148	H	0.686044	0.441258	0.254231
	H9149	H	0.681397	0.441493	0.372067
	H9150	H	0.674352	0.441169	0.250154
	H9151	H	0.677176	0.441102	0.245963
	H9152	H	0.687657	0.441314	0.377505
	H9153	H	0.680915	0.441571	0.375980
	H9154	H	0.681438	0.564732	0.372069
	H9155	H	0.686091	0.565093	0.254229
	H9156	H	0.681050	0.564921	0.376001
	H9157	H	0.687763	0.564812	0.377518
	H9158	H	0.677296	0.564861	0.245975
	H9159	H	0.674245	0.564617	0.250127
	H9160	H	0.718762	0.142689	0.350710
	H9161	H	0.717877	0.363046	0.350530
	H9162	H	0.682289	0.064663	0.251527
	H9163	H	0.689853	0.064797	0.252283
	H9164	H	0.679964	0.064895	0.247855
	H9165	H	0.660178	0.863085	0.350572
	H9166	H	0.659373	0.643173	0.350639
	H9167	H	0.659459	0.362695	0.350691
	H9168	H	0.660200	0.142664	0.350580
	H9169	H	0.659836	0.142799	0.272730
	H9170	H	0.718305	0.142207	0.272522
	H9171	H	0.717511	0.362501	0.272637
	H9172	H	0.659276	0.362969	0.272607
	H9173	H	0.722508	0.141889	0.287950
	H9174	H	0.721673	0.362168	0.288070
	H9175	H	0.696422	0.064428	0.377687
	H9176	H	0.701316	0.064753	0.374471
	H9177	H	0.694098	0.065098	0.370190
	H9178	H	0.689770	0.941205	0.252300
	H9179	H	0.682429	0.941694	0.251541
	H9180	H	0.679958	0.941263	0.247875
	H9181	H	0.696414	0.940996	0.377688
	H9182	H	0.701390	0.941091	0.374470
	H9183	H	0.694096	0.941553	0.370149
	Zn9184	Zn	0.626292	0.680603	0.311682
	Zn9185	Zn	0.626400	0.825414	0.311649
	Zn9186	Zn	0.626474	0.180504	0.311642
	Zn9187	Zn	0.626259	0.325413	0.311678
	Zn9188	Zn	0.688934	0.680550	0.374176
	Zn9189	Zn	0.689177	0.825574	0.374145
	Zn9190	Zn	0.689200	0.180885	0.374162
	Zn9191	Zn	0.688930	0.325827	0.374121
	C9192	C	0.726371	0.754288	0.298220
	C9193	C	0.651164	0.752575	0.325055
	C9194	C	0.655614	0.752831	0.334230
	C9195	C	0.656329	0.690790	0.338627
	C9196	C	0.656821	0.815013	0.338590
	C9197	C	0.651111	0.253245	0.325071
	C9198	C	0.655536	0.253124	0.334268
	C9199	C	0.656807	0.190744	0.338615
	C9200	C	0.656414	0.315289	0.338669
	C9201	C	0.651214	0.752941	0.298331
	C9202	C	0.655444	0.753106	0.289116
	C9203	C	0.656650	0.815288	0.284762
	C9204	C	0.656411	0.691075	0.284709
	C9205	C	0.651115	0.253307	0.298262
	C9206	C	0.655420	0.253229	0.289061
	C9207	C	0.656303	0.315370	0.284654
	C9208	C	0.656605	0.190856	0.284719
	C9209	C	0.758806	0.043432	0.314230
	C9210	C	0.758782	0.962584	0.314222
	C9211	C	0.631704	0.043366	0.308691
	C9212	C	0.631709	0.962569	0.308692
	C9213	C	0.616686	0.043480	0.311486
	C9214	C	0.616663	0.962583	0.311486
	C9215	C	0.626511	0.462500	0.310962
	C9216	C	0.745941	0.462555	0.311315
	C9217	C	0.753624	0.462646	0.310353
	C9218	C	0.626495	0.543683	0.310963
	C9219	C	0.753610	0.543542	0.310345
	C9220	C	0.746007	0.543531	0.311318
	C9221	C	0.726403	0.754138	0.325036
	C9222	C	0.726295	0.251894	0.325013
	C9223	C	0.722176	0.754050	0.334252
	C9224	C	0.720871	0.691636	0.338560
	C9225	C	0.721632	0.815955	0.338680
	C9226	C	0.722055	0.252006	0.334226
	C9227	C	0.721433	0.189947	0.338657
	C9228	C	0.720929	0.314528	0.338557
	C9229	C	0.726432	0.251910	0.298167
	C9230	C	0.713392	0.753287	0.262485
	C9231	C	0.663788	0.753556	0.262559
	C9232	C	0.664303	0.753278	0.360757
	C9233	C	0.720962	0.691613	0.284674
	C9234	C	0.721143	0.816078	0.284629
	C9235	C	0.717867	0.753425	0.271700
	C9236	C	0.659476	0.753542	0.271770
	C9237	C	0.658433	0.691247	0.276130
	C9238	C	0.718820	0.691393	0.276105
	C9239	C	0.718978	0.815734	0.276058
	C9240	C	0.658688	0.815518	0.276185
	C9241	C	0.722078	0.753921	0.289022
	C9242	C	0.713855	0.752758	0.360761
	C9243	C	0.718795	0.691144	0.347124
	C9244	C	0.719542	0.815500	0.347251
	C9245	C	0.718175	0.753103	0.351567
	C9246	C	0.686012	0.462742	0.372117
	C9247	C	0.679068	0.462628	0.248352
	C9248	C	0.685552	0.462557	0.376064
	C9249	C	0.686043	0.543514	0.372118
	C9250	C	0.685596	0.543522	0.376075
	C9251	C	0.679072	0.543617	0.248349
	C9252	C	0.713775	0.253351	0.360756
	C9253	C	0.719360	0.190368	0.347235
	C9254	C	0.718889	0.315006	0.347130
	C9255	C	0.718085	0.252895	0.351548
	C9256	C	0.686675	0.043389	0.251159
	C9257	C	0.713421	0.252535	0.262448
	C9258	C	0.663706	0.252903	0.262520
	C9259	C	0.664143	0.252543	0.360786
	C9260	C	0.721302	0.189821	0.284546
	C9261	C	0.720863	0.314494	0.284617
	C9262	C	0.717933	0.252372	0.271638
	C9263	C	0.659461	0.252934	0.271736
	C9264	C	0.659851	0.753187	0.351561
	C9265	C	0.658989	0.815181	0.347159
	C9266	C	0.658519	0.690917	0.347200
	C9267	C	0.659806	0.252687	0.351578
	C9268	C	0.658586	0.315024	0.347236
	C9269	C	0.658981	0.190509	0.347183
	C9270	C	0.658693	0.190735	0.276145
	C9271	C	0.719173	0.189952	0.275975
	C9272	C	0.718754	0.314635	0.276045
	C9273	C	0.658389	0.315294	0.276079
	C9274	C	0.722157	0.252067	0.288954
	C9275	C	0.696339	0.043455	0.375583
	C9276	C	0.684177	0.043630	0.247475
	C9277	C	0.686700	0.962638	0.251171
	C9278	C	0.696366	0.962616	0.375577
	C9279	C	0.684143	0.962639	0.247498
	N9280	N	0.626460	0.070259	0.311638
	N9281	N	0.626447	0.935683	0.311643
	N9282	N	0.626238	0.435825	0.311663
	N9283	N	0.626215	0.570432	0.311670
	N9284	N	0.688870	0.435812	0.374135
	N9285	N	0.688932	0.570289	0.374147
	N9286	N	0.689174	0.070481	0.374174
	N9287	N	0.689190	0.935828	0.374165
	O9288	O	0.729473	0.693595	0.426741
	O9289	O	0.729028	0.810361	0.426820
	O9290	O	0.648774	0.695441	0.446468
	O9291	O	0.648362	0.812239	0.446562
	O9292	O	0.648266	0.194562	0.446527
	O9293	O	0.648615	0.311413	0.446538
	O9294	O	0.648454	0.695359	0.426738
	O9295	O	0.648478	0.812284	0.426714
	O9296	O	0.648476	0.194173	0.426761
	O9297	O	0.648950	0.311015	0.426789
	O9298	O	0.729575	0.694385	0.446500
	O9299	O	0.729046	0.811389	0.446467
	O9300	O	0.729154	0.195816	0.446478
	O9301	O	0.729650	0.312498	0.446549
	O9302	O	0.728810	0.196357	0.426808
	O9303	O	0.729453	0.313150	0.426795
	O9304	O	0.711488	0.694192	0.384059
	O9305	O	0.666576	0.695275	0.383975
	O9306	O	0.711433	0.695485	0.489291
	O9307	O	0.710901	0.812210	0.489219
	O9308	O	0.666840	0.693526	0.489184
	O9309	O	0.666221	0.810270	0.489355
	O9310	O	0.666929	0.811877	0.384042
	O9311	O	0.711495	0.811094	0.384030
	O9312	O	0.711431	0.195729	0.384075
	O9313	O	0.666845	0.194226	0.384043
	O9314	O	0.711086	0.193817	0.489206
	O9315	O	0.711450	0.310640	0.489285
	O9316	O	0.666266	0.195611	0.489297
	O9317	O	0.666918	0.312320	0.489195
	O9318	O	0.666827	0.311008	0.384048
	O9319	O	0.711543	0.312481	0.383964
	H9320	H	0.656213	0.643324	0.460036
	H9321	H	0.655048	0.863413	0.460273
	H9322	H	0.654777	0.143037	0.460199
	H9323	H	0.656216	0.363220	0.460108
	H9324	H	0.655318	0.863847	0.413081
	H9325	H	0.655445	0.643816	0.413103
	H9326	H	0.655708	0.362684	0.413146
	H9327	H	0.655346	0.142556	0.413121
	H9328	H	0.752343	0.064718	0.436093
	H9329	H	0.750895	0.065083	0.435999
	H9330	H	0.750884	0.941424	0.436037
	H9331	H	0.752307	0.941470	0.436115
	H9332	H	0.752969	0.064630	0.436747
	H9333	H	0.752930	0.941346	0.436764
	H9334	H	0.615804	0.065393	0.430844
	H9335	H	0.615878	0.941623	0.430820
	H9336	H	0.607180	0.064985	0.435689
	H9337	H	0.607179	0.941381	0.435659
	H9338	H	0.617304	0.064991	0.442660
	H9339	H	0.617265	0.941369	0.442674
	H9340	H	0.621814	0.441219	0.435804
	H9341	H	0.621721	0.441418	0.437356
	H9342	H	0.627017	0.441450	0.434827
	H9343	H	0.753471	0.440842	0.438668
	H9344	H	0.747163	0.440899	0.437868
	H9345	H	0.746397	0.441578	0.436110
	H9346	H	0.621551	0.564859	0.437376
	H9347	H	0.621798	0.565316	0.435829
	H9348	H	0.746282	0.564405	0.436118
	H9349	H	0.747190	0.565019	0.437830
	H9350	H	0.753427	0.564913	0.438656
	H9351	H	0.627037	0.565115	0.434816
	H9352	H	0.722805	0.642909	0.460220
	H9353	H	0.722020	0.863141	0.460122
	H9354	H	0.721991	0.143450	0.460074
	H9355	H	0.722763	0.363944	0.460266
	H9356	H	0.659840	0.643472	0.397668
	H9357	H	0.718637	0.642618	0.397672
	H9358	H	0.717870	0.862748	0.397724
	H9359	H	0.659776	0.863885	0.397662
	H9360	H	0.722699	0.642371	0.413119
	H9361	H	0.721932	0.862426	0.413164
	H9362	H	0.718484	0.643299	0.475651
	H9363	H	0.717734	0.863697	0.475543
	H9364	H	0.688447	0.441530	0.370717
	H9365	H	0.686810	0.441552	0.500956
	H9366	H	0.697686	0.441200	0.372827
	H9367	H	0.697346	0.441016	0.375682
	H9368	H	0.694672	0.441433	0.498987
	H9369	H	0.693054	0.441314	0.500577
	H9370	H	0.686862	0.564560	0.500967
	H9371	H	0.688525	0.564891	0.370731
	H9372	H	0.693121	0.564923	0.500507
	H9373	H	0.694701	0.565179	0.498971
	H9374	H	0.697449	0.564654	0.375683
	H9375	H	0.697837	0.564386	0.372809
	H9376	H	0.717598	0.142596	0.475474
	H9377	H	0.718384	0.362923	0.475710
	H9378	H	0.677075	0.064670	0.374642
	H9379	H	0.682394	0.064919	0.377777
	H9380	H	0.683804	0.064850	0.370244
	H9381	H	0.659096	0.862537	0.475698
	H9382	H	0.660384	0.642514	0.475466
	H9383	H	0.660334	0.363613	0.475537
	H9384	H	0.658886	0.143467	0.475638
	H9385	H	0.659594	0.142595	0.397717
	H9386	H	0.717652	0.144699	0.397717
	H9387	H	0.718591	0.364573	0.397649
	H9388	H	0.660003	0.362664	0.397696
	H9389	H	0.721893	0.144890	0.413145
	H9390	H	0.722829	0.364863	0.413081
	H9391	H	0.690772	0.064585	0.504223
	H9392	H	0.700905	0.064450	0.501832
	H9393	H	0.699731	0.064355	0.495857
	H9394	H	0.682367	0.941242	0.377801
	H9395	H	0.677058	0.941039	0.374652
	H9396	H	0.683847	0.941733	0.370207
	H9397	H	0.690811	0.941594	0.504190
	H9398	H	0.700833	0.940941	0.501768
	H9399	H	0.699630	0.941399	0.495869
	Zn9400	Zn	0.626318	0.680759	0.436667
	Zn9401	Zn	0.626177	0.825482	0.436625
	Zn9402	Zn	0.626177	0.180794	0.436605
	Zn9403	Zn	0.626428	0.325517	0.436633
	Zn9404	Zn	0.689240	0.680572	0.499120
	Zn9405	Zn	0.688646	0.825832	0.499161
	Zn9406	Zn	0.688697	0.180562	0.499109
	Zn9407	Zn	0.689137	0.325790	0.499148
	C9408	C	0.726752	0.752059	0.423271
	C9409	C	0.651044	0.753730	0.450021
	C9410	C	0.655519	0.753358	0.459206
	C9411	C	0.656902	0.690919	0.463510
	C9412	C	0.656191	0.815331	0.463649
	C9413	C	0.650951	0.252883	0.450031
	C9414	C	0.655352	0.252998	0.459217
	C9415	C	0.655944	0.190895	0.463615
	C9416	C	0.656740	0.315415	0.463566
	C9417	C	0.650952	0.753759	0.423220
	C9418	C	0.655445	0.753774	0.414023
	C9419	C	0.656462	0.816014	0.409642
	C9420	C	0.656566	0.691552	0.409651
	C9421	C	0.651129	0.252547	0.423268
	C9422	C	0.655609	0.252551	0.414075
	C9423	C	0.656721	0.314843	0.409704
	C9424	C	0.656510	0.190377	0.409696
	C9425	C	0.751497	0.043575	0.436207
	C9426	C	0.751516	0.962588	0.436201
	C9427	C	0.615363	0.043674	0.434138
	C9428	C	0.615375	0.962881	0.434127
	C9429	C	0.625500	0.043606	0.441171
	C9430	C	0.625486	0.962802	0.441176
	C9431	C	0.622983	0.462710	0.436610
	C9432	C	0.754498	0.462760	0.437716
	C9433	C	0.748159	0.462579	0.436902
	C9434	C	0.622952	0.543733	0.436614
	C9435	C	0.748104	0.543342	0.436883
	C9436	C	0.754423	0.543596	0.437710
	C9437	C	0.726867	0.752866	0.449985
	C9438	C	0.726897	0.254129	0.450018
	C9439	C	0.722457	0.752896	0.459208
	C9440	C	0.721624	0.690808	0.463626
	C9441	C	0.721191	0.815300	0.463564
	C9442	C	0.722495	0.253735	0.459211
	C9443	C	0.721163	0.191232	0.463527
	C9444	C	0.721619	0.315798	0.463649
	C9445	C	0.726722	0.254868	0.423284
	C9446	C	0.713874	0.752686	0.387540
	C9447	C	0.664292	0.753507	0.387517
	C9448	C	0.664077	0.752094	0.485755
	C9449	C	0.721627	0.690207	0.409681
	C9450	C	0.721170	0.814732	0.409711
	C9451	C	0.718331	0.752697	0.396736
	C9452	C	0.659836	0.753630	0.396707
	C9453	C	0.658844	0.691443	0.401084
	C9454	C	0.719545	0.690396	0.401106
	C9455	C	0.719097	0.814855	0.401134
	C9456	C	0.658740	0.815950	0.401079
	C9457	C	0.722324	0.752358	0.414061
	C9458	C	0.713641	0.753797	0.485743
	C9459	C	0.719377	0.691029	0.472203
	C9460	C	0.718935	0.815653	0.472136
	C9461	C	0.718111	0.753479	0.476548
	C9462	C	0.686343	0.462597	0.500005
	C9463	C	0.695310	0.462552	0.374223
	C9464	C	0.692701	0.462699	0.499609
	C9465	C	0.686371	0.543478	0.500008
	C9466	C	0.692662	0.543769	0.499606
	C9467	C	0.695311	0.543459	0.374228
	C9468	C	0.713702	0.252315	0.485734
	C9469	C	0.718957	0.190676	0.472092
	C9470	C	0.719408	0.315281	0.472222
	C9471	C	0.718169	0.252657	0.476534
	C9472	C	0.682209	0.043403	0.375686
	C9473	C	0.713950	0.254333	0.387525
	C9474	C	0.664324	0.252569	0.387549
	C9475	C	0.664145	0.253872	0.485741
	C9476	C	0.720989	0.192664	0.409707
	C9477	C	0.721571	0.316989	0.409672
	C9478	C	0.718246	0.254678	0.396731
	C9479	C	0.659863	0.252556	0.396748
	C9480	C	0.659627	0.752403	0.476549
	C9481	C	0.658319	0.814888	0.472225
	C9482	C	0.659047	0.690464	0.472085
	C9483	C	0.659582	0.253512	0.476536
	C9484	C	0.658979	0.315694	0.472136
	C9485	C	0.658196	0.191187	0.472187
	C9486	C	0.658727	0.190417	0.401130
	C9487	C	0.718923	0.192516	0.401131
	C9488	C	0.719457	0.316874	0.401098
	C9489	C	0.658946	0.314829	0.401128
	C9490	C	0.722314	0.254905	0.414074
	C9491	C	0.693924	0.043490	0.501989
	C9492	C	0.689043	0.043576	0.371246
	C9493	C	0.682219	0.962444	0.375667
	C9494	C	0.693940	0.962636	0.501963
	C9495	C	0.689021	0.962865	0.371237
	N9496	N	0.626074	0.070537	0.436618
	N9497	N	0.626124	0.935933	0.436609
	N9498	N	0.626416	0.435841	0.436651
	N9499	N	0.626393	0.570408	0.436663
	N9500	N	0.689169	0.435942	0.499123
	N9501	N	0.689162	0.570436	0.499140
	N9502	N	0.688625	0.070499	0.499108
	N9503	N	0.688632	0.936006	0.499112
	O9504	O	0.729192	0.694945	0.551740
	O9505	O	0.729263	0.811643	0.551813
	O9506	O	0.648584	0.694192	0.571533
	O9507	O	0.648803	0.811039	0.571488
	O9508	O	0.648756	0.195111	0.571494
	O9509	O	0.648576	0.311814	0.571518
	O9510	O	0.648764	0.694502	0.551772
	O9511	O	0.648811	0.811184	0.551752
	O9512	O	0.648639	0.195140	0.551774
	O9513	O	0.648513	0.312068	0.551713
	O9514	O	0.729083	0.694773	0.571424
	O9515	O	0.729362	0.811421	0.571488
	O9516	O	0.729261	0.194424	0.571442
	O9517	O	0.729297	0.311207	0.571447
	O9518	O	0.729554	0.194172	0.551733
	O9519	O	0.729621	0.310996	0.551687
	O9520	O	0.711351	0.695540	0.508988
	O9521	O	0.666718	0.693399	0.508992
	O9522	O	0.711219	0.693486	0.614175
	O9523	O	0.711497	0.810334	0.614215
	O9524	O	0.666473	0.694880	0.614257
	O9525	O	0.667046	0.811822	0.614176
	O9526	O	0.666529	0.810312	0.509005
	O9527	O	0.710883	0.812395	0.509037
	O9528	O	0.711056	0.193136	0.509007
	O9529	O	0.666383	0.195522	0.508954
	O9530	O	0.711631	0.194971	0.614249
	O9531	O	0.711091	0.311705	0.614185
	O9532	O	0.666977	0.193745	0.614195
	O9533	O	0.666430	0.310670	0.614272
	O9534	O	0.666819	0.312394	0.509028
	O9535	O	0.711351	0.309976	0.508967
	H9536	H	0.655042	0.642820	0.585240
	H9537	H	0.656088	0.863077	0.585127
	H9538	H	0.655961	0.142963	0.585121
	H9539	H	0.655226	0.363212	0.585220
	H9540	H	0.655417	0.862405	0.538041
	H9541	H	0.655774	0.642227	0.538105
	H9542	H	0.655724	0.363883	0.538128
	H9543	H	0.655317	0.143756	0.538056
	H9544	H	0.752921	0.065088	0.557230
	H9545	H	0.743155	0.064635	0.558478
	H9546	H	0.743140	0.941441	0.558477
	H9547	H	0.752781	0.941139	0.557273
	H9548	H	0.763615	0.064909	0.560532
	H9549	H	0.763554	0.941583	0.560528
	H9550	H	0.627222	0.064743	0.560758
	H9551	H	0.627293	0.941318	0.560736
	H9552	H	0.625141	0.064943	0.560835
	H9553	H	0.625086	0.941379	0.560824
	H9554	H	0.623902	0.064961	0.561822
	H9555	H	0.623916	0.941058	0.561828
	H9556	H	0.622465	0.441739	0.561411
	H9557	H	0.623363	0.441265	0.562477
	H9558	H	0.625483	0.441535	0.560253
	H9559	H	0.737903	0.441121	0.561385
	H9560	H	0.747619	0.441166	0.556886
	H9561	H	0.759181	0.441095	0.557443
	H9562	H	0.623320	0.564848	0.562546
	H9563	H	0.622358	0.564877	0.561400
	H9564	H	0.759109	0.564882	0.557495
	H9565	H	0.747624	0.564762	0.556882
	H9566	H	0.737886	0.564352	0.561386
	H9567	H	0.625527	0.564781	0.560229
	H9568	H	0.721695	0.642731	0.585030
	H9569	H	0.723166	0.862873	0.585188
	H9570	H	0.722955	0.143016	0.585183
	H9571	H	0.721724	0.363031	0.585038
	H9572	H	0.659844	0.641914	0.522686
	H9573	H	0.718119	0.644062	0.522669
	H9574	H	0.718188	0.863865	0.522717
	H9575	H	0.659506	0.861708	0.522582
	H9576	H	0.722251	0.643740	0.538113
	H9577	H	0.722398	0.863619	0.538158
	H9578	H	0.717506	0.642267	0.600461
	H9579	H	0.718931	0.862360	0.600627
	H9580	H	0.683842	0.441067	0.499654
	H9581	H	0.691058	0.440940	0.628635
	H9582	H	0.686134	0.441221	0.497510
	H9583	H	0.690676	0.442062	0.497217
	H9584	H	0.698805	0.440777	0.621106
	H9585	H	0.701446	0.440801	0.624893
	H9586	H	0.691036	0.564392	0.628647
	H9587	H	0.683896	0.565043	0.499690
	H9588	H	0.701627	0.564341	0.624891
	H9589	H	0.698756	0.564732	0.621108
	H9590	H	0.690687	0.564858	0.497262
	H9591	H	0.686101	0.565051	0.497509
	H9592	H	0.718923	0.143208	0.600613
	H9593	H	0.717704	0.363296	0.600507
	H9594	H	0.675273	0.065411	0.497246
	H9595	H	0.675965	0.064990	0.501578
	H9596	H	0.688917	0.065136	0.493979
	H9597	H	0.660271	0.863306	0.600561
	H9598	H	0.659144	0.643083	0.600684
	H9599	H	0.659375	0.362532	0.600663
	H9600	H	0.660151	0.142593	0.600542
	H9601	H	0.659403	0.143958	0.522626
	H9602	H	0.718047	0.141927	0.522690
	H9603	H	0.718665	0.361419	0.522567
	H9604	H	0.659778	0.364252	0.522659
	H9605	H	0.722338	0.142308	0.538142
	H9606	H	0.722853	0.362098	0.538000
	H9607	H	0.680481	0.064528	0.618677
	H9608	H	0.671941	0.064555	0.622987
	H9609	H	0.680516	0.064371	0.629589
	H9610	H	0.676114	0.941584	0.501628
	H9611	H	0.675195	0.941428	0.497309
	H9612	H	0.688955	0.941282	0.493983
	H9613	H	0.680351	0.941012	0.618685
	H9614	H	0.671987	0.940951	0.623015
	H9615	H	0.680546	0.940692	0.629610
	Zn9616	Zn	0.626296	0.680800	0.561624
	Zn9617	Zn	0.626543	0.825568	0.561630
	Zn9618	Zn	0.626386	0.180775	0.561651
	Zn9619	Zn	0.626272	0.325241	0.561614
	Zn9620	Zn	0.688898	0.680437	0.624069
	Zn9621	Zn	0.689281	0.825309	0.624074
	Zn9622	Zn	0.689173	0.180477	0.624094
	Zn9623	Zn	0.688877	0.325433	0.624099
	C9624	C	0.726771	0.753464	0.548270
	C9625	C	0.651201	0.752649	0.575020
	C9626	C	0.655614	0.752924	0.584226
	C9627	C	0.656337	0.690734	0.588645
	C9628	C	0.656954	0.815294	0.588576
	C9629	C	0.651158	0.253414	0.575017
	C9630	C	0.655613	0.253188	0.584214
	C9631	C	0.656861	0.190745	0.588566
	C9632	C	0.656487	0.315288	0.588622
	C9633	C	0.651237	0.752731	0.548250
	C9634	C	0.655565	0.752404	0.539049
	C9635	C	0.656466	0.814480	0.534638
	C9636	C	0.656670	0.690071	0.534679
	C9637	C	0.651109	0.253530	0.548252
	C9638	C	0.655499	0.253769	0.539033
	C9639	C	0.656586	0.316222	0.534672
	C9640	C	0.656403	0.191638	0.534641
	C9641	C	0.748997	0.043361	0.558846
	C9642	C	0.748992	0.962348	0.558859
	C9643	C	0.626251	0.043341	0.561020
	C9644	C	0.626307	0.962585	0.561024
	C9645	C	0.625051	0.043619	0.562000
	C9646	C	0.625106	0.962677	0.562014
	C9647	C	0.623772	0.462726	0.561854
	C9648	C	0.743139	0.462382	0.562884
	C9649	C	0.752940	0.462310	0.558358
	C9650	C	0.623747	0.543485	0.561867
	C9651	C	0.752935	0.543334	0.558345
	C9652	C	0.743123	0.543317	0.562870
	C9653	C	0.726721	0.753044	0.574964
	C9654	C	0.726778	0.252824	0.574949
	C9655	C	0.722411	0.752859	0.584157
	C9656	C	0.720973	0.690480	0.588487
	C9657	C	0.721779	0.814926	0.588580
	C9658	C	0.722396	0.252898	0.584171
	C9659	C	0.721691	0.190811	0.588585
	C9660	C	0.721081	0.315274	0.588510
	C9661	C	0.727042	0.252530	0.548219
	C9662	C	0.713666	0.753985	0.512520
	C9663	C	0.664126	0.751763	0.512498
	C9664	C	0.664214	0.753296	0.610732
	C9665	C	0.721323	0.691566	0.534687
	C9666	C	0.721368	0.815882	0.534719
	C9667	C	0.718113	0.753899	0.521747
	C9668	C	0.659705	0.751865	0.521715
	C9669	C	0.658798	0.689723	0.526109
	C9670	C	0.719154	0.691713	0.526113
	C9671	C	0.719163	0.815987	0.526144
	C9672	C	0.658564	0.814211	0.526059
	C9673	C	0.722382	0.753629	0.539080
	C9674	C	0.713842	0.751941	0.610690
	C9675	C	0.718830	0.690134	0.597062
	C9676	C	0.719605	0.814629	0.597152
	C9677	C	0.718144	0.752197	0.601477
	C9678	C	0.686638	0.462310	0.627057
	C9679	C	0.688602	0.462973	0.497836
	C9680	C	0.697192	0.462299	0.623282
	C9681	C	0.686620	0.543139	0.627068
	C9682	C	0.697228	0.543265	0.623286
	C9683	C	0.688581	0.543603	0.497846
	C9684	C	0.713802	0.253319	0.610707
	C9685	C	0.719560	0.191014	0.597164
	C9686	C	0.718929	0.315437	0.597095
	C9687	C	0.718216	0.253288	0.601505
	C9688	C	0.679021	0.043778	0.499358
	C9689	C	0.713747	0.251552	0.512483
	C9690	C	0.664083	0.253913	0.512488
	C9691	C	0.664152	0.252312	0.610748
	C9692	C	0.721372	0.190010	0.534687
	C9693	C	0.721703	0.314227	0.534606
	C9694	C	0.718186	0.251639	0.521700
	C9695	C	0.659749	0.254082	0.521703
	C9696	C	0.659844	0.753227	0.601533
	C9697	C	0.659116	0.815471	0.597140
	C9698	C	0.658470	0.690795	0.597214
	C9699	C	0.659867	0.252589	0.601527
	C9700	C	0.658639	0.314970	0.597193
	C9701	C	0.659022	0.190439	0.597133
	C9702	C	0.658593	0.191732	0.526069
	C9703	C	0.719107	0.189669	0.526113
	C9704	C	0.719457	0.313911	0.526034
	C9705	C	0.658785	0.316354	0.526095
	C9706	C	0.722584	0.252277	0.539022
	C9707	C	0.679648	0.043127	0.621703
	C9708	C	0.692829	0.043417	0.496019
	C9709	C	0.679054	0.962816	0.499367
	C9710	C	0.679620	0.962214	0.621707
	C9711	C	0.692751	0.962672	0.496020
	N9712	N	0.626407	0.070477	0.561642
	N9713	N	0.626490	0.935857	0.561626
	N9714	N	0.626215	0.435723	0.561600
	N9715	N	0.626232	0.570351	0.561617
	N9716	N	0.688825	0.435625	0.624083
	N9717	N	0.688854	0.570177	0.624059
	N9718	N	0.689211	0.070004	0.624103
	N9719	N	0.689235	0.935392	0.624123
	O9720	O	0.728965	0.693883	0.676779
	O9721	O	0.729021	0.810858	0.676726
	O9722	O	0.648267	0.692494	0.696535
	O9723	O	0.648913	0.809621	0.696485
	O9724	O	0.648838	0.195793	0.696469
	O9725	O	0.648371	0.312646	0.696512
	O9726	O	0.648312	0.693282	0.676675
	O9727	O	0.649209	0.809990	0.676740
	O9728	O	0.649111	0.196746	0.676792
	O9729	O	0.648427	0.313578	0.676656
	O9730	O	0.728894	0.694738	0.696538
	O9731	O	0.729165	0.811726	0.696565
	O9732	O	0.728932	0.194088	0.696548
	O9733	O	0.728748	0.311002	0.696479
	O9734	O	0.728915	0.194425	0.676772
	O9735	O	0.728940	0.311317	0.676776
	O9736	O	0.711164	0.693435	0.633971
	O9737	O	0.666359	0.694745	0.633907
	O9738	O	0.710977	0.695097	0.739298
	O9739	O	0.711011	0.812070	0.739313
	O9740	O	0.666455	0.692848	0.739273
	O9741	O	0.666189	0.809577	0.739263
	O9742	O	0.666933	0.811649	0.634012
	O9743	O	0.711496	0.810249	0.633947
	O9744	O	0.711465	0.195093	0.633998
	O9745	O	0.666946	0.193981	0.634038
	O9746	O	0.711056	0.194028	0.739268
	O9747	O	0.711003	0.310898	0.739278
	O9748	O	0.666177	0.194974	0.739264
	O9749	O	0.666619	0.311911	0.739184
	O9750	O	0.666365	0.310829	0.633904
	O9751	O	0.711095	0.311925	0.634016
	H9752	H	0.655340	0.640990	0.710134
	H9753	H	0.655536	0.861211	0.710156
	H9754	H	0.655349	0.143957	0.710152
	H9755	H	0.655669	0.364323	0.710143
	H9756	H	0.656554	0.862034	0.663132
	H9757	H	0.654728	0.641882	0.663012
	H9758	H	0.654309	0.364655	0.662867
	H9759	H	0.656816	0.144652	0.663230
	H9760	H	0.749623	0.064334	0.684323
	H9761	H	0.745301	0.064289	0.685527
	H9762	H	0.745457	0.940849	0.685541
	H9763	H	0.749558	0.941028	0.684332
	H9764	H	0.756519	0.064583	0.685311
	H9765	H	0.756611	0.940922	0.685311
	H9766	H	0.624322	0.064577	0.685361
	H9767	H	0.624322	0.941774	0.685350
	H9768	H	0.622633	0.065051	0.686425
	H9769	H	0.622631	0.941290	0.686457
	H9770	H	0.624992	0.064783	0.687914
	H9771	H	0.625194	0.940887	0.687902
	H9772	H	0.637554	0.440906	0.686710
	H9773	H	0.633688	0.440979	0.683519
	H9774	H	0.629710	0.441386	0.690587
	H9775	H	0.741782	0.440853	0.692446
	H9776	H	0.732815	0.440560	0.685380
	H9777	H	0.742018	0.441059	0.680801
	H9778	H	0.633807	0.564487	0.683519
	H9779	H	0.637631	0.564361	0.686748
	H9780	H	0.741960	0.564133	0.680798
	H9781	H	0.732805	0.564711	0.685419
	H9782	H	0.741753	0.564694	0.692440
	H9783	H	0.629584	0.564512	0.690583
	H9784	H	0.721579	0.643235	0.710192
	H9785	H	0.722525	0.863354	0.710196
	H9786	H	0.722200	0.142354	0.710152
	H9787	H	0.721392	0.362478	0.710150
	H9788	H	0.658940	0.642454	0.647555
	H9789	H	0.717917	0.641788	0.647645
	H9790	H	0.718362	0.861874	0.647610
	H9791	H	0.660659	0.862603	0.647702
	H9792	H	0.721988	0.641908	0.663097
	H9793	H	0.722489	0.861911	0.663048
	H9794	H	0.717312	0.643589	0.725616
	H9795	H	0.718213	0.863480	0.725634
	H9796	H	0.680580	0.441272	0.627639
	H9797	H	0.678975	0.441332	0.750025
	H9798	H	0.676762	0.441213	0.622461
	H9799	H	0.684453	0.440941	0.619731
	H9800	H	0.695832	0.440700	0.751756
	H9801	H	0.687751	0.440909	0.752764
	H9802	H	0.679045	0.564732	0.750034
	H9803	H	0.680551	0.564646	0.627587
	H9804	H	0.687777	0.564408	0.752765
	H9805	H	0.695829	0.564455	0.751778
	H9806	H	0.684527	0.564800	0.619711
	H9807	H	0.676771	0.564134	0.622448
	H9808	H	0.718117	0.142194	0.725589
	H9809	H	0.717354	0.362354	0.725597
	H9810	H	0.706807	0.064717	0.624087
	H9811	H	0.700513	0.064782	0.619327
	H9812	H	0.695116	0.064715	0.630041
	H9813	H	0.659678	0.861263	0.725566
	H9814	H	0.659557	0.640918	0.725600
	H9815	H	0.659793	0.363908	0.725575
	H9816	H	0.659496	0.143725	0.725581
	H9817	H	0.660889	0.143386	0.647788
	H9818	H	0.718882	0.143515	0.647636
	H9819	H	0.717313	0.363819	0.647738
	H9820	H	0.658426	0.363238	0.647436
	H9821	H	0.722780	0.143144	0.663083
	H9822	H	0.721245	0.363391	0.663188
	H9823	H	0.696250	0.064354	0.750105
	H9824	H	0.695665	0.064636	0.747613
	H9825	H	0.687054	0.064336	0.746143
	H9826	H	0.700538	0.941283	0.619287
	H9827	H	0.706704	0.940983	0.624087
	H9828	H	0.695265	0.941139	0.630052
	H9829	H	0.696258	0.941019	0.750142
	H9830	H	0.695606	0.941028	0.747626
	H9831	H	0.686976	0.941118	0.746118
	Zn9832	Zn	0.626009	0.680698	0.686570
	Zn9833	Zn	0.626840	0.825515	0.686576
	Zn9834	Zn	0.626716	0.180314	0.686567
	Zn9835	Zn	0.626073	0.325253	0.686617
	Zn9836	Zn	0.688942	0.680145	0.749184
	Zn9837	Zn	0.688334	0.825408	0.749116
	Zn9838	Zn	0.688500	0.179938	0.749126
	Zn9839	Zn	0.688682	0.325229	0.749118
	C9840	C	0.726522	0.752216	0.673255
	C9841	C	0.651055	0.751004	0.699997
	C9842	C	0.655411	0.751020	0.709209
	C9843	C	0.656423	0.688724	0.713578
	C9844	C	0.656512	0.813333	0.713581
	C9845	C	0.651071	0.254217	0.699995
	C9846	C	0.655503	0.254139	0.709197
	C9847	C	0.656437	0.191793	0.713585
	C9848	C	0.656649	0.316428	0.713568
	C9849	C	0.651195	0.751609	0.673188
	C9850	C	0.655548	0.751850	0.663985
	C9851	C	0.657101	0.814352	0.659654
	C9852	C	0.656129	0.689698	0.659583
	C9853	C	0.651241	0.255028	0.673216
	C9854	C	0.655631	0.254690	0.663992
	C9855	C	0.655886	0.316546	0.659510
	C9856	C	0.657294	0.192122	0.659716
	C9857	C	0.748430	0.042994	0.685377
	C9858	C	0.748484	0.962352	0.685363
	C9859	C	0.624360	0.043435	0.686067
	C9860	C	0.624358	0.962720	0.686078
	C9861	C	0.626792	0.043278	0.687532
	C9862	C	0.626877	0.962410	0.687533
	C9863	C	0.633121	0.462238	0.685515
	C9864	C	0.750010	0.462270	0.691133
	C9865	C	0.741040	0.462144	0.684048
	C9866	C	0.633110	0.543377	0.685518
	C9867	C	0.741013	0.543138	0.684042
	C9868	C	0.750029	0.543230	0.691129
	C9869	C	0.726529	0.753212	0.700051
	C9870	C	0.726345	0.252653	0.700008
	C9871	C	0.722101	0.753214	0.709252
	C9872	C	0.720748	0.691093	0.713620
	C9873	C	0.721246	0.815571	0.713623
	C9874	C	0.722007	0.252546	0.709211
	C9875	C	0.721101	0.190205	0.713580
	C9876	C	0.720725	0.314670	0.713591
	C9877	C	0.726437	0.252917	0.673272
	C9878	C	0.713759	0.751829	0.637475
	C9879	C	0.664121	0.753090	0.637454
	C9880	C	0.663871	0.751119	0.735752
	C9881	C	0.721083	0.689712	0.659662
	C9882	C	0.721337	0.814092	0.659636
	C9883	C	0.718110	0.751764	0.646691
	C9884	C	0.659741	0.752585	0.646664
	C9885	C	0.658297	0.690147	0.651009
	C9886	C	0.718991	0.689598	0.651082
	C9887	C	0.719272	0.814113	0.651053
	C9888	C	0.659234	0.814657	0.651086
	C9889	C	0.722197	0.751899	0.664034
	C9890	C	0.713455	0.753623	0.735798
	C9891	C	0.718555	0.691272	0.722191
	C9892	C	0.719057	0.815699	0.722203
	C9893	C	0.717809	0.753491	0.726584
	C9894	C	0.682166	0.462357	0.748689
	C9895	C	0.682792	0.462420	0.621881
	C9896	C	0.691018	0.462344	0.751437
	C9897	C	0.682202	0.543292	0.748689
	C9898	C	0.691052	0.543227	0.751451
	C9899	C	0.682813	0.543262	0.621882
	C9900	C	0.713529	0.252442	0.735764
	C9901	C	0.718957	0.190003	0.722155
	C9902	C	0.718593	0.314547	0.722163
	C9903	C	0.717840	0.252274	0.726533
	C9904	C	0.699844	0.043403	0.622335
	C9905	C	0.713756	0.253543	0.637514
	C9906	C	0.664147	0.252548	0.637466
	C9907	C	0.663881	0.253397	0.735722
	C9908	C	0.721546	0.191076	0.659665
	C9909	C	0.720648	0.315710	0.659720
	C9910	C	0.718104	0.253624	0.646719
	C9911	C	0.659822	0.253174	0.646664
	C9912	C	0.659560	0.751049	0.726534
	C9913	C	0.658619	0.813331	0.722154
	C9914	C	0.658537	0.688744	0.722159
	C9915	C	0.659640	0.253747	0.726515
	C9916	C	0.658795	0.316196	0.722142
	C9917	C	0.658541	0.191562	0.722155
	C9918	C	0.659482	0.191449	0.651143
	C9919	C	0.719486	0.191344	0.651088
	C9920	C	0.718583	0.315827	0.651136
	C9921	C	0.658075	0.315775	0.650934
	C9922	C	0.722090	0.253239	0.664056
	C9923	C	0.693979	0.043174	0.748912
	C9924	C	0.688212	0.043168	0.628307
	C9925	C	0.699860	0.962458	0.622328
	C9926	C	0.693972	0.962228	0.748921
	C9927	C	0.688237	0.962260	0.628312
	N9928	N	0.626756	0.070235	0.686540
	N9929	N	0.626796	0.935652	0.686517
	N9930	N	0.626046	0.435678	0.686607
	N9931	N	0.626011	0.570267	0.686607
	N9932	N	0.688802	0.435444	0.749143
	N9933	N	0.688874	0.569949	0.749159
	N9934	N	0.688435	0.070033	0.749105
	N9935	N	0.688380	0.935498	0.749112
	O9936	O	0.729127	0.694806	0.801733
	O9937	O	0.729021	0.811620	0.801756
	O9938	O	0.648562	0.695247	0.821455
	O9939	O	0.648370	0.811994	0.821488
	O9940	O	0.648348	0.194370	0.821495
	O9941	O	0.648580	0.311302	0.821460
	O9942	O	0.648332	0.694791	0.801758
	O9943	O	0.648201	0.811655	0.801745
	O9944	O	0.648372	0.194134	0.801762
	O9945	O	0.648597	0.310818	0.801774
	O9946	O	0.728938	0.694198	0.821511
	O9947	O	0.729139	0.811096	0.821522
	O9948	O	0.729403	0.193767	0.821597
	O9949	O	0.729024	0.310665	0.821497
	O9950	O	0.729034	0.193940	0.801732
	O9951	O	0.729134	0.310733	0.801680
	O9952	O	0.711317	0.695276	0.758975
	O9953	O	0.666606	0.693719	0.759082
	O9954	O	0.711047	0.694087	0.864285
	O9955	O	0.711204	0.810954	0.864285
	O9956	O	0.666424	0.694638	0.864224
	O9957	O	0.666393	0.811387	0.864235
	O9958	O	0.666112	0.810443	0.758973
	O9959	O	0.710811	0.812197	0.759034
	O9960	O	0.710860	0.193909	0.758955
	O9961	O	0.666311	0.194925	0.759012
	O9962	O	0.711274	0.194404	0.864302
	O9963	O	0.710889	0.311374	0.864269
	O9964	O	0.666410	0.194148	0.864206
	O9965	O	0.666381	0.310986	0.864236
	O9966	O	0.666425	0.311761	0.759018
	O9967	O	0.710979	0.310714	0.758988
	H9968	H	0.655607	0.643564	0.835065
	H9969	H	0.655439	0.863648	0.835139
	H9970	H	0.655356	0.142851	0.835101
	H9971	H	0.655532	0.362785	0.835138
	H9972	H	0.655227	0.862880	0.788042
	H9973	H	0.655836	0.642973	0.788161
	H9974	H	0.655733	0.362638	0.788147
	H9975	H	0.655234	0.142800	0.788082
	H9976	H	0.740429	0.064118	0.811162
	H9977	H	0.743221	0.063792	0.814288
	H9978	H	0.743273	0.940456	0.814318
	H9979	H	0.740367	0.940897	0.811131
	H9980	H	0.748827	0.064393	0.807756
	H9981	H	0.748906	0.940743	0.807754
	H9982	H	0.620580	0.064807	0.811500
	H9983	H	0.620658	0.941570	0.811467
	H9984	H	0.622294	0.065179	0.813013
	H9985	H	0.622203	0.941718	0.813037
	H9986	H	0.628467	0.065011	0.813350
	H9987	H	0.628467	0.941604	0.813389
	H9988	H	0.620989	0.441184	0.812429
	H9989	H	0.624585	0.441188	0.813559
	H9990	H	0.622319	0.441097	0.810159
	H9991	H	0.753415	0.440677	0.816491
	H9992	H	0.739153	0.440715	0.813983
	H9993	H	0.738353	0.440674	0.809852
	H9994	H	0.624558	0.564459	0.813567
	H9995	H	0.621058	0.564772	0.812426
	H9996	H	0.738340	0.564502	0.809920
	H9997	H	0.739245	0.564423	0.814052
	H9998	H	0.753510	0.564167	0.816517
	H9999	H	0.622357	0.564996	0.810161
	H10000	H	0.722392	0.642499	0.835192
	H10001	H	0.722049	0.862842	0.835183
	H10002	H	0.722603	0.142524	0.835217
	H10003	H	0.721920	0.362764	0.835161
	H10004	H	0.659955	0.642436	0.772740
	H10005	H	0.718045	0.643712	0.772622
	H10006	H	0.717787	0.863805	0.772667
	H10007	H	0.659245	0.862420	0.772614
	H10008	H	0.722094	0.643467	0.788052
	H10009	H	0.721993	0.863548	0.788121
	H10010	H	0.718311	0.642427	0.850633
	H10011	H	0.717984	0.862748	0.850612
	H10012	H	0.680535	0.441068	0.747011
	H10013	H	0.691647	0.440853	0.874376
	H10014	H	0.691619	0.441020	0.745637
	H10015	H	0.698009	0.440797	0.747639
	H10016	H	0.687600	0.441357	0.873070
	H10017	H	0.690209	0.441060	0.873164
	H10018	H	0.691699	0.564077	0.874384
	H10019	H	0.680669	0.564800	0.747023
	H10020	H	0.690181	0.564542	0.873222
	H10021	H	0.687604	0.564776	0.873075
	H10022	H	0.698102	0.564479	0.747677
	H10023	H	0.691594	0.564379	0.745688
	H10024	H	0.718221	0.142645	0.850669
	H10025	H	0.717670	0.362881	0.850594
	H10026	H	0.682049	0.064797	0.751025
	H10027	H	0.688419	0.064051	0.752060
	H10028	H	0.681250	0.064557	0.747542
	H10029	H	0.659327	0.863385	0.850583
	H10030	H	0.659476	0.642970	0.850522
	H10031	H	0.659736	0.362668	0.850553
	H10032	H	0.659543	0.142605	0.850551
	H10033	H	0.659280	0.143045	0.772654
	H10034	H	0.717888	0.142070	0.772583
	H10035	H	0.717872	0.362093	0.772613
	H10036	H	0.659771	0.362998	0.772708
	H10037	H	0.722047	0.142077	0.788013
	H10038	H	0.721995	0.361988	0.788045
	H10039	H	0.688106	0.065192	0.873008
	H10040	H	0.685959	0.064525	0.873532
	H10041	H	0.686185	0.064898	0.874800
	H10042	H	0.688352	0.941006	0.752094
	H10043	H	0.682043	0.941049	0.751011
	H10044	H	0.681172	0.941278	0.747564
	H10045	H	0.688105	0.941267	0.872992
	H10046	H	0.685938	0.941606	0.873510
	H10047	H	0.686150	0.941267	0.874790
	Zn10048	Zn	0.626146	0.680583	0.811656
	Zn10049	Zn	0.625968	0.825683	0.811611
	Zn10050	Zn	0.625893	0.180576	0.811627
	Zn10051	Zn	0.626100	0.325418	0.811593
	Zn10052	Zn	0.688672	0.680248	0.874130
	Zn10053	Zn	0.688731	0.825564	0.874094
	Zn10054	Zn	0.688559	0.180273	0.874096
	Zn10055	Zn	0.688624	0.325384	0.874107
	C10056	C	0.726560	0.753264	0.798235
	C10057	C	0.651023	0.753628	0.824975
	C10058	C	0.655362	0.753629	0.834186
	C10059	C	0.656494	0.691235	0.838536
	C10060	C	0.656396	0.815802	0.838575
	C10061	C	0.650925	0.252859	0.824979
	C10062	C	0.655416	0.252726	0.834181
	C10063	C	0.656382	0.190526	0.838545
	C10064	C	0.656503	0.314920	0.838559
	C10065	C	0.650849	0.753214	0.798247
	C10066	C	0.655305	0.753037	0.789038
	C10067	C	0.656220	0.815050	0.784635
	C10068	C	0.656582	0.690667	0.784699
	C10069	C	0.650994	0.252478	0.798256
	C10070	C	0.655344	0.252648	0.789047
	C10071	C	0.656555	0.314950	0.784693
	C10072	C	0.656303	0.190543	0.784666
	C10073	C	0.744313	0.042854	0.812441
	C10074	C	0.744317	0.962018	0.812431
	C10075	C	0.622638	0.043725	0.812083
	C10076	C	0.622602	0.962958	0.812090
	C10077	C	0.628855	0.043616	0.812426
	C10078	C	0.628865	0.962760	0.812445
	C10079	C	0.623720	0.462699	0.812625
	C10080	C	0.756380	0.461917	0.814340
	C10081	C	0.742029	0.462033	0.811837
	C10082	C	0.623697	0.543449	0.812637
	C10083	C	0.742053	0.543071	0.811881
	C10084	C	0.756428	0.542800	0.814346
	C10085	C	0.726592	0.752697	0.825036
	C10086	C	0.726709	0.252343	0.825047
	C10087	C	0.722206	0.752597	0.834252
	C10088	C	0.721253	0.690255	0.838628
	C10089	C	0.721076	0.814942	0.838619
	C10090	C	0.722162	0.252611	0.834252
	C10091	C	0.721341	0.190360	0.838642
	C10092	C	0.720981	0.314958	0.838606
	C10093	C	0.726499	0.252243	0.798208
	C10094	C	0.713503	0.753713	0.762495
	C10095	C	0.663913	0.752198	0.762525
	C10096	C	0.663867	0.753051	0.860727
	C10097	C	0.721194	0.691292	0.784627
	C10098	C	0.721097	0.815854	0.784663
	C10099	C	0.717924	0.753693	0.771698
	C10100	C	0.659597	0.752466	0.771722
	C10101	C	0.658772	0.690348	0.776130
	C10102	C	0.719036	0.691442	0.776058
	C10103	C	0.718900	0.815964	0.776084
	C10104	C	0.658374	0.814786	0.776064
	C10105	C	0.722167	0.753472	0.789022
	C10106	C	0.713678	0.752496	0.860796
	C10107	C	0.719121	0.690323	0.847204
	C10108	C	0.718955	0.814837	0.847194
	C10109	C	0.717999	0.752588	0.851583
	C10110	C	0.690256	0.462329	0.874608
	C10111	C	0.693200	0.462314	0.747308
	C10112	C	0.688815	0.462416	0.873382
	C10113	C	0.690219	0.543109	0.874615
	C10114	C	0.688801	0.543213	0.873396
	C10115	C	0.693269	0.543057	0.747329
	C10116	C	0.713537	0.252865	0.860784
	C10117	C	0.719109	0.190514	0.847218
	C10118	C	0.718790	0.314980	0.847184
	C10119	C	0.717911	0.252812	0.851583
	C10120	C	0.686060	0.043145	0.750898
	C10121	C	0.713421	0.252195	0.762469
	C10122	C	0.663820	0.253327	0.762508
	C10123	C	0.663968	0.252619	0.860707
	C10124	C	0.721068	0.189858	0.784586
	C10125	C	0.721067	0.314214	0.784612
	C10126	C	0.717819	0.252040	0.771659
	C10127	C	0.659491	0.253023	0.771713
	C10128	C	0.659548	0.753192	0.851519
	C10129	C	0.658505	0.815555	0.847147
	C10130	C	0.658605	0.691018	0.847112
	C10131	C	0.659599	0.252581	0.851507
	C10132	C	0.658643	0.314862	0.847131
	C10133	C	0.658551	0.190402	0.847121
	C10134	C	0.658389	0.190763	0.776093
	C10135	C	0.718880	0.189807	0.776014
	C10136	C	0.718907	0.314230	0.776034
	C10137	C	0.658648	0.315137	0.776116
	C10138	C	0.722095	0.252019	0.788986
	C10139	C	0.687427	0.043444	0.873489
	C10140	C	0.685251	0.043179	0.747426
	C10141	C	0.686011	0.962293	0.750906
	C10142	C	0.687433	0.962662	0.873476
	C10143	C	0.685206	0.962487	0.747436
	N10144	N	0.626050	0.070313	0.811603
	N10145	N	0.626023	0.935771	0.811594
	N10146	N	0.626235	0.435925	0.811600
	N10147	N	0.626196	0.570520	0.811611
	N10148	N	0.688556	0.435674	0.874152
	N10149	N	0.688543	0.570219	0.874156
	N10150	N	0.688580	0.069996	0.874109
	N10151	N	0.688588	0.935458	0.874103
	O10152	O	0.728928	0.694252	0.926730
	O10153	O	0.728972	0.811172	0.926739
	O10154	O	0.648604	0.695169	0.946514
	O10155	O	0.648956	0.811942	0.946383
	O10156	O	0.648735	0.194157	0.946441
	O10157	O	0.648519	0.311033	0.946509
	O10158	O	0.648850	0.694945	0.926696
	O10159	O	0.648394	0.812055	0.926643
	O10160	O	0.648550	0.194510	0.926726
	O10161	O	0.648658	0.311317	0.926704
	O10162	O	0.728835	0.694193	0.946451
	O10163	O	0.729220	0.811084	0.946526
	O10164	O	0.729050	0.194316	0.946562
	O10165	O	0.728779	0.311214	0.946492
	O10166	O	0.729041	0.194094	0.926718
	O10167	O	0.729087	0.311074	0.926706
	O10168	O	0.711042	0.694184	0.883965
	O10169	O	0.666363	0.694814	0.883955
	O10170	O	0.710556	0.693130	0.989237
	O10171	O	0.711171	0.810020	0.989205
	O10172	O	0.665849	0.696465	0.989239
	O10173	O	0.666690	0.813309	0.989224
	O10174	O	0.666163	0.811629	0.883916
	O10175	O	0.710828	0.811078	0.883980
	O10176	O	0.710813	0.194287	0.884002
	O10177	O	0.666270	0.194047	0.883973
	O10178	O	0.711322	0.196195	0.989339
	O10179	O	0.710556	0.313031	0.989213
	O10180	O	0.666576	0.192848	0.989230
	O10181	O	0.665936	0.309737	0.989266
	O10182	O	0.666262	0.310981	0.884002
	O10183	O	0.711033	0.310928	0.883971
	H10184	H	0.654525	0.644340	0.960243
	H10185	H	0.656031	0.864496	0.960075
	H10186	H	0.656402	0.142009	0.960076
	H10187	H	0.654828	0.362289	0.960274
	H10188	H	0.655506	0.863439	0.913072
	H10189	H	0.655703	0.643292	0.913055
	H10190	H	0.655631	0.362403	0.913052
	H10191	H	0.655529	0.142489	0.913079
	H10192	H	0.734682	0.064433	0.938935
	H10193	H	0.745427	0.063958	0.942663
	H10194	H	0.745518	0.940524	0.942613
	H10195	H	0.734750	0.940780	0.938949
	H10196	H	0.739554	0.064557	0.931841
	H10197	H	0.739560	0.941392	0.931817
	H10198	H	0.628573	0.065147	0.941040
	H10199	H	0.628657	0.941597	0.941039
	H10200	H	0.637182	0.064756	0.938826
	H10201	H	0.637249	0.941703	0.938822
	H10202	H	0.635869	0.064405	0.933652
	H10203	H	0.635773	0.941552	0.933621
	H10204	H	0.613188	0.441515	0.928625
	H10205	H	0.601048	0.441407	0.935117
	H10206	H	0.642846	0.441824	0.929361
	H10207	H	0.736442	0.441058	0.938969
	H10208	H	0.740089	0.440762	0.932432
	H10209	H	0.752972	0.440764	0.930867
	H10210	H	0.601076	0.565102	0.935152
	H10211	H	0.613115	0.564793	0.928654
	H10212	H	0.752960	0.564406	0.930891
	H10213	H	0.740091	0.564170	0.932392
	H10214	H	0.736372	0.564657	0.938929
	H10215	H	0.642858	0.564965	0.929410
	H10216	H	0.721520	0.642152	0.960096
	H10217	H	0.722604	0.862316	0.960207
	H10218	H	0.722663	0.143288	0.960274
	H10219	H	0.721337	0.363380	0.960078
	H10220	H	0.659677	0.643215	0.897620
	H10221	H	0.717805	0.642545	0.897683
	H10222	H	0.717902	0.862513	0.897645
	H10223	H	0.659530	0.863595	0.897612
	H10224	H	0.721928	0.642685	0.913138
	H10225	H	0.722009	0.862787	0.913084
	H10226	H	0.717311	0.641649	0.975549
	H10227	H	0.718395	0.861900	0.975621
	H10228	H	0.690091	0.441038	0.875148
	H10229	H	0.694607	0.441151	1.000513
	H10230	H	0.686460	0.440872	0.875011
	H10231	H	0.685337	0.440848	0.874140
	H10232	H	0.688252	0.441402	0.996292
	H10233	H	0.694113	0.441589	0.997314
	H10234	H	0.694535	0.565147	1.000510
	H10235	H	0.690060	0.564096	0.875153
	H10236	H	0.694036	0.564930	0.997330
	H10237	H	0.688196	0.564684	0.996301
	H10238	H	0.685396	0.564693	0.874121
	H10239	H	0.686415	0.564380	0.875012
	H10240	H	0.718481	0.143985	0.975700
	H10241	H	0.717176	0.364090	0.975519
	H10242	H	0.691560	0.064272	0.874538
	H10243	H	0.691354	0.064705	0.873582
	H10244	H	0.688551	0.064874	0.875233
	H10245	H	0.660224	0.865022	0.975553
	H10246	H	0.658604	0.644862	0.975648
	H10247	H	0.658707	0.361417	0.975709
	H10248	H	0.660317	0.141542	0.975540
	H10249	H	0.659672	0.142285	0.897652
	H10250	H	0.717835	0.142688	0.897663
	H10251	H	0.718012	0.362760	0.897663
	H10252	H	0.659724	0.362392	0.897631
	H10253	H	0.721974	0.142736	0.913082
	H10254	H	0.722266	0.362423	0.913107
	H10255	H	0.679367	0.064921	1.000959
	H10256	H	0.686616	0.064874	1.002931
	H10257	H	0.698205	0.064994	1.001220
	H10258	H	0.691356	0.941141	0.873556
	H10259	H	0.691569	0.941224	0.874519
	H10260	H	0.688561	0.941061	0.875227
	H10261	H	0.679340	0.941527	1.000950
	H10262	H	0.686660	0.941060	1.002942
	H10263	H	0.698248	0.941231	1.001187
	Zn10264	Zn	0.626581	0.680659	0.936564
	Zn10265	Zn	0.626347	0.825681	0.936574
	Zn10266	Zn	0.626345	0.180633	0.936582
	Zn10267	Zn	0.626548	0.325602	0.936581
	Zn10268	Zn	0.688001	0.680836	0.999137
	Zn10269	Zn	0.689034	0.825512	0.999141
	Zn10270	Zn	0.688948	0.180847	0.999152
	Zn10271	Zn	0.688138	0.325560	0.999097
	C10272	C	0.726416	0.752735	0.923241
	C10273	C	0.651171	0.753764	0.949970
	C10274	C	0.655355	0.754382	0.959204
	C10275	C	0.655901	0.692335	0.963619
	C10276	C	0.656768	0.816871	0.963543
	C10277	C	0.651111	0.252459	0.949984
	C10278	C	0.655450	0.252174	0.959203
	C10279	C	0.656964	0.189817	0.963537
	C10280	C	0.656106	0.314205	0.963643
	C10281	C	0.651194	0.753437	0.923199
	C10282	C	0.655454	0.753260	0.913994
	C10283	C	0.656486	0.815634	0.909632
	C10284	C	0.656600	0.691011	0.909625
	C10285	C	0.651136	0.252795	0.923204
	C10286	C	0.655438	0.252543	0.913996
	C10287	C	0.656539	0.314653	0.909613
	C10288	C	0.656468	0.190267	0.909629
	C10289	C	0.742995	0.043100	0.939712
	C10290	C	0.743017	0.962115	0.939689
	C10291	C	0.631161	0.043517	0.939046
	C10292	C	0.631144	0.962748	0.939044
	C10293	C	0.629735	0.043750	0.933851
	C10294	C	0.629727	0.962744	0.933828
	C10295	C	0.612232	0.462707	0.933118
	C10296	C	0.744018	0.462219	0.939549
	C10297	C	0.747752	0.462192	0.932981
	C10298	C	0.612253	0.543754	0.933138
	C10299	C	0.747740	0.543120	0.932958
	C10300	C	0.744019	0.543222	0.939515
	C10301	C	0.726523	0.752514	0.949991
	C10302	C	0.726413	0.252870	0.950029
	C10303	C	0.722051	0.752213	0.959201
	C10304	C	0.720716	0.689835	0.963555
	C10305	C	0.721324	0.814397	0.963606
	C10306	C	0.722120	0.253275	0.959227
	C10307	C	0.721365	0.191272	0.963656
	C10308	C	0.720626	0.315724	0.963549
	C10309	C	0.726528	0.252580	0.923223
	C10310	C	0.713470	0.752590	0.887474
	C10311	C	0.663758	0.753278	0.887446
	C10312	C	0.663776	0.755027	0.985732
	C10313	C	0.720976	0.690379	0.909687
	C10314	C	0.721023	0.814910	0.909659
	C10315	C	0.717822	0.752507	0.896712
	C10316	C	0.659553	0.753335	0.896677
	C10317	C	0.658647	0.691027	0.901051
	C10318	C	0.718837	0.690350	0.901111
	C10319	C	0.718892	0.814774	0.901086
	C10320	C	0.658557	0.815720	0.901049
	C10321	C	0.722085	0.752674	0.914036
	C10322	C	0.713423	0.751400	0.985721
	C10323	C	0.718535	0.689468	0.972128
	C10324	C	0.719139	0.814138	0.972173
	C10325	C	0.717795	0.751622	0.976519
	C10326	C	0.690895	0.462519	1.000616
	C10327	C	0.686585	0.462336	0.874456
	C10328	C	0.690332	0.462803	0.997396
	C10329	C	0.690873	0.543697	1.000627
	C10330	C	0.690307	0.543470	0.997408
	C10331	C	0.686593	0.543297	0.874452
	C10332	C	0.713511	0.254498	0.985777
	C10333	C	0.719243	0.191673	0.972232
	C10334	C	0.718487	0.316140	0.972125
	C10335	C	0.717834	0.254122	0.976554
	C10336	C	0.690717	0.043141	0.874062
	C10337	C	0.713443	0.252656	0.887501
	C10338	C	0.663872	0.252471	0.887485
	C10339	C	0.663746	0.251211	0.985757
	C10340	C	0.720993	0.190497	0.909654
	C10341	C	0.721146	0.314817	0.909669
	C10342	C	0.717807	0.252776	0.896713
	C10343	C	0.659644	0.252392	0.896682
	C10344	C	0.659495	0.755017	0.976533
	C10345	C	0.658898	0.817242	0.972124
	C10346	C	0.658015	0.692640	0.972189
	C10347	C	0.659529	0.251424	0.976536
	C10348	C	0.658151	0.313862	0.972223
	C10349	C	0.659057	0.189338	0.972118
	C10350	C	0.658611	0.190192	0.901058
	C10351	C	0.718791	0.190550	0.901084
	C10352	C	0.718951	0.314946	0.901093
	C10353	C	0.658681	0.314561	0.901046
	C10354	C	0.722121	0.252682	0.914034
	C10355	C	0.684560	0.043598	1.001211
	C10356	C	0.687676	0.043507	0.874777
	C10357	C	0.690713	0.962477	0.874061
	C10358	C	0.684567	0.962661	1.001201
	C10359	C	0.687711	0.962449	0.874784
	N10360	N	0.626286	0.070420	0.936615
	N10361	N	0.626258	0.935890	0.936608
	N10362	N	0.626579	0.435900	0.936553
	N10363	N	0.626596	0.570489	0.936597
	N10364	N	0.688005	0.435882	0.999096
	N10365	N	0.688013	0.570466	0.999084
	N10366	N	0.688978	0.070565	0.999119
	N10367	N	0.689033	0.935957	0.999102
	O10368	O	0.854168	0.694595	0.051742
	O10369	O	0.854433	0.811543	0.051829
	O10370	O	0.773326	0.695694	0.071473
	O10371	O	0.773054	0.812319	0.071514
	O10372	O	0.772975	0.193373	0.071520
	O10373	O	0.773259	0.310373	0.071494
	O10374	O	0.773479	0.695199	0.051852
	O10375	O	0.772803	0.812039	0.051738
	O10376	O	0.772948	0.193834	0.051737
	O10377	O	0.773345	0.310594	0.051818
	O10378	O	0.854352	0.694361	0.071458
	O10379	O	0.854243	0.811259	0.071462
	O10380	O	0.854401	0.194279	0.071553
	O10381	O	0.854328	0.311165	0.071425
	O10382	O	0.853878	0.194223	0.051820
	O10383	O	0.854481	0.310921	0.051775
	O10384	O	0.836054	0.695622	0.009041
	O10385	O	0.791580	0.693281	0.009092
	O10386	O	0.835956	0.694313	0.114191
	O10387	O	0.835862	0.811104	0.114227
	O10388	O	0.791490	0.695018	0.114177
	O10389	O	0.791389	0.811893	0.114209
	O10390	O	0.791076	0.810314	0.008994
	O10391	O	0.835714	0.812679	0.009096
	O10392	O	0.835828	0.193163	0.009073
	O10393	O	0.791132	0.194967	0.009015
	O10394	O	0.836024	0.194756	0.114188
	O10395	O	0.835910	0.311678	0.114208
	O10396	O	0.791186	0.194034	0.114267
	O10397	O	0.791612	0.310980	0.114177
	O10398	O	0.791576	0.311808	0.009082
	O10399	O	0.836275	0.310016	0.008989
	H10400	H	0.780839	0.644031	0.085083
	H10401	H	0.779911	0.864322	0.085205
	H10402	H	0.779911	0.141736	0.085152
	H10403	H	0.780413	0.362273	0.085115
	H10404	H	0.779572	0.862741	0.038031
	H10405	H	0.780546	0.642752	0.038211
	H10406	H	0.780483	0.362946	0.038177
	H10407	H	0.779684	0.142895	0.038033
	H10408	H	0.876436	0.064252	0.060483
	H10409	H	0.873940	0.064154	0.061017
	H10410	H	0.874043	0.940678	0.061019
	H10411	H	0.876357	0.941011	0.060427
	H10412	H	0.879837	0.064568	0.061049
	H10413	H	0.879830	0.941362	0.061082
	H10414	H	0.746036	0.065250	0.060637
	H10415	H	0.745944	0.941045	0.060641
	H10416	H	0.745480	0.064793	0.062213
	H10417	H	0.745453	0.941493	0.062191
	H10418	H	0.750334	0.064271	0.063464
	H10419	H	0.750306	0.941409	0.063462
	H10420	H	0.753052	0.441084	0.068056
	H10421	H	0.765918	0.441439	0.065185
	H10422	H	0.734920	0.441031	0.064615
	H10423	H	0.872668	0.440401	0.058400
	H10424	H	0.883972	0.440947	0.059101
	H10425	H	0.886715	0.440696	0.061860
	H10426	H	0.765920	0.564472	0.065222
	H10427	H	0.753130	0.564819	0.068071
	H10428	H	0.886661	0.563957	0.061856
	H10429	H	0.883747	0.564382	0.059108
	H10430	H	0.872669	0.564391	0.058381
	H10431	H	0.734833	0.564962	0.064597
	H10432	H	0.847638	0.642668	0.085167
	H10433	H	0.846924	0.862802	0.085149
	H10434	H	0.847413	0.143199	0.085149
	H10435	H	0.847046	0.363639	0.085060
	H10436	H	0.784940	0.642132	0.022791
	H10437	H	0.843507	0.643895	0.022582
	H10438	H	0.842533	0.863997	0.022785
	H10439	H	0.783946	0.861846	0.022581
	H10440	H	0.847727	0.643200	0.038001
	H10441	H	0.846740	0.863304	0.038245
	H10442	H	0.843314	0.642843	0.100578
	H10443	H	0.842663	0.862593	0.100595
	H10444	H	0.827804	0.440951	-0.003377
	H10445	H	0.812388	0.441427	0.129218
	H10446	H	0.825171	0.441080	0.003012
	H10447	H	0.813025	0.440702	0.004745
	H10448	H	0.826560	0.441151	0.122025
	H10449	H	0.826442	0.441187	0.126314
	H10450	H	0.812244	0.564988	0.129216
	H10451	H	0.827803	0.564434	-0.003380
	H10452	H	0.826572	0.564836	0.126300
	H10453	H	0.826556	0.564374	0.121969
	H10454	H	0.813053	0.564808	0.004735
	H10455	H	0.825149	0.564163	0.003016
	H10456	H	0.843065	0.143431	0.100572
	H10457	H	0.842692	0.363663	0.100512
	H10458	H	0.807200	0.064414	-0.000105
	H10459	H	0.810987	0.064800	0.001364
	H10460	H	0.809319	0.064234	-0.002686
	H10461	H	0.784157	0.863718	0.100652
	H10462	H	0.785048	0.643933	0.100489
	H10463	H	0.784689	0.362307	0.100541
	H10464	H	0.784196	0.142005	0.100612
	H10465	H	0.783971	0.143362	0.022593
	H10466	H	0.842560	0.141847	0.022731
	H10467	H	0.843520	0.362130	0.022619
	H10468	H	0.784775	0.363436	0.022747
	H10469	H	0.846879	0.142336	0.038145
	H10470	H	0.847906	0.362727	0.038035
	H10471	H	0.812815	0.064609	0.116578
	H10472	H	0.797136	0.064482	0.119495
	H10473	H	0.795994	0.064796	0.128157
	H10474	H	0.810935	0.941132	0.001367
	H10475	H	0.807034	0.941131	-0.000082
	H10476	H	0.809300	0.941051	-0.002761
	H10477	H	0.812786	0.940973	0.116565
	H10478	H	0.797122	0.940857	0.119488
	H10479	H	0.796050	0.941255	0.128188
	Zn10480	Zn	0.750921	0.680597	0.061672
	Zn10481	Zn	0.750423	0.825317	0.061604
	Zn10482	Zn	0.750460	0.180815	0.061608
	Zn10483	Zn	0.750918	0.325633	0.061634
	Zn10484	Zn	0.813631	0.680585	0.124086
	Zn10485	Zn	0.813800	0.825631	0.124099
	Zn10486	Zn	0.813792	0.180190	0.124064
	Zn10487	Zn	0.813591	0.325514	0.124080
	C10488	C	0.851792	0.753238	0.048286
	C10489	C	0.775722	0.754029	0.075001
	C10490	C	0.780144	0.754224	0.084175
	C10491	C	0.781532	0.691943	0.088518
	C10492	C	0.781027	0.816338	0.088594
	C10493	C	0.775667	0.251843	0.074998
	C10494	C	0.780179	0.251964	0.084189
	C10495	C	0.781046	0.189639	0.088577
	C10496	C	0.781312	0.314398	0.088553
	C10497	C	0.775618	0.753479	0.048302
	C10498	C	0.780011	0.752911	0.039097
	C10499	C	0.780809	0.814806	0.034656
	C10500	C	0.781379	0.690422	0.034771
	C10501	C	0.775671	0.252293	0.048270
	C10502	C	0.780178	0.252777	0.039075
	C10503	C	0.781379	0.315185	0.034726
	C10504	C	0.780933	0.190827	0.034644
	C10505	C	0.875590	0.043034	0.060977
	C10506	C	0.875661	0.962220	0.060967
	C10507	C	0.746959	0.043691	0.061469
	C10508	C	0.746957	0.962493	0.061486
	C10509	C	0.751770	0.043307	0.062751
	C10510	C	0.751770	0.962496	0.062755
	C10511	C	0.757233	0.462650	0.065331
	C10512	C	0.871866	0.461982	0.060065
	C10513	C	0.883053	0.462307	0.060774
	C10514	C	0.757238	0.543369	0.065344
	C10515	C	0.883044	0.542921	0.060777
	C10516	C	0.871858	0.542837	0.060087
	C10517	C	0.851804	0.752792	0.074965
	C10518	C	0.851858	0.252981	0.074983
	C10519	C	0.847356	0.752809	0.084169
	C10520	C	0.846464	0.690576	0.088562
	C10521	C	0.846055	0.814965	0.088564
	C10522	C	0.847346	0.253392	0.084172
	C10523	C	0.846314	0.191127	0.088564
	C10524	C	0.846144	0.315826	0.088514
	C10525	C	0.851739	0.252581	0.048286
	C10526	C	0.838438	0.754137	0.012547
	C10527	C	0.788837	0.751888	0.012544
	C10528	C	0.788892	0.753524	0.110694
	C10529	C	0.846448	0.691195	0.034626
	C10530	C	0.845884	0.815727	0.034769
	C10531	C	0.842936	0.754085	0.021755
	C10532	C	0.784291	0.752039	0.021765
	C10533	C	0.783596	0.689959	0.026195
	C10534	C	0.844238	0.691533	0.026060
	C10535	C	0.843670	0.816121	0.026195
	C10536	C	0.783030	0.814402	0.026078
	C10537	C	0.847215	0.753280	0.039076
	C10538	C	0.838474	0.752771	0.110713
	C10539	C	0.844189	0.690574	0.097133
	C10540	C	0.843816	0.815038	0.097138
	C10541	C	0.842911	0.752827	0.101502
	C10542	C	0.808803	0.462844	0.127085
	C10543	C	0.817706	0.462250	0.002626
	C10544	C	0.823095	0.462483	0.124147
	C10545	C	0.808819	0.543683	0.127087
	C10546	C	0.823142	0.543404	0.124147
	C10547	C	0.817717	0.543044	0.002634
	C10548	C	0.838458	0.253272	0.110693
	C10549	C	0.844075	0.191246	0.097129
	C10550	C	0.843888	0.315828	0.097086
	C10551	C	0.842959	0.253563	0.101485
	C10552	C	0.810214	0.043163	0.000246
	C10553	C	0.838559	0.251669	0.012535
	C10554	C	0.788878	0.253371	0.012554
	C10555	C	0.788975	0.252374	0.110724
	C10556	C	0.845982	0.190177	0.034720
	C10557	C	0.846500	0.314681	0.034658
	C10558	C	0.842940	0.252004	0.021749
	C10559	C	0.784417	0.253350	0.021751
	C10560	C	0.784415	0.753789	0.101485
	C10561	C	0.783202	0.816155	0.097165
	C10562	C	0.783714	0.691736	0.097079
	C10563	C	0.784479	0.252125	0.101513
	C10564	C	0.783527	0.314439	0.097123
	C10565	C	0.783269	0.189763	0.097153
	C10566	C	0.783125	0.191036	0.026074
	C10567	C	0.843813	0.189817	0.026146
	C10568	C	0.844308	0.314440	0.026087
	C10569	C	0.783580	0.315548	0.026152
	C10570	C	0.847257	0.252612	0.039087
	C10571	C	0.807270	0.043265	0.119633
	C10572	C	0.812433	0.043073	-0.002396
	C10573	C	0.810168	0.962205	0.000239
	C10574	C	0.807268	0.962419	0.119638
	C10575	C	0.812331	0.962130	-0.002416
	N10576	N	0.750379	0.070278	0.061607
	N10577	N	0.750342	0.935577	0.061603
	N10578	N	0.750856	0.435804	0.061693
	N10579	N	0.750854	0.570376	0.061697
	N10580	N	0.813615	0.435904	0.124143
	N10581	N	0.813612	0.570448	0.124115
	N10582	N	0.813791	0.070127	0.124071
	N10583	N	0.813755	0.935683	0.124113
	O10584	O	0.854064	0.693953	0.176741
	O10585	O	0.853915	0.811054	0.176704
	O10586	O	0.774049	0.695546	0.196444
	O10587	O	0.773519	0.812324	0.196558
	O10588	O	0.773444	0.193509	0.196590
	O10589	O	0.774317	0.310482	0.196438
	O10590	O	0.774174	0.695897	0.176797
	O10591	O	0.773531	0.812535	0.176690
	O10592	O	0.773520	0.193376	0.176723
	O10593	O	0.774158	0.310223	0.176776
	O10594	O	0.854234	0.694289	0.196529
	O10595	O	0.853686	0.811017	0.196426
	O10596	O	0.853848	0.194705	0.196434
	O10597	O	0.854359	0.311471	0.196560
	O10598	O	0.853944	0.194894	0.176744
	O10599	O	0.854002	0.311924	0.176724
	O10600	O	0.835847	0.693968	0.133955
	O10601	O	0.791467	0.694924	0.133996
	O10602	O	0.836475	0.695555	0.239260
	O10603	O	0.835921	0.812478	0.239174
	O10604	O	0.791899	0.693881	0.239179
	O10605	O	0.791286	0.810857	0.239292
	O10606	O	0.791448	0.811779	0.133971
	O10607	O	0.836205	0.810720	0.133942
	O10608	O	0.836261	0.194589	0.133946
	O10609	O	0.791682	0.194119	0.133986
	O10610	O	0.835905	0.193101	0.239198
	O10611	O	0.836784	0.309949	0.239284
	O10612	O	0.791327	0.196050	0.239330
	O10613	O	0.792054	0.312849	0.239200
	O10614	O	0.791419	0.310961	0.133996
	O10615	O	0.836026	0.311305	0.133986
	H10616	H	0.781371	0.643332	0.210077
	H10617	H	0.779464	0.863152	0.210283
	H10618	H	0.779594	0.142612	0.210303
	H10619	H	0.781838	0.362582	0.210030
	H10620	H	0.780239	0.863728	0.163024
	H10621	H	0.781228	0.643923	0.163143
	H10622	H	0.781204	0.361953	0.163164
	H10623	H	0.780115	0.141626	0.163045
	H10624	H	0.888934	0.065253	0.190674
	H10625	H	0.893018	0.064808	0.185797
	H10626	H	0.893010	0.941516	0.185754
	H10627	H	0.888808	0.941249	0.190628
	H10628	H	0.870073	0.065067	0.192254
	H10629	H	0.869930	0.941831	0.192226
	H10630	H	0.759628	0.064988	0.193044
	H10631	H	0.759558	0.940897	0.193025
	H10632	H	0.770424	0.064345	0.188557
	H10633	H	0.770479	0.941497	0.188545
	H10634	H	0.762915	0.064488	0.180876
	H10635	H	0.762877	0.941332	0.180883
	H10636	H	0.745355	0.441730	0.190962
	H10637	H	0.756876	0.441522	0.191218
	H10638	H	0.738376	0.441162	0.185891
	H10639	H	0.870052	0.441782	0.188713
	H10640	H	0.868823	0.441161	0.185186
	H10641	H	0.874499	0.441441	0.183615
	H10642	H	0.756800	0.564851	0.191182
	H10643	H	0.745360	0.564988	0.190905
	H10644	H	0.874539	0.564863	0.183602
	H10645	H	0.868761	0.564779	0.185195
	H10646	H	0.870132	0.565056	0.188705
	H10647	H	0.738374	0.565248	0.185838
	H10648	H	0.848247	0.642969	0.210255
	H10649	H	0.846075	0.863033	0.210024
	H10650	H	0.846060	0.142440	0.210015
	H10651	H	0.848278	0.362381	0.210243
	H10652	H	0.785142	0.643588	0.147698
	H10653	H	0.842967	0.642313	0.147619
	H10654	H	0.842862	0.862356	0.147636
	H10655	H	0.784112	0.863286	0.147585
	H10656	H	0.847105	0.642374	0.163082
	H10657	H	0.847011	0.862393	0.163072
	H10658	H	0.844265	0.643773	0.225707
	H10659	H	0.842068	0.863650	0.225459
	H10660	H	0.801975	0.441129	0.127072
	H10661	H	0.825057	0.441428	0.254450
	H10662	H	0.802013	0.441036	0.121186
	H10663	H	0.812330	0.441380	0.119021
	H10664	H	0.821751	0.441293	0.243057
	H10665	H	0.831905	0.441105	0.247266
	H10666	H	0.824900	0.564767	0.254431
	H10667	H	0.801863	0.564882	0.127052
	H10668	H	0.831750	0.564880	0.247310
	H10669	H	0.821688	0.564742	0.243129
	H10670	H	0.812316	0.564570	0.119039
	H10671	H	0.801846	0.564827	0.121184
	H10672	H	0.842055	0.141843	0.225449
	H10673	H	0.844296	0.361756	0.225658
	H10674	H	0.832573	0.064416	0.127569
	H10675	H	0.833249	0.064622	0.121220
	H10676	H	0.811049	0.065252	0.131584
	H10677	H	0.783648	0.862634	0.225717
	H10678	H	0.785554	0.642470	0.225490
	H10679	H	0.785901	0.363675	0.225475
	H10680	H	0.783597	0.143709	0.225718
	H10681	H	0.784154	0.142133	0.147575
	H10682	H	0.842433	0.142574	0.147663
	H10683	H	0.843632	0.362592	0.147578
	H10684	H	0.785175	0.362496	0.147729
	H10685	H	0.846591	0.142856	0.163108
	H10686	H	0.847784	0.362802	0.162997
	H10687	H	0.823616	0.064866	0.246666
	H10688	H	0.814795	0.064711	0.244821
	H10689	H	0.802664	0.064705	0.247287
	H10690	H	0.833296	0.941213	0.121269
	H10691	H	0.832420	0.941083	0.127598
	H10692	H	0.810914	0.941526	0.131639
	H10693	H	0.823537	0.941429	0.246662
	H10694	H	0.814676	0.941313	0.244820
	H10695	H	0.802600	0.941457	0.247309
	Zn10696	Zn	0.751854	0.680346	0.186621
	Zn10697	Zn	0.751319	0.825270	0.186636
	Zn10698	Zn	0.751421	0.180543	0.186667
	Zn10699	Zn	0.751917	0.325447	0.186633
	Zn10700	Zn	0.814197	0.680636	0.249103
	Zn10701	Zn	0.813700	0.825155	0.249138
	Zn10702	Zn	0.813642	0.180735	0.249144
	Zn10703	Zn	0.814337	0.325209	0.249099
	C10704	C	0.851494	0.752397	0.173237
	C10705	C	0.776213	0.753801	0.200017
	C10706	C	0.780579	0.753296	0.209233
	C10707	C	0.782040	0.690878	0.213544
	C10708	C	0.781008	0.815320	0.213670
	C10709	C	0.776337	0.252151	0.200005
	C10710	C	0.780710	0.252555	0.209223
	C10711	C	0.781063	0.190677	0.213676
	C10712	C	0.782336	0.315104	0.213527
	C10713	C	0.776314	0.754110	0.173232
	C10714	C	0.780642	0.753803	0.164032
	C10715	C	0.781376	0.815858	0.159615
	C10716	C	0.781910	0.691537	0.159680
	C10717	C	0.776318	0.251767	0.173243
	C10718	C	0.780690	0.251707	0.164026
	C10719	C	0.781942	0.314185	0.159698
	C10720	C	0.781374	0.189564	0.159622
	C10721	C	0.887127	0.043781	0.187795
	C10722	C	0.887102	0.962802	0.187784
	C10723	C	0.761501	0.043402	0.189715
	C10724	C	0.761458	0.962529	0.189702
	C10725	C	0.753944	0.043493	0.181997
	C10726	C	0.753913	0.962425	0.181997
	C10727	C	0.751297	0.462860	0.189896
	C10728	C	0.874169	0.462946	0.188526
	C10729	C	0.872912	0.462774	0.184978
	C10730	C	0.751290	0.543401	0.189876
	C10731	C	0.872923	0.543644	0.184982
	C10732	C	0.874229	0.543486	0.188532
	C10733	C	0.851491	0.752771	0.199998
	C10734	C	0.851546	0.252892	0.200002
	C10735	C	0.847142	0.752933	0.209204
	C10736	C	0.846796	0.690884	0.213641
	C10737	C	0.845578	0.815367	0.213506
	C10738	C	0.847262	0.252451	0.209203
	C10739	C	0.845689	0.190030	0.213511
	C10740	C	0.846910	0.314435	0.213631
	C10741	C	0.851495	0.253363	0.173234
	C10742	C	0.838527	0.752311	0.137460
	C10743	C	0.788983	0.753396	0.137484
	C10744	C	0.789073	0.752458	0.235745
	C10745	C	0.846104	0.690052	0.159639
	C10746	C	0.846084	0.814632	0.159641
	C10747	C	0.842907	0.752341	0.146678
	C10748	C	0.784688	0.753464	0.146697
	C10749	C	0.783982	0.691418	0.151103
	C10750	C	0.843949	0.690066	0.151057
	C10751	C	0.843896	0.814582	0.151064
	C10752	C	0.783442	0.815661	0.151042
	C10753	C	0.847172	0.752315	0.164011
	C10754	C	0.838666	0.753985	0.235724
	C10755	C	0.844681	0.691298	0.222213
	C10756	C	0.843471	0.815688	0.222078
	C10757	C	0.843079	0.753726	0.226522
	C10758	C	0.816568	0.462467	0.253429
	C10759	C	0.808825	0.462507	0.121180
	C10760	C	0.823511	0.462593	0.246203
	C10761	C	0.816518	0.543255	0.253443
	C10762	C	0.823425	0.543593	0.246234
	C10763	C	0.808815	0.543356	0.121160
	C10764	C	0.838811	0.251518	0.235733
	C10765	C	0.843550	0.189738	0.222083
	C10766	C	0.844810	0.314025	0.222203
	C10767	C	0.843143	0.251696	0.226533
	C10768	C	0.827862	0.043199	0.124327
	C10769	C	0.838598	0.252867	0.137479
	C10770	C	0.789091	0.252464	0.137492
	C10771	C	0.789189	0.254315	0.235756
	C10772	C	0.845907	0.190561	0.159647
	C10773	C	0.846523	0.315002	0.159595
	C10774	C	0.843020	0.252585	0.146670
	C10775	C	0.784782	0.252238	0.146701
	C10776	C	0.784687	0.752526	0.226556
	C10777	C	0.783108	0.814993	0.222247
	C10778	C	0.784172	0.690468	0.222113
	C10779	C	0.784842	0.253725	0.226552
	C10780	C	0.784464	0.315649	0.222103
	C10781	C	0.783198	0.191289	0.222250
	C10782	C	0.783459	0.189868	0.151046
	C10783	C	0.843738	0.190389	0.151070
	C10784	C	0.844379	0.314875	0.151022
	C10785	C	0.784014	0.314431	0.151121
	C10786	C	0.847221	0.252945	0.164003
	C10787	C	0.817745	0.043677	0.246636
	C10788	C	0.806246	0.043622	0.128377
	C10789	C	0.827843	0.962517	0.124353
	C10790	C	0.817706	0.962676	0.246630
	C10791	C	0.806204	0.962541	0.128384
	N10792	N	0.751507	0.070356	0.186604
	N10793	N	0.751490	0.935738	0.186613
	N10794	N	0.751918	0.435731	0.186617
	N10795	N	0.751884	0.570334	0.186582
	N10796	N	0.814253	0.435588	0.249094
	N10797	N	0.814181	0.570241	0.249136
	N10798	N	0.813629	0.070441	0.249137
	N10799	N	0.813585	0.935769	0.249146
	O10800	O	0.854510	0.694153	0.301693
	O10801	O	0.854414	0.811092	0.301795
	O10802	O	0.773105	0.693311	0.321542
	O10803	O	0.773661	0.810219	0.321438
	O10804	O	0.773595	0.195164	0.321419
	O10805	O	0.773342	0.311963	0.321450
	O10806	O	0.773195	0.693563	0.301742
	O10807	O	0.773512	0.810316	0.301766
	O10808	O	0.773695	0.196013	0.301783
	O10809	O	0.773133	0.312880	0.301768
	O10810	O	0.854295	0.694108	0.321494
	O10811	O	0.854458	0.811006	0.321498
	O10812	O	0.854347	0.194741	0.321528
	O10813	O	0.854580	0.311629	0.321522
	O10814	O	0.854336	0.194074	0.301733
	O10815	O	0.854408	0.310973	0.301752
	O10816	O	0.836672	0.695727	0.258940
	O10817	O	0.792062	0.693521	0.259062
	O10818	O	0.836099	0.694484	0.364253
	O10819	O	0.836488	0.811499	0.364263
	O10820	O	0.791147	0.695359	0.364285
	O10821	O	0.791823	0.812178	0.364150
	O10822	O	0.791599	0.810428	0.259061
	O10823	O	0.836172	0.812456	0.259012
	O10824	O	0.835945	0.193442	0.259054
	O10825	O	0.791593	0.196285	0.259041
	O10826	O	0.836449	0.195827	0.364261
	O10827	O	0.836174	0.312598	0.364283
	O10828	O	0.792018	0.193912	0.364144
	O10829	O	0.791434	0.310959	0.364230
	O10830	O	0.792191	0.313091	0.259043
	O10831	O	0.836598	0.310213	0.258977
	H10832	H	0.779857	0.642244	0.335205
	H10833	H	0.781336	0.862526	0.335009
	H10834	H	0.780904	0.143351	0.335024
	H10835	H	0.780148	0.363551	0.335147
	H10836	H	0.780354	0.861704	0.288107
	H10837	H	0.780724	0.641638	0.288125
	H10838	H	0.780395	0.364778	0.288142
	H10839	H	0.780846	0.144572	0.288138
	H10840	H	0.857500	0.064396	0.311772
	H10841	H	0.864654	0.064711	0.316985
	H10842	H	0.864789	0.940966	0.316993
	H10843	H	0.857571	0.941171	0.311835
	H10844	H	0.869714	0.064254	0.305170
	H10845	H	0.869758	0.941326	0.305212
	H10846	H	0.760935	0.064558	0.307185
	H10847	H	0.761049	0.941038	0.307198
	H10848	H	0.748125	0.064918	0.306058
	H10849	H	0.748152	0.941339	0.306072
	H10850	H	0.735586	0.064600	0.310783
	H10851	H	0.735716	0.941438	0.310802
	H10852	H	0.749933	0.441298	0.314106
	H10853	H	0.755458	0.441417	0.313425
	H10854	H	0.743752	0.441048	0.312252
	H10855	H	0.878639	0.441567	0.315609
	H10856	H	0.866891	0.440792	0.313607
	H10857	H	0.865963	0.441057	0.310149
	H10858	H	0.755540	0.564410	0.313404
	H10859	H	0.749989	0.564804	0.314127
	H10860	H	0.865989	0.564351	0.310183
	H10861	H	0.866790	0.564416	0.313621
	H10862	H	0.878666	0.564617	0.315640
	H10863	H	0.743832	0.564957	0.312257
	H10864	H	0.846964	0.642401	0.335149
	H10865	H	0.847825	0.862626	0.335155
	H10866	H	0.847631	0.143541	0.335229
	H10867	H	0.847292	0.363817	0.335129
	H10868	H	0.785073	0.641755	0.272686
	H10869	H	0.843824	0.643682	0.272549
	H10870	H	0.842652	0.863651	0.272720
	H10871	H	0.784699	0.861580	0.272678
	H10872	H	0.847817	0.643036	0.288001
	H10873	H	0.846723	0.863089	0.288162
	H10874	H	0.842915	0.642614	0.350592
	H10875	H	0.843754	0.862784	0.350614
	H10876	H	0.809796	0.441279	0.255509
	H10877	H	0.808609	0.441138	0.375450
	H10878	H	0.796024	0.441513	0.249786
	H10879	H	0.800978	0.441448	0.244557
	H10880	H	0.819362	0.440752	0.375004
	H10881	H	0.815483	0.440940	0.376249
	H10882	H	0.808564	0.564378	0.375429
	H10883	H	0.809774	0.564709	0.255506
	H10884	H	0.815420	0.564721	0.376244
	H10885	H	0.819432	0.564709	0.375001
	H10886	H	0.800906	0.564706	0.244589
	H10887	H	0.795970	0.565084	0.249818
	H10888	H	0.843333	0.144223	0.350646
	H10889	H	0.842989	0.364125	0.350586
	H10890	H	0.814667	0.064998	0.253510
	H10891	H	0.823531	0.064703	0.251669
	H10892	H	0.802622	0.064788	0.250952
	H10893	H	0.785516	0.863495	0.350411
	H10894	H	0.784010	0.643108	0.350652
	H10895	H	0.784486	0.362925	0.350591
	H10896	H	0.785147	0.142726	0.350450
	H10897	H	0.785098	0.144785	0.272712
	H10898	H	0.842996	0.142087	0.272700
	H10899	H	0.843185	0.362109	0.272671
	H10900	H	0.784717	0.364719	0.272698
	H10901	H	0.847326	0.142401	0.288133
	H10902	H	0.847418	0.362496	0.288076
	H10903	H	0.817670	0.064932	0.378174
	H10904	H	0.825095	0.064709	0.375781
	H10905	H	0.822164	0.064703	0.370926
	H10906	H	0.823535	0.941428	0.251690
	H10907	H	0.814667	0.941126	0.253491
	H10908	H	0.802649	0.941355	0.250950
	H10909	H	0.817580	0.941623	0.378185
	H10910	H	0.824907	0.941529	0.375733
	H10911	H	0.821951	0.941463	0.370950
	Zn10912	Zn	0.750786	0.680800	0.311594
	Zn10913	Zn	0.751296	0.825675	0.311627
	Zn10914	Zn	0.751163	0.180731	0.311573
	Zn10915	Zn	0.750646	0.325505	0.311635
	Zn10916	Zn	0.813872	0.680370	0.374094
	Zn10917	Zn	0.813944	0.825320	0.374119
	Zn10918	Zn	0.814113	0.180709	0.374128
	Zn10919	Zn	0.813631	0.325389	0.374110
	C10920	C	0.851889	0.752787	0.298257
	C10921	C	0.775920	0.751857	0.324991
	C10922	C	0.780489	0.752245	0.334173
	C10923	C	0.781195	0.690210	0.338592
	C10924	C	0.782000	0.814871	0.338477
	C10925	C	0.776039	0.253580	0.324939
	C10926	C	0.780543	0.253429	0.334143
	C10927	C	0.781727	0.191052	0.338484
	C10928	C	0.781370	0.315586	0.338552
	C10929	C	0.775894	0.751907	0.298249
	C10930	C	0.780466	0.751720	0.289064
	C10931	C	0.781540	0.813894	0.284694
	C10932	C	0.781667	0.689476	0.284699
	C10933	C	0.775956	0.254539	0.298281
	C10934	C	0.780512	0.254729	0.289087
	C10935	C	0.781510	0.316996	0.284707
	C10936	C	0.781709	0.192496	0.284710
	C10937	C	0.865236	0.043429	0.313655
	C10938	C	0.865257	0.962517	0.313669
	C10939	C	0.753665	0.043568	0.307943
	C10940	C	0.753681	0.962610	0.307950
	C10941	C	0.741105	0.043412	0.312690
	C10942	C	0.741137	0.962633	0.312684
	C10943	C	0.752105	0.462637	0.313207
	C10944	C	0.881106	0.462664	0.313846
	C10945	C	0.869139	0.462410	0.311814
	C10946	C	0.752152	0.543408	0.313205
	C10947	C	0.869132	0.543369	0.311831
	C10948	C	0.881109	0.543204	0.313862
	C10949	C	0.851897	0.752555	0.325003
	C10950	C	0.851927	0.253239	0.325017
	C10951	C	0.847529	0.752548	0.334225
	C10952	C	0.846242	0.690232	0.338588
	C10953	C	0.846716	0.814929	0.338585
	C10954	C	0.847378	0.253562	0.334207
	C10955	C	0.846454	0.191538	0.338615
	C10956	C	0.846260	0.316005	0.338570
	C10957	C	0.851919	0.252597	0.298240
	C10958	C	0.838860	0.754027	0.262501
	C10959	C	0.789292	0.751877	0.262557
	C10960	C	0.789063	0.753609	0.360705
	C10961	C	0.846624	0.691037	0.284609
	C10962	C	0.846024	0.815471	0.284707
	C10963	C	0.843143	0.753777	0.271715
	C10964	C	0.784915	0.751689	0.271766
	C10965	C	0.783934	0.689477	0.276132
	C10966	C	0.844456	0.691286	0.276029
	C10967	C	0.843836	0.815848	0.276132
	C10968	C	0.783759	0.813892	0.276128
	C10969	C	0.847397	0.753111	0.289045
	C10970	C	0.838788	0.752943	0.360759
	C10971	C	0.844059	0.690408	0.347166
	C10972	C	0.844503	0.814975	0.347162
	C10973	C	0.843205	0.752780	0.351549
	C10974	C	0.809542	0.462558	0.374426
	C10975	C	0.802604	0.462715	0.247683
	C10976	C	0.816434	0.462150	0.375226
	C10977	C	0.809544	0.543350	0.374408
	C10978	C	0.816418	0.543285	0.375232
	C10979	C	0.802597	0.543584	0.247701
	C10980	C	0.838814	0.254285	0.360754
	C10981	C	0.844302	0.191828	0.347183
	C10982	C	0.844108	0.316347	0.347150
	C10983	C	0.843163	0.254171	0.351539
	C10984	C	0.817659	0.043432	0.251698
	C10985	C	0.838788	0.251835	0.262526
	C10986	C	0.789356	0.254823	0.262550
	C10987	C	0.789261	0.252499	0.360689
	C10988	C	0.846340	0.190135	0.284693
	C10989	C	0.846448	0.314585	0.284668
	C10990	C	0.843190	0.251982	0.271728
	C10991	C	0.784870	0.254898	0.271758
	C10992	C	0.784779	0.753207	0.351488
	C10993	C	0.784215	0.815331	0.347042
	C10994	C	0.783409	0.690733	0.347168
	C10995	C	0.784900	0.252845	0.351471
	C10996	C	0.783629	0.315252	0.347127
	C10997	C	0.783966	0.190765	0.347058
	C10998	C	0.783923	0.192606	0.276140
	C10999	C	0.844105	0.189892	0.276124
	C11000	C	0.844224	0.314387	0.276099
	C11001	C	0.783764	0.317029	0.276138
	C11002	C	0.847531	0.252458	0.289051
	C11003	C	0.819441	0.043543	0.376207
	C11004	C	0.805512	0.043468	0.249123
	C11005	C	0.817656	0.962495	0.251681
	C11006	C	0.819358	0.962688	0.376207
	C11007	C	0.805479	0.962663	0.249144
	N11008	N	0.751214	0.070502	0.311630
	N11009	N	0.751232	0.935890	0.311606
	N11010	N	0.750563	0.435738	0.311622
	N11011	N	0.750623	0.570361	0.311624
	N11012	N	0.813610	0.435641	0.374097
	N11013	N	0.813647	0.570215	0.374093
	N11014	N	0.814092	0.070366	0.374122
	N11015	N	0.813971	0.935703	0.374114
	O11016	O	0.854395	0.693659	0.426672
	O11017	O	0.853835	0.810510	0.426745
	O11018	O	0.774172	0.695748	0.446434
	O11019	O	0.773680	0.812604	0.446486
	O11020	O	0.773752	0.193499	0.446522
	O11021	O	0.774269	0.310387	0.446480
	O11022	O	0.773936	0.695044	0.426728
	O11023	O	0.773736	0.812043	0.426756
	O11024	O	0.773371	0.193134	0.426706
	O11025	O	0.774121	0.309975	0.426738
	O11026	O	0.854034	0.693897	0.446452
	O11027	O	0.853955	0.810775	0.446502
	O11028	O	0.853839	0.195802	0.446464
	O11029	O	0.854366	0.312645	0.446526
	O11030	O	0.853823	0.196077	0.426698
	O11031	O	0.854307	0.312854	0.426737
	O11032	O	0.836368	0.694340	0.383905
	O11033	O	0.791591	0.694806	0.384040
	O11034	O	0.836097	0.693956	0.489247
	O11035	O	0.836083	0.810798	0.489246
	O11036	O	0.791713	0.694985	0.489180
	O11037	O	0.791363	0.812062	0.489267
	O11038	O	0.791397	0.811789	0.383956
	O11039	O	0.836107	0.811191	0.384016
	O11040	O	0.836313	0.195580	0.384017
	O11041	O	0.791862	0.193466	0.383997
	O11042	O	0.836108	0.195574	0.489231
	O11043	O	0.835966	0.312316	0.489258
	O11044	O	0.791410	0.193646	0.489302
	O11045	O	0.791612	0.310538	0.489215
	O11046	O	0.791500	0.310352	0.384009
	O11047	O	0.836185	0.312486	0.383963
	H11048	H	0.780852	0.644061	0.460107
	H11049	H	0.780303	0.864036	0.460174
	H11050	H	0.780766	0.141730	0.460149
	H11051	H	0.780666	0.361982	0.460179
	H11052	H	0.780120	0.863866	0.413051
	H11053	H	0.780908	0.643608	0.413124
	H11054	H	0.781078	0.361833	0.413117
	H11055	H	0.780524	0.141588	0.413049
	H11056	H	0.866906	0.065000	0.434736
	H11057	H	0.866086	0.064842	0.437880
	H11058	H	0.866242	0.941560	0.437893
	H11059	H	0.867023	0.941288	0.434702
	H11060	H	0.877981	0.064824	0.432869
	H11061	H	0.877960	0.941257	0.432875
	H11062	H	0.749596	0.064893	0.436564
	H11063	H	0.749669	0.941361	0.436557
	H11064	H	0.750139	0.064590	0.437039
	H11065	H	0.750230	0.940980	0.437013
	H11066	H	0.752133	0.064724	0.437146
	H11067	H	0.751976	0.940904	0.437119
	H11068	H	0.756018	0.441178	0.435143
	H11069	H	0.751411	0.441384	0.434582
	H11070	H	0.757265	0.441643	0.437539
	H11071	H	0.877677	0.441438	0.438630
	H11072	H	0.871575	0.441295	0.437608
	H11073	H	0.871395	0.441107	0.435878
	H11074	H	0.751495	0.564536	0.434541
	H11075	H	0.756016	0.564882	0.435153
	H11076	H	0.871143	0.564310	0.435868
	H11077	H	0.871717	0.564844	0.437663
	H11078	H	0.877665	0.565115	0.438694
	H11079	H	0.757280	0.564781	0.437548
	H11080	H	0.847493	0.642167	0.460195
	H11081	H	0.846772	0.862176	0.460115
	H11082	H	0.847232	0.144486	0.460120
	H11083	H	0.847212	0.364656	0.460187
	H11084	H	0.784998	0.643346	0.397677
	H11085	H	0.843593	0.641973	0.397574
	H11086	H	0.842780	0.862370	0.397664
	H11087	H	0.784244	0.863755	0.397604
	H11088	H	0.847836	0.641892	0.413028
	H11089	H	0.846890	0.862186	0.413077
	H11090	H	0.843313	0.642514	0.475635
	H11091	H	0.842671	0.862514	0.475545
	H11092	H	0.807576	0.441028	0.373572
	H11093	H	0.810951	0.441181	0.493748
	H11094	H	0.812876	0.441080	0.371897
	H11095	H	0.817904	0.441187	0.372478
	H11096	H	0.801809	0.441303	0.502585
	H11097	H	0.798509	0.441678	0.498153
	H11098	H	0.811026	0.564967	0.493710
	H11099	H	0.807522	0.564575	0.373603
	H11100	H	0.798657	0.564933	0.498118
	H11101	H	0.801735	0.564844	0.502588
	H11102	H	0.817985	0.564699	0.372462
	H11103	H	0.813000	0.564734	0.371851
	H11104	H	0.843107	0.144234	0.475542
	H11105	H	0.843010	0.364269	0.475664
	H11106	H	0.802522	0.064662	0.373193
	H11107	H	0.804618	0.064535	0.376698
	H11108	H	0.812547	0.065006	0.369873
	H11109	H	0.784387	0.863657	0.475627
	H11110	H	0.784817	0.643714	0.475525
	H11111	H	0.784578	0.361900	0.475620
	H11112	H	0.784689	0.141688	0.475594
	H11113	H	0.784781	0.141794	0.397613
	H11114	H	0.842696	0.144589	0.397635
	H11115	H	0.843519	0.364795	0.397595
	H11116	H	0.785320	0.362150	0.397701
	H11117	H	0.846697	0.144838	0.413086
	H11118	H	0.847674	0.364982	0.413031
	H11119	H	0.815005	0.064628	0.506172
	H11120	H	0.829573	0.064175	0.503356
	H11121	H	0.830295	0.064875	0.495232
	H11122	H	0.804462	0.941228	0.376675
	H11123	H	0.802425	0.940739	0.373188
	H11124	H	0.812452	0.940906	0.369865
	H11125	H	0.814856	0.941443	0.506169
	H11126	H	0.829505	0.941329	0.503352
	H11127	H	0.830351	0.941245	0.495203
	Zn11128	Zn	0.751821	0.680458	0.436620
	Zn11129	Zn	0.751349	0.825231	0.436576
	Zn11130	Zn	0.751185	0.180579	0.436664
	Zn11131	Zn	0.752018	0.325339	0.436606
	Zn11132	Zn	0.813670	0.680610	0.499117
	Zn11133	Zn	0.813886	0.825705	0.499126
	Zn11134	Zn	0.813956	0.180398	0.499143
	Zn11135	Zn	0.813692	0.325499	0.499099
	C11136	C	0.851631	0.752122	0.423205
	C11137	C	0.776323	0.754191	0.449973
	C11138	C	0.780709	0.754124	0.459180
	C11139	C	0.781761	0.691808	0.463536
	C11140	C	0.781490	0.816173	0.463588
	C11141	C	0.776383	0.251871	0.450013
	C11142	C	0.780761	0.251829	0.459211
	C11143	C	0.781745	0.189563	0.463591
	C11144	C	0.781682	0.314120	0.463599
	C11145	C	0.776269	0.753640	0.423238
	C11146	C	0.780658	0.753726	0.414024
	C11147	C	0.781345	0.816020	0.409626
	C11148	C	0.781786	0.691368	0.409667
	C11149	C	0.776245	0.251499	0.423221
	C11150	C	0.780733	0.251640	0.414024
	C11151	C	0.781966	0.314039	0.409671
	C11152	C	0.781636	0.189420	0.409628
	C11153	C	0.869004	0.043563	0.436374
	C11154	C	0.869075	0.962726	0.436376
	C11155	C	0.750248	0.043481	0.436752
	C11156	C	0.750295	0.962670	0.436738
	C11157	C	0.752196	0.043310	0.436859
	C11158	C	0.752166	0.962425	0.436853
	C11159	C	0.753289	0.462415	0.435327
	C11160	C	0.878911	0.462542	0.437763
	C11161	C	0.872884	0.462641	0.436715
	C11162	C	0.753266	0.543462	0.435324
	C11163	C	0.872802	0.543465	0.436733
	C11164	C	0.878890	0.543544	0.437779
	C11165	C	0.851528	0.752185	0.449985
	C11166	C	0.851639	0.254253	0.450007
	C11167	C	0.847138	0.752091	0.459198
	C11168	C	0.846347	0.690021	0.463612
	C11169	C	0.845940	0.814402	0.463562
	C11170	C	0.847219	0.254572	0.459199
	C11171	C	0.846203	0.192259	0.463553
	C11172	C	0.846205	0.316779	0.463615
	C11173	C	0.851595	0.254625	0.423210
	C11174	C	0.838640	0.752592	0.387473
	C11175	C	0.789069	0.753437	0.387496
	C11176	C	0.789079	0.753635	0.485732
	C11177	C	0.846513	0.689810	0.409601
	C11178	C	0.845995	0.814355	0.409638
	C11179	C	0.842999	0.752221	0.396682
	C11180	C	0.784669	0.753550	0.396696
	C11181	C	0.783865	0.691280	0.401092
	C11182	C	0.844317	0.689841	0.401024
	C11183	C	0.843864	0.814424	0.401065
	C11184	C	0.783442	0.815953	0.401048
	C11185	C	0.847220	0.752071	0.414008
	C11186	C	0.838542	0.752385	0.485743
	C11187	C	0.844200	0.690160	0.472189
	C11188	C	0.843798	0.814603	0.472132
	C11189	C	0.843002	0.752451	0.476539
	C11190	C	0.816165	0.462737	0.495588
	C11191	C	0.814919	0.462429	0.372692
	C11192	C	0.803636	0.462832	0.500032
	C11193	C	0.816212	0.543618	0.495574
	C11194	C	0.803665	0.543602	0.500028
	C11195	C	0.814971	0.543261	0.372676
	C11196	C	0.838529	0.254022	0.485744
	C11197	C	0.844033	0.192129	0.472122
	C11198	C	0.843994	0.316617	0.472191
	C11199	C	0.843000	0.254222	0.476529
	C11200	C	0.806318	0.043257	0.374725
	C11201	C	0.838732	0.254181	0.387493
	C11202	C	0.789247	0.251862	0.387509
	C11203	C	0.788982	0.251933	0.485765
	C11204	C	0.846032	0.192655	0.409636
	C11205	C	0.846539	0.317086	0.409617
	C11206	C	0.843179	0.254631	0.396693
	C11207	C	0.784906	0.251906	0.396700
	C11208	C	0.784766	0.753736	0.476516
	C11209	C	0.783608	0.816030	0.472170
	C11210	C	0.783874	0.691538	0.472115
	C11211	C	0.784629	0.251763	0.476544
	C11212	C	0.783700	0.314094	0.472176
	C11213	C	0.783766	0.189505	0.472166
	C11214	C	0.783821	0.189559	0.401058
	C11215	C	0.843926	0.192447	0.401065
	C11216	C	0.844391	0.317034	0.401043
	C11217	C	0.784119	0.314155	0.401104
	C11218	C	0.847307	0.254850	0.414005
	C11219	C	0.820026	0.043328	0.503273
	C11220	C	0.816458	0.043437	0.371382
	C11221	C	0.806243	0.962393	0.374715
	C11222	C	0.820012	0.962701	0.503284
	C11223	C	0.816390	0.962533	0.371372
	N11224	N	0.751362	0.070324	0.436587
	N11225	N	0.751369	0.935701	0.436601
	N11226	N	0.752003	0.435763	0.436638
	N11227	N	0.751930	0.570348	0.436640
	N11228	N	0.813515	0.435784	0.499121
	N11229	N	0.813643	0.570348	0.499093
	N11230	N	0.813801	0.070221	0.499095
	N11231	N	0.813765	0.935689	0.499105
	O11232	O	0.854334	0.693748	0.551752
	O11233	O	0.854053	0.810808	0.551750
	O11234	O	0.773706	0.694934	0.571532
	O11235	O	0.774201	0.811684	0.571497
	O11236	O	0.774160	0.194491	0.571483
	O11237	O	0.773830	0.311437	0.571522
	O11238	O	0.773781	0.694560	0.551762
	O11239	O	0.774257	0.811379	0.551822
	O11240	O	0.774306	0.194762	0.551828
	O11241	O	0.774085	0.311485	0.551754
	O11242	O	0.854276	0.693710	0.571485
	O11243	O	0.854196	0.810606	0.571527
	O11244	O	0.854278	0.195228	0.571497
	O11245	O	0.854285	0.311852	0.571496
	O11246	O	0.854123	0.194501	0.551740
	O11247	O	0.854305	0.311279	0.551770
	O11248	O	0.836167	0.694065	0.508963
	O11249	O	0.791535	0.695082	0.509009
	O11250	O	0.835996	0.693143	0.614196
	O11251	O	0.836583	0.810043	0.614247
	O11252	O	0.791449	0.695964	0.614267
	O11253	O	0.791928	0.812884	0.614222
	O11254	O	0.791864	0.811778	0.509052
	O11255	O	0.836361	0.810916	0.508979
	O11256	O	0.836519	0.194914	0.508950
	O11257	O	0.791654	0.194013	0.509021
	O11258	O	0.836765	0.196070	0.614297
	O11259	O	0.835957	0.312985	0.614187
	O11260	O	0.792158	0.193305	0.614187
	O11261	O	0.791310	0.310179	0.614316
	O11262	O	0.791332	0.310928	0.508981
	O11263	O	0.836092	0.311535	0.508970
	H11264	H	0.780111	0.643497	0.585216
	H11265	H	0.781398	0.863840	0.585092
	H11266	H	0.781376	0.142658	0.585100
	H11267	H	0.780043	0.362773	0.585210
	H11268	H	0.781512	0.862970	0.538187
	H11269	H	0.780165	0.642949	0.538119
	H11270	H	0.780840	0.363165	0.538106
	H11271	H	0.781141	0.142822	0.538153
	H11272	H	0.878211	0.064437	0.558460
	H11273	H	0.870762	0.064609	0.559073
	H11274	H	0.870824	0.940698	0.559121
	H11275	H	0.878142	0.941232	0.558479
	H11276	H	0.885295	0.064238	0.561180
	H11277	H	0.885232	0.940941	0.561174
	H11278	H	0.740599	0.064185	0.563411
	H11279	H	0.740591	0.941055	0.563453
	H11280	H	0.748428	0.064880	0.565820
	H11281	H	0.748481	0.941129	0.565847
	H11282	H	0.761801	0.064726	0.564149
	H11283	H	0.761586	0.941115	0.564135
	H11284	H	0.758030	0.441204	0.566037
	H11285	H	0.765146	0.440860	0.562740
	H11286	H	0.742296	0.441096	0.565247
	H11287	H	0.878432	0.440894	0.560130
	H11288	H	0.881269	0.440976	0.561708
	H11289	H	0.879525	0.441529	0.562958
	H11290	H	0.765139	0.564246	0.562744
	H11291	H	0.757987	0.564608	0.566035
	H11292	H	0.879416	0.564722	0.562929
	H11293	H	0.881245	0.564810	0.561741
	H11294	H	0.878483	0.564517	0.560156
	H11295	H	0.742255	0.564926	0.565254
	H11296	H	0.846848	0.641659	0.585113
	H11297	H	0.848041	0.862092	0.585240
	H11298	H	0.848000	0.143754	0.585220
	H11299	H	0.846891	0.363797	0.585118
	H11300	H	0.784154	0.643152	0.522673
	H11301	H	0.842807	0.642230	0.522672
	H11302	H	0.843459	0.862161	0.522654
	H11303	H	0.785357	0.863040	0.522732
	H11304	H	0.846974	0.642115	0.538110
	H11305	H	0.847563	0.862098	0.538099
	H11306	H	0.842677	0.641432	0.600549
	H11307	H	0.843936	0.861735	0.600675
	H11308	H	0.823288	0.441589	0.494959
	H11309	H	0.812880	0.441103	0.622314
	H11310	H	0.827690	0.441300	0.501012
	H11311	H	0.818627	0.441019	0.504219
	H11312	H	0.809594	0.441458	0.625359
	H11313	H	0.808440	0.441177	0.623845
	H11314	H	0.812837	0.564875	0.622302
	H11315	H	0.823363	0.564829	0.494922
	H11316	H	0.808462	0.564552	0.623768
	H11317	H	0.809424	0.564536	0.625326
	H11318	H	0.818737	0.564896	0.504236
	H11319	H	0.827800	0.564682	0.501004
	H11320	H	0.843859	0.144083	0.600644
	H11321	H	0.842730	0.364166	0.600547
	H11322	H	0.796229	0.064945	0.495881
	H11323	H	0.795594	0.065159	0.501823
	H11324	H	0.816295	0.064756	0.492045
	H11325	H	0.785393	0.864427	0.600529
	H11326	H	0.784123	0.644131	0.600653
	H11327	H	0.784158	0.362396	0.600676
	H11328	H	0.785437	0.142226	0.600552
	H11329	H	0.784992	0.142731	0.522705
	H11330	H	0.843203	0.143302	0.522590
	H11331	H	0.843287	0.363122	0.522629
	H11332	H	0.784654	0.362901	0.522655
	H11333	H	0.847405	0.143138	0.538033
	H11334	H	0.847492	0.363231	0.538053
	H11335	H	0.800221	0.065002	0.624208
	H11336	H	0.805299	0.064333	0.628054
	H11337	H	0.821629	0.064702	0.628456
	H11338	H	0.795649	0.941408	0.501857
	H11339	H	0.796176	0.941415	0.495911
	H11340	H	0.816221	0.941294	0.492050
	H11341	H	0.800160	0.940931	0.624227
	H11342	H	0.805443	0.941453	0.628069
	H11343	H	0.821555	0.941203	0.628490
	Zn11344	Zn	0.751659	0.680690	0.561634
	Zn11345	Zn	0.751659	0.825397	0.561639
	Zn11346	Zn	0.751808	0.180381	0.561595
	Zn11347	Zn	0.751577	0.325115	0.561619
	Zn11348	Zn	0.813619	0.680270	0.624118
	Zn11349	Zn	0.814347	0.825624	0.624157
	Zn11350	Zn	0.814292	0.180223	0.624095
	Zn11351	Zn	0.813673	0.325584	0.624152
	C11352	C	0.851695	0.752211	0.548264
	C11353	C	0.776453	0.753331	0.575017
	C11354	C	0.780747	0.753588	0.584223
	C11355	C	0.781364	0.691470	0.588625
	C11356	C	0.782051	0.816074	0.588556
	C11357	C	0.776475	0.252951	0.574998
	C11358	C	0.780807	0.252772	0.584220
	C11359	C	0.782082	0.190383	0.588568
	C11360	C	0.781368	0.314981	0.588629
	C11361	C	0.776481	0.753020	0.548298
	C11362	C	0.780718	0.752975	0.539089
	C11363	C	0.782062	0.815271	0.534731
	C11364	C	0.781356	0.690771	0.534698
	C11365	C	0.776668	0.252976	0.548285
	C11366	C	0.780939	0.252920	0.539079
	C11367	C	0.781791	0.315251	0.534690
	C11368	C	0.781944	0.190652	0.534715
	C11369	C	0.875012	0.043255	0.559537
	C11370	C	0.874924	0.962292	0.559545
	C11371	C	0.746436	0.043432	0.563840
	C11372	C	0.746420	0.962522	0.563842
	C11373	C	0.759787	0.043424	0.562148
	C11374	C	0.759750	0.962655	0.562145
	C11375	C	0.758983	0.462559	0.563663
	C11376	C	0.876546	0.462371	0.560542
	C11377	C	0.879425	0.462636	0.562135
	C11378	C	0.758950	0.543325	0.563666
	C11379	C	0.879410	0.543401	0.562144
	C11380	C	0.876621	0.543119	0.560566
	C11381	C	0.851790	0.752047	0.575005
	C11382	C	0.851810	0.253577	0.575020
	C11383	C	0.847493	0.751863	0.584225
	C11384	C	0.846138	0.689463	0.588569
	C11385	C	0.846801	0.814145	0.588637
	C11386	C	0.847430	0.253759	0.584226
	C11387	C	0.846705	0.191619	0.588626
	C11388	C	0.846105	0.316081	0.588578
	C11389	C	0.851788	0.253012	0.548243
	C11390	C	0.838730	0.752409	0.512479
	C11391	C	0.789220	0.753406	0.512551
	C11392	C	0.789187	0.754457	0.610746
	C11393	C	0.846257	0.689848	0.534673
	C11394	C	0.846573	0.814382	0.534663
	C11395	C	0.843203	0.752231	0.521707
	C11396	C	0.784846	0.753101	0.521759
	C11397	C	0.783467	0.690891	0.526121
	C11398	C	0.844087	0.689914	0.526090
	C11399	C	0.844433	0.814472	0.526084
	C11400	C	0.784176	0.815304	0.526158
	C11401	C	0.847417	0.752148	0.539041
	C11402	C	0.838878	0.751538	0.610727
	C11403	C	0.843966	0.689261	0.597139
	C11404	C	0.844665	0.814007	0.597207
	C11405	C	0.843286	0.751519	0.601533
	C11406	C	0.814606	0.462408	0.622968
	C11407	C	0.820605	0.462376	0.501692
	C11408	C	0.810190	0.462576	0.624474
	C11409	C	0.814619	0.543256	0.622959
	C11410	C	0.810182	0.543320	0.624468
	C11411	C	0.820667	0.543424	0.501704
	C11412	C	0.838871	0.254464	0.610759
	C11413	C	0.844552	0.191832	0.597199
	C11414	C	0.843950	0.316285	0.597148
	C11415	C	0.843238	0.254181	0.601551
	C11416	C	0.800656	0.043717	0.498930
	C11417	C	0.838816	0.253258	0.512474
	C11418	C	0.789045	0.252521	0.512506
	C11419	C	0.789324	0.251874	0.610740
	C11420	C	0.846389	0.191056	0.534623
	C11421	C	0.846444	0.315335	0.534633
	C11422	C	0.843225	0.253218	0.521683
	C11423	C	0.784773	0.252669	0.521730
	C11424	C	0.784874	0.754274	0.601541
	C11425	C	0.784186	0.816412	0.597131
	C11426	C	0.783483	0.691859	0.597197
	C11427	C	0.784931	0.252288	0.601532
	C11428	C	0.783474	0.314728	0.597205
	C11429	C	0.784211	0.190114	0.597142
	C11430	C	0.783932	0.190565	0.526133
	C11431	C	0.844250	0.191039	0.526043
	C11432	C	0.844270	0.315365	0.526062
	C11433	C	0.783769	0.315072	0.526104
	C11434	C	0.847471	0.253186	0.539028
	C11435	C	0.805808	0.043341	0.625615
	C11436	C	0.820823	0.043325	0.495075
	C11437	C	0.800632	0.962717	0.498936
	C11438	C	0.805821	0.962493	0.625609
	C11439	C	0.820784	0.962482	0.495073
	N11440	N	0.751736	0.070206	0.561589
	N11441	N	0.751722	0.935672	0.561610
	N11442	N	0.751654	0.435582	0.561616
	N11443	N	0.751659	0.570273	0.561621
	N11444	N	0.813560	0.435717	0.624167
	N11445	N	0.813562	0.570263	0.624159
	N11446	N	0.814299	0.070073	0.624117
	N11447	N	0.814388	0.935599	0.624134
	O11448	O	0.854266	0.694167	0.676779
	O11449	O	0.854605	0.810986	0.676737
	O11450	O	0.773400	0.694380	0.696528
	O11451	O	0.773707	0.811101	0.696451
	O11452	O	0.773574	0.193890	0.696502
	O11453	O	0.773449	0.310667	0.696545
	O11454	O	0.773379	0.694335	0.676742
	O11455	O	0.773629	0.811147	0.676796
	O11456	O	0.773576	0.194029	0.676795
	O11457	O	0.773297	0.310933	0.676708
	O11458	O	0.854090	0.694231	0.696387
	O11459	O	0.854238	0.810941	0.696472
	O11460	O	0.854642	0.194504	0.696587
	O11461	O	0.854383	0.311451	0.696483
	O11462	O	0.854362	0.193939	0.676746
	O11463	O	0.854129	0.310921	0.676801
	O11464	O	0.835974	0.693235	0.634088
	O11465	O	0.791271	0.695827	0.633954
	O11466	O	0.835674	0.692733	0.739135
	O11467	O	0.836376	0.809489	0.739234
	O11468	O	0.791271	0.695599	0.739276
	O11469	O	0.791943	0.812215	0.739214
	O11470	O	0.792048	0.812709	0.634070
	O11471	O	0.836593	0.810298	0.634003
	O11472	O	0.836382	0.195405	0.633999
	O11473	O	0.791841	0.193052	0.634048
	O11474	O	0.836573	0.195668	0.739293
	O11475	O	0.835877	0.312405	0.739226
	O11476	O	0.791940	0.192912	0.739225
	O11477	O	0.791350	0.309748	0.739308
	O11478	O	0.791474	0.309887	0.633998
	O11479	O	0.836167	0.312162	0.634034
	H11480	H	0.779996	0.643206	0.710193
	H11481	H	0.781120	0.863273	0.710074
	H11482	H	0.780980	0.141784	0.710085
	H11483	H	0.780211	0.361727	0.710230
	H11484	H	0.781142	0.863072	0.663178
	H11485	H	0.779823	0.643202	0.663014
	H11486	H	0.779735	0.362308	0.663040
	H11487	H	0.781134	0.141928	0.663205
	H11488	H	0.874096	0.064552	0.686061
	H11489	H	0.873861	0.064365	0.686958
	H11490	H	0.873790	0.940936	0.686985
	H11491	H	0.874126	0.940898	0.686050
	H11492	H	0.877340	0.064340	0.685545
	H11493	H	0.877389	0.940751	0.685586
	H11494	H	0.746465	0.064163	0.688199
	H11495	H	0.746408	0.940485	0.688180
	H11496	H	0.751415	0.064190	0.688918
	H11497	H	0.751572	0.941018	0.688921
	H11498	H	0.757333	0.064662	0.687263
	H11499	H	0.757463	0.941201	0.687257
	H11500	H	0.769953	0.441005	0.686724
	H11501	H	0.763434	0.440996	0.681580
	H11502	H	0.757422	0.441269	0.692984
	H11503	H	0.902436	0.440992	0.688618
	H11504	H	0.880167	0.440660	0.695964
	H11505	H	0.859106	0.440463	0.693550
	H11506	H	0.763426	0.564008	0.681551
	H11507	H	0.769869	0.564462	0.686682
	H11508	H	0.859046	0.564480	0.693558
	H11509	H	0.880129	0.564376	0.695971
	H11510	H	0.902369	0.564265	0.688649
	H11511	H	0.757464	0.565018	0.692970
	H11512	H	0.846826	0.641732	0.710019
	H11513	H	0.847811	0.861992	0.710164
	H11514	H	0.848205	0.143242	0.710242
	H11515	H	0.846928	0.363425	0.710084
	H11516	H	0.784042	0.643850	0.647588
	H11517	H	0.842463	0.641897	0.647724
	H11518	H	0.844019	0.862089	0.647565
	H11519	H	0.785459	0.863782	0.647748
	H11520	H	0.846700	0.642193	0.663149
	H11521	H	0.848233	0.862478	0.663010
	H11522	H	0.842570	0.641301	0.725461
	H11523	H	0.843534	0.861265	0.725599
	H11524	H	0.817080	0.440998	0.622749
	H11525	H	0.811074	0.440343	0.749807
	H11526	H	0.818533	0.441081	0.624826
	H11527	H	0.815348	0.441319	0.625948
	H11528	H	0.816614	0.441159	0.749610
	H11529	H	0.814594	0.440853	0.750241
	H11530	H	0.811005	0.563935	0.749757
	H11531	H	0.817089	0.564393	0.622744
	H11532	H	0.814531	0.563843	0.750254
	H11533	H	0.816586	0.564252	0.749613
	H11534	H	0.815248	0.564778	0.625945
	H11535	H	0.818501	0.564437	0.624848
	H11536	H	0.844027	0.143476	0.725664
	H11537	H	0.842661	0.363859	0.725547
	H11538	H	0.821214	0.064284	0.619635
	H11539	H	0.809182	0.064584	0.619383
	H11540	H	0.828243	0.065166	0.624935
	H11541	H	0.785260	0.863850	0.725489
	H11542	H	0.784048	0.643699	0.725628
	H11543	H	0.784360	0.361203	0.725653
	H11544	H	0.785252	0.141469	0.725549
	H11545	H	0.785453	0.141629	0.647782
	H11546	H	0.843823	0.143355	0.647621
	H11547	H	0.842720	0.363557	0.647749
	H11548	H	0.784026	0.361885	0.647624
	H11549	H	0.848129	0.142869	0.663040
	H11550	H	0.846991	0.362752	0.663208
	H11551	H	0.794140	0.064411	0.747488
	H11552	H	0.797802	0.063923	0.753565
	H11553	H	0.820414	0.064333	0.756168
	H11554	H	0.809330	0.941101	0.619368
	H11555	H	0.821093	0.941381	0.619680
	H11556	H	0.828298	0.941306	0.624971
	H11557	H	0.794171	0.940615	0.747487
	H11558	H	0.797843	0.940789	0.753542
	H11559	H	0.820322	0.940488	0.756154
	Zn11560	Zn	0.751161	0.680250	0.686648
	Zn11561	Zn	0.751208	0.825214	0.686611
	Zn11562	Zn	0.751140	0.180149	0.686659
	Zn11563	Zn	0.751242	0.325243	0.686636
	Zn11564	Zn	0.813585	0.680054	0.749113
	Zn11565	Zn	0.814244	0.824740	0.749128
	Zn11566	Zn	0.814210	0.180127	0.749102
	Zn11567	Zn	0.813619	0.324691	0.749136
	C11568	C	0.852001	0.752575	0.673249
	C11569	C	0.776036	0.752840	0.699996
	C11570	C	0.780430	0.753153	0.709182
	C11571	C	0.781169	0.691160	0.713598
	C11572	C	0.781827	0.815463	0.713526
	C11573	C	0.776051	0.252196	0.700021
	C11574	C	0.780432	0.251775	0.709226
	C11575	C	0.781759	0.189456	0.713559
	C11576	C	0.781326	0.313787	0.713629
	C11577	C	0.776037	0.752816	0.673263
	C11578	C	0.780552	0.753059	0.664061
	C11579	C	0.781929	0.815475	0.659720
	C11580	C	0.781190	0.691100	0.659632
	C11581	C	0.775908	0.252357	0.673251
	C11582	C	0.780367	0.252146	0.664060
	C11583	C	0.781065	0.314350	0.659648
	C11584	C	0.781803	0.189707	0.659743
	C11585	C	0.874698	0.043106	0.686547
	C11586	C	0.874678	0.962264	0.686549
	C11587	C	0.749528	0.043005	0.688028
	C11588	C	0.749587	0.962136	0.688034
	C11589	C	0.755414	0.043213	0.686373
	C11590	C	0.755482	0.962254	0.686354
	C11591	C	0.762626	0.462292	0.684811
	C11592	C	0.893909	0.462330	0.685241
	C11593	C	0.871513	0.461967	0.692608
	C11594	C	0.762601	0.542989	0.684787
	C11595	C	0.871475	0.543150	0.692623
	C11596	C	0.893912	0.543188	0.685249
	C11597	C	0.851732	0.752428	0.699939
	C11598	C	0.851979	0.253156	0.700030
	C11599	C	0.847462	0.751944	0.709137
	C11600	C	0.846134	0.689522	0.713477
	C11601	C	0.846653	0.813956	0.713555
	C11602	C	0.847583	0.253371	0.709235
	C11603	C	0.846883	0.191184	0.713642
	C11604	C	0.846167	0.315753	0.713565
	C11605	C	0.851785	0.252514	0.673269
	C11606	C	0.838817	0.751836	0.637533
	C11607	C	0.789171	0.754136	0.637512
	C11608	C	0.789036	0.753913	0.735737
	C11609	C	0.846090	0.690052	0.659703
	C11610	C	0.846922	0.814556	0.659623
	C11611	C	0.843270	0.752035	0.646728
	C11612	C	0.784773	0.753817	0.646728
	C11613	C	0.783341	0.691429	0.651060
	C11614	C	0.843853	0.689737	0.651131
	C11615	C	0.844677	0.814489	0.651054
	C11616	C	0.784094	0.815870	0.651150
	C11617	C	0.847553	0.752437	0.664044
	C11618	C	0.838585	0.751162	0.735681
	C11619	C	0.843884	0.689246	0.722053
	C11620	C	0.844425	0.813592	0.722128
	C11621	C	0.843106	0.751339	0.726473
	C11622	C	0.811528	0.461697	0.749266
	C11623	C	0.816024	0.462508	0.625069
	C11624	C	0.815097	0.462194	0.749719
	C11625	C	0.811526	0.542692	0.749255
	C11626	C	0.815083	0.542791	0.749719
	C11627	C	0.816021	0.543436	0.625081
	C11628	C	0.838776	0.253991	0.735757
	C11629	C	0.844694	0.191327	0.722213
	C11630	C	0.843953	0.315951	0.722137
	C11631	C	0.843229	0.253759	0.726552
	C11632	C	0.814959	0.043185	0.620730
	C11633	C	0.838780	0.253741	0.637523
	C11634	C	0.789176	0.251516	0.637536
	C11635	C	0.789136	0.251377	0.735759
	C11636	C	0.846712	0.190741	0.659638
	C11637	C	0.846078	0.315230	0.659720
	C11638	C	0.843137	0.253566	0.646717
	C11639	C	0.784756	0.251685	0.646740
	C11640	C	0.784664	0.753762	0.726521
	C11641	C	0.784029	0.815787	0.722100
	C11642	C	0.783355	0.691438	0.722169
	C11643	C	0.784743	0.251374	0.726544
	C11644	C	0.783493	0.313619	0.722199
	C11645	C	0.783971	0.189268	0.722134
	C11646	C	0.784070	0.189560	0.651174
	C11647	C	0.844520	0.191144	0.651061
	C11648	C	0.843901	0.315582	0.651142
	C11649	C	0.783308	0.314067	0.651084
	C11650	C	0.847383	0.252839	0.664051
	C11651	C	0.800804	0.042926	0.750146
	C11652	C	0.822163	0.043538	0.626029
	C11653	C	0.814994	0.962541	0.620722
	C11654	C	0.800772	0.962131	0.750138
	C11655	C	0.822179	0.962412	0.626018
	N11656	N	0.751078	0.069894	0.686568
	N11657	N	0.751162	0.935370	0.686572
	N11658	N	0.751248	0.435312	0.686654
	N11659	N	0.751191	0.569905	0.686650
	N11660	N	0.813649	0.435184	0.749121
	N11661	N	0.813679	0.569829	0.749113
	N11662	N	0.814267	0.069835	0.749117
	N11663	N	0.814272	0.935215	0.749092
	O11664	O	0.853682	0.694739	0.801789
	O11665	O	0.854320	0.811662	0.801670
	O11666	O	0.773634	0.693587	0.821491
	O11667	O	0.773578	0.810239	0.821515
	O11668	O	0.773797	0.194242	0.821483
	O11669	O	0.773621	0.311172	0.821497
	O11670	O	0.773533	0.693576	0.801710
	O11671	O	0.773978	0.810652	0.801823
	O11672	O	0.773610	0.194123	0.801769
	O11673	O	0.773490	0.310903	0.801734
	O11674	O	0.853796	0.694970	0.821473
	O11675	O	0.854119	0.811648	0.821472
	O11676	O	0.854128	0.192981	0.821440
	O11677	O	0.853822	0.309718	0.821432
	O11678	O	0.854268	0.193675	0.801712
	O11679	O	0.853871	0.310516	0.801794
	O11680	O	0.835847	0.692888	0.759044
	O11681	O	0.791236	0.695435	0.758971
	O11682	O	0.836303	0.694333	0.864224
	O11683	O	0.836120	0.810967	0.864193
	O11684	O	0.791804	0.693304	0.864208
	O11685	O	0.791473	0.810060	0.864247
	O11686	O	0.792018	0.812279	0.759070
	O11687	O	0.836566	0.809803	0.758966
	O11688	O	0.836458	0.195011	0.758989
	O11689	O	0.791898	0.192526	0.759029
	O11690	O	0.836058	0.193140	0.864186
	O11691	O	0.836268	0.309968	0.864175
	O11692	O	0.791376	0.195039	0.864279
	O11693	O	0.791907	0.311765	0.864248
	O11694	O	0.791283	0.309400	0.758987
	O11695	O	0.835986	0.311891	0.759048
	H11696	H	0.780972	0.642022	0.835149
	H11697	H	0.780220	0.861824	0.835235
	H11698	H	0.780294	0.143313	0.835165
	H11699	H	0.780769	0.363240	0.835149
	H11700	H	0.781387	0.862842	0.788196
	H11701	H	0.779674	0.642705	0.787981
	H11702	H	0.779831	0.362046	0.788002
	H11703	H	0.781062	0.141920	0.788157
	H11704	H	0.857854	0.064428	0.811132
	H11705	H	0.863504	0.064674	0.816420
	H11706	H	0.863464	0.941097	0.816395
	H11707	H	0.857840	0.940804	0.811136
	H11708	H	0.871349	0.063939	0.805097
	H11709	H	0.871380	0.940472	0.805123
	H11710	H	0.755681	0.064052	0.815253
	H11711	H	0.755694	0.940789	0.815255
	H11712	H	0.761821	0.064162	0.812770
	H11713	H	0.761895	0.940726	0.812763
	H11714	H	0.757885	0.064361	0.808442
	H11715	H	0.757953	0.940422	0.808437
	H11716	H	0.761825	0.440847	0.808452
	H11717	H	0.751432	0.440930	0.806648
	H11718	H	0.763030	0.440706	0.814141
	H11719	H	0.882186	0.440803	0.814296
	H11720	H	0.871162	0.440952	0.814566
	H11721	H	0.866658	0.440727	0.812170
	H11722	H	0.751285	0.564281	0.806685
	H11723	H	0.761769	0.564068	0.808476
	H11724	H	0.866661	0.564100	0.812200
	H11725	H	0.871133	0.564521	0.814595
	H11726	H	0.882085	0.564720	0.814282
	H11727	H	0.763091	0.564040	0.814131
	H11728	H	0.846930	0.643203	0.835105
	H11729	H	0.847265	0.863221	0.835180
	H11730	H	0.846793	0.141218	0.835076
	H11731	H	0.847161	0.361193	0.835077
	H11732	H	0.783876	0.643378	0.772552
	H11733	H	0.842489	0.641919	0.772766
	H11734	H	0.844181	0.861954	0.772554
	H11735	H	0.785673	0.863578	0.772763
	H11736	H	0.846527	0.642590	0.788187
	H11737	H	0.848245	0.862655	0.788000
	H11738	H	0.842828	0.642800	0.850534
	H11739	H	0.843119	0.862829	0.850611
	H11740	H	0.810504	0.440275	0.748828
	H11741	H	0.810024	0.440931	0.870624
	H11742	H	0.813378	0.440595	0.747992
	H11743	H	0.815961	0.440758	0.748277
	H11744	H	0.807984	0.441099	0.877257
	H11745	H	0.803628	0.440526	0.874444
	H11746	H	0.809973	0.564652	0.870651
	H11747	H	0.810541	0.563739	0.748820
	H11748	H	0.803602	0.564408	0.874415
	H11749	H	0.807934	0.564151	0.877274
	H11750	H	0.815998	0.564776	0.748311
	H11751	H	0.813435	0.564048	0.747950
	H11752	H	0.842827	0.141416	0.850524
	H11753	H	0.843186	0.361283	0.850516
	H11754	H	0.828139	0.064074	0.743654
	H11755	H	0.811731	0.064694	0.741776
	H11756	H	0.833275	0.064079	0.751985
	H11757	H	0.784436	0.861614	0.850638
	H11758	H	0.785143	0.641805	0.850590
	H11759	H	0.784864	0.363579	0.850596
	H11760	H	0.784289	0.143343	0.850599
	H11761	H	0.785327	0.141233	0.772725
	H11762	H	0.843710	0.143300	0.772580
	H11763	H	0.842776	0.363334	0.772704
	H11764	H	0.784046	0.361292	0.772562
	H11765	H	0.847844	0.142548	0.788019
	H11766	H	0.846878	0.362662	0.788155
	H11767	H	0.816624	0.064242	0.879392
	H11768	H	0.826863	0.063881	0.876792
	H11769	H	0.825302	0.064445	0.870611
	H11770	H	0.811675	0.941037	0.741727
	H11771	H	0.828254	0.941045	0.743658
	H11772	H	0.833205	0.940402	0.751971
	H11773	H	0.816560	0.940515	0.879415
	H11774	H	0.826919	0.940335	0.876809
	H11775	H	0.825348	0.940410	0.870581
	Zn11776	Zn	0.751202	0.679954	0.811622
	Zn11777	Zn	0.751413	0.825015	0.811635
	Zn11778	Zn	0.751386	0.180013	0.811603
	Zn11779	Zn	0.751287	0.325140	0.811613
	Zn11780	Zn	0.814119	0.679964	0.874160
	Zn11781	Zn	0.813875	0.824973	0.874075
	Zn11782	Zn	0.813913	0.179975	0.874133
	Zn11783	Zn	0.814296	0.325039	0.874124
	C11784	C	0.851597	0.753047	0.798223
	C11785	C	0.776107	0.751873	0.825017
	C11786	C	0.780469	0.751853	0.834233
	C11787	C	0.781747	0.689709	0.838592
	C11788	C	0.781349	0.813971	0.838637
	C11789	C	0.776221	0.252757	0.824991
	C11790	C	0.780551	0.253193	0.834213
	C11791	C	0.781393	0.191096	0.838593
	C11792	C	0.781635	0.315510	0.838596
	C11793	C	0.776177	0.752269	0.798267
	C11794	C	0.780609	0.752747	0.789056
	C11795	C	0.782106	0.815124	0.784730
	C11796	C	0.781193	0.690677	0.784611
	C11797	C	0.776059	0.252456	0.798243
	C11798	C	0.780439	0.252037	0.789032
	C11799	C	0.781159	0.314086	0.784612
	C11800	C	0.781831	0.189602	0.784695
	C11801	C	0.864852	0.043308	0.813190
	C11802	C	0.864831	0.962346	0.813198
	C11803	C	0.756804	0.042800	0.813390
	C11804	C	0.756817	0.962100	0.813382
	C11805	C	0.752816	0.043006	0.809027
	C11806	C	0.752854	0.961903	0.809013
	C11807	C	0.755206	0.462072	0.808631
	C11808	C	0.881817	0.462230	0.812639
	C11809	C	0.870768	0.462264	0.812920
	C11810	C	0.755184	0.542829	0.808644
	C11811	C	0.870796	0.543066	0.812920
	C11812	C	0.881812	0.543102	0.812622
	C11813	C	0.851522	0.753326	0.824995
	C11814	C	0.851504	0.251290	0.824939
	C11815	C	0.847261	0.753236	0.834197
	C11816	C	0.846112	0.690955	0.838558
	C11817	C	0.846277	0.815342	0.838597
	C11818	C	0.847208	0.251291	0.834140
	C11819	C	0.846047	0.189110	0.838513
	C11820	C	0.846238	0.313479	0.838508
	C11821	C	0.851666	0.252227	0.798245
	C11822	C	0.838749	0.751368	0.762503
	C11823	C	0.789104	0.753822	0.762522
	C11824	C	0.789164	0.751672	0.860732
	C11825	C	0.845901	0.690234	0.784713
	C11826	C	0.846836	0.814783	0.784603
	C11827	C	0.843158	0.751827	0.771708
	C11828	C	0.784750	0.753539	0.771724
	C11829	C	0.783311	0.690990	0.776035
	C11830	C	0.843749	0.689902	0.776144
	C11831	C	0.844671	0.814250	0.776031
	C11832	C	0.784260	0.815598	0.776155
	C11833	C	0.847288	0.752699	0.789024
	C11834	C	0.838682	0.752608	0.860701
	C11835	C	0.844020	0.690762	0.847127
	C11836	C	0.844153	0.815106	0.847167
	C11837	C	0.843142	0.752819	0.851525
	C11838	C	0.814446	0.462198	0.871579
	C11839	C	0.814421	0.461909	0.748396
	C11840	C	0.808067	0.462141	0.875408
	C11841	C	0.814411	0.542864	0.871581
	C11842	C	0.808038	0.543000	0.875408
	C11843	C	0.814439	0.543057	0.748396
	C11844	C	0.838657	0.251503	0.860672
	C11845	C	0.843889	0.189168	0.847087
	C11846	C	0.844090	0.313509	0.847083
	C11847	C	0.843019	0.251384	0.851466
	C11848	C	0.818439	0.042915	0.744392
	C11849	C	0.838794	0.253444	0.762509
	C11850	C	0.789119	0.250935	0.762499
	C11851	C	0.789146	0.253428	0.860756
	C11852	C	0.846578	0.190532	0.784621
	C11853	C	0.846102	0.315049	0.784696
	C11854	C	0.843181	0.253332	0.771713
	C11855	C	0.784765	0.251204	0.771707
	C11856	C	0.784745	0.751676	0.851555
	C11857	C	0.783554	0.813907	0.847206
	C11858	C	0.783945	0.689559	0.847165
	C11859	C	0.784695	0.253435	0.851548
	C11860	C	0.783769	0.315690	0.847170
	C11861	C	0.783483	0.191204	0.847167
	C11862	C	0.784033	0.189148	0.776121
	C11863	C	0.844439	0.190901	0.776048
	C11864	C	0.843938	0.315392	0.776120
	C11865	C	0.783349	0.313643	0.776035
	C11866	C	0.847407	0.252643	0.789032
	C11867	C	0.819684	0.042804	0.877041
	C11868	C	0.823505	0.042870	0.752758
	C11869	C	0.818435	0.962162	0.744375
	C11870	C	0.819680	0.961954	0.877045
	C11871	C	0.823486	0.961789	0.752748
	N11872	N	0.751351	0.069769	0.811613
	N11873	N	0.751373	0.935184	0.811603
	N11874	N	0.751148	0.435188	0.811596
	N11875	N	0.751208	0.569712	0.811611
	N11876	N	0.814369	0.435133	0.874137
	N11877	N	0.814309	0.569695	0.874159
	N11878	N	0.813884	0.069834	0.874095
	N11879	N	0.813893	0.935273	0.874102
	O11880	O	0.853783	0.694069	0.926770
	O11881	O	0.853840	0.811029	0.926748
	O11882	O	0.773368	0.693569	0.946491
	O11883	O	0.773595	0.810425	0.946502
	O11884	O	0.773417	0.194405	0.946563
	O11885	O	0.773601	0.311170	0.946494
	O11886	O	0.773595	0.694613	0.926772
	O11887	O	0.773648	0.811446	0.926744
	O11888	O	0.773552	0.194601	0.926758
	O11889	O	0.773651	0.311360	0.926782
	O11890	O	0.853863	0.695036	0.946569
	O11891	O	0.853849	0.812072	0.946548
	O11892	O	0.853907	0.193800	0.946505
	O11893	O	0.853747	0.310618	0.946541
	O11894	O	0.853745	0.193997	0.926805
	O11895	O	0.853740	0.310783	0.926808
	O11896	O	0.836342	0.694824	0.883990
	O11897	O	0.791722	0.694295	0.884006
	O11898	O	0.836347	0.695836	0.989326
	O11899	O	0.835852	0.812623	0.989305
	O11900	O	0.791837	0.693009	0.989226
	O11901	O	0.791368	0.809902	0.989206
	O11902	O	0.791583	0.810996	0.883975
	O11903	O	0.836280	0.811731	0.883996
	O11904	O	0.836098	0.193603	0.884051
	O11905	O	0.791712	0.194906	0.883985
	O11906	O	0.835972	0.193224	0.989258
	O11907	O	0.836208	0.310226	0.989280
	O11908	O	0.791403	0.195184	0.989257
	O11909	O	0.791568	0.312092	0.989258
	O11910	O	0.791872	0.311574	0.884008
	O11911	O	0.836305	0.310367	0.884022
	H11912	H	0.780311	0.641660	0.960164
	H11913	H	0.780975	0.861751	0.960102
	H11914	H	0.780342	0.143019	0.960232
	H11915	H	0.780366	0.363082	0.960143
	H11916	H	0.780701	0.862922	0.913081
	H11917	H	0.780652	0.642814	0.913131
	H11918	H	0.780848	0.363036	0.913189
	H11919	H	0.780363	0.143186	0.913096
	H11920	H	0.863843	0.064843	0.936419
	H11921	H	0.867731	0.064698	0.939854
	H11922	H	0.867722	0.941355	0.939863
	H11923	H	0.863922	0.940742	0.936421
	H11924	H	0.872583	0.064094	0.932386
	H11925	H	0.872632	0.940834	0.932413
	H11926	H	0.765042	0.064397	0.940620
	H11927	H	0.765030	0.940961	0.940560
	H11928	H	0.768673	0.064466	0.935403
	H11929	H	0.768534	0.940819	0.935428
	H11930	H	0.753939	0.064149	0.930338
	H11931	H	0.753892	0.941093	0.930345
	H11932	H	0.764196	0.441188	0.940083
	H11933	H	0.766898	0.441113	0.935292
	H11934	H	0.746505	0.440799	0.942198
	H11935	H	0.872903	0.440908	0.937195
	H11936	H	0.873705	0.441232	0.935828
	H11937	H	0.876271	0.440866	0.935485
	H11938	H	0.766848	0.564551	0.935278
	H11939	H	0.764065	0.564639	0.940056
	H11940	H	0.876384	0.564482	0.935507
	H11941	H	0.873610	0.564474	0.935822
	H11942	H	0.872881	0.564449	0.937221
	H11943	H	0.746555	0.564455	0.942164
	H11944	H	0.846755	0.643696	0.960209
	H11945	H	0.847581	0.863779	0.960238
	H11946	H	0.847153	0.141807	0.960211
	H11947	H	0.847275	0.362075	0.960265
	H11948	H	0.784886	0.642749	0.897686
	H11949	H	0.843392	0.643046	0.897624
	H11950	H	0.842424	0.863455	0.897699
	H11951	H	0.784877	0.862728	0.897678
	H11952	H	0.847505	0.642728	0.913056
	H11953	H	0.846544	0.863077	0.913156
	H11954	H	0.842563	0.643898	0.975639
	H11955	H	0.843308	0.863866	0.975696
	H11956	H	0.819033	0.440912	0.870655
	H11957	H	0.817599	0.440954	0.993704
	H11958	H	0.824952	0.440510	0.874563
	H11959	H	0.820398	0.440664	0.877333
	H11960	H	0.798926	0.440691	1.000709
	H11961	H	0.800897	0.441158	0.996065
	H11962	H	0.817626	0.564403	0.993691
	H11963	H	0.818979	0.564282	0.870708
	H11964	H	0.800790	0.564318	0.996079
	H11965	H	0.798862	0.564491	1.000688
	H11966	H	0.820256	0.564191	0.877317
	H11967	H	0.824964	0.564381	0.874550
	H11968	H	0.842988	0.141783	0.975645
	H11969	H	0.843090	0.361788	0.975701
	H11970	H	0.799724	0.064275	0.872290
	H11971	H	0.800942	0.064468	0.876822
	H11972	H	0.813826	0.064174	0.868696
	H11973	H	0.785108	0.861783	0.975537
	H11974	H	0.784517	0.641763	0.975600
	H11975	H	0.784487	0.363694	0.975586
	H11976	H	0.784467	0.143227	0.975661
	H11977	H	0.784530	0.143215	0.897679
	H11978	H	0.843290	0.141851	0.897725
	H11979	H	0.842952	0.361975	0.897682
	H11980	H	0.784991	0.363302	0.897729
	H11981	H	0.847283	0.142064	0.913162
	H11982	H	0.846878	0.362281	0.913128
	H11983	H	0.818376	0.064430	1.000717
	H11984	H	0.820009	0.064551	0.998817
	H11985	H	0.814778	0.064304	0.996818
	H11986	H	0.800890	0.940914	0.876819
	H11987	H	0.799766	0.941109	0.872272
	H11988	H	0.813819	0.940699	0.868705
	H11989	H	0.818446	0.941235	1.000678
	H11990	H	0.819881	0.940911	0.998757
	H11991	H	0.814655	0.940605	0.996794
	Zn11992	Zn	0.751240	0.680190	0.936587
	Zn11993	Zn	0.751270	0.825177	0.936639
	Zn11994	Zn	0.751216	0.180286	0.936627
	Zn11995	Zn	0.751209	0.325247	0.936652
	Zn11996	Zn	0.813962	0.680056	0.999149
	Zn11997	Zn	0.813313	0.825425	0.999165
	Zn11998	Zn	0.813573	0.179991	0.999131
	Zn11999	Zn	0.813905	0.325587	0.999175
	C12000	C	0.851406	0.752547	0.923248
	C12001	C	0.775968	0.751900	0.949998
	C12002	C	0.780340	0.751658	0.959201
	C12003	C	0.781353	0.689415	0.963584
	C12004	C	0.781672	0.813952	0.963548
	C12005	C	0.776011	0.252883	0.950041
	C12006	C	0.780355	0.253060	0.959248
	C12007	C	0.781344	0.190905	0.963649
	C12008	C	0.781351	0.315427	0.963598
	C12009	C	0.776099	0.752974	0.923252
	C12010	C	0.780539	0.752750	0.914058
	C12011	C	0.781626	0.814924	0.909666
	C12012	C	0.781600	0.690498	0.909687
	C12013	C	0.776114	0.253049	0.923267
	C12014	C	0.780550	0.253249	0.914072
	C12015	C	0.781771	0.315433	0.909725
	C12016	C	0.781481	0.191063	0.909683
	C12017	C	0.868500	0.043394	0.937722
	C12018	C	0.868550	0.962292	0.937732
	C12019	C	0.762749	0.043177	0.937661
	C12020	C	0.762696	0.962208	0.937638
	C12021	C	0.747897	0.043115	0.932558
	C12022	C	0.747915	0.962360	0.932553
	C12023	C	0.761730	0.462346	0.937421
	C12024	C	0.874524	0.462237	0.937314
	C12025	C	0.875241	0.462301	0.935926
	C12026	C	0.761727	0.543155	0.937403
	C12027	C	0.875267	0.543261	0.935939
	C12028	C	0.874511	0.543086	0.937323
	C12029	C	0.851427	0.753647	0.950058
	C12030	C	0.851372	0.252095	0.950033
	C12031	C	0.847257	0.753849	0.959278
	C12032	C	0.845955	0.691607	0.963638
	C12033	C	0.846416	0.815986	0.963670
	C12034	C	0.847045	0.251974	0.959261
	C12035	C	0.846119	0.189700	0.963635
	C12036	C	0.846160	0.314135	0.963668
	C12037	C	0.851254	0.252400	0.923303
	C12038	C	0.838739	0.753313	0.887496
	C12039	C	0.789194	0.752671	0.887508
	C12040	C	0.789036	0.751328	0.985726
	C12041	C	0.846350	0.690664	0.909636
	C12042	C	0.845834	0.815231	0.909696
	C12043	C	0.843097	0.753267	0.896706
	C12044	C	0.784795	0.752587	0.896719
	C12045	C	0.783774	0.690501	0.901111
	C12046	C	0.844250	0.690897	0.901065
	C12047	C	0.843746	0.815498	0.901118
	C12048	C	0.783770	0.814899	0.901093
	C12049	C	0.847045	0.752782	0.914043
	C12050	C	0.838708	0.754305	0.985816
	C12051	C	0.843863	0.691652	0.972215
	C12052	C	0.844315	0.816139	0.972250
	C12053	C	0.843095	0.753960	0.976606
	C12054	C	0.820372	0.462313	0.996220
	C12055	C	0.820486	0.462002	0.875473
	C12056	C	0.803585	0.462377	0.998584
	C12057	C	0.820395	0.543284	0.996216
	C12058	C	0.803581	0.543128	0.998578
	C12059	C	0.820417	0.543024	0.875467
	C12060	C	0.838555	0.251737	0.985778
	C12061	C	0.843991	0.189501	0.972208
	C12062	C	0.844067	0.314125	0.972241
	C12063	C	0.842948	0.251809	0.976582
	C12064	C	0.803893	0.042902	0.874423
	C12065	C	0.838682	0.252002	0.887547
	C12066	C	0.789229	0.253280	0.887514
	C12067	C	0.788978	0.253661	0.985761
	C12068	C	0.846202	0.189867	0.909722
	C12069	C	0.846002	0.314422	0.909700
	C12070	C	0.842981	0.252097	0.896757
	C12071	C	0.784888	0.253435	0.896733
	C12072	C	0.784661	0.751600	0.976512
	C12073	C	0.783870	0.813876	0.972121
	C12074	C	0.783531	0.689399	0.972160
	C12075	C	0.784586	0.253486	0.976562
	C12076	C	0.783529	0.315684	0.972170
	C12077	C	0.783505	0.191091	0.972215
	C12078	C	0.783671	0.191120	0.901106
	C12079	C	0.844158	0.189818	0.901142
	C12080	C	0.843976	0.314236	0.901127
	C12081	C	0.783945	0.315524	0.901144
	C12082	C	0.847054	0.252346	0.914089
	C12083	C	0.817673	0.043105	0.999603
	C12084	C	0.818088	0.043034	0.870817
	C12085	C	0.803861	0.962328	0.874422
	C12086	C	0.817642	0.962309	0.999582
	C12087	C	0.818082	0.961922	0.870817
	N12088	N	0.751226	0.070030	0.936667
	N12089	N	0.751253	0.935491	0.936631
	N12090	N	0.751179	0.435452	0.936636
	N12091	N	0.751163	0.569960	0.936603
	N12092	N	0.813852	0.435602	0.999136
	N12093	N	0.813855	0.570130	0.999126
	N12094	N	0.813460	0.069759	0.999166
	N12095	N	0.813380	0.935300	0.999128
	O12096	O	0.979200	0.694343	0.051741
	O12097	O	0.979295	0.811250	0.051737
	O12098	O	0.899053	0.694203	0.071460
	O12099	O	0.898910	0.811110	0.071527
	O12100	O	0.898937	0.194140	0.071525
	O12101	O	0.898858	0.311120	0.071542
	O12102	O	0.898859	0.693685	0.051716
	O12103	O	0.898949	0.810570	0.051697
	O12104	O	0.898713	0.193700	0.051724
	O12105	O	0.898958	0.310574	0.051725
	O12106	O	0.979360	0.693646	0.071475
	O12107	O	0.979107	0.810345	0.071451
	O12108	O	0.979044	0.194511	0.071428
	O12109	O	0.979223	0.311364	0.071430
	O12110	O	0.979280	0.194163	0.051750
	O12111	O	0.979239	0.311068	0.051794
	O12112	O	0.961662	0.694200	0.008974
	O12113	O	0.916894	0.693595	0.008989
	O12114	O	0.961429	0.693624	0.114240
	O12115	O	0.961291	0.810427	0.114217
	O12116	O	0.916759	0.694059	0.114304
	O12117	O	0.916830	0.811005	0.114249
	O12118	O	0.916444	0.810531	0.008955
	O12119	O	0.961213	0.811089	0.009008
	O12120	O	0.961181	0.194042	0.009048
	O12121	O	0.916597	0.193803	0.008973
	O12122	O	0.961401	0.194207	0.114177
	O12123	O	0.961581	0.311281	0.114241
	O12124	O	0.916748	0.194299	0.114272
	O12125	O	0.916842	0.311148	0.114275
	O12126	O	0.916695	0.310733	0.008971
	O12127	O	0.961404	0.310783	0.009013
	H12128	H	0.905893	0.642448	0.085178
	H12129	H	0.905641	0.862557	0.085204
	H12130	H	0.905916	0.142811	0.085145
	H12131	H	0.905457	0.362814	0.085196
	H12132	H	0.905559	0.862233	0.037999
	H12133	H	0.905778	0.642180	0.038074
	H12134	H	0.906005	0.361954	0.038123
	H12135	H	0.905336	0.142077	0.038073
	H12136	H	0.989501	0.064127	0.056349
	H12137	H	0.982459	0.064365	0.061516
	H12138	H	0.982439	0.940520	0.061534
	H12139	H	0.989367	0.941210	0.056302
	H12140	H	1.011403	0.064395	0.055782
	H12141	H	1.011407	0.940786	0.055727
	H12142	H	0.874183	0.064402	0.062375
	H12143	H	0.874329	0.941032	0.062428
	H12144	H	0.876698	0.064710	0.062847
	H12145	H	0.876843	0.941064	0.062848
	H12146	H	0.879982	0.064744	0.062072
	H12147	H	0.880036	0.940666	0.062071
	H12148	H	0.871252	0.440717	0.064468
	H12149	H	0.879419	0.440519	0.064976
	H12150	H	0.867396	0.440719	0.060668
	H12151	H	1.010977	0.440840	0.060053
	H12152	H	1.008965	0.441040	0.064215
	H12153	H	1.000994	0.440783	0.065253
	H12154	H	0.879347	0.564603	0.065030
	H12155	H	0.871224	0.564082	0.064490
	H12156	H	1.000962	0.564159	0.065221
	H12157	H	1.008949	0.564448	0.064177
	H12158	H	1.011014	0.564532	0.060073
	H12159	H	0.867386	0.563729	0.060669
	H12160	H	0.972540	0.641953	0.085117
	H12161	H	0.971969	0.861967	0.085096
	H12162	H	0.972115	0.143044	0.085096
	H12163	H	0.972296	0.363151	0.085136
	H12164	H	0.909898	0.641976	0.022639
	H12165	H	0.968175	0.642771	0.022641
	H12166	H	0.968153	0.862882	0.022679
	H12167	H	0.909743	0.861934	0.022568
	H12168	H	0.972346	0.642721	0.038081
	H12169	H	0.972322	0.862826	0.038125
	H12170	H	0.968750	0.642061	0.100565
	H12171	H	0.968030	0.861881	0.100525
	H12172	H	0.945078	0.440801	-0.006666
	H12173	H	0.926743	0.441224	0.116176
	H12174	H	0.956383	0.440768	-0.000821
	H12175	H	0.950190	0.440491	0.003860
	H12176	H	0.926370	0.440734	0.132023
	H12177	H	0.914085	0.441004	0.125702
	H12178	H	0.926698	0.564273	0.116144
	H12179	H	0.945087	0.563726	-0.006701
	H12180	H	0.914156	0.564607	0.125685
	H12181	H	0.926288	0.564414	0.132050
	H12182	H	0.950348	0.564177	0.003853
	H12183	H	0.956457	0.563995	-0.000848
	H12184	H	0.968013	0.143099	0.100542
	H12185	H	0.968240	0.362980	0.100579
	H12186	H	0.925640	0.064155	-0.000375
	H12187	H	0.931624	0.065120	0.003118
	H12188	H	0.933194	0.064393	-0.005233
	H12189	H	0.909616	0.862474	0.100657
	H12190	H	0.909901	0.642304	0.100616
	H12191	H	0.909495	0.362809	0.100652
	H12192	H	0.909875	0.142682	0.100585
	H12193	H	0.909325	0.142220	0.022637
	H12194	H	0.968056	0.142532	0.022677
	H12195	H	0.968336	0.362435	0.022690
	H12196	H	0.909998	0.362219	0.022685
	H12197	H	0.972208	0.142465	0.038118
	H12198	H	0.972425	0.362457	0.038136
	H12199	H	0.952959	0.064274	0.123817
	H12200	H	0.947683	0.064411	0.120185
	H12201	H	0.931803	0.064713	0.119979
	H12202	H	0.931394	0.941160	0.003118
	H12203	H	0.925612	0.941596	-0.000402
	H12204	H	0.933143	0.940749	-0.005300
	H12205	H	0.953022	0.941092	0.123788
	H12206	H	0.947585	0.941075	0.120207
	H12207	H	0.931937	0.940591	0.120001
	Zn12208	Zn	0.876700	0.680068	0.061608
	Zn12209	Zn	0.876871	0.825297	0.061619
	Zn12210	Zn	0.876663	0.180402	0.061648
	Zn12211	Zn	0.876816	0.325414	0.061613
	Zn12212	Zn	0.939194	0.680290	0.124141
	Zn12213	Zn	0.939220	0.825156	0.124067
	Zn12214	Zn	0.939224	0.180219	0.124106
	Zn12215	Zn	0.939253	0.325340	0.124113
	C12216	C	0.976731	0.752773	0.048252
	C12217	C	0.901478	0.752575	0.075003
	C12218	C	0.905777	0.752536	0.084218
	C12219	C	0.906860	0.690252	0.088604
	C12220	C	0.906679	0.814729	0.088625
	C12221	C	0.901313	0.252620	0.075033
	C12222	C	0.905617	0.252855	0.084231
	C12223	C	0.906732	0.190627	0.088589
	C12224	C	0.906526	0.315068	0.088625
	C12225	C	0.901349	0.752074	0.048204
	C12226	C	0.905579	0.752203	0.038985
	C12227	C	0.906538	0.814368	0.034578
	C12228	C	0.906664	0.689920	0.034626
	C12229	C	0.901279	0.252113	0.048223
	C12230	C	0.905570	0.252027	0.039034
	C12231	C	0.906740	0.314281	0.034675
	C12232	C	0.906372	0.189808	0.034649
	C12233	C	0.990096	0.042887	0.059653
	C12234	C	0.990070	0.962110	0.059641
	C12235	C	0.875843	0.043049	0.062359
	C12236	C	0.875899	0.962338	0.062367
	C12237	C	0.879070	0.043225	0.061597
	C12238	C	0.879164	0.962184	0.061577
	C12239	C	0.875750	0.461878	0.063897
	C12240	C	1.006136	0.462255	0.059730
	C12241	C	1.004156	0.462063	0.063906
	C12242	C	0.875733	0.542896	0.063915
	C12243	C	1.004140	0.542850	0.063901
	C12244	C	1.006132	0.543183	0.059749
	C12245	C	0.976642	0.751996	0.074961
	C12246	C	0.976681	0.252938	0.074932
	C12247	C	0.972231	0.751996	0.084146
	C12248	C	0.971517	0.689797	0.088533
	C12249	C	0.971150	0.814131	0.088525
	C12250	C	0.972342	0.253097	0.084152
	C12251	C	0.971210	0.190869	0.088518
	C12252	C	0.971324	0.315339	0.088548
	C12253	C	0.976720	0.252683	0.048285
	C12254	C	0.963849	0.752651	0.012500
	C12255	C	0.914177	0.752041	0.012464
	C12256	C	0.914270	0.752420	0.110779
	C12257	C	0.971361	0.690522	0.034659
	C12258	C	0.971347	0.815045	0.034687
	C12259	C	0.968218	0.752844	0.021723
	C12260	C	0.909729	0.752001	0.021667
	C12261	C	0.908793	0.689799	0.026052
	C12262	C	0.969224	0.690508	0.026083
	C12263	C	0.969164	0.815144	0.026115
	C12264	C	0.908678	0.814278	0.026006
	C12265	C	0.972355	0.752703	0.039046
	C12266	C	0.963790	0.751990	0.110716
	C12267	C	0.969425	0.689810	0.097107
	C12268	C	0.969029	0.814137	0.097098
	C12269	C	0.968107	0.751967	0.101484
	C12270	C	0.937911	0.462370	0.118058
	C12271	C	0.949577	0.461835	0.000891
	C12272	C	0.925218	0.462265	0.127628
	C12273	C	0.937921	0.543040	0.118043
	C12274	C	0.925224	0.543336	0.127640
	C12275	C	0.949662	0.542992	0.000884
	C12276	C	0.963931	0.252836	0.110705
	C12277	C	0.969086	0.190808	0.097098
	C12278	C	0.969198	0.315328	0.097129
	C12279	C	0.968210	0.252982	0.101488
	C12280	C	0.931384	0.043207	0.000776
	C12281	C	0.963753	0.252478	0.012546
	C12282	C	0.914161	0.252313	0.012481
	C12283	C	0.914232	0.252720	0.110770
	C12284	C	0.971244	0.190351	0.034697
	C12285	C	0.971346	0.314708	0.034714
	C12286	C	0.968070	0.252561	0.021758
	C12287	C	0.909712	0.252240	0.021702
	C12288	C	0.909899	0.752371	0.101558
	C12289	C	0.908748	0.814721	0.097204
	C12290	C	0.908924	0.690133	0.097184
	C12291	C	0.909711	0.252721	0.101560
	C12292	C	0.908667	0.315035	0.097200
	C12293	C	0.908862	0.190523	0.097160
	C12294	C	0.908497	0.189988	0.026072
	C12295	C	0.969071	0.190309	0.026123
	C12296	C	0.969194	0.314734	0.026139
	C12297	C	0.908853	0.314349	0.026100
	C12298	C	0.972297	0.252539	0.039092
	C12299	C	0.947428	0.043171	0.122543
	C12300	C	0.938939	0.042907	-0.004137
	C12301	C	0.931340	0.962555	0.000773
	C12302	C	0.947413	0.962502	0.122548
	C12303	C	0.938942	0.961880	-0.004129
	N12304	N	0.876812	0.069935	0.061645
	N12305	N	0.876917	0.935341	0.061641
	N12306	N	0.876918	0.435282	0.061566
	N12307	N	0.876849	0.569823	0.061579
	N12308	N	0.939274	0.435728	0.124161
	N12309	N	0.939293	0.570285	0.124136
	N12310	N	0.939371	0.069833	0.124098
	N12311	N	0.939415	0.935252	0.124087
	O12312	O	0.979074	0.695354	0.176778
	O12313	O	0.979541	0.812332	0.176749
	O12314	O	0.898800	0.695178	0.196505
	O12315	O	0.898347	0.812117	0.196549
	O12316	O	0.898580	0.194618	0.196476
	O12317	O	0.898808	0.311530	0.196425
	O12318	O	0.898777	0.695250	0.176765
	O12319	O	0.898580	0.812153	0.176730
	O12320	O	0.898531	0.194435	0.176717
	O12321	O	0.898569	0.311250	0.176717
	O12322	O	0.979242	0.695115	0.196474
	O12323	O	0.979163	0.811939	0.196459
	O12324	O	0.979438	0.193309	0.196444
	O12325	O	0.979220	0.310196	0.196475
	O12326	O	0.979492	0.193350	0.176725
	O12327	O	0.978992	0.310329	0.176778
	O12328	O	0.961435	0.694138	0.134054
	O12329	O	0.917073	0.694656	0.134036
	O12330	O	0.961748	0.695310	0.239212
	O12331	O	0.961170	0.812390	0.239213
	O12332	O	0.916928	0.694056	0.239189
	O12333	O	0.916248	0.810811	0.239319
	O12334	O	0.916996	0.811393	0.134005
	O12335	O	0.961562	0.810858	0.133965
	O12336	O	0.961523	0.193931	0.133972
	O12337	O	0.916836	0.194259	0.133986
	O12338	O	0.961198	0.193068	0.239207
	O12339	O	0.961630	0.309989	0.239196
	O12340	O	0.916555	0.195399	0.239188
	O12341	O	0.916973	0.312278	0.239207
	O12342	O	0.916879	0.311189	0.134017
	O12343	O	0.961396	0.310915	0.134037
	H12344	H	0.906276	0.643395	0.210093
	H12345	H	0.904738	0.863426	0.210227
	H12346	H	0.905102	0.143394	0.210169
	H12347	H	0.906249	0.363395	0.210063
	H12348	H	0.905780	0.863513	0.163085
	H12349	H	0.905736	0.643483	0.163121
	H12350	H	0.905838	0.362689	0.163077
	H12351	H	0.905432	0.142333	0.163081
	H12352	H	0.978011	0.064253	0.181279
	H12353	H	0.975067	0.063843	0.189714
	H12354	H	0.975075	0.941276	0.189708
	H12355	H	0.978121	0.940305	0.181286
	H12356	H	1.007807	0.064720	0.176766
	H12357	H	1.007922	0.940629	0.176782
	H12358	H	0.879802	0.065011	0.180692
	H12359	H	0.879733	0.941378	0.180706
	H12360	H	0.865974	0.065235	0.181869
	H12361	H	0.865886	0.941434	0.181855
	H12362	H	0.860289	0.064727	0.188529
	H12363	H	0.860203	0.941613	0.188515
	H12364	H	0.884514	0.441002	0.187550
	H12365	H	0.883718	0.441250	0.184972
	H12366	H	0.876705	0.441839	0.189738
	H12367	H	0.992765	0.440997	0.186635
	H12368	H	0.998344	0.440990	0.183645
	H12369	H	1.005693	0.440554	0.183874
	H12370	H	0.883668	0.565072	0.184949
	H12371	H	0.884643	0.564924	0.187529
	H12372	H	1.005707	0.564162	0.183856
	H12373	H	0.998408	0.563867	0.183646
	H12374	H	0.992790	0.564114	0.186606
	H12375	H	0.876793	0.564752	0.189695
	H12376	H	0.972823	0.643797	0.210153
	H12377	H	0.971738	0.864006	0.210109
	H12378	H	0.972221	0.141079	0.210077
	H12379	H	0.972762	0.361437	0.210129
	H12380	H	0.909954	0.643285	0.147701
	H12381	H	0.967810	0.642892	0.147704
	H12382	H	0.968712	0.863324	0.147597
	H12383	H	0.909980	0.863169	0.147643
	H12384	H	0.971967	0.643675	0.163144
	H12385	H	0.972810	0.863590	0.163034
	H12386	H	0.968720	0.643930	0.225569
	H12387	H	0.967562	0.864091	0.225550
	H12388	H	0.948114	0.441002	0.115570
	H12389	H	0.931104	0.441660	0.247775
	H12390	H	0.964787	0.441092	0.124228
	H12391	H	0.955583	0.440722	0.131202
	H12392	H	0.940347	0.441112	0.252224
	H12393	H	0.933267	0.441298	0.251395
	H12394	H	0.931165	0.564964	0.247788
	H12395	H	0.948131	0.564200	0.115550
	H12396	H	0.933227	0.564956	0.251400
	H12397	H	0.940255	0.564621	0.252259
	H12398	H	0.955664	0.564424	0.131195
	H12399	H	0.964778	0.564514	0.124248
	H12400	H	0.968072	0.141032	0.225515
	H12401	H	0.968617	0.361272	0.225570
	H12402	H	0.933243	0.064587	0.128471
	H12403	H	0.944767	0.064867	0.128620
	H12404	H	0.925827	0.064672	0.123515
	H12405	H	0.908990	0.862920	0.225658
	H12406	H	0.910440	0.642982	0.225520
	H12407	H	0.910326	0.364028	0.225495
	H12408	H	0.909146	0.143813	0.225617
	H12409	H	0.909829	0.142381	0.147655
	H12410	H	0.968550	0.141942	0.147615
	H12411	H	0.967973	0.362237	0.147716
	H12412	H	0.910172	0.362606	0.147656
	H12413	H	0.972627	0.141814	0.163052
	H12414	H	0.972019	0.361950	0.163151
	H12415	H	0.938245	0.064709	0.241971
	H12416	H	0.923256	0.064801	0.244641
	H12417	H	0.921704	0.064334	0.252861
	H12418	H	0.944716	0.941033	0.128620
	H12419	H	0.933295	0.941389	0.128485
	H12420	H	0.925826	0.941312	0.123496
	H12421	H	0.938220	0.940897	0.241973
	H12422	H	0.923249	0.940912	0.244678
	H12423	H	0.921756	0.941365	0.252858
	Zn12424	Zn	0.876482	0.680479	0.186639
	Zn12425	Zn	0.876219	0.825342	0.186616
	Zn12426	Zn	0.876302	0.180673	0.186599
	Zn12427	Zn	0.876315	0.325347	0.186625
	Zn12428	Zn	0.939256	0.680556	0.249063
	Zn12429	Zn	0.938815	0.825365	0.249149
	Zn12430	Zn	0.938838	0.180551	0.249076
	Zn12431	Zn	0.939462	0.325370	0.249090
	C12432	C	0.976813	0.753864	0.173263
	C12433	C	0.901043	0.753652	0.200024
	C12434	C	0.905448	0.753459	0.209214
	C12435	C	0.906928	0.691116	0.213556
	C12436	C	0.906105	0.815592	0.213627
	C12437	C	0.901248	0.253136	0.199947
	C12438	C	0.905742	0.253357	0.209159
	C12439	C	0.906416	0.191263	0.213574
	C12440	C	0.907064	0.315689	0.213518
	C12441	C	0.901202	0.753637	0.173250
	C12442	C	0.905575	0.753534	0.164043
	C12443	C	0.906695	0.815685	0.159660
	C12444	C	0.906667	0.691253	0.159690
	C12445	C	0.901075	0.252846	0.173212
	C12446	C	0.905618	0.252673	0.164016
	C12447	C	0.906820	0.314914	0.159636
	C12448	C	0.906616	0.190224	0.159649
	C12449	C	0.983262	0.042979	0.185779
	C12450	C	0.983217	0.962276	0.185782
	C12451	C	0.873765	0.043868	0.182681
	C12452	C	0.873734	0.962756	0.182673
	C12453	C	0.868091	0.043616	0.189394
	C12454	C	0.868092	0.962940	0.189378
	C12455	C	0.882096	0.462566	0.186352
	C12456	C	0.996171	0.462098	0.187482
	C12457	C	1.001854	0.462024	0.184510
	C12458	C	0.882111	0.543739	0.186343
	C12459	C	1.001891	0.542754	0.184506
	C12460	C	0.996193	0.542908	0.187470
	C12461	C	0.976734	0.753589	0.199973
	C12462	C	0.976774	0.251663	0.199950
	C12463	C	0.972353	0.753894	0.209170
	C12464	C	0.971615	0.691691	0.213560
	C12465	C	0.971007	0.816219	0.213545
	C12466	C	0.972478	0.251346	0.209162
	C12467	C	0.971357	0.188922	0.213517
	C12468	C	0.971632	0.313594	0.213546
	C12469	C	0.976821	0.251850	0.173243
	C12470	C	0.963992	0.752674	0.137512
	C12471	C	0.914423	0.753124	0.137513
	C12472	C	0.914111	0.752623	0.235740
	C12473	C	0.971128	0.691207	0.159682
	C12474	C	0.971680	0.815811	0.159618
	C12475	C	0.968195	0.753100	0.146719
	C12476	C	0.909992	0.753287	0.146724
	C12477	C	0.908898	0.691118	0.151114
	C12478	C	0.968958	0.690871	0.151109
	C12479	C	0.969503	0.815610	0.151048
	C12480	C	0.908917	0.815550	0.151083
	C12481	C	0.972487	0.753657	0.164032
	C12482	C	0.963913	0.753961	0.235714
	C12483	C	0.969533	0.691754	0.222134
	C12484	C	0.968860	0.816330	0.222121
	C12485	C	0.968261	0.754103	0.226503
	C12486	C	0.935367	0.462550	0.247449
	C12487	C	0.954666	0.462393	0.126784
	C12488	C	0.937469	0.462362	0.251085
	C12489	C	0.935324	0.543285	0.247446
	C12490	C	0.937425	0.543403	0.251086
	C12491	C	0.954716	0.543243	0.126794
	C12492	C	0.963904	0.251406	0.235697
	C12493	C	0.969209	0.188871	0.222090
	C12494	C	0.969502	0.313440	0.222118
	C12495	C	0.968279	0.251139	0.226485
	C12496	C	0.939099	0.043343	0.127366
	C12497	C	0.963985	0.252341	0.137497
	C12498	C	0.914315	0.252682	0.137492
	C12499	C	0.914261	0.253961	0.235701
	C12500	C	0.971542	0.189634	0.159631
	C12501	C	0.971216	0.314206	0.159691
	C12502	C	0.968404	0.252152	0.146702
	C12503	C	0.909910	0.252551	0.146691
	C12504	C	0.909682	0.752903	0.226537
	C12505	C	0.908305	0.815244	0.222199
	C12506	C	0.909116	0.690894	0.222130
	C12507	C	0.909979	0.253893	0.226491
	C12508	C	0.909250	0.316057	0.222096
	C12509	C	0.908599	0.191517	0.222148
	C12510	C	0.908830	0.190258	0.151075
	C12511	C	0.969427	0.189721	0.151056
	C12512	C	0.969104	0.314307	0.151118
	C12513	C	0.909011	0.314760	0.151072
	C12514	C	0.972458	0.251858	0.164032
	C12515	C	0.932849	0.043425	0.244821
	C12516	C	0.931615	0.043225	0.122352
	C12517	C	0.939117	0.962410	0.127370
	C12518	C	0.932847	0.962217	0.244834
	C12519	C	0.931661	0.962260	0.122374
	N12520	N	0.876300	0.070561	0.186624
	N12521	N	0.876255	0.935951	0.186607
	N12522	N	0.876384	0.435781	0.186627
	N12523	N	0.876424	0.570400	0.186612
	N12524	N	0.939371	0.435430	0.249057
	N12525	N	0.939319	0.570056	0.249058
	N12526	N	0.938783	0.070256	0.249109
	N12527	N	0.938748	0.935658	0.249115
	O12528	O	0.979311	0.693410	0.301668
	O12529	O	0.978945	0.810519	0.301738
	O12530	O	0.899069	0.694297	0.321439
	O12531	O	0.899065	0.811287	0.321522
	O12532	O	0.898812	0.194300	0.321541
	O12533	O	0.899068	0.311017	0.321469
	O12534	O	0.899180	0.694680	0.301755
	O12535	O	0.898771	0.811425	0.301657
	O12536	O	0.899023	0.194499	0.301701
	O12537	O	0.899002	0.311214	0.301673
	O12538	O	0.978956	0.694298	0.321495
	O12539	O	0.978861	0.810983	0.321465
	O12540	O	0.979103	0.193873	0.321478
	O12541	O	0.978904	0.310755	0.321489
	O12542	O	0.978970	0.193909	0.301725
	O12543	O	0.979070	0.310893	0.301699
	O12544	O	0.961516	0.694752	0.258921
	O12545	O	0.916797	0.693510	0.258947
	O12546	O	0.961205	0.694765	0.364255
	O12547	O	0.961249	0.811847	0.364240
	O12548	O	0.916823	0.694012	0.364266
	O12549	O	0.916706	0.810809	0.364237
	O12550	O	0.916659	0.810469	0.258967
	O12551	O	0.961239	0.811704	0.258980
	O12552	O	0.961239	0.193414	0.258984
	O12553	O	0.916352	0.195778	0.258855
	O12554	O	0.961282	0.193821	0.364220
	O12555	O	0.961388	0.310563	0.364274
	O12556	O	0.916698	0.194965	0.364266
	O12557	O	0.916859	0.311835	0.364203
	O12558	O	0.917305	0.312605	0.259037
	O12559	O	0.961913	0.310164	0.258866
	H12560	H	0.905905	0.642267	0.335119
	H12561	H	0.905842	0.862471	0.335144
	H12562	H	0.905684	0.143089	0.335229
	H12563	H	0.906005	0.363328	0.335119
	H12564	H	0.905193	0.862720	0.287977
	H12565	H	0.906415	0.642598	0.288157
	H12566	H	0.906391	0.363183	0.288139
	H12567	H	0.904978	0.143122	0.287912
	H12568	H	0.998338	0.064524	0.309698
	H12569	H	0.995319	0.064776	0.311183
	H12570	H	0.995286	0.941107	0.311137
	H12571	H	0.998338	0.940797	0.309696
	H12572	H	1.005223	0.064146	0.309949
	H12573	H	1.005230	0.940565	0.309979
	H12574	H	0.886724	0.064892	0.317484
	H12575	H	0.886854	0.941395	0.317527
	H12576	H	0.895710	0.064935	0.312677
	H12577	H	0.895849	0.941234	0.312687
	H12578	H	0.885896	0.064546	0.305551
	H12579	H	0.885883	0.940899	0.305552
	H12580	H	0.885527	0.441045	0.308982
	H12581	H	0.876845	0.441283	0.307480
	H12582	H	0.886638	0.441501	0.313654
	H12583	H	1.010899	0.440832	0.307195
	H12584	H	1.016186	0.441069	0.313448
	H12585	H	1.006905	0.440892	0.316993
	H12586	H	0.876725	0.564482	0.307496
	H12587	H	0.885528	0.564908	0.308952
	H12588	H	1.006990	0.564007	0.316992
	H12589	H	1.016228	0.564311	0.313477
	H12590	H	1.011026	0.564299	0.307116
	H12591	H	0.886609	0.564800	0.313660
	H12592	H	0.971945	0.642718	0.335169
	H12593	H	0.972223	0.862938	0.335128
	H12594	H	0.972281	0.142367	0.335151
	H12595	H	0.972068	0.362500	0.335166
	H12596	H	0.910499	0.641902	0.272722
	H12597	H	0.969318	0.643063	0.272501
	H12598	H	0.967554	0.863350	0.272663
	H12599	H	0.909231	0.862007	0.272538
	H12600	H	0.973252	0.642572	0.287950
	H12601	H	0.971581	0.862643	0.288133
	H12602	H	0.968019	0.643127	0.350608
	H12603	H	0.968248	0.863128	0.350569
	H12604	H	0.936769	0.441155	0.245976
	H12605	H	0.924253	0.441651	0.370463
	H12606	H	0.946475	0.440871	0.247164
	H12607	H	0.948023	0.441012	0.249775
	H12608	H	0.937600	0.440565	0.380532
	H12609	H	0.924398	0.441568	0.377861
	H12610	H	0.924385	0.564973	0.370472
	H12611	H	0.936696	0.564690	0.245987
	H12612	H	0.924562	0.564811	0.377873
	H12613	H	0.937491	0.564554	0.380557
	H12614	H	0.948029	0.564111	0.249763
	H12615	H	0.946490	0.564588	0.247087
	H12616	H	0.968192	0.142207	0.350597
	H12617	H	0.968112	0.362416	0.350592
	H12618	H	0.956375	0.064617	0.252531
	H12619	H	0.957416	0.064136	0.246526
	H12620	H	0.935789	0.064798	0.256188
	H12621	H	0.909725	0.862433	0.350609
	H12622	H	0.909791	0.642172	0.350562
	H12623	H	0.910167	0.363510	0.350555
	H12624	H	0.909801	0.143424	0.350620
	H12625	H	0.909106	0.143762	0.272487
	H12626	H	0.967919	0.141898	0.272666
	H12627	H	0.968755	0.362149	0.272524
	H12628	H	0.910548	0.363865	0.272714
	H12629	H	0.971845	0.142176	0.288107
	H12630	H	0.972626	0.362499	0.287974
	H12631	H	0.921335	0.064763	0.379259
	H12632	H	0.938549	0.064573	0.382246
	H12633	H	0.960208	0.064638	0.377007
	H12634	H	0.957357	0.941320	0.246490
	H12635	H	0.956257	0.940932	0.252506
	H12636	H	0.935670	0.941160	0.256209
	H12637	H	0.921279	0.941062	0.379297
	H12638	H	0.938636	0.941462	0.382299
	H12639	H	0.960292	0.941290	0.376989
	Zn12640	Zn	0.876649	0.680744	0.311580
	Zn12641	Zn	0.876769	0.825408	0.311615
	Zn12642	Zn	0.876685	0.180689	0.311591
	Zn12643	Zn	0.876764	0.325435	0.311608
	Zn12644	Zn	0.939193	0.680528	0.374128
	Zn12645	Zn	0.938778	0.824986	0.374124
	Zn12646	Zn	0.938936	0.180729	0.374127
	Zn12647	Zn	0.939092	0.325243	0.374131
	C12648	C	0.976663	0.752056	0.298208
	C12649	C	0.901549	0.752636	0.324975
	C12650	C	0.905792	0.752418	0.334199
	C12651	C	0.906768	0.690073	0.338566
	C12652	C	0.906743	0.814659	0.338586
	C12653	C	0.901410	0.252784	0.325021
	C12654	C	0.905806	0.253106	0.334222
	C12655	C	0.906742	0.190988	0.338629
	C12656	C	0.906946	0.315532	0.338564
	C12657	C	0.901503	0.752906	0.298200
	C12658	C	0.905784	0.752689	0.288995
	C12659	C	0.906450	0.814763	0.284574
	C12660	C	0.907123	0.690173	0.284674
	C12661	C	0.901454	0.252804	0.298174
	C12662	C	0.905806	0.253076	0.288973
	C12663	C	0.907147	0.315555	0.284663
	C12664	C	0.906396	0.191065	0.284540
	C12665	C	0.997982	0.043307	0.310720
	C12666	C	0.997981	0.962415	0.310726
	C12667	C	0.887461	0.043421	0.314178
	C12668	C	0.887485	0.962464	0.314185
	C12669	C	0.877578	0.043282	0.307014
	C12670	C	0.877581	0.962343	0.307025
	C12671	C	0.880007	0.462288	0.309109
	C12672	C	1.003514	0.462104	0.307913
	C12673	C	1.008774	0.462209	0.314291
	C12674	C	0.879970	0.543417	0.309121
	C12675	C	1.008807	0.542906	0.314276
	C12676	C	1.003540	0.542907	0.307891
	C12677	C	0.976395	0.752690	0.324999
	C12678	C	0.976456	0.252277	0.324986
	C12679	C	0.972048	0.752856	0.334198
	C12680	C	0.971030	0.690626	0.338590
	C12681	C	0.971204	0.815199	0.338564
	C12682	C	0.972142	0.252354	0.334191
	C12683	C	0.971253	0.190121	0.338580
	C12684	C	0.971165	0.314535	0.338588
	C12685	C	0.976613	0.252384	0.298196
	C12686	C	0.963884	0.753176	0.262446
	C12687	C	0.914253	0.751917	0.262455
	C12688	C	0.914246	0.752307	0.360735
	C12689	C	0.971861	0.690487	0.284549
	C12690	C	0.970921	0.814993	0.284653
	C12691	C	0.968275	0.753190	0.271647
	C12692	C	0.909865	0.751938	0.271665
	C12693	C	0.909173	0.689833	0.276097
	C12694	C	0.969775	0.690759	0.275973
	C12695	C	0.968814	0.815368	0.276071
	C12696	C	0.908506	0.814362	0.276002
	C12697	C	0.972334	0.752529	0.288980
	C12698	C	0.963715	0.753287	0.360757
	C12699	C	0.968936	0.690881	0.347164
	C12700	C	0.969134	0.815263	0.347136
	C12701	C	0.967944	0.753205	0.351532
	C12702	C	0.933009	0.462552	0.370432
	C12703	C	0.945190	0.462470	0.248597
	C12704	C	0.933114	0.462338	0.377878
	C12705	C	0.933067	0.543440	0.370430
	C12706	C	0.933165	0.543284	0.377883
	C12707	C	0.945150	0.543319	0.248608
	C12708	C	0.963733	0.252282	0.360730
	C12709	C	0.969187	0.190117	0.347159
	C12710	C	0.969113	0.314638	0.347166
	C12711	C	0.968138	0.252393	0.351528
	C12712	C	0.952106	0.043226	0.249416
	C12713	C	0.964029	0.251891	0.262439
	C12714	C	0.914316	0.254051	0.262440
	C12715	C	0.914316	0.253354	0.360735
	C12716	C	0.971055	0.189946	0.284642
	C12717	C	0.971515	0.314604	0.284564
	C12718	C	0.968317	0.252042	0.271646
	C12719	C	0.909958	0.253863	0.271650
	C12720	C	0.909882	0.752315	0.351527
	C12721	C	0.908829	0.814674	0.347162
	C12722	C	0.908858	0.690047	0.347139
	C12723	C	0.909978	0.253469	0.351544
	C12724	C	0.909070	0.315631	0.347139
	C12725	C	0.908909	0.191138	0.347197
	C12726	C	0.908525	0.191425	0.275970
	C12727	C	0.968993	0.189839	0.276066
	C12728	C	0.969482	0.314421	0.275987
	C12729	C	0.909314	0.315957	0.276093
	C12730	C	0.972279	0.252388	0.288982
	C12731	C	0.932326	0.043336	0.378996
	C12732	C	0.931392	0.043248	0.253116
	C12733	C	0.952075	0.962491	0.249408
	C12734	C	0.932304	0.962415	0.379020
	C12735	C	0.931371	0.962609	0.253112
	N12736	N	0.876713	0.070184	0.311611
	N12737	N	0.876755	0.935578	0.311633
	N12738	N	0.876785	0.435699	0.311588
	N12739	N	0.876756	0.570312	0.311580
	N12740	N	0.939041	0.435454	0.374130
	N12741	N	0.939121	0.570111	0.374129
	N12742	N	0.938935	0.070098	0.374116
	N12743	N	0.938880	0.935439	0.374114
	O12744	O	0.979312	0.694344	0.426680
	O12745	O	0.978904	0.811386	0.426768
	O12746	O	0.898829	0.695438	0.446462
	O12747	O	0.898488	0.812237	0.446518
	O12748	O	0.898451	0.193165	0.446502
	O12749	O	0.898959	0.309910	0.446456
	O12750	O	0.898947	0.695494	0.426785
	O12751	O	0.898559	0.812258	0.426734
	O12752	O	0.898375	0.193288	0.426699
	O12753	O	0.899138	0.310082	0.426804
	O12754	O	0.979039	0.694210	0.446472
	O12755	O	0.979054	0.810782	0.446540
	O12756	O	0.978967	0.194418	0.446513
	O12757	O	0.979114	0.311236	0.446471
	O12758	O	0.979028	0.194184	0.426706
	O12759	O	0.979302	0.311126	0.426727
	O12760	O	0.961633	0.695302	0.383960
	O12761	O	0.917032	0.694019	0.384059
	O12762	O	0.961154	0.693509	0.489248
	O12763	O	0.961566	0.810487	0.489217
	O12764	O	0.916771	0.695282	0.489197
	O12765	O	0.916960	0.812051	0.489227
	O12766	O	0.916522	0.811047	0.383992
	O12767	O	0.961064	0.811884	0.383971
	O12768	O	0.961205	0.193745	0.384030
	O12769	O	0.916435	0.194744	0.383980
	O12770	O	0.961389	0.195332	0.489225
	O12771	O	0.961120	0.312318	0.489190
	O12772	O	0.916799	0.192924	0.489217
	O12773	O	0.916594	0.309747	0.489245
	O12774	O	0.916797	0.311802	0.384067
	O12775	O	0.961246	0.310862	0.383981
	H12776	H	0.905757	0.644034	0.460126
	H12777	H	0.905485	0.863645	0.460185
	H12778	H	0.905754	0.141208	0.460134
	H12779	H	0.905528	0.361424	0.460165
	H12780	H	0.905167	0.863463	0.413043
	H12781	H	0.906329	0.643273	0.413190
	H12782	H	0.906496	0.362000	0.413191
	H12783	H	0.904862	0.141808	0.413006
	H12784	H	0.999291	0.064024	0.440347
	H12785	H	1.007902	0.064370	0.439534
	H12786	H	1.007852	0.941118	0.439572
	H12787	H	0.999324	0.940423	0.440359
	H12788	H	0.990770	0.064099	0.437248
	H12789	H	0.990833	0.940391	0.437252
	H12790	H	0.876017	0.064765	0.440404
	H12791	H	0.876062	0.941080	0.440380
	H12792	H	0.884076	0.064893	0.439073
	H12793	H	0.884080	0.941045	0.439071
	H12794	H	0.885196	0.064451	0.434713
	H12795	H	0.885217	0.941314	0.434734
	H12796	H	0.881227	0.441627	0.435263
	H12797	H	0.876736	0.441367	0.434532
	H12798	H	0.881749	0.441087	0.437651
	H12799	H	1.006448	0.440529	0.437713
	H12800	H	1.000212	0.440644	0.438711
	H12801	H	0.996171	0.441133	0.437634
	H12802	H	0.876808	0.564698	0.434552
	H12803	H	0.881181	0.564889	0.435298
	H12804	H	0.996196	0.564223	0.437616
	H12805	H	1.000156	0.564422	0.438676
	H12806	H	1.006509	0.564337	0.437706
	H12807	H	0.881693	0.564731	0.437703
	H12808	H	0.972047	0.641989	0.460106
	H12809	H	0.972244	0.862056	0.460199
	H12810	H	0.972054	0.143091	0.460172
	H12811	H	0.972099	0.363377	0.460060
	H12812	H	0.910412	0.642558	0.397754
	H12813	H	0.968710	0.643645	0.397585
	H12814	H	0.967584	0.863417	0.397656
	H12815	H	0.909333	0.862850	0.397606
	H12816	H	0.972780	0.643261	0.413034
	H12817	H	0.971711	0.863156	0.413102
	H12818	H	0.967834	0.641816	0.475542
	H12819	H	0.968158	0.861488	0.475619
	H12820	H	0.937376	0.441073	0.367757
	H12821	H	0.948604	0.440990	0.496679
	H12822	H	0.955226	0.440676	0.371418
	H12823	H	0.955258	0.440687	0.376797
	H12824	H	0.928268	0.441159	0.497231
	H12825	H	0.935940	0.441065	0.494962
	H12826	H	0.948719	0.564305	0.496681
	H12827	H	0.937379	0.564873	0.367728
	H12828	H	0.935935	0.564577	0.494936
	H12829	H	0.928182	0.564402	0.497231
	H12830	H	0.955422	0.564324	0.376811
	H12831	H	0.955368	0.564137	0.371407
	H12832	H	0.968037	0.143534	0.475611
	H12833	H	0.968027	0.363866	0.475503
	H12834	H	0.935162	0.064388	0.366025
	H12835	H	0.919369	0.064476	0.369893
	H12836	H	0.958886	0.064589	0.370158
	H12837	H	0.909651	0.863672	0.475610
	H12838	H	0.909869	0.643954	0.475556
	H12839	H	0.909746	0.361395	0.475588
	H12840	H	0.910022	0.141259	0.475572
	H12841	H	0.909012	0.142397	0.397567
	H12842	H	0.968188	0.142564	0.397631
	H12843	H	0.968157	0.362864	0.397636
	H12844	H	0.910619	0.362691	0.397740
	H12845	H	0.972317	0.142723	0.413068
	H12846	H	0.972328	0.362872	0.413077
	H12847	H	0.934438	0.064585	0.500013
	H12848	H	0.938186	0.064249	0.501078
	H12849	H	0.944118	0.064677	0.500191
	H12850	H	0.919279	0.941220	0.369912
	H12851	H	0.935242	0.940709	0.366044
	H12852	H	0.958733	0.940695	0.370131
	H12853	H	0.934461	0.940701	0.500028
	H12854	H	0.938158	0.940914	0.501068
	H12855	H	0.944181	0.941080	0.500193
	Zn12856	Zn	0.876583	0.680773	0.436588
	Zn12857	Zn	0.876139	0.825244	0.436632
	Zn12858	Zn	0.875943	0.181048	0.436575
	Zn12859	Zn	0.876830	0.325317	0.436597
	Zn12860	Zn	0.938818	0.680558	0.499117
	Zn12861	Zn	0.939355	0.825165	0.499083
	Zn12862	Zn	0.939355	0.180401	0.499108
	Zn12863	Zn	0.938640	0.325146	0.499092
	C12864	C	0.976639	0.752995	0.423237
	C12865	C	0.901093	0.753775	0.450002
	C12866	C	0.905578	0.753747	0.459197
	C12867	C	0.906687	0.691684	0.463565
	C12868	C	0.906507	0.815836	0.463601
	C12869	C	0.901201	0.251524	0.449989
	C12870	C	0.905501	0.251426	0.459198
	C12871	C	0.906698	0.189096	0.463568
	C12872	C	0.906553	0.313544	0.463579
	C12873	C	0.901302	0.753861	0.423248
	C12874	C	0.905716	0.753481	0.414060
	C12875	C	0.906457	0.815567	0.409644
	C12876	C	0.907070	0.690926	0.409722
	C12877	C	0.901220	0.251733	0.423242
	C12878	C	0.905600	0.251899	0.414041
	C12879	C	0.907129	0.314391	0.409715
	C12880	C	0.906257	0.189786	0.409616
	C12881	C	1.002951	0.042957	0.439056
	C12882	C	1.002926	0.962081	0.439083
	C12883	C	0.878967	0.043507	0.438922
	C12884	C	0.879018	0.962328	0.438914
	C12885	C	0.880094	0.043455	0.434537
	C12886	C	0.880170	0.962660	0.434550
	C12887	C	0.878389	0.462496	0.435366
	C12888	C	1.005340	0.462093	0.436770
	C12889	C	0.999022	0.462220	0.437748
	C12890	C	0.878387	0.543315	0.435368
	C12891	C	0.999014	0.542995	0.437733
	C12892	C	1.005358	0.542967	0.436754
	C12893	C	0.976588	0.752391	0.450018
	C12894	C	0.976560	0.252939	0.449993
	C12895	C	0.972182	0.752055	0.459199
	C12896	C	0.971160	0.689756	0.463547
	C12897	C	0.971273	0.814108	0.463597
	C12898	C	0.972218	0.253210	0.459187
	C12899	C	0.971141	0.191016	0.463589
	C12900	C	0.971198	0.315673	0.463516
	C12901	C	0.976704	0.252716	0.423213
	C12902	C	0.963817	0.753659	0.387497
	C12903	C	0.914338	0.752569	0.387527
	C12904	C	0.914334	0.753749	0.485710
	C12905	C	0.971590	0.691120	0.409623
	C12906	C	0.971017	0.815411	0.409664
	C12907	C	0.968194	0.753506	0.396698
	C12908	C	0.909946	0.752741	0.396739
	C12909	C	0.909186	0.690606	0.401145
	C12910	C	0.969466	0.691223	0.401049
	C12911	C	0.968877	0.815658	0.401090
	C12912	C	0.908583	0.815122	0.401068
	C12913	C	0.972366	0.753195	0.414022
	C12914	C	0.963832	0.751849	0.485734
	C12915	C	0.969055	0.689589	0.472127
	C12916	C	0.969196	0.813848	0.472168
	C12917	C	0.968184	0.751677	0.476529
	C12918	C	0.946679	0.462463	0.498607
	C12919	C	0.951022	0.462175	0.374125
	C12920	C	0.933864	0.462315	0.496881
	C12921	C	0.946705	0.543254	0.498622
	C12922	C	0.933839	0.543241	0.496880
	C12923	C	0.951073	0.542903	0.374122
	C12924	C	0.963741	0.253834	0.485706
	C12925	C	0.969052	0.191262	0.472161
	C12926	C	0.969079	0.315907	0.472092
	C12927	C	0.968086	0.253745	0.476496
	C12928	C	0.930372	0.043068	0.369569
	C12929	C	0.963748	0.252421	0.387495
	C12930	C	0.914117	0.253142	0.387513
	C12931	C	0.914227	0.251343	0.485718
	C12932	C	0.971246	0.190510	0.409638
	C12933	C	0.971265	0.315120	0.409640
	C12934	C	0.968087	0.252707	0.396701
	C12935	C	0.909781	0.252673	0.396725
	C12936	C	0.909814	0.753744	0.476522
	C12937	C	0.908745	0.815925	0.472170
	C12938	C	0.908886	0.691632	0.472136
	C12939	C	0.909784	0.251407	0.476519
	C12940	C	0.908728	0.313634	0.472152
	C12941	C	0.908877	0.189066	0.472144
	C12942	C	0.908412	0.190120	0.401043
	C12943	C	0.969123	0.190399	0.401068
	C12944	C	0.969131	0.315064	0.401070
	C12945	C	0.909286	0.314755	0.401143
	C12946	C	0.972281	0.252862	0.414015
	C12947	C	0.937119	0.043178	0.500159
	C12948	C	0.954087	0.043227	0.373703
	C12949	C	0.930308	0.962301	0.369578
	C12950	C	0.937136	0.962247	0.500173
	C12951	C	0.954087	0.962283	0.373705
	N12952	N	0.876030	0.070491	0.436615
	N12953	N	0.876104	0.935766	0.436607
	N12954	N	0.876792	0.435631	0.436584
	N12955	N	0.876706	0.570231	0.436625
	N12956	N	0.938887	0.435478	0.499083
	N12957	N	0.938888	0.570118	0.499089
	N12958	N	0.939430	0.070110	0.499096
	N12959	N	0.939487	0.935520	0.499128
	O12960	O	0.979140	0.692880	0.551732
	O12961	O	0.978728	0.809545	0.551745
	O12962	O	0.898854	0.695075	0.571536
	O12963	O	0.898827	0.811988	0.571460
	O12964	O	0.898912	0.194059	0.571480
	O12965	O	0.898934	0.310872	0.571502
	O12966	O	0.898775	0.694852	0.551725
	O12967	O	0.898668	0.811972	0.551738
	O12968	O	0.898938	0.193866	0.551746
	O12969	O	0.898814	0.310528	0.551737
	O12970	O	0.979001	0.692914	0.571511
	O12971	O	0.978893	0.809701	0.571487
	O12972	O	0.978697	0.195439	0.571493
	O12973	O	0.979159	0.312308	0.571563
	O12974	O	0.978734	0.195543	0.551722
	O12975	O	0.978926	0.312334	0.551788
	O12976	O	0.961082	0.693249	0.509010
	O12977	O	0.916443	0.695450	0.508962
	O12978	O	0.961197	0.693799	0.614281
	O12979	O	0.961305	0.810633	0.614207
	O12980	O	0.916362	0.695057	0.614269
	O12981	O	0.916672	0.811995	0.614270
	O12982	O	0.916853	0.812351	0.508984
	O12983	O	0.961654	0.810212	0.508946
	O12984	O	0.961565	0.195926	0.508958
	O12985	O	0.917037	0.193338	0.508996
	O12986	O	0.961724	0.195190	0.614294
	O12987	O	0.961201	0.312088	0.614297
	O12988	O	0.916983	0.193295	0.614215
	O12989	O	0.916511	0.310117	0.614290
	O12990	O	0.916545	0.310275	0.508973
	O12991	O	0.960909	0.312834	0.508997
	H12992	H	0.905813	0.643337	0.585157
	H12993	H	0.905666	0.863898	0.585155
	H12994	H	0.906169	0.142276	0.585128
	H12995	H	0.905272	0.362396	0.585207
	H12996	H	0.906120	0.863854	0.538119
	H12997	H	0.905128	0.643552	0.538025
	H12998	H	0.905410	0.362088	0.538035
	H12999	H	0.905792	0.141900	0.538032
	H13000	H	1.003161	0.064513	0.559244
	H13001	H	0.997278	0.064474	0.559388
	H13002	H	0.997223	0.940857	0.559381
	H13003	H	1.003165	0.941035	0.559212
	H13004	H	1.007783	0.064278	0.561640
	H13005	H	1.007911	0.940836	0.561592
	H13006	H	0.867850	0.065025	0.562648
	H13007	H	0.867813	0.941441	0.562679
	H13008	H	0.873059	0.064940	0.564623
	H13009	H	0.873006	0.941638	0.564657
	H13010	H	0.883117	0.064677	0.563754
	H13011	H	0.883097	0.941191	0.563820
	H13012	H	0.872113	0.441275	0.561882
	H13013	H	0.874256	0.441481	0.563035
	H13014	H	0.874537	0.441162	0.560182
	H13015	H	0.999101	0.440808	0.563767
	H13016	H	0.995176	0.440648	0.561544
	H13017	H	0.997588	0.440737	0.559819
	H13018	H	0.874243	0.565057	0.563007
	H13019	H	0.872248	0.565020	0.561858
	H13020	H	0.997610	0.564293	0.559734
	H13021	H	0.994974	0.563976	0.561497
	H13022	H	0.998997	0.564121	0.563762
	H13023	H	0.874641	0.564435	0.560208
	H13024	H	0.972102	0.641252	0.585191
	H13025	H	0.972139	0.861136	0.585086
	H13026	H	0.972535	0.143813	0.585180
	H13027	H	0.972006	0.364008	0.585183
	H13028	H	0.909245	0.644056	0.522573
	H13029	H	0.967712	0.641575	0.522649
	H13030	H	0.968499	0.861341	0.522629
	H13031	H	0.910203	0.864295	0.522686
	H13032	H	0.971712	0.641313	0.538101
	H13033	H	0.972437	0.861176	0.538054
	H13034	H	0.968018	0.641563	0.600630
	H13035	H	0.968084	0.861720	0.600524
	H13036	H	0.950235	0.440924	0.500197
	H13037	H	0.949364	0.440448	0.621614
	H13038	H	0.939777	0.441086	0.503314
	H13039	H	0.930424	0.441319	0.502038
	H13040	H	0.927394	0.441166	0.622146
	H13041	H	0.935811	0.440558	0.619733
	H13042	H	0.949313	0.564610	0.621619
	H13043	H	0.950349	0.564528	0.500238
	H13044	H	0.935736	0.564603	0.619745
	H13045	H	0.927551	0.564042	0.622130
	H13046	H	0.930451	0.564913	0.502066
	H13047	H	0.939758	0.564925	0.503344
	H13048	H	0.968625	0.143642	0.600598
	H13049	H	0.967891	0.363857	0.600630
	H13050	H	0.939784	0.064616	0.497052
	H13051	H	0.935309	0.064486	0.497709
	H13052	H	0.944806	0.064659	0.498508
	H13053	H	0.909765	0.863618	0.600605
	H13054	H	0.909830	0.643383	0.600587
	H13055	H	0.909314	0.362117	0.600636
	H13056	H	0.910272	0.142025	0.600574
	H13057	H	0.909827	0.141990	0.522592
	H13058	H	0.968299	0.144406	0.522616
	H13059	H	0.967901	0.364475	0.522670
	H13060	H	0.909396	0.361816	0.522597
	H13061	H	0.972322	0.144423	0.538064
	H13062	H	0.972044	0.364353	0.538096
	H13063	H	0.919562	0.064503	0.623137
	H13064	H	0.924388	0.064613	0.628909
	H13065	H	0.946702	0.064431	0.630786
	H13066	H	0.935385	0.941076	0.497747
	H13067	H	0.939699	0.941311	0.497121
	H13068	H	0.944820	0.940845	0.498523
	H13069	H	0.919590	0.940656	0.623180
	H13070	H	0.924399	0.941174	0.628926
	H13071	H	0.946666	0.941177	0.630766
	Zn13072	Zn	0.876703	0.680344	0.561645
	Zn13073	Zn	0.876306	0.825679	0.561630
	Zn13074	Zn	0.876468	0.180016	0.561613
	Zn13075	Zn	0.876637	0.325459	0.561614
	Zn13076	Zn	0.938779	0.680023	0.624118
	Zn13077	Zn	0.939245	0.825112	0.624123
	Zn13078	Zn	0.939264	0.179991	0.624127
	Zn13079	Zn	0.938824	0.325147	0.624164
	C13080	C	0.976489	0.751187	0.548232
	C13081	C	0.901345	0.753719	0.574994
	C13082	C	0.905585	0.753750	0.584206
	C13083	C	0.906661	0.691281	0.588585
	C13084	C	0.906570	0.816052	0.588581
	C13085	C	0.901378	0.252396	0.575000
	C13086	C	0.905713	0.252298	0.584215
	C13087	C	0.906975	0.190001	0.588579
	C13088	C	0.906472	0.314514	0.588618
	C13089	C	0.901179	0.753485	0.548237
	C13090	C	0.905591	0.753658	0.539026
	C13091	C	0.906853	0.816110	0.534669
	C13092	C	0.906315	0.691493	0.534609
	C13093	C	0.901306	0.252137	0.548226
	C13094	C	0.905606	0.251964	0.539010
	C13095	C	0.906470	0.314145	0.534627
	C13096	C	0.906734	0.189822	0.534625
	C13097	C	1.000339	0.042927	0.559910
	C13098	C	1.000327	0.962028	0.559898
	C13099	C	0.872008	0.043467	0.563134
	C13100	C	0.871954	0.962779	0.563141
	C13101	C	0.882146	0.043275	0.562248
	C13102	C	0.882106	0.962380	0.562271
	C13103	C	0.874120	0.462561	0.562239
	C13104	C	1.001734	0.462064	0.563170
	C13105	C	0.997740	0.462033	0.560912
	C13106	C	0.874164	0.543570	0.562225
	C13107	C	0.997697	0.542900	0.560888
	C13108	C	1.001723	0.543006	0.563170
	C13109	C	0.976444	0.751305	0.575000
	C13110	C	0.976453	0.253872	0.575025
	C13111	C	0.972150	0.751249	0.584202
	C13112	C	0.971128	0.689177	0.588607
	C13113	C	0.971166	0.813507	0.588544
	C13114	C	0.972200	0.253858	0.584236
	C13115	C	0.971450	0.191556	0.588615
	C13116	C	0.971126	0.316192	0.588619
	C13117	C	0.976416	0.254174	0.548244
	C13118	C	0.963796	0.751700	0.512494
	C13119	C	0.914129	0.753967	0.512476
	C13120	C	0.914051	0.753595	0.610758
	C13121	C	0.970872	0.689133	0.534663
	C13122	C	0.971229	0.813412	0.534639
	C13123	C	0.967976	0.751434	0.521707
	C13124	C	0.909750	0.754061	0.521692
	C13125	C	0.908467	0.691734	0.526034
	C13126	C	0.968737	0.689279	0.526089
	C13127	C	0.969139	0.813551	0.526069
	C13128	C	0.909012	0.816309	0.526093
	C13129	C	0.972037	0.751206	0.539038
	C13130	C	0.963710	0.752021	0.610735
	C13131	C	0.969019	0.689336	0.597182
	C13132	C	0.969053	0.813724	0.597117
	C13133	C	0.968000	0.751694	0.601533
	C13134	C	0.947235	0.462226	0.623674
	C13135	C	0.936083	0.462429	0.501736
	C13136	C	0.933529	0.462131	0.621787
	C13137	C	0.947180	0.543088	0.623659
	C13138	C	0.933553	0.542839	0.621773
	C13139	C	0.936070	0.543321	0.501754
	C13140	C	0.963913	0.253735	0.610786
	C13141	C	0.969433	0.191585	0.597187
	C13142	C	0.969080	0.316087	0.597198
	C13143	C	0.968264	0.253827	0.601567
	C13144	C	0.938025	0.043179	0.497828
	C13145	C	0.963725	0.254425	0.512484
	C13146	C	0.914210	0.251766	0.512477
	C13147	C	0.914278	0.251761	0.610747
	C13148	C	0.971258	0.192189	0.534639
	C13149	C	0.971056	0.316603	0.534657
	C13150	C	0.968044	0.254421	0.521697
	C13151	C	0.909696	0.251817	0.521680
	C13152	C	0.909751	0.753603	0.601530
	C13153	C	0.908665	0.815908	0.597158
	C13154	C	0.908764	0.691240	0.597158
	C13155	C	0.909874	0.252005	0.601547
	C13156	C	0.908621	0.314349	0.597197
	C13157	C	0.909138	0.189873	0.597153
	C13158	C	0.908807	0.189687	0.526047
	C13159	C	0.969170	0.192200	0.526062
	C13160	C	0.968919	0.316600	0.526082
	C13161	C	0.908532	0.314105	0.526045
	C13162	C	0.972124	0.254413	0.539033
	C13163	C	0.926542	0.043235	0.625522
	C13164	C	0.943158	0.043252	0.499268
	C13165	C	0.938039	0.962417	0.497854
	C13166	C	0.926546	0.962156	0.625540
	C13167	C	0.943165	0.962300	0.499281
	N13168	N	0.876406	0.070028	0.561620
	N13169	N	0.876297	0.935547	0.561658
	N13170	N	0.876664	0.435697	0.561641
	N13171	N	0.876712	0.570271	0.561645
	N13172	N	0.938873	0.435316	0.624163
	N13173	N	0.938817	0.569902	0.624140
	N13174	N	0.939265	0.069934	0.624157
	N13175	N	0.939223	0.935406	0.624164
	O13176	O	0.979321	0.694070	0.676785
	O13177	O	0.979511	0.810950	0.676705
	O13178	O	0.898964	0.694029	0.696524
	O13179	O	0.898931	0.810986	0.696539
	O13180	O	0.898882	0.194602	0.696529
	O13181	O	0.898966	0.311484	0.696547
	O13182	O	0.898986	0.693985	0.676740
	O13183	O	0.899125	0.811073	0.676776
	O13184	O	0.899098	0.194392	0.676782
	O13185	O	0.898850	0.311199	0.676676
	O13186	O	0.979433	0.693998	0.696466
	O13187	O	0.979285	0.810798	0.696431
	O13188	O	0.979419	0.193964	0.696398
	O13189	O	0.979210	0.310740	0.696402
	O13190	O	0.979540	0.193502	0.676723
	O13191	O	0.979148	0.310494	0.676792
	O13192	O	0.961041	0.693211	0.634013
	O13193	O	0.916377	0.694853	0.633986
	O13194	O	0.961845	0.694145	0.739244
	O13195	O	0.961660	0.811086	0.739210
	O13196	O	0.917085	0.694085	0.739278
	O13197	O	0.917108	0.810901	0.739287
	O13198	O	0.916898	0.811674	0.634025
	O13199	O	0.961514	0.810286	0.633969
	O13200	O	0.961445	0.194673	0.633973
	O13201	O	0.916898	0.193347	0.634000
	O13202	O	0.961610	0.194002	0.739186
	O13203	O	0.961696	0.310939	0.739201
	O13204	O	0.917162	0.194551	0.739273
	O13205	O	0.917272	0.311227	0.739275
	O13206	O	0.916295	0.310252	0.633951
	O13207	O	0.960983	0.311349	0.634054
	H13208	H	0.905654	0.642327	0.710210
	H13209	H	0.905986	0.862452	0.710171
	H13210	H	0.905956	0.143056	0.710169
	H13211	H	0.905718	0.363230	0.710220
	H13212	H	0.906338	0.863098	0.663131
	H13213	H	0.905160	0.642764	0.663070
	H13214	H	0.905141	0.362206	0.663011
	H13215	H	0.906362	0.141966	0.663162
	H13216	H	1.012555	0.064631	0.694024
	H13217	H	1.024597	0.064687	0.688435
	H13218	H	1.024549	0.940474	0.688436
	H13219	H	1.012692	0.941096	0.694030
	H13220	H	0.986088	0.064124	0.692776
	H13221	H	0.986035	0.941378	0.692796
	H13222	H	0.876542	0.064655	0.687715
	H13223	H	0.876585	0.941113	0.687741
	H13224	H	0.879000	0.064545	0.687403
	H13225	H	0.878985	0.940879	0.687367
	H13226	H	0.879438	0.064316	0.686102
	H13227	H	0.879321	0.941117	0.686146
	H13228	H	0.868858	0.441269	0.677610
	H13229	H	0.852624	0.441165	0.682941
	H13230	H	0.897679	0.440949	0.680880
	H13231	H	0.995484	0.440236	0.687538
	H13232	H	0.997145	0.440949	0.684776
	H13233	H	1.002629	0.441346	0.684145
	H13234	H	0.852502	0.564308	0.682966
	H13235	H	0.868924	0.564487	0.677616
	H13236	H	1.002730	0.564581	0.684106
	H13237	H	0.997160	0.564428	0.684777
	H13238	H	0.995539	0.564310	0.687549
	H13239	H	0.897609	0.564808	0.680894
	H13240	H	0.972180	0.642565	0.710115
	H13241	H	0.972331	0.862344	0.710092
	H13242	H	0.972556	0.141933	0.710079
	H13243	H	0.972141	0.362168	0.710037
	H13244	H	0.909255	0.643086	0.647617
	H13245	H	0.967488	0.641657	0.647736
	H13246	H	0.968987	0.861802	0.647557
	H13247	H	0.910500	0.863317	0.647702
	H13248	H	0.971729	0.642183	0.663155
	H13249	H	0.973207	0.862205	0.663011
	H13250	H	0.968452	0.642667	0.725579
	H13251	H	0.968494	0.862581	0.725527
	H13252	H	0.951185	0.441398	0.625389
	H13253	H	0.922644	0.441005	0.750938
	H13254	H	0.939756	0.441181	0.628700
	H13255	H	0.929748	0.440829	0.627325
	H13256	H	0.952775	0.440660	0.753566
	H13257	H	0.938814	0.441282	0.755538
	H13258	H	0.922599	0.564182	0.750958
	H13259	H	0.950964	0.564432	0.625364
	H13260	H	0.938635	0.564213	0.755558
	H13261	H	0.952786	0.564532	0.753566
	H13262	H	0.929787	0.564280	0.627262
	H13263	H	0.939580	0.564245	0.628652
	H13264	H	0.968628	0.142220	0.725540
	H13265	H	0.968256	0.362455	0.725480
	H13266	H	0.951542	0.064220	0.618532
	H13267	H	0.935264	0.064157	0.617117
	H13268	H	0.958247	0.064450	0.626387
	H13269	H	0.910203	0.862600	0.725602
	H13270	H	0.909811	0.642527	0.725637
	H13271	H	0.909959	0.363170	0.725656
	H13272	H	0.910191	0.142888	0.725594
	H13273	H	0.910359	0.141624	0.647706
	H13274	H	0.968791	0.142570	0.647619
	H13275	H	0.967463	0.362862	0.647729
	H13276	H	0.909175	0.361894	0.647590
	H13277	H	0.972923	0.142296	0.663066
	H13278	H	0.971625	0.362352	0.663182
	H13279	H	0.950412	0.064130	0.750309
	H13280	H	0.949110	0.064568	0.746945
	H13281	H	0.937200	0.064268	0.745190
	H13282	H	0.935251	0.941062	0.617177
	H13283	H	0.951485	0.940902	0.618565
	H13284	H	0.958084	0.940696	0.626383
	H13285	H	0.950468	0.940720	0.750278
	H13286	H	0.949136	0.941097	0.746913
	H13287	H	0.937208	0.941000	0.745199
	Zn13288	Zn	0.876780	0.680009	0.686605
	Zn13289	Zn	0.876722	0.825115	0.686649
	Zn13290	Zn	0.876701	0.180080	0.686654
	Zn13291	Zn	0.876713	0.325249	0.686619
	Zn13292	Zn	0.939564	0.680289	0.749106
	Zn13293	Zn	0.939598	0.825224	0.749123
	Zn13294	Zn	0.939474	0.180262	0.749122
	Zn13295	Zn	0.939706	0.325069	0.749137
	C13296	C	0.976987	0.752388	0.673234
	C13297	C	0.901417	0.752439	0.700028
	C13298	C	0.905744	0.752394	0.709240
	C13299	C	0.906674	0.690201	0.713623
	C13300	C	0.906874	0.814686	0.713614
	C13301	C	0.901436	0.253018	0.700044
	C13302	C	0.905785	0.253073	0.709251
	C13303	C	0.906931	0.190818	0.713613
	C13304	C	0.906780	0.315311	0.713647
	C13305	C	0.901478	0.752610	0.673259
	C13306	C	0.905729	0.752903	0.664042
	C13307	C	0.907066	0.815318	0.659694
	C13308	C	0.906399	0.690651	0.659649
	C13309	C	0.901446	0.252608	0.673221
	C13310	C	0.905690	0.252055	0.664011
	C13311	C	0.906359	0.314306	0.659610
	C13312	C	0.907019	0.189640	0.659682
	C13313	C	1.014222	0.043394	0.690007
	C13314	C	1.014213	0.962063	0.690016
	C13315	C	0.877492	0.043334	0.687318
	C13316	C	0.877496	0.962348	0.687323
	C13317	C	0.877967	0.043045	0.686044
	C13318	C	0.877938	0.962329	0.686074
	C13319	C	0.864958	0.462598	0.681937
	C13320	C	0.998704	0.461978	0.687795
	C13321	C	1.000389	0.462299	0.685001
	C13322	C	0.864951	0.543148	0.681944
	C13323	C	1.000447	0.543068	0.685005
	C13324	C	0.998764	0.543008	0.687802
	C13325	C	0.976812	0.752431	0.699956
	C13326	C	0.976795	0.252292	0.699913
	C13327	C	0.972252	0.752408	0.709151
	C13328	C	0.971237	0.690311	0.713548
	C13329	C	0.971297	0.814666	0.713529
	C13330	C	0.972382	0.252104	0.709125
	C13331	C	0.971517	0.189838	0.713516
	C13332	C	0.971270	0.314410	0.713491
	C13333	C	0.976788	0.252100	0.673272
	C13334	C	0.963811	0.751741	0.637482
	C13335	C	0.914174	0.753246	0.637515
	C13336	C	0.914592	0.752512	0.735774
	C13337	C	0.971066	0.689852	0.659690
	C13338	C	0.971896	0.814317	0.659599
	C13339	C	0.968317	0.751799	0.646680
	C13340	C	0.909746	0.753240	0.646713
	C13341	C	0.908462	0.690852	0.651071
	C13342	C	0.968846	0.689736	0.651120
	C13343	C	0.969673	0.814093	0.651021
	C13344	C	0.909139	0.815474	0.651116
	C13345	C	0.972558	0.752213	0.664021
	C13346	C	0.964134	0.752594	0.735716
	C13347	C	0.969186	0.690376	0.722131
	C13348	C	0.969218	0.814774	0.722106
	C13349	C	0.968283	0.752616	0.726499
	C13350	C	0.928014	0.462135	0.748511
	C13351	C	0.935825	0.462296	0.626988
	C13352	C	0.944237	0.462157	0.753131
	C13353	C	0.927997	0.543151	0.748494
	C13354	C	0.944187	0.543039	0.753129
	C13355	C	0.935797	0.543194	0.626952
	C13356	C	0.964120	0.252455	0.735688
	C13357	C	0.969451	0.190010	0.722096
	C13358	C	0.969238	0.314479	0.722068
	C13359	C	0.968357	0.252325	0.726475
	C13360	C	0.942341	0.042899	0.619494
	C13361	C	0.963702	0.252950	0.637523
	C13362	C	0.914127	0.251800	0.637471
	C13363	C	0.914660	0.252934	0.735771
	C13364	C	0.971683	0.190189	0.659642
	C13365	C	0.970950	0.314690	0.659709
	C13366	C	0.968115	0.252780	0.646718
	C13367	C	0.909761	0.251726	0.646681
	C13368	C	0.910027	0.752488	0.726576
	C13369	C	0.909101	0.814706	0.722189
	C13370	C	0.908875	0.690274	0.722200
	C13371	C	0.910182	0.252962	0.726572
	C13372	C	0.909002	0.315301	0.722220
	C13373	C	0.909152	0.190782	0.722187
	C13374	C	0.909102	0.189534	0.651103
	C13375	C	0.969528	0.190384	0.651066
	C13376	C	0.968768	0.314920	0.651131
	C13377	C	0.908415	0.314064	0.651036
	C13378	C	0.972378	0.252317	0.664055
	C13379	C	0.947133	0.043109	0.748749
	C13380	C	0.948984	0.043134	0.627422
	C13381	C	0.942284	0.962275	0.619515
	C13382	C	0.947151	0.962297	0.748744
	C13383	C	0.948942	0.962254	0.627421
	N13384	N	0.876686	0.070063	0.686642
	N13385	N	0.876689	0.935449	0.686650
	N13386	N	0.876800	0.435422	0.686609
	N13387	N	0.876770	0.569949	0.686620
	N13388	N	0.939827	0.435173	0.749130
	N13389	N	0.939759	0.569808	0.749128
	N13390	N	0.939699	0.069977	0.749126
	N13391	N	0.939754	0.935414	0.749113
	O13392	O	0.978711	0.695063	0.801785
	O13393	O	0.979137	0.812063	0.801736
	O13394	O	0.898697	0.693641	0.821440
	O13395	O	0.898841	0.810304	0.821433
	O13396	O	0.898805	0.195046	0.821525
	O13397	O	0.898572	0.311845	0.821474
	O13398	O	0.898463	0.693469	0.801710
	O13399	O	0.898868	0.810211	0.801755
	O13400	O	0.898967	0.195664	0.801782
	O13401	O	0.898479	0.312394	0.801728
	O13402	O	0.978866	0.695537	0.821509
	O13403	O	0.979265	0.812406	0.821534
	O13404	O	0.979324	0.192913	0.821609
	O13405	O	0.979025	0.309808	0.821602
	O13406	O	0.979161	0.192785	0.801797
	O13407	O	0.978511	0.309583	0.801825
	O13408	O	0.961724	0.694257	0.759020
	O13409	O	0.917048	0.693850	0.758960
	O13410	O	0.961044	0.695523	0.864283
	O13411	O	0.960884	0.812342	0.864275
	O13412	O	0.916528	0.693327	0.864217
	O13413	O	0.916255	0.810170	0.864194
	O13414	O	0.917338	0.810614	0.759029
	O13415	O	0.961948	0.811219	0.758957
	O13416	O	0.961811	0.193463	0.758993
	O13417	O	0.917180	0.194680	0.759042
	O13418	O	0.960898	0.192692	0.864305
	O13419	O	0.961218	0.309504	0.864311
	O13420	O	0.916268	0.195623	0.864214
	O13421	O	0.916553	0.312392	0.864251
	O13422	O	0.917123	0.311695	0.758983
	O13423	O	0.961641	0.310436	0.759077
	H13424	H	0.905522	0.641772	0.835089
	H13425	H	0.905573	0.861779	0.835138
	H13426	H	0.905178	0.143888	0.835206
	H13427	H	0.905800	0.364050	0.835111
	H13428	H	0.906235	0.861971	0.788137
	H13429	H	0.905286	0.642036	0.788022
	H13430	H	0.905086	0.363995	0.788017
	H13431	H	0.906246	0.143821	0.788125
	H13432	H	0.990678	0.064166	0.818586
	H13433	H	1.009281	0.063975	0.819163
	H13434	H	1.009291	0.940712	0.819130
	H13435	H	0.990698	0.941000	0.818582
	H13436	H	0.979800	0.064841	0.810295
	H13437	H	0.979760	0.940985	0.810258
	H13438	H	0.884764	0.064327	0.817598
	H13439	H	0.884753	0.941169	0.817617
	H13440	H	0.894630	0.064416	0.813178
	H13441	H	0.894625	0.940905	0.813191
	H13442	H	0.886900	0.064163	0.805984
	H13443	H	0.886849	0.940509	0.806000
	H13444	H	0.879471	0.441152	0.808431
	H13445	H	0.871442	0.440857	0.808648
	H13446	H	0.885623	0.441099	0.811720
	H13447	H	0.987945	0.440885	0.812931
	H13448	H	0.993216	0.441103	0.807695
	H13449	H	1.004358	0.441066	0.806957
	H13450	H	0.871349	0.564333	0.808642
	H13451	H	0.879392	0.564337	0.808422
	H13452	H	1.004397	0.564071	0.806969
	H13453	H	0.993257	0.564852	0.807719
	H13454	H	0.988090	0.564643	0.812915
	H13455	H	0.885592	0.564354	0.811662
	H13456	H	0.971773	0.644334	0.835176
	H13457	H	0.972635	0.864057	0.835200
	H13458	H	0.972048	0.141094	0.835213
	H13459	H	0.972429	0.361312	0.835229
	H13460	H	0.909619	0.642258	0.772588
	H13461	H	0.967999	0.642989	0.772728
	H13462	H	0.968747	0.863065	0.772585
	H13463	H	0.910467	0.862091	0.772701
	H13464	H	0.971754	0.643344	0.788170
	H13465	H	0.972701	0.863490	0.788044
	H13466	H	0.967523	0.644228	0.850612
	H13467	H	0.968331	0.864127	0.850663
	H13468	H	0.924923	0.440891	0.745596
	H13469	H	0.928293	0.441163	0.878081
	H13470	H	0.944053	0.440838	0.742880
	H13471	H	0.955866	0.440666	0.746227
	H13472	H	0.953682	0.440938	0.875531
	H13473	H	0.945539	0.440776	0.879095
	H13474	H	0.928293	0.564842	0.878049
	H13475	H	0.924890	0.564517	0.745593
	H13476	H	0.945557	0.564687	0.879074
	H13477	H	0.953695	0.564488	0.875534
	H13478	H	0.955770	0.564447	0.746221
	H13479	H	0.944059	0.564057	0.742868
	H13480	H	0.967772	0.141127	0.850666
	H13481	H	0.968289	0.361121	0.850653
	H13482	H	0.931431	0.064702	0.751844
	H13483	H	0.940279	0.064371	0.753162
	H13484	H	0.929775	0.063831	0.747288
	H13485	H	0.909668	0.861510	0.850567
	H13486	H	0.909670	0.641516	0.850522
	H13487	H	0.909814	0.364226	0.850573
	H13488	H	0.909149	0.144370	0.850668
	H13489	H	0.910541	0.143483	0.772701
	H13490	H	0.968608	0.141509	0.772641
	H13491	H	0.967526	0.361510	0.772757
	H13492	H	0.909398	0.363536	0.772561
	H13493	H	0.972475	0.141124	0.788101
	H13494	H	0.971295	0.361401	0.788186
	H13495	H	0.922108	0.064328	0.874983
	H13496	H	0.929607	0.064387	0.879086
	H13497	H	0.948352	0.064432	0.878713
	H13498	H	0.940337	0.940592	0.753152
	H13499	H	0.931520	0.940801	0.751874
	H13500	H	0.929751	0.941115	0.747271
	H13501	H	0.922161	0.940963	0.874939
	H13502	H	0.929689	0.940991	0.879034
	H13503	H	0.948241	0.940555	0.878693
	Zn13504	Zn	0.876179	0.680466	0.811629
	Zn13505	Zn	0.876526	0.825112	0.811581
	Zn13506	Zn	0.876607	0.180477	0.811563
	Zn13507	Zn	0.876098	0.325197	0.811635
	Zn13508	Zn	0.938878	0.680267	0.874118
	Zn13509	Zn	0.938236	0.824908	0.874104
	Zn13510	Zn	0.938216	0.180230	0.874128
	Zn13511	Zn	0.938912	0.325042	0.874151
	C13512	C	0.976387	0.753555	0.798270
	C13513	C	0.901194	0.751943	0.824962
	C13514	C	0.905654	0.751775	0.834164
	C13515	C	0.906653	0.689563	0.838523
	C13516	C	0.906667	0.813877	0.838553
	C13517	C	0.901126	0.253589	0.824990
	C13518	C	0.905377	0.253957	0.834196
	C13519	C	0.906299	0.191803	0.838610
	C13520	C	0.906621	0.316243	0.838550
	C13521	C	0.901220	0.751851	0.798235
	C13522	C	0.905646	0.751987	0.789032
	C13523	C	0.907006	0.814209	0.784690
	C13524	C	0.906492	0.689929	0.784623
	C13525	C	0.901251	0.254006	0.798252
	C13526	C	0.905588	0.254020	0.789037
	C13527	C	0.906361	0.316134	0.784613
	C13528	C	0.907042	0.191638	0.784690
	C13529	C	1.000423	0.042918	0.816973
	C13530	C	1.000446	0.962275	0.816964
	C13531	C	0.886242	0.043068	0.814384
	C13532	C	0.886217	0.962315	0.814397
	C13533	C	0.878446	0.042765	0.807122
	C13534	C	0.878429	0.961915	0.807135
	C13535	C	0.875599	0.462139	0.809352
	C13536	C	0.994157	0.462156	0.813729
	C13537	C	0.999385	0.462331	0.808463
	C13538	C	0.875564	0.543071	0.809348
	C13539	C	0.999402	0.543058	0.808472
	C13540	C	0.994193	0.542980	0.813746
	C13541	C	0.976591	0.754015	0.825032
	C13542	C	0.976635	0.251278	0.825096
	C13543	C	0.972079	0.754148	0.834248
	C13544	C	0.970830	0.691942	0.838620
	C13545	C	0.971279	0.816333	0.838633
	C13546	C	0.972309	0.251180	0.834289
	C13547	C	0.971188	0.188897	0.838654
	C13548	C	0.971419	0.313490	0.838656
	C13549	C	0.976325	0.251107	0.798308
	C13550	C	0.964215	0.752821	0.762500
	C13551	C	0.914618	0.752174	0.762500
	C13552	C	0.913929	0.751648	0.860705
	C13553	C	0.971068	0.691121	0.784708
	C13554	C	0.971528	0.815673	0.784632
	C13555	C	0.968368	0.753018	0.771721
	C13556	C	0.910116	0.752195	0.771702
	C13557	C	0.908762	0.689991	0.776047
	C13558	C	0.969118	0.690878	0.776128
	C13559	C	0.969583	0.815435	0.776051
	C13560	C	0.909280	0.814282	0.776115
	C13561	C	0.972210	0.753532	0.789046
	C13562	C	0.963440	0.753966	0.860781
	C13563	C	0.968684	0.691962	0.847194
	C13564	C	0.969109	0.816395	0.847214
	C13565	C	0.967830	0.754157	0.851577
	C13566	C	0.929420	0.462300	0.875452
	C13567	C	0.947296	0.462174	0.745762
	C13568	C	0.946824	0.462319	0.876487
	C13569	C	0.929441	0.543256	0.875443
	C13570	C	0.946791	0.543359	0.876480
	C13571	C	0.947266	0.542914	0.745749
	C13572	C	0.963570	0.251023	0.860814
	C13573	C	0.968963	0.188879	0.847228
	C13574	C	0.969219	0.313400	0.847226
	C13575	C	0.968011	0.251101	0.851598
	C13576	C	0.936866	0.043143	0.751610
	C13577	C	0.964117	0.251785	0.762541
	C13578	C	0.914503	0.253285	0.762495
	C13579	C	0.913861	0.254138	0.860726
	C13580	C	0.971432	0.189009	0.784684
	C13581	C	0.970777	0.313543	0.784740
	C13582	C	0.968251	0.251521	0.771763
	C13583	C	0.909973	0.253507	0.771707
	C13584	C	0.909681	0.751490	0.851500
	C13585	C	0.908738	0.813721	0.847126
	C13586	C	0.908756	0.689408	0.847098
	C13587	C	0.909512	0.254364	0.851513
	C13588	C	0.908721	0.316496	0.847125
	C13589	C	0.908393	0.191940	0.847187
	C13590	C	0.909255	0.191367	0.776118
	C13591	C	0.969417	0.189142	0.776106
	C13592	C	0.968789	0.313697	0.776164
	C13593	C	0.908589	0.315936	0.776036
	C13594	C	0.972106	0.251168	0.789089
	C13595	C	0.929132	0.042943	0.876259
	C13596	C	0.935113	0.042936	0.746997
	C13597	C	0.936918	0.961975	0.751605
	C13598	C	0.929169	0.962204	0.876235
	C13599	C	0.935125	0.962306	0.746993
	N13600	N	0.876537	0.069992	0.811563
	N13601	N	0.876456	0.935371	0.811582
	N13602	N	0.876074	0.435268	0.811638
	N13603	N	0.876059	0.569840	0.811635
	N13604	N	0.938980	0.435318	0.874168
	N13605	N	0.938982	0.569918	0.874139
	N13606	N	0.938216	0.070049	0.874144
	N13607	N	0.938225	0.935404	0.874138
	O13608	O	0.978895	0.694846	0.926770
	O13609	O	0.979076	0.811597	0.926788
	O13610	O	0.898586	0.694054	0.946535
	O13611	O	0.898573	0.810959	0.946525
	O13612	O	0.898466	0.194080	0.946514
	O13613	O	0.898459	0.310918	0.946518
	O13614	O	0.898324	0.693462	0.926765
	O13615	O	0.898415	0.810356	0.926772
	O13616	O	0.898368	0.194885	0.926747
	O13617	O	0.898391	0.311721	0.926776
	O13618	O	0.978798	0.695043	0.946526
	O13619	O	0.979333	0.811793	0.946530
	O13620	O	0.979122	0.193717	0.946508
	O13621	O	0.978833	0.310415	0.946466
	O13622	O	0.979214	0.193363	0.926702
	O13623	O	0.979017	0.310104	0.926673
	O13624	O	0.961169	0.695608	0.884008
	O13625	O	0.916649	0.692770	0.884058
	O13626	O	0.961422	0.694759	0.989229
	O13627	O	0.961448	0.811537	0.989293
	O13628	O	0.916794	0.694004	0.989251
	O13629	O	0.916772	0.811032	0.989231
	O13630	O	0.916107	0.809790	0.883993
	O13631	O	0.960542	0.812407	0.884011
	O13632	O	0.960707	0.193170	0.883943
	O13633	O	0.915951	0.195380	0.883973
	O13634	O	0.961462	0.194629	0.989282
	O13635	O	0.961074	0.311401	0.989220
	O13636	O	0.916826	0.194034	0.989260
	O13637	O	0.916649	0.310728	0.989275
	O13638	O	0.916543	0.312254	0.884017
	O13639	O	0.961422	0.309937	0.883940
	H13640	H	0.905644	0.642168	0.960185
	H13641	H	0.905710	0.862576	0.960152
	H13642	H	0.905833	0.142557	0.960181
	H13643	H	0.905371	0.362290	0.960162
	H13644	H	0.904929	0.861882	0.913092
	H13645	H	0.905593	0.641783	0.913130
	H13646	H	0.905440	0.363312	0.913119
	H13647	H	0.905539	0.143341	0.913111
	H13648	H	1.006352	0.064170	0.930826
	H13649	H	0.992333	0.064431	0.931527
	H13650	H	0.992325	0.940449	0.931517
	H13651	H	1.006516	0.940665	0.930797
	H13652	H	1.018345	0.064393	0.936328
	H13653	H	1.018547	0.941513	0.936354
	H13654	H	0.881748	0.064444	0.940583
	H13655	H	0.881773	0.941253	0.940600
	H13656	H	0.888112	0.064214	0.937668
	H13657	H	0.888217	0.940894	0.937646
	H13658	H	0.882909	0.064203	0.932929
	H13659	H	0.882941	0.940841	0.932926
	H13660	H	0.878832	0.441019	0.937409
	H13661	H	0.879307	0.440876	0.936389
	H13662	H	0.875078	0.440892	0.937869
	H13663	H	1.003994	0.440317	0.932504
	H13664	H	1.012906	0.440744	0.936184
	H13665	H	1.009669	0.440587	0.939604
	H13666	H	0.879201	0.564276	0.936405
	H13667	H	0.878711	0.564416	0.937379
	H13668	H	1.009629	0.564132	0.939581
	H13669	H	1.012959	0.564186	0.936240
	H13670	H	1.003889	0.564398	0.932486
	H13671	H	0.875065	0.564600	0.937877
	H13672	H	0.971798	0.643544	0.960150
	H13673	H	0.972631	0.863606	0.960198
	H13674	H	0.972802	0.142601	0.960209
	H13675	H	0.971689	0.362552	0.960093
	H13676	H	0.909896	0.641564	0.897695
	H13677	H	0.968228	0.644275	0.897638
	H13678	H	0.967556	0.864061	0.897703
	H13679	H	0.909159	0.861737	0.897665
	H13680	H	0.972410	0.643914	0.913076
	H13681	H	0.971900	0.863777	0.913135
	H13682	H	0.967795	0.643497	0.975583
	H13683	H	0.968524	0.863488	0.975655
	H13684	H	0.923743	0.441069	0.873750
	H13685	H	0.930607	0.440509	0.993789
	H13686	H	0.934930	0.440979	0.868885
	H13687	H	0.947530	0.441149	0.869639
	H13688	H	0.930534	0.441006	1.004463
	H13689	H	0.922257	0.440884	1.000238
	H13690	H	0.930722	0.564345	0.993810
	H13691	H	0.923740	0.564344	0.873754
	H13692	H	0.922346	0.564488	1.000209
	H13693	H	0.930632	0.564016	1.004481
	H13694	H	0.947568	0.564602	0.869638
	H13695	H	0.934916	0.564164	0.868861
	H13696	H	0.968713	0.142901	0.975634
	H13697	H	0.967576	0.362846	0.975550
	H13698	H	0.944343	0.064141	0.868693
	H13699	H	0.930612	0.064302	0.868936
	H13700	H	0.954598	0.064106	0.874356
	H13701	H	0.909790	0.862609	0.975593
	H13702	H	0.909727	0.642231	0.975627
	H13703	H	0.909605	0.362341	0.975607
	H13704	H	0.910037	0.142407	0.975592
	H13705	H	0.909495	0.143454	0.897661
	H13706	H	0.968027	0.141199	0.897620
	H13707	H	0.968093	0.361154	0.897619
	H13708	H	0.909491	0.363375	0.897667
	H13709	H	0.972133	0.141395	0.913057
	H13710	H	0.972189	0.361336	0.913060
	H13711	H	0.947109	0.064694	1.003048
	H13712	H	0.952707	0.063862	0.999484
	H13713	H	0.944549	0.063933	0.994657
	H13714	H	0.930571	0.940794	0.869015
	H13715	H	0.944205	0.940998	0.868726
	H13716	H	0.954373	0.940674	0.874324
	H13717	H	0.947028	0.940655	1.003010
	H13718	H	0.952576	0.940792	0.999457
	H13719	H	0.944507	0.940450	0.994648
	Zn13720	Zn	0.875956	0.680024	0.936690
	Zn13721	Zn	0.876275	0.825145	0.936625
	Zn13722	Zn	0.876223	0.179974	0.936633
	Zn13723	Zn	0.876068	0.325058	0.936678
	Zn13724	Zn	0.939341	0.679937	0.999103
	Zn13725	Zn	0.938977	0.825143	0.999137
	Zn13726	Zn	0.939112	0.180113	0.999149
	Zn13727	Zn	0.938987	0.325170	0.999135
	C13728	C	0.976493	0.753313	0.923275
	C13729	C	0.901154	0.752479	0.950016
	C13730	C	0.905495	0.752360	0.959234
	C13731	C	0.906509	0.690009	0.963615
	C13732	C	0.906578	0.814734	0.963593
	C13733	C	0.900952	0.252476	0.950018
	C13734	C	0.905436	0.252435	0.959226
	C13735	C	0.906624	0.190325	0.963612
	C13736	C	0.906388	0.314582	0.963609
	C13737	C	0.900830	0.751850	0.923264
	C13738	C	0.905383	0.751737	0.914059
	C13739	C	0.906149	0.814047	0.909674
	C13740	C	0.906534	0.689470	0.909685
	C13741	C	0.900907	0.253357	0.923262
	C13742	C	0.905301	0.253378	0.914057
	C13743	C	0.906343	0.315526	0.909686
	C13744	C	0.906375	0.191135	0.909682
	C13745	C	0.999909	0.043002	0.932619
	C13746	C	0.999968	0.961885	0.932587
	C13747	C	0.882627	0.043132	0.938461
	C13748	C	0.882676	0.962325	0.938462
	C13749	C	0.877334	0.042896	0.933693
	C13750	C	0.877386	0.962235	0.933699
	C13751	C	0.878223	0.462293	0.936851
	C13752	C	0.999590	0.461887	0.933826
	C13753	C	1.008573	0.462025	0.937554
	C13754	C	0.878197	0.543076	0.936859
	C13755	C	1.008594	0.542770	0.937576
	C13756	C	0.999577	0.542985	0.933845
	C13757	C	0.976542	0.753539	0.950025
	C13758	C	0.976585	0.252124	0.950004
	C13759	C	0.972202	0.753578	0.959234
	C13760	C	0.970937	0.691377	0.963593
	C13761	C	0.971414	0.815817	0.963622
	C13762	C	0.972269	0.252488	0.959207
	C13763	C	0.971579	0.190447	0.963612
	C13764	C	0.970971	0.314795	0.963561
	C13765	C	0.976636	0.251623	0.923179
	C13766	C	0.963294	0.754122	0.887522
	C13767	C	0.913926	0.751346	0.887527
	C13768	C	0.914277	0.752471	0.985749
	C13769	C	0.971251	0.691750	0.909653
	C13770	C	0.970919	0.816057	0.909683
	C13771	C	0.967763	0.754149	0.896722
	C13772	C	0.909458	0.751614	0.896730
	C13773	C	0.908654	0.689386	0.901110
	C13774	C	0.969044	0.691950	0.901086
	C13775	C	0.968695	0.816294	0.901110
	C13776	C	0.908289	0.813954	0.901102
	C13777	C	0.972070	0.753750	0.914055
	C13778	C	0.963933	0.753261	0.985760
	C13779	C	0.968905	0.691245	0.972166
	C13780	C	0.969343	0.815751	0.972198
	C13781	C	0.968124	0.753410	0.976554
	C13782	C	0.938181	0.461992	0.995023
	C13783	C	0.940631	0.462162	0.870551
	C13784	C	0.929750	0.462291	1.001494
	C13785	C	0.938250	0.542868	0.995009
	C13786	C	0.929816	0.542931	1.001496
	C13787	C	0.940644	0.542922	0.870540
	C13788	C	0.963746	0.252953	0.985745
	C13789	C	0.969494	0.190699	0.972188
	C13790	C	0.968884	0.314964	0.972141
	C13791	C	0.968171	0.252864	0.976550
	C13792	C	0.937660	0.042984	0.870229
	C13793	C	0.963567	0.251401	0.887445
	C13794	C	0.913789	0.253831	0.887509
	C13795	C	0.914249	0.252380	0.985757
	C13796	C	0.971138	0.189061	0.909619
	C13797	C	0.971172	0.313504	0.909624
	C13798	C	0.967945	0.251177	0.896660
	C13799	C	0.909509	0.253505	0.896726
	C13800	C	0.909813	0.752385	0.976542
	C13801	C	0.908817	0.814761	0.972165
	C13802	C	0.908720	0.689982	0.972185
	C13803	C	0.909724	0.252402	0.976565
	C13804	C	0.908610	0.314589	0.972185
	C13805	C	0.908844	0.190310	0.972182
	C13806	C	0.908495	0.191205	0.901102
	C13807	C	0.968988	0.189037	0.901041
	C13808	C	0.969033	0.313353	0.901047
	C13809	C	0.908517	0.315615	0.901109
	C13810	C	0.972176	0.251329	0.913990
	C13811	C	0.947038	0.042977	1.000689
	C13812	C	0.947955	0.043121	0.875899
	C13813	C	0.937668	0.962095	0.870247
	C13814	C	0.946987	0.962066	1.000681
	C13815	C	0.947927	0.962053	0.875878
	N13816	N	0.876133	0.069982	0.936644
	N13817	N	0.876186	0.935444	0.936660
	N13818	N	0.876000	0.435390	0.936700
	N13819	N	0.875991	0.569951	0.936713
	N13820	N	0.939231	0.435354	0.999158
	N13821	N	0.939305	0.569860	0.999148
	N13822	N	0.939177	0.069780	0.999097
	N13823	N	0.939103	0.935181	0.999089
