data_Molecule from HDF5

_cell_length_a		68.485858
_cell_length_b		19.184332
_cell_length_c		156.051254
_cell_angle_alpha	89.997868
_cell_angle_beta	92.629671
_cell_angle_gamma	89.996650
_symmetry_space_group_name_H-M	'P 1'
_symmetry_Int_Tables_number		1

loop_
	_symmetry_equiv_pos_as_xyz
	x,y,z

loop_
	_atom_site_label
	_atom_site_type_symbol
	_atom_site_fract_x
	_atom_site_fract_y
	_atom_site_fract_z
	O0	O	0.080825	0.694481	0.056168
	O1	O	0.080624	0.811395	0.056219
	O2	O	0.014322	0.694088	0.073949
	O3	O	0.014709	0.810808	0.073888
	O4	O	0.014488	0.195485	0.073900
	O5	O	0.014263	0.312208	0.073961
	O6	O	0.015057	0.693950	0.053250
	O7	O	0.015075	0.810591	0.053203
	O8	O	0.015141	0.195063	0.053221
	O9	O	0.015071	0.311581	0.053252
	O10	O	0.082425	0.694461	0.077846
	O11	O	0.082714	0.810839	0.077932
	O12	O	0.082519	0.195146	0.077790
	O13	O	0.082708	0.311524	0.077814
	O14	O	0.080839	0.194832	0.056183
	O15	O	0.080772	0.311851	0.056160
	O16	O	0.077458	0.695406	0.011422
	O17	O	0.039450	0.693918	0.010233
	O18	O	0.055886	0.694405	0.120323
	O19	O	0.056017	0.811102	0.120337
	O20	O	0.018063	0.695094	0.118646
	O21	O	0.018129	0.811821	0.118674
	O22	O	0.039122	0.810645	0.010218
	O23	O	0.077043	0.812221	0.011438
	O24	O	0.077222	0.194412	0.011412
	O25	O	0.039046	0.195206	0.010194
	O26	O	0.055985	0.195012	0.120293
	O27	O	0.056173	0.311869	0.120318
	O28	O	0.018168	0.194738	0.118607
	O29	O	0.018087	0.311486	0.118649
	O30	O	0.039255	0.312070	0.010229
	O31	O	0.077268	0.311176	0.011427
	H32	H	0.016800	0.643084	0.088298
	H33	H	0.017309	0.862445	0.088242
	H34	H	0.017573	0.143906	0.088207
	H35	H	0.016666	0.363297	0.088360
	H36	H	0.023084	0.861809	0.039414
	H37	H	0.022887	0.642410	0.039415
	H38	H	0.023420	0.363200	0.039485
	H39	H	0.022817	0.143968	0.039419
	H40	H	0.093022	0.065058	0.067763
	H41	H	0.095790	0.065093	0.069201
	H42	H	0.095709	0.941729	0.069149
	H43	H	0.092965	0.941406	0.067705
	H44	H	0.094942	0.064990	0.065366
	H45	H	0.094852	0.941307	0.065350
	H46	H	-0.017520	0.064646	0.064790
	H47	H	-0.017647	0.941538	0.064828
	H48	H	-0.009233	0.064748	0.068962
	H49	H	-0.009187	0.941502	0.069026
	H50	H	0.007298	0.064793	0.067688
	H51	H	0.007277	0.941077	0.067680
	H52	H	-0.012348	0.441828	0.069398
	H53	H	0.001754	0.441213	0.070242
	H54	H	-0.020515	0.441537	0.061468
	H55	H	0.097480	0.441385	0.068331
	H56	H	0.095411	0.441773	0.067273
	H57	H	0.095987	0.441549	0.066346
	H58	H	0.001749	0.565269	0.070254
	H59	H	-0.012416	0.564964	0.069384
	H60	H	0.095974	0.564890	0.066425
	H61	H	0.095260	0.564920	0.067310
	H62	H	0.097388	0.565368	0.068416
	H63	H	-0.020530	0.564738	0.061476
	H64	H	0.075299	0.643270	0.091668
	H65	H	0.075442	0.861695	0.091675
	H66	H	0.075042	0.144094	0.091605
	H67	H	0.075233	0.362355	0.091562
	H68	H	0.029907	0.642439	0.023830
	H69	H	0.080135	0.643634	0.025765
	H70	H	0.079488	0.863603	0.025871
	H71	H	0.030129	0.861641	0.023860
	H72	H	0.079426	0.643269	0.041758
	H73	H	0.078783	0.862796	0.041895
	H74	H	0.066935	0.643299	0.107081
	H75	H	0.067009	0.861978	0.107091
	H76	H	0.056184	0.441211	0.003848
	H77	H	0.032108	0.441213	0.131642
	H78	H	0.051043	0.441092	0.000381
	H79	H	0.053991	0.441256	-0.002230
	H80	H	0.040898	0.441898	0.129886
	H81	H	0.038610	0.441519	0.131743
	H82	H	0.032099	0.564937	0.131650
	H83	H	0.056256	0.564857	0.003853
	H84	H	0.038561	0.564636	0.131746
	H85	H	0.040772	0.564650	0.129951
	H86	H	0.054089	0.564649	-0.002214
	H87	H	0.051157	0.564945	0.000410
	H88	H	0.066791	0.144031	0.107055
	H89	H	0.066956	0.362789	0.107028
	H90	H	0.060113	0.064441	-0.002830
	H91	H	0.053629	0.065065	-0.002125
	H92	H	0.066744	0.064742	0.000159
	H93	H	0.016618	0.862943	0.104264
	H94	H	0.016168	0.643380	0.104275
	H95	H	0.016044	0.362849	0.104350
	H96	H	0.017059	0.143343	0.104220
	H97	H	0.029693	0.143841	0.023806
	H98	H	0.079601	0.142607	0.025810
	H99	H	0.080115	0.362476	0.025789
	H100	H	0.030330	0.363378	0.023899
	H101	H	0.078784	0.143080	0.041847
	H102	H	0.079297	0.362529	0.041776
	H103	H	0.029025	0.064816	0.125941
	H104	H	0.024888	0.065039	0.129271
	H105	H	0.031438	0.065096	0.133884
	H106	H	0.053605	0.941337	-0.002236
	H107	H	0.060204	0.941851	-0.002853
	H108	H	0.066780	0.941250	0.000179
	H109	H	0.029025	0.941987	0.125927
	H110	H	0.024955	0.941286	0.129281
	H111	H	0.031565	0.941210	0.133886
	Zn112	Zn	-0.003882	0.680666	0.063122
	Zn113	Zn	-0.003560	0.825145	0.063098
	Zn114	Zn	-0.003566	0.180711	0.063101
	Zn115	Zn	-0.003874	0.325248	0.063105
	Zn116	Zn	0.035314	0.680595	0.129686
	Zn117	Zn	0.035465	0.825965	0.129676
	Zn118	Zn	0.035437	0.180503	0.129677
	Zn119	Zn	0.035367	0.325528	0.129660
	C120	C	0.079772	0.752995	0.052458
	C121	C	0.015779	0.752520	0.077641
	C122	C	0.017234	0.752747	0.087302
	C123	C	0.016831	0.690798	0.091846
	C124	C	0.017090	0.814927	0.091820
	C125	C	0.015733	0.253786	0.077648
	C126	C	0.017291	0.253687	0.087316
	C127	C	0.017304	0.191353	0.091803
	C128	C	0.016781	0.315538	0.091889
	C129	C	0.017677	0.752132	0.049707
	C130	C	0.022827	0.752038	0.040416
	C131	C	0.024652	0.814037	0.035969
	C132	C	0.024514	0.690098	0.035962
	C133	C	0.017724	0.253403	0.049709
	C134	C	0.022968	0.253507	0.040421
	C135	C	0.024898	0.315594	0.036005
	C136	C	0.024582	0.191525	0.035960
	C137	C	0.095241	0.043783	0.068144
	C138	C	0.095205	0.962751	0.068132
	C139	C	-0.010784	0.043393	0.065905
	C140	C	-0.010784	0.962763	0.065926
	C141	C	0.005806	0.043504	0.064605
	C142	C	0.005831	0.962613	0.064611
	C143	C	-0.004941	0.462750	0.068064
	C144	C	0.098351	0.462690	0.067965
	C145	C	0.096248	0.462941	0.066921
	C146	C	-0.004946	0.543540	0.068066
	C147	C	0.096183	0.543449	0.066932
	C148	C	0.098296	0.543711	0.067991
	C149	C	0.080471	0.752564	0.081465
	C150	C	0.080445	0.253292	0.081382
	C151	C	0.075520	0.752496	0.090730
	C152	C	0.073497	0.690689	0.095111
	C153	C	0.073544	0.814364	0.095117
	C154	C	0.075434	0.253268	0.090668
	C155	C	0.073321	0.191510	0.095059
	C156	C	0.073434	0.315097	0.095037
	C157	C	0.079795	0.253244	0.052439
	C158	C	0.078532	0.753834	0.015154
	C159	C	0.036328	0.752176	0.013683
	C160	C	0.017109	0.753499	0.114923
	C161	C	0.079409	0.691120	0.038211
	C162	C	0.079049	0.815382	0.038290
	C163	C	0.080014	0.753770	0.024822
	C164	C	0.030314	0.752009	0.022862
	C165	C	0.028296	0.690080	0.027291
	C166	C	0.079891	0.691437	0.029326
	C167	C	0.079523	0.815679	0.029399
	C168	C	0.028407	0.813981	0.027301
	C169	C	0.078845	0.753088	0.042781
	C170	C	0.059348	0.752740	0.117000
	C171	C	0.068966	0.690825	0.103680
	C172	C	0.068976	0.814429	0.103682
	C173	C	0.066498	0.752685	0.108032
	C174	C	0.031995	0.462484	0.130471
	C175	C	0.054290	0.462489	-0.000506
	C176	C	0.038493	0.462798	0.130504
	C177	C	0.031987	0.543544	0.130478
	C178	C	0.038463	0.543332	0.130535
	C179	C	0.054325	0.543336	-0.000510
	C180	C	0.059415	0.253452	0.116973
	C181	C	0.068832	0.191524	0.103640
	C182	C	0.068924	0.315292	0.103619
	C183	C	0.066471	0.253468	0.107987
	C184	C	0.057415	0.043534	-0.001671
	C185	C	0.078520	0.252751	0.015143
	C186	C	0.036238	0.253644	0.013665
	C187	C	0.017199	0.253177	0.114890
	C188	C	0.078996	0.190605	0.038244
	C189	C	0.079306	0.314808	0.038214
	C190	C	0.079953	0.252580	0.024805
	C191	C	0.030398	0.253637	0.022866
	C192	C	0.016107	0.753241	0.105250
	C193	C	0.016587	0.815218	0.100707
	C194	C	0.016350	0.691043	0.100725
	C195	C	0.016250	0.253073	0.105251
	C196	C	0.016316	0.315240	0.100765
	C197	C	0.016862	0.191118	0.100683
	C198	C	0.028289	0.191581	0.027277
	C199	C	0.079483	0.190389	0.029354
	C200	C	0.079805	0.314704	0.029336
	C201	C	0.028611	0.315613	0.027329
	C202	C	0.078770	0.252822	0.042759
	C203	C	0.029167	0.043818	0.128151
	C204	C	0.063998	0.043686	0.001320
	C205	C	0.057422	0.962799	-0.001701
	C206	C	0.029200	0.962957	0.128154
	C207	C	0.064028	0.962633	0.001318
	N208	N	-0.003534	0.070346	0.063117
	N209	N	-0.003541	0.935686	0.063142
	N210	N	-0.003895	0.435627	0.063142
	N211	N	-0.003898	0.570269	0.063149
	N212	N	0.035159	0.435818	0.129642
	N213	N	0.035130	0.570399	0.129675
	N214	N	0.035386	0.070512	0.129703
	N215	N	0.035404	0.936047	0.129668
	O216	O	0.127070	0.694943	0.172815
	O217	O	0.127194	0.811259	0.172805
	O218	O	-0.004142	0.695197	0.201193
	O219	O	-0.004347	0.811360	0.201230
	O220	O	-0.004192	0.194631	0.201270
	O221	O	-0.004175	0.310940	0.201226
	O222	O	-0.006395	0.694468	0.182852
	O223	O	-0.006271	0.811174	0.182897
	O224	O	-0.006466	0.194579	0.182807
	O225	O	-0.006511	0.311261	0.182773
	O226	O	0.129454	0.694581	0.191168
	O227	O	0.129453	0.811304	0.191190
	O228	O	0.129532	0.194463	0.191200
	O229	O	0.129571	0.311232	0.191211
	O230	O	0.127172	0.194771	0.172849
	O231	O	0.127251	0.310958	0.172798
	O232	O	0.058387	0.694940	0.138676
	O233	O	0.019744	0.695116	0.140277
	O234	O	0.103147	0.694662	0.233668
	O235	O	0.103008	0.811034	0.233659
	O236	O	0.064677	0.695058	0.235347
	O237	O	0.064604	0.811214	0.235339
	O238	O	0.020093	0.811497	0.140353
	O239	O	0.058362	0.811227	0.138723
	O240	O	0.058481	0.194987	0.138677
	O241	O	0.020041	0.194650	0.140315
	O242	O	0.103095	0.194557	0.233667
	O243	O	0.103348	0.310947	0.233727
	O244	O	0.064720	0.195052	0.235275
	O245	O	0.064835	0.311301	0.235298
	O246	O	0.019940	0.311049	0.140302
	O247	O	0.058183	0.311072	0.138747
	H248	H	0.018094	0.645560	0.212093
	H249	H	0.017744	0.861059	0.212173
	H250	H	0.017817	0.144685	0.212105
	H251	H	0.018140	0.361763	0.212142
	H252	H	0.004780	0.862380	0.169670
	H253	H	0.004412	0.643724	0.169544
	H254	H	0.004458	0.362514	0.169547
	H255	H	0.004487	0.143680	0.169544
	H256	H	0.153110	0.065092	0.181655
	H257	H	0.151704	0.065112	0.180782
	H258	H	0.151785	0.941406	0.180784
	H259	H	0.153218	0.941236	0.181691
	H260	H	0.151799	0.064757	0.183062
	H261	H	0.151779	0.940859	0.183031
	H262	H	-0.030112	0.064751	0.191839
	H263	H	-0.030078	0.941508	0.191856
	H264	H	-0.029550	0.064703	0.192930
	H265	H	-0.029629	0.941031	0.192881
	H266	H	-0.026291	0.064665	0.193462
	H267	H	-0.026339	0.940849	0.193439
	H268	H	-0.025387	0.441577	0.192567
	H269	H	-0.025346	0.441423	0.191833
	H270	H	-0.027271	0.441389	0.192987
	H271	H	0.153982	0.441406	0.184936
	H272	H	0.144944	0.441146	0.184289
	H273	H	0.142378	0.441061	0.181513
	H274	H	-0.025364	0.564561	0.191859
	H275	H	-0.025335	0.564811	0.192576
	H276	H	0.142301	0.564835	0.181509
	H277	H	0.144890	0.564322	0.184299
	H278	H	0.153979	0.564407	0.184916
	H279	H	-0.027252	0.565043	0.192998
	H280	H	0.118686	0.643435	0.204468
	H281	H	0.118626	0.862289	0.204444
	H282	H	0.118276	0.143586	0.204392
	H283	H	0.119139	0.362529	0.204507
	H284	H	0.012532	0.644056	0.154089
	H285	H	0.080509	0.644751	0.149591
	H286	H	0.080717	0.861114	0.149524
	H287	H	0.012919	0.862654	0.154209
	H288	H	0.104807	0.644737	0.161988
	H289	H	0.104967	0.861134	0.161935
	H290	H	0.110423	0.643539	0.219901
	H291	H	0.110435	0.862274	0.219890
	H292	H	0.029647	0.441212	0.129857
	H293	H	0.076983	0.441282	0.243437
	H294	H	0.032661	0.441083	0.127395
	H295	H	0.037423	0.441550	0.127414
	H296	H	0.092006	0.441212	0.248893
	H297	H	0.082716	0.441508	0.248498
	H298	H	0.076909	0.564272	0.243433
	H299	H	0.029707	0.564948	0.129874
	H300	H	0.082646	0.564233	0.248495
	H301	H	0.091978	0.564202	0.248935
	H302	H	0.037460	0.564484	0.127460
	H303	H	0.032681	0.564760	0.127415
	H304	H	0.110031	0.143523	0.219829
	H305	H	0.110889	0.362570	0.219970
	H306	H	0.045809	0.064659	0.129305
	H307	H	0.041106	0.064536	0.125886
	H308	H	0.040225	0.064776	0.133845
	H309	H	0.042174	0.860687	0.224519
	H310	H	0.042563	0.645508	0.224402
	H311	H	0.042512	0.361637	0.224477
	H312	H	0.042277	0.144721	0.224460
	H313	H	0.012821	0.143833	0.154129
	H314	H	0.080595	0.145064	0.149622
	H315	H	0.080569	0.361000	0.149550
	H316	H	0.012823	0.362288	0.154117
	H317	H	0.104891	0.144823	0.161991
	H318	H	0.104859	0.360825	0.161918
	H319	H	0.078673	0.064868	0.245111
	H320	H	0.083713	0.064345	0.247953
	H321	H	0.094318	0.064547	0.247352
	H322	H	0.041084	0.941797	0.125901
	H323	H	0.045896	0.941748	0.129270
	H324	H	0.040321	0.941448	0.133836
	H325	H	0.078603	0.941379	0.245148
	H326	H	0.083665	0.940995	0.247954
	H327	H	0.094277	0.941170	0.247400
	Zn328	Zn	-0.027021	0.680549	0.192238
	Zn329	Zn	-0.027128	0.825656	0.192150
	Zn330	Zn	-0.027021	0.180592	0.192206
	Zn331	Zn	-0.027064	0.325570	0.192165
	Zn332	Zn	0.087689	0.680608	0.244344
	Zn333	Zn	0.087641	0.825247	0.244342
	Zn334	Zn	0.087579	0.180574	0.244305
	Zn335	Zn	0.087772	0.325336	0.244306
	C336	C	0.121216	0.753113	0.170044
	C337	C	0.001672	0.753348	0.203986
	C338	C	0.016578	0.753399	0.211339
	C339	C	0.023497	0.692314	0.214839
	C340	C	0.023327	0.814264	0.214889
	C341	C	0.001710	0.252909	0.204021
	C342	C	0.016611	0.253125	0.211357
	C343	C	0.023382	0.191768	0.214850
	C344	C	0.023521	0.314567	0.214867
	C345	C	-0.002971	0.752871	0.179530
	C346	C	0.003981	0.753021	0.170521
	C347	C	0.006524	0.814965	0.166206
	C348	C	0.006303	0.691240	0.166128
	C349	C	-0.003094	0.252893	0.179462
	C350	C	0.003875	0.253036	0.170463
	C351	C	0.006340	0.314923	0.166120
	C352	C	0.006367	0.191236	0.166126
	C353	C	0.151911	0.043826	0.181396
	C354	C	0.151955	0.962677	0.181405
	C355	C	-0.029177	0.043314	0.192318
	C356	C	-0.029198	0.962523	0.192309
	C357	C	-0.025863	0.043360	0.192849
	C358	C	-0.025886	0.962456	0.192837
	C359	C	-0.025848	0.462739	0.192200
	C360	C	0.154539	0.462365	0.183289
	C361	C	0.145397	0.462587	0.182631
	C362	C	-0.025833	0.543439	0.192205
	C363	C	0.145401	0.543397	0.182625
	C364	C	0.154525	0.543194	0.183292
	C365	C	0.126120	0.752912	0.194527
	C366	C	0.126175	0.252852	0.194543
	C367	C	0.119128	0.752967	0.203541
	C368	C	0.116690	0.690950	0.207885
	C369	C	0.116628	0.814885	0.207874
	C370	C	0.119154	0.253003	0.203531
	C371	C	0.116510	0.191050	0.207842
	C372	C	0.116971	0.314984	0.207907
	C373	C	0.121295	0.252864	0.170055
	C374	C	0.064263	0.753038	0.141473
	C375	C	0.017869	0.753258	0.143908
	C376	C	0.058721	0.753110	0.232572
	C377	C	0.099371	0.691659	0.159233
	C378	C	0.099493	0.814149	0.159192
	C379	C	0.079097	0.752878	0.148838
	C380	C	0.012820	0.753384	0.153183
	C381	C	0.010743	0.691419	0.157547
	C382	C	0.085892	0.691689	0.152362
	C383	C	0.085976	0.814043	0.152333
	C384	C	0.010953	0.815164	0.157623
	C385	C	0.106246	0.752910	0.162725
	C386	C	0.105206	0.752874	0.230096
	C387	C	0.112238	0.690936	0.216466
	C388	C	0.112206	0.814838	0.216456
	C389	C	0.110199	0.752914	0.220842
	C390	C	0.081731	0.462753	0.242431
	C391	C	0.035052	0.462735	0.127998
	C392	C	0.087550	0.462448	0.247548
	C393	C	0.081710	0.543339	0.242457
	C394	C	0.087499	0.543196	0.247563
	C395	C	0.035069	0.543606	0.128031
	C396	C	0.105296	0.252806	0.230118
	C397	C	0.112000	0.191072	0.216417
	C398	C	0.112485	0.314995	0.216489
	C399	C	0.110216	0.253003	0.220837
	C400	C	0.041329	0.043518	0.128153
	C401	C	0.064262	0.253085	0.141487
	C402	C	0.017903	0.252866	0.143890
	C403	C	0.058851	0.253172	0.232509
	C404	C	0.099525	0.191778	0.159221
	C405	C	0.099478	0.313938	0.159192
	C406	C	0.079167	0.253082	0.148840
	C407	C	0.012892	0.253019	0.153161
	C408	C	0.043803	0.753059	0.225224
	C409	C	0.036824	0.814061	0.221755
	C410	C	0.037027	0.692201	0.221694
	C411	C	0.043893	0.253072	0.225188
	C412	C	0.037042	0.314502	0.221726
	C413	C	0.036897	0.191733	0.221709
	C414	C	0.010905	0.191209	0.157556
	C415	C	0.086016	0.191909	0.152359
	C416	C	0.085973	0.314084	0.152329
	C417	C	0.010895	0.314909	0.157550
	C418	C	0.106368	0.252823	0.162712
	C419	C	0.082950	0.043389	0.245957
	C420	C	0.035710	0.043641	0.132777
	C421	C	0.041338	0.962844	0.128133
	C422	C	0.082922	0.962450	0.245969
	C423	C	0.035760	0.962622	0.132764
	N424	N	-0.027221	0.070330	0.192184
	N425	N	-0.027250	0.935790	0.192169
	N426	N	-0.027130	0.435569	0.192168
	N427	N	-0.027079	0.570105	0.192178
	N428	N	0.087947	0.435602	0.244333
	N429	N	0.087877	0.570253	0.244338
	N430	N	0.087822	0.070270	0.244289
	N431	N	0.087835	0.935617	0.244318
	O432	O	0.108036	0.692776	0.300036
	O433	O	0.107350	0.809518	0.300085
	O434	O	0.042421	0.694691	0.317865
	O435	O	0.042482	0.811644	0.317830
	O436	O	0.042458	0.194094	0.317861
	O437	O	0.042619	0.310954	0.317828
	O438	O	0.040585	0.694808	0.296194
	O439	O	0.040327	0.811318	0.296145
	O440	O	0.040351	0.194588	0.296134
	O441	O	0.040562	0.311095	0.296179
	O442	O	0.107821	0.692658	0.321057
	O443	O	0.107313	0.809284	0.320914
	O444	O	0.107247	0.195455	0.320929
	O445	O	0.107748	0.312019	0.321015
	O446	O	0.107377	0.195606	0.300096
	O447	O	0.108050	0.312476	0.300054
	O448	O	0.105261	0.694901	0.255284
	O449	O	0.067327	0.694347	0.253758
	O450	O	0.083255	0.694624	0.363979
	O451	O	0.083034	0.811465	0.363853
	O452	O	0.045224	0.694218	0.362598
	O453	O	0.045087	0.810909	0.362582
	O454	O	0.067031	0.811109	0.253697
	O455	O	0.104877	0.811646	0.255379
	O456	O	0.104745	0.194761	0.255399
	O457	O	0.067023	0.194665	0.253670
	O458	O	0.082892	0.194314	0.363865
	O459	O	0.083330	0.311031	0.363976
	O460	O	0.044972	0.194723	0.362601
	O461	O	0.045300	0.311448	0.362562
	O462	O	0.067242	0.311539	0.253707
	O463	O	0.105008	0.311573	0.255355
	H464	H	0.043952	0.643175	0.332243
	H465	H	0.043702	0.862661	0.332219
	H466	H	0.043726	0.142792	0.332237
	H467	H	0.044119	0.362638	0.332184
	H468	H	0.047049	0.862331	0.282267
	H469	H	0.048216	0.643336	0.282432
	H470	H	0.048194	0.362229	0.282448
	H471	H	0.047371	0.143849	0.282274
	H472	H	0.133043	0.064066	0.310769
	H473	H	0.129836	0.064391	0.308231
	H474	H	0.129820	0.940930	0.308244
	H475	H	0.132955	0.941114	0.310753
	H476	H	0.128560	0.064318	0.314003
	H477	H	0.128484	0.940902	0.314008
	H478	H	0.035098	0.064348	0.304979
	H479	H	0.035073	0.940869	0.304988
	H480	H	0.028042	0.064607	0.302295
	H481	H	0.027956	0.941174	0.302268
	H482	H	0.016207	0.064581	0.303938
	H483	H	0.016135	0.941120	0.303909
	H484	H	0.023616	0.441208	0.301696
	H485	H	0.015253	0.441545	0.303950
	H486	H	0.035674	0.441047	0.304694
	H487	H	0.125149	0.441334	0.305036
	H488	H	0.138419	0.441207	0.308889
	H489	H	0.138019	0.440854	0.313970
	H490	H	0.015254	0.564524	0.303929
	H491	H	0.023591	0.564505	0.301733
	H492	H	0.138035	0.564694	0.313880
	H493	H	0.138408	0.564485	0.308884
	H494	H	0.125172	0.564081	0.304998
	H495	H	0.035613	0.564412	0.304660
	H496	H	0.100501	0.641784	0.334921
	H497	H	0.099436	0.861162	0.334675
	H498	H	0.099313	0.143429	0.334706
	H499	H	0.100529	0.363075	0.334881
	H500	H	0.056671	0.643314	0.267014
	H501	H	0.107042	0.642479	0.269651
	H502	H	0.105637	0.862265	0.269788
	H503	H	0.055537	0.861937	0.266832
	H504	H	0.106211	0.641649	0.285642
	H505	H	0.104710	0.861408	0.285766
	H506	H	0.093183	0.642537	0.350498
	H507	H	0.092206	0.861891	0.350218
	H508	H	0.081953	0.441652	0.240059
	H509	H	0.060880	0.440858	0.372180
	H510	H	0.094740	0.441210	0.240668
	H511	H	0.098847	0.440499	0.244332
	H512	H	0.062075	0.441157	0.374947
	H513	H	0.059850	0.441178	0.373922
	H514	H	0.060899	0.564422	0.372183
	H515	H	0.081939	0.564641	0.240120
	H516	H	0.059787	0.564719	0.373983
	H517	H	0.062002	0.564370	0.374955
	H518	H	0.098837	0.564762	0.244366
	H519	H	0.094552	0.565056	0.240660
	H520	H	0.092232	0.143078	0.350286
	H521	H	0.093416	0.362921	0.350460
	H522	H	0.090260	0.064453	0.240364
	H523	H	0.082513	0.064584	0.240823
	H524	H	0.097105	0.064709	0.244162
	H525	H	0.042697	0.862545	0.348198
	H526	H	0.043018	0.642841	0.348234
	H527	H	0.043190	0.362801	0.348193
	H528	H	0.042730	0.142981	0.348222
	H529	H	0.055746	0.143768	0.266862
	H530	H	0.105477	0.143841	0.269758
	H531	H	0.107224	0.363493	0.269693
	H532	H	0.056544	0.362471	0.267002
	H533	H	0.104509	0.144452	0.285749
	H534	H	0.106346	0.363718	0.285702
	H535	H	0.063892	0.064867	0.375156
	H536	H	0.066578	0.065041	0.374341
	H537	H	0.066061	0.064683	0.372326
	H538	H	0.082492	0.941305	0.240800
	H539	H	0.090353	0.941109	0.240388
	H540	H	0.097208	0.941000	0.244219
	H541	H	0.064020	0.941323	0.375161
	H542	H	0.066675	0.941568	0.374304
	H543	H	0.066070	0.941414	0.372287
	Zn544	Zn	0.025121	0.680429	0.306840
	Zn545	Zn	0.025076	0.825365	0.306865
	Zn546	Zn	0.025085	0.180121	0.306880
	Zn547	Zn	0.025117	0.325231	0.306895
	Zn548	Zn	0.063194	0.680157	0.373446
	Zn549	Zn	0.063169	0.825539	0.373393
	Zn550	Zn	0.063001	0.180160	0.373389
	Zn551	Zn	0.063256	0.325388	0.373469
	C552	C	0.106551	0.751186	0.296332
	C553	C	0.043370	0.753217	0.321592
	C554	C	0.044188	0.752982	0.331263
	C555	C	0.043795	0.690798	0.335803
	C556	C	0.043619	0.814975	0.335784
	C557	C	0.043492	0.252560	0.321579
	C558	C	0.044266	0.252725	0.331239
	C559	C	0.043678	0.190612	0.335774
	C560	C	0.043867	0.314932	0.335746
	C561	C	0.042527	0.753027	0.292595
	C562	C	0.047572	0.752849	0.283335
	C563	C	0.049256	0.814749	0.278894
	C564	C	0.049902	0.690837	0.278990
	C565	C	0.042544	0.252856	0.292580
	C566	C	0.047556	0.252997	0.283302
	C567	C	0.049825	0.314985	0.278965
	C568	C	0.049381	0.191232	0.278876
	C569	C	0.129820	0.042994	0.309864
	C570	C	0.129777	0.962194	0.309869
	C571	C	0.029933	0.043213	0.304487
	C572	C	0.029920	0.962299	0.304488
	C573	C	0.018051	0.043318	0.306179
	C574	C	0.018006	0.962539	0.306188
	C575	C	0.020964	0.462671	0.303887
	C576	C	0.121707	0.462333	0.307390
	C577	C	0.134977	0.462287	0.311299
	C578	C	0.020974	0.543488	0.303894
	C579	C	0.134947	0.543327	0.311310
	C580	C	0.121643	0.542992	0.307398
	C581	C	0.105084	0.751084	0.324516
	C582	C	0.105009	0.253738	0.324506
	C583	C	0.100107	0.751422	0.333824
	C584	C	0.098632	0.689594	0.338331
	C585	C	0.098078	0.813721	0.338188
	C586	C	0.099939	0.253406	0.333817
	C587	C	0.097919	0.191105	0.338209
	C588	C	0.098578	0.315333	0.338304
	C589	C	0.106481	0.254018	0.296353
	C590	C	0.105982	0.753071	0.259071
	C591	C	0.063751	0.752713	0.257046
	C592	C	0.043974	0.752546	0.358859
	C593	C	0.105946	0.689501	0.282107
	C594	C	0.105189	0.813820	0.282185
	C595	C	0.106727	0.752489	0.268739
	C596	C	0.056616	0.752668	0.266037
	C597	C	0.054468	0.690718	0.270421
	C598	C	0.106598	0.689991	0.273228
	C599	C	0.105846	0.814345	0.273308
	C600	C	0.053817	0.814698	0.270326
	C601	C	0.105232	0.751441	0.286674
	C602	C	0.086152	0.752828	0.360481
	C603	C	0.094746	0.689998	0.346989
	C604	C	0.094219	0.814094	0.346843
	C605	C	0.092422	0.752246	0.351332
	C606	C	0.062581	0.462435	0.372414
	C607	C	0.094475	0.462202	0.242994
	C608	C	0.061492	0.462538	0.374182
	C609	C	0.062560	0.543201	0.372424
	C610	C	0.061509	0.543386	0.374183
	C611	C	0.094429	0.543485	0.243005
	C612	C	0.086096	0.252772	0.360478
	C613	C	0.094099	0.190914	0.346871
	C614	C	0.094742	0.315164	0.346969
	C615	C	0.092233	0.253014	0.351322
	C616	C	0.086806	0.043297	0.241580
	C617	C	0.105796	0.253236	0.259114
	C618	C	0.063716	0.253124	0.257014
	C619	C	0.043974	0.253050	0.358842
	C620	C	0.105024	0.191924	0.282173
	C621	C	0.106024	0.316061	0.282140
	C622	C	0.106613	0.253588	0.268761
	C623	C	0.056598	0.253242	0.265996
	C624	C	0.042695	0.752672	0.349199
	C625	C	0.042983	0.814804	0.344657
	C626	C	0.043128	0.690592	0.344684
	C627	C	0.042767	0.252930	0.349175
	C628	C	0.043164	0.315008	0.344626
	C629	C	0.042960	0.190716	0.344649
	C630	C	0.053937	0.191284	0.270303
	C631	C	0.105679	0.191644	0.273304
	C632	C	0.106667	0.315873	0.273264
	C633	C	0.054399	0.315100	0.270389
	C634	C	0.105127	0.254090	0.286686
	C635	C	0.064691	0.043524	0.374400
	C636	C	0.093665	0.043412	0.245390
	C637	C	0.086809	0.962509	0.241577
	C638	C	0.064728	0.962642	0.374390
	C639	C	0.093683	0.962428	0.245418
	N640	N	0.025257	0.070130	0.306872
	N641	N	0.025239	0.935618	0.306864
	N642	N	0.025235	0.435586	0.306873
	N643	N	0.025255	0.570246	0.306864
	N644	N	0.063253	0.435731	0.373457
	N645	N	0.063223	0.570222	0.373461
	N646	N	0.063084	0.070217	0.373426
	N647	N	0.063094	0.935707	0.373417
	O648	O	0.106594	0.695097	0.427005
	O649	O	0.106880	0.811654	0.427004
	O650	O	0.020338	0.693685	0.446312
	O651	O	0.020344	0.810415	0.446353
	O652	O	0.020377	0.195836	0.446344
	O653	O	0.020134	0.312376	0.446309
	O654	O	0.020706	0.693966	0.426422
	O655	O	0.020877	0.810588	0.426468
	O656	O	0.020899	0.195496	0.426403
	O657	O	0.020454	0.312255	0.426344
	O658	O	0.105908	0.695113	0.446915
	O659	O	0.106128	0.811703	0.446919
	O660	O	0.106157	0.193740	0.446948
	O661	O	0.106082	0.310421	0.446992
	O662	O	0.106787	0.193861	0.426996
	O663	O	0.106625	0.310631	0.426998
	O664	O	0.082466	0.695058	0.383882
	O665	O	0.044997	0.694655	0.383470
	O666	O	0.082085	0.695946	0.489927
	O667	O	0.081712	0.812539	0.489914
	O668	O	0.044372	0.693350	0.489545
	O669	O	0.044129	0.809945	0.489522
	O670	O	0.045003	0.811254	0.383453
	O671	O	0.082544	0.811718	0.383827
	O672	O	0.082502	0.193872	0.383841
	O673	O	0.044957	0.195266	0.383420
	O674	O	0.081616	0.193116	0.489900
	O675	O	0.082075	0.309799	0.489936
	O676	O	0.043938	0.196499	0.489528
	O677	O	0.044513	0.313114	0.489533
	O678	O	0.044843	0.311846	0.383402
	O679	O	0.082569	0.310581	0.383878
	H680	H	0.028707	0.642325	0.460136
	H681	H	0.028754	0.861161	0.460191
	H682	H	0.028630	0.145406	0.460129
	H683	H	0.029041	0.363919	0.460110
	H684	H	0.030755	0.862053	0.412965
	H685	H	0.030089	0.642989	0.412815
	H686	H	0.030076	0.363478	0.412798
	H687	H	0.030578	0.144099	0.412877
	H688	H	0.138897	0.064950	0.435496
	H689	H	0.130593	0.064616	0.431832
	H690	H	0.130629	0.941052	0.431825
	H691	H	0.139031	0.941505	0.435494
	H692	H	0.135147	0.064905	0.442131
	H693	H	0.135208	0.941321	0.442123
	H694	H	0.007628	0.064678	0.433349
	H695	H	0.007610	0.941661	0.433324
	H696	H	0.000516	0.064849	0.431993
	H697	H	0.000456	0.941450	0.431980
	H698	H	-0.007537	0.064648	0.434722
	H699	H	-0.007641	0.941122	0.434665
	H700	H	-0.000558	0.441371	0.434467
	H701	H	-0.002593	0.441715	0.435293
	H702	H	0.003279	0.440888	0.434937
	H703	H	0.136461	0.441079	0.429969
	H704	H	0.145827	0.441190	0.439579
	H705	H	0.135797	0.441411	0.445406
	H706	H	-0.002495	0.565193	0.435343
	H707	H	-0.000471	0.564571	0.434471
	H708	H	0.135762	0.564855	0.445412
	H709	H	0.145919	0.564372	0.439560
	H710	H	0.136352	0.564877	0.429961
	H711	H	0.003303	0.564413	0.434952
	H712	H	0.096426	0.644551	0.460503
	H713	H	0.096722	0.863668	0.460508
	H714	H	0.096510	0.142083	0.460520
	H715	H	0.096562	0.361589	0.460539
	H716	H	0.037126	0.643228	0.397238
	H717	H	0.091073	0.644233	0.397619
	H718	H	0.091111	0.862979	0.397612
	H719	H	0.037731	0.862401	0.397362
	H720	H	0.098208	0.644286	0.413181
	H721	H	0.098265	0.862886	0.413174
	H722	H	0.089338	0.644815	0.476084
	H723	H	0.089665	0.863780	0.476089
	H724	H	0.063872	0.440961	0.371925
	H725	H	0.063061	0.441549	0.499102
	H726	H	0.066874	0.440985	0.373281
	H727	H	0.066067	0.441371	0.374590
	H728	H	0.062840	0.441280	0.500682
	H729	H	0.061921	0.441480	0.500004
	H730	H	0.063106	0.564081	0.499152
	H731	H	0.063851	0.564666	0.371915
	H732	H	0.062005	0.564437	0.500008
	H733	H	0.062859	0.565119	0.500669
	H734	H	0.066089	0.564537	0.374544
	H735	H	0.066828	0.564855	0.373276
	H736	H	0.089493	0.141777	0.476085
	H737	H	0.089599	0.361244	0.476136
	H738	H	0.059233	0.064558	0.372795
	H739	H	0.059642	0.064455	0.374247
	H740	H	0.062906	0.064808	0.371664
	H741	H	0.035709	0.860945	0.475746
	H742	H	0.035758	0.642235	0.475693
	H743	H	0.036149	0.364046	0.475687
	H744	H	0.035726	0.145600	0.475706
	H745	H	0.037599	0.143995	0.397281
	H746	H	0.091142	0.142408	0.397643
	H747	H	0.091072	0.361465	0.397647
	H748	H	0.037090	0.363269	0.397198
	H749	H	0.098239	0.142573	0.413212
	H750	H	0.098228	0.361524	0.413216
	H751	H	0.048826	0.064535	0.503023
	H752	H	0.059910	0.064580	0.506893
	H753	H	0.077243	0.064959	0.504006
	H754	H	0.059672	0.941190	0.374270
	H755	H	0.059358	0.941388	0.372796
	H756	H	0.062997	0.941275	0.371657
	H757	H	0.048821	0.941369	0.503011
	H758	H	0.059907	0.941566	0.506929
	H759	H	0.077326	0.941010	0.504016
	Zn760	Zn	0.000747	0.680162	0.435912
	Zn761	Zn	0.001007	0.825807	0.435915
	Zn762	Zn	0.001091	0.180218	0.435946
	Zn763	Zn	0.000625	0.325870	0.435927
	Zn764	Zn	0.063949	0.680416	0.499975
	Zn765	Zn	0.063357	0.825522	0.499937
	Zn766	Zn	0.063359	0.180524	0.499921
	Zn767	Zn	0.064033	0.325531	0.499950
	C768	C	0.104053	0.753461	0.423451
	C769	C	0.022987	0.751971	0.449882
	C770	C	0.028514	0.751722	0.459201
	C771	C	0.030328	0.689836	0.463600
	C772	C	0.030403	0.813579	0.463627
	C773	C	0.023030	0.254253	0.449859
	C774	C	0.028570	0.254658	0.459179
	C775	C	0.030365	0.192874	0.463601
	C776	C	0.030569	0.316453	0.463597
	C777	C	0.023803	0.752288	0.422993
	C778	C	0.030016	0.752426	0.413836
	C779	C	0.032226	0.814533	0.409462
	C780	C	0.031910	0.690617	0.409391
	C781	C	0.023713	0.253933	0.422936
	C782	C	0.029905	0.253794	0.413780
	C783	C	0.031813	0.315785	0.409349
	C784	C	0.032094	0.191713	0.409387
	C785	C	0.132547	0.043405	0.434645
	C786	C	0.132566	0.962584	0.434645
	C787	C	0.003258	0.043417	0.433535
	C788	C	0.003233	0.962701	0.433513
	C789	C	-0.004861	0.043451	0.436244
	C790	C	-0.004924	0.962508	0.436247
	C791	C	-0.000982	0.462578	0.435143
	C792	C	0.127383	0.462469	0.431514
	C793	C	0.136903	0.462537	0.441155
	C794	C	-0.000954	0.543543	0.435154
	C795	C	0.136917	0.543308	0.441163
	C796	C	0.127379	0.543431	0.431519
	C797	C	0.103034	0.753523	0.450360
	C798	C	0.103080	0.252006	0.450420
	C799	C	0.096934	0.753955	0.459524
	C800	C	0.094807	0.692166	0.463947
	C801	C	0.095022	0.816038	0.463955
	C802	C	0.096930	0.251819	0.459573
	C803	C	0.094894	0.189708	0.463979
	C804	C	0.094929	0.313779	0.463996
	C805	C	0.104000	0.252214	0.423463
	C806	C	0.085242	0.753454	0.387391
	C807	C	0.042595	0.752986	0.387004
	C808	C	0.041574	0.751489	0.485982
	C809	C	0.096659	0.691703	0.409714
	C810	C	0.096679	0.815452	0.409720
	C811	C	0.090915	0.753631	0.396667
	C812	C	0.037585	0.752904	0.396293
	C813	C	0.035716	0.690886	0.400723
	C814	C	0.092802	0.691745	0.401069
	C815	C	0.092810	0.815481	0.401074
	C816	C	0.036042	0.814709	0.400798
	C817	C	0.098562	0.753489	0.414139
	C818	C	0.084321	0.754340	0.486372
	C819	C	0.091008	0.692350	0.472612
	C820	C	0.091199	0.816221	0.472621
	C821	C	0.089353	0.754307	0.477062
	C822	C	0.064009	0.462677	0.499352
	C823	C	0.065582	0.462501	0.373810
	C824	C	0.062857	0.462559	0.500249
	C825	C	0.063971	0.543303	0.499353
	C826	C	0.062871	0.543522	0.500238
	C827	C	0.065556	0.543398	0.373801
	C828	C	0.084308	0.251333	0.486384
	C829	C	0.091078	0.189557	0.472638
	C830	C	0.091133	0.313535	0.472668
	C831	C	0.089345	0.251432	0.477094
	C832	C	0.060393	0.043380	0.373492
	C833	C	0.085224	0.252120	0.387408
	C834	C	0.042496	0.253595	0.386955
	C835	C	0.041564	0.254945	0.485980
	C836	C	0.096561	0.190138	0.409748
	C837	C	0.096542	0.313964	0.409751
	C838	C	0.090755	0.251957	0.396707
	C839	C	0.037517	0.253591	0.396255
	C840	C	0.036040	0.751490	0.476674
	C841	C	0.034184	0.813486	0.472273
	C842	C	0.034126	0.689675	0.472252
	C843	C	0.036117	0.254909	0.476665
	C844	C	0.034363	0.316652	0.472244
	C845	C	0.034114	0.193021	0.472251
	C846	C	0.035924	0.191614	0.400728
	C847	C	0.092690	0.190058	0.401103
	C848	C	0.092673	0.313876	0.401108
	C849	C	0.035623	0.315619	0.400688
	C850	C	0.098394	0.252085	0.414164
	C851	C	0.056723	0.043336	0.503630
	C852	C	0.064118	0.043482	0.372352
	C853	C	0.060417	0.962600	0.373501
	C854	C	0.056727	0.962783	0.503655
	C855	C	0.064132	0.962714	0.372355
	N856	N	0.001105	0.070254	0.435964
	N857	N	0.001022	0.935861	0.435943
	N858	N	0.000636	0.435814	0.435853
	N859	N	0.000667	0.570211	0.435857
	N860	N	0.064072	0.435780	0.499966
	N861	N	0.064055	0.570308	0.499946
	N862	N	0.063341	0.070259	0.499909
	N863	N	0.063346	0.935742	0.499910
	O864	O	0.084297	0.695312	0.555463
	O865	O	0.084219	0.812001	0.555490
	O866	O	0.019497	0.693575	0.573338
	O867	O	0.019603	0.810304	0.573364
	O868	O	0.019572	0.194790	0.573310
	O869	O	0.019353	0.311521	0.573321
	O870	O	0.019375	0.693616	0.552500
	O871	O	0.019752	0.810411	0.552488
	O872	O	0.019559	0.195917	0.552451
	O873	O	0.019588	0.312475	0.552514
	O874	O	0.086206	0.695361	0.577213
	O875	O	0.086279	0.811882	0.577214
	O876	O	0.086180	0.194081	0.577233
	O877	O	0.086233	0.310640	0.577216
	O878	O	0.084162	0.194166	0.555538
	O879	O	0.084235	0.311068	0.555452
	O880	O	0.081943	0.695813	0.510731
	O881	O	0.043970	0.693005	0.509548
	O882	O	0.060201	0.695136	0.619773
	O883	O	0.060091	0.811905	0.619764
	O884	O	0.022365	0.693927	0.618150
	O885	O	0.022205	0.810568	0.618057
	O886	O	0.043618	0.809550	0.509498
	O887	O	0.081392	0.812630	0.510779
	O888	O	0.081529	0.192972	0.510767
	O889	O	0.043625	0.195954	0.509490
	O890	O	0.060161	0.194329	0.619758
	O891	O	0.060093	0.311036	0.619729
	O892	O	0.022140	0.194647	0.618084
	O893	O	0.022229	0.311563	0.618075
	O894	O	0.043908	0.312645	0.509491
	O895	O	0.081993	0.309838	0.510745
	H896	H	0.022115	0.642179	0.587776
	H897	H	0.021644	0.861516	0.587719
	H898	H	0.021753	0.143418	0.587718
	H899	H	0.021989	0.362763	0.587685
	H900	H	0.027233	0.861205	0.538650
	H901	H	0.027503	0.641693	0.538760
	H902	H	0.026983	0.364071	0.538631
	H903	H	0.027221	0.144929	0.538645
	H904	H	0.102651	0.064372	0.563991
	H905	H	0.097717	0.065128	0.564419
	H906	H	0.097701	0.941451	0.564442
	H907	H	0.102601	0.941506	0.564000
	H908	H	0.107447	0.064331	0.566250
	H909	H	0.107358	0.941484	0.566207
	H910	H	-0.000181	0.064715	0.563676
	H911	H	-0.000215	0.941041	0.563738
	H912	H	0.002460	0.064267	0.563883
	H913	H	0.002629	0.940677	0.563877
	H914	H	0.004752	0.064177	0.562546
	H915	H	0.004731	0.940809	0.562560
	H916	H	0.002314	0.441111	0.560140
	H917	H	-0.002503	0.441599	0.560534
	H918	H	0.006748	0.441331	0.562365
	H919	H	0.091292	0.441249	0.564172
	H920	H	0.102676	0.440877	0.561723
	H921	H	0.110611	0.441995	0.564064
	H922	H	-0.002391	0.564359	0.560513
	H923	H	0.002333	0.564437	0.560146
	H924	H	0.110710	0.564681	0.564051
	H925	H	0.102522	0.564867	0.561707
	H926	H	0.091305	0.564791	0.564200
	H927	H	0.006830	0.564836	0.562392
	H928	H	0.078880	0.644148	0.591006
	H929	H	0.079580	0.863100	0.591117
	H930	H	0.079434	0.143197	0.591035
	H931	H	0.078948	0.361754	0.591004
	H932	H	0.034603	0.641431	0.523157
	H933	H	0.084594	0.644244	0.525099
	H934	H	0.083659	0.864267	0.525128
	H935	H	0.034299	0.860977	0.523064
	H936	H	0.083489	0.644199	0.541120
	H937	H	0.082583	0.864046	0.541118
	H938	H	0.070711	0.644057	0.606473
	H939	H	0.071410	0.863012	0.606547
	H940	H	0.064891	0.440887	0.499145
	H941	H	0.027445	0.441256	0.630620
	H942	H	0.066090	0.441657	0.500052
	H943	H	0.065268	0.441453	0.500696
	H944	H	0.049072	0.441581	0.632999
	H945	H	0.039345	0.441274	0.634736
	H946	H	0.027462	0.564650	0.630641
	H947	H	0.064773	0.564495	0.499112
	H948	H	0.039236	0.564462	0.634694
	H949	H	0.049010	0.564368	0.633043
	H950	H	0.065314	0.565308	0.500711
	H951	H	0.066108	0.565023	0.500054
	H952	H	0.071168	0.143134	0.606510
	H953	H	0.070818	0.361723	0.606462
	H954	H	0.063802	0.064809	0.492732
	H955	H	0.051099	0.064712	0.494842
	H956	H	0.079025	0.064829	0.498055
	H957	H	0.020474	0.861668	0.603706
	H958	H	0.020946	0.642222	0.603748
	H959	H	0.021000	0.362708	0.603687
	H960	H	0.020700	0.143419	0.603707
	H961	H	0.034221	0.144901	0.523056
	H962	H	0.083815	0.141616	0.525165
	H963	H	0.084201	0.361535	0.525076
	H964	H	0.034062	0.364289	0.523040
	H965	H	0.082675	0.142034	0.541183
	H966	H	0.082993	0.361955	0.541067
	H967	H	0.032606	0.064925	0.627388
	H968	H	0.032353	0.064894	0.630162
	H969	H	0.039779	0.065320	0.632438
	H970	H	0.051052	0.941441	0.494845
	H971	H	0.063865	0.941393	0.492717
	H972	H	0.078962	0.940973	0.498039
	H973	H	0.032607	0.941744	0.627430
	H974	H	0.032321	0.941495	0.630212
	H975	H	0.039772	0.941437	0.632408
	Zn976	Zn	0.001213	0.680394	0.562557
	Zn977	Zn	0.001615	0.825233	0.562573
	Zn978	Zn	0.001413	0.180440	0.562466
	Zn979	Zn	0.001212	0.325314	0.562547
	Zn980	Zn	0.039682	0.680503	0.629162
	Zn981	Zn	0.039464	0.825791	0.629087
	Zn982	Zn	0.039466	0.180714	0.629098
	Zn983	Zn	0.039539	0.325913	0.629070
	C984	C	0.083407	0.753736	0.551731
	C985	C	0.020755	0.751874	0.577082
	C986	C	0.021968	0.751765	0.586744
	C987	C	0.021743	0.689854	0.591303
	C988	C	0.021503	0.813828	0.591266
	C989	C	0.020673	0.253144	0.577052
	C990	C	0.021944	0.253046	0.586716
	C991	C	0.021567	0.191048	0.591267
	C992	C	0.021681	0.315102	0.591242
	C993	C	0.021991	0.751871	0.548953
	C994	C	0.027092	0.751517	0.539660
	C995	C	0.028818	0.813490	0.535199
	C996	C	0.028947	0.689286	0.535249
	C997	C	0.022043	0.254340	0.548942
	C998	C	0.027099	0.254568	0.539645
	C999	C	0.028722	0.316518	0.535183
	C1000	C	0.028808	0.192566	0.535184
	C1001	C	0.100456	0.043386	0.564823
	C1002	C	0.100416	0.962571	0.564825
	C1003	C	0.001204	0.043361	0.563441
	C1004	C	0.001261	0.962302	0.563447
	C1005	C	0.003427	0.043013	0.562119
	C1006	C	0.003463	0.962336	0.562116
	C1007	C	0.000251	0.462617	0.560928
	C1008	C	0.093786	0.462730	0.566303
	C1009	C	0.105202	0.462621	0.563828
	C1010	C	0.000239	0.543173	0.560931
	C1011	C	0.105183	0.543513	0.563837
	C1012	C	0.093781	0.543418	0.566316
	C1013	C	0.084235	0.753652	0.580799
	C1014	C	0.084183	0.252379	0.580801
	C1015	C	0.079464	0.753596	0.590084
	C1016	C	0.077295	0.691655	0.594466
	C1017	C	0.077655	0.815463	0.594516
	C1018	C	0.079398	0.252375	0.590082
	C1019	C	0.077531	0.190560	0.594478
	C1020	C	0.077293	0.314246	0.594454
	C1021	C	0.083293	0.252417	0.551756
	C1022	C	0.082928	0.754209	0.514478
	C1023	C	0.040829	0.751237	0.512972
	C1024	C	0.021341	0.752082	0.614351
	C1025	C	0.083470	0.691964	0.537554
	C1026	C	0.082951	0.816274	0.537564
	C1027	C	0.084284	0.754220	0.524145
	C1028	C	0.034705	0.751196	0.522136
	C1029	C	0.032787	0.689202	0.526586
	C1030	C	0.084175	0.692014	0.528673
	C1031	C	0.083660	0.816342	0.528684
	C1032	C	0.032649	0.813283	0.526535
	C1033	C	0.082692	0.754019	0.542079
	C1034	C	0.063548	0.753532	0.616433
	C1035	C	0.072880	0.691569	0.603056
	C1036	C	0.073215	0.815510	0.603102
	C1037	C	0.070625	0.753536	0.607427
	C1038	C	0.031007	0.462635	0.628511
	C1039	C	0.065274	0.462747	0.500276
	C1040	C	0.042950	0.462618	0.632604
	C1041	C	0.031030	0.543609	0.628531
	C1042	C	0.042926	0.543228	0.632617
	C1043	C	0.065256	0.543561	0.500268
	C1044	C	0.063533	0.252645	0.616403
	C1045	C	0.073140	0.190566	0.603070
	C1046	C	0.072901	0.314290	0.603041
	C1047	C	0.070605	0.252427	0.607407
	C1048	C	0.059017	0.043451	0.495401
	C1049	C	0.082923	0.251406	0.514488
	C1050	C	0.040768	0.254398	0.512939
	C1051	C	0.021267	0.253094	0.614340
	C1052	C	0.082913	0.189701	0.537598
	C1053	C	0.083102	0.314036	0.537542
	C1054	C	0.084117	0.251566	0.524162
	C1055	C	0.034682	0.254603	0.522105
	C1056	C	0.020488	0.751938	0.604689
	C1057	C	0.020825	0.813972	0.600146
	C1058	C	0.021075	0.689856	0.600184
	C1059	C	0.020477	0.253173	0.604670
	C1060	C	0.021039	0.315107	0.600126
	C1061	C	0.020907	0.191124	0.600151
	C1062	C	0.032630	0.192522	0.526519
	C1063	C	0.083622	0.189424	0.528718
	C1064	C	0.083824	0.313865	0.528666
	C1065	C	0.032550	0.316592	0.526518
	C1066	C	0.082481	0.252036	0.542097
	C1067	C	0.034215	0.043502	0.628866
	C1068	C	0.074233	0.043597	0.500737
	C1069	C	0.058995	0.962513	0.495405
	C1070	C	0.034235	0.962790	0.628875
	C1071	C	0.074246	0.962430	0.500743
	N1072	N	0.001425	0.070126	0.562489
	N1073	N	0.001511	0.935533	0.562505
	N1074	N	0.001087	0.435557	0.562584
	N1075	N	0.001054	0.570129	0.562596
	N1076	N	0.039492	0.435918	0.629097
	N1077	N	0.039474	0.570414	0.629130
	N1078	N	0.039307	0.070532	0.629063
	N1079	N	0.039302	0.936002	0.629062
	O1080	O	0.132649	0.695729	0.671872
	O1081	O	0.132822	0.812049	0.671853
	O1082	O	0.000309	0.694849	0.700649
	O1083	O	0.000280	0.811072	0.700603
	O1084	O	0.000189	0.194998	0.700629
	O1085	O	0.000166	0.311310	0.700647
	O1086	O	-0.002191	0.695095	0.682273
	O1087	O	-0.002252	0.811787	0.682255
	O1088	O	-0.002145	0.195140	0.682277
	O1089	O	-0.002194	0.312014	0.682316
	O1090	O	0.135291	0.695318	0.690226
	O1091	O	0.135233	0.812047	0.690213
	O1092	O	0.135336	0.193999	0.690209
	O1093	O	0.135183	0.310808	0.690161
	O1094	O	0.132967	0.195098	0.671807
	O1095	O	0.132672	0.311420	0.671886
	O1096	O	0.062602	0.695690	0.638135
	O1097	O	0.024373	0.695041	0.639823
	O1098	O	0.108770	0.694947	0.732661
	O1099	O	0.108874	0.811491	0.732699
	O1100	O	0.070413	0.695299	0.734409
	O1101	O	0.070308	0.811472	0.734419
	O1102	O	0.024222	0.811452	0.639760
	O1103	O	0.062472	0.812020	0.638102
	O1104	O	0.062595	0.194685	0.638079
	O1105	O	0.024239	0.195719	0.639792
	O1106	O	0.108913	0.194687	0.732698
	O1107	O	0.108739	0.311119	0.732659
	O1108	O	0.070256	0.195211	0.734406
	O1109	O	0.070368	0.311485	0.734425
	O1110	O	0.024338	0.311958	0.639806
	O1111	O	0.062515	0.310910	0.638114
	H1112	H	0.022816	0.645723	0.711436
	H1113	H	0.022830	0.861195	0.711415
	H1114	H	0.022921	0.145250	0.711376
	H1115	H	0.022681	0.361546	0.711478
	H1116	H	0.009028	0.862952	0.669073
	H1117	H	0.008776	0.644089	0.669056
	H1118	H	0.008884	0.362876	0.669090
	H1119	H	0.008528	0.144647	0.669034
	H1120	H	0.157077	0.064670	0.679777
	H1121	H	0.155058	0.064792	0.679823
	H1122	H	0.154979	0.941322	0.679763
	H1123	H	0.157186	0.941782	0.679778
	H1124	H	0.158542	0.064795	0.680964
	H1125	H	0.158593	0.941341	0.680985
	H1126	H	-0.017618	0.064820	0.688073
	H1127	H	-0.017568	0.941286	0.688095
	H1128	H	-0.025738	0.064957	0.687411
	H1129	H	-0.025810	0.941273	0.687454
	H1130	H	-0.032638	0.064836	0.691238
	H1131	H	-0.032592	0.941587	0.691278
	H1132	H	-0.022582	0.441443	0.694763
	H1133	H	-0.017325	0.441347	0.693631
	H1134	H	-0.029474	0.441908	0.692655
	H1135	H	0.155303	0.441638	0.677029
	H1136	H	0.163680	0.441132	0.679524
	H1137	H	0.163650	0.441326	0.682653
	H1138	H	-0.017143	0.564535	0.693653
	H1139	H	-0.022548	0.564396	0.694805
	H1140	H	0.163572	0.564298	0.682609
	H1141	H	0.163681	0.565105	0.679485
	H1142	H	0.155348	0.564895	0.677052
	H1143	H	-0.029538	0.564656	0.692681
	H1144	H	0.124343	0.643945	0.703458
	H1145	H	0.124070	0.863248	0.703417
	H1146	H	0.124583	0.143191	0.703494
	H1147	H	0.123956	0.361930	0.703355
	H1148	H	0.016973	0.644164	0.653603
	H1149	H	0.085156	0.646309	0.648874
	H1150	H	0.085349	0.861924	0.648774
	H1151	H	0.017263	0.862721	0.653638
	H1152	H	0.110023	0.646113	0.661113
	H1153	H	0.110268	0.862133	0.661019
	H1154	H	0.116151	0.643915	0.718908
	H1155	H	0.115888	0.863057	0.718881
	H1156	H	0.028584	0.441322	0.626003
	H1157	H	0.089890	0.441017	0.745450
	H1158	H	0.042136	0.441387	0.623713
	H1159	H	0.050734	0.441689	0.626711
	H1160	H	0.099722	0.441465	0.743768
	H1161	H	0.097006	0.441101	0.745636
	H1162	H	0.089845	0.565134	0.745461
	H1163	H	0.028591	0.565225	0.626017
	H1164	H	0.097034	0.564739	0.745665
	H1165	H	0.099856	0.564771	0.743786
	H1166	H	0.050730	0.564668	0.626731
	H1167	H	0.042024	0.564933	0.623713
	H1168	H	0.116293	0.143657	0.718940
	H1169	H	0.115715	0.362037	0.718800
	H1170	H	0.045776	0.064421	0.627366
	H1171	H	0.040347	0.064784	0.625760
	H1172	H	0.045438	0.064820	0.631208
	H1173	H	0.047619	0.860990	0.723673
	H1174	H	0.047579	0.645605	0.723695
	H1175	H	0.047517	0.361542	0.723717
	H1176	H	0.047705	0.145445	0.723638
	H1177	H	0.016856	0.144689	0.653590
	H1178	H	0.085240	0.144589	0.648893
	H1179	H	0.085142	0.361381	0.648909
	H1180	H	0.017230	0.363065	0.653678
	H1181	H	0.110149	0.144549	0.661057
	H1182	H	0.110051	0.361398	0.661133
	H1183	H	0.097917	0.064670	0.740958
	H1184	H	0.092114	0.064674	0.740271
	H1185	H	0.086520	0.065031	0.742733
	H1186	H	0.040292	0.941059	0.625764
	H1187	H	0.045727	0.941359	0.627385
	H1188	H	0.045426	0.941765	0.631172
	H1189	H	0.098013	0.941269	0.741009
	H1190	H	0.092164	0.941612	0.740279
	H1191	H	0.086493	0.941545	0.742753
	Zn1192	Zn	-0.022758	0.680549	0.691630
	Zn1193	Zn	-0.022763	0.825703	0.691643
	Zn1194	Zn	-0.022829	0.180753	0.691611
	Zn1195	Zn	-0.022937	0.325792	0.691664
	Zn1196	Zn	0.093473	0.680491	0.743339
	Zn1197	Zn	0.093482	0.825612	0.743361
	Zn1198	Zn	0.093379	0.180540	0.743321
	Zn1199	Zn	0.093465	0.325544	0.743353
	C1200	C	0.126746	0.753984	0.669113
	C1201	C	0.006285	0.753046	0.703373
	C1202	C	0.021395	0.753394	0.710667
	C1203	C	0.028354	0.692412	0.714148
	C1204	C	0.028347	0.814424	0.714146
	C1205	C	0.006151	0.253168	0.703394
	C1206	C	0.021342	0.253356	0.710671
	C1207	C	0.028346	0.192214	0.714129
	C1208	C	0.028284	0.314588	0.714167
	C1209	C	0.001186	0.753450	0.678929
	C1210	C	0.008226	0.753431	0.669949
	C1211	C	0.010810	0.815369	0.665623
	C1212	C	0.010666	0.691518	0.665615
	C1213	C	0.001200	0.253661	0.678966
	C1214	C	0.008300	0.253641	0.669974
	C1215	C	0.010823	0.315501	0.665648
	C1216	C	0.010624	0.191929	0.665616
	C1217	C	0.156162	0.043429	0.680056
	C1218	C	0.156114	0.962668	0.680050
	C1219	C	-0.022011	0.043701	0.688758
	C1220	C	-0.022027	0.962671	0.688776
	C1221	C	-0.028939	0.043355	0.692585
	C1222	C	-0.028931	0.962605	0.692611
	C1223	C	-0.020802	0.462757	0.693528
	C1224	C	0.153230	0.463115	0.678554
	C1225	C	0.161667	0.462575	0.681000
	C1226	C	-0.020716	0.543522	0.693546
	C1227	C	0.161655	0.543422	0.680985
	C1228	C	0.153202	0.543640	0.678550
	C1229	C	0.131871	0.753695	0.693554
	C1230	C	0.131860	0.252419	0.693511
	C1231	C	0.124862	0.753605	0.702543
	C1232	C	0.122475	0.691439	0.706889
	C1233	C	0.122297	0.815687	0.706866
	C1234	C	0.124766	0.252570	0.702488
	C1235	C	0.122509	0.190748	0.706879
	C1236	C	0.122164	0.314510	0.706803
	C1237	C	0.126786	0.253169	0.669116
	C1238	C	0.068549	0.753977	0.640846
	C1239	C	0.022223	0.753328	0.643373
	C1240	C	0.064303	0.753347	0.731686
	C1241	C	0.104541	0.693114	0.658369
	C1242	C	0.104656	0.815304	0.658317
	C1243	C	0.083762	0.754158	0.648107
	C1244	C	0.017227	0.753410	0.652643
	C1245	C	0.015163	0.691628	0.657036
	C1246	C	0.090750	0.693104	0.651579
	C1247	C	0.090849	0.815226	0.651531
	C1248	C	0.015315	0.815296	0.657049
	C1249	C	0.111582	0.754206	0.661820
	C1250	C	0.110901	0.753306	0.729108
	C1251	C	0.117960	0.691456	0.715461
	C1252	C	0.117808	0.815598	0.715441
	C1253	C	0.115903	0.753465	0.719836
	C1254	C	0.089975	0.462583	0.744133
	C1255	C	0.044578	0.462843	0.626216
	C1256	C	0.097183	0.462752	0.744364
	C1257	C	0.089934	0.543672	0.744143
	C1258	C	0.097193	0.543519	0.744374
	C1259	C	0.044560	0.543682	0.626231
	C1260	C	0.110900	0.252861	0.729093
	C1261	C	0.118023	0.190905	0.715460
	C1262	C	0.117682	0.314623	0.715380
	C1263	C	0.115871	0.252873	0.719812
	C1264	C	0.042041	0.043518	0.627225
	C1265	C	0.068553	0.252801	0.640855
	C1266	C	0.022254	0.253857	0.643387
	C1267	C	0.064318	0.253449	0.731665
	C1268	C	0.104556	0.191705	0.658386
	C1269	C	0.104510	0.314365	0.658421
	C1270	C	0.083723	0.252989	0.648143
	C1271	C	0.017324	0.253678	0.652658
	C1272	C	0.049101	0.753259	0.724418
	C1273	C	0.042100	0.814233	0.720951
	C1274	C	0.042107	0.692403	0.720952
	C1275	C	0.049110	0.253499	0.724403
	C1276	C	0.042058	0.314672	0.720959
	C1277	C	0.042132	0.192279	0.720919
	C1278	C	0.015135	0.191947	0.657034
	C1279	C	0.090761	0.191694	0.651600
	C1280	C	0.090717	0.314353	0.651623
	C1281	C	0.015353	0.315526	0.657077
	C1282	C	0.111520	0.253014	0.661882
	C1283	C	0.094692	0.043467	0.741335
	C1284	C	0.041699	0.043806	0.631083
	C1285	C	0.042002	0.962691	0.627230
	C1286	C	0.094735	0.962700	0.741349
	C1287	C	0.041691	0.962805	0.631074
	N1288	N	-0.022899	0.070482	0.691579
	N1289	N	-0.022909	0.935940	0.691629
	N1290	N	-0.022988	0.435812	0.691631
	N1291	N	-0.022942	0.570349	0.691628
	N1292	N	0.093665	0.435938	0.743330
	N1293	N	0.093674	0.570530	0.743340
	N1294	N	0.093570	0.070384	0.743351
	N1295	N	0.093619	0.935804	0.743384
	O1296	O	0.113695	0.695533	0.799165
	O1297	O	0.114146	0.812012	0.799077
	O1298	O	0.047732	0.694695	0.816871
	O1299	O	0.047810	0.811518	0.816939
	O1300	O	0.047746	0.195375	0.816888
	O1301	O	0.047805	0.312280	0.816920
	O1302	O	0.046043	0.695321	0.795156
	O1303	O	0.045964	0.811940	0.795180
	O1304	O	0.046139	0.194993	0.795191
	O1305	O	0.045930	0.311584	0.795181
	O1306	O	0.113263	0.695149	0.819846
	O1307	O	0.113245	0.811879	0.819801
	O1308	O	0.113349	0.193886	0.819867
	O1309	O	0.113199	0.310675	0.819816
	O1310	O	0.113991	0.193363	0.799123
	O1311	O	0.113564	0.310037	0.799166
	O1312	O	0.110704	0.695152	0.754394
	O1313	O	0.072838	0.695029	0.752720
	O1314	O	0.089279	0.694659	0.862833
	O1315	O	0.089288	0.811338	0.862886
	O1316	O	0.051131	0.694197	0.861650
	O1317	O	0.051364	0.811195	0.861646
	O1318	O	0.072676	0.811865	0.752666
	O1319	O	0.110903	0.812115	0.754379
	O1320	O	0.110894	0.194614	0.754364
	O1321	O	0.073072	0.194987	0.752770
	O1322	O	0.089364	0.194469	0.862852
	O1323	O	0.089146	0.311311	0.862811
	O1324	O	0.051286	0.195054	0.861606
	O1325	O	0.051137	0.311777	0.861615
	O1326	O	0.072811	0.311665	0.752734
	O1327	O	0.110716	0.311203	0.754411
	H1328	H	0.049177	0.643132	0.831230
	H1329	H	0.049534	0.862870	0.831276
	H1330	H	0.049305	0.144041	0.831246
	H1331	H	0.049114	0.363708	0.831318
	H1332	H	0.053213	0.863083	0.781366
	H1333	H	0.053306	0.644280	0.781341
	H1334	H	0.053239	0.363015	0.781411
	H1335	H	0.053483	0.143749	0.781402
	H1336	H	0.127680	0.064412	0.806128
	H1337	H	0.122686	0.064636	0.808842
	H1338	H	0.122696	0.941386	0.808839
	H1339	H	0.127745	0.941099	0.806052
	H1340	H	0.138778	0.064442	0.806916
	H1341	H	0.138791	0.941058	0.806931
	H1342	H	0.036826	0.065481	0.807418
	H1343	H	0.036765	0.941940	0.807398
	H1344	H	0.037070	0.065407	0.804862
	H1345	H	0.037032	0.941541	0.804891
	H1346	H	0.030337	0.065011	0.802832
	H1347	H	0.030307	0.941561	0.802843
	H1348	H	0.035160	0.441625	0.808850
	H1349	H	0.038663	0.441760	0.806351
	H1350	H	0.025873	0.441775	0.808568
	H1351	H	0.137068	0.441381	0.800300
	H1352	H	0.154468	0.441201	0.809212
	H1353	H	0.148654	0.441527	0.817064
	H1354	H	0.038759	0.564963	0.806369
	H1355	H	0.035202	0.564903	0.808801
	H1356	H	0.148569	0.564747	0.817068
	H1357	H	0.154567	0.564480	0.809209
	H1358	H	0.137031	0.564572	0.800273
	H1359	H	0.025836	0.565067	0.808582
	H1360	H	0.105400	0.643860	0.833610
	H1361	H	0.105186	0.863426	0.833659
	H1362	H	0.105330	0.142799	0.833637
	H1363	H	0.105150	0.362597	0.833590
	H1364	H	0.061807	0.644259	0.765949
	H1365	H	0.111540	0.643773	0.768749
	H1366	H	0.112355	0.863283	0.768702
	H1367	H	0.061801	0.863033	0.765924
	H1368	H	0.110862	0.643685	0.784771
	H1369	H	0.111658	0.863507	0.784701
	H1370	H	0.098417	0.643631	0.849201
	H1371	H	0.098214	0.863059	0.849250
	H1372	H	0.087374	0.441632	0.743341
	H1373	H	0.079416	0.441779	0.871774
	H1374	H	0.091158	0.441746	0.740830
	H1375	H	0.096355	0.441378	0.740953
	H1376	H	0.062983	0.441446	0.868991
	H1377	H	0.071105	0.441796	0.868143
	H1378	H	0.079344	0.565005	0.871816
	H1379	H	0.087365	0.564885	0.743382
	H1380	H	0.071053	0.564670	0.868183
	H1381	H	0.063086	0.565047	0.869028
	H1382	H	0.096340	0.564856	0.740940
	H1383	H	0.091109	0.564918	0.740811
	H1384	H	0.098350	0.143074	0.849228
	H1385	H	0.098211	0.362545	0.849199
	H1386	H	0.096110	0.064708	0.746320
	H1387	H	0.100273	0.065248	0.744521
	H1388	H	0.088159	0.064839	0.745317
	H1389	H	0.048873	0.862668	0.847296
	H1390	H	0.048557	0.642759	0.847219
	H1391	H	0.048563	0.363395	0.847302
	H1392	H	0.048728	0.143703	0.847249
	H1393	H	0.062050	0.143948	0.766000
	H1394	H	0.112515	0.142545	0.768744
	H1395	H	0.111669	0.362153	0.768815
	H1396	H	0.061777	0.363017	0.765993
	H1397	H	0.111514	0.141983	0.784742
	H1398	H	0.110642	0.361708	0.784804
	H1399	H	0.074421	0.064210	0.866822
	H1400	H	0.062838	0.064673	0.866994
	H1401	H	0.055868	0.064569	0.873139
	H1402	H	0.100380	0.941632	0.744527
	H1403	H	0.096217	0.941623	0.746335
	H1404	H	0.088214	0.941462	0.745379
	H1405	H	0.074493	0.941334	0.866884
	H1406	H	0.062847	0.941290	0.866982
	H1407	H	0.055912	0.941241	0.873136
	Zn1408	Zn	0.030548	0.680707	0.805836
	Zn1409	Zn	0.030544	0.825759	0.805861
	Zn1410	Zn	0.030686	0.180908	0.805887
	Zn1411	Zn	0.030528	0.325810	0.805846
	Zn1412	Zn	0.069566	0.680366	0.872434
	Zn1413	Zn	0.069491	0.825179	0.872440
	Zn1414	Zn	0.069473	0.180585	0.872401
	Zn1415	Zn	0.069476	0.325564	0.872405
	C1416	C	0.112643	0.753663	0.795385
	C1417	C	0.048670	0.752993	0.820646
	C1418	C	0.049647	0.752983	0.830311
	C1419	C	0.049172	0.690692	0.834805
	C1420	C	0.049379	0.815142	0.834841
	C1421	C	0.048696	0.253792	0.820646
	C1422	C	0.049569	0.253746	0.830309
	C1423	C	0.049226	0.191623	0.834813
	C1424	C	0.049150	0.315805	0.834856
	C1425	C	0.048094	0.753693	0.791597
	C1426	C	0.053185	0.753752	0.782342
	C1427	C	0.055197	0.815609	0.777952
	C1428	C	0.055270	0.691841	0.777945
	C1429	C	0.048075	0.253306	0.791602
	C1430	C	0.053177	0.253342	0.782353
	C1431	C	0.055205	0.315447	0.777981
	C1432	C	0.055357	0.191377	0.777971
	C1433	C	0.127055	0.043295	0.808127
	C1434	C	0.127067	0.962421	0.808115
	C1435	C	0.035345	0.043972	0.806066
	C1436	C	0.035307	0.963014	0.806070
	C1437	C	0.028546	0.043679	0.804040
	C1438	C	0.028519	0.962773	0.804044
	C1439	C	0.035306	0.462925	0.807120
	C1440	C	0.128765	0.462668	0.803297
	C1441	C	0.146371	0.462477	0.812293
	C1442	C	0.035366	0.543620	0.807107
	C1443	C	0.146362	0.543282	0.812289
	C1444	C	0.128737	0.543398	0.803312
	C1445	C	0.110705	0.753624	0.823349
	C1446	C	0.110701	0.252350	0.823360
	C1447	C	0.105477	0.753752	0.832633
	C1448	C	0.103760	0.691591	0.837078
	C1449	C	0.103628	0.815629	0.837104
	C1450	C	0.105483	0.252658	0.832634
	C1451	C	0.103725	0.190510	0.837089
	C1452	C	0.103614	0.314835	0.837057
	C1453	C	0.112467	0.251749	0.795418
	C1454	C	0.111649	0.753688	0.758121
	C1455	C	0.069379	0.753467	0.756039
	C1456	C	0.049985	0.752672	0.857937
	C1457	C	0.111126	0.691416	0.781215
	C1458	C	0.111594	0.815622	0.781172
	C1459	C	0.112435	0.753467	0.767799
	C1460	C	0.062304	0.753688	0.765044
	C1461	C	0.059840	0.691742	0.769376
	C1462	C	0.111702	0.691413	0.772329
	C1463	C	0.112181	0.815621	0.772289
	C1464	C	0.059765	0.815656	0.769376
	C1465	C	0.111109	0.753587	0.785740
	C1466	C	0.092157	0.753083	0.859383
	C1467	C	0.100075	0.691318	0.845762
	C1468	C	0.099918	0.815419	0.845782
	C1469	C	0.098090	0.753312	0.850200
	C1470	C	0.076067	0.462491	0.873278
	C1471	C	0.093774	0.462884	0.741535
	C1472	C	0.067670	0.462658	0.869589
	C1473	C	0.076028	0.543473	0.873263
	C1474	C	0.067690	0.543433	0.869602
	C1475	C	0.093758	0.543612	0.741535
	C1476	C	0.092175	0.252898	0.859371
	C1477	C	0.099965	0.190618	0.845756
	C1478	C	0.099848	0.314930	0.845729
	C1479	C	0.098020	0.252848	0.850164
	C1480	C	0.097011	0.043575	0.744875
	C1481	C	0.111703	0.252833	0.758146
	C1482	C	0.069534	0.253323	0.756087
	C1483	C	0.049896	0.253407	0.857890
	C1484	C	0.111517	0.189910	0.781211
	C1485	C	0.111020	0.314037	0.781247
	C1486	C	0.112450	0.252492	0.767814
	C1487	C	0.062435	0.253479	0.765076
	C1488	C	0.048519	0.752729	0.848262
	C1489	C	0.048899	0.814993	0.843733
	C1490	C	0.048704	0.690673	0.843693
	C1491	C	0.048434	0.253438	0.848246
	C1492	C	0.048630	0.315700	0.843734
	C1493	C	0.048734	0.191501	0.843695
	C1494	C	0.060019	0.191485	0.769417
	C1495	C	0.112150	0.190202	0.772330
	C1496	C	0.111668	0.314347	0.772369
	C1497	C	0.059840	0.315486	0.769419
	C1498	C	0.110966	0.251894	0.785764
	C1499	C	0.068877	0.043318	0.868370
	C1500	C	0.088992	0.043686	0.743847
	C1501	C	0.097068	0.962795	0.744887
	C1502	C	0.068844	0.962527	0.868387
	C1503	C	0.089011	0.962749	0.743867
	N1504	N	0.030733	0.070709	0.805895
	N1505	N	0.030701	0.936080	0.805906
	N1506	N	0.030730	0.436006	0.805826
	N1507	N	0.030775	0.570567	0.805802
	N1508	N	0.069527	0.435595	0.872463
	N1509	N	0.069548	0.570091	0.872441
	N1510	N	0.069547	0.070255	0.872409
	N1511	N	0.069528	0.935610	0.872398
	O1512	O	0.102844	0.695143	0.927499
	O1513	O	0.102967	0.811953	0.927455
	O1514	O	0.025892	0.694533	0.945493
	O1515	O	0.025611	0.811278	0.945588
	O1516	O	0.025427	0.194079	0.945619
	O1517	O	0.025958	0.310839	0.945478
	O1518	O	0.026718	0.694534	0.925308
	O1519	O	0.026720	0.811264	0.925323
	O1520	O	0.026840	0.193999	0.925348
	O1521	O	0.026716	0.310553	0.925247
	O1522	O	0.101822	0.695936	0.947773
	O1523	O	0.101981	0.812733	0.947772
	O1524	O	0.102157	0.193844	0.947809
	O1525	O	0.101945	0.310395	0.947747
	O1526	O	0.102884	0.194220	0.927497
	O1527	O	0.103029	0.310940	0.927461
	O1528	O	0.088380	0.694467	0.883041
	O1529	O	0.050806	0.694399	0.882306
	O1530	O	0.078030	0.696005	0.990779
	O1531	O	0.077909	0.812666	0.990783
	O1532	O	0.040483	0.693939	0.989988
	O1533	O	0.040189	0.810648	0.989998
	O1534	O	0.050539	0.811243	0.882283
	O1535	O	0.088137	0.811226	0.883069
	O1536	O	0.088408	0.194587	0.883035
	O1537	O	0.050715	0.193987	0.882277
	O1538	O	0.077760	0.193868	0.990773
	O1539	O	0.077819	0.310574	0.990816
	O1540	O	0.040041	0.194917	0.990039
	O1541	O	0.040394	0.311686	0.989984
	O1542	O	0.050662	0.310758	0.882303
	O1543	O	0.088434	0.311316	0.883025
	H1544	H	0.031467	0.642737	0.959720
	H1545	H	0.031008	0.861878	0.959806
	H1546	H	0.030707	0.143438	0.959858
	H1547	H	0.031940	0.362425	0.959705
	H1548	H	0.035910	0.862596	0.911685
	H1549	H	0.035987	0.643243	0.911702
	H1550	H	0.035712	0.361711	0.911650
	H1551	H	0.036135	0.142307	0.911694
	H1552	H	0.121295	0.064839	0.943999
	H1553	H	0.131678	0.064456	0.942229
	H1554	H	0.131690	0.941264	0.942221
	H1555	H	0.121425	0.941199	0.943976
	H1556	H	0.108933	0.064812	0.939750
	H1557	H	0.108917	0.941036	0.939738
	H1558	H	0.002732	0.064575	0.933302
	H1559	H	0.002788	0.941714	0.933277
	H1560	H	0.001474	0.064944	0.935210
	H1561	H	0.001519	0.941363	0.935210
	H1562	H	0.005878	0.064684	0.937305
	H1563	H	0.005952	0.941111	0.937322
	H1564	H	0.000465	0.440733	0.931366
	H1565	H	-0.003137	0.441147	0.934723
	H1566	H	0.012022	0.441106	0.931119
	H1567	H	0.120305	0.440935	0.937926
	H1568	H	0.121592	0.441385	0.937701
	H1569	H	0.122386	0.441607	0.937938
	H1570	H	-0.003135	0.564481	0.934709
	H1571	H	0.000234	0.563970	0.931399
	H1572	H	0.122224	0.564370	0.937925
	H1573	H	0.121412	0.564792	0.937666
	H1574	H	0.120268	0.564790	0.937940
	H1575	H	0.012043	0.564584	0.931093
	H1576	H	0.092666	0.644956	0.961345
	H1577	H	0.092705	0.864348	0.961377
	H1578	H	0.092405	0.142721	0.961395
	H1579	H	0.092943	0.362078	0.961432
	H1580	H	0.042834	0.643058	0.896092
	H1581	H	0.093559	0.643040	0.897328
	H1582	H	0.094085	0.862485	0.897201
	H1583	H	0.042815	0.862542	0.896095
	H1584	H	0.096993	0.643405	0.913314
	H1585	H	0.097540	0.862842	0.913227
	H1586	H	0.085806	0.644816	0.976944
	H1587	H	0.085772	0.864273	0.976975
	H1588	H	0.077394	0.441122	0.875342
	H1589	H	0.062877	0.441499	1.003810
	H1590	H	0.066272	0.441150	0.876552
	H1591	H	0.060212	0.441062	0.873832
	H1592	H	0.063235	0.441440	0.997683
	H1593	H	0.066994	0.441426	1.000209
	H1594	H	0.063004	0.564617	1.003800
	H1595	H	0.077351	0.564665	0.875320
	H1596	H	0.067000	0.564827	1.000198
	H1597	H	0.063262	0.564784	0.997667
	H1598	H	0.060260	0.564704	0.873815
	H1599	H	0.066331	0.564840	0.876474
	H1600	H	0.085438	0.142650	0.976962
	H1601	H	0.086005	0.361972	0.977060
	H1602	H	0.078170	0.064555	0.877269
	H1603	H	0.083405	0.064062	0.872817
	H1604	H	0.062457	0.064782	0.877449
	H1605	H	0.034482	0.862011	0.975777
	H1606	H	0.034974	0.642413	0.975732
	H1607	H	0.035188	0.363007	0.975712
	H1608	H	0.033944	0.143660	0.975821
	H1609	H	0.043040	0.142502	0.896083
	H1610	H	0.094278	0.143286	0.897190
	H1611	H	0.093677	0.362650	0.897306
	H1612	H	0.042602	0.361782	0.896090
	H1613	H	0.097600	0.143045	0.913217
	H1614	H	0.096981	0.362176	0.913306
	H1615	H	0.051348	0.064811	1.001637
	H1616	H	0.056018	0.064616	1.003837
	H1617	H	0.064877	0.065323	1.002985
	H1618	H	0.083282	0.941058	0.872754
	H1619	H	0.078290	0.940667	0.877256
	H1620	H	0.062415	0.941263	0.877477
	H1621	H	0.051221	0.941495	1.001672
	H1622	H	0.056101	0.941653	1.003862
	H1623	H	0.065016	0.941597	1.002985
	Zn1624	Zn	0.007010	0.680487	0.934897
	Zn1625	Zn	0.006963	0.825063	0.934881
	Zn1626	Zn	0.006925	0.180840	0.934870
	Zn1627	Zn	0.007216	0.325326	0.934872
	Zn1628	Zn	0.059251	0.680452	1.000642
	Zn1629	Zn	0.058806	0.826021	1.000605
	Zn1630	Zn	0.058844	0.180503	1.000663
	Zn1631	Zn	0.059007	0.325730	1.000652
	C1632	C	0.100884	0.753478	0.923823
	C1633	C	0.027746	0.752773	0.949204
	C1634	C	0.031284	0.752272	0.958802
	C1635	C	0.032274	0.690209	0.963306
	C1636	C	0.031999	0.814258	0.963359
	C1637	C	0.027690	0.252631	0.949218
	C1638	C	0.031232	0.252896	0.958817
	C1639	C	0.031706	0.191040	0.963386
	C1640	C	0.032386	0.315122	0.963295
	C1641	C	0.029616	0.752923	0.921854
	C1642	C	0.035494	0.752932	0.912644
	C1643	C	0.037508	0.814931	0.908230
	C1644	C	0.037535	0.690867	0.908227
	C1645	C	0.029694	0.252116	0.921831
	C1646	C	0.035636	0.251935	0.912644
	C1647	C	0.037414	0.314026	0.908215
	C1648	C	0.037695	0.189936	0.908226
	C1649	C	0.125224	0.043362	0.941806
	C1650	C	0.125248	0.962610	0.941784
	C1651	C	0.003400	0.043350	0.934431
	C1652	C	0.003422	0.962593	0.934433
	C1653	C	0.007794	0.043235	0.936515
	C1654	C	0.007822	0.962588	0.936522
	C1655	C	0.000855	0.462408	0.933531
	C1656	C	0.120507	0.462581	0.938154
	C1657	C	0.121762	0.462416	0.937906
	C1658	C	0.000765	0.543207	0.933542
	C1659	C	0.121725	0.543112	0.937909
	C1660	C	0.120501	0.543477	0.938170
	C1661	C	0.099005	0.754420	0.951241
	C1662	C	0.099108	0.252165	0.951243
	C1663	C	0.093028	0.754643	0.960417
	C1664	C	0.091071	0.692539	0.964822
	C1665	C	0.091060	0.816681	0.964840
	C1666	C	0.093069	0.252446	0.960424
	C1667	C	0.090878	0.190458	0.964841
	C1668	C	0.091137	0.314427	0.964875
	C1669	C	0.100926	0.252530	0.923810
	C1670	C	0.090260	0.752799	0.886712
	C1671	C	0.048104	0.752798	0.885814
	C1672	C	0.038291	0.752258	0.986329
	C1673	C	0.096341	0.691024	0.909738
	C1674	C	0.096662	0.815125	0.909676
	C1675	C	0.093927	0.752772	0.896297
	C1676	C	0.042911	0.752826	0.895091
	C1677	C	0.041239	0.690790	0.899548
	C1678	C	0.094587	0.690811	0.900853
	C1679	C	0.094877	0.814945	0.900791
	C1680	C	0.041227	0.814915	0.899554
	C1681	C	0.097357	0.753185	0.914233
	C1682	C	0.080467	0.754408	0.987252
	C1683	C	0.087313	0.692554	0.973491
	C1684	C	0.087307	0.816583	0.973509
	C1685	C	0.085601	0.754499	0.977960
	C1686	C	0.059442	0.462713	1.002977
	C1687	C	0.064878	0.462517	0.874468
	C1688	C	0.063515	0.462635	0.999394
	C1689	C	0.059501	0.543525	1.002984
	C1690	C	0.063542	0.543561	0.999388
	C1691	C	0.064930	0.543314	0.874447
	C1692	C	0.080366	0.252282	0.987274
	C1693	C	0.087114	0.190419	0.973511
	C1694	C	0.087396	0.314433	0.973553
	C1695	C	0.085556	0.252378	0.977985
	C1696	C	0.077808	0.043249	0.874344
	C1697	C	0.090396	0.252972	0.886691
	C1698	C	0.048167	0.252313	0.885810
	C1699	C	0.038205	0.253276	0.986359
	C1700	C	0.096633	0.190638	0.909660
	C1701	C	0.096304	0.314640	0.909715
	C1702	C	0.093906	0.252918	0.896274
	C1703	C	0.042988	0.252073	0.895104
	C1704	C	0.034749	0.752093	0.976751
	C1705	C	0.033755	0.814242	0.972239
	C1706	C	0.034029	0.690142	0.972194
	C1707	C	0.034559	0.253363	0.976762
	C1708	C	0.034131	0.315293	0.972186
	C1709	C	0.033457	0.191272	0.972268
	C1710	C	0.041384	0.189988	0.899549
	C1711	C	0.094887	0.190807	0.900777
	C1712	C	0.094542	0.314865	0.900836
	C1713	C	0.041125	0.314108	0.899548
	C1714	C	0.097300	0.252529	0.914218
	C1715	C	0.055028	0.043487	1.002180
	C1716	C	0.061864	0.043162	0.874541
	C1717	C	0.077802	0.962340	0.874349
	C1718	C	0.054999	0.962885	1.002188
	C1719	C	0.061848	0.962330	0.874556
	N1720	N	0.006882	0.070203	0.934913
	N1721	N	0.006909	0.935464	0.934924
	N1722	N	0.007074	0.435737	0.934838
	N1723	N	0.007023	0.570366	0.934881
	N1724	N	0.059085	0.435689	1.000627
	N1725	N	0.059141	0.570198	1.000617
	N1726	N	0.058818	0.070398	1.000615
	N1727	N	0.058864	0.935923	1.000604
	O1728	O	0.252665	0.694278	0.047874
	O1729	O	0.252633	0.810608	0.047919
	O1730	O	0.120985	0.694894	0.076184
	O1731	O	0.120722	0.810996	0.076224
	O1732	O	0.120989	0.194650	0.076275
	O1733	O	0.121027	0.310730	0.076207
	O1734	O	0.118587	0.694642	0.057822
	O1735	O	0.118515	0.811311	0.057794
	O1736	O	0.118483	0.193973	0.057755
	O1737	O	0.118610	0.310811	0.057771
	O1738	O	0.254928	0.693960	0.066292
	O1739	O	0.254762	0.810755	0.066283
	O1740	O	0.255084	0.193802	0.066336
	O1741	O	0.254927	0.310642	0.066314
	O1742	O	0.252569	0.194483	0.047903
	O1743	O	0.252576	0.310752	0.047879
	O1744	O	0.183683	0.694416	0.013783
	O1745	O	0.145178	0.694849	0.015307
	O1746	O	0.228142	0.694180	0.108753
	O1747	O	0.228159	0.810706	0.108733
	O1748	O	0.189787	0.694992	0.110355
	O1749	O	0.189798	0.811191	0.110345
	O1750	O	0.145316	0.811394	0.015356
	O1751	O	0.183701	0.810846	0.013803
	O1752	O	0.183520	0.194785	0.013846
	O1753	O	0.145416	0.194338	0.015364
	O1754	O	0.228220	0.194044	0.108734
	O1755	O	0.228255	0.310437	0.108735
	O1756	O	0.189896	0.194801	0.110347
	O1757	O	0.189930	0.311000	0.110343
	O1758	O	0.145246	0.310785	0.015371
	O1759	O	0.183771	0.310871	0.013751
	H1760	H	0.143200	0.644883	0.087090
	H1761	H	0.143351	0.861301	0.087018
	H1762	H	0.143157	0.145336	0.087142
	H1763	H	0.143078	0.360735	0.087201
	H1764	H	0.129643	0.862505	0.044560
	H1765	H	0.129651	0.643413	0.044571
	H1766	H	0.129752	0.361880	0.044604
	H1767	H	0.129532	0.142594	0.044559
	H1768	H	0.276390	0.064628	0.051980
	H1769	H	0.267364	0.064204	0.053332
	H1770	H	0.267352	0.941270	0.053374
	H1771	H	0.276253	0.941101	0.052021
	H1772	H	0.286570	0.064757	0.055812
	H1773	H	0.286554	0.940952	0.055845
	H1774	H	0.101487	0.064537	0.068900
	H1775	H	0.101506	0.941519	0.068850
	H1776	H	0.102928	0.064599	0.067121
	H1777	H	0.102811	0.941347	0.067070
	H1778	H	0.099098	0.064874	0.065104
	H1779	H	0.098944	0.941529	0.065092
	H1780	H	0.100544	0.441416	0.066888
	H1781	H	0.099063	0.441171	0.066129
	H1782	H	0.099602	0.441719	0.068146
	H1783	H	0.274562	0.440913	0.059440
	H1784	H	0.269833	0.441236	0.057239
	H1785	H	0.271082	0.441131	0.055156
	H1786	H	0.099008	0.564874	0.066124
	H1787	H	0.100584	0.564341	0.066910
	H1788	H	0.271084	0.564867	0.055215
	H1789	H	0.269780	0.564221	0.057281
	H1790	H	0.274620	0.564235	0.059462
	H1791	H	0.099636	0.564883	0.068201
	H1792	H	0.244028	0.642795	0.079527
	H1793	H	0.243899	0.861526	0.079520
	H1794	H	0.243716	0.143037	0.079487
	H1795	H	0.244189	0.361747	0.079564
	H1796	H	0.138033	0.643494	0.029146
	H1797	H	0.205968	0.644081	0.024652
	H1798	H	0.206086	0.861072	0.024638
	H1799	H	0.137964	0.862427	0.029151
	H1800	H	0.230401	0.644161	0.037019
	H1801	H	0.230408	0.860958	0.037015
	H1802	H	0.235620	0.642906	0.094966
	H1803	H	0.235499	0.861700	0.094948
	H1804	H	0.160155	0.440989	0.004341
	H1805	H	0.213640	0.440753	0.120985
	H1806	H	0.161259	0.440840	0.004407
	H1807	H	0.161552	0.440617	0.004760
	H1808	H	0.215463	0.441590	0.118277
	H1809	H	0.216546	0.441402	0.119602
	H1810	H	0.213608	0.564676	0.121005
	H1811	H	0.160179	0.564655	0.004340
	H1812	H	0.216441	0.564287	0.119604
	H1813	H	0.215487	0.564744	0.118260
	H1814	H	0.161593	0.563721	0.004742
	H1815	H	0.161251	0.563923	0.004404
	H1816	H	0.235355	0.142829	0.094911
	H1817	H	0.235911	0.361640	0.095013
	H1818	H	0.156203	0.064146	0.004792
	H1819	H	0.158014	0.064694	0.006237
	H1820	H	0.158793	0.064388	0.002892
	H1821	H	0.167745	0.861236	0.099388
	H1822	H	0.167506	0.644896	0.099455
	H1823	H	0.167513	0.360763	0.099551
	H1824	H	0.167598	0.144932	0.099495
	H1825	H	0.138118	0.142876	0.029135
	H1826	H	0.205833	0.144609	0.024698
	H1827	H	0.205986	0.360770	0.024712
	H1828	H	0.138181	0.361848	0.029204
	H1829	H	0.230311	0.144372	0.036995
	H1830	H	0.230428	0.360285	0.037041
	H1831	H	0.210822	0.064741	0.119311
	H1832	H	0.211432	0.064651	0.120026
	H1833	H	0.213743	0.064812	0.120155
	H1834	H	0.158076	0.941188	0.006271
	H1835	H	0.156170	0.940861	0.004832
	H1836	H	0.158732	0.940701	0.002890
	H1837	H	0.210728	0.941262	0.119247
	H1838	H	0.211336	0.941557	0.120009
	H1839	H	0.213701	0.941035	0.120180
	Zn1840	Zn	0.098049	0.680433	0.067209
	Zn1841	Zn	0.097963	0.825753	0.067171
	Zn1842	Zn	0.098094	0.180404	0.067200
	Zn1843	Zn	0.098206	0.325712	0.067140
	Zn1844	Zn	0.212609	0.680080	0.119407
	Zn1845	Zn	0.212751	0.825548	0.119389
	Zn1846	Zn	0.212713	0.180332	0.119410
	Zn1847	Zn	0.212777	0.325470	0.119349
	C1848	C	0.246776	0.752489	0.045101
	C1849	C	0.126767	0.753044	0.078989
	C1850	C	0.141690	0.753137	0.086344
	C1851	C	0.148561	0.691901	0.089849
	C1852	C	0.148656	0.814340	0.089816
	C1853	C	0.126921	0.252751	0.079026
	C1854	C	0.141808	0.253042	0.086387
	C1855	C	0.148663	0.192035	0.089886
	C1856	C	0.148611	0.313992	0.089923
	C1857	C	0.121950	0.752956	0.054471
	C1858	C	0.129114	0.752981	0.045483
	C1859	C	0.131588	0.814935	0.041140
	C1860	C	0.131610	0.690957	0.041142
	C1861	C	0.121952	0.252363	0.054441
	C1862	C	0.129104	0.252222	0.045482
	C1863	C	0.131692	0.314312	0.041183
	C1864	C	0.131614	0.190156	0.041148
	C1865	C	0.272867	0.043117	0.053782
	C1866	C	0.272833	0.962407	0.053814
	C1867	C	0.101009	0.043382	0.067804
	C1868	C	0.100959	0.962748	0.067766
	C1869	C	0.097160	0.043557	0.065753
	C1870	C	0.097112	0.962738	0.065741
	C1871	C	0.099281	0.462675	0.066684
	C1872	C	0.276634	0.462156	0.058648
	C1873	C	0.271873	0.462456	0.056422
	C1874	C	0.099230	0.543642	0.066698
	C1875	C	0.271879	0.543319	0.056439
	C1876	C	0.276653	0.542985	0.058657
	C1877	C	0.251461	0.752287	0.069627
	C1878	C	0.251567	0.252203	0.069638
	C1879	C	0.244439	0.752096	0.078618
	C1880	C	0.242023	0.690234	0.082964
	C1881	C	0.241948	0.814007	0.082954
	C1882	C	0.244448	0.252320	0.078627
	C1883	C	0.241868	0.190408	0.082939
	C1884	C	0.242158	0.314280	0.082982
	C1885	C	0.246668	0.252554	0.045123
	C1886	C	0.189632	0.752615	0.016556
	C1887	C	0.143140	0.753039	0.018902
	C1888	C	0.183876	0.753096	0.107565
	C1889	C	0.224999	0.691146	0.034251
	C1890	C	0.225040	0.813967	0.034238
	C1891	C	0.204665	0.752590	0.023866
	C1892	C	0.138143	0.752931	0.028165
	C1893	C	0.136171	0.690982	0.032570
	C1894	C	0.211473	0.691182	0.027390
	C1895	C	0.211519	0.813935	0.027381
	C1896	C	0.136128	0.814877	0.032572
	C1897	C	0.231883	0.752548	0.037744
	C1898	C	0.230307	0.752376	0.105176
	C1899	C	0.237492	0.690353	0.091537
	C1900	C	0.237412	0.814064	0.091522
	C1901	C	0.235426	0.752267	0.095925
	C1902	C	0.212339	0.462205	0.120413
	C1903	C	0.161185	0.462257	0.004637
	C1904	C	0.215185	0.462632	0.119042
	C1905	C	0.212295	0.543201	0.120420
	C1906	C	0.215167	0.543165	0.119038
	C1907	C	0.161180	0.542875	0.004615
	C1908	C	0.230343	0.252198	0.105160
	C1909	C	0.237289	0.190313	0.091500
	C1910	C	0.237590	0.314230	0.091550
	C1911	C	0.235389	0.252219	0.095907
	C1912	C	0.157990	0.043126	0.005302
	C1913	C	0.189588	0.252797	0.016573
	C1914	C	0.143249	0.252485	0.018945
	C1915	C	0.183963	0.252895	0.107587
	C1916	C	0.224918	0.191287	0.034255
	C1917	C	0.224931	0.313550	0.034298
	C1918	C	0.204525	0.252752	0.023915
	C1919	C	0.138261	0.252311	0.028219
	C1920	C	0.168954	0.753108	0.100228
	C1921	C	0.162198	0.814315	0.096680
	C1922	C	0.162080	0.691869	0.096711
	C1923	C	0.169053	0.252805	0.100245
	C1924	C	0.162129	0.313929	0.096783
	C1925	C	0.162188	0.191871	0.096739
	C1926	C	0.136202	0.190257	0.032585
	C1927	C	0.211373	0.191503	0.027413
	C1928	C	0.211403	0.313742	0.027440
	C1929	C	0.136260	0.314230	0.032624
	C1930	C	0.231814	0.252367	0.037775
	C1931	C	0.211609	0.043287	0.119592
	C1932	C	0.160583	0.042974	0.003391
	C1933	C	0.158019	0.962333	0.005312
	C1934	C	0.211555	0.962728	0.119577
	C1935	C	0.160614	0.961970	0.003403
	N1936	N	0.097812	0.070309	0.067240
	N1937	N	0.097733	0.935801	0.067190
	N1938	N	0.097968	0.435879	0.067173
	N1939	N	0.097899	0.570410	0.067204
	N1940	N	0.212868	0.435558	0.119358
	N1941	N	0.212763	0.570030	0.119386
	N1942	N	0.212878	0.070215	0.119404
	N1943	N	0.212894	0.935709	0.119391
	O1944	O	0.232979	0.693099	0.175125
	O1945	O	0.232468	0.809956	0.175118
	O1946	O	0.167473	0.694421	0.192827
	O1947	O	0.167094	0.811117	0.192946
	O1948	O	0.167335	0.194825	0.192934
	O1949	O	0.167496	0.311695	0.192842
	O1950	O	0.165578	0.695257	0.171215
	O1951	O	0.165713	0.811721	0.171237
	O1952	O	0.165631	0.194899	0.171202
	O1953	O	0.165692	0.311358	0.171210
	O1954	O	0.233008	0.693617	0.196078
	O1955	O	0.232125	0.810361	0.195881
	O1956	O	0.232302	0.195221	0.195934
	O1957	O	0.232972	0.311923	0.196106
	O1958	O	0.232689	0.195582	0.175119
	O1959	O	0.232956	0.312252	0.175143
	O1960	O	0.230149	0.694332	0.130336
	O1961	O	0.192072	0.694707	0.128754
	O1962	O	0.208738	0.695767	0.239068
	O1963	O	0.207860	0.812345	0.238867
	O1964	O	0.170829	0.692689	0.237601
	O1965	O	0.170034	0.809392	0.237616
	O1966	O	0.192209	0.811685	0.128780
	O1967	O	0.229953	0.811169	0.130397
	O1968	O	0.230061	0.194595	0.130446
	O1969	O	0.192098	0.194645	0.128727
	O1970	O	0.207932	0.193214	0.238875
	O1971	O	0.208632	0.309775	0.239050
	O1972	O	0.169965	0.196057	0.237650
	O1973	O	0.170652	0.312679	0.237637
	O1974	O	0.192121	0.311446	0.128679
	O1975	O	0.230110	0.311318	0.130390
	H1976	H	0.169561	0.641889	0.207208
	H1977	H	0.167946	0.861950	0.207325
	H1978	H	0.168506	0.144314	0.207278
	H1979	H	0.169593	0.363777	0.207228
	H1980	H	0.172484	0.862789	0.157379
	H1981	H	0.172709	0.643864	0.157389
	H1982	H	0.172979	0.362406	0.157425
	H1983	H	0.172736	0.143892	0.157359
	H1984	H	0.244733	0.064363	0.188710
	H1985	H	0.251943	0.064727	0.189822
	H1986	H	0.251930	0.941202	0.189822
	H1987	H	0.244740	0.941132	0.188742
	H1988	H	0.242280	0.063566	0.184271
	H1989	H	0.242263	0.941109	0.184301
	H1990	H	0.148335	0.064686	0.180842
	H1991	H	0.148390	0.941719	0.180821
	H1992	H	0.147415	0.064150	0.181871
	H1993	H	0.147350	0.941115	0.181856
	H1994	H	0.149328	0.064443	0.183081
	H1995	H	0.149326	0.940713	0.183085
	H1996	H	0.154435	0.441272	0.178931
	H1997	H	0.147789	0.441656	0.178490
	H1998	H	0.158021	0.440916	0.182711
	H1999	H	0.238801	0.441433	0.184130
	H2000	H	0.250332	0.440975	0.180358
	H2001	H	0.260396	0.440899	0.182333
	H2002	H	0.147802	0.565158	0.178517
	H2003	H	0.154409	0.564824	0.178933
	H2004	H	0.260352	0.564371	0.182318
	H2005	H	0.250344	0.564488	0.180354
	H2006	H	0.238825	0.564416	0.184115
	H2007	H	0.157967	0.564711	0.182688
	H2008	H	0.225998	0.642864	0.210016
	H2009	H	0.224008	0.862311	0.209596
	H2010	H	0.224163	0.143205	0.209631
	H2011	H	0.225946	0.362381	0.209998
	H2012	H	0.181008	0.643637	0.141966
	H2013	H	0.232077	0.642296	0.144742
	H2014	H	0.230917	0.862027	0.144803
	H2015	H	0.180830	0.862868	0.141944
	H2016	H	0.231154	0.641986	0.160754
	H2017	H	0.229925	0.861596	0.160769
	H2018	H	0.219000	0.643778	0.225598
	H2019	H	0.216903	0.863240	0.225186
	H2020	H	0.210563	0.441089	0.120589
	H2021	H	0.203241	0.440623	0.251336
	H2022	H	0.209244	0.441055	0.118799
	H2023	H	0.211330	0.440807	0.117810
	H2024	H	0.186544	0.441010	0.241693
	H2025	H	0.199097	0.441198	0.243593
	H2026	H	0.203173	0.563975	0.251334
	H2027	H	0.210463	0.564352	0.120619
	H2028	H	0.199011	0.564305	0.243661
	H2029	H	0.186492	0.564726	0.241744
	H2030	H	0.211215	0.564970	0.117762
	H2031	H	0.209116	0.564198	0.118815
	H2032	H	0.216903	0.142106	0.225198
	H2033	H	0.218685	0.361678	0.225563
	H2034	H	0.213858	0.064431	0.118623
	H2035	H	0.212163	0.064719	0.118546
	H2036	H	0.214739	0.064421	0.119630
	H2037	H	0.167205	0.860932	0.223321
	H2038	H	0.168870	0.641340	0.223203
	H2039	H	0.168601	0.364278	0.223208
	H2040	H	0.167472	0.144653	0.223254
	H2041	H	0.181016	0.143996	0.141948
	H2042	H	0.231281	0.143735	0.144819
	H2043	H	0.231637	0.363329	0.144762
	H2044	H	0.181318	0.362759	0.141988
	H2045	H	0.230260	0.144094	0.160791
	H2046	H	0.230658	0.363863	0.160757
	H2047	H	0.211171	0.064472	0.253820
	H2048	H	0.211600	0.064175	0.244403
	H2049	H	0.186340	0.064292	0.237216
	H2050	H	0.212176	0.941121	0.118475
	H2051	H	0.213934	0.941460	0.118605
	H2052	H	0.214812	0.940816	0.119629
	H2053	H	0.211161	0.940893	0.253837
	H2054	H	0.211494	0.940898	0.244388
	H2055	H	0.186376	0.941076	0.237207
	Zn2056	Zn	0.150108	0.680542	0.181808
	Zn2057	Zn	0.150134	0.825435	0.181868
	Zn2058	Zn	0.150147	0.180769	0.181841
	Zn2059	Zn	0.150121	0.325655	0.181832
	Zn2060	Zn	0.188741	0.680321	0.248526
	Zn2061	Zn	0.187916	0.825015	0.248453
	Zn2062	Zn	0.188089	0.180512	0.248458
	Zn2063	Zn	0.188670	0.325110	0.248518
	C2064	C	0.231541	0.751443	0.171402
	C2065	C	0.168225	0.752524	0.196631
	C2066	C	0.169096	0.751991	0.206290
	C2067	C	0.169163	0.689603	0.210784
	C2068	C	0.168229	0.813948	0.210850
	C2069	C	0.168388	0.253442	0.196633
	C2070	C	0.169263	0.253951	0.206301
	C2071	C	0.168525	0.192039	0.210840
	C2072	C	0.169119	0.316207	0.210806
	C2073	C	0.167709	0.753515	0.167643
	C2074	C	0.172656	0.753501	0.158351
	C2075	C	0.174473	0.815426	0.153945
	C2076	C	0.174590	0.691337	0.153961
	C2077	C	0.167728	0.253119	0.167623
	C2078	C	0.172656	0.253205	0.158347
	C2079	C	0.174752	0.315110	0.153975
	C2080	C	0.174591	0.191388	0.153942
	C2081	C	0.248902	0.043292	0.188377
	C2082	C	0.248900	0.962114	0.188385
	C2083	C	0.148569	0.043098	0.181502
	C2084	C	0.148597	0.962601	0.181486
	C2085	C	0.150553	0.043293	0.182752
	C2086	C	0.150542	0.962299	0.182764
	C2087	C	0.150963	0.462664	0.179525
	C2088	C	0.242614	0.462348	0.186335
	C2089	C	0.254226	0.462196	0.182571
	C2090	C	0.150941	0.543474	0.179517
	C2091	C	0.254233	0.543183	0.182554
	C2092	C	0.242619	0.543030	0.186336
	C2093	C	0.230114	0.752104	0.199514
	C2094	C	0.230213	0.253425	0.199565
	C2095	C	0.225084	0.752468	0.208811
	C2096	C	0.223925	0.690698	0.213384
	C2097	C	0.222801	0.814815	0.213150
	C2098	C	0.225129	0.252909	0.208856
	C2099	C	0.222855	0.190633	0.213179
	C2100	C	0.223857	0.314608	0.213388
	C2101	C	0.231584	0.253988	0.171405
	C2102	C	0.230932	0.752620	0.134110
	C2103	C	0.188738	0.753223	0.132083
	C2104	C	0.169191	0.750970	0.233884
	C2105	C	0.231083	0.689643	0.157192
	C2106	C	0.230394	0.813938	0.157208
	C2107	C	0.231810	0.752162	0.143784
	C2108	C	0.181591	0.753320	0.141045
	C2109	C	0.179130	0.691246	0.145394
	C2110	C	0.231703	0.689993	0.148313
	C2111	C	0.231004	0.814201	0.148327
	C2112	C	0.178997	0.815370	0.145377
	C2113	C	0.230325	0.751605	0.161734
	C2114	C	0.211320	0.753979	0.235519
	C2115	C	0.220126	0.691242	0.222051
	C2116	C	0.218993	0.815352	0.221818
	C2117	C	0.217474	0.753531	0.226343
	C2118	C	0.195885	0.462103	0.251987
	C2119	C	0.210971	0.462362	0.118577
	C2120	C	0.191693	0.462366	0.244212
	C2121	C	0.195858	0.542933	0.251986
	C2122	C	0.191692	0.543231	0.244230
	C2123	C	0.210890	0.543283	0.118567
	C2124	C	0.211317	0.251576	0.235515
	C2125	C	0.218964	0.190133	0.221833
	C2126	C	0.219963	0.314091	0.222040
	C2127	C	0.217382	0.251871	0.226367
	C2128	C	0.213007	0.043338	0.118791
	C2129	C	0.230977	0.253089	0.134168
	C2130	C	0.188705	0.253145	0.132037
	C2131	C	0.169089	0.254420	0.233908
	C2132	C	0.230555	0.191821	0.157237
	C2133	C	0.230753	0.316029	0.157209
	C2134	C	0.231797	0.253590	0.143825
	C2135	C	0.181649	0.253318	0.141026
	C2136	C	0.167865	0.751055	0.224226
	C2137	C	0.167675	0.813459	0.219730
	C2138	C	0.168619	0.689155	0.219661
	C2139	C	0.167827	0.254430	0.224248
	C2140	C	0.168533	0.316416	0.219686
	C2141	C	0.167870	0.192316	0.219714
	C2142	C	0.179133	0.191468	0.145373
	C2143	C	0.231227	0.191561	0.148368
	C2144	C	0.231396	0.315805	0.148337
	C2145	C	0.179287	0.315131	0.145396
	C2146	C	0.230317	0.254037	0.161752
	C2147	C	0.205241	0.042943	0.248942
	C2148	C	0.213907	0.043463	0.119752
	C2149	C	0.213039	0.962604	0.118775
	C2150	C	0.205185	0.962060	0.248939
	C2151	C	0.213917	0.962257	0.119772
	N2152	N	0.150339	0.070279	0.181900
	N2153	N	0.150386	0.935699	0.181884
	N2154	N	0.150305	0.435599	0.181826
	N2155	N	0.150284	0.570136	0.181830
	N2156	N	0.188723	0.435462	0.248519
	N2157	N	0.188725	0.570035	0.248538
	N2158	N	0.188176	0.070005	0.248448
	N2159	N	0.188089	0.935363	0.248426
	O2160	O	0.232169	0.695283	0.302046
	O2161	O	0.232021	0.811803	0.302132
	O2162	O	0.145557	0.695910	0.321306
	O2163	O	0.144722	0.812566	0.321378
	O2164	O	0.144814	0.192891	0.321387
	O2165	O	0.145263	0.309575	0.321359
	O2166	O	0.146084	0.695105	0.301565
	O2167	O	0.145341	0.811766	0.301354
	O2168	O	0.145267	0.192974	0.301316
	O2169	O	0.145895	0.309641	0.301490
	O2170	O	0.231433	0.694567	0.322007
	O2171	O	0.231433	0.811120	0.322040
	O2172	O	0.231234	0.194449	0.321959
	O2173	O	0.231319	0.311049	0.321985
	O2174	O	0.231978	0.194175	0.302140
	O2175	O	0.232109	0.310810	0.302065
	O2176	O	0.208004	0.696111	0.258932
	O2177	O	0.170466	0.693210	0.258588
	O2178	O	0.206852	0.694320	0.364902
	O2179	O	0.206845	0.811039	0.364922
	O2180	O	0.169243	0.694404	0.364519
	O2181	O	0.169013	0.810871	0.364586
	O2182	O	0.169623	0.809555	0.258415
	O2183	O	0.207236	0.812843	0.258967
	O2184	O	0.207332	0.192831	0.258992
	O2185	O	0.169828	0.195867	0.258419
	O2186	O	0.206614	0.194096	0.364909
	O2187	O	0.206864	0.310735	0.364923
	O2188	O	0.169026	0.194617	0.364619
	O2189	O	0.169390	0.311156	0.364451
	O2190	O	0.170672	0.312356	0.258619
	O2191	O	0.208123	0.309393	0.258909
	H2192	H	0.154483	0.644730	0.335066
	H2193	H	0.152607	0.863281	0.335255
	H2194	H	0.152891	0.142098	0.335266
	H2195	H	0.154111	0.360450	0.335029
	H2196	H	0.154414	0.862305	0.287721
	H2197	H	0.156187	0.643197	0.288086
	H2198	H	0.156135	0.361525	0.288108
	H2199	H	0.154335	0.142794	0.287658
	H2200	H	0.246694	0.064454	0.314384
	H2201	H	0.251600	0.064091	0.315351
	H2202	H	0.251639	0.940865	0.315343
	H2203	H	0.246693	0.941028	0.314388
	H2204	H	0.245734	0.064301	0.311217
	H2205	H	0.245687	0.940754	0.311220
	H2206	H	0.120968	0.064715	0.308035
	H2207	H	0.120950	0.941123	0.308040
	H2208	H	0.117719	0.064298	0.310394
	H2209	H	0.117617	0.940948	0.310414
	H2210	H	0.122091	0.064572	0.313848
	H2211	H	0.122008	0.941129	0.313866
	H2212	H	0.114520	0.440922	0.314023
	H2213	H	0.124280	0.441330	0.316883
	H2214	H	0.115304	0.440611	0.307173
	H2215	H	0.250836	0.440834	0.311098
	H2216	H	0.254198	0.441187	0.311923
	H2217	H	0.254292	0.440845	0.313075
	H2218	H	0.124272	0.564546	0.316872
	H2219	H	0.114656	0.564775	0.314044
	H2220	H	0.254227	0.564555	0.313090
	H2221	H	0.254279	0.564421	0.311926
	H2222	H	0.250887	0.563937	0.311039
	H2223	H	0.115038	0.564296	0.307178
	H2224	H	0.221732	0.642873	0.335528
	H2225	H	0.221726	0.862511	0.335578
	H2226	H	0.221717	0.142894	0.335521
	H2227	H	0.221807	0.361977	0.335564
	H2228	H	0.163219	0.642344	0.272506
	H2229	H	0.216800	0.645538	0.272663
	H2230	H	0.215604	0.863980	0.272819
	H2231	H	0.161470	0.861424	0.272142
	H2232	H	0.224052	0.645221	0.288214
	H2233	H	0.222997	0.863503	0.288378
	H2234	H	0.214487	0.642920	0.351097
	H2235	H	0.214534	0.862096	0.351124
	H2236	H	0.193766	0.440631	0.255120
	H2237	H	0.171525	0.441175	0.374305
	H2238	H	0.176513	0.441025	0.252499
	H2239	H	0.173508	0.441176	0.246876
	H2240	H	0.196765	0.441120	0.381810
	H2241	H	0.182275	0.440955	0.381792
	H2242	H	0.171497	0.564291	0.374314
	H2243	H	0.193648	0.564285	0.255098
	H2244	H	0.182289	0.564534	0.381772
	H2245	H	0.196769	0.564007	0.381786
	H2246	H	0.173547	0.564695	0.246844
	H2247	H	0.176600	0.564604	0.252477
	H2248	H	0.214623	0.142671	0.351082
	H2249	H	0.214729	0.361825	0.351153
	H2250	H	0.166895	0.064435	0.254338
	H2251	H	0.185399	0.064328	0.259573
	H2252	H	0.167526	0.064754	0.241404
	H2253	H	0.159748	0.862684	0.350827
	H2254	H	0.161597	0.644076	0.350614
	H2255	H	0.161165	0.361363	0.350584
	H2256	H	0.160019	0.142900	0.350855
	H2257	H	0.161618	0.143731	0.272111
	H2258	H	0.215425	0.142184	0.272894
	H2259	H	0.217303	0.360690	0.272604
	H2260	H	0.163449	0.362996	0.272544
	H2261	H	0.222649	0.143093	0.288467
	H2262	H	0.224397	0.361370	0.288182
	H2263	H	0.182309	0.064589	0.371008
	H2264	H	0.177824	0.064532	0.374416
	H2265	H	0.184164	0.064173	0.379218
	H2266	H	0.185387	0.941077	0.259537
	H2267	H	0.166866	0.941068	0.254279
	H2268	H	0.167423	0.941045	0.241376
	H2269	H	0.182283	0.940761	0.371049
	H2270	H	0.177871	0.940906	0.374413
	H2271	H	0.184187	0.940910	0.379164
	Zn2272	Zn	0.125884	0.680407	0.310971
	Zn2273	Zn	0.125317	0.825359	0.310885
	Zn2274	Zn	0.125410	0.180492	0.310914
	Zn2275	Zn	0.126005	0.325195	0.310966
	Zn2276	Zn	0.188690	0.680266	0.374975
	Zn2277	Zn	0.188576	0.824889	0.374952
	Zn2278	Zn	0.188547	0.180216	0.374972
	Zn2279	Zn	0.188719	0.325112	0.374909
	C2280	C	0.229356	0.753676	0.298536
	C2281	C	0.147803	0.754261	0.324882
	C2282	C	0.153327	0.754099	0.334168
	C2283	C	0.155705	0.692169	0.338547
	C2284	C	0.154650	0.815718	0.338656
	C2285	C	0.147739	0.251164	0.324916
	C2286	C	0.153326	0.251205	0.334202
	C2287	C	0.154818	0.189594	0.338683
	C2288	C	0.155532	0.313232	0.338541
	C2289	C	0.148740	0.753278	0.298027
	C2290	C	0.154877	0.752839	0.288873
	C2291	C	0.156412	0.814488	0.284347
	C2292	C	0.157357	0.690618	0.284550
	C2293	C	0.148647	0.251436	0.297963
	C2294	C	0.154880	0.252061	0.288810
	C2295	C	0.157419	0.314359	0.284526
	C2296	C	0.156396	0.190490	0.284275
	C2297	C	0.249763	0.042906	0.314249
	C2298	C	0.249749	0.962310	0.314258
	C2299	C	0.120927	0.043181	0.309648
	C2300	C	0.120884	0.962346	0.309655
	C2301	C	0.125297	0.043140	0.313115
	C2302	C	0.125265	0.962233	0.313130
	C2303	C	0.121147	0.462308	0.314281
	C2304	C	0.250151	0.462100	0.311659
	C2305	C	0.253460	0.462225	0.312497
	C2306	C	0.121147	0.543091	0.314297
	C2307	C	0.253457	0.543239	0.312504
	C2308	C	0.250180	0.542932	0.311627
	C2309	C	0.228414	0.752784	0.325469
	C2310	C	0.228255	0.252731	0.325413
	C2311	C	0.222069	0.752701	0.334573
	C2312	C	0.220004	0.690581	0.338977
	C2313	C	0.220012	0.814658	0.338999
	C2314	C	0.222127	0.252537	0.334570
	C2315	C	0.220100	0.190494	0.338982
	C2316	C	0.220205	0.314352	0.339014
	C2317	C	0.229342	0.252404	0.298548
	C2318	C	0.210274	0.754624	0.262489
	C2319	C	0.167605	0.751468	0.262057
	C2320	C	0.166430	0.752742	0.360987
	C2321	C	0.222118	0.692612	0.284772
	C2322	C	0.221510	0.816225	0.284867
	C2323	C	0.215843	0.754677	0.271763
	C2324	C	0.162477	0.751860	0.271345
	C2325	C	0.161195	0.690081	0.275887
	C2326	C	0.218183	0.692847	0.276134
	C2327	C	0.217529	0.816445	0.276219
	C2328	C	0.160226	0.814039	0.275683
	C2329	C	0.223728	0.754213	0.289220
	C2330	C	0.209278	0.752720	0.361374
	C2331	C	0.216082	0.690589	0.347630
	C2332	C	0.216086	0.814586	0.347648
	C2333	C	0.214309	0.752647	0.352074
	C2334	C	0.178499	0.462481	0.372413
	C2335	C	0.178596	0.462398	0.249375
	C2336	C	0.189309	0.462433	0.379973
	C2337	C	0.178496	0.543115	0.372424
	C2338	C	0.189330	0.543214	0.379969
	C2339	C	0.178659	0.543281	0.249386
	C2340	C	0.209217	0.252374	0.361381
	C2341	C	0.216208	0.190388	0.347637
	C2342	C	0.216292	0.314254	0.347671
	C2343	C	0.214446	0.252325	0.352098
	C2344	C	0.179308	0.043123	0.254696
	C2345	C	0.210416	0.251080	0.262501
	C2346	C	0.167816	0.253969	0.262055
	C2347	C	0.166487	0.252670	0.360981
	C2348	C	0.221381	0.190276	0.284918
	C2349	C	0.222383	0.313847	0.284762
	C2350	C	0.216059	0.251377	0.271780
	C2351	C	0.162670	0.253500	0.271309
	C2352	C	0.160924	0.753319	0.351670
	C2353	C	0.158534	0.815411	0.347304
	C2354	C	0.159554	0.691670	0.347190
	C2355	C	0.160958	0.252114	0.351668
	C2356	C	0.159364	0.313652	0.347183
	C2357	C	0.158681	0.190141	0.347330
	C2358	C	0.160323	0.191234	0.275625
	C2359	C	0.217503	0.189856	0.276276
	C2360	C	0.218524	0.313368	0.276120
	C2361	C	0.161340	0.315023	0.275879
	C2362	C	0.223729	0.252272	0.289239
	C2363	C	0.182314	0.043236	0.373313
	C2364	C	0.179864	0.043250	0.241721
	C2365	C	0.179250	0.962391	0.254695
	C2366	C	0.182341	0.962231	0.373312
	C2367	C	0.179811	0.962350	0.241695
	N2368	N	0.125347	0.070091	0.310879
	N2369	N	0.125289	0.935480	0.310887
	N2370	N	0.125977	0.435395	0.310976
	N2371	N	0.125886	0.569992	0.310970
	N2372	N	0.188809	0.435523	0.374940
	N2373	N	0.188799	0.570121	0.374917
	N2374	N	0.188568	0.070051	0.375009
	N2375	N	0.188640	0.935431	0.375000
	O2376	O	0.209358	0.695075	0.430553
	O2377	O	0.209191	0.811855	0.430501
	O2378	O	0.143948	0.694461	0.448308
	O2379	O	0.144140	0.811104	0.448264
	O2380	O	0.144280	0.194908	0.448196
	O2381	O	0.143904	0.311574	0.448271
	O2382	O	0.144151	0.693875	0.427398
	O2383	O	0.144266	0.810655	0.427361
	O2384	O	0.144177	0.194943	0.427347
	O2385	O	0.144178	0.311689	0.427405
	O2386	O	0.211308	0.694213	0.452169
	O2387	O	0.211415	0.810736	0.452219
	O2388	O	0.211309	0.194848	0.452162
	O2389	O	0.211468	0.311366	0.452229
	O2390	O	0.209273	0.194960	0.430491
	O2391	O	0.209411	0.311876	0.430535
	O2392	O	0.206584	0.694609	0.385813
	O2393	O	0.168700	0.693901	0.384456
	O2394	O	0.184843	0.693558	0.494702
	O2395	O	0.184924	0.810588	0.494677
	O2396	O	0.147004	0.695174	0.493015
	O2397	O	0.147129	0.812113	0.492995
	O2398	O	0.168498	0.810624	0.384444
	O2399	O	0.206655	0.811212	0.385784
	O2400	O	0.206552	0.194129	0.385796
	O2401	O	0.168514	0.195229	0.384463
	O2402	O	0.185011	0.194997	0.494702
	O2403	O	0.184687	0.311567	0.494647
	O2404	O	0.147131	0.193651	0.492988
	O2405	O	0.146696	0.310579	0.493023
	O2406	O	0.168788	0.311738	0.384468
	O2407	O	0.206743	0.310964	0.385754
	H2408	H	0.146345	0.643153	0.462719
	H2409	H	0.146561	0.862966	0.462598
	H2410	H	0.146668	0.143083	0.462588
	H2411	H	0.146170	0.362507	0.462626
	H2412	H	0.151469	0.861785	0.413499
	H2413	H	0.152139	0.642192	0.413613
	H2414	H	0.152295	0.363170	0.413645
	H2415	H	0.151258	0.143997	0.413541
	H2416	H	0.233737	0.064818	0.444105
	H2417	H	0.235325	0.064728	0.440854
	H2418	H	0.235353	0.941784	0.440879
	H2419	H	0.233693	0.940992	0.444136
	H2420	H	0.223756	0.064230	0.445207
	H2421	H	0.223685	0.940838	0.445197
	H2422	H	0.115470	0.064422	0.433436
	H2423	H	0.115526	0.940873	0.433453
	H2424	H	0.112681	0.064156	0.438285
	H2425	H	0.112717	0.941202	0.438316
	H2426	H	0.124091	0.064541	0.443306
	H2427	H	0.124104	0.941415	0.443301
	H2428	H	0.105525	0.441526	0.436852
	H2429	H	0.112424	0.441234	0.443819
	H2430	H	0.119390	0.441255	0.428824
	H2431	H	0.217196	0.440693	0.440238
	H2432	H	0.225700	0.441081	0.437188
	H2433	H	0.233490	0.441147	0.438584
	H2434	H	0.112426	0.564927	0.443852
	H2435	H	0.105579	0.564735	0.436818
	H2436	H	0.233438	0.564400	0.438611
	H2437	H	0.225754	0.564230	0.437169
	H2438	H	0.217175	0.564625	0.440245
	H2439	H	0.119315	0.564495	0.428846
	H2440	H	0.204417	0.642659	0.466039
	H2441	H	0.203817	0.861528	0.465982
	H2442	H	0.204187	0.144070	0.465976
	H2443	H	0.204199	0.362806	0.466047
	H2444	H	0.159379	0.642218	0.398049
	H2445	H	0.208589	0.643349	0.400192
	H2446	H	0.209096	0.862601	0.400119
	H2447	H	0.158751	0.861651	0.397934
	H2448	H	0.207582	0.643502	0.416204
	H2449	H	0.208084	0.862899	0.416110
	H2450	H	0.196117	0.642404	0.481488
	H2451	H	0.195477	0.861300	0.481425
	H2452	H	0.178081	0.441383	0.368745
	H2453	H	0.167279	0.441667	0.504880
	H2454	H	0.197975	0.441055	0.368708
	H2455	H	0.205785	0.440829	0.374223
	H2456	H	0.163936	0.441160	0.502366
	H2457	H	0.166889	0.441476	0.503000
	H2458	H	0.167240	0.564913	0.504868
	H2459	H	0.178166	0.564752	0.368769
	H2460	H	0.166875	0.564271	0.503028
	H2461	H	0.163942	0.564756	0.502375
	H2462	H	0.205788	0.564258	0.374193
	H2463	H	0.197873	0.565073	0.368748
	H2464	H	0.195928	0.144019	0.481436
	H2465	H	0.195966	0.362652	0.481482
	H2466	H	0.199252	0.064447	0.374716
	H2467	H	0.194615	0.064505	0.371282
	H2468	H	0.193246	0.064149	0.379353
	H2469	H	0.145688	0.863403	0.478622
	H2470	H	0.145444	0.643718	0.478713
	H2471	H	0.145332	0.362279	0.478636
	H2472	H	0.145807	0.142631	0.478579
	H2473	H	0.158526	0.143828	0.397987
	H2474	H	0.208711	0.142928	0.400137
	H2475	H	0.209160	0.362573	0.400176
	H2476	H	0.159513	0.363315	0.398101
	H2477	H	0.207907	0.143067	0.416143
	H2478	H	0.208242	0.362735	0.416180
	H2479	H	0.156150	0.064283	0.504496
	H2480	H	0.160119	0.064867	0.507107
	H2481	H	0.169692	0.065133	0.506988
	H2482	H	0.194723	0.940893	0.371211
	H2483	H	0.199315	0.941121	0.374741
	H2484	H	0.193212	0.941022	0.379317
	H2485	H	0.156194	0.940849	0.504521
	H2486	H	0.160038	0.941592	0.507111
	H2487	H	0.169580	0.941402	0.507086
	Zn2488	Zn	0.125925	0.680538	0.437441
	Zn2489	Zn	0.126154	0.825299	0.437443
	Zn2490	Zn	0.126213	0.180433	0.437429
	Zn2491	Zn	0.125906	0.325415	0.437444
	Zn2492	Zn	0.164162	0.680624	0.504045
	Zn2493	Zn	0.164429	0.825493	0.504055
	Zn2494	Zn	0.164381	0.180390	0.504087
	Zn2495	Zn	0.164078	0.325525	0.504036
	C2496	C	0.208352	0.753346	0.426794
	C2497	C	0.145262	0.752870	0.452014
	C2498	C	0.146602	0.753076	0.461687
	C2499	C	0.146217	0.691075	0.466249
	C2500	C	0.146370	0.815348	0.466185
	C2501	C	0.145263	0.253075	0.451976
	C2502	C	0.146623	0.252795	0.461646
	C2503	C	0.146460	0.190645	0.466161
	C2504	C	0.146185	0.314813	0.466192
	C2505	C	0.146612	0.752153	0.423846
	C2506	C	0.151602	0.752069	0.414544
	C2507	C	0.153226	0.814058	0.410071
	C2508	C	0.153595	0.689950	0.410137
	C2509	C	0.146581	0.253466	0.423844
	C2510	C	0.151698	0.253622	0.414566
	C2511	C	0.153746	0.315578	0.410167
	C2512	C	0.153188	0.191626	0.410107
	C2513	C	0.232379	0.043304	0.442230
	C2514	C	0.232358	0.962439	0.442262
	C2515	C	0.117312	0.043210	0.436275
	C2516	C	0.117323	0.962339	0.436284
	C2517	C	0.128744	0.043200	0.441325
	C2518	C	0.128773	0.962544	0.441322
	C2519	C	0.113451	0.462739	0.439559
	C2520	C	0.220150	0.462225	0.441879
	C2521	C	0.228786	0.462424	0.438844
	C2522	C	0.113461	0.543594	0.439572
	C2523	C	0.228781	0.543159	0.438853
	C2524	C	0.220136	0.543265	0.441881
	C2525	C	0.209230	0.752437	0.455764
	C2526	C	0.209310	0.253060	0.455771
	C2527	C	0.204287	0.752113	0.465051
	C2528	C	0.202465	0.690087	0.469466
	C2529	C	0.202124	0.814038	0.469428
	C2530	C	0.204332	0.253291	0.465044
	C2531	C	0.202350	0.191439	0.469421
	C2532	C	0.202390	0.315143	0.469467
	C2533	C	0.208454	0.253471	0.426776
	C2534	C	0.207805	0.752925	0.389542
	C2535	C	0.165504	0.752178	0.387874
	C2536	C	0.146082	0.753641	0.489272
	C2537	C	0.207879	0.691087	0.412638
	C2538	C	0.208154	0.815080	0.412585
	C2539	C	0.209071	0.752868	0.399208
	C2540	C	0.159277	0.751983	0.397034
	C2541	C	0.157445	0.689898	0.401478
	C2542	C	0.208567	0.690964	0.403759
	C2543	C	0.208835	0.814980	0.403710
	C2544	C	0.157118	0.814039	0.401417
	C2545	C	0.207556	0.753161	0.417147
	C2546	C	0.188217	0.751974	0.491354
	C2547	C	0.197955	0.689861	0.478050
	C2548	C	0.197607	0.813797	0.478005
	C2549	C	0.195288	0.751816	0.482355
	C2550	C	0.165435	0.462335	0.504940
	C2551	C	0.198430	0.462323	0.372377
	C2552	C	0.165004	0.462614	0.503033
	C2553	C	0.165427	0.543365	0.504947
	C2554	C	0.164975	0.543422	0.503055
	C2555	C	0.198392	0.543384	0.372380
	C2556	C	0.188203	0.253295	0.491325
	C2557	C	0.197813	0.191430	0.477995
	C2558	C	0.197820	0.315199	0.478036
	C2559	C	0.195342	0.253264	0.482355
	C2560	C	0.194792	0.043163	0.373505
	C2561	C	0.207805	0.252622	0.389504
	C2562	C	0.165638	0.253565	0.387918
	C2563	C	0.146018	0.252150	0.489268
	C2564	C	0.208141	0.190724	0.412580
	C2565	C	0.208310	0.315063	0.412610
	C2566	C	0.209165	0.252750	0.399174
	C2567	C	0.159470	0.253554	0.397063
	C2568	C	0.145196	0.753620	0.479617
	C2569	C	0.145750	0.815649	0.475063
	C2570	C	0.145584	0.691269	0.475123
	C2571	C	0.145252	0.252395	0.479594
	C2572	C	0.145556	0.314608	0.475070
	C2573	C	0.145849	0.190490	0.475036
	C2574	C	0.157113	0.191578	0.401456
	C2575	C	0.208755	0.190650	0.403697
	C2576	C	0.208934	0.314826	0.403728
	C2577	C	0.157669	0.315549	0.401520
	C2578	C	0.207713	0.252975	0.417117
	C2579	C	0.159760	0.043286	0.505353
	C2580	C	0.188673	0.042943	0.378149
	C2581	C	0.194804	0.962267	0.373509
	C2582	C	0.159734	0.962479	0.505354
	C2583	C	0.188685	0.962237	0.378130
	N2584	N	0.126193	0.070028	0.437424
	N2585	N	0.126213	0.935461	0.437412
	N2586	N	0.125942	0.435724	0.437394
	N2587	N	0.125922	0.570306	0.437422
	N2588	N	0.163936	0.435746	0.504029
	N2589	N	0.163941	0.570352	0.504061
	N2590	N	0.164292	0.070070	0.504068
	N2591	N	0.164261	0.935536	0.504077
	O2592	O	0.257549	0.694948	0.546771
	O2593	O	0.257580	0.811296	0.546776
	O2594	O	0.124568	0.694822	0.575536
	O2595	O	0.124657	0.810959	0.575506
	O2596	O	0.124801	0.195307	0.575438
	O2597	O	0.124569	0.311549	0.575525
	O2598	O	0.122136	0.694577	0.557187
	O2599	O	0.122163	0.811285	0.557231
	O2600	O	0.122126	0.194872	0.557136
	O2601	O	0.122042	0.311649	0.557127
	O2602	O	0.259775	0.694897	0.565118
	O2603	O	0.259970	0.811666	0.565145
	O2604	O	0.259889	0.194515	0.565110
	O2605	O	0.259937	0.311202	0.565073
	O2606	O	0.257525	0.195020	0.546791
	O2607	O	0.257500	0.311166	0.546775
	O2608	O	0.187268	0.694309	0.513080
	O2609	O	0.148810	0.695321	0.514720
	O2610	O	0.233137	0.694800	0.607592
	O2611	O	0.233189	0.811334	0.607595
	O2612	O	0.194805	0.695182	0.609300
	O2613	O	0.194899	0.811486	0.609246
	O2614	O	0.149013	0.811766	0.514704
	O2615	O	0.187486	0.810612	0.512991
	O2616	O	0.187336	0.195174	0.513043
	O2617	O	0.148664	0.194362	0.514655
	O2618	O	0.233012	0.195201	0.607549
	O2619	O	0.233247	0.311855	0.607613
	O2620	O	0.194811	0.194915	0.609271
	O2621	O	0.194709	0.311443	0.609325
	O2622	O	0.148813	0.310853	0.514682
	O2623	O	0.187086	0.311685	0.513072
	H2624	H	0.147162	0.644382	0.586352
	H2625	H	0.147619	0.861785	0.586202
	H2626	H	0.147428	0.145024	0.586212
	H2627	H	0.147347	0.362067	0.586274
	H2628	H	0.132845	0.862756	0.543937
	H2629	H	0.133219	0.643608	0.543921
	H2630	H	0.133476	0.362662	0.543925
	H2631	H	0.132758	0.143324	0.543863
	H2632	H	0.268074	0.064664	0.560149
	H2633	H	0.280655	0.065179	0.563063
	H2634	H	0.280745	0.940805	0.563071
	H2635	H	0.268089	0.941143	0.560166
	H2636	H	0.266460	0.064463	0.551805
	H2637	H	0.266350	0.941918	0.551788
	H2638	H	0.095802	0.065064	0.567288
	H2639	H	0.095764	0.941764	0.567314
	H2640	H	0.099273	0.064793	0.568942
	H2641	H	0.099240	0.941094	0.568912
	H2642	H	0.106096	0.064865	0.568377
	H2643	H	0.106028	0.940603	0.568350
	H2644	H	0.102070	0.441375	0.571493
	H2645	H	0.110357	0.442096	0.569643
	H2646	H	0.091015	0.441405	0.568284
	H2647	H	0.284248	0.440997	0.554176
	H2648	H	0.285470	0.441388	0.556755
	H2649	H	0.282169	0.441311	0.557926
	H2650	H	0.110340	0.564768	0.569649
	H2651	H	0.102058	0.565220	0.571488
	H2652	H	0.282085	0.564393	0.557953
	H2653	H	0.285326	0.564557	0.556802
	H2654	H	0.284128	0.565130	0.554166
	H2655	H	0.091006	0.564644	0.568317
	H2656	H	0.249086	0.643373	0.578403
	H2657	H	0.248505	0.862854	0.578329
	H2658	H	0.248654	0.143868	0.578296
	H2659	H	0.248965	0.362660	0.578355
	H2660	H	0.141598	0.644019	0.528489
	H2661	H	0.209977	0.644583	0.523876
	H2662	H	0.209928	0.860928	0.523826
	H2663	H	0.141258	0.863041	0.528506
	H2664	H	0.234855	0.645132	0.536083
	H2665	H	0.234758	0.861040	0.536071
	H2666	H	0.240630	0.643389	0.593824
	H2667	H	0.240018	0.862577	0.593747
	H2668	H	0.164757	0.440908	0.505668
	H2669	H	0.210209	0.441511	0.616639
	H2670	H	0.160682	0.441246	0.504790
	H2671	H	0.160409	0.441082	0.503429
	H2672	H	0.218854	0.441658	0.622044
	H2673	H	0.212058	0.441587	0.620914
	H2674	H	0.210180	0.564829	0.616576
	H2675	H	0.164645	0.564929	0.505687
	H2676	H	0.212007	0.565023	0.620806
	H2677	H	0.218754	0.564728	0.622046
	H2678	H	0.160396	0.564466	0.503454
	H2679	H	0.160733	0.564522	0.504818
	H2680	H	0.240225	0.144112	0.593750
	H2681	H	0.240645	0.362649	0.593788
	H2682	H	0.167241	0.064333	0.500748
	H2683	H	0.160301	0.064189	0.500799
	H2684	H	0.172657	0.065034	0.504269
	H2685	H	0.172349	0.861636	0.598457
	H2686	H	0.171941	0.644755	0.598616
	H2687	H	0.172135	0.361739	0.598541
	H2688	H	0.172279	0.145064	0.598459
	H2689	H	0.141151	0.142861	0.528444
	H2690	H	0.209727	0.145037	0.523825
	H2691	H	0.209760	0.362108	0.523882
	H2692	H	0.141855	0.362357	0.528489
	H2693	H	0.234688	0.144700	0.536042
	H2694	H	0.234709	0.361719	0.536096
	H2695	H	0.216471	0.064458	0.621790
	H2696	H	0.223250	0.064333	0.621175
	H2697	H	0.225863	0.064266	0.617227
	H2698	H	0.160349	0.940855	0.500806
	H2699	H	0.167265	0.940978	0.500759
	H2700	H	0.172669	0.941249	0.504332
	H2701	H	0.216473	0.941008	0.621767
	H2702	H	0.223169	0.941042	0.621178
	H2703	H	0.225867	0.941391	0.617205
	Zn2704	Zn	0.101474	0.680700	0.566543
	Zn2705	Zn	0.101530	0.825512	0.566529
	Zn2706	Zn	0.101616	0.180519	0.566552
	Zn2707	Zn	0.101423	0.325471	0.566535
	Zn2708	Zn	0.217853	0.680368	0.618263
	Zn2709	Zn	0.217816	0.825743	0.618268
	Zn2710	Zn	0.217867	0.180268	0.618271
	Zn2711	Zn	0.217842	0.325706	0.618286
	C2712	C	0.251486	0.753124	0.544067
	C2713	C	0.130649	0.752889	0.578266
	C2714	C	0.145844	0.753022	0.585515
	C2715	C	0.152757	0.691600	0.589029
	C2716	C	0.152984	0.814498	0.588954
	C2717	C	0.130714	0.253447	0.578224
	C2718	C	0.145917	0.253510	0.585490
	C2719	C	0.152933	0.192159	0.588946
	C2720	C	0.152876	0.314916	0.588987
	C2721	C	0.125511	0.752989	0.553871
	C2722	C	0.132523	0.753203	0.544873
	C2723	C	0.134910	0.815259	0.540520
	C2724	C	0.135093	0.691336	0.540507
	C2725	C	0.125464	0.253232	0.553793
	C2726	C	0.132582	0.252974	0.544818
	C2727	C	0.135297	0.314929	0.540488
	C2728	C	0.134914	0.190836	0.540458
	C2729	C	0.276152	0.043745	0.560075
	C2730	C	0.276156	0.962524	0.560086
	C2731	C	0.098547	0.043591	0.567726
	C2732	C	0.098505	0.962787	0.567713
	C2733	C	0.105322	0.043399	0.567094
	C2734	C	0.105286	0.962454	0.567096
	C2735	C	0.104879	0.462776	0.569494
	C2736	C	0.281775	0.462680	0.554320
	C2737	C	0.283022	0.462632	0.556924
	C2738	C	0.104882	0.543856	0.569507
	C2739	C	0.282985	0.543136	0.556936
	C2740	C	0.281761	0.543589	0.554350
	C2741	C	0.256498	0.753335	0.568467
	C2742	C	0.256513	0.252921	0.568426
	C2743	C	0.249338	0.753155	0.577441
	C2744	C	0.246965	0.691027	0.581798
	C2745	C	0.246653	0.815165	0.581761
	C2746	C	0.249298	0.253213	0.577396
	C2747	C	0.246719	0.191405	0.581728
	C2748	C	0.246903	0.315122	0.581759
	C2749	C	0.251481	0.253076	0.544038
	C2750	C	0.193337	0.752488	0.515795
	C2751	C	0.146770	0.753616	0.518291
	C2752	C	0.188854	0.753296	0.606516
	C2753	C	0.229296	0.691894	0.533351
	C2754	C	0.229240	0.814172	0.533339
	C2755	C	0.208479	0.752724	0.523093
	C2756	C	0.141673	0.753632	0.527561
	C2757	C	0.139682	0.691506	0.531931
	C2758	C	0.215514	0.691678	0.526561
	C2759	C	0.215480	0.814005	0.526536
	C2760	C	0.139484	0.815488	0.531942
	C2761	C	0.236264	0.753132	0.536814
	C2762	C	0.235258	0.753052	0.604017
	C2763	C	0.242398	0.690983	0.590371
	C2764	C	0.242071	0.815101	0.590332
	C2765	C	0.240208	0.753037	0.594736
	C2766	C	0.214294	0.462772	0.616330
	C2767	C	0.161430	0.462664	0.504100
	C2768	C	0.216129	0.462770	0.620620
	C2769	C	0.214307	0.543464	0.616321
	C2770	C	0.216131	0.543693	0.620603
	C2771	C	0.161434	0.543349	0.504104
	C2772	C	0.235199	0.253522	0.603998
	C2773	C	0.242136	0.191522	0.590305
	C2774	C	0.242366	0.315229	0.590337
	C2775	C	0.240186	0.253416	0.594710
	C2776	C	0.163927	0.043087	0.501639
	C2777	C	0.193217	0.253507	0.515800
	C2778	C	0.146634	0.252601	0.518248
	C2779	C	0.188734	0.253199	0.606561
	C2780	C	0.229194	0.191891	0.533307
	C2781	C	0.229217	0.314590	0.533343
	C2782	C	0.208468	0.253585	0.523050
	C2783	C	0.141628	0.252593	0.527519
	C2784	C	0.173670	0.753216	0.599228
	C2785	C	0.166787	0.814559	0.595733
	C2786	C	0.166560	0.691754	0.595805
	C2787	C	0.173592	0.253373	0.599266
	C2788	C	0.166630	0.314824	0.595799
	C2789	C	0.166681	0.192099	0.595755
	C2790	C	0.139437	0.190557	0.531883
	C2791	C	0.215401	0.192044	0.526516
	C2792	C	0.215427	0.314894	0.526550
	C2793	C	0.139836	0.314775	0.531914
	C2794	C	0.236286	0.253157	0.536766
	C2795	C	0.219415	0.043310	0.620644
	C2796	C	0.169354	0.043532	0.505228
	C2797	C	0.163928	0.962407	0.501649
	C2798	C	0.219401	0.962410	0.620638
	C2799	C	0.169322	0.962430	0.505256
	N2800	N	0.101435	0.070240	0.566547
	N2801	N	0.101364	0.935689	0.566539
	N2802	N	0.101278	0.435834	0.566559
	N2803	N	0.101225	0.570440	0.566553
	N2804	N	0.218067	0.435871	0.618315
	N2805	N	0.218021	0.570411	0.618274
	N2806	N	0.218079	0.070277	0.618298
	N2807	N	0.218063	0.935776	0.618269
	O2808	O	0.238488	0.694660	0.674075
	O2809	O	0.238362	0.811535	0.674089
	O2810	O	0.173058	0.694132	0.691923
	O2811	O	0.173130	0.811065	0.691889
	O2812	O	0.173138	0.195151	0.691859
	O2813	O	0.172997	0.311865	0.691921
	O2814	O	0.170921	0.694389	0.670111
	O2815	O	0.171142	0.810861	0.670160
	O2816	O	0.171410	0.195414	0.670220
	O2817	O	0.171172	0.311840	0.670183
	O2818	O	0.237685	0.694814	0.694718
	O2819	O	0.237874	0.811413	0.694724
	O2820	O	0.238097	0.194144	0.694779
	O2821	O	0.237854	0.310874	0.694752
	O2822	O	0.238608	0.194026	0.674081
	O2823	O	0.238414	0.310668	0.674064
	O2824	O	0.235132	0.694279	0.629330
	O2825	O	0.197314	0.694761	0.627649
	O2826	O	0.214133	0.694833	0.737811
	O2827	O	0.214277	0.811657	0.737834
	O2828	O	0.176140	0.694446	0.736640
	O2829	O	0.176156	0.811154	0.736648
	O2830	O	0.197367	0.811616	0.627663
	O2831	O	0.235116	0.811131	0.629306
	O2832	O	0.235207	0.194642	0.629266
	O2833	O	0.197223	0.194469	0.627634
	O2834	O	0.214098	0.193919	0.737781
	O2835	O	0.214217	0.310700	0.737804
	O2836	O	0.176299	0.194611	0.736625
	O2837	O	0.176259	0.311510	0.736656
	O2838	O	0.197117	0.311257	0.627599
	O2839	O	0.235122	0.311497	0.629364
	H2840	H	0.174205	0.642767	0.706291
	H2841	H	0.174681	0.862298	0.706331
	H2842	H	0.174466	0.143381	0.706276
	H2843	H	0.174179	0.363226	0.706297
	H2844	H	0.178260	0.862144	0.656334
	H2845	H	0.178294	0.643522	0.656311
	H2846	H	0.178115	0.362792	0.656272
	H2847	H	0.178453	0.144105	0.656370
	H2848	H	0.242342	0.064682	0.685567
	H2849	H	0.249196	0.064392	0.690194
	H2850	H	0.249238	0.940801	0.690164
	H2851	H	0.242361	0.940862	0.685564
	H2852	H	0.249857	0.064767	0.679075
	H2853	H	0.249899	0.941475	0.679063
	H2854	H	0.153604	0.064760	0.680835
	H2855	H	0.153573	0.941472	0.680852
	H2856	H	0.154579	0.064719	0.681710
	H2857	H	0.154558	0.941609	0.681709
	H2858	H	0.157539	0.064969	0.681728
	H2859	H	0.157525	0.941137	0.681759
	H2860	H	0.148807	0.441355	0.682706
	H2861	H	0.154938	0.441301	0.684547
	H2862	H	0.149121	0.441948	0.678457
	H2863	H	0.260455	0.441225	0.683383
	H2864	H	0.261287	0.441119	0.685974
	H2865	H	0.257814	0.441389	0.687072
	H2866	H	0.154963	0.564494	0.684519
	H2867	H	0.148810	0.565307	0.682731
	H2868	H	0.257946	0.564716	0.687117
	H2869	H	0.261448	0.564611	0.685986
	H2870	H	0.260521	0.564202	0.683335
	H2871	H	0.148973	0.564700	0.678433
	H2872	H	0.229799	0.643570	0.708519
	H2873	H	0.230256	0.863022	0.708581
	H2874	H	0.230327	0.142499	0.708588
	H2875	H	0.229986	0.362175	0.708561
	H2876	H	0.186543	0.643681	0.640874
	H2877	H	0.236398	0.643138	0.643710
	H2878	H	0.236487	0.863027	0.643683
	H2879	H	0.186329	0.862366	0.640859
	H2880	H	0.235728	0.643249	0.659718
	H2881	H	0.235813	0.863155	0.659692
	H2882	H	0.223017	0.643618	0.724143
	H2883	H	0.223477	0.863040	0.724179
	H2884	H	0.215624	0.441437	0.614634
	H2885	H	0.189284	0.441312	0.748128
	H2886	H	0.224989	0.440734	0.616274
	H2887	H	0.226248	0.441349	0.619354
	H2888	H	0.198939	0.441212	0.749214
	H2889	H	0.194511	0.441148	0.749967
	H2890	H	0.189306	0.564618	0.748118
	H2891	H	0.215660	0.565279	0.614666
	H2892	H	0.194392	0.564878	0.749950
	H2893	H	0.198914	0.564605	0.749219
	H2894	H	0.226294	0.564392	0.619354
	H2895	H	0.224865	0.564659	0.616258
	H2896	H	0.223529	0.142481	0.724212
	H2897	H	0.223138	0.362147	0.724161
	H2898	H	0.211765	0.065357	0.615782
	H2899	H	0.209828	0.064594	0.618717
	H2900	H	0.221075	0.064978	0.614948
	H2901	H	0.173780	0.862482	0.722336
	H2902	H	0.173338	0.642691	0.722300
	H2903	H	0.173320	0.362855	0.722319
	H2904	H	0.173605	0.143274	0.722261
	H2905	H	0.186519	0.143715	0.640907
	H2906	H	0.236676	0.142696	0.643637
	H2907	H	0.236653	0.362458	0.643704
	H2908	H	0.186150	0.362355	0.640802
	H2909	H	0.235976	0.142418	0.659652
	H2910	H	0.235927	0.362267	0.659713
	H2911	H	0.206025	0.064494	0.746093
	H2912	H	0.199139	0.064214	0.742677
	H2913	H	0.185510	0.064314	0.743688
	H2914	H	0.209816	0.941819	0.618696
	H2915	H	0.211690	0.941579	0.615777
	H2916	H	0.220932	0.941058	0.614950
	H2917	H	0.206027	0.940791	0.746096
	H2918	H	0.199112	0.941293	0.742647
	H2919	H	0.185516	0.941523	0.743690
	Zn2920	Zn	0.155724	0.680529	0.680839
	Zn2921	Zn	0.155927	0.825626	0.680833
	Zn2922	Zn	0.155939	0.180450	0.680857
	Zn2923	Zn	0.155803	0.325568	0.680861
	Zn2924	Zn	0.194548	0.680399	0.747418
	Zn2925	Zn	0.194423	0.825333	0.747391
	Zn2926	Zn	0.194435	0.180312	0.747408
	Zn2927	Zn	0.194658	0.325284	0.747415
	C2928	C	0.237130	0.753110	0.670359
	C2929	C	0.173941	0.752621	0.695649
	C2930	C	0.174677	0.752607	0.705329
	C2931	C	0.174150	0.690514	0.709856
	C2932	C	0.174396	0.814620	0.709885
	C2933	C	0.173946	0.253406	0.695642
	C2934	C	0.174757	0.253320	0.705299
	C2935	C	0.174293	0.191152	0.709816
	C2936	C	0.174153	0.315362	0.709848
	C2937	C	0.173053	0.752682	0.666549
	C2938	C	0.178015	0.752862	0.657270
	C2939	C	0.180014	0.814825	0.652881
	C2940	C	0.180078	0.690990	0.652887
	C2941	C	0.173321	0.253611	0.666607
	C2942	C	0.178142	0.253471	0.657301
	C2943	C	0.179981	0.315185	0.652860
	C2944	C	0.180147	0.191518	0.652918
	C2945	C	0.248661	0.043335	0.687085
	C2946	C	0.248667	0.962509	0.687093
	C2947	C	0.154647	0.043444	0.681158
	C2948	C	0.154618	0.962765	0.681159
	C2949	C	0.157576	0.043649	0.681212
	C2950	C	0.157545	0.962544	0.681230
	C2951	C	0.152995	0.462534	0.682887
	C2952	C	0.257933	0.462587	0.683464
	C2953	C	0.258782	0.462463	0.686084
	C2954	C	0.152983	0.543645	0.682892
	C2955	C	0.258882	0.543356	0.686105
	C2956	C	0.258016	0.543072	0.683449
	C2957	C	0.235271	0.753155	0.698264
	C2958	C	0.235473	0.252459	0.698303
	C2959	C	0.230159	0.753215	0.707553
	C2960	C	0.228360	0.691259	0.712005
	C2961	C	0.228577	0.815270	0.712024
	C2962	C	0.230336	0.252355	0.707588
	C2963	C	0.228684	0.190253	0.712045
	C2964	C	0.228520	0.314401	0.712033
	C2965	C	0.237218	0.252287	0.670334
	C2966	C	0.236045	0.752759	0.633063
	C2967	C	0.193932	0.753165	0.630976
	C2968	C	0.174814	0.752767	0.732922
	C2969	C	0.235895	0.690968	0.656147
	C2970	C	0.235962	0.815297	0.656137
	C2971	C	0.236964	0.753017	0.642732
	C2972	C	0.186948	0.753073	0.639971
	C2973	C	0.184576	0.691069	0.644313
	C2974	C	0.236469	0.690876	0.647265
	C2975	C	0.236510	0.815282	0.647250
	C2976	C	0.184537	0.814940	0.644310
	C2977	C	0.235710	0.753117	0.660684
	C2978	C	0.217087	0.753264	0.734359
	C2979	C	0.224710	0.691260	0.720690
	C2980	C	0.224952	0.815305	0.720709
	C2981	C	0.222967	0.753304	0.725146
	C2982	C	0.190883	0.462356	0.747181
	C2983	C	0.223657	0.462561	0.617939
	C2984	C	0.196160	0.462539	0.749023
	C2985	C	0.190866	0.543213	0.747172
	C2986	C	0.196143	0.543463	0.749011
	C2987	C	0.223629	0.543417	0.617932
	C2988	C	0.217094	0.252323	0.734338
	C2989	C	0.225024	0.190140	0.720726
	C2990	C	0.224838	0.314409	0.720710
	C2991	C	0.222998	0.252269	0.725140
	C2992	C	0.212739	0.043583	0.617507
	C2993	C	0.236053	0.252861	0.633050
	C2994	C	0.193844	0.252902	0.630955
	C2995	C	0.174949	0.253117	0.732921
	C2996	C	0.236046	0.190264	0.656110
	C2997	C	0.236024	0.314538	0.656151
	C2998	C	0.236933	0.252616	0.642709
	C2999	C	0.186872	0.252954	0.639949
	C3000	C	0.173350	0.752542	0.723272
	C3001	C	0.173838	0.814712	0.718767
	C3002	C	0.173586	0.690388	0.718741
	C3003	C	0.173420	0.253148	0.723254
	C3004	C	0.173596	0.315363	0.718731
	C3005	C	0.173697	0.191009	0.718700
	C3006	C	0.184546	0.191189	0.644324
	C3007	C	0.236568	0.190343	0.647222
	C3008	C	0.236573	0.314703	0.647261
	C3009	C	0.184353	0.314987	0.644264
	C3010	C	0.235745	0.252282	0.660669
	C3011	C	0.200420	0.043117	0.745205
	C3012	C	0.222056	0.043488	0.616664
	C3013	C	0.212747	0.962870	0.617500
	C3014	C	0.200404	0.962269	0.745203
	C3015	C	0.222057	0.962544	0.616654
	N3016	N	0.156156	0.070246	0.680823
	N3017	N	0.156134	0.935731	0.680816
	N3018	N	0.155965	0.435952	0.680853
	N3019	N	0.155945	0.570524	0.680829
	N3020	N	0.194719	0.435589	0.747421
	N3021	N	0.194641	0.570127	0.747424
	N3022	N	0.194396	0.070136	0.747459
	N3023	N	0.194390	0.935591	0.747435
	O3024	O	0.227942	0.694029	0.802474
	O3025	O	0.227817	0.810727	0.802500
	O3026	O	0.150785	0.693747	0.820574
	O3027	O	0.150828	0.810320	0.820580
	O3028	O	0.150667	0.195313	0.820653
	O3029	O	0.150486	0.312002	0.820642
	O3030	O	0.151498	0.693627	0.800309
	O3031	O	0.151986	0.810331	0.800413
	O3032	O	0.151772	0.195349	0.800360
	O3033	O	0.151453	0.312062	0.800301
	O3034	O	0.227068	0.693982	0.822772
	O3035	O	0.226944	0.810744	0.822719
	O3036	O	0.226878	0.194654	0.822713
	O3037	O	0.226992	0.311273	0.822736
	O3038	O	0.227817	0.194535	0.802538
	O3039	O	0.228055	0.311146	0.802534
	O3040	O	0.213364	0.694705	0.757991
	O3041	O	0.175749	0.694038	0.757295
	O3042	O	0.202954	0.695075	0.865750
	O3043	O	0.203003	0.811768	0.865779
	O3044	O	0.165371	0.694257	0.865083
	O3045	O	0.165471	0.811064	0.865045
	O3046	O	0.175643	0.810885	0.757318
	O3047	O	0.213167	0.811319	0.758040
	O3048	O	0.213248	0.194411	0.758051
	O3049	O	0.175552	0.195446	0.757249
	O3050	O	0.203004	0.194690	0.865783
	O3051	O	0.203144	0.311210	0.865795
	O3052	O	0.165280	0.195129	0.865069
	O3053	O	0.165525	0.311962	0.865080
	O3054	O	0.175862	0.312087	0.757325
	O3055	O	0.213456	0.311013	0.758038
	H3056	H	0.156320	0.642548	0.834893
	H3057	H	0.156445	0.861302	0.834797
	H3058	H	0.156399	0.143913	0.834849
	H3059	H	0.156494	0.363585	0.834845
	H3060	H	0.160941	0.861686	0.786696
	H3061	H	0.160848	0.642009	0.786691
	H3062	H	0.160758	0.363602	0.786723
	H3063	H	0.160814	0.143955	0.786691
	H3064	H	0.234492	0.064521	0.817486
	H3065	H	0.246869	0.064537	0.820199
	H3066	H	0.246838	0.941306	0.820203
	H3067	H	0.234464	0.941520	0.817551
	H3068	H	0.232648	0.064930	0.809416
	H3069	H	0.232556	0.941614	0.809362
	H3070	H	0.127063	0.064600	0.813508
	H3071	H	0.127120	0.941133	0.813509
	H3072	H	0.135193	0.064437	0.814095
	H3073	H	0.135283	0.940819	0.814072
	H3074	H	0.141965	0.064172	0.810311
	H3075	H	0.141968	0.941299	0.810323
	H3076	H	0.110014	0.441097	0.812337
	H3077	H	0.122910	0.441279	0.818888
	H3078	H	0.118256	0.441503	0.801579
	H3079	H	0.246044	0.441206	0.816383
	H3080	H	0.239508	0.440884	0.813785
	H3081	H	0.240587	0.440684	0.811121
	H3082	H	0.122856	0.564563	0.818871
	H3083	H	0.110027	0.565003	0.812396
	H3084	H	0.240587	0.564284	0.811108
	H3085	H	0.239436	0.563893	0.813763
	H3086	H	0.245889	0.564375	0.816376
	H3087	H	0.118267	0.565016	0.801638
	H3088	H	0.217916	0.642987	0.836396
	H3089	H	0.217608	0.862429	0.836272
	H3090	H	0.217556	0.143117	0.836301
	H3091	H	0.217835	0.362833	0.836393
	H3092	H	0.167881	0.642175	0.771098
	H3093	H	0.219007	0.643390	0.772226
	H3094	H	0.218829	0.862444	0.772308
	H3095	H	0.167936	0.861687	0.771106
	H3096	H	0.222498	0.642958	0.788236
	H3097	H	0.222313	0.862034	0.788283
	H3098	H	0.211058	0.643382	0.851994
	H3099	H	0.210664	0.862816	0.851901
	H3100	H	0.189832	0.441226	0.746034
	H3101	H	0.187887	0.441126	0.871969
	H3102	H	0.195886	0.441017	0.744971
	H3103	H	0.199676	0.441049	0.746340
	H3104	H	0.174914	0.441070	0.876036
	H3105	H	0.177321	0.441315	0.872760
	H3106	H	0.188058	0.564179	0.871973
	H3107	H	0.189800	0.564553	0.746013
	H3108	H	0.177357	0.564514	0.872745
	H3109	H	0.174961	0.564505	0.876024
	H3110	H	0.199646	0.564376	0.746299
	H3111	H	0.195816	0.564419	0.744994
	H3112	H	0.210684	0.142993	0.851907
	H3113	H	0.210924	0.362539	0.851996
	H3114	H	0.191756	0.064435	0.752617
	H3115	H	0.201801	0.064350	0.751860
	H3116	H	0.182418	0.065051	0.747858
	H3117	H	0.159856	0.861750	0.850797
	H3118	H	0.159741	0.642860	0.850879
	H3119	H	0.159910	0.363326	0.850872
	H3120	H	0.159792	0.144053	0.850834
	H3121	H	0.167748	0.144044	0.771085
	H3122	H	0.218627	0.143429	0.772295
	H3123	H	0.219211	0.362380	0.772301
	H3124	H	0.167728	0.363544	0.771131
	H3125	H	0.222113	0.143573	0.788308
	H3126	H	0.222654	0.362398	0.788290
	H3127	H	0.188932	0.064593	0.876870
	H3128	H	0.189207	0.064838	0.874902
	H3129	H	0.184156	0.064387	0.873330
	H3130	H	0.201744	0.941118	0.751825
	H3131	H	0.191812	0.940954	0.752566
	H3132	H	0.182400	0.940765	0.747845
	H3133	H	0.188967	0.941297	0.876854
	H3134	H	0.189168	0.940773	0.874930
	H3135	H	0.184016	0.940825	0.873303
	Zn3136	Zn	0.131801	0.680459	0.809925
	Zn3137	Zn	0.132233	0.825465	0.809968
	Zn3138	Zn	0.132174	0.180341	0.809970
	Zn3139	Zn	0.131828	0.325449	0.809935
	Zn3140	Zn	0.184375	0.680490	0.875673
	Zn3141	Zn	0.184203	0.825431	0.875673
	Zn3142	Zn	0.184266	0.180274	0.875678
	Zn3143	Zn	0.184340	0.325397	0.875675
	C3144	C	0.225941	0.752419	0.798823
	C3145	C	0.152856	0.751980	0.824256
	C3146	C	0.156485	0.751961	0.833854
	C3147	C	0.157249	0.690195	0.838416
	C3148	C	0.157266	0.813927	0.838369
	C3149	C	0.152648	0.253693	0.824308
	C3150	C	0.156338	0.253732	0.833877
	C3151	C	0.157185	0.191587	0.838397
	C3152	C	0.157236	0.315862	0.838406
	C3153	C	0.154614	0.752015	0.796892
	C3154	C	0.160592	0.751903	0.787688
	C3155	C	0.162559	0.813940	0.783252
	C3156	C	0.162483	0.689839	0.783241
	C3157	C	0.154562	0.253731	0.796875
	C3158	C	0.160538	0.253775	0.787689
	C3159	C	0.162430	0.315886	0.783266
	C3160	C	0.162458	0.191673	0.783247
	C3161	C	0.242261	0.043170	0.817334
	C3162	C	0.242239	0.962520	0.817369
	C3163	C	0.131428	0.043257	0.812792
	C3164	C	0.131440	0.962332	0.812770
	C3165	C	0.138233	0.043065	0.808974
	C3166	C	0.138263	0.962512	0.808963
	C3167	C	0.120461	0.462512	0.814121
	C3168	C	0.248368	0.462330	0.815257
	C3169	C	0.241805	0.462283	0.812629
	C3170	C	0.120507	0.543461	0.814115
	C3171	C	0.241786	0.542907	0.812599
	C3172	C	0.248344	0.543181	0.815248
	C3173	C	0.224067	0.752435	0.826199
	C3174	C	0.224035	0.253047	0.826191
	C3175	C	0.218052	0.752717	0.835363
	C3176	C	0.216230	0.690714	0.839821
	C3177	C	0.216043	0.814895	0.839765
	C3178	C	0.218022	0.253126	0.835374
	C3179	C	0.216016	0.190948	0.839781
	C3180	C	0.216173	0.315093	0.839838
	C3181	C	0.225909	0.252916	0.798871
	C3182	C	0.215359	0.752989	0.761688
	C3183	C	0.173171	0.752341	0.760829
	C3184	C	0.163457	0.752617	0.861403
	C3185	C	0.221643	0.690643	0.784693
	C3186	C	0.221521	0.814465	0.784731
	C3187	C	0.219043	0.752888	0.771291
	C3188	C	0.167914	0.751978	0.770113
	C3189	C	0.166233	0.689862	0.774559
	C3190	C	0.219865	0.690842	0.775802
	C3191	C	0.219767	0.814691	0.775848
	C3192	C	0.166272	0.813984	0.774570
	C3193	C	0.222429	0.752461	0.789249
	C3194	C	0.205532	0.753445	0.862229
	C3195	C	0.212489	0.691008	0.848492
	C3196	C	0.212306	0.815106	0.848439
	C3197	C	0.210669	0.753207	0.852918
	C3198	C	0.188953	0.462471	0.873923
	C3199	C	0.196931	0.462399	0.746132
	C3200	C	0.178315	0.462385	0.874745
	C3201	C	0.189007	0.543323	0.873935
	C3202	C	0.178316	0.543189	0.874730
	C3203	C	0.196886	0.543173	0.746128
	C3204	C	0.205605	0.252902	0.862245
	C3205	C	0.212334	0.190871	0.848466
	C3206	C	0.212466	0.314882	0.848519
	C3207	C	0.210722	0.252827	0.852953
	C3208	C	0.196156	0.043285	0.750974
	C3209	C	0.215311	0.252732	0.761727
	C3210	C	0.173178	0.253730	0.760832
	C3211	C	0.163380	0.253650	0.861414
	C3212	C	0.221323	0.191138	0.784755
	C3213	C	0.221663	0.314816	0.784744
	C3214	C	0.218812	0.252826	0.771326
	C3215	C	0.168018	0.253804	0.770134
	C3216	C	0.159887	0.752456	0.851817
	C3217	C	0.159047	0.814227	0.847256
	C3218	C	0.159055	0.690387	0.847304
	C3219	C	0.159840	0.253760	0.851814
	C3220	C	0.159069	0.315860	0.847290
	C3221	C	0.159002	0.191677	0.847275
	C3222	C	0.166158	0.191684	0.774568
	C3223	C	0.219553	0.190939	0.775862
	C3224	C	0.219856	0.314798	0.775860
	C3225	C	0.166179	0.315872	0.774590
	C3226	C	0.222270	0.253029	0.789296
	C3227	C	0.187814	0.043404	0.875829
	C3228	C	0.186681	0.043363	0.746232
	C3229	C	0.196143	0.962460	0.750966
	C3230	C	0.187834	0.962487	0.875830
	C3231	C	0.186675	0.962482	0.746231
	N3232	N	0.132189	0.070305	0.809988
	N3233	N	0.132212	0.935749	0.809969
	N3234	N	0.131849	0.435507	0.809901
	N3235	N	0.131878	0.570069	0.809923
	N3236	N	0.184316	0.435643	0.875694
	N3237	N	0.184365	0.570173	0.875706
	N3238	N	0.184232	0.070122	0.875662
	N3239	N	0.184211	0.935571	0.875671
	O3240	O	0.206072	0.694300	0.931178
	O3241	O	0.206030	0.811033	0.931210
	O3242	O	0.139876	0.694058	0.948949
	O3243	O	0.139903	0.810904	0.948900
	O3244	O	0.139897	0.194800	0.948947
	O3245	O	0.139726	0.311536	0.948935
	O3246	O	0.140276	0.693469	0.928252
	O3247	O	0.140640	0.810281	0.928308
	O3248	O	0.140425	0.195419	0.928278
	O3249	O	0.140371	0.311928	0.928259
	O3250	O	0.207731	0.694435	0.952880
	O3251	O	0.207698	0.810794	0.952890
	O3252	O	0.207996	0.194479	0.952960
	O3253	O	0.207581	0.311031	0.952870
	O3254	O	0.205942	0.194541	0.931217
	O3255	O	0.206038	0.311214	0.931198
	O3256	O	0.202753	0.694530	0.886418
	O3257	O	0.164744	0.694228	0.885277
	O3258	O	0.181350	0.694344	0.995354
	O3259	O	0.181594	0.810958	0.995459
	O3260	O	0.143560	0.694426	0.993655
	O3261	O	0.143561	0.811174	0.993642
	O3262	O	0.164494	0.810900	0.885263
	O3263	O	0.202538	0.811246	0.886449
	O3264	O	0.202492	0.194318	0.886473
	O3265	O	0.164588	0.194719	0.885271
	O3266	O	0.181569	0.194646	0.995442
	O3267	O	0.181481	0.311426	0.995443
	O3268	O	0.143521	0.194785	0.993693
	O3269	O	0.143578	0.311422	0.993707
	O3270	O	0.164450	0.311372	0.885228
	O3271	O	0.202647	0.310941	0.886454
	H3272	H	0.142785	0.643027	0.963306
	H3273	H	0.142640	0.862253	0.963185
	H3274	H	0.142788	0.143448	0.963312
	H3275	H	0.142588	0.362821	0.963291
	H3276	H	0.148694	0.861725	0.914536
	H3277	H	0.148394	0.642102	0.914466
	H3278	H	0.148385	0.363017	0.914452
	H3279	H	0.148523	0.144021	0.914500
	H3280	H	0.226381	0.064250	0.943101
	H3281	H	0.226537	0.064338	0.941687
	H3282	H	0.226512	0.940835	0.941726
	H3283	H	0.226432	0.940700	0.943113
	H3284	H	0.222571	0.064012	0.943851
	H3285	H	0.222594	0.941065	0.943865
	H3286	H	0.133354	0.064963	0.935553
	H3287	H	0.133335	0.941383	0.935503
	H3288	H	0.124261	0.064397	0.932434
	H3289	H	0.124211	0.941221	0.932387
	H3290	H	0.110137	0.064188	0.934852
	H3291	H	0.110165	0.941018	0.934849
	H3292	H	0.121316	0.441426	0.938672
	H3293	H	0.122185	0.441180	0.938520
	H3294	H	0.120219	0.441306	0.938379
	H3295	H	0.225555	0.440757	0.942873
	H3296	H	0.222727	0.441184	0.943424
	H3297	H	0.220825	0.441121	0.942898
	H3298	H	0.122244	0.564522	0.938503
	H3299	H	0.121379	0.564978	0.938718
	H3300	H	0.220761	0.564446	0.942890
	H3301	H	0.222794	0.564690	0.943451
	H3302	H	0.225478	0.564696	0.942899
	H3303	H	0.120165	0.564697	0.938364
	H3304	H	0.200240	0.643739	0.966656
	H3305	H	0.200630	0.861928	0.966729
	H3306	H	0.200629	0.143710	0.966750
	H3307	H	0.200167	0.362224	0.966649
	H3308	H	0.155426	0.642281	0.898880
	H3309	H	0.205284	0.643019	0.900783
	H3310	H	0.205103	0.862907	0.900836
	H3311	H	0.155672	0.861981	0.898933
	H3312	H	0.204574	0.643038	0.916792
	H3313	H	0.204394	0.862522	0.916829
	H3314	H	0.192019	0.643665	0.982125
	H3315	H	0.192393	0.862095	0.982182
	H3316	H	0.193218	0.441059	0.874614
	H3317	H	0.159754	0.441165	1.004607
	H3318	H	0.190039	0.441424	0.879093
	H3319	H	0.182276	0.441073	0.879682
	H3320	H	0.160976	0.440730	1.005152
	H3321	H	0.160189	0.441103	1.005116
	H3322	H	0.159681	0.564966	1.004599
	H3323	H	0.193369	0.564588	0.874643
	H3324	H	0.160169	0.564531	1.005077
	H3325	H	0.160965	0.564225	1.005130
	H3326	H	0.182213	0.564666	0.879700
	H3327	H	0.190022	0.564847	0.879128
	H3328	H	0.192522	0.143887	0.982191
	H3329	H	0.192126	0.362251	0.982128
	H3330	H	0.179666	0.064500	0.876804
	H3331	H	0.183434	0.064637	0.877984
	H3332	H	0.180034	0.064381	0.874109
	H3333	H	0.142117	0.862791	0.979203
	H3334	H	0.142239	0.643142	0.979313
	H3335	H	0.142036	0.362841	0.979287
	H3336	H	0.142249	0.143643	0.979324
	H3337	H	0.155504	0.143632	0.898928
	H3338	H	0.205030	0.142864	0.900830
	H3339	H	0.205281	0.362356	0.900852
	H3340	H	0.155420	0.362820	0.898865
	H3341	H	0.204391	0.142939	0.916830
	H3342	H	0.204650	0.362184	0.916851
	H3343	H	0.163251	0.064459	1.006337
	H3344	H	0.165039	0.064177	1.004934
	H3345	H	0.162470	0.064134	1.002961
	H3346	H	0.183402	0.941545	0.878009
	H3347	H	0.179652	0.941347	0.876834
	H3348	H	0.179968	0.941030	0.874145
	H3349	H	0.163152	0.941349	1.006369
	H3350	H	0.165053	0.940982	1.004986
	H3351	H	0.162561	0.940814	1.003001
	Zn3352	Zn	0.121419	0.680361	0.938170
	Zn3353	Zn	0.121744	0.825455	0.938146
	Zn3354	Zn	0.121714	0.180279	0.938139
	Zn3355	Zn	0.121516	0.325518	0.938151
	Zn3356	Zn	0.160772	0.679809	1.004726
	Zn3357	Zn	0.160856	0.825437	1.004731
	Zn3358	Zn	0.160816	0.179699	1.004723
	Zn3359	Zn	0.160783	0.325265	1.004771
	C3360	C	0.205135	0.752748	0.927447
	C3361	C	0.141234	0.752545	0.952651
	C3362	C	0.142857	0.752656	0.962318
	C3363	C	0.142699	0.690639	0.966873
	C3364	C	0.142628	0.814889	0.966798
	C3365	C	0.141156	0.253253	0.952663
	C3366	C	0.142727	0.253182	0.962321
	C3367	C	0.142659	0.191155	0.966872
	C3368	C	0.142536	0.315175	0.966856
	C3369	C	0.143038	0.751867	0.924754
	C3370	C	0.148372	0.751938	0.915481
	C3371	C	0.150254	0.814089	0.911056
	C3372	C	0.150086	0.689893	0.911019
	C3373	C	0.142990	0.253672	0.924742
	C3374	C	0.148311	0.253571	0.915467
	C3375	C	0.150048	0.315445	0.911001
	C3376	C	0.150101	0.191639	0.911028
	C3377	C	0.225513	0.043020	0.942365
	C3378	C	0.225514	0.962008	0.942382
	C3379	C	0.126927	0.043468	0.935059
	C3380	C	0.126918	0.962588	0.935039
	C3381	C	0.112713	0.043365	0.937520
	C3382	C	0.112737	0.962439	0.937503
	C3383	C	0.121663	0.462682	0.938498
	C3384	C	0.224852	0.462052	0.942334
	C3385	C	0.222016	0.462371	0.942931
	C3386	C	0.121636	0.543535	0.938499
	C3387	C	0.222051	0.543087	0.942932
	C3388	C	0.224852	0.543064	0.942350
	C3389	C	0.205642	0.752593	0.956466
	C3390	C	0.205706	0.252834	0.956483
	C3391	C	0.200646	0.752773	0.965747
	C3392	C	0.198508	0.691070	0.970121
	C3393	C	0.198707	0.814540	0.970156
	C3394	C	0.200757	0.253047	0.965757
	C3395	C	0.198863	0.191193	0.970167
	C3396	C	0.198612	0.314931	0.970124
	C3397	C	0.205078	0.252817	0.927461
	C3398	C	0.203973	0.752867	0.890162
	C3399	C	0.161745	0.752493	0.888742
	C3400	C	0.142677	0.752821	0.989915
	C3401	C	0.204615	0.690749	0.913219
	C3402	C	0.204501	0.814928	0.913252
	C3403	C	0.205408	0.752899	0.899817
	C3404	C	0.155886	0.752241	0.897935
	C3405	C	0.153893	0.689990	0.902353
	C3406	C	0.205158	0.690747	0.904336
	C3407	C	0.205036	0.814984	0.904370
	C3408	C	0.154027	0.814240	0.902387
	C3409	C	0.204186	0.752814	0.917769
	C3410	C	0.184797	0.752799	0.992064
	C3411	C	0.194058	0.691105	0.978706
	C3412	C	0.194251	0.814695	0.978740
	C3413	C	0.191775	0.752900	0.983073
	C3414	C	0.160058	0.462285	1.004552
	C3415	C	0.185673	0.462546	0.878418
	C3416	C	0.160563	0.462122	1.005022
	C3417	C	0.160057	0.543190	1.004533
	C3418	C	0.160535	0.543008	1.005008
	C3419	C	0.185665	0.543407	0.878425
	C3420	C	0.184888	0.253104	0.992101
	C3421	C	0.194381	0.191276	0.978744
	C3422	C	0.194147	0.314975	0.978708
	C3423	C	0.191931	0.253164	0.983093
	C3424	C	0.182235	0.043306	0.876941
	C3425	C	0.203869	0.252634	0.890190
	C3426	C	0.161666	0.253045	0.888720
	C3427	C	0.142638	0.253158	0.989955
	C3428	C	0.204465	0.190577	0.913263
	C3429	C	0.204624	0.314566	0.913282
	C3430	C	0.205350	0.252617	0.899852
	C3431	C	0.155764	0.253229	0.897908
	C3432	C	0.141802	0.753051	0.980262
	C3433	C	0.142174	0.814984	0.975683
	C3434	C	0.142236	0.690854	0.975756
	C3435	C	0.141745	0.253248	0.980287
	C3436	C	0.142106	0.315177	0.975742
	C3437	C	0.142243	0.191245	0.975760
	C3438	C	0.153894	0.191431	0.902359
	C3439	C	0.204983	0.190590	0.904383
	C3440	C	0.205143	0.314582	0.904403
	C3441	C	0.153846	0.315256	0.902332
	C3442	C	0.204123	0.252590	0.917805
	C3443	C	0.163153	0.043117	1.005388
	C3444	C	0.182651	0.043012	0.874238
	C3445	C	0.182279	0.962507	0.876958
	C3446	C	0.163156	0.962430	1.005420
	C3447	C	0.182623	0.962270	0.874250
	N3448	N	0.121617	0.070298	0.938148
	N3449	N	0.121634	0.935793	0.938108
	N3450	N	0.121325	0.435627	0.938194
	N3451	N	0.121315	0.570158	0.938201
	N3452	N	0.160615	0.435371	1.004738
	N3453	N	0.160588	0.569846	1.004704
	N3454	N	0.160593	0.069837	1.004697
	N3455	N	0.160616	0.935418	1.004722
	O3456	O	0.358274	0.693663	0.050228
	O3457	O	0.358068	0.810497	0.050229
	O3458	O	0.292739	0.694684	0.067992
	O3459	O	0.292850	0.811575	0.068034
	O3460	O	0.292828	0.194345	0.067959
	O3461	O	0.292727	0.311107	0.067949
	O3462	O	0.290993	0.694736	0.046318
	O3463	O	0.290838	0.811183	0.046292
	O3464	O	0.291013	0.195092	0.046325
	O3465	O	0.290824	0.311479	0.046308
	O3466	O	0.357966	0.694060	0.071014
	O3467	O	0.357942	0.810638	0.071027
	O3468	O	0.358111	0.194278	0.071045
	O3469	O	0.357963	0.310833	0.071066
	O3470	O	0.358304	0.194520	0.050236
	O3471	O	0.358273	0.311159	0.050209
	O3472	O	0.355194	0.693722	0.005489
	O3473	O	0.317282	0.694396	0.003819
	O3474	O	0.333448	0.694143	0.113914
	O3475	O	0.333877	0.811013	0.113986
	O3476	O	0.295497	0.694502	0.112766
	O3477	O	0.295811	0.811226	0.112699
	O3478	O	0.317357	0.811128	0.003789
	O3479	O	0.355201	0.810350	0.005522
	O3480	O	0.355114	0.194044	0.005457
	O3481	O	0.317244	0.194314	0.003835
	O3482	O	0.333707	0.194119	0.114037
	O3483	O	0.333488	0.310705	0.113983
	O3484	O	0.295545	0.194291	0.112678
	O3485	O	0.295585	0.311099	0.112719
	O3486	O	0.317444	0.311162	0.003826
	O3487	O	0.355309	0.310694	0.005462
	H3488	H	0.293894	0.643366	0.082350
	H3489	H	0.294211	0.862728	0.082406
	H3490	H	0.294210	0.142939	0.082342
	H3491	H	0.294114	0.362671	0.082331
	H3492	H	0.298190	0.862309	0.032529
	H3493	H	0.298024	0.643751	0.032505
	H3494	H	0.297973	0.362710	0.032447
	H3495	H	0.298322	0.143898	0.032541
	H3496	H	0.384104	0.064686	0.060419
	H3497	H	0.380000	0.064404	0.058007
	H3498	H	0.379972	0.941449	0.057971
	H3499	H	0.384153	0.941351	0.060431
	H3500	H	0.380626	0.064250	0.064124
	H3501	H	0.380501	0.940422	0.064091
	H3502	H	0.265282	0.064382	0.058929
	H3503	H	0.265360	0.940731	0.058952
	H3504	H	0.272804	0.064282	0.061737
	H3505	H	0.272732	0.940786	0.061771
	H3506	H	0.285153	0.063903	0.059921
	H3507	H	0.284988	0.940840	0.059925
	H3508	H	0.281076	0.441063	0.056167
	H3509	H	0.277679	0.441022	0.054615
	H3510	H	0.279294	0.441030	0.059041
	H3511	H	0.371671	0.440473	0.058687
	H3512	H	0.379893	0.440524	0.058426
	H3513	H	0.383360	0.441326	0.060614
	H3514	H	0.277685	0.564656	0.054627
	H3515	H	0.281130	0.564299	0.056231
	H3516	H	0.383560	0.564080	0.060596
	H3517	H	0.379920	0.564039	0.058401
	H3518	H	0.371557	0.564091	0.058623
	H3519	H	0.279377	0.564390	0.059050
	H3520	H	0.349998	0.642698	0.084818
	H3521	H	0.350393	0.861929	0.084849
	H3522	H	0.350699	0.142885	0.084925
	H3523	H	0.349964	0.362179	0.084843
	H3524	H	0.306411	0.643724	0.017084
	H3525	H	0.356500	0.642071	0.019878
	H3526	H	0.356605	0.861982	0.019878
	H3527	H	0.306545	0.862336	0.017087
	H3528	H	0.355622	0.642237	0.035878
	H3529	H	0.355723	0.862073	0.035865
	H3530	H	0.342702	0.642672	0.100388
	H3531	H	0.343211	0.862243	0.100403
	H3532	H	0.333695	0.440961	-0.004051
	H3533	H	0.308435	0.440921	0.121753
	H3534	H	0.333200	0.440764	-0.006892
	H3535	H	0.337045	0.441078	-0.008032
	H3536	H	0.313392	0.441608	0.126332
	H3537	H	0.308579	0.440920	0.125054
	H3538	H	0.308487	0.564510	0.121765
	H3539	H	0.333644	0.564439	-0.004058
	H3540	H	0.308508	0.564483	0.125059
	H3541	H	0.313306	0.563933	0.126289
	H3542	H	0.337033	0.564354	-0.008018
	H3543	H	0.333103	0.564426	-0.006872
	H3544	H	0.343567	0.142860	0.100500
	H3545	H	0.342871	0.362099	0.100417
	H3546	H	0.341309	0.064429	-0.006168
	H3547	H	0.338846	0.064399	-0.007057
	H3548	H	0.340623	0.064074	-0.004332
	H3549	H	0.293394	0.862658	0.098389
	H3550	H	0.293150	0.643100	0.098373
	H3551	H	0.293266	0.362633	0.098340
	H3552	H	0.293404	0.143093	0.098317
	H3553	H	0.306572	0.143456	0.017095
	H3554	H	0.356789	0.142830	0.019809
	H3555	H	0.356660	0.362445	0.019856
	H3556	H	0.306256	0.362394	0.017031
	H3557	H	0.355917	0.142856	0.035817
	H3558	H	0.355770	0.362488	0.035851
	H3559	H	0.306986	0.064353	0.125889
	H3560	H	0.313800	0.064285	0.127423
	H3561	H	0.322179	0.064450	0.125093
	H3562	H	0.339020	0.940869	-0.007072
	H3563	H	0.341411	0.941068	-0.006181
	H3564	H	0.340737	0.940471	-0.004316
	H3565	H	0.307076	0.940721	0.125877
	H3566	H	0.313750	0.941142	0.127412
	H3567	H	0.322182	0.941095	0.125086
	Zn3568	Zn	0.275555	0.679979	0.056964
	Zn3569	Zn	0.275420	0.825341	0.056974
	Zn3570	Zn	0.275580	0.179943	0.056928
	Zn3571	Zn	0.275457	0.325425	0.056968
	Zn3572	Zn	0.313682	0.680115	0.123511
	Zn3573	Zn	0.313856	0.825188	0.123566
	Zn3574	Zn	0.313700	0.180079	0.123539
	Zn3575	Zn	0.313773	0.325436	0.123542
	C3576	C	0.356946	0.752069	0.046507
	C3577	C	0.293682	0.753030	0.071751
	C3578	C	0.294482	0.752967	0.081414
	C3579	C	0.293949	0.690944	0.085934
	C3580	C	0.294116	0.815038	0.085955
	C3581	C	0.293704	0.252724	0.071698
	C3582	C	0.294496	0.252881	0.081368
	C3583	C	0.294101	0.190738	0.085892
	C3584	C	0.294007	0.314977	0.085899
	C3585	C	0.292961	0.752970	0.042728
	C3586	C	0.297868	0.752950	0.033464
	C3587	C	0.299978	0.814859	0.029078
	C3588	C	0.299901	0.691196	0.029075
	C3589	C	0.293016	0.253349	0.042733
	C3590	C	0.297965	0.253328	0.033462
	C3591	C	0.299880	0.315122	0.029040
	C3592	C	0.300102	0.191314	0.029091
	C3593	C	0.380517	0.043092	0.059704
	C3594	C	0.380476	0.962501	0.059699
	C3595	C	0.270798	0.043107	0.059460
	C3596	C	0.270785	0.962125	0.059472
	C3597	C	0.283173	0.043074	0.057631
	C3598	C	0.283143	0.962331	0.057641
	C3599	C	0.278444	0.462282	0.055828
	C3600	C	0.371972	0.462029	0.060164
	C3601	C	0.380241	0.462224	0.059925
	C3602	C	0.278428	0.543168	0.055815
	C3603	C	0.380310	0.542863	0.059904
	C3604	C	0.371965	0.542825	0.060143
	C3605	C	0.355518	0.752316	0.074569
	C3606	C	0.355591	0.252461	0.074596
	C3607	C	0.350402	0.752256	0.083868
	C3608	C	0.348411	0.690291	0.088289
	C3609	C	0.348716	0.814267	0.088303
	C3610	C	0.350557	0.252434	0.083898
	C3611	C	0.348957	0.190527	0.088369
	C3612	C	0.348539	0.314462	0.088323
	C3613	C	0.357027	0.252762	0.046486
	C3614	C	0.356153	0.751956	0.009252
	C3615	C	0.313931	0.752857	0.007149
	C3616	C	0.294429	0.752754	0.109002
	C3617	C	0.355797	0.690009	0.032311
	C3618	C	0.355846	0.814251	0.032312
	C3619	C	0.357006	0.751904	0.018910
	C3620	C	0.306847	0.752992	0.016147
	C3621	C	0.304416	0.691202	0.020502
	C3622	C	0.356433	0.689865	0.023431
	C3623	C	0.356465	0.814154	0.023433
	C3624	C	0.304486	0.814863	0.020502
	C3625	C	0.355573	0.752106	0.036846
	C3626	C	0.336617	0.752597	0.110518
	C3627	C	0.344523	0.690329	0.096950
	C3628	C	0.344849	0.814432	0.096958
	C3629	C	0.342716	0.752470	0.101377
	C3630	C	0.311615	0.462464	0.121817
	C3631	C	0.335892	0.462249	-0.006956
	C3632	C	0.311704	0.462584	0.125123
	C3633	C	0.311574	0.543200	0.121811
	C3634	C	0.311674	0.542994	0.125115
	C3635	C	0.335888	0.543058	-0.006936
	C3636	C	0.336647	0.252407	0.110568
	C3637	C	0.345080	0.190529	0.097027
	C3638	C	0.344656	0.314501	0.096983
	C3639	C	0.342836	0.252479	0.101421
	C3640	C	0.339613	0.043111	-0.006324
	C3641	C	0.356165	0.252373	0.009204
	C3642	C	0.313941	0.252872	0.007154
	C3643	C	0.294360	0.252794	0.108972
	C3644	C	0.356048	0.190600	0.032266
	C3645	C	0.355941	0.314734	0.032291
	C3646	C	0.356991	0.252697	0.018860
	C3647	C	0.306940	0.253002	0.016146
	C3648	C	0.293093	0.752777	0.099345
	C3649	C	0.293482	0.814963	0.094831
	C3650	C	0.293333	0.690775	0.094814
	C3651	C	0.293112	0.252870	0.099309
	C3652	C	0.293378	0.314944	0.094779
	C3653	C	0.293453	0.190836	0.094768
	C3654	C	0.304600	0.191079	0.020511
	C3655	C	0.356620	0.190575	0.023381
	C3656	C	0.356515	0.314692	0.023407
	C3657	C	0.304390	0.314976	0.020469
	C3658	C	0.355703	0.252671	0.036824
	C3659	C	0.311262	0.043044	0.125844
	C3660	C	0.338938	0.043021	-0.004501
	C3661	C	0.339712	0.962161	-0.006330
	C3662	C	0.311314	0.962219	0.125839
	C3663	C	0.338997	0.962106	-0.004504
	N3664	N	0.275645	0.069948	0.056961
	N3665	N	0.275594	0.935428	0.056994
	N3666	N	0.275636	0.435491	0.056965
	N3667	N	0.275675	0.569964	0.056975
	N3668	N	0.313862	0.435521	0.123500
	N3669	N	0.313807	0.570011	0.123505
	N3670	N	0.313772	0.070008	0.123546
	N3671	N	0.313862	0.935479	0.123538
	O3672	O	0.357124	0.694799	0.177148
	O3673	O	0.357188	0.811431	0.177106
	O3674	O	0.270406	0.695823	0.196383
	O3675	O	0.269877	0.812446	0.196390
	O3676	O	0.269799	0.193186	0.196415
	O3677	O	0.270431	0.309879	0.196349
	O3678	O	0.270896	0.695297	0.176422
	O3679	O	0.270474	0.812052	0.176361
	O3680	O	0.270676	0.193695	0.176457
	O3681	O	0.270910	0.310215	0.176485
	O3682	O	0.356577	0.695001	0.197037
	O3683	O	0.356462	0.811845	0.197065
	O3684	O	0.356458	0.194521	0.197040
	O3685	O	0.356658	0.311170	0.197073
	O3686	O	0.357131	0.194425	0.177156
	O3687	O	0.357008	0.311070	0.177178
	O3688	O	0.333304	0.694025	0.133913
	O3689	O	0.295623	0.694418	0.133587
	O3690	O	0.331880	0.694727	0.239898
	O3691	O	0.331683	0.811449	0.239938
	O3692	O	0.294285	0.695143	0.239566
	O3693	O	0.294226	0.811585	0.239552
	O3694	O	0.295364	0.811113	0.133455
	O3695	O	0.333059	0.810643	0.133970
	O3696	O	0.333010	0.194106	0.134006
	O3697	O	0.295403	0.194118	0.133545
	O3698	O	0.331894	0.194506	0.239938
	O3699	O	0.331952	0.311113	0.240000
	O3700	O	0.294173	0.194142	0.239556
	O3701	O	0.294438	0.310586	0.239500
	O3702	O	0.295644	0.310762	0.133591
	O3703	O	0.333174	0.310743	0.133960
	H3704	H	0.278512	0.644436	0.210209
	H3705	H	0.278702	0.863051	0.210140
	H3706	H	0.277770	0.142257	0.210236
	H3707	H	0.279270	0.361087	0.210088
	H3708	H	0.279858	0.863141	0.162781
	H3709	H	0.280794	0.644019	0.162956
	H3710	H	0.280298	0.361920	0.162925
	H3711	H	0.280341	0.142254	0.162882
	H3712	H	0.386240	0.064576	0.185943
	H3713	H	0.379653	0.064355	0.183219
	H3714	H	0.379635	0.941115	0.183281
	H3715	H	0.386016	0.940787	0.185976
	H3716	H	0.383584	0.064866	0.191078
	H3717	H	0.383555	0.941195	0.191054
	H3718	H	0.259278	0.064203	0.186888
	H3719	H	0.259335	0.941562	0.186872
	H3720	H	0.257492	0.064903	0.183668
	H3721	H	0.257553	0.940634	0.183632
	H3722	H	0.247678	0.064403	0.182141
	H3723	H	0.247736	0.940391	0.182175
	H3724	H	0.254090	0.440657	0.191488
	H3725	H	0.262508	0.441013	0.188722
	H3726	H	0.240422	0.440982	0.188816
	H3727	H	0.381126	0.441221	0.186918
	H3728	H	0.379589	0.441062	0.189310
	H3729	H	0.375547	0.441087	0.189615
	H3730	H	0.262565	0.564025	0.188717
	H3731	H	0.254140	0.564174	0.191474
	H3732	H	0.375506	0.564324	0.189655
	H3733	H	0.379514	0.564959	0.189318
	H3734	H	0.381173	0.564678	0.186967
	H3735	H	0.240432	0.564255	0.188780
	H3736	H	0.347295	0.643518	0.210575
	H3737	H	0.346491	0.863106	0.210581
	H3738	H	0.346593	0.143311	0.210532
	H3739	H	0.347114	0.362437	0.210596
	H3740	H	0.288178	0.643721	0.147445
	H3741	H	0.341257	0.642879	0.147770
	H3742	H	0.341783	0.861690	0.147706
	H3743	H	0.287244	0.862565	0.147225
	H3744	H	0.348411	0.643266	0.163373
	H3745	H	0.348915	0.862199	0.163272
	H3746	H	0.339984	0.643232	0.226125
	H3747	H	0.339196	0.862908	0.226130
	H3748	H	0.313169	0.441499	0.120637
	H3749	H	0.311037	0.441202	0.249187
	H3750	H	0.319793	0.441054	0.122422
	H3751	H	0.319770	0.440942	0.124812
	H3752	H	0.313450	0.441685	0.251340
	H3753	H	0.311140	0.441251	0.250743
	H3754	H	0.310943	0.564569	0.249160
	H3755	H	0.313156	0.564423	0.120655
	H3756	H	0.311164	0.564882	0.250747
	H3757	H	0.313519	0.564612	0.251312
	H3758	H	0.319729	0.565156	0.124824
	H3759	H	0.319697	0.564986	0.122437
	H3760	H	0.339398	0.143003	0.226106
	H3761	H	0.339933	0.362443	0.226167
	H3762	H	0.312306	0.064297	0.119630
	H3763	H	0.306147	0.064281	0.121383
	H3764	H	0.321525	0.064543	0.121768
	H3765	H	0.285757	0.862777	0.225704
	H3766	H	0.285601	0.644150	0.225779
	H3767	H	0.286431	0.361547	0.225669
	H3768	H	0.284955	0.142623	0.225789
	H3769	H	0.287667	0.142467	0.147340
	H3770	H	0.341495	0.142969	0.147834
	H3771	H	0.341774	0.362072	0.147737
	H3772	H	0.287635	0.362063	0.147359
	H3773	H	0.348525	0.143227	0.163389
	H3774	H	0.348820	0.362418	0.163315
	H3775	H	0.318867	0.064910	0.251250
	H3776	H	0.319003	0.064453	0.249043
	H3777	H	0.313121	0.064333	0.247349
	H3778	H	0.306246	0.940579	0.121386
	H3779	H	0.312385	0.940900	0.119648
	H3780	H	0.321586	0.940755	0.121796
	H3781	H	0.318895	0.941274	0.251256
	H3782	H	0.318991	0.941229	0.249000
	H3783	H	0.313179	0.941255	0.247338
	Zn3784	Zn	0.251098	0.679954	0.185982
	Zn3785	Zn	0.250564	0.825082	0.185914
	Zn3786	Zn	0.250526	0.180345	0.185944
	Zn3787	Zn	0.251017	0.325338	0.185994
	Zn3788	Zn	0.313704	0.680539	0.249940
	Zn3789	Zn	0.313618	0.825357	0.250005
	Zn3790	Zn	0.313619	0.180745	0.249976
	Zn3791	Zn	0.313659	0.325489	0.249978
	C3792	C	0.354434	0.753009	0.173586
	C3793	C	0.272805	0.754098	0.199933
	C3794	C	0.278374	0.753785	0.209225
	C3795	C	0.280214	0.691834	0.213654
	C3796	C	0.280279	0.815516	0.213611
	C3797	C	0.272836	0.251576	0.199923
	C3798	C	0.278401	0.251721	0.209237
	C3799	C	0.279821	0.189897	0.213684
	C3800	C	0.280683	0.313802	0.213600
	C3801	C	0.273779	0.753715	0.172975
	C3802	C	0.280096	0.753671	0.163843
	C3803	C	0.281828	0.815488	0.159371
	C3804	C	0.282378	0.691585	0.159483
	C3805	C	0.273821	0.251908	0.173023
	C3806	C	0.279911	0.252022	0.163862
	C3807	C	0.281978	0.314194	0.159461
	C3808	C	0.281981	0.190017	0.159437
	C3809	C	0.381258	0.043272	0.185378
	C3810	C	0.381208	0.962322	0.185387
	C3811	C	0.256326	0.043184	0.185431
	C3812	C	0.256331	0.962441	0.185426
	C3813	C	0.246455	0.042912	0.183929
	C3814	C	0.246436	0.962239	0.183930
	C3815	C	0.256407	0.462114	0.189025
	C3816	C	0.378870	0.462778	0.186595
	C3817	C	0.377281	0.462312	0.188968
	C3818	C	0.256405	0.542847	0.189013
	C3819	C	0.377272	0.543181	0.188973
	C3820	C	0.378884	0.543425	0.186615
	C3821	C	0.353480	0.753377	0.200479
	C3822	C	0.353496	0.252843	0.200494
	C3823	C	0.347307	0.753360	0.209621
	C3824	C	0.345416	0.691191	0.214022
	C3825	C	0.344996	0.815305	0.214028
	C3826	C	0.347189	0.252797	0.209631
	C3827	C	0.344979	0.190733	0.214012
	C3828	C	0.345281	0.314776	0.214057
	C3829	C	0.354441	0.252803	0.173606
	C3830	C	0.335816	0.752263	0.137487
	C3831	C	0.293046	0.752931	0.137057
	C3832	C	0.291545	0.753351	0.236004
	C3833	C	0.346850	0.690662	0.159874
	C3834	C	0.347121	0.814474	0.159827
	C3835	C	0.341246	0.752207	0.146804
	C3836	C	0.287904	0.753190	0.146342
	C3837	C	0.286329	0.691427	0.150838
	C3838	C	0.342996	0.690452	0.151222
	C3839	C	0.343268	0.814251	0.151180
	C3840	C	0.285796	0.815200	0.150723
	C3841	C	0.348856	0.752678	0.164276
	C3842	C	0.334286	0.753219	0.236387
	C3843	C	0.341459	0.691060	0.222671
	C3844	C	0.341022	0.815291	0.222671
	C3845	C	0.339504	0.753238	0.227111
	C3846	C	0.312500	0.462530	0.249163
	C3847	C	0.318186	0.462240	0.123583
	C3848	C	0.312666	0.462509	0.250751
	C3849	C	0.312501	0.543258	0.249149
	C3850	C	0.312713	0.543450	0.250741
	C3851	C	0.318137	0.543631	0.123593
	C3852	C	0.334350	0.252874	0.236426
	C3853	C	0.341090	0.190759	0.222666
	C3854	C	0.341382	0.314720	0.222711
	C3855	C	0.339426	0.252762	0.227138
	C3856	C	0.310401	0.042974	0.121304
	C3857	C	0.335791	0.252454	0.137534
	C3858	C	0.293041	0.252371	0.137099
	C3859	C	0.291628	0.252234	0.235976
	C3860	C	0.346957	0.190809	0.159912
	C3861	C	0.347113	0.314715	0.159871
	C3862	C	0.341337	0.252542	0.146834
	C3863	C	0.287780	0.252280	0.146363
	C3864	C	0.285983	0.753481	0.226695
	C3865	C	0.284133	0.815366	0.222258
	C3866	C	0.284055	0.691626	0.222302
	C3867	C	0.286071	0.252145	0.226695
	C3868	C	0.284536	0.313874	0.222244
	C3869	C	0.283694	0.190159	0.222323
	C3870	C	0.285948	0.190161	0.150793
	C3871	C	0.343148	0.190682	0.151270
	C3872	C	0.343301	0.314538	0.151226
	C3873	C	0.285931	0.314322	0.150810
	C3874	C	0.348907	0.252772	0.164308
	C3875	C	0.317530	0.043381	0.250114
	C3876	C	0.319710	0.043218	0.123444
	C3877	C	0.310448	0.962155	0.121319
	C3878	C	0.317552	0.962521	0.250103
	C3879	C	0.319738	0.962267	0.123460
	N3880	N	0.250582	0.069989	0.185935
	N3881	N	0.250556	0.935382	0.185925
	N3882	N	0.251074	0.435334	0.185959
	N3883	N	0.251086	0.569873	0.185949
	N3884	N	0.313594	0.435697	0.249963
	N3885	N	0.313648	0.570268	0.249925
	N3886	N	0.313497	0.070257	0.249989
	N3887	N	0.313537	0.935632	0.249989
	O3888	O	0.334481	0.694903	0.305552
	O3889	O	0.334503	0.811668	0.305471
	O3890	O	0.269347	0.693879	0.323346
	O3891	O	0.269524	0.810685	0.323320
	O3892	O	0.269389	0.194983	0.323300
	O3893	O	0.269340	0.311537	0.323307
	O3894	O	0.269597	0.694673	0.302508
	O3895	O	0.269635	0.811271	0.302495
	O3896	O	0.269669	0.194482	0.302520
	O3897	O	0.269571	0.311129	0.302489
	O3898	O	0.336436	0.694392	0.327204
	O3899	O	0.336276	0.810863	0.327185
	O3900	O	0.336312	0.194263	0.327207
	O3901	O	0.336435	0.310672	0.327215
	O3902	O	0.334591	0.194181	0.305483
	O3903	O	0.334568	0.311020	0.305498
	O3904	O	0.331849	0.694541	0.260801
	O3905	O	0.293858	0.694336	0.259523
	O3906	O	0.310285	0.694398	0.369773
	O3907	O	0.310136	0.811235	0.369711
	O3908	O	0.272464	0.694273	0.368040
	O3909	O	0.272352	0.811098	0.368064
	O3910	O	0.293617	0.810965	0.259511
	O3911	O	0.331677	0.810975	0.260795
	O3912	O	0.331823	0.194803	0.260714
	O3913	O	0.293681	0.194020	0.259535
	O3914	O	0.310016	0.194352	0.369714
	O3915	O	0.310197	0.311040	0.369721
	O3916	O	0.272254	0.194503	0.368068
	O3917	O	0.272145	0.311232	0.368091
	O3918	O	0.293785	0.310743	0.259497
	O3919	O	0.331778	0.311376	0.260794
	H3920	H	0.271594	0.642409	0.337728
	H3921	H	0.271912	0.862141	0.337684
	H3922	H	0.271799	0.143804	0.337692
	H3923	H	0.271726	0.362967	0.337704
	H3924	H	0.277300	0.862717	0.288654
	H3925	H	0.277112	0.643364	0.288657
	H3926	H	0.276890	0.362286	0.288627
	H3927	H	0.277277	0.143195	0.288698
	H3928	H	0.348609	0.064324	0.319395
	H3929	H	0.354584	0.064120	0.319532
	H3930	H	0.354546	0.940997	0.319503
	H3931	H	0.348487	0.940595	0.319364
	H3932	H	0.344632	0.064977	0.316095
	H3933	H	0.344586	0.941160	0.316105
	H3934	H	0.257265	0.064783	0.313455
	H3935	H	0.257383	0.940973	0.313462
	H3936	H	0.256605	0.064442	0.311117
	H3937	H	0.256615	0.941171	0.311153
	H3938	H	0.249871	0.063978	0.309848
	H3939	H	0.249915	0.940962	0.309836
	H3940	H	0.248720	0.440438	0.313262
	H3941	H	0.251106	0.440573	0.313896
	H3942	H	0.248588	0.440812	0.311657
	H3943	H	0.351868	0.441347	0.317996
	H3944	H	0.348689	0.440940	0.317025
	H3945	H	0.348826	0.441661	0.315858
	H3946	H	0.251155	0.564100	0.313851
	H3947	H	0.248669	0.564005	0.313239
	H3948	H	0.348907	0.564855	0.315843
	H3949	H	0.348699	0.565255	0.317014
	H3950	H	0.351847	0.564661	0.317986
	H3951	H	0.248590	0.564206	0.311600
	H3952	H	0.329332	0.643280	0.341046
	H3953	H	0.329310	0.861759	0.341008
	H3954	H	0.329157	0.143226	0.341029
	H3955	H	0.329149	0.361751	0.341014
	H3956	H	0.284135	0.643103	0.273069
	H3957	H	0.334009	0.643268	0.275218
	H3958	H	0.334170	0.862625	0.275140
	H3959	H	0.284244	0.862368	0.273065
	H3960	H	0.333109	0.643514	0.291205
	H3961	H	0.333217	0.862726	0.291102
	H3962	H	0.321124	0.643521	0.356504
	H3963	H	0.321128	0.861883	0.356456
	H3964	H	0.313145	0.441111	0.248582
	H3965	H	0.286630	0.441594	0.381068
	H3966	H	0.316395	0.441142	0.249367
	H3967	H	0.316347	0.440995	0.250511
	H3968	H	0.295282	0.441106	0.379307
	H3969	H	0.293018	0.441164	0.381074
	H3970	H	0.286648	0.564915	0.381080
	H3971	H	0.313151	0.564473	0.248555
	H3972	H	0.293050	0.564611	0.381072
	H3973	H	0.295139	0.564341	0.379282
	H3974	H	0.316502	0.564742	0.250478
	H3975	H	0.316275	0.564563	0.249348
	H3976	H	0.320862	0.143422	0.356488
	H3977	H	0.320944	0.361884	0.356448
	H3978	H	0.308589	0.065114	0.251344
	H3979	H	0.312807	0.065030	0.252602
	H3980	H	0.308740	0.064614	0.248307
	H3981	H	0.270996	0.862459	0.353655
	H3982	H	0.270665	0.642868	0.353730
	H3983	H	0.270763	0.362833	0.353689
	H3984	H	0.270873	0.143779	0.353690
	H3985	H	0.284319	0.142975	0.273101
	H3986	H	0.334325	0.143017	0.275072
	H3987	H	0.333963	0.362394	0.275175
	H3988	H	0.284028	0.362233	0.273058
	H3989	H	0.333445	0.142870	0.291077
	H3990	H	0.333055	0.362010	0.291162
	H3991	H	0.282552	0.064621	0.383549
	H3992	H	0.292947	0.064703	0.384440
	H3993	H	0.302265	0.064598	0.379722
	H3994	H	0.312886	0.941427	0.252575
	H3995	H	0.308506	0.941546	0.251349
	H3996	H	0.308647	0.941276	0.248322
	H3997	H	0.282484	0.941082	0.383530
	H3998	H	0.293018	0.941231	0.384474
	H3999	H	0.302313	0.941223	0.379760
	Zn4000	Zn	0.251316	0.680247	0.312497
	Zn4001	Zn	0.251401	0.825032	0.312560
	Zn4002	Zn	0.251389	0.180320	0.312499
	Zn4003	Zn	0.251352	0.324990	0.312486
	Zn4004	Zn	0.289607	0.680308	0.379090
	Zn4005	Zn	0.289615	0.825461	0.379074
	Zn4006	Zn	0.289543	0.180319	0.379117
	Zn4007	Zn	0.289719	0.325208	0.379091
	C4008	C	0.333568	0.753152	0.301767
	C4009	C	0.270629	0.752319	0.327051
	C4010	C	0.271982	0.752353	0.336724
	C4011	C	0.271548	0.690266	0.341264
	C4012	C	0.271718	0.814501	0.341239
	C4013	C	0.270565	0.253258	0.327041
	C4014	C	0.271879	0.253359	0.336710
	C4015	C	0.271592	0.191423	0.341252
	C4016	C	0.271565	0.315310	0.341256
	C4017	C	0.272046	0.752956	0.298956
	C4018	C	0.277100	0.752942	0.289638
	C4019	C	0.278835	0.814980	0.285191
	C4020	C	0.278749	0.690914	0.285187
	C4021	C	0.272000	0.252754	0.298949
	C4022	C	0.277080	0.252700	0.289650
	C4023	C	0.278671	0.314656	0.285191
	C4024	C	0.278866	0.190708	0.285218
	C4025	C	0.351529	0.043200	0.318689
	C4026	C	0.351526	0.962290	0.318690
	C4027	C	0.255510	0.043146	0.312363
	C4028	C	0.255501	0.962122	0.312378
	C4029	C	0.248747	0.043119	0.311060
	C4030	C	0.248756	0.962241	0.311063
	C4031	C	0.250315	0.462074	0.313276
	C4032	C	0.352629	0.462583	0.317414
	C4033	C	0.349463	0.462576	0.316485
	C4034	C	0.250261	0.542843	0.313264
	C4035	C	0.349505	0.543730	0.316477
	C4036	C	0.352651	0.543211	0.317414
	C4037	C	0.334305	0.752591	0.330780
	C4038	C	0.334323	0.252449	0.330793
	C4039	C	0.329505	0.752474	0.340070
	C4040	C	0.327539	0.690716	0.344486
	C4041	C	0.327555	0.814336	0.344463
	C4042	C	0.329442	0.252444	0.340082
	C4043	C	0.327375	0.190627	0.344470
	C4044	C	0.327414	0.314335	0.344465
	C4045	C	0.333702	0.252609	0.301756
	C4046	C	0.332987	0.752769	0.264534
	C4047	C	0.290740	0.752574	0.262957
	C4048	C	0.271456	0.752735	0.364308
	C4049	C	0.333286	0.690992	0.287619
	C4050	C	0.333373	0.815077	0.287557
	C4051	C	0.334347	0.752834	0.274182
	C4052	C	0.284652	0.752706	0.272102
	C4053	C	0.282554	0.690831	0.276521
	C4054	C	0.333980	0.690974	0.278745
	C4055	C	0.334051	0.814929	0.278691
	C4056	C	0.282627	0.814843	0.276519
	C4057	C	0.332854	0.753074	0.292111
	C4058	C	0.313559	0.752753	0.366401
	C4059	C	0.323097	0.690820	0.353070
	C4060	C	0.323119	0.814386	0.353047
	C4061	C	0.320682	0.752666	0.357414
	C4062	C	0.286471	0.462514	0.379883
	C4063	C	0.315665	0.462564	0.249943
	C4064	C	0.292936	0.462357	0.379889
	C4065	C	0.286443	0.543364	0.379911
	C4066	C	0.292919	0.543307	0.379893
	C4067	C	0.315706	0.543398	0.249924
	C4068	C	0.313481	0.252662	0.366379
	C4069	C	0.322901	0.190768	0.353053
	C4070	C	0.322945	0.314407	0.353041
	C4071	C	0.320527	0.252618	0.357392
	C4072	C	0.311438	0.043596	0.251448
	C4073	C	0.333018	0.252944	0.264497
	C4074	C	0.290713	0.252488	0.262952
	C4075	C	0.271263	0.252945	0.364328
	C4076	C	0.333486	0.190515	0.287537
	C4077	C	0.333260	0.314459	0.287591
	C4078	C	0.334328	0.252785	0.274157
	C4079	C	0.284605	0.252591	0.272116
	C4080	C	0.270545	0.752664	0.354657
	C4081	C	0.271075	0.814677	0.350110
	C4082	C	0.270900	0.690402	0.350141
	C4083	C	0.270458	0.253196	0.354668
	C4084	C	0.270931	0.315195	0.350134
	C4085	C	0.270938	0.191383	0.350130
	C4086	C	0.282666	0.190656	0.276551
	C4087	C	0.334079	0.190528	0.278653
	C4088	C	0.333885	0.314657	0.278717
	C4089	C	0.282474	0.314575	0.276524
	C4090	C	0.332910	0.252455	0.292102
	C4091	C	0.288163	0.043442	0.382707
	C4092	C	0.311626	0.043220	0.248408
	C4093	C	0.311453	0.962602	0.251455
	C4094	C	0.288182	0.962558	0.382709
	C4095	C	0.311623	0.962511	0.248405
	N4096	N	0.251337	0.069918	0.312581
	N4097	N	0.251341	0.935326	0.312576
	N4098	N	0.251346	0.435420	0.312475
	N4099	N	0.251364	0.569974	0.312458
	N4100	N	0.289661	0.435424	0.379064
	N4101	N	0.289563	0.569998	0.379078
	N4102	N	0.289509	0.070355	0.379075
	N4103	N	0.289541	0.935837	0.379083
	O4104	O	0.382682	0.694981	0.421878
	O4105	O	0.382838	0.811219	0.421792
	O4106	O	0.249835	0.694842	0.450444
	O4107	O	0.249814	0.811065	0.450487
	O4108	O	0.249699	0.194420	0.450521
	O4109	O	0.249707	0.310800	0.450532
	O4110	O	0.247275	0.694595	0.432139
	O4111	O	0.247246	0.811457	0.432189
	O4112	O	0.247132	0.194712	0.432157
	O4113	O	0.247423	0.311445	0.432185
	O4114	O	0.385300	0.695107	0.440150
	O4115	O	0.385359	0.811822	0.440146
	O4116	O	0.385179	0.195102	0.440185
	O4117	O	0.385311	0.311830	0.440169
	O4118	O	0.382953	0.194577	0.421828
	O4119	O	0.382809	0.310894	0.421885
	O4120	O	0.312540	0.694825	0.388082
	O4121	O	0.274220	0.694786	0.389730
	O4122	O	0.358383	0.694693	0.482568
	O4123	O	0.358589	0.811134	0.482608
	O4124	O	0.319922	0.694481	0.484256
	O4125	O	0.319951	0.810965	0.484253
	O4126	O	0.274059	0.811188	0.389708
	O4127	O	0.312493	0.811140	0.388071
	O4128	O	0.312681	0.195046	0.388108
	O4129	O	0.274312	0.195077	0.389769
	O4130	O	0.358536	0.195168	0.482610
	O4131	O	0.358446	0.311681	0.482625
	O4132	O	0.320165	0.193672	0.484211
	O4133	O	0.319972	0.310179	0.484245
	O4134	O	0.274180	0.311659	0.389715
	O4135	O	0.312649	0.311218	0.388129
	H4136	H	0.272234	0.644101	0.461294
	H4137	H	0.272652	0.861727	0.461234
	H4138	H	0.272528	0.143329	0.461198
	H4139	H	0.272341	0.361177	0.461356
	H4140	H	0.258438	0.862642	0.418966
	H4141	H	0.258379	0.643649	0.418965
	H4142	H	0.257993	0.362863	0.418891
	H4143	H	0.258538	0.143704	0.418953
	H4144	H	0.402289	0.064486	0.428552
	H4145	H	0.399777	0.064109	0.430527
	H4146	H	0.399767	0.940960	0.430481
	H4147	H	0.402303	0.941161	0.428503
	H4148	H	0.409293	0.065194	0.428664
	H4149	H	0.409491	0.941833	0.428590
	H4150	H	0.227778	0.064477	0.437688
	H4151	H	0.227814	0.941351	0.437693
	H4152	H	0.220678	0.064720	0.438469
	H4153	H	0.220565	0.941157	0.438510
	H4154	H	0.218228	0.064482	0.442873
	H4155	H	0.218174	0.941051	0.442866
	H4156	H	0.229195	0.441295	0.445725
	H4157	H	0.235485	0.441214	0.443512
	H4158	H	0.218705	0.440803	0.443802
	H4159	H	0.405842	0.441276	0.428524
	H4160	H	0.410850	0.441115	0.430151
	H4161	H	0.410446	0.440879	0.432078
	H4162	H	0.235474	0.564727	0.443509
	H4163	H	0.229270	0.564815	0.445728
	H4164	H	0.410528	0.564496	0.432019
	H4165	H	0.410868	0.564641	0.430149
	H4166	H	0.405957	0.564373	0.428524
	H4167	H	0.218614	0.564645	0.443799
	H4168	H	0.373970	0.643879	0.453348
	H4169	H	0.374354	0.862830	0.453383
	H4170	H	0.374431	0.144349	0.453447
	H4171	H	0.374148	0.362770	0.453359
	H4172	H	0.266847	0.643654	0.403561
	H4173	H	0.335064	0.644554	0.398900
	H4174	H	0.335132	0.861700	0.398893
	H4175	H	0.266930	0.862451	0.403553
	H4176	H	0.359924	0.644341	0.411147
	H4177	H	0.359969	0.861876	0.411115
	H4178	H	0.365720	0.643938	0.468783
	H4179	H	0.366017	0.862681	0.468822
	H4180	H	0.284159	0.441154	0.379300
	H4181	H	0.341424	0.440792	0.495756
	H4182	H	0.287221	0.440843	0.376826
	H4183	H	0.291931	0.440948	0.376887
	H4184	H	0.348662	0.440842	0.492733
	H4185	H	0.347828	0.441132	0.494843
	H4186	H	0.341482	0.564773	0.495724
	H4187	H	0.284050	0.564908	0.379308
	H4188	H	0.347865	0.564263	0.494815
	H4189	H	0.348711	0.564493	0.492706
	H4190	H	0.291775	0.564001	0.376887
	H4191	H	0.287074	0.564487	0.376866
	H4192	H	0.365923	0.144456	0.468855
	H4193	H	0.365643	0.362819	0.468797
	H4194	H	0.284004	0.064366	0.373976
	H4195	H	0.277224	0.064571	0.377442
	H4196	H	0.298521	0.064559	0.375237
	H4197	H	0.297493	0.861378	0.473469
	H4198	H	0.297066	0.643928	0.473553
	H4199	H	0.297259	0.360731	0.473532
	H4200	H	0.297487	0.142972	0.473409
	H4201	H	0.267077	0.144103	0.403538
	H4202	H	0.335323	0.144889	0.398891
	H4203	H	0.335187	0.360850	0.398903
	H4204	H	0.266467	0.362981	0.403466
	H4205	H	0.360175	0.144932	0.411119
	H4206	H	0.360001	0.360814	0.411160
	H4207	H	0.344142	0.064957	0.490044
	H4208	H	0.338312	0.064782	0.490768
	H4209	H	0.336336	0.064661	0.494333
	H4210	H	0.277293	0.940988	0.377446
	H4211	H	0.284080	0.941077	0.373995
	H4212	H	0.298591	0.941364	0.375296
	H4213	H	0.344006	0.941120	0.490041
	H4214	H	0.338097	0.941372	0.490782
	H4215	H	0.336285	0.941511	0.494320
	Zn4216	Zn	0.226717	0.680286	0.441494
	Zn4217	Zn	0.226639	0.825414	0.441555
	Zn4218	Zn	0.226561	0.180240	0.441514
	Zn4219	Zn	0.226703	0.325230	0.441548
	Zn4220	Zn	0.343025	0.680198	0.493240
	Zn4221	Zn	0.342844	0.825642	0.493226
	Zn4222	Zn	0.343156	0.180339	0.493256
	Zn4223	Zn	0.342857	0.325628	0.493234
	C4224	C	0.376701	0.753057	0.419121
	C4225	C	0.255863	0.752914	0.453202
	C4226	C	0.271057	0.752919	0.460488
	C4227	C	0.277883	0.691314	0.463986
	C4228	C	0.278134	0.814396	0.463964
	C4229	C	0.255734	0.252543	0.453261
	C4230	C	0.271045	0.252291	0.460492
	C4231	C	0.278093	0.190572	0.463923
	C4232	C	0.277983	0.313783	0.463992
	C4233	C	0.250661	0.753127	0.428839
	C4234	C	0.257868	0.753092	0.419885
	C4235	C	0.260452	0.815032	0.415555
	C4236	C	0.260402	0.691208	0.415548
	C4237	C	0.250634	0.253056	0.428831
	C4238	C	0.257750	0.253393	0.419847
	C4239	C	0.260088	0.315394	0.415480
	C4240	C	0.260409	0.191399	0.415528
	C4241	C	0.402366	0.043174	0.429869
	C4242	C	0.402353	0.962506	0.429819
	C4243	C	0.224788	0.043424	0.438971
	C4244	C	0.224780	0.962500	0.438981
	C4245	C	0.222374	0.043293	0.443364
	C4246	C	0.222369	0.962495	0.443383
	C4247	C	0.230794	0.462516	0.443798
	C4248	C	0.404499	0.462434	0.429420
	C4249	C	0.409434	0.462368	0.431026
	C4250	C	0.230793	0.543258	0.443815
	C4251	C	0.409456	0.543429	0.431018
	C4252	C	0.404515	0.543138	0.429414
	C4253	C	0.381878	0.753473	0.443471
	C4254	C	0.381847	0.253561	0.443510
	C4255	C	0.374722	0.753430	0.452451
	C4256	C	0.372154	0.691439	0.456783
	C4257	C	0.372322	0.815348	0.456794
	C4258	C	0.374736	0.253610	0.452475
	C4259	C	0.372354	0.191842	0.456848
	C4260	C	0.372165	0.315375	0.456799
	C4261	C	0.376868	0.252728	0.419114
	C4262	C	0.318487	0.753036	0.390845
	C4263	C	0.272048	0.752974	0.393311
	C4264	C	0.313932	0.752697	0.481517
	C4265	C	0.354417	0.691629	0.408414
	C4266	C	0.354441	0.814547	0.408405
	C4267	C	0.333642	0.753080	0.398145
	C4268	C	0.267051	0.752991	0.402589
	C4269	C	0.264996	0.691159	0.406987
	C4270	C	0.340631	0.691650	0.401614
	C4271	C	0.340656	0.814528	0.401609
	C4272	C	0.265040	0.814911	0.406988
	C4273	C	0.361443	0.753037	0.411879
	C4274	C	0.360606	0.752962	0.479011
	C4275	C	0.367568	0.691421	0.465347
	C4276	C	0.367789	0.815250	0.465366
	C4277	C	0.365632	0.753302	0.469746
	C4278	C	0.340502	0.462318	0.494560
	C4279	C	0.289522	0.462294	0.377442
	C4280	C	0.346932	0.462407	0.493648
	C4281	C	0.340569	0.543269	0.494529
	C4282	C	0.346933	0.543080	0.493634
	C4283	C	0.289451	0.543030	0.377460
	C4284	C	0.360569	0.253505	0.479032
	C4285	C	0.367783	0.191915	0.465414
	C4286	C	0.367611	0.315441	0.465370
	C4287	C	0.365628	0.253712	0.469771
	C4288	C	0.282938	0.043355	0.376599
	C4289	C	0.318689	0.253087	0.390857
	C4290	C	0.272122	0.253469	0.393310
	C4291	C	0.314057	0.251823	0.481484
	C4292	C	0.354636	0.191754	0.408395
	C4293	C	0.354553	0.313979	0.408402
	C4294	C	0.333871	0.252916	0.398127
	C4295	C	0.266997	0.253523	0.402567
	C4296	C	0.298793	0.752595	0.474228
	C4297	C	0.291900	0.814210	0.470762
	C4298	C	0.291635	0.691195	0.470790
	C4299	C	0.298862	0.251854	0.474201
	C4300	C	0.291789	0.313531	0.470780
	C4301	C	0.291901	0.190302	0.470713
	C4302	C	0.265081	0.191506	0.406970
	C4303	C	0.340843	0.191722	0.401607
	C4304	C	0.340760	0.314049	0.401617
	C4305	C	0.264745	0.315527	0.406919
	C4306	C	0.361635	0.252830	0.411851
	C4307	C	0.341777	0.043542	0.491156
	C4308	C	0.297509	0.043251	0.377908
	C4309	C	0.283003	0.962479	0.376593
	C4310	C	0.341671	0.962641	0.491141
	C4311	C	0.297537	0.962486	0.377921
	N4312	N	0.226522	0.070257	0.441512
	N4313	N	0.226484	0.935715	0.441540
	N4314	N	0.226516	0.435573	0.441485
	N4315	N	0.226519	0.570157	0.441507
	N4316	N	0.343059	0.435757	0.493272
	N4317	N	0.343100	0.570305	0.493252
	N4318	N	0.343250	0.070160	0.493283
	N4319	N	0.343137	0.935572	0.493268
	O4320	O	0.363522	0.695223	0.549068
	O4321	O	0.363525	0.811918	0.549059
	O4322	O	0.298005	0.694521	0.566772
	O4323	O	0.297793	0.811486	0.566836
	O4324	O	0.297912	0.195085	0.566799
	O4325	O	0.297958	0.312016	0.566815
	O4326	O	0.296036	0.694011	0.545128
	O4327	O	0.296212	0.810546	0.545157
	O4328	O	0.295952	0.194321	0.545090
	O4329	O	0.295884	0.310959	0.545077
	O4330	O	0.362771	0.694580	0.569685
	O4331	O	0.362847	0.811170	0.569721
	O4332	O	0.362974	0.194124	0.569722
	O4333	O	0.362843	0.310669	0.569710
	O4334	O	0.363627	0.194059	0.549048
	O4335	O	0.363409	0.310856	0.549038
	O4336	O	0.360164	0.694290	0.504339
	O4337	O	0.322263	0.694073	0.502567
	O4338	O	0.338819	0.694452	0.612748
	O4339	O	0.338922	0.811093	0.612763
	O4340	O	0.300882	0.694641	0.611482
	O4341	O	0.300865	0.811222	0.611565
	O4342	O	0.322351	0.810941	0.502632
	O4343	O	0.360217	0.811134	0.504289
	O4344	O	0.360444	0.194632	0.504287
	O4345	O	0.322381	0.194156	0.502569
	O4346	O	0.338798	0.194182	0.612716
	O4347	O	0.338799	0.310812	0.612696
	O4348	O	0.300960	0.194523	0.611543
	O4349	O	0.300869	0.311267	0.611538
	O4350	O	0.322266	0.310728	0.502582
	O4351	O	0.360197	0.311531	0.504275
	H4352	H	0.299605	0.643012	0.581145
	H4353	H	0.298956	0.862486	0.581145
	H4354	H	0.299295	0.143180	0.581135
	H4355	H	0.298945	0.363158	0.581188
	H4356	H	0.303428	0.861615	0.531353
	H4357	H	0.302869	0.642592	0.531270
	H4358	H	0.303116	0.361878	0.531283
	H4359	H	0.303126	0.143089	0.531274
	H4360	H	0.391470	0.064689	0.556399
	H4361	H	0.381741	0.064073	0.554321
	H4362	H	0.381670	0.941164	0.554257
	H4363	H	0.391388	0.940654	0.556411
	H4364	H	0.393026	0.064539	0.562792
	H4365	H	0.392961	0.941139	0.562768
	H4366	H	0.296480	0.064849	0.558586
	H4367	H	0.296555	0.941474	0.558595
	H4368	H	0.295192	0.065044	0.552456
	H4369	H	0.295377	0.941706	0.552467
	H4370	H	0.277834	0.065163	0.548532
	H4371	H	0.277803	0.941536	0.548487
	H4372	H	0.275499	0.441493	0.555101
	H4373	H	0.276471	0.440974	0.557000
	H4374	H	0.280100	0.441733	0.553455
	H4375	H	0.379453	0.441214	0.557167
	H4376	H	0.386527	0.440609	0.558082
	H4377	H	0.387872	0.440743	0.560374
	H4378	H	0.276398	0.564827	0.556993
	H4379	H	0.275482	0.564672	0.555087
	H4380	H	0.387999	0.564179	0.560331
	H4381	H	0.386448	0.564296	0.558111
	H4382	H	0.379495	0.564519	0.557212
	H4383	H	0.280017	0.564773	0.553521
	H4384	H	0.355143	0.643177	0.583567
	H4385	H	0.354482	0.862670	0.583448
	H4386	H	0.354762	0.142684	0.583458
	H4387	H	0.355126	0.361768	0.583533
	H4388	H	0.311003	0.642596	0.515802
	H4389	H	0.361524	0.643084	0.518724
	H4390	H	0.361883	0.862839	0.518670
	H4391	H	0.311545	0.861831	0.515891
	H4392	H	0.360646	0.643421	0.534723
	H4393	H	0.361012	0.863090	0.534647
	H4394	H	0.348293	0.643259	0.599167
	H4395	H	0.347646	0.862831	0.599055
	H4396	H	0.337637	0.440862	0.494242
	H4397	H	0.314165	0.440879	0.620665
	H4398	H	0.338835	0.441328	0.491289
	H4399	H	0.343563	0.440931	0.490678
	H4400	H	0.318614	0.441441	0.624940
	H4401	H	0.314141	0.440941	0.623754
	H4402	H	0.314176	0.564164	0.620681
	H4403	H	0.337754	0.564396	0.494205
	H4404	H	0.314193	0.564288	0.623728
	H4405	H	0.318641	0.564655	0.624910
	H4406	H	0.343526	0.564449	0.490690
	H4407	H	0.339003	0.564126	0.491381
	H4408	H	0.347699	0.142725	0.599025
	H4409	H	0.348071	0.361984	0.599109
	H4410	H	0.348890	0.064524	0.495360
	H4411	H	0.350317	0.064995	0.492786
	H4412	H	0.340849	0.064328	0.496313
	H4413	H	0.297971	0.862705	0.597139
	H4414	H	0.298626	0.643084	0.597150
	H4415	H	0.298090	0.362832	0.597184
	H4416	H	0.298404	0.142854	0.597139
	H4417	H	0.311439	0.142918	0.515830
	H4418	H	0.361665	0.143009	0.518658
	H4419	H	0.361635	0.362923	0.518669
	H4420	H	0.311456	0.361579	0.515849
	H4421	H	0.360814	0.142641	0.534645
	H4422	H	0.360815	0.362615	0.534679
	H4423	H	0.314555	0.064414	0.621298
	H4424	H	0.314412	0.064587	0.623156
	H4425	H	0.319493	0.064758	0.624600
	H4426	H	0.350282	0.941068	0.492722
	H4427	H	0.348934	0.941091	0.495337
	H4428	H	0.340766	0.941525	0.496309
	H4429	H	0.314428	0.941468	0.621260
	H4430	H	0.314386	0.940997	0.623160
	H4431	H	0.319508	0.941053	0.624582
	Zn4432	Zn	0.280426	0.680324	0.555757
	Zn4433	Zn	0.280632	0.825789	0.555746
	Zn4434	Zn	0.280604	0.180600	0.555789
	Zn4435	Zn	0.280612	0.325754	0.555713
	Zn4436	Zn	0.319067	0.680275	0.622275
	Zn4437	Zn	0.319096	0.825657	0.622323
	Zn4438	Zn	0.319119	0.179906	0.622330
	Zn4439	Zn	0.319142	0.325307	0.622287
	C4440	C	0.362236	0.753539	0.545336
	C4441	C	0.298763	0.752839	0.570533
	C4442	C	0.299513	0.752728	0.580190
	C4443	C	0.299259	0.690662	0.584711
	C4444	C	0.298894	0.814836	0.584718
	C4445	C	0.298739	0.253537	0.570544
	C4446	C	0.299499	0.253222	0.580192
	C4447	C	0.299103	0.190937	0.584709
	C4448	C	0.298930	0.315316	0.584738
	C4449	C	0.298160	0.752260	0.541554
	C4450	C	0.303054	0.752150	0.532254
	C4451	C	0.305146	0.814205	0.527890
	C4452	C	0.304855	0.690105	0.527839
	C4453	C	0.297939	0.252579	0.541502
	C4454	C	0.302898	0.252418	0.532241
	C4455	C	0.304956	0.314377	0.527853
	C4456	C	0.304960	0.190480	0.527840
	C4457	C	0.385369	0.043124	0.556531
	C4458	C	0.385340	0.962201	0.556515
	C4459	C	0.291954	0.043584	0.555581
	C4460	C	0.292024	0.963082	0.555586
	C4461	C	0.274454	0.043418	0.551638
	C4462	C	0.274468	0.962626	0.551632
	C4463	C	0.277245	0.462509	0.555957
	C4464	C	0.378657	0.462537	0.558439
	C4465	C	0.385750	0.462133	0.559378
	C4466	C	0.277213	0.543439	0.555979
	C4467	C	0.385741	0.543040	0.559371
	C4468	C	0.378698	0.543040	0.558461
	C4469	C	0.360230	0.752827	0.573235
	C4470	C	0.360330	0.252362	0.573239
	C4471	C	0.355121	0.752927	0.582533
	C4472	C	0.353534	0.690945	0.587019
	C4473	C	0.353185	0.814984	0.586955
	C4474	C	0.355067	0.252319	0.582507
	C4475	C	0.353244	0.190289	0.586933
	C4476	C	0.353420	0.314226	0.586975
	C4477	C	0.362217	0.252415	0.545314
	C4478	C	0.361169	0.752800	0.508057
	C4479	C	0.318882	0.752409	0.505918
	C4480	C	0.299555	0.753039	0.607790
	C4481	C	0.360899	0.691017	0.531152
	C4482	C	0.361096	0.815283	0.531114
	C4483	C	0.362024	0.752909	0.517722
	C4484	C	0.311874	0.752227	0.514920
	C4485	C	0.309304	0.690154	0.519255
	C4486	C	0.361463	0.690831	0.522269
	C4487	C	0.361667	0.815139	0.522238
	C4488	C	0.309575	0.814210	0.519304
	C4489	C	0.360745	0.753222	0.535668
	C4490	C	0.341800	0.752850	0.609293
	C4491	C	0.349818	0.690976	0.595694
	C4492	C	0.349470	0.815013	0.595631
	C4493	C	0.347707	0.753053	0.600096
	C4494	C	0.317084	0.462253	0.620727
	C4495	C	0.341739	0.462383	0.491602
	C4496	C	0.317142	0.462348	0.623796
	C4497	C	0.317077	0.543057	0.620725
	C4498	C	0.317130	0.543182	0.623781
	C4499	C	0.341778	0.543168	0.491608
	C4500	C	0.341693	0.252457	0.609237
	C4501	C	0.349507	0.190326	0.595606
	C4502	C	0.349718	0.314243	0.595647
	C4503	C	0.347646	0.252351	0.600056
	C4504	C	0.347966	0.043378	0.493844
	C4505	C	0.361215	0.253132	0.508018
	C4506	C	0.318974	0.252361	0.505927
	C4507	C	0.299609	0.252856	0.607804
	C4508	C	0.360974	0.190490	0.531095
	C4509	C	0.360976	0.314904	0.531107
	C4510	C	0.362037	0.252997	0.517690
	C4511	C	0.311888	0.252297	0.514923
	C4512	C	0.298143	0.752866	0.598123
	C4513	C	0.298295	0.814961	0.593597
	C4514	C	0.298657	0.690781	0.593593
	C4515	C	0.298133	0.252812	0.598133
	C4516	C	0.298323	0.315118	0.593619
	C4517	C	0.298493	0.190709	0.593588
	C4518	C	0.309465	0.190396	0.519261
	C4519	C	0.361545	0.190746	0.522214
	C4520	C	0.361555	0.315091	0.522220
	C4521	C	0.309460	0.314257	0.519274
	C4522	C	0.360727	0.252585	0.535644
	C4523	C	0.315678	0.043186	0.622259
	C4524	C	0.339829	0.043167	0.494761
	C4525	C	0.347922	0.962346	0.493837
	C4526	C	0.315630	0.962516	0.622252
	C4527	C	0.339779	0.962631	0.494773
	N4528	N	0.280856	0.070429	0.555776
	N4529	N	0.280910	0.935894	0.555797
	N4530	N	0.280726	0.435684	0.555741
	N4531	N	0.280626	0.570212	0.555756
	N4532	N	0.319091	0.435661	0.622286
	N4533	N	0.319052	0.570182	0.622285
	N4534	N	0.319127	0.069962	0.622349
	N4535	N	0.319098	0.935573	0.622330
	O4536	O	0.352280	0.694648	0.677440
	O4537	O	0.352336	0.811396	0.677333
	O4538	O	0.275265	0.694351	0.695538
	O4539	O	0.275596	0.811147	0.695472
	O4540	O	0.275712	0.194930	0.695466
	O4541	O	0.275334	0.311851	0.695522
	O4542	O	0.276518	0.694470	0.675260
	O4543	O	0.276535	0.811101	0.675256
	O4544	O	0.276508	0.194858	0.675267
	O4545	O	0.276336	0.311681	0.675248
	O4546	O	0.351469	0.694279	0.697679
	O4547	O	0.351364	0.810777	0.697652
	O4548	O	0.351408	0.194401	0.697691
	O4549	O	0.351360	0.310835	0.697658
	O4550	O	0.352458	0.194330	0.677407
	O4551	O	0.352306	0.311126	0.677419
	O4552	O	0.337857	0.694176	0.632906
	O4553	O	0.300490	0.694552	0.632214
	O4554	O	0.327790	0.693123	0.740727
	O4555	O	0.327788	0.810006	0.740759
	O4556	O	0.290245	0.694949	0.739925
	O4557	O	0.290387	0.811644	0.739927
	O4558	O	0.300287	0.811218	0.632212
	O4559	O	0.337850	0.811027	0.632943
	O4560	O	0.337826	0.194276	0.632960
	O4561	O	0.300242	0.194557	0.632216
	O4562	O	0.327777	0.194536	0.740723
	O4563	O	0.327706	0.311374	0.740748
	O4564	O	0.290274	0.194006	0.739920
	O4565	O	0.290025	0.310825	0.739940
	O4566	O	0.300393	0.311314	0.632182
	O4567	O	0.337860	0.311134	0.632956
	H4568	H	0.280820	0.643387	0.709794
	H4569	H	0.281294	0.862722	0.709718
	H4570	H	0.281546	0.143390	0.709661
	H4571	H	0.280992	0.362982	0.709723
	H4572	H	0.285689	0.862442	0.661617
	H4573	H	0.285877	0.642950	0.661642
	H4574	H	0.285679	0.363020	0.661625
	H4575	H	0.285510	0.143441	0.661665
	H4576	H	0.367235	0.064162	0.697835
	H4577	H	0.385770	0.064312	0.696034
	H4578	H	0.385682	0.940214	0.695984
	H4579	H	0.367254	0.941025	0.697833
	H4580	H	0.348699	0.064385	0.689388
	H4581	H	0.348614	0.941073	0.689377
	H4582	H	0.265910	0.064600	0.690053
	H4583	H	0.266001	0.941275	0.690054
	H4584	H	0.271468	0.064535	0.685306
	H4585	H	0.271490	0.941264	0.685325
	H4586	H	0.262102	0.064255	0.678977
	H4587	H	0.262117	0.941140	0.678967
	H4588	H	0.251714	0.441013	0.684077
	H4589	H	0.252280	0.441136	0.685969
	H4590	H	0.256364	0.441116	0.682557
	H4591	H	0.372554	0.440696	0.693225
	H4592	H	0.360419	0.441383	0.690280
	H4593	H	0.360004	0.440753	0.685891
	H4594	H	0.252285	0.564674	0.685997
	H4595	H	0.251733	0.564660	0.684070
	H4596	H	0.360029	0.564451	0.685839
	H4597	H	0.360315	0.564017	0.690277
	H4598	H	0.372495	0.564312	0.693294
	H4599	H	0.256421	0.564337	0.682561
	H4600	H	0.342347	0.642347	0.711317
	H4601	H	0.342596	0.862058	0.711398
	H4602	H	0.342570	0.143215	0.711383
	H4603	H	0.342123	0.362193	0.711246
	H4604	H	0.292783	0.642930	0.646030
	H4605	H	0.343759	0.642715	0.647152
	H4606	H	0.343261	0.862022	0.647136
	H4607	H	0.292528	0.862468	0.646029
	H4608	H	0.347154	0.643012	0.663175
	H4609	H	0.346721	0.862192	0.663122
	H4610	H	0.335669	0.641886	0.726955
	H4611	H	0.335839	0.861789	0.727011
	H4612	H	0.318540	0.441018	0.619633
	H4613	H	0.305579	0.441037	0.752960
	H4614	H	0.324562	0.441321	0.621242
	H4615	H	0.324584	0.441570	0.623492
	H4616	H	0.315032	0.440990	0.750691
	H4617	H	0.312797	0.440694	0.752773
	H4618	H	0.305612	0.564027	0.752965
	H4619	H	0.318516	0.564509	0.619666
	H4620	H	0.312802	0.564440	0.752767
	H4621	H	0.314972	0.564489	0.750645
	H4622	H	0.324595	0.564893	0.623491
	H4623	H	0.324569	0.564978	0.621275
	H4624	H	0.335800	0.143502	0.726972
	H4625	H	0.335359	0.362533	0.726893
	H4626	H	0.323349	0.064948	0.621205
	H4627	H	0.319675	0.064400	0.620117
	H4628	H	0.323228	0.064619	0.623746
	H4629	H	0.284924	0.862850	0.725737
	H4630	H	0.284467	0.643700	0.725782
	H4631	H	0.284376	0.362623	0.725751
	H4632	H	0.284872	0.142957	0.725672
	H4633	H	0.292407	0.143171	0.646049
	H4634	H	0.343248	0.143396	0.647196
	H4635	H	0.343728	0.362647	0.647159
	H4636	H	0.292618	0.362954	0.646015
	H4637	H	0.346646	0.143358	0.663200
	H4638	H	0.347108	0.362717	0.663165
	H4639	H	0.295699	0.064609	0.752688
	H4640	H	0.304548	0.064501	0.756498
	H4641	H	0.320438	0.064245	0.754677
	H4642	H	0.319612	0.941305	0.620096
	H4643	H	0.323374	0.941202	0.621127
	H4644	H	0.323290	0.941195	0.623761
	H4645	H	0.295621	0.941241	0.752713
	H4646	H	0.304609	0.940974	0.756489
	H4647	H	0.320449	0.940502	0.754725
	Zn4648	Zn	0.256714	0.680427	0.684858
	Zn4649	Zn	0.256751	0.825275	0.684848
	Zn4650	Zn	0.256785	0.180240	0.684863
	Zn4651	Zn	0.256552	0.325258	0.684863
	Zn4652	Zn	0.308768	0.680289	0.750587
	Zn4653	Zn	0.309010	0.824866	0.750618
	Zn4654	Zn	0.309053	0.180399	0.750616
	Zn4655	Zn	0.308729	0.325037	0.750613
	C4656	C	0.350336	0.752812	0.673720
	C4657	C	0.277497	0.752861	0.699161
	C4658	C	0.281111	0.753122	0.708746
	C4659	C	0.281847	0.691171	0.713311
	C4660	C	0.282087	0.815166	0.713282
	C4661	C	0.277571	0.253326	0.699138
	C4662	C	0.281107	0.253175	0.708723
	C4663	C	0.282119	0.191019	0.713235
	C4664	C	0.281847	0.315239	0.713271
	C4665	C	0.279446	0.752773	0.671791
	C4666	C	0.285338	0.752716	0.662603
	C4667	C	0.287231	0.814718	0.658166
	C4668	C	0.287362	0.690685	0.658170
	C4669	C	0.279340	0.253347	0.671798
	C4670	C	0.285280	0.253344	0.662603
	C4671	C	0.287268	0.315363	0.658158
	C4672	C	0.287165	0.191095	0.658181
	C4673	C	0.375106	0.042990	0.694600
	C4674	C	0.375072	0.961995	0.694592
	C4675	C	0.265568	0.043236	0.686953
	C4676	C	0.265571	0.962483	0.686940
	C4677	C	0.256194	0.043134	0.680562
	C4678	C	0.256166	0.962392	0.680564
	C4679	C	0.253200	0.462243	0.684976
	C4680	C	0.375292	0.462124	0.691067
	C4681	C	0.363057	0.462380	0.688077
	C4682	C	0.253234	0.543288	0.684978
	C4683	C	0.363006	0.542952	0.688060
	C4684	C	0.375272	0.543232	0.691085
	C4685	C	0.348534	0.752510	0.701154
	C4686	C	0.348491	0.252657	0.701146
	C4687	C	0.342697	0.752231	0.710372
	C4688	C	0.340800	0.690049	0.714802
	C4689	C	0.340926	0.814213	0.714846
	C4690	C	0.342675	0.252681	0.710349
	C4691	C	0.340854	0.190885	0.714811
	C4692	C	0.340639	0.314792	0.714745
	C4693	C	0.350392	0.252776	0.673753
	C4694	C	0.339876	0.752508	0.636581
	C4695	C	0.297866	0.752811	0.635746
	C4696	C	0.288307	0.753338	0.736257
	C4697	C	0.346159	0.690530	0.659604
	C4698	C	0.345899	0.814543	0.659579
	C4699	C	0.343390	0.752288	0.646173
	C4700	C	0.292666	0.752712	0.645032
	C4701	C	0.291060	0.690596	0.649490
	C4702	C	0.344388	0.690397	0.650717
	C4703	C	0.344117	0.814469	0.650695
	C4704	C	0.290937	0.814795	0.649492
	C4705	C	0.346775	0.752529	0.664126
	C4706	C	0.330340	0.751606	0.737233
	C4707	C	0.337182	0.689669	0.723490
	C4708	C	0.337305	0.814055	0.723529
	C4709	C	0.335508	0.751701	0.727955
	C4710	C	0.305245	0.462167	0.751619
	C4711	C	0.323157	0.462787	0.622351
	C4712	C	0.312534	0.462242	0.751447
	C4713	C	0.305279	0.542865	0.751634
	C4714	C	0.312521	0.543286	0.751427
	C4715	C	0.323117	0.543700	0.622345
	C4716	C	0.330287	0.253010	0.737212
	C4717	C	0.337212	0.191061	0.723484
	C4718	C	0.336980	0.314943	0.723428
	C4719	C	0.335380	0.253010	0.727911
	C4720	C	0.320841	0.043398	0.621101
	C4721	C	0.339862	0.252697	0.636624
	C4722	C	0.297821	0.253044	0.635735
	C4723	C	0.288131	0.252394	0.736257
	C4724	C	0.345879	0.191067	0.659638
	C4725	C	0.346128	0.315050	0.659625
	C4726	C	0.343414	0.252988	0.646214
	C4727	C	0.292664	0.253137	0.645039
	C4728	C	0.284647	0.753331	0.726688
	C4729	C	0.283922	0.815391	0.722164
	C4730	C	0.283679	0.691240	0.722191
	C4731	C	0.284544	0.252678	0.726663
	C4732	C	0.283642	0.315029	0.722160
	C4733	C	0.283898	0.190680	0.722119
	C4734	C	0.290873	0.191045	0.649500
	C4735	C	0.344129	0.190952	0.650754
	C4736	C	0.344393	0.315078	0.650738
	C4737	C	0.290992	0.315225	0.649483
	C4738	C	0.346810	0.253043	0.664163
	C4739	C	0.302480	0.043104	0.753545
	C4740	C	0.320762	0.043333	0.623695
	C4741	C	0.320847	0.962453	0.621077
	C4742	C	0.302463	0.962301	0.753548
	C4743	C	0.320771	0.962469	0.623692
	N4744	N	0.256789	0.070054	0.684859
	N4745	N	0.256789	0.935499	0.684864
	N4746	N	0.256609	0.435445	0.684844
	N4747	N	0.256703	0.570064	0.684858
	N4748	N	0.308720	0.435311	0.750591
	N4749	N	0.308705	0.569905	0.750590
	N4750	N	0.309060	0.069922	0.750565
	N4751	N	0.309072	0.935293	0.750597
	O4752	O	0.330620	0.693763	0.806106
	O4753	O	0.330617	0.810553	0.806174
	O4754	O	0.265062	0.694643	0.823940
	O4755	O	0.264904	0.811434	0.823957
	O4756	O	0.264853	0.193763	0.823914
	O4757	O	0.264945	0.310443	0.823934
	O4758	O	0.265535	0.694815	0.803285
	O4759	O	0.265397	0.811471	0.803232
	O4760	O	0.265525	0.193705	0.803272
	O4761	O	0.265529	0.310303	0.803279
	O4762	O	0.332429	0.694258	0.827804
	O4763	O	0.332380	0.810791	0.827854
	O4764	O	0.332436	0.195116	0.827839
	O4765	O	0.332386	0.311518	0.827814
	O4766	O	0.330670	0.194766	0.806179
	O4767	O	0.330668	0.311457	0.806157
	O4768	O	0.327039	0.693786	0.761395
	O4769	O	0.289062	0.694826	0.760150
	O4770	O	0.305979	0.693779	0.870292
	O4771	O	0.306028	0.810529	0.870349
	O4772	O	0.267905	0.694981	0.868685
	O4773	O	0.267873	0.811593	0.868682
	O4774	O	0.289298	0.811415	0.760221
	O4775	O	0.327263	0.810581	0.761400
	O4776	O	0.327160	0.194862	0.761435
	O4777	O	0.289203	0.193640	0.760203
	O4778	O	0.305906	0.194876	0.870320
	O4779	O	0.305873	0.311669	0.870336
	O4780	O	0.268035	0.193656	0.868643
	O4781	O	0.267917	0.310501	0.868637
	O4782	O	0.289092	0.310215	0.760199
	O4783	O	0.326951	0.311539	0.761433
	H4784	H	0.267672	0.643453	0.838301
	H4785	H	0.267346	0.863114	0.838310
	H4786	H	0.267671	0.141952	0.838286
	H4787	H	0.267527	0.361683	0.838317
	H4788	H	0.273146	0.862851	0.789419
	H4789	H	0.273496	0.643407	0.789462
	H4790	H	0.273320	0.361633	0.789475
	H4791	H	0.273227	0.142291	0.789468
	H4792	H	0.351326	0.064083	0.816320
	H4793	H	0.348452	0.063851	0.815433
	H4794	H	0.348538	0.940815	0.815404
	H4795	H	0.351474	0.940282	0.816355
	H4796	H	0.351083	0.064061	0.818397
	H4797	H	0.351082	0.940643	0.818384
	H4798	H	0.261832	0.064300	0.815748
	H4799	H	0.261995	0.940675	0.815720
	H4800	H	0.260488	0.064359	0.809778
	H4801	H	0.260605	0.940402	0.809777
	H4802	H	0.243586	0.064593	0.806102
	H4803	H	0.243634	0.940998	0.806083
	H4804	H	0.253562	0.440655	0.812002
	H4805	H	0.248778	0.440640	0.810088
	H4806	H	0.251889	0.441042	0.815656
	H4807	H	0.348704	0.440498	0.817599
	H4808	H	0.347462	0.440620	0.817560
	H4809	H	0.346869	0.440756	0.817211
	H4810	H	0.248712	0.564256	0.810057
	H4811	H	0.253545	0.564263	0.811962
	H4812	H	0.346852	0.564012	0.817218
	H4813	H	0.347387	0.563526	0.817546
	H4814	H	0.348705	0.564330	0.817582
	H4815	H	0.251809	0.564441	0.815636
	H4816	H	0.325040	0.642752	0.841580
	H4817	H	0.325216	0.861983	0.841686
	H4818	H	0.325238	0.143907	0.841685
	H4819	H	0.324988	0.362802	0.841637
	H4820	H	0.280452	0.643587	0.773871
	H4821	H	0.329836	0.642349	0.775719
	H4822	H	0.329755	0.862117	0.775767
	H4823	H	0.280173	0.862632	0.773818
	H4824	H	0.329087	0.642401	0.791734
	H4825	H	0.329012	0.862052	0.791752
	H4826	H	0.316815	0.642542	0.857030
	H4827	H	0.316957	0.861988	0.857135
	H4828	H	0.302495	0.441101	0.750997
	H4829	H	0.273003	0.441061	0.881321
	H4830	H	0.305500	0.441010	0.748132
	H4831	H	0.310787	0.440921	0.747998
	H4832	H	0.294781	0.440494	0.883517
	H4833	H	0.285003	0.440652	0.885280
	H4834	H	0.272985	0.564257	0.881283
	H4835	H	0.302486	0.564116	0.751003
	H4836	H	0.285102	0.564293	0.885316
	H4837	H	0.294798	0.564173	0.883489
	H4838	H	0.310770	0.564422	0.748000
	H4839	H	0.305478	0.564357	0.748148
	H4840	H	0.316867	0.143924	0.857111
	H4841	H	0.316650	0.362954	0.857080
	H4842	H	0.311055	0.064255	0.744378
	H4843	H	0.299357	0.064262	0.745696
	H4844	H	0.323233	0.064069	0.749599
	H4845	H	0.266503	0.863172	0.854283
	H4846	H	0.266810	0.643529	0.854309
	H4847	H	0.266594	0.361531	0.854268
	H4848	H	0.266720	0.142170	0.854284
	H4849	H	0.279951	0.142390	0.773840
	H4850	H	0.329738	0.143214	0.775836
	H4851	H	0.329645	0.362762	0.775765
	H4852	H	0.280080	0.361523	0.773849
	H4853	H	0.329059	0.143385	0.791841
	H4854	H	0.329035	0.363084	0.791762
	H4855	H	0.291661	0.064037	0.884326
	H4856	H	0.297194	0.064162	0.880708
	H4857	H	0.291090	0.064408	0.875256
	H4858	H	0.299416	0.940811	0.745708
	H4859	H	0.311006	0.940987	0.744388
	H4860	H	0.323173	0.940719	0.749611
	H4861	H	0.291619	0.940894	0.884342
	H4862	H	0.297227	0.941099	0.880762
	H4863	H	0.291152	0.940833	0.875283
	Zn4864	Zn	0.246746	0.680177	0.813157
	Zn4865	Zn	0.246666	0.825471	0.813136
	Zn4866	Zn	0.246596	0.180143	0.813159
	Zn4867	Zn	0.246808	0.325486	0.813179
	Zn4868	Zn	0.285258	0.679830	0.879673
	Zn4869	Zn	0.285362	0.825075	0.879705
	Zn4870	Zn	0.285417	0.180008	0.879678
	Zn4871	Zn	0.285190	0.325043	0.879679
	C4872	C	0.329705	0.752248	0.802389
	C4873	C	0.266295	0.753016	0.827667
	C4874	C	0.267616	0.753119	0.837328
	C4875	C	0.267406	0.691174	0.841865
	C4876	C	0.267218	0.815365	0.841857
	C4877	C	0.266165	0.252027	0.827652
	C4878	C	0.267669	0.251850	0.837307
	C4879	C	0.267430	0.189711	0.841832
	C4880	C	0.267334	0.313916	0.841846
	C4881	C	0.267965	0.753109	0.799724
	C4882	C	0.273115	0.753084	0.790451
	C4883	C	0.274788	0.815071	0.785983
	C4884	C	0.274964	0.691121	0.786006
	C4885	C	0.268031	0.252011	0.799742
	C4886	C	0.273141	0.251986	0.790458
	C4887	C	0.274837	0.314044	0.786006
	C4888	C	0.274768	0.189982	0.786000
	C4889	C	0.349350	0.042821	0.816224
	C4890	C	0.349392	0.961915	0.816219
	C4891	C	0.257382	0.043074	0.812851
	C4892	C	0.257428	0.962144	0.812850
	C4893	C	0.240384	0.043342	0.809164
	C4894	C	0.240371	0.962416	0.809161
	C4895	C	0.249977	0.462109	0.811591
	C4896	C	0.348599	0.462052	0.817321
	C4897	C	0.347347	0.462189	0.817320
	C4898	C	0.249962	0.543036	0.811574
	C4899	C	0.347304	0.542700	0.817314
	C4900	C	0.348603	0.542922	0.817322
	C4901	C	0.330301	0.752450	0.831400
	C4902	C	0.330336	0.253370	0.831420
	C4903	C	0.325386	0.752379	0.840694
	C4904	C	0.323294	0.690294	0.845048
	C4905	C	0.323422	0.814394	0.845111
	C4906	C	0.325301	0.253437	0.840703
	C4907	C	0.323297	0.191439	0.845103
	C4908	C	0.323212	0.315399	0.845088
	C4909	C	0.329732	0.253108	0.802425
	C4910	C	0.328423	0.752139	0.765124
	C4911	C	0.286303	0.753052	0.763669
	C4912	C	0.267039	0.753293	0.864922
	C4913	C	0.329177	0.690147	0.788174
	C4914	C	0.329163	0.814274	0.788199
	C4915	C	0.329937	0.752178	0.774777
	C4916	C	0.280405	0.753037	0.772872
	C4917	C	0.278653	0.691069	0.777325
	C4918	C	0.329697	0.690013	0.779292
	C4919	C	0.329683	0.814312	0.779323
	C4920	C	0.278466	0.815070	0.777297
	C4921	C	0.328752	0.752225	0.792725
	C4922	C	0.309391	0.752192	0.866986
	C4923	C	0.318830	0.690202	0.853627
	C4924	C	0.318952	0.814422	0.853693
	C4925	C	0.316444	0.752257	0.857998
	C4926	C	0.276517	0.462317	0.879162
	C4927	C	0.308304	0.462199	0.748735
	C4928	C	0.288597	0.461981	0.883166
	C4929	C	0.276520	0.543085	0.879157
	C4930	C	0.288624	0.543023	0.883158
	C4931	C	0.308271	0.543001	0.748733
	C4932	C	0.309261	0.253316	0.867001
	C4933	C	0.318784	0.191451	0.853679
	C4934	C	0.318699	0.315439	0.853662
	C4935	C	0.316292	0.253482	0.858019
	C4936	C	0.306230	0.042950	0.746512
	C4937	C	0.328374	0.253177	0.765156
	C4938	C	0.286265	0.251932	0.763682
	C4939	C	0.267077	0.252018	0.864902
	C4940	C	0.329129	0.191041	0.788259
	C4941	C	0.329122	0.315275	0.788214
	C4942	C	0.329860	0.253017	0.774818
	C4943	C	0.280358	0.252081	0.772883
	C4944	C	0.266258	0.753260	0.855267
	C4945	C	0.266635	0.815407	0.850732
	C4946	C	0.266791	0.691217	0.850737
	C4947	C	0.266221	0.251759	0.855237
	C4948	C	0.266708	0.313883	0.850719
	C4949	C	0.266816	0.189718	0.850711
	C4950	C	0.278416	0.190047	0.777311
	C4951	C	0.329610	0.190975	0.779375
	C4952	C	0.329588	0.315119	0.779333
	C4953	C	0.278499	0.314027	0.777327
	C4954	C	0.328746	0.253187	0.792764
	C4955	C	0.292009	0.042893	0.881785
	C4956	C	0.318480	0.042937	0.751737
	C4957	C	0.306221	0.962173	0.746519
	C4958	C	0.291998	0.962146	0.881806
	C4959	C	0.318459	0.962013	0.751745
	N4960	N	0.246677	0.069794	0.813139
	N4961	N	0.246694	0.935370	0.813144
	N4962	N	0.246741	0.435576	0.813178
	N4963	N	0.246705	0.570098	0.813148
	N4964	N	0.284969	0.435276	0.879685
	N4965	N	0.284997	0.569783	0.879695
	N4966	N	0.285317	0.069929	0.879719
	N4967	N	0.285349	0.935366	0.879726
	O4968	O	0.377194	0.693916	0.922785
	O4969	O	0.376973	0.810171	0.922814
	O4970	O	0.246069	0.695060	0.951320
	O4971	O	0.246064	0.811348	0.951298
	O4972	O	0.246118	0.194799	0.951289
	O4973	O	0.246077	0.311052	0.951286
	O4974	O	0.243774	0.694517	0.932908
	O4975	O	0.243612	0.811156	0.932848
	O4976	O	0.243753	0.194091	0.932882
	O4977	O	0.243787	0.310797	0.932874
	O4978	O	0.379692	0.693591	0.941292
	O4979	O	0.379460	0.810457	0.941259
	O4980	O	0.379375	0.194524	0.941181
	O4981	O	0.379600	0.311162	0.941293
	O4982	O	0.377102	0.194853	0.922809
	O4983	O	0.377049	0.310981	0.922838
	O4984	O	0.308143	0.693346	0.888724
	O4985	O	0.269779	0.694423	0.890338
	O4986	O	0.353343	0.693711	0.983809
	O4987	O	0.353364	0.810366	0.983824
	O4988	O	0.315079	0.694660	0.985393
	O4989	O	0.315159	0.811045	0.985369
	O4990	O	0.269751	0.811073	0.890346
	O4991	O	0.308193	0.809666	0.888717
	O4992	O	0.308384	0.194649	0.888681
	O4993	O	0.269992	0.193911	0.890355
	O4994	O	0.353141	0.194231	0.983775
	O4995	O	0.353549	0.310657	0.983829
	O4996	O	0.315013	0.194712	0.985403
	O4997	O	0.315109	0.310825	0.985355
	O4998	O	0.270004	0.310248	0.890387
	O4999	O	0.308244	0.310947	0.888681
	H5000	H	0.268487	0.644970	0.962115
	H5001	H	0.268347	0.861041	0.962168
	H5002	H	0.268293	0.145174	0.962180
	H5003	H	0.268354	0.361145	0.962180
	H5004	H	0.254365	0.862657	0.919607
	H5005	H	0.254806	0.643232	0.919624
	H5006	H	0.255088	0.361322	0.919670
	H5007	H	0.254404	0.142992	0.919609
	H5008	H	0.392290	0.064455	0.931232
	H5009	H	0.394225	0.064231	0.934039
	H5010	H	0.394120	0.940565	0.934040
	H5011	H	0.392185	0.940552	0.931200
	H5012	H	0.398397	0.063517	0.928471
	H5013	H	0.398373	0.940571	0.928460
	H5014	H	0.222933	0.064232	0.940658
	H5015	H	0.222993	0.941118	0.940634
	H5016	H	0.220179	0.064697	0.941184
	H5017	H	0.220234	0.940911	0.941186
	H5018	H	0.219996	0.064268	0.943067
	H5019	H	0.219932	0.940954	0.943072
	H5020	H	0.222869	0.440914	0.941051
	H5021	H	0.220900	0.441035	0.941479
	H5022	H	0.225601	0.440707	0.941847
	H5023	H	0.396574	0.440887	0.933302
	H5024	H	0.395530	0.440886	0.930818
	H5025	H	0.398738	0.440839	0.929625
	H5026	H	0.220781	0.564443	0.941505
	H5027	H	0.222967	0.564246	0.941044
	H5028	H	0.398881	0.564158	0.929636
	H5029	H	0.395605	0.563963	0.930828
	H5030	H	0.396587	0.563456	0.933297
	H5031	H	0.225591	0.564150	0.941859
	H5032	H	0.368790	0.642654	0.954537
	H5033	H	0.368373	0.861431	0.954479
	H5034	H	0.368218	0.143191	0.954430
	H5035	H	0.369210	0.361624	0.954635
	H5036	H	0.262945	0.643273	0.904170
	H5037	H	0.330276	0.643279	0.899613
	H5038	H	0.330330	0.859635	0.899552
	H5039	H	0.262477	0.862656	0.904127
	H5040	H	0.354712	0.643419	0.911960
	H5041	H	0.354721	0.859975	0.911909
	H5042	H	0.360617	0.642799	0.969980
	H5043	H	0.360161	0.861203	0.969951
	H5044	H	0.274005	0.440969	0.876665
	H5045	H	0.337948	0.440913	0.996930
	H5046	H	0.287352	0.441147	0.874179
	H5047	H	0.296194	0.440612	0.877129
	H5048	H	0.342931	0.441410	0.993321
	H5049	H	0.343297	0.440825	0.995391
	H5050	H	0.337976	0.564054	0.996931
	H5051	H	0.274007	0.564477	0.876645
	H5052	H	0.343263	0.564188	0.995386
	H5053	H	0.342898	0.564281	0.993336
	H5054	H	0.296177	0.563909	0.877129
	H5055	H	0.287449	0.564528	0.874237
	H5056	H	0.359940	0.143000	0.969873
	H5057	H	0.361091	0.361406	0.970079
	H5058	H	0.273620	0.064585	0.879625
	H5059	H	0.277944	0.064228	0.883642
	H5060	H	0.281258	0.064532	0.874777
	H5061	H	0.292843	0.861229	0.974503
	H5062	H	0.292963	0.644652	0.974437
	H5063	H	0.292789	0.361000	0.974482
	H5064	H	0.292806	0.145016	0.974492
	H5065	H	0.262566	0.143068	0.904150
	H5066	H	0.330333	0.144850	0.899649
	H5067	H	0.330325	0.360928	0.899613
	H5068	H	0.263304	0.361096	0.904218
	H5069	H	0.354697	0.144761	0.912010
	H5070	H	0.354675	0.361158	0.911991
	H5071	H	0.334924	0.064168	0.993483
	H5072	H	0.334370	0.064119	0.994838
	H5073	H	0.337709	0.064202	0.996063
	H5074	H	0.277894	0.940844	0.883606
	H5075	H	0.273488	0.940798	0.879635
	H5076	H	0.281236	0.940679	0.874763
	H5077	H	0.335000	0.940684	0.993463
	H5078	H	0.334496	0.940762	0.994811
	H5079	H	0.337772	0.940523	0.996051
	Zn5080	Zn	0.223201	0.679953	0.942251
	Zn5081	Zn	0.223157	0.825438	0.942250
	Zn5082	Zn	0.223212	0.179754	0.942264
	Zn5083	Zn	0.223240	0.325501	0.942238
	Zn5084	Zn	0.337820	0.679733	0.994455
	Zn5085	Zn	0.338020	0.825178	0.994449
	Zn5086	Zn	0.337788	0.179841	0.994474
	Zn5087	Zn	0.337976	0.325380	0.994437
	C5088	C	0.371168	0.751965	0.920016
	C5089	C	0.251977	0.753245	0.954084
	C5090	C	0.266956	0.753113	0.961415
	C5091	C	0.273904	0.691894	0.964883
	C5092	C	0.273813	0.814182	0.964916
	C5093	C	0.251997	0.252952	0.954069
	C5094	C	0.266941	0.253093	0.961418
	C5095	C	0.273776	0.191999	0.964923
	C5096	C	0.273825	0.314264	0.964911
	C5097	C	0.247034	0.752762	0.929533
	C5098	C	0.253944	0.752870	0.920517
	C5099	C	0.256265	0.815030	0.916166
	C5100	C	0.256519	0.690815	0.916182
	C5101	C	0.247159	0.252371	0.929545
	C5102	C	0.254226	0.252187	0.920552
	C5103	C	0.256847	0.313957	0.916222
	C5104	C	0.256466	0.190378	0.916189
	C5105	C	0.395075	0.042908	0.932425
	C5106	C	0.395022	0.961974	0.932424
	C5107	C	0.221925	0.043019	0.941274
	C5108	C	0.221954	0.962347	0.941269
	C5109	C	0.221728	0.042942	0.943163
	C5110	C	0.221724	0.962241	0.943148
	C5111	C	0.222100	0.462342	0.941524
	C5112	C	0.398961	0.462073	0.933183
	C5113	C	0.397975	0.461918	0.930637
	C5114	C	0.222117	0.543132	0.941533
	C5115	C	0.397999	0.542801	0.930641
	C5116	C	0.399016	0.542703	0.933181
	C5117	C	0.376195	0.751987	0.944607
	C5118	C	0.376163	0.252707	0.944590
	C5119	C	0.369048	0.752056	0.953578
	C5120	C	0.366782	0.690136	0.957949
	C5121	C	0.366525	0.813951	0.957923
	C5122	C	0.369198	0.252406	0.953600
	C5123	C	0.366450	0.190516	0.957888
	C5124	C	0.367018	0.314108	0.958005
	C5125	C	0.371144	0.252931	0.920052
	C5126	C	0.314083	0.751478	0.891481
	C5127	C	0.267696	0.752739	0.893914
	C5128	C	0.309192	0.752878	0.982609
	C5129	C	0.349314	0.690450	0.909184
	C5130	C	0.349331	0.812824	0.909153
	C5131	C	0.329013	0.751497	0.898791
	C5132	C	0.262742	0.752905	0.903185
	C5133	C	0.260939	0.690890	0.907597
	C5134	C	0.335772	0.690242	0.902330
	C5135	C	0.335807	0.812761	0.902294
	C5136	C	0.260683	0.815059	0.907576
	C5137	C	0.356238	0.751750	0.912657
	C5138	C	0.355399	0.752070	0.980234
	C5139	C	0.362344	0.690302	0.966535
	C5140	C	0.362080	0.813890	0.966514
	C5141	C	0.360272	0.752096	0.970929
	C5142	C	0.336457	0.462139	0.995915
	C5143	C	0.289966	0.462060	0.876730
	C5144	C	0.341830	0.462320	0.994389
	C5145	C	0.336415	0.543005	0.995935
	C5146	C	0.341790	0.543003	0.994395
	C5147	C	0.289989	0.542840	0.876727
	C5148	C	0.355468	0.252445	0.980217
	C5149	C	0.361984	0.190422	0.966472
	C5150	C	0.362612	0.314025	0.966591
	C5151	C	0.360314	0.252181	0.970931
	C5152	C	0.278268	0.042951	0.881123
	C5153	C	0.314179	0.252878	0.891475
	C5154	C	0.267953	0.251970	0.893955
	C5155	C	0.309112	0.252773	0.982618
	C5156	C	0.349309	0.191743	0.909254
	C5157	C	0.349299	0.314166	0.909238
	C5158	C	0.329028	0.252945	0.898848
	C5159	C	0.263035	0.252024	0.903230
	C5160	C	0.294252	0.752989	0.975266
	C5161	C	0.287387	0.814161	0.971754
	C5162	C	0.287461	0.691807	0.971722
	C5163	C	0.294209	0.252923	0.975278
	C5164	C	0.287367	0.314087	0.971763
	C5165	C	0.287345	0.191929	0.971764
	C5166	C	0.260918	0.190392	0.907606
	C5167	C	0.335812	0.191761	0.902387
	C5168	C	0.335807	0.314085	0.902369
	C5169	C	0.261313	0.313769	0.907647
	C5170	C	0.356169	0.252993	0.912743
	C5171	C	0.335597	0.042790	0.994235
	C5172	C	0.285938	0.043213	0.876253
	C5173	C	0.278263	0.962179	0.881130
	C5174	C	0.335668	0.962157	0.994230
	C5175	C	0.285986	0.962231	0.876252
	N5176	N	0.223069	0.069780	0.942256
	N5177	N	0.223063	0.935325	0.942257
	N5178	N	0.223046	0.435473	0.942248
	N5179	N	0.223058	0.569940	0.942252
	N5180	N	0.338083	0.435335	0.994441
	N5181	N	0.338039	0.569772	0.994464
	N5182	N	0.338031	0.070040	0.994478
	N5183	N	0.338139	0.935532	0.994478
	O5184	O	0.481454	0.694439	0.052044
	O5185	O	0.481612	0.811150	0.052002
	O5186	O	0.395489	0.694522	0.071500
	O5187	O	0.395498	0.811047	0.071451
	O5188	O	0.395716	0.194432	0.071519
	O5189	O	0.395580	0.311156	0.071470
	O5190	O	0.396234	0.694518	0.051559
	O5191	O	0.396093	0.811145	0.051507
	O5192	O	0.396155	0.194346	0.051517
	O5193	O	0.396218	0.310987	0.051552
	O5194	O	0.480861	0.694624	0.071938
	O5195	O	0.481133	0.811280	0.072002
	O5196	O	0.481087	0.194451	0.072037
	O5197	O	0.480999	0.311173	0.071965
	O5198	O	0.481592	0.194409	0.052072
	O5199	O	0.481481	0.310855	0.052019
	O5200	O	0.457651	0.694373	0.008858
	O5201	O	0.420059	0.694332	0.008563
	O5202	O	0.457074	0.694781	0.114967
	O5203	O	0.457213	0.811208	0.115020
	O5204	O	0.419627	0.694736	0.114605
	O5205	O	0.419399	0.811428	0.114662
	O5206	O	0.419994	0.810965	0.008497
	O5207	O	0.457609	0.810946	0.008845
	O5208	O	0.457498	0.193986	0.008885
	O5209	O	0.419821	0.194772	0.008457
	O5210	O	0.457118	0.194800	0.115027
	O5211	O	0.457157	0.311502	0.115000
	O5212	O	0.419577	0.194581	0.114674
	O5213	O	0.419489	0.311400	0.114699
	O5214	O	0.420181	0.311365	0.008553
	O5215	O	0.457680	0.310524	0.008852
	H5216	H	0.403739	0.643700	0.085281
	H5217	H	0.404400	0.862302	0.085270
	H5218	H	0.404415	0.143508	0.085298
	H5219	H	0.403759	0.362631	0.085284
	H5220	H	0.405771	0.862621	0.037982
	H5221	H	0.405644	0.643447	0.037964
	H5222	H	0.406038	0.362096	0.038049
	H5223	H	0.405384	0.143000	0.037916
	H5224	H	0.499449	0.064583	0.063127
	H5225	H	0.501302	0.064598	0.063435
	H5226	H	0.501212	0.941229	0.063422
	H5227	H	0.499508	0.941112	0.063102
	H5228	H	0.498849	0.064349	0.062037
	H5229	H	0.498981	0.941258	0.062031
	H5230	H	0.370801	0.064667	0.058336
	H5231	H	0.370767	0.940819	0.058345
	H5232	H	0.368203	0.064244	0.061050
	H5233	H	0.368190	0.940970	0.061002
	H5234	H	0.373890	0.064303	0.064368
	H5235	H	0.373796	0.941158	0.064355
	H5236	H	0.374149	0.441198	0.063993
	H5237	H	0.380110	0.441311	0.063795
	H5238	H	0.369212	0.440967	0.061040
	H5239	H	0.499840	0.441368	0.068306
	H5240	H	0.488080	0.441028	0.063719
	H5241	H	0.489982	0.441487	0.058851
	H5242	H	0.380151	0.564507	0.063870
	H5243	H	0.374144	0.564676	0.064027
	H5244	H	0.489996	0.564626	0.058837
	H5245	H	0.487959	0.564756	0.063700
	H5246	H	0.499813	0.564721	0.068309
	H5247	H	0.369158	0.564500	0.061001
	H5248	H	0.471355	0.643194	0.085519
	H5249	H	0.471932	0.862679	0.085559
	H5250	H	0.471518	0.143200	0.085604
	H5251	H	0.471549	0.362507	0.085568
	H5252	H	0.412616	0.643616	0.022353
	H5253	H	0.465878	0.643040	0.022672
	H5254	H	0.466396	0.861967	0.022621
	H5255	H	0.412697	0.862689	0.022360
	H5256	H	0.472946	0.643301	0.038249
	H5257	H	0.473439	0.861951	0.038192
	H5258	H	0.464278	0.643417	0.101121
	H5259	H	0.464970	0.862646	0.101163
	H5260	H	0.440208	0.440842	-0.003090
	H5261	H	0.444728	0.441128	0.126300
	H5262	H	0.442413	0.441015	-0.001173
	H5263	H	0.440532	0.441182	0.000119
	H5264	H	0.438530	0.440637	0.122348
	H5265	H	0.443447	0.440859	0.123198
	H5266	H	0.444686	0.564489	0.126313
	H5267	H	0.440038	0.564399	-0.003109
	H5268	H	0.443343	0.564312	0.123184
	H5269	H	0.438421	0.563815	0.122328
	H5270	H	0.440428	0.564307	0.000101
	H5271	H	0.442382	0.564177	-0.001182
	H5272	H	0.464545	0.143406	0.101174
	H5273	H	0.464535	0.362619	0.101158
	H5274	H	0.426301	0.064063	-0.006585
	H5275	H	0.422083	0.064637	-0.001062
	H5276	H	0.444342	0.064111	-0.007899
	H5277	H	0.411502	0.862343	0.100815
	H5278	H	0.410865	0.643745	0.100837
	H5279	H	0.410689	0.362457	0.100862
	H5280	H	0.411387	0.143567	0.100886
	H5281	H	0.412277	0.143083	0.022300
	H5282	H	0.466225	0.143350	0.022690
	H5283	H	0.465958	0.361316	0.022669
	H5284	H	0.412908	0.362358	0.022431
	H5285	H	0.473357	0.143542	0.038239
	H5286	H	0.473002	0.361414	0.038228
	H5287	H	0.427991	0.064120	0.127543
	H5288	H	0.436685	0.064413	0.130452
	H5289	H	0.450006	0.064507	0.128058
	H5290	H	0.422162	0.940619	-0.001030
	H5291	H	0.426343	0.940546	-0.006533
	H5292	H	0.444458	0.941060	-0.007837
	H5293	H	0.427972	0.940913	0.127503
	H5294	H	0.436672	0.941208	0.130429
	H5295	H	0.450056	0.940855	0.128015
	Zn5296	Zn	0.376401	0.679871	0.061047
	Zn5297	Zn	0.376198	0.825177	0.061015
	Zn5298	Zn	0.376351	0.180080	0.061076
	Zn5299	Zn	0.376242	0.325229	0.061060
	Zn5300	Zn	0.438955	0.680085	0.125045
	Zn5301	Zn	0.439033	0.824993	0.125043
	Zn5302	Zn	0.438958	0.180169	0.125051
	Zn5303	Zn	0.439032	0.325021	0.125074
	C5304	C	0.478867	0.752771	0.048483
	C5305	C	0.398161	0.752960	0.075033
	C5306	C	0.403713	0.753008	0.084328
	C5307	C	0.405469	0.691181	0.088740
	C5308	C	0.405853	0.814806	0.088730
	C5309	C	0.398337	0.252887	0.075044
	C5310	C	0.403796	0.253069	0.084354
	C5311	C	0.405869	0.191125	0.088767
	C5312	C	0.405487	0.315030	0.088755
	C5313	C	0.399110	0.752829	0.048075
	C5314	C	0.405189	0.752952	0.038900
	C5315	C	0.407322	0.814988	0.034497
	C5316	C	0.407281	0.691063	0.034496
	C5317	C	0.399195	0.252704	0.048091
	C5318	C	0.405208	0.252552	0.038919
	C5319	C	0.407425	0.314568	0.034537
	C5320	C	0.407053	0.190559	0.034460
	C5321	C	0.500556	0.043288	0.063055
	C5322	C	0.500529	0.962420	0.063049
	C5323	C	0.371268	0.043148	0.060055
	C5324	C	0.371241	0.962212	0.060042
	C5325	C	0.376975	0.043265	0.063396
	C5326	C	0.376901	0.962314	0.063386
	C5327	C	0.376917	0.462420	0.063175
	C5328	C	0.504087	0.462579	0.066250
	C5329	C	0.492182	0.462325	0.061602
	C5330	C	0.376935	0.543278	0.063193
	C5331	C	0.492167	0.543194	0.061597
	C5332	C	0.504068	0.543242	0.066261
	C5333	C	0.478035	0.752938	0.075411
	C5334	C	0.478027	0.252927	0.075443
	C5335	C	0.471977	0.752947	0.084572
	C5336	C	0.469793	0.690910	0.088979
	C5337	C	0.470137	0.814969	0.089010
	C5338	C	0.471916	0.252931	0.084619
	C5339	C	0.469894	0.190926	0.089042
	C5340	C	0.469864	0.314964	0.089022
	C5341	C	0.478882	0.252507	0.048487
	C5342	C	0.460363	0.752660	0.012400
	C5343	C	0.417602	0.752782	0.012065
	C5344	C	0.416843	0.753138	0.111089
	C5345	C	0.471426	0.690718	0.034767
	C5346	C	0.471710	0.814448	0.034739
	C5347	C	0.465902	0.752505	0.021699
	C5348	C	0.412690	0.753053	0.021369
	C5349	C	0.411065	0.691107	0.025829
	C5350	C	0.467657	0.690611	0.026120
	C5351	C	0.467932	0.814423	0.026091
	C5352	C	0.411095	0.815062	0.025831
	C5353	C	0.473442	0.752603	0.039165
	C5354	C	0.459586	0.753099	0.111434
	C5355	C	0.466097	0.691015	0.097658
	C5356	C	0.466485	0.815016	0.097689
	C5357	C	0.464575	0.753049	0.102123
	C5358	C	0.441748	0.462239	0.126494
	C5359	C	0.440583	0.462460	-0.000776
	C5360	C	0.440471	0.462192	0.123387
	C5361	C	0.441749	0.543080	0.126481
	C5362	C	0.440457	0.542918	0.123354
	C5363	C	0.440550	0.542965	-0.000791
	C5364	C	0.459535	0.253112	0.111476
	C5365	C	0.466138	0.191029	0.097721
	C5366	C	0.466147	0.314943	0.097708
	C5367	C	0.464455	0.252981	0.102166
	C5368	C	0.427850	0.043074	-0.003205
	C5369	C	0.460333	0.252289	0.012410
	C5370	C	0.417598	0.252977	0.012053
	C5371	C	0.416846	0.253020	0.111140
	C5372	C	0.471649	0.190791	0.034778
	C5373	C	0.471475	0.314051	0.034766
	C5374	C	0.465861	0.252352	0.021708
	C5375	C	0.412685	0.252722	0.021375
	C5376	C	0.411390	0.753092	0.101782
	C5377	C	0.409705	0.814830	0.097370
	C5378	C	0.409320	0.691211	0.097383
	C5379	C	0.411289	0.253009	0.101832
	C5380	C	0.409241	0.314937	0.097401
	C5381	C	0.409638	0.191152	0.097412
	C5382	C	0.410815	0.190660	0.025791
	C5383	C	0.467827	0.190760	0.026131
	C5384	C	0.467672	0.314057	0.026118
	C5385	C	0.411202	0.314636	0.025868
	C5386	C	0.473440	0.252415	0.039182
	C5387	C	0.434112	0.042928	0.127948
	C5388	C	0.446017	0.042948	-0.004516
	C5389	C	0.427871	0.961800	-0.003193
	C5390	C	0.434134	0.962267	0.127935
	C5391	C	0.446008	0.962274	-0.004501
	N5392	N	0.376270	0.070068	0.061041
	N5393	N	0.376221	0.935567	0.061027
	N5394	N	0.376375	0.435327	0.061088
	N5395	N	0.376410	0.569813	0.061076
	N5396	N	0.439115	0.435362	0.125053
	N5397	N	0.439112	0.569945	0.125018
	N5398	N	0.439070	0.069878	0.125011
	N5399	N	0.439081	0.935294	0.124965
	O5400	O	0.460140	0.693650	0.180583
	O5401	O	0.459998	0.810546	0.180641
	O5402	O	0.394685	0.694750	0.198394
	O5403	O	0.394372	0.811512	0.198427
	O5404	O	0.394523	0.194147	0.198404
	O5405	O	0.394511	0.310977	0.198407
	O5406	O	0.394681	0.694669	0.177509
	O5407	O	0.394576	0.811285	0.177484
	O5408	O	0.394700	0.194470	0.177481
	O5409	O	0.394688	0.311150	0.177514
	O5410	O	0.462240	0.693504	0.202310
	O5411	O	0.462012	0.809879	0.202268
	O5412	O	0.462042	0.194804	0.202269
	O5413	O	0.462095	0.311194	0.202266
	O5414	O	0.459908	0.194544	0.180632
	O5415	O	0.460110	0.311372	0.180622
	O5416	O	0.456888	0.694623	0.135854
	O5417	O	0.419056	0.694523	0.134520
	O5418	O	0.435147	0.694076	0.244741
	O5419	O	0.435210	0.810748	0.244714
	O5420	O	0.397300	0.694517	0.243127
	O5421	O	0.397172	0.811111	0.243133
	O5422	O	0.419031	0.811222	0.134546
	O5423	O	0.456987	0.811507	0.135883
	O5424	O	0.457056	0.193994	0.135877
	O5425	O	0.419107	0.194625	0.134575
	O5426	O	0.435097	0.194344	0.244689
	O5427	O	0.435164	0.311045	0.244715
	O5428	O	0.397310	0.193861	0.243127
	O5429	O	0.397110	0.310580	0.243146
	O5430	O	0.419039	0.311218	0.134543
	O5431	O	0.457191	0.310935	0.135877
	H5432	H	0.396801	0.643064	0.212795
	H5433	H	0.396634	0.862496	0.212730
	H5434	H	0.396812	0.142815	0.212759
	H5435	H	0.396731	0.362351	0.212776
	H5436	H	0.401865	0.862845	0.163600
	H5437	H	0.402701	0.643399	0.163749
	H5438	H	0.402430	0.362726	0.163747
	H5439	H	0.402311	0.143365	0.163689
	H5440	H	0.476783	0.064618	0.188050
	H5441	H	0.470722	0.064379	0.189382
	H5442	H	0.470668	0.941079	0.189349
	H5443	H	0.476651	0.941503	0.188027
	H5444	H	0.484786	0.064528	0.190278
	H5445	H	0.484732	0.941092	0.190293
	H5446	H	0.368263	0.064615	0.184582
	H5447	H	0.368141	0.942032	0.184596
	H5448	H	0.366317	0.065117	0.188336
	H5449	H	0.366325	0.941790	0.188337
	H5450	H	0.375269	0.064659	0.192045
	H5451	H	0.375201	0.941220	0.192072
	H5452	H	0.372725	0.441154	0.186060
	H5453	H	0.371584	0.441226	0.187794
	H5454	H	0.378232	0.441255	0.185588
	H5455	H	0.487730	0.440430	0.188095
	H5456	H	0.489018	0.441104	0.194728
	H5457	H	0.479828	0.440577	0.197406
	H5458	H	0.371560	0.564290	0.187783
	H5459	H	0.372785	0.564546	0.186074
	H5460	H	0.479741	0.564340	0.197443
	H5461	H	0.488995	0.564069	0.194798
	H5462	H	0.487705	0.564019	0.188092
	H5463	H	0.378272	0.564550	0.185600
	H5464	H	0.454890	0.642508	0.216141
	H5465	H	0.454569	0.861244	0.216057
	H5466	H	0.454775	0.143946	0.216050
	H5467	H	0.454811	0.362028	0.216084
	H5468	H	0.409786	0.643022	0.148162
	H5469	H	0.459498	0.643032	0.150174
	H5470	H	0.459291	0.862634	0.150267
	H5471	H	0.408949	0.862720	0.148011
	H5472	H	0.458583	0.642492	0.166154
	H5473	H	0.458337	0.862176	0.166285
	H5474	H	0.446391	0.642863	0.231563
	H5475	H	0.446115	0.861522	0.231462
	H5476	H	0.440761	0.440850	0.127681
	H5477	H	0.417719	0.440987	0.253997
	H5478	H	0.433965	0.440726	0.126477
	H5479	H	0.433086	0.440801	0.124223
	H5480	H	0.412650	0.441020	0.252912
	H5481	H	0.415313	0.441132	0.252783
	H5482	H	0.417682	0.564378	0.254015
	H5483	H	0.440705	0.564448	0.127683
	H5484	H	0.415188	0.564673	0.252758
	H5485	H	0.412551	0.564680	0.252928
	H5486	H	0.432993	0.564348	0.124196
	H5487	H	0.434000	0.564452	0.126473
	H5488	H	0.446324	0.143772	0.231459
	H5489	H	0.446333	0.362112	0.231511
	H5490	H	0.439196	0.064020	0.119426
	H5491	H	0.429431	0.064497	0.121210
	H5492	H	0.451120	0.064184	0.123390
	H5493	H	0.395739	0.862667	0.228742
	H5494	H	0.395952	0.643283	0.228785
	H5495	H	0.395753	0.362108	0.228778
	H5496	H	0.395909	0.142643	0.228740
	H5497	H	0.409510	0.143346	0.148113
	H5498	H	0.459046	0.142593	0.150243
	H5499	H	0.459428	0.362571	0.150235
	H5500	H	0.409626	0.362854	0.148161
	H5501	H	0.458293	0.142862	0.166259
	H5502	H	0.458766	0.362606	0.166233
	H5503	H	0.411053	0.064455	0.255825
	H5504	H	0.415356	0.063907	0.256476
	H5505	H	0.419789	0.064446	0.254693
	H5506	H	0.429422	0.940771	0.121145
	H5507	H	0.439154	0.941265	0.119433
	H5508	H	0.450998	0.940856	0.123404
	H5509	H	0.410990	0.940978	0.255808
	H5510	H	0.415333	0.940783	0.256416
	H5511	H	0.419813	0.940844	0.254694
	Zn5512	Zn	0.376568	0.680396	0.187569
	Zn5513	Zn	0.376499	0.825305	0.187587
	Zn5514	Zn	0.376636	0.180584	0.187553
	Zn5515	Zn	0.376569	0.325519	0.187555
	Zn5516	Zn	0.414602	0.680338	0.254144
	Zn5517	Zn	0.414738	0.825156	0.254075
	Zn5518	Zn	0.414621	0.180343	0.254169
	Zn5519	Zn	0.414596	0.325185	0.254087
	C5520	C	0.459115	0.752215	0.176876
	C5521	C	0.395700	0.753054	0.202145
	C5522	C	0.396954	0.752728	0.211797
	C5523	C	0.396649	0.690765	0.216350
	C5524	C	0.396529	0.814872	0.216304
	C5525	C	0.395698	0.252560	0.202135
	C5526	C	0.397006	0.252647	0.211797
	C5527	C	0.396671	0.190484	0.216316
	C5528	C	0.396615	0.314635	0.216333
	C5529	C	0.397086	0.752991	0.173945
	C5530	C	0.402119	0.753111	0.164641
	C5531	C	0.403606	0.815114	0.160156
	C5532	C	0.404076	0.691050	0.160240
	C5533	C	0.397098	0.252860	0.173957
	C5534	C	0.402236	0.252944	0.164682
	C5535	C	0.404044	0.315035	0.160260
	C5536	C	0.403990	0.190975	0.160227
	C5537	C	0.474639	0.043069	0.189488
	C5538	C	0.474591	0.962340	0.189468
	C5539	C	0.369735	0.043416	0.186749
	C5540	C	0.369713	0.962749	0.186747
	C5541	C	0.378660	0.043458	0.190510
	C5542	C	0.378650	0.962601	0.190508
	C5543	C	0.373312	0.462436	0.187081
	C5544	C	0.481267	0.462022	0.188143
	C5545	C	0.482543	0.462106	0.194895
	C5546	C	0.373316	0.543293	0.187092
	C5547	C	0.482530	0.542861	0.194905
	C5548	C	0.481253	0.543032	0.188134
	C5549	C	0.460044	0.751706	0.205873
	C5550	C	0.459967	0.252994	0.205849
	C5551	C	0.455002	0.751894	0.215150
	C5552	C	0.452979	0.690101	0.219554
	C5553	C	0.452834	0.813799	0.219510
	C5554	C	0.454867	0.253103	0.215109
	C5555	C	0.452878	0.191308	0.219487
	C5556	C	0.452897	0.314766	0.219515
	C5557	C	0.459073	0.252925	0.176888
	C5558	C	0.458148	0.753012	0.139602
	C5559	C	0.416029	0.752811	0.137971
	C5560	C	0.396298	0.752846	0.239387
	C5561	C	0.458686	0.690389	0.162639
	C5562	C	0.458531	0.814612	0.162708
	C5563	C	0.459468	0.752927	0.149266
	C5564	C	0.409784	0.752870	0.147118
	C5565	C	0.407921	0.690903	0.151575
	C5566	C	0.459250	0.690660	0.153764
	C5567	C	0.459111	0.814924	0.153824
	C5568	C	0.407441	0.815027	0.151489
	C5569	C	0.458158	0.752354	0.167214
	C5570	C	0.438621	0.752352	0.241410
	C5571	C	0.448388	0.690194	0.228124
	C5572	C	0.448238	0.813960	0.228077
	C5573	C	0.445850	0.752187	0.232445
	C5574	C	0.416472	0.462219	0.254450
	C5575	C	0.434967	0.462026	0.125275
	C5576	C	0.414014	0.462359	0.253174
	C5577	C	0.416486	0.543098	0.254458
	C5578	C	0.414021	0.543268	0.253173
	C5579	C	0.434975	0.543011	0.125269
	C5580	C	0.438544	0.252702	0.241374
	C5581	C	0.448222	0.191216	0.228050
	C5582	C	0.448267	0.314669	0.228082
	C5583	C	0.445707	0.252905	0.232404
	C5584	C	0.435562	0.043032	0.121548
	C5585	C	0.458264	0.252446	0.139603
	C5586	C	0.416091	0.252986	0.138015
	C5587	C	0.396322	0.252296	0.239395
	C5588	C	0.458468	0.190567	0.162685
	C5589	C	0.458760	0.314882	0.162676
	C5590	C	0.459589	0.252512	0.149267
	C5591	C	0.409902	0.253025	0.147160
	C5592	C	0.395485	0.752991	0.229734
	C5593	C	0.395926	0.814967	0.225183
	C5594	C	0.396020	0.690925	0.225222
	C5595	C	0.395540	0.252468	0.229736
	C5596	C	0.395990	0.314545	0.225215
	C5597	C	0.396025	0.190423	0.225193
	C5598	C	0.407855	0.191022	0.151573
	C5599	C	0.459106	0.190361	0.153803
	C5600	C	0.459368	0.314799	0.153798
	C5601	C	0.407922	0.315081	0.151595
	C5602	C	0.458163	0.252769	0.167210
	C5603	C	0.413506	0.043125	0.255610
	C5604	C	0.447534	0.043215	0.125541
	C5605	C	0.435580	0.962276	0.121539
	C5606	C	0.413469	0.962351	0.255576
	C5607	C	0.447532	0.962160	0.125526
	N5608	N	0.376575	0.070244	0.187526
	N5609	N	0.376536	0.935695	0.187552
	N5610	N	0.376515	0.435763	0.187563
	N5611	N	0.376555	0.570305	0.187570
	N5612	N	0.414439	0.435534	0.254100
	N5613	N	0.414407	0.570105	0.254108
	N5614	N	0.414517	0.070054	0.254134
	N5615	N	0.414519	0.935485	0.254109
	O5616	O	0.507990	0.694626	0.296809
	O5617	O	0.507865	0.810784	0.296864
	O5618	O	0.374855	0.695026	0.325520
	O5619	O	0.374747	0.811129	0.325525
	O5620	O	0.374835	0.194779	0.325540
	O5621	O	0.374741	0.311205	0.325557
	O5622	O	0.372522	0.694943	0.307207
	O5623	O	0.372412	0.811597	0.307238
	O5624	O	0.372352	0.194769	0.307208
	O5625	O	0.372519	0.311451	0.307238
	O5626	O	0.510018	0.694538	0.315133
	O5627	O	0.510090	0.811177	0.315136
	O5628	O	0.510277	0.194625	0.315182
	O5629	O	0.510283	0.311375	0.315171
	O5630	O	0.507796	0.194608	0.296856
	O5631	O	0.507852	0.310935	0.296853
	O5632	O	0.437757	0.694773	0.263047
	O5633	O	0.399075	0.695418	0.264760
	O5634	O	0.483429	0.694707	0.357630
	O5635	O	0.483611	0.811015	0.357671
	O5636	O	0.444993	0.695363	0.359256
	O5637	O	0.445062	0.811373	0.359252
	O5638	O	0.399242	0.811795	0.264750
	O5639	O	0.437733	0.810837	0.263089
	O5640	O	0.437662	0.194802	0.263063
	O5641	O	0.399167	0.194943	0.264781
	O5642	O	0.483611	0.194806	0.357638
	O5643	O	0.483472	0.311383	0.357618
	O5644	O	0.445036	0.194598	0.359264
	O5645	O	0.445055	0.310822	0.359271
	O5646	O	0.399298	0.311494	0.264788
	O5647	O	0.437656	0.310978	0.263059
	H5648	H	0.397379	0.645418	0.336342
	H5649	H	0.397390	0.861111	0.336262
	H5650	H	0.397378	0.144749	0.336264
	H5651	H	0.397353	0.361350	0.336354
	H5652	H	0.383527	0.862608	0.294006
	H5653	H	0.383240	0.644254	0.293960
	H5654	H	0.383877	0.362408	0.294045
	H5655	H	0.383332	0.143880	0.293999
	H5656	H	0.536302	0.064377	0.309123
	H5657	H	0.539932	0.064820	0.306293
	H5658	H	0.539989	0.941036	0.306271
	H5659	H	0.536322	0.941463	0.309111
	H5660	H	0.525901	0.064676	0.309032
	H5661	H	0.525909	0.941057	0.309047
	H5662	H	0.358877	0.064326	0.316559
	H5663	H	0.358868	0.941645	0.316531
	H5664	H	0.356065	0.064970	0.314142
	H5665	H	0.355968	0.941510	0.314116
	H5666	H	0.347716	0.065317	0.313903
	H5667	H	0.347669	0.941706	0.313910
	H5668	H	0.354353	0.441389	0.315843
	H5669	H	0.352026	0.441109	0.315109
	H5670	H	0.354250	0.441512	0.317454
	H5671	H	0.527409	0.441197	0.304576
	H5672	H	0.532256	0.441116	0.304113
	H5673	H	0.534868	0.441401	0.305240
	H5674	H	0.352136	0.564296	0.315140
	H5675	H	0.354414	0.564263	0.315857
	H5676	H	0.534958	0.564823	0.305207
	H5677	H	0.532159	0.564627	0.304082
	H5678	H	0.527367	0.564228	0.304614
	H5679	H	0.354195	0.564242	0.317448
	H5680	H	0.499271	0.644002	0.328419
	H5681	H	0.499071	0.862401	0.328406
	H5682	H	0.499015	0.143714	0.328357
	H5683	H	0.499361	0.362352	0.328403
	H5684	H	0.391671	0.644306	0.278543
	H5685	H	0.460457	0.644837	0.273806
	H5686	H	0.460384	0.860519	0.273883
	H5687	H	0.391908	0.862767	0.278561
	H5688	H	0.485340	0.644742	0.286035
	H5689	H	0.485264	0.860448	0.286107
	H5690	H	0.491004	0.644027	0.343862
	H5691	H	0.490881	0.862207	0.343839
	H5692	H	0.416776	0.440862	0.255148
	H5693	H	0.464456	0.441234	0.368589
	H5694	H	0.413185	0.441296	0.255339
	H5695	H	0.411445	0.441361	0.254458
	H5696	H	0.470636	0.441089	0.369552
	H5697	H	0.467626	0.440924	0.369898
	H5698	H	0.464466	0.564970	0.368594
	H5699	H	0.416836	0.564125	0.255140
	H5700	H	0.467595	0.565138	0.369863
	H5701	H	0.470651	0.564282	0.369529
	H5702	H	0.411404	0.564561	0.254455
	H5703	H	0.413135	0.564738	0.255369
	H5704	H	0.490635	0.143968	0.343789
	H5705	H	0.490992	0.362305	0.343839
	H5706	H	0.412754	0.064915	0.251925
	H5707	H	0.409503	0.065050	0.253179
	H5708	H	0.418765	0.064673	0.252732
	H5709	H	0.422328	0.861126	0.348477
	H5710	H	0.422280	0.645581	0.348562
	H5711	H	0.422281	0.361353	0.348575
	H5712	H	0.422240	0.144300	0.348479
	H5713	H	0.391700	0.143734	0.278571
	H5714	H	0.460364	0.144499	0.273809
	H5715	H	0.460351	0.361267	0.273850
	H5716	H	0.392257	0.362530	0.278600
	H5717	H	0.485223	0.144635	0.286014
	H5718	H	0.485239	0.361165	0.286085
	H5719	H	0.463925	0.064053	0.368208
	H5720	H	0.465570	0.064719	0.369719
	H5721	H	0.470541	0.064808	0.369944
	H5722	H	0.409578	0.941275	0.253148
	H5723	H	0.412816	0.941479	0.251876
	H5724	H	0.418724	0.941228	0.252757
	H5725	H	0.463846	0.941344	0.368260
	H5726	H	0.465455	0.940716	0.369759
	H5727	H	0.470635	0.941211	0.369970
	Zn5728	Zn	0.351880	0.680533	0.316514
	Zn5729	Zn	0.351648	0.825496	0.316529
	Zn5730	Zn	0.351797	0.180394	0.316541
	Zn5731	Zn	0.351683	0.325376	0.316542
	Zn5732	Zn	0.468017	0.680154	0.368253
	Zn5733	Zn	0.468032	0.825367	0.368272
	Zn5734	Zn	0.468118	0.180355	0.368283
	Zn5735	Zn	0.468013	0.325363	0.368245
	C5736	C	0.501903	0.752695	0.294110
	C5737	C	0.380766	0.753126	0.328284
	C5738	C	0.395972	0.753203	0.335556
	C5739	C	0.402989	0.692193	0.339031
	C5740	C	0.402990	0.814295	0.338992
	C5741	C	0.380791	0.253046	0.328284
	C5742	C	0.395964	0.253113	0.335556
	C5743	C	0.402926	0.191725	0.339004
	C5744	C	0.402934	0.314335	0.339058
	C5745	C	0.375886	0.753384	0.303897
	C5746	C	0.382973	0.753521	0.294900
	C5747	C	0.385483	0.815276	0.290565
	C5748	C	0.385341	0.691633	0.290548
	C5749	C	0.375864	0.253125	0.303900
	C5750	C	0.383012	0.253102	0.294921
	C5751	C	0.385693	0.315015	0.290599
	C5752	C	0.385373	0.191221	0.290575
	C5753	C	0.536271	0.043242	0.307205
	C5754	C	0.536279	0.962447	0.307200
	C5755	C	0.355912	0.043384	0.315651
	C5756	C	0.355876	0.962798	0.315666
	C5757	C	0.347558	0.043498	0.315407
	C5758	C	0.347563	0.962463	0.315408
	C5759	C	0.352772	0.462418	0.315763
	C5760	C	0.528072	0.462512	0.305480
	C5761	C	0.532899	0.462594	0.304971
	C5762	C	0.352822	0.543279	0.315775
	C5763	C	0.532883	0.543515	0.304966
	C5764	C	0.528057	0.543129	0.305498
	C5765	C	0.506706	0.752895	0.318479
	C5766	C	0.506878	0.253014	0.318507
	C5767	C	0.499574	0.753088	0.327449
	C5768	C	0.497212	0.691422	0.331814
	C5769	C	0.497131	0.814918	0.331810
	C5770	C	0.499705	0.253105	0.327474
	C5771	C	0.497095	0.191208	0.331791
	C5772	C	0.497352	0.314969	0.331830
	C5773	C	0.501798	0.252825	0.294118
	C5774	C	0.443733	0.752757	0.265827
	C5775	C	0.397064	0.753684	0.268327
	C5776	C	0.439009	0.753385	0.356506
	C5777	C	0.479785	0.691609	0.283337
	C5778	C	0.479737	0.813661	0.283386
	C5779	C	0.458942	0.752738	0.273103
	C5780	C	0.391995	0.753617	0.277587
	C5781	C	0.389884	0.691680	0.281975
	C5782	C	0.465984	0.691610	0.276545
	C5783	C	0.465936	0.813695	0.276593
	C5784	C	0.390022	0.815417	0.281990
	C5785	C	0.486714	0.752656	0.286839
	C5786	C	0.485635	0.752919	0.354064
	C5787	C	0.492716	0.691378	0.340394
	C5788	C	0.492633	0.814868	0.340388
	C5789	C	0.490602	0.753041	0.344780
	C5790	C	0.465657	0.462721	0.368003
	C5791	C	0.412830	0.462613	0.254703
	C5792	C	0.468911	0.462437	0.369342
	C5793	C	0.465687	0.543230	0.367994
	C5794	C	0.468917	0.543516	0.369324
	C5795	C	0.412809	0.543401	0.254711
	C5796	C	0.485609	0.253089	0.354053
	C5797	C	0.492527	0.191337	0.340361
	C5798	C	0.492766	0.314972	0.340399
	C5799	C	0.490589	0.253188	0.344775
	C5800	C	0.412027	0.043461	0.252960
	C5801	C	0.443658	0.252898	0.265819
	C5802	C	0.397148	0.253221	0.268357
	C5803	C	0.439028	0.252723	0.356524
	C5804	C	0.479665	0.191648	0.283323
	C5805	C	0.479681	0.314199	0.283353
	C5806	C	0.458914	0.252904	0.273065
	C5807	C	0.392131	0.253143	0.277629
	C5808	C	0.423791	0.753346	0.349258
	C5809	C	0.416786	0.814394	0.345772
	C5810	C	0.416778	0.692301	0.345821
	C5811	C	0.423773	0.252838	0.349274
	C5812	C	0.416739	0.314260	0.345843
	C5813	C	0.416710	0.191557	0.345789
	C5814	C	0.389967	0.191238	0.282008
	C5815	C	0.465947	0.191614	0.276508
	C5816	C	0.465959	0.314182	0.276536
	C5817	C	0.390272	0.315069	0.282030
	C5818	C	0.486665	0.252942	0.286818
	C5819	C	0.465685	0.043304	0.368801
	C5820	C	0.417982	0.043164	0.253829
	C5821	C	0.412052	0.962551	0.252940
	C5822	C	0.465670	0.962527	0.368813
	C5823	C	0.417981	0.962274	0.253818
	N5824	N	0.351674	0.070187	0.316586
	N5825	N	0.351641	0.935667	0.316575
	N5826	N	0.351611	0.435656	0.316532
	N5827	N	0.351666	0.570250	0.316527
	N5828	N	0.468131	0.435649	0.368267
	N5829	N	0.468120	0.570169	0.368249
	N5830	N	0.468262	0.070306	0.368296
	N5831	N	0.468279	0.935750	0.368317
	O5832	O	0.488694	0.694916	0.424093
	O5833	O	0.488636	0.811580	0.424104
	O5834	O	0.423090	0.694169	0.441876
	O5835	O	0.423145	0.810885	0.441809
	O5836	O	0.423302	0.194334	0.441812
	O5837	O	0.423228	0.311092	0.441875
	O5838	O	0.421219	0.694347	0.420126
	O5839	O	0.421494	0.810970	0.420163
	O5840	O	0.421316	0.194641	0.420179
	O5841	O	0.421227	0.311051	0.420121
	O5842	O	0.487859	0.694916	0.444736
	O5843	O	0.488262	0.811652	0.444805
	O5844	O	0.488192	0.194391	0.444779
	O5845	O	0.488133	0.311002	0.444735
	O5846	O	0.488778	0.194403	0.424046
	O5847	O	0.488605	0.311096	0.424063
	O5848	O	0.485208	0.693994	0.379354
	O5849	O	0.447459	0.694801	0.377627
	O5850	O	0.464172	0.694721	0.487786
	O5851	O	0.464061	0.811257	0.487786
	O5852	O	0.426048	0.695052	0.486568
	O5853	O	0.426157	0.811679	0.486563
	O5854	O	0.447414	0.811574	0.377654
	O5855	O	0.485217	0.810905	0.379368
	O5856	O	0.485164	0.195088	0.379306
	O5857	O	0.447549	0.194088	0.377655
	O5858	O	0.464121	0.195129	0.487782
	O5859	O	0.464043	0.311689	0.487759
	O5860	O	0.426253	0.194076	0.486583
	O5861	O	0.426047	0.310868	0.486598
	O5862	O	0.447345	0.310833	0.377614
	O5863	O	0.485290	0.311859	0.379300
	H5864	H	0.424126	0.643165	0.456231
	H5865	H	0.424501	0.862637	0.456134
	H5866	H	0.424608	0.142887	0.456190
	H5867	H	0.424444	0.362275	0.456236
	H5868	H	0.428588	0.862117	0.406393
	H5869	H	0.428238	0.643141	0.406294
	H5870	H	0.427729	0.361622	0.406239
	H5871	H	0.428984	0.143157	0.406433
	H5872	H	0.511422	0.064750	0.434604
	H5873	H	0.509263	0.064779	0.433222
	H5874	H	0.509220	0.941112	0.433210
	H5875	H	0.511433	0.941188	0.434587
	H5876	H	0.509319	0.064700	0.436656
	H5877	H	0.509459	0.941709	0.436618
	H5878	H	0.403444	0.064392	0.433206
	H5879	H	0.403465	0.940945	0.433186
	H5880	H	0.408628	0.064601	0.433286
	H5881	H	0.408710	0.941120	0.433297
	H5882	H	0.412053	0.065141	0.430643
	H5883	H	0.412120	0.941681	0.430598
	H5884	H	0.401505	0.441406	0.431866
	H5885	H	0.405129	0.441389	0.433086
	H5886	H	0.401997	0.441216	0.429319
	H5887	H	0.504095	0.441310	0.438106
	H5888	H	0.498684	0.441770	0.434637
	H5889	H	0.501647	0.441782	0.431991
	H5890	H	0.405109	0.564767	0.433033
	H5891	H	0.401493	0.564716	0.431839
	H5892	H	0.501646	0.564809	0.432047
	H5893	H	0.498811	0.565095	0.434655
	H5894	H	0.504068	0.564855	0.438141
	H5895	H	0.401976	0.564346	0.429283
	H5896	H	0.480123	0.643529	0.458532
	H5897	H	0.480162	0.862969	0.458608
	H5898	H	0.480442	0.143338	0.458590
	H5899	H	0.480012	0.362968	0.458511
	H5900	H	0.436316	0.643287	0.390828
	H5901	H	0.486386	0.642699	0.393750
	H5902	H	0.486960	0.862342	0.393712
	H5903	H	0.436683	0.862376	0.390906
	H5904	H	0.485709	0.643093	0.409776
	H5905	H	0.486259	0.862904	0.409687
	H5906	H	0.473346	0.643164	0.474138
	H5907	H	0.473256	0.862612	0.474212
	H5908	H	0.465071	0.441461	0.367246
	H5909	H	0.449850	0.440996	0.502000
	H5910	H	0.469192	0.440942	0.366682
	H5911	H	0.471507	0.441314	0.367671
	H5912	H	0.450609	0.441304	0.493059
	H5913	H	0.456027	0.441124	0.496831
	H5914	H	0.449836	0.564766	0.502003
	H5915	H	0.465057	0.564474	0.367197
	H5916	H	0.455875	0.564696	0.496829
	H5917	H	0.450611	0.564395	0.493096
	H5918	H	0.471463	0.564205	0.367651
	H5919	H	0.469159	0.564700	0.366713
	H5920	H	0.473429	0.143475	0.474195
	H5921	H	0.472986	0.363202	0.474068
	H5922	H	0.470352	0.064821	0.366666
	H5923	H	0.466671	0.064732	0.366475
	H5924	H	0.472556	0.064688	0.368678
	H5925	H	0.423695	0.863114	0.472136
	H5926	H	0.423194	0.643355	0.472208
	H5927	H	0.423503	0.362202	0.472244
	H5928	H	0.423664	0.142769	0.472191
	H5929	H	0.437223	0.143036	0.390959
	H5930	H	0.486895	0.142975	0.393613
	H5931	H	0.486616	0.362777	0.393722
	H5932	H	0.435905	0.361685	0.390794
	H5933	H	0.486290	0.142526	0.409634
	H5934	H	0.485963	0.362529	0.409706
	H5935	H	0.447407	0.064120	0.500933
	H5936	H	0.452503	0.064927	0.498838
	H5937	H	0.450035	0.064611	0.494611
	H5938	H	0.466636	0.941345	0.366478
	H5939	H	0.470225	0.941115	0.366627
	H5940	H	0.472644	0.941894	0.368677
	H5941	H	0.447386	0.941163	0.500938
	H5942	H	0.452502	0.940697	0.498820
	H5943	H	0.450032	0.940838	0.494583
	Zn5944	Zn	0.405864	0.680337	0.430802
	Zn5945	Zn	0.405909	0.825648	0.430769
	Zn5946	Zn	0.405854	0.180294	0.430829
	Zn5947	Zn	0.405915	0.325477	0.430814
	Zn5948	Zn	0.444284	0.680298	0.497345
	Zn5949	Zn	0.444463	0.825663	0.497378
	Zn5950	Zn	0.444517	0.180228	0.497397
	Zn5951	Zn	0.444323	0.325785	0.497348
	C5952	C	0.487373	0.753196	0.420370
	C5953	C	0.424052	0.752646	0.445594
	C5954	C	0.424794	0.752917	0.455243
	C5955	C	0.424154	0.690926	0.459785
	C5956	C	0.424381	0.815108	0.459732
	C5957	C	0.424156	0.252598	0.445597
	C5958	C	0.424929	0.252625	0.455263
	C5959	C	0.424416	0.190524	0.459765
	C5960	C	0.424309	0.314651	0.459798
	C5961	C	0.423400	0.752667	0.416563
	C5962	C	0.428262	0.752705	0.407277
	C5963	C	0.430289	0.814771	0.402910
	C5964	C	0.430093	0.690700	0.402869
	C5965	C	0.423302	0.252757	0.416563
	C5966	C	0.428130	0.252462	0.407282
	C5967	C	0.429785	0.314214	0.402841
	C5968	C	0.430510	0.190524	0.402940
	C5969	C	0.509485	0.043585	0.434161
	C5970	C	0.509444	0.962676	0.434149
	C5971	C	0.406056	0.043359	0.432610
	C5972	C	0.406083	0.962368	0.432593
	C5973	C	0.409483	0.043551	0.429951
	C5974	C	0.409537	0.962726	0.429902
	C5975	C	0.404025	0.462643	0.432038
	C5976	C	0.507305	0.462558	0.437195
	C5977	C	0.501935	0.462864	0.433728
	C5978	C	0.404049	0.543399	0.432030
	C5979	C	0.501971	0.543620	0.433740
	C5980	C	0.507301	0.543374	0.437235
	C5981	C	0.485478	0.753291	0.448289
	C5982	C	0.485579	0.252781	0.448282
	C5983	C	0.480274	0.753314	0.457579
	C5984	C	0.478546	0.691160	0.462009
	C5985	C	0.478526	0.815241	0.462052
	C5986	C	0.480259	0.252964	0.457545
	C5987	C	0.478682	0.191074	0.462034
	C5988	C	0.478413	0.315144	0.461970
	C5989	C	0.487374	0.252753	0.420337
	C5990	C	0.486146	0.752435	0.383098
	C5991	C	0.444063	0.753134	0.380973
	C5992	C	0.424810	0.753361	0.482834
	C5993	C	0.485939	0.690772	0.406197
	C5994	C	0.486245	0.814959	0.406160
	C5995	C	0.487018	0.752526	0.392756
	C5996	C	0.437007	0.752915	0.389958
	C5997	C	0.434479	0.690789	0.394282
	C5998	C	0.486432	0.690470	0.397309
	C5999	C	0.486724	0.814711	0.397282
	C6000	C	0.434670	0.814838	0.394322
	C6001	C	0.485873	0.753009	0.410703
	C6002	C	0.467060	0.753026	0.484321
	C6003	C	0.474832	0.691024	0.470681
	C6004	C	0.474771	0.815103	0.470720
	C6005	C	0.472826	0.753040	0.475119
	C6006	C	0.444764	0.462268	0.500779
	C6007	C	0.469796	0.462399	0.367467
	C6008	C	0.450941	0.462593	0.495580
	C6009	C	0.444757	0.543264	0.500773
	C6010	C	0.450930	0.543309	0.495577
	C6011	C	0.469783	0.543278	0.367466
	C6012	C	0.466948	0.253371	0.484290
	C6013	C	0.474946	0.191184	0.470708
	C6014	C	0.474671	0.315339	0.470640
	C6015	C	0.472845	0.253293	0.475101
	C6016	C	0.468483	0.043646	0.367016
	C6017	C	0.486198	0.253461	0.383055
	C6018	C	0.444046	0.252445	0.380967
	C6019	C	0.424916	0.252485	0.482874
	C6020	C	0.486235	0.190409	0.406104
	C6021	C	0.486056	0.314744	0.406152
	C6022	C	0.487068	0.252977	0.392724
	C6023	C	0.437011	0.252390	0.389966
	C6024	C	0.423491	0.753330	0.473187
	C6025	C	0.423783	0.815258	0.468610
	C6026	C	0.423519	0.691163	0.468659
	C6027	C	0.423453	0.252547	0.473211
	C6028	C	0.423669	0.314556	0.468682
	C6029	C	0.423793	0.190573	0.468646
	C6030	C	0.434959	0.190490	0.394357
	C6031	C	0.486790	0.190596	0.397215
	C6032	C	0.486628	0.314993	0.397272
	C6033	C	0.434245	0.314226	0.394264
	C6034	C	0.485912	0.252520	0.410675
	C6035	C	0.448517	0.043246	0.499206
	C6036	C	0.470726	0.043339	0.369047
	C6037	C	0.468453	0.962497	0.367020
	C6038	C	0.448497	0.962424	0.499208
	C6039	C	0.470755	0.962756	0.369058
	N6040	N	0.406002	0.070126	0.430825
	N6041	N	0.406057	0.935636	0.430777
	N6042	N	0.406043	0.435709	0.430822
	N6043	N	0.406104	0.570285	0.430807
	N6044	N	0.444367	0.435804	0.497294
	N6045	N	0.444322	0.570305	0.497317
	N6046	N	0.444546	0.069959	0.497367
	N6047	N	0.444511	0.935476	0.497354
	O6048	O	0.477630	0.694487	0.552489
	O6049	O	0.477546	0.811054	0.552511
	O6050	O	0.400355	0.693689	0.570466
	O6051	O	0.400447	0.810531	0.570477
	O6052	O	0.400614	0.195291	0.570482
	O6053	O	0.400406	0.311967	0.570470
	O6054	O	0.401261	0.694107	0.550178
	O6055	O	0.401390	0.810854	0.550251
	O6056	O	0.401461	0.194539	0.550230
	O6057	O	0.401399	0.311298	0.550245
	O6058	O	0.476711	0.694500	0.572685
	O6059	O	0.476607	0.811169	0.572684
	O6060	O	0.476569	0.194528	0.572635
	O6061	O	0.476672	0.311168	0.572729
	O6062	O	0.477576	0.194831	0.552495
	O6063	O	0.477509	0.311530	0.552501
	O6064	O	0.462961	0.693870	0.508027
	O6065	O	0.425375	0.695068	0.507176
	O6066	O	0.452376	0.695629	0.615708
	O6067	O	0.452063	0.812175	0.615597
	O6068	O	0.414801	0.693116	0.614925
	O6069	O	0.414566	0.809746	0.614989
	O6070	O	0.425685	0.811748	0.507269
	O6071	O	0.463259	0.810755	0.507975
	O6072	O	0.463119	0.195109	0.508034
	O6073	O	0.425633	0.194185	0.507291
	O6074	O	0.452059	0.192991	0.615660
	O6075	O	0.452439	0.309684	0.615696
	O6076	O	0.414533	0.195903	0.614922
	O6077	O	0.414745	0.312575	0.614958
	O6078	O	0.425444	0.310945	0.507225
	O6079	O	0.462906	0.311705	0.508047
	H6080	H	0.406391	0.642491	0.584635
	H6081	H	0.405587	0.861406	0.584770
	H6082	H	0.405849	0.144483	0.584764
	H6083	H	0.406095	0.363571	0.584687
	H6084	H	0.410931	0.862524	0.536657
	H6085	H	0.410305	0.643023	0.536536
	H6086	H	0.410521	0.362630	0.536599
	H6087	H	0.410839	0.143381	0.536694
	H6088	H	0.492969	0.064349	0.563686
	H6089	H	0.495281	0.064800	0.564643
	H6090	H	0.495288	0.940912	0.564653
	H6091	H	0.493043	0.941006	0.563716
	H6092	H	0.493898	0.064351	0.561891
	H6093	H	0.493987	0.941291	0.561921
	H6094	H	0.369938	0.064297	0.557810
	H6095	H	0.369905	0.941232	0.557811
	H6096	H	0.371049	0.064853	0.562433
	H6097	H	0.371079	0.940801	0.562470
	H6098	H	0.384394	0.064464	0.565393
	H6099	H	0.384307	0.941339	0.565337
	H6100	H	0.377590	0.440938	0.561865
	H6101	H	0.382796	0.440884	0.562531
	H6102	H	0.375717	0.441483	0.558751
	H6103	H	0.500292	0.441187	0.563531
	H6104	H	0.496926	0.441583	0.564905
	H6105	H	0.493569	0.441381	0.564397
	H6106	H	0.382765	0.564496	0.562497
	H6107	H	0.377744	0.564298	0.561847
	H6108	H	0.493842	0.564425	0.564421
	H6109	H	0.497091	0.564473	0.564893
	H6110	H	0.500382	0.565030	0.563518
	H6111	H	0.375789	0.564244	0.558747
	H6112	H	0.468064	0.643328	0.586402
	H6113	H	0.466921	0.862573	0.586216
	H6114	H	0.467192	0.142309	0.586202
	H6115	H	0.467762	0.361894	0.586424
	H6116	H	0.417246	0.643254	0.520943
	H6117	H	0.468235	0.643187	0.522248
	H6118	H	0.469021	0.862652	0.522243
	H6119	H	0.417814	0.862817	0.521053
	H6120	H	0.471642	0.643220	0.538244
	H6121	H	0.472463	0.862762	0.538244
	H6122	H	0.460985	0.643764	0.601958
	H6123	H	0.459855	0.862911	0.601798
	H6124	H	0.439995	0.440829	0.502017
	H6125	H	0.431884	0.440843	0.624393
	H6126	H	0.432659	0.441443	0.496870
	H6127	H	0.437184	0.441110	0.493087
	H6128	H	0.432338	0.441226	0.626867
	H6129	H	0.430569	0.441372	0.625900
	H6130	H	0.431808	0.564579	0.624372
	H6131	H	0.439980	0.564274	0.502023
	H6132	H	0.430533	0.564081	0.625876
	H6133	H	0.432285	0.564409	0.626855
	H6134	H	0.437068	0.564636	0.493110
	H6135	H	0.432729	0.564677	0.496883
	H6136	H	0.460211	0.141632	0.601799
	H6137	H	0.460791	0.361083	0.601991
	H6138	H	0.436168	0.064791	0.496503
	H6139	H	0.437933	0.064678	0.499632
	H6140	H	0.443139	0.064731	0.493653
	H6141	H	0.408806	0.861036	0.600756
	H6142	H	0.409594	0.642001	0.600658
	H6143	H	0.409319	0.363959	0.600696
	H6144	H	0.409037	0.144902	0.600753
	H6145	H	0.417725	0.143121	0.521091
	H6146	H	0.468920	0.144004	0.522235
	H6147	H	0.468470	0.362886	0.522280
	H6148	H	0.417390	0.362357	0.520966
	H6149	H	0.472290	0.143746	0.538236
	H6150	H	0.471823	0.362742	0.538273
	H6151	H	0.435021	0.064765	0.620598
	H6152	H	0.425646	0.064556	0.621523
	H6153	H	0.422416	0.064523	0.627046
	H6154	H	0.437956	0.941644	0.499619
	H6155	H	0.436125	0.941656	0.496548
	H6156	H	0.443076	0.941716	0.493576
	H6157	H	0.435143	0.941329	0.620567
	H6158	H	0.425769	0.941088	0.621489
	H6159	H	0.422299	0.941427	0.627100
	Zn6160	Zn	0.381637	0.679791	0.559788
	Zn6161	Zn	0.381791	0.825479	0.559824
	Zn6162	Zn	0.381898	0.179977	0.559869
	Zn6163	Zn	0.381612	0.325365	0.559796
	Zn6164	Zn	0.433662	0.680255	0.625573
	Zn6165	Zn	0.433309	0.825309	0.625513
	Zn6166	Zn	0.433077	0.180138	0.625547
	Zn6167	Zn	0.433779	0.325195	0.625570
	C6168	C	0.475523	0.752828	0.548835
	C6169	C	0.402404	0.752094	0.574134
	C6170	C	0.405878	0.751937	0.583740
	C6171	C	0.406891	0.689899	0.588236
	C6172	C	0.406473	0.813724	0.588306
	C6173	C	0.402487	0.253742	0.574155
	C6174	C	0.405895	0.254110	0.583744
	C6175	C	0.406577	0.192272	0.588306
	C6176	C	0.406736	0.316107	0.588270
	C6177	C	0.404307	0.752541	0.546762
	C6178	C	0.410223	0.752793	0.537553
	C6179	C	0.412356	0.814986	0.533162
	C6180	C	0.412049	0.690773	0.533096
	C6181	C	0.404362	0.252981	0.546780
	C6182	C	0.410296	0.253034	0.537590
	C6183	C	0.412162	0.314984	0.533144
	C6184	C	0.412333	0.190946	0.533198
	C6185	C	0.494770	0.043453	0.563908
	C6186	C	0.494798	0.962437	0.563914
	C6187	C	0.373501	0.043371	0.560061
	C6188	C	0.373470	0.962352	0.560055
	C6189	C	0.386918	0.043130	0.562970
	C6190	C	0.386892	0.962657	0.562958
	C6191	C	0.380591	0.462025	0.561557
	C6192	C	0.499034	0.462520	0.562886
	C6193	C	0.495594	0.462582	0.564249
	C6194	C	0.380607	0.543013	0.561551
	C6195	C	0.495674	0.543303	0.564242
	C6196	C	0.499049	0.543660	0.562873
	C6197	C	0.473764	0.752819	0.576154
	C6198	C	0.473673	0.252692	0.576144
	C6199	C	0.467793	0.753050	0.585326
	C6200	C	0.466120	0.691115	0.589795
	C6201	C	0.465484	0.814992	0.589703
	C6202	C	0.467740	0.252176	0.585330
	C6203	C	0.465647	0.189854	0.589703
	C6204	C	0.465998	0.313966	0.589825
	C6205	C	0.475541	0.253172	0.548830
	C6206	C	0.465126	0.752399	0.511663
	C6207	C	0.422969	0.753323	0.510739
	C6208	C	0.412688	0.751479	0.611289
	C6209	C	0.470967	0.690971	0.534698
	C6210	C	0.471369	0.815107	0.534697
	C6211	C	0.468568	0.752935	0.521267
	C6212	C	0.417786	0.753092	0.520019
	C6213	C	0.415840	0.690899	0.524430
	C6214	C	0.469228	0.690874	0.525806
	C6215	C	0.469643	0.815097	0.525805
	C6216	C	0.416147	0.815154	0.524494
	C6217	C	0.471989	0.753027	0.539234
	C6218	C	0.454865	0.753796	0.612135
	C6219	C	0.462312	0.691362	0.598464
	C6220	C	0.461672	0.815235	0.598366
	C6221	C	0.460183	0.753468	0.602864
	C6222	C	0.433390	0.462294	0.624621
	C6223	C	0.437373	0.462584	0.495595
	C6224	C	0.432092	0.462541	0.626168
	C6225	C	0.433363	0.543361	0.624627
	C6226	C	0.432056	0.543113	0.626154
	C6227	C	0.437379	0.543401	0.495600
	C6228	C	0.454898	0.251274	0.612167
	C6229	C	0.461839	0.189480	0.598375
	C6230	C	0.462220	0.313552	0.598497
	C6231	C	0.460188	0.251303	0.602880
	C6232	C	0.439030	0.043340	0.497870
	C6233	C	0.465110	0.253444	0.511701
	C6234	C	0.422960	0.252640	0.510775
	C6235	C	0.412677	0.254390	0.611261
	C6236	C	0.471353	0.191406	0.534690
	C6237	C	0.471113	0.315184	0.534715
	C6238	C	0.468651	0.253425	0.521287
	C6239	C	0.417767	0.252824	0.520053
	C6240	C	0.409177	0.751485	0.601706
	C6241	C	0.408147	0.813526	0.597193
	C6242	C	0.408616	0.689654	0.597126
	C6243	C	0.409169	0.254496	0.601701
	C6244	C	0.408458	0.316382	0.597151
	C6245	C	0.408286	0.192424	0.597186
	C6246	C	0.416119	0.190841	0.524530
	C6247	C	0.469588	0.191512	0.525807
	C6248	C	0.469344	0.315232	0.525830
	C6249	C	0.415933	0.314862	0.524472
	C6250	C	0.472077	0.253241	0.539238
	C6251	C	0.431115	0.043430	0.622248
	C6252	C	0.446039	0.043229	0.494964
	C6253	C	0.438975	0.962611	0.497879
	C6254	C	0.431178	0.962382	0.622219
	C6255	C	0.446001	0.962439	0.494955
	N6256	N	0.381904	0.070026	0.559852
	N6257	N	0.381849	0.935603	0.559845
	N6258	N	0.381634	0.435419	0.559799
	N6259	N	0.381665	0.569871	0.559805
	N6260	N	0.433803	0.435706	0.625585
	N6261	N	0.433732	0.570217	0.625566
	N6262	N	0.433090	0.070025	0.625537
	N6263	N	0.433205	0.935504	0.625540
	O6264	O	0.455365	0.694979	0.681026
	O6265	O	0.455148	0.811868	0.681085
	O6266	O	0.389281	0.693984	0.698861
	O6267	O	0.389172	0.810782	0.698881
	O6268	O	0.389190	0.194501	0.698846
	O6269	O	0.389273	0.311248	0.698869
	O6270	O	0.389862	0.694412	0.678170
	O6271	O	0.389949	0.810988	0.678195
	O6272	O	0.389790	0.194957	0.678161
	O6273	O	0.389879	0.311398	0.678229
	O6274	O	0.456949	0.695066	0.702748
	O6275	O	0.457076	0.811616	0.702810
	O6276	O	0.456904	0.194449	0.702773
	O6277	O	0.456922	0.311016	0.702751
	O6278	O	0.455279	0.193183	0.681115
	O6279	O	0.455250	0.310188	0.681046
	O6280	O	0.451749	0.695263	0.636334
	O6281	O	0.413987	0.693257	0.635172
	O6282	O	0.430606	0.694439	0.745262
	O6283	O	0.430539	0.811366	0.745269
	O6284	O	0.392577	0.694552	0.743614
	O6285	O	0.392710	0.811372	0.743596
	O6286	O	0.413593	0.809923	0.635084
	O6287	O	0.451465	0.812041	0.636333
	O6288	O	0.451464	0.193106	0.636294
	O6289	O	0.413299	0.195914	0.635031
	O6290	O	0.430642	0.194532	0.745299
	O6291	O	0.430429	0.311231	0.745240
	O6292	O	0.392869	0.194004	0.743566
	O6293	O	0.392703	0.310702	0.743611
	O6294	O	0.414070	0.312762	0.635187
	O6295	O	0.451966	0.309797	0.636340
	H6296	H	0.391715	0.642610	0.713248
	H6297	H	0.392274	0.862528	0.713252
	H6298	H	0.391959	0.143152	0.713215
	H6299	H	0.391938	0.362532	0.713269
	H6300	H	0.397343	0.861962	0.664291
	H6301	H	0.397954	0.642323	0.664385
	H6302	H	0.398092	0.363429	0.664443
	H6303	H	0.397219	0.144181	0.664261
	H6304	H	0.474379	0.064202	0.693378
	H6305	H	0.475765	0.064917	0.692258
	H6306	H	0.475753	0.941086	0.692265
	H6307	H	0.474415	0.941315	0.693338
	H6308	H	0.470617	0.064428	0.693281
	H6309	H	0.470586	0.941209	0.693276
	H6310	H	0.392423	0.064470	0.685022
	H6311	H	0.392378	0.940454	0.685033
	H6312	H	0.378813	0.064168	0.678863
	H6313	H	0.378791	0.941171	0.678855
	H6314	H	0.353637	0.064408	0.681397
	H6315	H	0.353591	0.941018	0.681365
	H6316	H	0.380319	0.441147	0.685062
	H6317	H	0.371527	0.440405	0.682876
	H6318	H	0.380973	0.440882	0.691043
	H6319	H	0.475188	0.441210	0.691249
	H6320	H	0.475105	0.441273	0.693094
	H6321	H	0.472454	0.441066	0.693728
	H6322	H	0.371474	0.564807	0.682813
	H6323	H	0.380515	0.563928	0.685025
	H6324	H	0.472579	0.564645	0.693696
	H6325	H	0.475126	0.564693	0.693041
	H6326	H	0.475075	0.564617	0.691243
	H6327	H	0.381099	0.564323	0.691064
	H6328	H	0.449531	0.643716	0.716527
	H6329	H	0.449835	0.862710	0.716601
	H6330	H	0.449765	0.143526	0.716580
	H6331	H	0.449757	0.362295	0.716551
	H6332	H	0.404848	0.642224	0.648792
	H6333	H	0.454659	0.643756	0.650677
	H6334	H	0.453999	0.863518	0.650715
	H6335	H	0.404229	0.861701	0.648703
	H6336	H	0.454089	0.643589	0.666696
	H6337	H	0.453403	0.863456	0.666708
	H6338	H	0.441229	0.643685	0.731962
	H6339	H	0.441576	0.862411	0.732053
	H6340	H	0.434562	0.441042	0.624198
	H6341	H	0.411476	0.441276	0.751332
	H6342	H	0.437083	0.440973	0.625516
	H6343	H	0.436091	0.441168	0.626639
	H6344	H	0.402529	0.440816	0.755518
	H6345	H	0.403277	0.440799	0.752763
	H6346	H	0.411472	0.564740	0.751351
	H6347	H	0.434557	0.565107	0.624213
	H6348	H	0.403295	0.564356	0.752754
	H6349	H	0.402552	0.564191	0.755563
	H6350	H	0.436003	0.564764	0.626613
	H6351	H	0.436930	0.564615	0.625482
	H6352	H	0.441508	0.143531	0.732013
	H6353	H	0.441472	0.362454	0.731983
	H6354	H	0.441924	0.064495	0.628928
	H6355	H	0.444399	0.064876	0.624905
	H6356	H	0.429201	0.064542	0.630199
	H6357	H	0.391531	0.862704	0.729244
	H6358	H	0.391036	0.642754	0.729236
	H6359	H	0.391229	0.362097	0.729256
	H6360	H	0.391334	0.142972	0.729210
	H6361	H	0.403969	0.144601	0.648633
	H6362	H	0.454163	0.141263	0.650711
	H6363	H	0.454833	0.360637	0.650693
	H6364	H	0.404908	0.363880	0.648854
	H6365	H	0.453426	0.141408	0.666711
	H6366	H	0.454055	0.361035	0.666692
	H6367	H	0.402953	0.064378	0.755968
	H6368	H	0.408018	0.064682	0.757841
	H6369	H	0.416199	0.064230	0.756673
	H6370	H	0.444578	0.941424	0.624899
	H6371	H	0.442015	0.940822	0.628957
	H6372	H	0.429189	0.941313	0.630219
	H6373	H	0.402996	0.941195	0.755969
	H6374	H	0.407895	0.941163	0.757850
	H6375	H	0.416163	0.940991	0.756719
	Zn6376	Zn	0.371052	0.680222	0.688048
	Zn6377	Zn	0.371080	0.824967	0.688096
	Zn6378	Zn	0.371123	0.180205	0.688081
	Zn6379	Zn	0.371016	0.324942	0.688094
	Zn6380	Zn	0.409978	0.680384	0.754635
	Zn6381	Zn	0.409890	0.825270	0.754636
	Zn6382	Zn	0.410095	0.180279	0.754640
	Zn6383	Zn	0.409949	0.325408	0.754630
	C6384	C	0.454328	0.753500	0.677318
	C6385	C	0.390554	0.752357	0.702595
	C6386	C	0.392126	0.752517	0.712251
	C6387	C	0.391741	0.690403	0.716793
	C6388	C	0.392032	0.814703	0.716802
	C6389	C	0.390564	0.252822	0.702578
	C6390	C	0.392173	0.252759	0.712238
	C6391	C	0.391905	0.190745	0.716769
	C6392	C	0.391881	0.314690	0.716798
	C6393	C	0.392422	0.752687	0.674642
	C6394	C	0.397640	0.752274	0.665365
	C6395	C	0.399142	0.814227	0.660874
	C6396	C	0.399480	0.690067	0.660919
	C6397	C	0.392436	0.253292	0.674664
	C6398	C	0.397679	0.253608	0.665380
	C6399	C	0.399532	0.315765	0.660958
	C6400	C	0.399046	0.191882	0.660844
	C6401	C	0.474332	0.043157	0.692635
	C6402	C	0.474329	0.962338	0.692610
	C6403	C	0.381835	0.043024	0.683573
	C6404	C	0.381804	0.962317	0.683566
	C6405	C	0.356435	0.043070	0.686099
	C6406	C	0.356407	0.962169	0.686091
	C6407	C	0.374627	0.462149	0.685027
	C6408	C	0.473346	0.462316	0.691172
	C6409	C	0.473317	0.462548	0.693046
	C6410	C	0.374677	0.542993	0.685001
	C6411	C	0.473349	0.543348	0.693020
	C6412	C	0.473309	0.543180	0.691172
	C6413	C	0.454934	0.753260	0.706354
	C6414	C	0.454844	0.252796	0.706335
	C6415	C	0.449963	0.753203	0.715609
	C6416	C	0.447827	0.691204	0.719974
	C6417	C	0.448011	0.815133	0.720023
	C6418	C	0.449895	0.252865	0.715612
	C6419	C	0.447938	0.190945	0.720015
	C6420	C	0.447942	0.314910	0.719995
	C6421	C	0.454290	0.251564	0.677345
	C6422	C	0.452893	0.753663	0.640056
	C6423	C	0.410873	0.751628	0.638594
	C6424	C	0.391738	0.752919	0.739864
	C6425	C	0.454037	0.691361	0.663136
	C6426	C	0.453674	0.815695	0.663152
	C6427	C	0.454519	0.753569	0.649725
	C6428	C	0.404989	0.751887	0.647791
	C6429	C	0.403161	0.689904	0.652241
	C6430	C	0.454487	0.691409	0.654248
	C6431	C	0.454138	0.815713	0.654270
	C6432	C	0.402822	0.814016	0.652193
	C6433	C	0.453443	0.753480	0.667669
	C6434	C	0.433933	0.752950	0.741927
	C6435	C	0.443321	0.691178	0.728546
	C6436	C	0.443487	0.815063	0.728597
	C6437	C	0.440982	0.753058	0.732913
	C6438	C	0.412934	0.462399	0.752888
	C6439	C	0.435847	0.462580	0.625930
	C6440	C	0.404675	0.462391	0.754285
	C6441	C	0.412937	0.543303	0.752892
	C6442	C	0.404704	0.543166	0.754289
	C6443	C	0.435787	0.543438	0.625931
	C6444	C	0.433961	0.252896	0.741941
	C6445	C	0.443489	0.191095	0.728599
	C6446	C	0.443464	0.314881	0.728574
	C6447	C	0.441059	0.253005	0.732942
	C6448	C	0.440510	0.043381	0.626555
	C6449	C	0.453028	0.251308	0.640050
	C6450	C	0.410840	0.254318	0.638575
	C6451	C	0.391852	0.252424	0.739843
	C6452	C	0.453676	0.189113	0.663155
	C6453	C	0.454005	0.313180	0.663146
	C6454	C	0.454567	0.251015	0.649718
	C6455	C	0.405006	0.254162	0.647798
	C6456	C	0.390912	0.752719	0.730199
	C6457	C	0.391530	0.814922	0.725684
	C6458	C	0.391221	0.690427	0.725674
	C6459	C	0.390978	0.252501	0.730190
	C6460	C	0.391354	0.314614	0.725680
	C6461	C	0.391387	0.190628	0.725650
	C6462	C	0.402707	0.192115	0.652159
	C6463	C	0.454171	0.188954	0.654265
	C6464	C	0.454525	0.313059	0.654257
	C6465	C	0.403221	0.316085	0.652276
	C6466	C	0.453368	0.251291	0.667684
	C6467	C	0.406596	0.043411	0.756301
	C6468	C	0.427715	0.043072	0.627819
	C6469	C	0.440639	0.962545	0.626563
	C6470	C	0.406513	0.962411	0.756309
	C6471	C	0.427724	0.962457	0.627813
	N6472	N	0.371076	0.069945	0.688096
	N6473	N	0.371060	0.935354	0.688063
	N6474	N	0.370961	0.435331	0.688071
	N6475	N	0.370980	0.569904	0.688068
	N6476	N	0.409851	0.435588	0.754637
	N6477	N	0.409852	0.570161	0.754624
	N6478	N	0.409851	0.070026	0.754646
	N6479	N	0.409779	0.935481	0.754643
	O6480	O	0.501673	0.694400	0.797796
	O6481	O	0.501716	0.810758	0.797814
	O6482	O	0.370877	0.694305	0.826225
	O6483	O	0.370771	0.810623	0.826298
	O6484	O	0.370638	0.194114	0.826266
	O6485	O	0.370822	0.310281	0.826203
	O6486	O	0.368363	0.694077	0.807759
	O6487	O	0.368532	0.810972	0.807771
	O6488	O	0.368458	0.193962	0.807827
	O6489	O	0.368709	0.310765	0.807880
	O6490	O	0.504055	0.694033	0.816195
	O6491	O	0.504020	0.810757	0.816202
	O6492	O	0.504023	0.194419	0.816206
	O6493	O	0.504062	0.311277	0.816186
	O6494	O	0.501653	0.195097	0.797859
	O6495	O	0.501760	0.311337	0.797808
	O6496	O	0.432913	0.694607	0.763636
	O6497	O	0.394479	0.694206	0.765253
	O6498	O	0.477991	0.694717	0.858742
	O6499	O	0.478020	0.811112	0.858717
	O6500	O	0.439748	0.694180	0.860324
	O6501	O	0.439506	0.810562	0.860419
	O6502	O	0.394491	0.810685	0.765262
	O6503	O	0.432955	0.810871	0.763657
	O6504	O	0.433026	0.194975	0.763688
	O6505	O	0.394403	0.194231	0.765221
	O6506	O	0.478141	0.194155	0.858775
	O6507	O	0.478204	0.310743	0.858778
	O6508	O	0.439653	0.194735	0.860369
	O6509	O	0.439609	0.310898	0.860371
	O6510	O	0.394535	0.310581	0.765274
	O6511	O	0.432931	0.311244	0.763669
	H6512	H	0.392932	0.643978	0.837129
	H6513	H	0.392744	0.860511	0.837254
	H6514	H	0.392865	0.144081	0.837166
	H6515	H	0.393119	0.360519	0.837074
	H6516	H	0.379324	0.861966	0.794513
	H6517	H	0.379285	0.642982	0.794584
	H6518	H	0.379120	0.361652	0.794571
	H6519	H	0.379398	0.142900	0.794556
	H6520	H	0.511583	0.064513	0.805780
	H6521	H	0.514833	0.064593	0.810546
	H6522	H	0.514731	0.941117	0.810552
	H6523	H	0.511566	0.940843	0.805736
	H6524	H	0.521882	0.064222	0.801143
	H6525	H	0.521936	0.941167	0.801131
	H6526	H	0.344181	0.064414	0.816259
	H6527	H	0.344234	0.941075	0.816224
	H6528	H	0.343891	0.064524	0.817710
	H6529	H	0.343927	0.940770	0.817748
	H6530	H	0.347919	0.064155	0.819048
	H6531	H	0.347927	0.941212	0.819003
	H6532	H	0.348390	0.441305	0.816737
	H6533	H	0.347507	0.440593	0.816741
	H6534	H	0.349060	0.440817	0.817192
	H6535	H	0.529901	0.440588	0.807911
	H6536	H	0.524453	0.440842	0.809289
	H6537	H	0.520360	0.441228	0.808220
	H6538	H	0.347409	0.564314	0.816715
	H6539	H	0.348379	0.564350	0.816745
	H6540	H	0.520259	0.564191	0.808246
	H6541	H	0.524398	0.564670	0.809335
	H6542	H	0.529814	0.564289	0.807919
	H6543	H	0.349044	0.564173	0.817197
	H6544	H	0.493291	0.643051	0.829524
	H6545	H	0.493075	0.861956	0.829427
	H6546	H	0.493500	0.143153	0.829502
	H6547	H	0.493056	0.362139	0.829449
	H6548	H	0.387425	0.642721	0.779126
	H6549	H	0.455277	0.644288	0.774441
	H6550	H	0.455133	0.861262	0.774573
	H6551	H	0.387425	0.861653	0.779044
	H6552	H	0.479593	0.643905	0.786849
	H6553	H	0.479401	0.861203	0.786941
	H6554	H	0.485229	0.643620	0.844971
	H6555	H	0.484972	0.862231	0.844861
	H6556	H	0.416733	0.441665	0.753176
	H6557	H	0.460428	0.440917	0.869939
	H6558	H	0.415709	0.441247	0.756992
	H6559	H	0.409677	0.441071	0.758018
	H6560	H	0.465027	0.440705	0.870001
	H6561	H	0.463217	0.440533	0.870493
	H6562	H	0.460492	0.564534	0.869945
	H6563	H	0.416648	0.564638	0.753190
	H6564	H	0.463272	0.564431	0.870502
	H6565	H	0.465118	0.564132	0.869994
	H6566	H	0.409743	0.564764	0.757997
	H6567	H	0.415665	0.564403	0.756959
	H6568	H	0.485408	0.143184	0.844983
	H6569	H	0.484994	0.362178	0.844910
	H6570	H	0.410417	0.064450	0.751328
	H6571	H	0.404427	0.064582	0.752189
	H6572	H	0.417332	0.064109	0.753907
	H6573	H	0.417142	0.860394	0.849588
	H6574	H	0.417401	0.643888	0.849487
	H6575	H	0.417439	0.360870	0.849416
	H6576	H	0.417227	0.144366	0.849540
	H6577	H	0.387530	0.143110	0.779104
	H6578	H	0.455184	0.144960	0.774607
	H6579	H	0.455310	0.361545	0.774538
	H6580	H	0.387290	0.361446	0.779121
	H6581	H	0.479510	0.145198	0.786983
	H6582	H	0.479694	0.361273	0.786897
	H6583	H	0.468658	0.063937	0.873563
	H6584	H	0.473639	0.064361	0.870236
	H6585	H	0.467813	0.064365	0.865150
	H6586	H	0.404403	0.941373	0.752162
	H6587	H	0.410499	0.940885	0.751357
	H6588	H	0.417158	0.940637	0.753888
	H6589	H	0.468674	0.940566	0.873508
	H6590	H	0.473626	0.940378	0.870221
	H6591	H	0.467724	0.940715	0.865098
	Zn6592	Zn	0.347929	0.679814	0.817187
	Zn6593	Zn	0.347955	0.825073	0.817188
	Zn6594	Zn	0.347807	0.179846	0.817210
	Zn6595	Zn	0.348031	0.325197	0.817181
	Zn6596	Zn	0.462707	0.680021	0.869365
	Zn6597	Zn	0.462540	0.825026	0.869346
	Zn6598	Zn	0.462570	0.179791	0.869401
	Zn6599	Zn	0.462598	0.325065	0.869391
	C6600	C	0.495808	0.752613	0.795031
	C6601	C	0.376703	0.752432	0.829037
	C6602	C	0.391590	0.752221	0.836378
	C6603	C	0.398425	0.690851	0.839870
	C6604	C	0.398309	0.813447	0.839935
	C6605	C	0.376638	0.252167	0.829025
	C6606	C	0.391535	0.252309	0.836381
	C6607	C	0.398343	0.191138	0.839915
	C6608	C	0.398477	0.313579	0.839855
	C6609	C	0.371806	0.752483	0.804435
	C6610	C	0.378798	0.752407	0.795444
	C6611	C	0.381193	0.814327	0.791086
	C6612	C	0.381187	0.690370	0.791129
	C6613	C	0.371932	0.252362	0.804512
	C6614	C	0.378906	0.252186	0.795497
	C6615	C	0.381218	0.314126	0.791155
	C6616	C	0.381335	0.190352	0.791136
	C6617	C	0.516249	0.043198	0.807809
	C6618	C	0.516213	0.962193	0.807812
	C6619	C	0.345010	0.043130	0.817040
	C6620	C	0.345023	0.962141	0.817022
	C6621	C	0.349011	0.042829	0.818318
	C6622	C	0.349042	0.962182	0.818296
	C6623	C	0.347901	0.462091	0.816848
	C6624	C	0.528512	0.462180	0.806888
	C6625	C	0.523065	0.462291	0.808272
	C6626	C	0.347877	0.543027	0.816830
	C6627	C	0.523008	0.543099	0.808279
	C6628	C	0.528505	0.542795	0.806895
	C6629	C	0.500687	0.752355	0.819542
	C6630	C	0.500715	0.252875	0.819540
	C6631	C	0.493703	0.752460	0.828526
	C6632	C	0.491356	0.690770	0.832915
	C6633	C	0.491226	0.814442	0.832862
	C6634	C	0.493733	0.252661	0.828557
	C6635	C	0.491485	0.190694	0.832931
	C6636	C	0.491228	0.314671	0.832895
	C6637	C	0.495824	0.253215	0.795051
	C6638	C	0.438867	0.752733	0.766421
	C6639	C	0.392466	0.752378	0.768845
	C6640	C	0.433667	0.752350	0.857622
	C6641	C	0.474160	0.691161	0.784111
	C6642	C	0.474082	0.814018	0.784172
	C6643	C	0.453811	0.752738	0.773776
	C6644	C	0.387586	0.752243	0.778137
	C6645	C	0.385625	0.690331	0.782552
	C6646	C	0.460692	0.691214	0.777239
	C6647	C	0.460615	0.814112	0.777302
	C6648	C	0.385627	0.814229	0.782504
	C6649	C	0.480964	0.752550	0.787659
	C6650	C	0.480082	0.752867	0.855139
	C6651	C	0.486953	0.690915	0.841500
	C6652	C	0.486816	0.814659	0.841444
	C6653	C	0.484945	0.752835	0.845858
	C6654	C	0.461026	0.462244	0.869414
	C6655	C	0.411883	0.462531	0.756757
	C6656	C	0.463828	0.462037	0.870022
	C6657	C	0.461061	0.542935	0.869414
	C6658	C	0.463865	0.543001	0.870029
	C6659	C	0.411904	0.543415	0.756740
	C6660	C	0.480190	0.252425	0.855192
	C6661	C	0.487124	0.190681	0.841531
	C6662	C	0.486861	0.314580	0.841492
	C6663	C	0.485053	0.252563	0.845908
	C6664	C	0.408062	0.043122	0.752519
	C6665	C	0.438906	0.253195	0.766452
	C6666	C	0.392412	0.252331	0.768834
	C6667	C	0.433678	0.252818	0.857608
	C6668	C	0.474117	0.192005	0.784197
	C6669	C	0.474221	0.314392	0.784148
	C6670	C	0.453871	0.253284	0.773771
	C6671	C	0.387577	0.252319	0.778130
	C6672	C	0.418772	0.752170	0.850242
	C6673	C	0.411804	0.813438	0.846796
	C6674	C	0.411934	0.690828	0.846736
	C6675	C	0.418761	0.252678	0.850271
	C6676	C	0.411982	0.313741	0.846718
	C6677	C	0.411863	0.191382	0.846778
	C6678	C	0.385660	0.190531	0.782536
	C6679	C	0.460672	0.192028	0.777315
	C6680	C	0.460768	0.314495	0.777270
	C6681	C	0.385545	0.314043	0.782554
	C6682	C	0.481025	0.253277	0.787660
	C6683	C	0.468940	0.042732	0.871226
	C6684	C	0.414897	0.043045	0.755131
	C6685	C	0.408023	0.962291	0.752528
	C6686	C	0.468939	0.961809	0.871201
	C6687	C	0.414839	0.962187	0.755149
	N6688	N	0.347724	0.069782	0.817189
	N6689	N	0.347789	0.935250	0.817181
	N6690	N	0.347902	0.435326	0.817168
	N6691	N	0.347876	0.569863	0.817140
	N6692	N	0.462794	0.435264	0.869350
	N6693	N	0.462857	0.569820	0.869346
	N6694	N	0.462699	0.069676	0.869396
	N6695	N	0.462677	0.935125	0.869361
	O6696	O	0.482902	0.693956	0.925119
	O6697	O	0.483023	0.810651	0.925135
	O6698	O	0.417479	0.694311	0.942857
	O6699	O	0.417238	0.811199	0.942844
	O6700	O	0.417406	0.194017	0.942862
	O6701	O	0.417402	0.310794	0.942860
	O6702	O	0.415491	0.694479	0.921203
	O6703	O	0.415328	0.810973	0.921196
	O6704	O	0.415540	0.193664	0.921188
	O6705	O	0.415548	0.310355	0.921233
	O6706	O	0.482807	0.693768	0.946045
	O6707	O	0.482593	0.810391	0.945975
	O6708	O	0.482573	0.194665	0.945962
	O6709	O	0.482875	0.311497	0.946041
	O6710	O	0.482927	0.194669	0.925161
	O6711	O	0.482857	0.311370	0.925172
	O6712	O	0.479985	0.694549	0.880409
	O6713	O	0.442104	0.694002	0.878732
	O6714	O	0.458218	0.694317	0.988996
	O6715	O	0.458072	0.810951	0.988935
	O6716	O	0.420118	0.693734	0.987619
	O6717	O	0.420169	0.810646	0.987631
	O6718	O	0.441819	0.810867	0.878661
	O6719	O	0.479788	0.811458	0.880385
	O6720	O	0.479772	0.193852	0.880461
	O6721	O	0.441945	0.194620	0.878692
	O6722	O	0.458196	0.194383	0.988918
	O6723	O	0.458149	0.310881	0.988904
	O6724	O	0.420300	0.194695	0.987582
	O6725	O	0.420163	0.311310	0.987593
	O6726	O	0.442062	0.311341	0.878774
	O6727	O	0.479826	0.310828	0.880405
	H6728	H	0.419144	0.643030	0.957202
	H6729	H	0.418659	0.862641	0.957265
	H6730	H	0.418906	0.142772	0.957241
	H6731	H	0.418847	0.362359	0.957179
	H6732	H	0.422758	0.862251	0.907388
	H6733	H	0.422784	0.643614	0.907395
	H6734	H	0.422874	0.361922	0.907481
	H6735	H	0.422642	0.142991	0.907346
	H6736	H	0.497132	0.064316	0.933980
	H6737	H	0.495114	0.063683	0.935838
	H6738	H	0.495153	0.940600	0.935904
	H6739	H	0.497135	0.940229	0.933979
	H6740	H	0.503744	0.064209	0.933832
	H6741	H	0.503733	0.940858	0.933838
	H6742	H	0.402970	0.063872	0.935053
	H6743	H	0.402978	0.940786	0.935089
	H6744	H	0.407462	0.064263	0.933019
	H6745	H	0.407449	0.940631	0.933088
	H6746	H	0.404717	0.063947	0.929188
	H6747	H	0.404804	0.940592	0.929217
	H6748	H	0.404900	0.440425	0.932479
	H6749	H	0.404289	0.440632	0.930665
	H6750	H	0.400507	0.440550	0.934044
	H6751	H	0.492322	0.441094	0.939989
	H6752	H	0.489011	0.441537	0.933596
	H6753	H	0.497160	0.440790	0.930549
	H6754	H	0.404302	0.564322	0.930610
	H6755	H	0.405019	0.564403	0.932447
	H6756	H	0.497133	0.564412	0.930558
	H6757	H	0.489150	0.564109	0.933601
	H6758	H	0.492337	0.564157	0.939986
	H6759	H	0.400569	0.564286	0.934033
	H6760	H	0.474906	0.642998	0.959855
	H6761	H	0.474907	0.862083	0.959839
	H6762	H	0.475126	0.143163	0.959767
	H6763	H	0.475019	0.362520	0.959820
	H6764	H	0.431064	0.643218	0.891972
	H6765	H	0.481278	0.643128	0.894736
	H6766	H	0.481378	0.862578	0.894786
	H6767	H	0.431131	0.862161	0.891960
	H6768	H	0.480451	0.642748	0.910732
	H6769	H	0.480601	0.862355	0.910782
	H6770	H	0.467787	0.643029	0.975434
	H6771	H	0.467700	0.862153	0.975401
	H6772	H	0.460151	0.441289	0.868916
	H6773	H	0.436597	0.440956	0.996723
	H6774	H	0.462834	0.441079	0.868175
	H6775	H	0.464803	0.440601	0.868601
	H6776	H	0.435698	0.441113	0.999911
	H6777	H	0.434026	0.440870	0.998512
	H6778	H	0.436528	0.564462	0.996740
	H6779	H	0.460297	0.563963	0.868929
	H6780	H	0.433905	0.564734	0.998507
	H6781	H	0.435630	0.564548	0.999912
	H6782	H	0.464868	0.564254	0.868610
	H6783	H	0.462776	0.564021	0.868164
	H6784	H	0.467890	0.142789	0.975336
	H6785	H	0.467759	0.362328	0.975381
	H6786	H	0.451463	0.064238	0.869354
	H6787	H	0.455761	0.063568	0.873077
	H6788	H	0.458375	0.064290	0.864818
	H6789	H	0.417737	0.862390	0.973271
	H6790	H	0.418215	0.642530	0.973217
	H6791	H	0.417895	0.362877	0.973169
	H6792	H	0.417977	0.143107	0.973240
	H6793	H	0.430919	0.143362	0.891932
	H6794	H	0.481052	0.142428	0.894854
	H6795	H	0.481462	0.362432	0.894783
	H6796	H	0.431083	0.362407	0.892032
	H6797	H	0.480296	0.142942	0.910866
	H6798	H	0.480642	0.362839	0.910795
	H6799	H	0.434482	0.064220	1.005211
	H6800	H	0.447562	0.064342	1.004257
	H6801	H	0.453401	0.064388	0.996722
	H6802	H	0.455849	0.941132	0.873063
	H6803	H	0.451515	0.940912	0.869271
	H6804	H	0.458401	0.941020	0.864774
	H6805	H	0.434433	0.941142	1.005284
	H6806	H	0.447636	0.940891	1.004268
	H6807	H	0.453292	0.940824	0.996751
	Zn6808	Zn	0.400090	0.679973	0.931875
	Zn6809	Zn	0.399877	0.825147	0.931856
	Zn6810	Zn	0.399989	0.179895	0.931829
	Zn6811	Zn	0.399983	0.325117	0.931823
	Zn6812	Zn	0.438159	0.680369	0.998500
	Zn6813	Zn	0.438120	0.825128	0.998438
	Zn6814	Zn	0.438078	0.180232	0.998413
	Zn6815	Zn	0.438233	0.325202	0.998432
	C6816	C	0.481716	0.752340	0.921396
	C6817	C	0.418282	0.752797	0.946589
	C6818	C	0.419204	0.752805	0.956260
	C6819	C	0.418888	0.690631	0.960773
	C6820	C	0.418629	0.814870	0.960809
	C6821	C	0.418338	0.252436	0.946604
	C6822	C	0.419084	0.252635	0.956259
	C6823	C	0.418716	0.190630	0.960797
	C6824	C	0.418670	0.314788	0.960757
	C6825	C	0.417537	0.752763	0.917629
	C6826	C	0.422553	0.752965	0.908349
	C6827	C	0.424592	0.814808	0.903957
	C6828	C	0.424616	0.691052	0.903964
	C6829	C	0.417654	0.252110	0.917648
	C6830	C	0.422537	0.252409	0.908350
	C6831	C	0.424582	0.314516	0.904002
	C6832	C	0.424495	0.190625	0.903934
	C6833	C	0.497358	0.042856	0.935175
	C6834	C	0.497366	0.961858	0.935191
	C6835	C	0.403935	0.042776	0.933459
	C6836	C	0.403902	0.961960	0.933489
	C6837	C	0.401209	0.042711	0.929622
	C6838	C	0.401231	0.961959	0.929622
	C6839	C	0.403453	0.461853	0.931613
	C6840	C	0.498425	0.462176	0.939539
	C6841	C	0.495178	0.462338	0.933104
	C6842	C	0.403529	0.542916	0.931609
	C6843	C	0.495192	0.542925	0.933102
	C6844	C	0.498415	0.543119	0.939533
	C6845	C	0.480290	0.752146	0.949569
	C6846	C	0.480246	0.253002	0.949529
	C6847	C	0.475178	0.752447	0.958855
	C6848	C	0.473327	0.690578	0.963308
	C6849	C	0.473337	0.814474	0.963303
	C6850	C	0.475224	0.252829	0.958821
	C6851	C	0.473442	0.190739	0.963238
	C6852	C	0.473353	0.314835	0.963264
	C6853	C	0.481618	0.253059	0.921429
	C6854	C	0.480810	0.753056	0.884141
	C6855	C	0.438582	0.752469	0.882031
	C6856	C	0.418972	0.752192	0.983892
	C6857	C	0.480563	0.690551	0.907193
	C6858	C	0.480656	0.814697	0.907216
	C6859	C	0.481640	0.752937	0.893799
	C6860	C	0.431517	0.752713	0.891029
	C6861	C	0.429109	0.690792	0.895383
	C6862	C	0.481156	0.690745	0.898314
	C6863	C	0.481239	0.814891	0.898338
	C6864	C	0.429083	0.814678	0.895376
	C6865	C	0.480305	0.752556	0.911744
	C6866	C	0.461188	0.752581	0.985524
	C6867	C	0.469427	0.690623	0.971963
	C6868	C	0.469418	0.814501	0.971953
	C6869	C	0.467403	0.752591	0.976377
	C6870	C	0.438325	0.462254	0.997271
	C6871	C	0.463595	0.462154	0.868651
	C6872	C	0.435687	0.462214	0.999020
	C6873	C	0.438274	0.543188	0.997261
	C6874	C	0.435657	0.543300	0.999020
	C6875	C	0.463617	0.543017	0.868661
	C6876	C	0.461239	0.252587	0.985465
	C6877	C	0.469554	0.190551	0.971893
	C6878	C	0.469465	0.314692	0.971923
	C6879	C	0.467437	0.252507	0.976319
	C6880	C	0.456032	0.042802	0.870709
	C6881	C	0.480694	0.252421	0.884165
	C6882	C	0.438640	0.252907	0.882074
	C6883	C	0.419003	0.253038	0.983855
	C6884	C	0.480440	0.190549	0.907271
	C6885	C	0.480630	0.314978	0.907231
	C6886	C	0.481521	0.252471	0.893830
	C6887	C	0.431501	0.252864	0.891043
	C6888	C	0.417705	0.752381	0.974215
	C6889	C	0.417960	0.814687	0.969689
	C6890	C	0.418227	0.690348	0.969658
	C6891	C	0.417716	0.253022	0.974193
	C6892	C	0.418042	0.314985	0.969635
	C6893	C	0.418087	0.190875	0.969676
	C6894	C	0.429025	0.190835	0.895360
	C6895	C	0.481028	0.190398	0.898391
	C6896	C	0.481235	0.314700	0.898350
	C6897	C	0.429079	0.314741	0.895424
	C6898	C	0.480194	0.252864	0.911771
	C6899	C	0.440233	0.042951	1.003104
	C6900	C	0.462995	0.042903	0.866106
	C6901	C	0.456048	0.962103	0.870680
	C6902	C	0.440241	0.962319	1.003111
	C6903	C	0.463015	0.962045	0.866086
	N6904	N	0.400047	0.069758	0.931854
	N6905	N	0.400024	0.935233	0.931846
	N6906	N	0.400142	0.435042	0.931835
	N6907	N	0.400234	0.569535	0.931832
	N6908	N	0.438205	0.435350	0.998480
	N6909	N	0.438117	0.569925	0.998474
	N6910	N	0.437998	0.069917	0.998438
	N6911	N	0.438020	0.935392	0.998475
	O6912	O	0.584611	0.694889	0.055532
	O6913	O	0.584654	0.811903	0.055553
	O6914	O	0.519093	0.694354	0.073268
	O6915	O	0.518873	0.811007	0.073310
	O6916	O	0.518751	0.194508	0.073333
	O6917	O	0.519057	0.311387	0.073292
	O6918	O	0.518985	0.693843	0.052374
	O6919	O	0.519098	0.810656	0.052423
	O6920	O	0.519249	0.194615	0.052458
	O6921	O	0.518939	0.311368	0.052393
	O6922	O	0.586496	0.695361	0.077177
	O6923	O	0.586708	0.811850	0.077226
	O6924	O	0.586714	0.194365	0.077191
	O6925	O	0.586441	0.311009	0.077152
	O6926	O	0.584648	0.194106	0.055540
	O6927	O	0.584745	0.310912	0.055505
	O6928	O	0.581697	0.694175	0.010806
	O6929	O	0.543652	0.694566	0.009480
	O6930	O	0.559739	0.694558	0.119621
	O6931	O	0.559709	0.811354	0.119625
	O6932	O	0.521888	0.693818	0.118026
	O6933	O	0.521894	0.810836	0.118052
	O6934	O	0.543905	0.811384	0.009563
	O6935	O	0.581606	0.810965	0.010785
	O6936	O	0.581542	0.194570	0.010777
	O6937	O	0.543563	0.194245	0.009451
	O6938	O	0.559838	0.194178	0.119693
	O6939	O	0.559761	0.310923	0.119648
	O6940	O	0.521828	0.195264	0.118074
	O6941	O	0.522044	0.312204	0.118024
	O6942	O	0.543532	0.310852	0.009488
	O6943	O	0.581676	0.311232	0.010716
	H6944	H	0.521517	0.642767	0.087649
	H6945	H	0.521374	0.862672	0.087678
	H6946	H	0.521262	0.143311	0.087682
	H6947	H	0.521446	0.363353	0.087674
	H6948	H	0.527534	0.862137	0.038735
	H6949	H	0.526495	0.642720	0.038548
	H6950	H	0.526427	0.362353	0.038545
	H6951	H	0.527334	0.142999	0.038690
	H6952	H	0.611169	0.064522	0.063135
	H6953	H	0.601735	0.064090	0.061203
	H6954	H	0.601762	0.941080	0.061238
	H6955	H	0.611199	0.941020	0.063220
	H6956	H	0.612935	0.064433	0.069262
	H6957	H	0.612853	0.940889	0.069320
	H6958	H	0.503145	0.064907	0.062707
	H6959	H	0.503105	0.941331	0.062725
	H6960	H	0.502746	0.064958	0.061913
	H6961	H	0.502732	0.941460	0.061939
	H6962	H	0.500286	0.064328	0.061480
	H6963	H	0.500396	0.941082	0.061498
	H6964	H	0.513209	0.440851	0.060248
	H6965	H	0.504539	0.441114	0.056868
	H6966	H	0.510489	0.441248	0.066848
	H6967	H	0.612167	0.441483	0.064861
	H6968	H	0.609574	0.441249	0.070299
	H6969	H	0.600668	0.441332	0.071471
	H6970	H	0.504575	0.564390	0.056882
	H6971	H	0.513261	0.564832	0.060251
	H6972	H	0.600651	0.564736	0.071472
	H6973	H	0.609475	0.564419	0.070288
	H6974	H	0.612062	0.564558	0.064817
	H6975	H	0.510457	0.564691	0.066922
	H6976	H	0.578894	0.643953	0.090948
	H6977	H	0.579127	0.862922	0.090979
	H6978	H	0.579520	0.142999	0.091021
	H6979	H	0.579080	0.361703	0.090948
	H6980	H	0.533772	0.643175	0.022977
	H6981	H	0.583924	0.643106	0.025209
	H6982	H	0.584450	0.862887	0.025130
	H6983	H	0.534763	0.862468	0.023174
	H6984	H	0.583140	0.643462	0.041217
	H6985	H	0.583677	0.863371	0.041156
	H6986	H	0.570440	0.643829	0.106365
	H6987	H	0.570714	0.862807	0.106418
	H6988	H	0.563101	0.441363	-0.003337
	H6989	H	0.542032	0.441575	0.132291
	H6990	H	0.570444	0.440847	-0.001171
	H6991	H	0.570313	0.440910	0.001588
	H6992	H	0.544276	0.441560	0.126573
	H6993	H	0.546979	0.441953	0.129209
	H6994	H	0.541981	0.564772	0.132316
	H6995	H	0.563109	0.564330	-0.003350
	H6996	H	0.547121	0.564832	0.129207
	H6997	H	0.544265	0.564282	0.126549
	H6998	H	0.570414	0.565133	0.001598
	H6999	H	0.570638	0.564609	-0.001214
	H7000	H	0.571124	0.142853	0.106452
	H7001	H	0.570688	0.361822	0.106377
	H7002	H	0.556152	0.064545	0.002455
	H7003	H	0.563396	0.064626	0.004157
	H7004	H	0.555463	0.064821	-0.002399
	H7005	H	0.520456	0.862560	0.103694
	H7006	H	0.520574	0.642657	0.103637
	H7007	H	0.520583	0.363590	0.103680
	H7008	H	0.520478	0.143441	0.103693
	H7009	H	0.534558	0.142811	0.023089
	H7010	H	0.584149	0.143119	0.025143
	H7011	H	0.583940	0.362709	0.025176
	H7012	H	0.533593	0.362153	0.022982
	H7013	H	0.583263	0.142793	0.041145
	H7014	H	0.583063	0.362481	0.041164
	H7015	H	0.541677	0.064983	0.125893
	H7016	H	0.535290	0.065203	0.125999
	H7017	H	0.531435	0.064390	0.129508
	H7018	H	0.563516	0.941099	0.004167
	H7019	H	0.556164	0.941283	0.002442
	H7020	H	0.555412	0.941415	-0.002367
	H7021	H	0.541752	0.941276	0.125922
	H7022	H	0.535229	0.940778	0.126052
	H7023	H	0.531497	0.941128	0.129506
	Zn7024	Zn	0.500840	0.680357	0.062461
	Zn7025	Zn	0.500938	0.825217	0.062479
	Zn7026	Zn	0.500923	0.180546	0.062495
	Zn7027	Zn	0.500949	0.325531	0.062432
	Zn7028	Zn	0.539365	0.680355	0.129044
	Zn7029	Zn	0.539317	0.825842	0.129049
	Zn7030	Zn	0.539192	0.180173	0.129034
	Zn7031	Zn	0.539313	0.325843	0.129063
	C7032	C	0.583714	0.753437	0.051814
	C7033	C	0.520216	0.752619	0.077031
	C7034	C	0.521573	0.752775	0.086691
	C7035	C	0.521282	0.690521	0.091207
	C7036	C	0.521180	0.814952	0.091233
	C7037	C	0.520125	0.253027	0.077043
	C7038	C	0.521497	0.253315	0.086708
	C7039	C	0.521177	0.191167	0.091252
	C7040	C	0.521247	0.315612	0.091254
	C7041	C	0.521566	0.752296	0.048880
	C7042	C	0.526784	0.752379	0.039598
	C7043	C	0.528873	0.814632	0.035229
	C7044	C	0.528319	0.690412	0.035115
	C7045	C	0.521542	0.252934	0.048882
	C7046	C	0.526726	0.252665	0.039583
	C7047	C	0.528237	0.314644	0.035106
	C7048	C	0.528747	0.190590	0.035170
	C7049	C	0.605308	0.043225	0.063331
	C7050	C	0.605279	0.962367	0.063356
	C7051	C	0.502458	0.043436	0.062348
	C7052	C	0.502446	0.962483	0.062351
	C7053	C	0.500021	0.043153	0.061932
	C7054	C	0.500027	0.962397	0.061933
	C7055	C	0.506819	0.462441	0.059595
	C7056	C	0.606770	0.462541	0.064220
	C7057	C	0.604200	0.462622	0.069761
	C7058	C	0.506819	0.543430	0.059609
	C7059	C	0.604190	0.543442	0.069758
	C7060	C	0.606742	0.543444	0.064214
	C7061	C	0.584456	0.753556	0.080773
	C7062	C	0.584498	0.252699	0.080748
	C7063	C	0.579383	0.753523	0.090034
	C7064	C	0.577199	0.691557	0.094401
	C7065	C	0.577321	0.815413	0.094425
	C7066	C	0.579471	0.252460	0.090020
	C7067	C	0.577586	0.190503	0.094439
	C7068	C	0.577321	0.314261	0.094400
	C7069	C	0.583716	0.252397	0.051776
	C7070	C	0.582863	0.752635	0.014520
	C7071	C	0.540776	0.752914	0.012952
	C7072	C	0.520986	0.752377	0.114299
	C7073	C	0.583277	0.691178	0.037634
	C7074	C	0.583560	0.815559	0.037596
	C7075	C	0.584204	0.752901	0.024193
	C7076	C	0.534589	0.752819	0.022108
	C7077	C	0.532254	0.690665	0.026467
	C7078	C	0.583825	0.690894	0.028749
	C7079	C	0.584117	0.815269	0.028708
	C7080	C	0.532849	0.814799	0.026581
	C7081	C	0.582894	0.753477	0.042138
	C7082	C	0.563092	0.753013	0.116287
	C7083	C	0.572608	0.691386	0.102966
	C7084	C	0.572743	0.815346	0.102991
	C7085	C	0.570236	0.753291	0.107317
	C7086	C	0.538853	0.462832	0.131353
	C7087	C	0.568623	0.462460	0.000145
	C7088	C	0.543903	0.462856	0.128205
	C7089	C	0.538860	0.543676	0.131348
	C7090	C	0.543954	0.543190	0.128199
	C7091	C	0.568683	0.543466	0.000136
	C7092	C	0.563231	0.252528	0.116333
	C7093	C	0.573027	0.190435	0.103017
	C7094	C	0.572780	0.314295	0.102971
	C7095	C	0.570443	0.252414	0.107347
	C7096	C	0.560847	0.043460	0.002417
	C7097	C	0.582772	0.253020	0.014482
	C7098	C	0.540569	0.252483	0.012913
	C7099	C	0.521020	0.253636	0.114321
	C7100	C	0.583338	0.190461	0.037579
	C7101	C	0.583211	0.314690	0.037591
	C7102	C	0.584166	0.252949	0.024151
	C7103	C	0.534433	0.252450	0.022065
	C7104	C	0.520108	0.752597	0.104627
	C7105	C	0.520539	0.814844	0.100113
	C7106	C	0.520611	0.690478	0.100083
	C7107	C	0.520179	0.253512	0.104661
	C7108	C	0.520699	0.315674	0.100138
	C7109	C	0.520636	0.191277	0.100138
	C7110	C	0.532673	0.190446	0.026515
	C7111	C	0.583937	0.190805	0.028696
	C7112	C	0.583799	0.314914	0.028710
	C7113	C	0.532125	0.314502	0.026455
	C7114	C	0.582785	0.252481	0.042112
	C7115	C	0.538618	0.043608	0.126768
	C7116	C	0.560113	0.043461	-0.002464
	C7117	C	0.560872	0.962627	0.002429
	C7118	C	0.538626	0.962355	0.126781
	C7119	C	0.560129	0.962444	-0.002450
	N7120	N	0.501029	0.070111	0.062471
	N7121	N	0.501014	0.935530	0.062461
	N7122	N	0.501091	0.435564	0.062487
	N7123	N	0.501063	0.570071	0.062488
	N7124	N	0.539244	0.435850	0.129094
	N7125	N	0.539276	0.570331	0.129074
	N7126	N	0.539022	0.070215	0.129025
	N7127	N	0.539100	0.935741	0.129040
	O7128	O	0.632576	0.694725	0.171799
	O7129	O	0.632501	0.810927	0.171846
	O7130	O	0.500641	0.695473	0.200545
	O7131	O	0.500347	0.811623	0.200657
	O7132	O	0.500507	0.194250	0.200606
	O7133	O	0.500602	0.310511	0.200592
	O7134	O	0.498138	0.694967	0.182280
	O7135	O	0.497866	0.811707	0.182204
	O7136	O	0.498026	0.194100	0.182243
	O7137	O	0.498255	0.310815	0.182307
	O7138	O	0.634878	0.694326	0.190164
	O7139	O	0.634727	0.810972	0.190160
	O7140	O	0.634709	0.194424	0.190155
	O7141	O	0.634688	0.311124	0.190132
	O7142	O	0.632364	0.194475	0.171839
	O7143	O	0.632384	0.310828	0.171827
	O7144	O	0.562373	0.694719	0.138065
	O7145	O	0.523863	0.694853	0.139687
	O7146	O	0.608901	0.694426	0.232704
	O7147	O	0.609098	0.810971	0.232746
	O7148	O	0.570649	0.694561	0.234325
	O7149	O	0.570553	0.810917	0.234415
	O7150	O	0.523871	0.811285	0.139674
	O7151	O	0.562418	0.810952	0.138008
	O7152	O	0.562354	0.194286	0.138000
	O7153	O	0.523870	0.194881	0.139719
	O7154	O	0.608909	0.194094	0.232706
	O7155	O	0.609058	0.310650	0.232734
	O7156	O	0.570456	0.194667	0.234474
	O7157	O	0.570596	0.310913	0.234382
	O7158	O	0.524032	0.311371	0.139766
	O7159	O	0.562385	0.310649	0.138006
	H7160	H	0.523227	0.645251	0.211284
	H7161	H	0.522690	0.861763	0.211523
	H7162	H	0.522719	0.144252	0.211545
	H7163	H	0.523356	0.360694	0.211290
	H7164	H	0.509003	0.862631	0.168967
	H7165	H	0.508719	0.643714	0.168984
	H7166	H	0.509038	0.361778	0.169061
	H7167	H	0.508881	0.143026	0.168988
	H7168	H	0.657894	0.064400	0.180056
	H7169	H	0.655644	0.064837	0.179485
	H7170	H	0.655648	0.941178	0.179478
	H7171	H	0.657821	0.941484	0.180027
	H7172	H	0.658049	0.064323	0.181577
	H7173	H	0.658032	0.941434	0.181593
	H7174	H	0.470665	0.064528	0.193552
	H7175	H	0.470517	0.940821	0.193495
	H7176	H	0.476541	0.064540	0.195129
	H7177	H	0.476492	0.941191	0.195100
	H7178	H	0.484706	0.064563	0.193317
	H7179	H	0.484618	0.941033	0.193280
	H7180	H	0.464885	0.441165	0.189356
	H7181	H	0.465875	0.440793	0.194274
	H7182	H	0.477578	0.440389	0.185763
	H7183	H	0.654884	0.441525	0.182885
	H7184	H	0.650878	0.440795	0.181200
	H7185	H	0.651723	0.440937	0.179443
	H7186	H	0.465884	0.564387	0.194242
	H7187	H	0.464905	0.563913	0.189341
	H7188	H	0.651702	0.564094	0.179374
	H7189	H	0.650761	0.564429	0.181145
	H7190	H	0.654911	0.564536	0.182875
	H7191	H	0.477577	0.563857	0.185757
	H7192	H	0.623913	0.643279	0.203420
	H7193	H	0.624088	0.862178	0.203434
	H7194	H	0.623989	0.143226	0.203394
	H7195	H	0.624161	0.362188	0.203460
	H7196	H	0.516692	0.643584	0.153524
	H7197	H	0.585032	0.644944	0.148763
	H7198	H	0.585106	0.861143	0.148785
	H7199	H	0.516999	0.862298	0.153496
	H7200	H	0.609938	0.644957	0.160989
	H7201	H	0.609949	0.860781	0.161024
	H7202	H	0.615935	0.643536	0.218896
	H7203	H	0.616085	0.862383	0.218889
	H7204	H	0.535505	0.441381	0.132014
	H7205	H	0.592410	0.441013	0.243499
	H7206	H	0.531599	0.440728	0.128399
	H7207	H	0.535357	0.440962	0.126129
	H7208	H	0.594661	0.440788	0.243908
	H7209	H	0.593474	0.441088	0.243977
	H7210	H	0.592355	0.564212	0.243517
	H7211	H	0.535547	0.564872	0.132001
	H7212	H	0.593465	0.564409	0.243959
	H7213	H	0.594613	0.564405	0.243840
	H7214	H	0.535322	0.565046	0.126116
	H7215	H	0.531685	0.564957	0.128387
	H7216	H	0.615967	0.143185	0.218860
	H7217	H	0.616115	0.361707	0.218927
	H7218	H	0.544213	0.064845	0.131704
	H7219	H	0.546877	0.064129	0.129193
	H7220	H	0.535233	0.064802	0.131870
	H7221	H	0.547560	0.861443	0.223764
	H7222	H	0.548087	0.644936	0.223535
	H7223	H	0.548159	0.360986	0.223541
	H7224	H	0.547538	0.144571	0.223807
	H7225	H	0.516984	0.143235	0.153534
	H7226	H	0.585086	0.144448	0.148776
	H7227	H	0.584993	0.360495	0.148718
	H7228	H	0.517019	0.361984	0.153576
	H7229	H	0.609942	0.144640	0.161026
	H7230	H	0.609880	0.360624	0.160957
	H7231	H	0.606843	0.064383	0.247462
	H7232	H	0.608837	0.064453	0.241811
	H7233	H	0.594704	0.064590	0.236542
	H7234	H	0.546947	0.941713	0.129171
	H7235	H	0.544256	0.941360	0.131735
	H7236	H	0.535307	0.941369	0.131870
	H7237	H	0.606770	0.941021	0.247474
	H7238	H	0.608739	0.940785	0.241771
	H7239	H	0.594658	0.941058	0.236564
	Zn7240	Zn	0.477557	0.679850	0.191590
	Zn7241	Zn	0.477315	0.825397	0.191621
	Zn7242	Zn	0.477457	0.180193	0.191609
	Zn7243	Zn	0.477553	0.325364	0.191617
	Zn7244	Zn	0.593668	0.679882	0.243393
	Zn7245	Zn	0.593578	0.825212	0.243370
	Zn7246	Zn	0.593648	0.179932	0.243422
	Zn7247	Zn	0.593661	0.325349	0.243402
	C7248	C	0.626540	0.752817	0.169066
	C7249	C	0.506466	0.753525	0.203365
	C7250	C	0.521630	0.753473	0.210651
	C7251	C	0.528710	0.692109	0.214053
	C7252	C	0.528423	0.814781	0.214188
	C7253	C	0.506522	0.252371	0.203365
	C7254	C	0.521664	0.252477	0.210653
	C7255	C	0.528432	0.191284	0.214217
	C7256	C	0.528786	0.313735	0.214061
	C7257	C	0.501394	0.753305	0.178911
	C7258	C	0.508467	0.753217	0.169913
	C7259	C	0.510873	0.815087	0.165542
	C7260	C	0.510737	0.691189	0.165561
	C7261	C	0.501419	0.252470	0.178916
	C7262	C	0.508385	0.252419	0.169912
	C7263	C	0.510818	0.314390	0.165591
	C7264	C	0.510752	0.190514	0.165555
	C7265	C	0.656495	0.043367	0.180034
	C7266	C	0.656497	0.962485	0.180035
	C7267	C	0.474543	0.043305	0.193616
	C7268	C	0.474472	0.962290	0.193593
	C7269	C	0.482738	0.043280	0.191751
	C7270	C	0.482696	0.962468	0.191737
	C7271	C	0.468540	0.462031	0.191745
	C7272	C	0.656578	0.462731	0.182178
	C7273	C	0.652478	0.462310	0.180419
	C7274	C	0.468529	0.542781	0.191741
	C7275	C	0.652482	0.543230	0.180412
	C7276	C	0.656569	0.543227	0.182175
	C7277	C	0.631458	0.752591	0.193506
	C7278	C	0.631315	0.252815	0.193472
	C7279	C	0.624497	0.752712	0.202515
	C7280	C	0.622086	0.690784	0.206856
	C7281	C	0.622215	0.814704	0.206870
	C7282	C	0.624381	0.252826	0.202463
	C7283	C	0.622082	0.190777	0.206818
	C7284	C	0.622194	0.314595	0.206855
	C7285	C	0.626378	0.252666	0.169089
	C7286	C	0.568411	0.752902	0.140782
	C7287	C	0.521862	0.753082	0.143268
	C7288	C	0.564589	0.752868	0.231627
	C7289	C	0.604422	0.691770	0.158262
	C7290	C	0.604442	0.813977	0.158285
	C7291	C	0.583659	0.752955	0.148013
	C7292	C	0.517193	0.753049	0.152571
	C7293	C	0.515119	0.691144	0.156973
	C7294	C	0.590650	0.691841	0.151468
	C7295	C	0.590669	0.814193	0.151482
	C7296	C	0.515261	0.814974	0.156954
	C7297	C	0.611430	0.752781	0.161751
	C7298	C	0.611018	0.752738	0.229144
	C7299	C	0.617675	0.690883	0.215445
	C7300	C	0.617819	0.814791	0.215455
	C7301	C	0.615827	0.752837	0.219855
	C7302	C	0.592892	0.462387	0.243284
	C7303	C	0.534949	0.462268	0.127745
	C7304	C	0.594020	0.462114	0.243790
	C7305	C	0.592886	0.543103	0.243285
	C7306	C	0.593988	0.542968	0.243783
	C7307	C	0.534955	0.543584	0.127744
	C7308	C	0.610934	0.252398	0.229116
	C7309	C	0.617746	0.190621	0.215415
	C7310	C	0.617856	0.314416	0.215448
	C7311	C	0.615790	0.252428	0.219818
	C7312	C	0.543817	0.043203	0.130067
	C7313	C	0.568371	0.252428	0.140752
	C7314	C	0.521942	0.253030	0.143323
	C7315	C	0.564499	0.252778	0.231687
	C7316	C	0.604336	0.191502	0.158313
	C7317	C	0.604301	0.313729	0.158272
	C7318	C	0.583555	0.252464	0.148028
	C7319	C	0.517088	0.252646	0.152595
	C7320	C	0.549396	0.753133	0.224369
	C7321	C	0.542167	0.814523	0.220991
	C7322	C	0.542465	0.692030	0.220857
	C7323	C	0.549305	0.252838	0.224425
	C7324	C	0.542523	0.313894	0.220867
	C7325	C	0.542163	0.191501	0.221026
	C7326	C	0.515151	0.190679	0.156979
	C7327	C	0.590605	0.191377	0.151501
	C7328	C	0.590555	0.313632	0.151467
	C7329	C	0.515203	0.314490	0.157009
	C7330	C	0.611228	0.252620	0.161804
	C7331	C	0.604169	0.043085	0.244312
	C7332	C	0.534832	0.043332	0.130255
	C7333	C	0.543846	0.962600	0.130069
	C7334	C	0.604124	0.962108	0.244297
	C7335	C	0.534880	0.962827	0.130269
	N7336	N	0.477306	0.069903	0.191605
	N7337	N	0.477191	0.935380	0.191589
	N7338	N	0.477414	0.435442	0.191595
	N7339	N	0.477376	0.569932	0.191604
	N7340	N	0.593766	0.435357	0.243401
	N7341	N	0.593750	0.569854	0.243397
	N7342	N	0.593807	0.069843	0.243406
	N7343	N	0.593790	0.935335	0.243393
	O7344	O	0.613740	0.695413	0.299180
	O7345	O	0.613947	0.812202	0.299188
	O7346	O	0.548001	0.694527	0.316870
	O7347	O	0.547907	0.811320	0.316893
	O7348	O	0.547989	0.194305	0.316905
	O7349	O	0.548082	0.311214	0.316885
	O7350	O	0.546346	0.694586	0.295185
	O7351	O	0.546329	0.811020	0.295191
	O7352	O	0.546383	0.194728	0.295222
	O7353	O	0.546309	0.311193	0.295198
	O7354	O	0.613252	0.695179	0.319822
	O7355	O	0.613549	0.811658	0.319890
	O7356	O	0.613621	0.194436	0.319875
	O7357	O	0.613085	0.310797	0.319804
	O7358	O	0.614014	0.193950	0.299175
	O7359	O	0.613841	0.310767	0.299212
	O7360	O	0.610818	0.694631	0.254454
	O7361	O	0.573082	0.694157	0.252744
	O7362	O	0.589115	0.694356	0.362818
	O7363	O	0.589311	0.811045	0.362893
	O7364	O	0.551170	0.695159	0.361629
	O7365	O	0.551441	0.811835	0.361623
	O7366	O	0.573072	0.810856	0.252759
	O7367	O	0.610892	0.811360	0.254452
	O7368	O	0.610829	0.193847	0.254455
	O7369	O	0.572942	0.194883	0.252719
	O7370	O	0.589458	0.195008	0.362882
	O7371	O	0.589160	0.311659	0.362809
	O7372	O	0.551459	0.194581	0.361654
	O7373	O	0.551186	0.311298	0.361619
	O7374	O	0.572956	0.311685	0.252712
	O7375	O	0.610769	0.310570	0.254457
	H7376	H	0.549304	0.643330	0.331303
	H7377	H	0.549634	0.862734	0.331251
	H7378	H	0.549613	0.142672	0.331286
	H7379	H	0.549449	0.362435	0.331278
	H7380	H	0.553288	0.862046	0.281359
	H7381	H	0.553863	0.643304	0.281446
	H7382	H	0.553607	0.362350	0.281386
	H7383	H	0.553612	0.143587	0.281406
	H7384	H	0.630483	0.064777	0.310804
	H7385	H	0.632731	0.064949	0.311157
	H7386	H	0.632748	0.940924	0.311144
	H7387	H	0.630665	0.941539	0.310814
	H7388	H	0.629951	0.064498	0.309451
	H7389	H	0.629896	0.941540	0.309478
	H7390	H	0.534510	0.064925	0.302256
	H7391	H	0.534520	0.940311	0.302240
	H7392	H	0.526864	0.064344	0.302237
	H7393	H	0.526950	0.941244	0.302235
	H7394	H	0.521939	0.064299	0.306077
	H7395	H	0.521929	0.941260	0.306051
	H7396	H	0.530200	0.441050	0.307670
	H7397	H	0.533722	0.441580	0.307329
	H7398	H	0.526560	0.441322	0.306118
	H7399	H	0.619076	0.440721	0.306015
	H7400	H	0.635538	0.440996	0.303349
	H7401	H	0.645867	0.441557	0.307059
	H7402	H	0.533722	0.565037	0.307306
	H7403	H	0.530254	0.564994	0.307633
	H7404	H	0.645838	0.564258	0.307060
	H7405	H	0.635569	0.564704	0.303339
	H7406	H	0.619049	0.564888	0.305987
	H7407	H	0.526613	0.564575	0.306152
	H7408	H	0.605142	0.643498	0.333608
	H7409	H	0.605590	0.863164	0.333713
	H7410	H	0.605814	0.142968	0.333708
	H7411	H	0.604663	0.362499	0.333511
	H7412	H	0.562313	0.642787	0.266041
	H7413	H	0.611888	0.643487	0.268842
	H7414	H	0.612314	0.863386	0.268828
	H7415	H	0.561789	0.861866	0.265950
	H7416	H	0.611062	0.643823	0.284835
	H7417	H	0.611497	0.863656	0.284825
	H7418	H	0.598194	0.643363	0.349185
	H7419	H	0.598557	0.862857	0.349301
	H7420	H	0.592635	0.440933	0.242980
	H7421	H	0.563128	0.441742	0.369932
	H7422	H	0.594186	0.440973	0.242820
	H7423	H	0.594909	0.440716	0.243191
	H7424	H	0.568028	0.441096	0.375853
	H7425	H	0.562320	0.441257	0.374023
	H7426	H	0.563114	0.564611	0.369926
	H7427	H	0.592691	0.564332	0.242977
	H7428	H	0.562304	0.565416	0.374044
	H7429	H	0.568000	0.565023	0.375923
	H7430	H	0.594860	0.564184	0.243188
	H7431	H	0.594233	0.564518	0.242842
	H7432	H	0.598881	0.143370	0.349291
	H7433	H	0.597719	0.362905	0.349111
	H7434	H	0.579677	0.064119	0.246188
	H7435	H	0.589967	0.063990	0.250069
	H7436	H	0.582447	0.064493	0.238464
	H7437	H	0.548872	0.862956	0.347262
	H7438	H	0.548579	0.643526	0.347278
	H7439	H	0.548668	0.362414	0.347284
	H7440	H	0.548845	0.142581	0.347274
	H7441	H	0.561848	0.143676	0.265957
	H7442	H	0.612117	0.142346	0.268834
	H7443	H	0.612166	0.361928	0.268848
	H7444	H	0.561870	0.362579	0.265956
	H7445	H	0.611379	0.142496	0.284826
	H7446	H	0.611274	0.361899	0.284844
	H7447	H	0.570638	0.064404	0.366675
	H7448	H	0.560163	0.065563	0.368189
	H7449	H	0.557609	0.065277	0.374714
	H7450	H	0.589979	0.940869	0.250023
	H7451	H	0.579579	0.940852	0.246190
	H7452	H	0.582390	0.940953	0.238468
	H7453	H	0.570578	0.941876	0.366700
	H7454	H	0.560156	0.941581	0.368156
	H7455	H	0.557474	0.941518	0.374698
	Zn7456	Zn	0.530861	0.680419	0.305827
	Zn7457	Zn	0.530914	0.825299	0.305835
	Zn7458	Zn	0.530821	0.180521	0.305842
	Zn7459	Zn	0.530821	0.325648	0.305821
	Zn7460	Zn	0.569420	0.681003	0.372415
	Zn7461	Zn	0.569501	0.825505	0.372426
	Zn7462	Zn	0.569578	0.181144	0.372439
	Zn7463	Zn	0.569407	0.325463	0.372378
	C7464	C	0.612575	0.753843	0.295465
	C7465	C	0.548877	0.752870	0.320624
	C7466	C	0.549788	0.753040	0.330271
	C7467	C	0.549287	0.691207	0.334830
	C7468	C	0.549456	0.815027	0.334813
	C7469	C	0.548934	0.252772	0.320635
	C7470	C	0.549830	0.252573	0.330308
	C7471	C	0.549462	0.190413	0.334849
	C7472	C	0.549389	0.314694	0.334843
	C7473	C	0.548439	0.752809	0.291615
	C7474	C	0.553449	0.752625	0.282343
	C7475	C	0.555312	0.814542	0.277943
	C7476	C	0.555613	0.690612	0.277986
	C7477	C	0.548400	0.252942	0.291627
	C7478	C	0.553384	0.252995	0.282350
	C7479	C	0.555413	0.314931	0.277949
	C7480	C	0.555371	0.191080	0.277952
	C7481	C	0.631853	0.043400	0.310713
	C7482	C	0.631875	0.962509	0.310717
	C7483	C	0.530828	0.043350	0.303187
	C7484	C	0.530857	0.962334	0.303179
	C7485	C	0.525805	0.043275	0.307102
	C7486	C	0.525835	0.962454	0.307100
	C7487	C	0.531729	0.462591	0.307063
	C7488	C	0.621844	0.462390	0.309104
	C7489	C	0.638400	0.462638	0.306438
	C7490	C	0.531743	0.543614	0.307055
	C7491	C	0.638420	0.543316	0.306441
	C7492	C	0.621797	0.543428	0.309080
	C7493	C	0.610840	0.753386	0.323396
	C7494	C	0.610797	0.252611	0.323383
	C7495	C	0.605591	0.753358	0.332661
	C7496	C	0.603702	0.691284	0.337083
	C7497	C	0.603920	0.815288	0.337141
	C7498	C	0.605547	0.252781	0.332640
	C7499	C	0.604050	0.190811	0.337126
	C7500	C	0.603399	0.314861	0.337025
	C7501	C	0.612691	0.252401	0.295472
	C7502	C	0.611706	0.752986	0.258210
	C7503	C	0.569702	0.752463	0.256085
	C7504	C	0.550017	0.753478	0.357893
	C7505	C	0.611236	0.691551	0.281277
	C7506	C	0.611494	0.815794	0.281277
	C7507	C	0.612482	0.753275	0.267867
	C7508	C	0.562554	0.752389	0.265050
	C7509	C	0.560201	0.690478	0.269425
	C7510	C	0.611887	0.691326	0.272398
	C7511	C	0.612109	0.815636	0.272393
	C7512	C	0.559889	0.814367	0.269378
	C7513	C	0.611074	0.753666	0.285812
	C7514	C	0.592133	0.752778	0.359392
	C7515	C	0.599938	0.691117	0.345747
	C7516	C	0.600154	0.815207	0.345809
	C7517	C	0.598113	0.753087	0.350214
	C7518	C	0.567089	0.463029	0.370161
	C7519	C	0.594396	0.462105	0.243115
	C7520	C	0.566282	0.462609	0.374288
	C7521	C	0.567094	0.543527	0.370176
	C7522	C	0.566289	0.543914	0.374304
	C7523	C	0.594375	0.543094	0.243113
	C7524	C	0.592192	0.253304	0.359380
	C7525	C	0.600291	0.191061	0.345798
	C7526	C	0.599649	0.315065	0.345697
	C7527	C	0.598081	0.253185	0.350186
	C7528	C	0.587219	0.043025	0.246888
	C7529	C	0.611733	0.252208	0.258206
	C7530	C	0.569525	0.253261	0.256044
	C7531	C	0.550009	0.252805	0.357915
	C7532	C	0.611453	0.190160	0.281263
	C7533	C	0.611448	0.314320	0.281285
	C7534	C	0.612523	0.252160	0.267868
	C7535	C	0.562352	0.253141	0.265022
	C7536	C	0.548533	0.753378	0.348227
	C7537	C	0.548901	0.815307	0.343696
	C7538	C	0.548743	0.691259	0.343709
	C7539	C	0.548527	0.252545	0.348265
	C7540	C	0.548813	0.314638	0.343727
	C7541	C	0.548879	0.190377	0.343731
	C7542	C	0.559899	0.191169	0.269375
	C7543	C	0.612010	0.190083	0.272381
	C7544	C	0.612008	0.314263	0.272405
	C7545	C	0.559939	0.314977	0.269374
	C7546	C	0.611211	0.252274	0.285814
	C7547	C	0.566495	0.043692	0.368758
	C7548	C	0.589963	0.043020	0.239052
	C7549	C	0.587187	0.962163	0.246874
	C7550	C	0.566430	0.963030	0.368750
	C7551	C	0.589906	0.962232	0.239054
	N7552	N	0.531008	0.070179	0.305832
	N7553	N	0.531032	0.935581	0.305833
	N7554	N	0.530911	0.435725	0.305850
	N7555	N	0.530904	0.570212	0.305850
	N7556	N	0.569377	0.435882	0.372383
	N7557	N	0.569412	0.570497	0.372384
	N7558	N	0.569568	0.070663	0.372454
	N7559	N	0.569497	0.936030	0.372437
	O7560	O	0.602652	0.695330	0.427538
	O7561	O	0.603041	0.812195	0.427475
	O7562	O	0.525422	0.694173	0.445562
	O7563	O	0.525745	0.810854	0.445510
	O7564	O	0.525749	0.195260	0.445498
	O7565	O	0.525342	0.311835	0.445574
	O7566	O	0.526634	0.694397	0.425281
	O7567	O	0.526574	0.811180	0.425288
	O7568	O	0.526490	0.195159	0.425305
	O7569	O	0.526662	0.311641	0.425267
	O7570	O	0.601780	0.695336	0.447758
	O7571	O	0.601877	0.811880	0.447756
	O7572	O	0.601804	0.194760	0.447745
	O7573	O	0.601810	0.311347	0.447789
	O7574	O	0.603124	0.194479	0.427429
	O7575	O	0.602697	0.311226	0.427509
	O7576	O	0.588094	0.694630	0.383073
	O7577	O	0.550546	0.695266	0.382239
	O7578	O	0.577895	0.694356	0.490792
	O7579	O	0.577915	0.810909	0.490837
	O7580	O	0.540266	0.694758	0.489974
	O7581	O	0.540528	0.811600	0.489951
	O7582	O	0.550772	0.811914	0.382312
	O7583	O	0.588365	0.811272	0.383010
	O7584	O	0.588422	0.195073	0.383041
	O7585	O	0.550699	0.195169	0.382269
	O7586	O	0.577923	0.195067	0.490832
	O7587	O	0.577926	0.311663	0.490786
	O7588	O	0.540470	0.194309	0.490001
	O7589	O	0.540223	0.310957	0.490032
	O7590	O	0.550734	0.311818	0.382316
	O7591	O	0.588235	0.311596	0.383009
	H7592	H	0.530970	0.643103	0.459795
	H7593	H	0.531530	0.862626	0.459665
	H7594	H	0.531676	0.143608	0.459708
	H7595	H	0.530969	0.362502	0.459824
	H7596	H	0.536051	0.862549	0.411718
	H7597	H	0.535565	0.643062	0.411601
	H7598	H	0.536178	0.362996	0.411695
	H7599	H	0.535711	0.143325	0.411663
	H7600	H	0.624486	0.064865	0.436524
	H7601	H	0.620448	0.064747	0.436066
	H7602	H	0.620595	0.941380	0.436056
	H7603	H	0.624652	0.941317	0.436552
	H7604	H	0.626276	0.064439	0.438915
	H7605	H	0.626156	0.940827	0.438991
	H7606	H	0.504021	0.064933	0.433312
	H7607	H	0.504081	0.941809	0.433361
	H7608	H	0.502521	0.064995	0.434844
	H7609	H	0.502549	0.941584	0.434835
	H7610	H	0.505539	0.064827	0.436788
	H7611	H	0.505666	0.941451	0.436721
	H7612	H	0.514811	0.441194	0.434354
	H7613	H	0.510926	0.441365	0.431834
	H7614	H	0.510855	0.441331	0.437952
	H7615	H	0.621835	0.441595	0.434853
	H7616	H	0.628659	0.441449	0.437376
	H7617	H	0.627714	0.441211	0.440134
	H7618	H	0.510923	0.564862	0.431914
	H7619	H	0.514809	0.564820	0.434435
	H7620	H	0.627670	0.565183	0.440114
	H7621	H	0.628579	0.564858	0.437341
	H7622	H	0.621672	0.564912	0.434832
	H7623	H	0.510873	0.564554	0.438035
	H7624	H	0.592788	0.644057	0.461372
	H7625	H	0.592728	0.863139	0.461440
	H7626	H	0.592798	0.143067	0.461431
	H7627	H	0.592421	0.362488	0.461367
	H7628	H	0.542575	0.643437	0.395994
	H7629	H	0.593479	0.643670	0.397330
	H7630	H	0.594587	0.862962	0.397189
	H7631	H	0.543034	0.862942	0.396155
	H7632	H	0.596807	0.644016	0.413355
	H7633	H	0.598003	0.863182	0.413197
	H7634	H	0.585897	0.643621	0.476992
	H7635	H	0.585782	0.862763	0.477030
	H7636	H	0.569364	0.441665	0.368781
	H7637	H	0.563338	0.441015	0.499319
	H7638	H	0.577198	0.441502	0.371326
	H7639	H	0.576500	0.441516	0.374324
	H7640	H	0.553939	0.441157	0.499518
	H7641	H	0.557428	0.441641	0.498276
	H7642	H	0.563384	0.564415	0.499338
	H7643	H	0.569434	0.564939	0.368817
	H7644	H	0.557535	0.564414	0.498277
	H7645	H	0.553974	0.564936	0.499510
	H7646	H	0.576591	0.564600	0.374329
	H7647	H	0.577148	0.564918	0.371312
	H7648	H	0.585933	0.143290	0.477034
	H7649	H	0.585598	0.362748	0.476963
	H7650	H	0.580338	0.065305	0.375983
	H7651	H	0.582286	0.065096	0.371209
	H7652	H	0.566120	0.064658	0.377977
	H7653	H	0.535090	0.863068	0.475678
	H7654	H	0.534513	0.643515	0.475792
	H7655	H	0.534397	0.362212	0.475796
	H7656	H	0.535165	0.143172	0.475719
	H7657	H	0.542688	0.143559	0.396073
	H7658	H	0.594310	0.143838	0.397208
	H7659	H	0.593450	0.363237	0.397286
	H7660	H	0.543124	0.362946	0.396115
	H7661	H	0.597666	0.143630	0.413195
	H7662	H	0.596801	0.362819	0.413294
	H7663	H	0.552632	0.064974	0.501438
	H7664	H	0.556429	0.064766	0.503369
	H7665	H	0.564085	0.064625	0.502784
	H7666	H	0.582268	0.941478	0.371201
	H7667	H	0.580339	0.941360	0.375967
	H7668	H	0.566120	0.941755	0.378017
	H7669	H	0.552513	0.941537	0.501408
	H7670	H	0.556382	0.941417	0.503346
	H7671	H	0.564085	0.941183	0.502787
	Zn7672	Zn	0.506842	0.680755	0.434859
	Zn7673	Zn	0.507024	0.825604	0.434898
	Zn7674	Zn	0.506973	0.180702	0.434879
	Zn7675	Zn	0.506861	0.325497	0.434839
	Zn7676	Zn	0.558918	0.680580	0.500598
	Zn7677	Zn	0.559037	0.825450	0.500664
	Zn7678	Zn	0.559171	0.180759	0.500690
	Zn7679	Zn	0.558930	0.325390	0.500651
	C7680	C	0.600836	0.753729	0.423849
	C7681	C	0.527636	0.752521	0.449199
	C7682	C	0.531178	0.752800	0.458780
	C7683	C	0.531870	0.690814	0.463333
	C7684	C	0.532174	0.815063	0.463267
	C7685	C	0.527603	0.253489	0.449210
	C7686	C	0.531240	0.253068	0.458787
	C7687	C	0.532332	0.191014	0.463294
	C7688	C	0.531926	0.314833	0.463355
	C7689	C	0.529572	0.752813	0.421831
	C7690	C	0.535538	0.752854	0.412631
	C7691	C	0.537572	0.814925	0.408236
	C7692	C	0.537342	0.690831	0.408164
	C7693	C	0.529557	0.253290	0.421821
	C7694	C	0.535573	0.253180	0.412661
	C7695	C	0.537708	0.315240	0.408245
	C7696	C	0.537436	0.191119	0.408223
	C7697	C	0.622264	0.043364	0.436797
	C7698	C	0.622331	0.962644	0.436820
	C7699	C	0.504261	0.043540	0.434302
	C7700	C	0.504268	0.962742	0.434297
	C7701	C	0.507353	0.043595	0.436227
	C7702	C	0.507394	0.962853	0.436219
	C7703	C	0.511298	0.462683	0.433563
	C7704	C	0.619490	0.462770	0.436050
	C7705	C	0.626391	0.462681	0.438596
	C7706	C	0.511289	0.543721	0.433604
	C7707	C	0.626350	0.543613	0.438575
	C7708	C	0.619432	0.543684	0.436045
	C7709	C	0.598942	0.753620	0.451230
	C7710	C	0.598901	0.252982	0.451239
	C7711	C	0.593015	0.753539	0.460414
	C7712	C	0.591134	0.691553	0.464849
	C7713	C	0.591088	0.815367	0.464877
	C7714	C	0.593025	0.252786	0.460433
	C7715	C	0.591159	0.190832	0.464885
	C7716	C	0.590953	0.314843	0.464849
	C7717	C	0.600859	0.252946	0.423816
	C7718	C	0.590259	0.753045	0.386709
	C7719	C	0.548131	0.753513	0.385809
	C7720	C	0.538431	0.753171	0.486298
	C7721	C	0.596151	0.691583	0.409758
	C7722	C	0.596767	0.815566	0.409680
	C7723	C	0.593853	0.753349	0.396302
	C7724	C	0.542937	0.753273	0.395078
	C7725	C	0.541056	0.691060	0.399484
	C7726	C	0.594440	0.691390	0.400865
	C7727	C	0.595052	0.815413	0.400789
	C7728	C	0.541309	0.815137	0.399568
	C7729	C	0.597196	0.753693	0.414253
	C7730	C	0.580468	0.752700	0.487282
	C7731	C	0.587447	0.691335	0.473526
	C7732	C	0.587378	0.815107	0.473554
	C7733	C	0.585668	0.753037	0.477997
	C7734	C	0.562507	0.462186	0.500386
	C7735	C	0.574885	0.462708	0.372715
	C7736	C	0.556563	0.462584	0.499348
	C7737	C	0.562513	0.543370	0.500389
	C7738	C	0.556587	0.543235	0.499349
	C7739	C	0.574909	0.543414	0.372723
	C7740	C	0.580504	0.253271	0.487281
	C7741	C	0.587439	0.190921	0.473562
	C7742	C	0.587243	0.314944	0.473520
	C7743	C	0.585616	0.252989	0.477985
	C7744	C	0.578214	0.043873	0.373290
	C7745	C	0.590327	0.253450	0.386703
	C7746	C	0.548176	0.253418	0.385819
	C7747	C	0.538327	0.252629	0.486345
	C7748	C	0.596620	0.191247	0.409668
	C7749	C	0.596188	0.315255	0.409717
	C7750	C	0.593772	0.253603	0.396291
	C7751	C	0.543105	0.253264	0.395121
	C7752	C	0.534817	0.753217	0.476712
	C7753	C	0.534047	0.815270	0.472151
	C7754	C	0.533751	0.691057	0.472213
	C7755	C	0.534726	0.252640	0.476756
	C7756	C	0.533710	0.314656	0.472234
	C7757	C	0.534106	0.190806	0.472181
	C7758	C	0.541179	0.191209	0.399552
	C7759	C	0.594849	0.191398	0.400786
	C7760	C	0.594397	0.315572	0.400835
	C7761	C	0.541439	0.315233	0.399574
	C7762	C	0.597247	0.253207	0.414233
	C7763	C	0.555729	0.043445	0.501963
	C7764	C	0.563870	0.043661	0.375324
	C7765	C	0.578187	0.962625	0.373276
	C7766	C	0.555683	0.962649	0.501929
	C7767	C	0.563800	0.962980	0.375319
	N7768	N	0.507026	0.070417	0.434898
	N7769	N	0.507056	0.935853	0.434873
	N7770	N	0.506803	0.435879	0.434818
	N7771	N	0.506825	0.570417	0.434880
	N7772	N	0.558941	0.435595	0.500601
	N7773	N	0.558945	0.570158	0.500614
	N7774	N	0.559130	0.070374	0.500671
	N7775	N	0.559098	0.935784	0.500653
	O7776	O	0.580396	0.694452	0.556172
	O7777	O	0.580836	0.811298	0.556162
	O7778	O	0.514656	0.694647	0.573928
	O7779	O	0.514595	0.811389	0.573910
	O7780	O	0.514461	0.194753	0.573918
	O7781	O	0.514674	0.311583	0.573896
	O7782	O	0.515299	0.694713	0.553197
	O7783	O	0.515110	0.811430	0.553231
	O7784	O	0.515379	0.194404	0.553262
	O7785	O	0.515208	0.311161	0.553239
	O7786	O	0.582330	0.694972	0.577880
	O7787	O	0.582549	0.811227	0.577884
	O7788	O	0.582410	0.193581	0.577864
	O7789	O	0.582358	0.310174	0.577841
	O7790	O	0.580667	0.193715	0.556188
	O7791	O	0.580505	0.310607	0.556150
	O7792	O	0.577092	0.694023	0.511450
	O7793	O	0.539148	0.695040	0.510151
	O7794	O	0.555981	0.694501	0.620343
	O7795	O	0.555815	0.811308	0.620313
	O7796	O	0.518079	0.693818	0.618626
	O7797	O	0.517947	0.810562	0.618646
	O7798	O	0.539500	0.811725	0.510248
	O7799	O	0.577247	0.810772	0.511400
	O7800	O	0.577453	0.194968	0.511434
	O7801	O	0.539375	0.194280	0.510257
	O7802	O	0.555792	0.193471	0.620327
	O7803	O	0.556037	0.310509	0.620310
	O7804	O	0.517876	0.194950	0.618625
	O7805	O	0.518013	0.311629	0.618608
	O7806	O	0.539110	0.310781	0.510186
	O7807	O	0.576994	0.311777	0.511484
	H7808	H	0.517464	0.643172	0.588308
	H7809	H	0.516936	0.862751	0.588264
	H7810	H	0.516903	0.143407	0.588252
	H7811	H	0.517491	0.363105	0.588221
	H7812	H	0.523359	0.863482	0.539441
	H7813	H	0.522892	0.643604	0.539373
	H7814	H	0.523011	0.362422	0.539451
	H7815	H	0.523619	0.143213	0.539514
	H7816	H	0.596051	0.064094	0.572054
	H7817	H	0.605095	0.064513	0.571112
	H7818	H	0.605086	0.940178	0.571111
	H7819	H	0.596007	0.940596	0.572047
	H7820	H	0.586812	0.064293	0.567857
	H7821	H	0.586833	0.940934	0.567843
	H7822	H	0.499407	0.064756	0.564126
	H7823	H	0.499321	0.941369	0.564196
	H7824	H	0.500020	0.064694	0.562845
	H7825	H	0.500094	0.941402	0.562881
	H7826	H	0.496924	0.064693	0.561527
	H7827	H	0.496879	0.940999	0.561586
	H7828	H	0.495083	0.441721	0.561391
	H7829	H	0.492622	0.441497	0.562414
	H7830	H	0.499589	0.441212	0.562103
	H7831	H	0.594890	0.440400	0.566878
	H7832	H	0.597355	0.441098	0.565957
	H7833	H	0.599723	0.441147	0.566373
	H7834	H	0.492702	0.564738	0.562388
	H7835	H	0.495207	0.564802	0.561406
	H7836	H	0.599648	0.564493	0.566376
	H7837	H	0.597334	0.564334	0.565978
	H7838	H	0.594937	0.564044	0.566915
	H7839	H	0.499584	0.565063	0.562016
	H7840	H	0.575056	0.644063	0.591659
	H7841	H	0.575072	0.862266	0.591671
	H7842	H	0.574596	0.142043	0.591630
	H7843	H	0.575329	0.361057	0.591679
	H7844	H	0.529830	0.643605	0.523773
	H7845	H	0.579530	0.642798	0.525825
	H7846	H	0.580205	0.862567	0.525744
	H7847	H	0.530274	0.863389	0.523839
	H7848	H	0.578771	0.643167	0.541835
	H7849	H	0.579443	0.862947	0.541746
	H7850	H	0.566735	0.643634	0.607102
	H7851	H	0.566795	0.862253	0.607113
	H7852	H	0.564163	0.440704	0.501290
	H7853	H	0.541488	0.440406	0.628999
	H7854	H	0.559434	0.441654	0.502992
	H7855	H	0.555155	0.441217	0.502235
	H7856	H	0.530390	0.441210	0.627592
	H7857	H	0.535549	0.441152	0.626842
	H7858	H	0.541575	0.564007	0.629003
	H7859	H	0.564212	0.564744	0.501303
	H7860	H	0.535499	0.564197	0.626852
	H7861	H	0.530523	0.564647	0.627607
	H7862	H	0.555053	0.564834	0.502221
	H7863	H	0.559452	0.564525	0.502992
	H7864	H	0.566283	0.142244	0.607073
	H7865	H	0.566998	0.360988	0.607102
	H7866	H	0.560661	0.064505	0.497772
	H7867	H	0.555014	0.064506	0.498201
	H7868	H	0.565878	0.064636	0.500445
	H7869	H	0.516260	0.862420	0.604291
	H7870	H	0.516739	0.642990	0.604291
	H7871	H	0.516660	0.363165	0.604214
	H7872	H	0.516275	0.143454	0.604247
	H7873	H	0.530396	0.143006	0.523937
	H7874	H	0.580197	0.142928	0.525787
	H7875	H	0.579395	0.362756	0.525845
	H7876	H	0.529841	0.362463	0.523837
	H7877	H	0.579348	0.142643	0.541800
	H7878	H	0.578588	0.361997	0.541843
	H7879	H	0.527543	0.064572	0.629926
	H7880	H	0.530787	0.064717	0.632343
	H7881	H	0.539483	0.064851	0.632440
	H7882	H	0.555051	0.941144	0.498186
	H7883	H	0.560708	0.941044	0.497768
	H7884	H	0.565910	0.941013	0.500428
	H7885	H	0.527539	0.941176	0.629935
	H7886	H	0.530821	0.941196	0.632359
	H7887	H	0.539485	0.940821	0.632502
	Zn7888	Zn	0.496490	0.680634	0.563103
	Zn7889	Zn	0.496395	0.825647	0.563127
	Zn7890	Zn	0.496465	0.180564	0.563135
	Zn7891	Zn	0.496371	0.325505	0.563117
	Zn7892	Zn	0.535308	0.679978	0.629700
	Zn7893	Zn	0.535190	0.825423	0.629680
	Zn7894	Zn	0.535067	0.180075	0.629709
	Zn7895	Zn	0.535313	0.325336	0.629667
	C7896	C	0.579651	0.752880	0.552424
	C7897	C	0.515922	0.753043	0.577638
	C7898	C	0.517399	0.752995	0.587304
	C7899	C	0.517260	0.690878	0.591846
	C7900	C	0.516973	0.814980	0.591826
	C7901	C	0.515886	0.253208	0.577617
	C7902	C	0.517409	0.253207	0.587272
	C7903	C	0.516990	0.191136	0.591800
	C7904	C	0.517297	0.315365	0.591785
	C7905	C	0.517777	0.753209	0.549695
	C7906	C	0.522955	0.753551	0.540410
	C7907	C	0.524819	0.815662	0.535974
	C7908	C	0.524612	0.691474	0.535935
	C7909	C	0.517923	0.252794	0.549734
	C7910	C	0.523069	0.252822	0.540443
	C7911	C	0.524703	0.314804	0.535986
	C7912	C	0.525025	0.190803	0.536027
	C7913	C	0.599828	0.043190	0.570427
	C7914	C	0.599814	0.962086	0.570428
	C7915	C	0.498881	0.043340	0.563410
	C7916	C	0.498868	0.962691	0.563428
	C7917	C	0.495710	0.043268	0.562098
	C7918	C	0.495731	0.962493	0.562117
	C7919	C	0.494560	0.462634	0.562220
	C7920	C	0.595766	0.461913	0.567346
	C7921	C	0.598218	0.462285	0.566433
	C7922	C	0.494576	0.543388	0.562218
	C7923	C	0.598238	0.543029	0.566439
	C7924	C	0.595801	0.542793	0.567352
	C7925	C	0.580314	0.753151	0.581465
	C7926	C	0.580260	0.251859	0.581422
	C7927	C	0.575286	0.753208	0.590729
	C7928	C	0.573233	0.691338	0.595108
	C7929	C	0.573260	0.814909	0.595118
	C7930	C	0.575247	0.251630	0.590701
	C7931	C	0.573002	0.189635	0.595080
	C7932	C	0.573386	0.313588	0.595096
	C7933	C	0.579637	0.252081	0.552429
	C7934	C	0.578486	0.752462	0.515152
	C7935	C	0.536367	0.753348	0.513657
	C7936	C	0.517102	0.752271	0.614892
	C7937	C	0.578987	0.690875	0.538257
	C7938	C	0.579367	0.815037	0.538206
	C7939	C	0.579935	0.752613	0.524816
	C7940	C	0.530418	0.753499	0.522860
	C7941	C	0.528343	0.691346	0.527261
	C7942	C	0.579506	0.690588	0.529373
	C7943	C	0.579874	0.814896	0.529323
	C7944	C	0.528563	0.815643	0.527302
	C7945	C	0.578762	0.753009	0.542773
	C7946	C	0.559282	0.752883	0.617005
	C7947	C	0.568720	0.691105	0.603678
	C7948	C	0.568751	0.814805	0.603687
	C7949	C	0.566347	0.752881	0.608029
	C7950	C	0.539449	0.461991	0.630073
	C7951	C	0.557715	0.462770	0.502079
	C7952	C	0.533490	0.462240	0.627870
	C7953	C	0.539481	0.543105	0.630067
	C7954	C	0.533533	0.543029	0.627872
	C7955	C	0.557692	0.543330	0.502084
	C7956	C	0.559238	0.251855	0.616993
	C7957	C	0.568454	0.189582	0.603649
	C7958	C	0.568862	0.313633	0.603666
	C7959	C	0.566266	0.251651	0.607993
	C7960	C	0.558185	0.043421	0.498700
	C7961	C	0.578545	0.253287	0.515174
	C7962	C	0.536294	0.252583	0.513693
	C7963	C	0.517050	0.253283	0.614866
	C7964	C	0.579379	0.190288	0.538228
	C7965	C	0.578948	0.314607	0.538244
	C7966	C	0.579996	0.252888	0.524823
	C7967	C	0.530495	0.252722	0.522893
	C7968	C	0.516189	0.752728	0.605239
	C7969	C	0.516448	0.814878	0.600708
	C7970	C	0.516720	0.690694	0.600723
	C7971	C	0.516238	0.253272	0.605206
	C7972	C	0.516782	0.315412	0.600667
	C7973	C	0.516489	0.191182	0.600681
	C7974	C	0.528705	0.190760	0.527357
	C7975	C	0.579914	0.190614	0.529347
	C7976	C	0.579478	0.314917	0.529361
	C7977	C	0.528389	0.314737	0.527308
	C7978	C	0.578807	0.252275	0.542749
	C7979	C	0.530667	0.043179	0.630749
	C7980	C	0.563430	0.043206	0.501358
	C7981	C	0.558152	0.962591	0.498675
	C7982	C	0.530640	0.962536	0.630766
	C7983	C	0.563434	0.962325	0.501354
	N7984	N	0.496429	0.070326	0.563106
	N7985	N	0.496449	0.935837	0.563145
	N7986	N	0.496406	0.435645	0.563136
	N7987	N	0.496529	0.570185	0.563100
	N7988	N	0.535129	0.435367	0.629668
	N7989	N	0.535176	0.569883	0.629682
	N7990	N	0.534907	0.069914	0.629690
	N7991	N	0.534988	0.935416	0.629727
	O7992	O	0.626939	0.694902	0.672818
	O7993	O	0.627051	0.811175	0.672823
	O7994	O	0.495313	0.694222	0.701179
	O7995	O	0.495457	0.810533	0.701121
	O7996	O	0.495507	0.194987	0.701126
	O7997	O	0.495186	0.311473	0.701228
	O7998	O	0.493207	0.693893	0.682812
	O7999	O	0.493090	0.810658	0.682756
	O8000	O	0.492896	0.194709	0.682721
	O8001	O	0.493093	0.311488	0.682795
	O8002	O	0.629290	0.694664	0.691220
	O8003	O	0.629369	0.811448	0.691258
	O8004	O	0.629278	0.194352	0.691229
	O8005	O	0.629222	0.311045	0.691212
	O8006	O	0.627174	0.194504	0.672776
	O8007	O	0.627027	0.310658	0.672820
	O8008	O	0.558156	0.694971	0.638724
	O8009	O	0.519700	0.693801	0.640316
	O8010	O	0.602499	0.694214	0.733663
	O8011	O	0.602573	0.810715	0.733687
	O8012	O	0.564181	0.694492	0.735265
	O8013	O	0.564189	0.810799	0.735291
	O8014	O	0.519528	0.810258	0.640292
	O8015	O	0.558097	0.811211	0.638704
	O8016	O	0.558088	0.194387	0.638749
	O8017	O	0.519669	0.195119	0.640307
	O8018	O	0.602623	0.194662	0.733679
	O8019	O	0.602570	0.311047	0.733680
	O8020	O	0.564333	0.194690	0.735198
	O8021	O	0.564178	0.311186	0.735279
	O8022	O	0.519979	0.311374	0.640359
	O8023	O	0.558149	0.310711	0.638731
	H8024	H	0.517408	0.644188	0.712139
	H8025	H	0.517815	0.861048	0.711958
	H8026	H	0.517765	0.144665	0.711926
	H8027	H	0.517450	0.361752	0.712087
	H8028	H	0.503885	0.861627	0.669481
	H8029	H	0.504717	0.642607	0.669620
	H8030	H	0.504180	0.362443	0.669581
	H8031	H	0.503834	0.143743	0.669513
	H8032	H	0.646336	0.064700	0.679455
	H8033	H	0.643579	0.064833	0.681493
	H8034	H	0.643598	0.941586	0.681505
	H8035	H	0.646295	0.941334	0.679443
	H8036	H	0.653828	0.064302	0.679645
	H8037	H	0.653848	0.941118	0.679656
	H8038	H	0.473794	0.064582	0.690855
	H8039	H	0.473764	0.941156	0.690820
	H8040	H	0.471037	0.064000	0.690858
	H8041	H	0.470979	0.941080	0.690786
	H8042	H	0.469290	0.064681	0.692278
	H8043	H	0.469152	0.941009	0.692264
	H8044	H	0.468843	0.440520	0.691340
	H8045	H	0.468806	0.441016	0.692697
	H8046	H	0.472534	0.440774	0.690495
	H8047	H	0.644329	0.440736	0.679564
	H8048	H	0.652765	0.440642	0.678913
	H8049	H	0.656979	0.441128	0.680959
	H8050	H	0.468890	0.564037	0.692705
	H8051	H	0.468803	0.564099	0.691387
	H8052	H	0.657009	0.564289	0.680945
	H8053	H	0.652659	0.564538	0.678922
	H8054	H	0.644374	0.564819	0.679581
	H8055	H	0.472444	0.564608	0.690490
	H8056	H	0.618546	0.643454	0.704489
	H8057	H	0.618136	0.862380	0.704474
	H8058	H	0.618653	0.143143	0.704514
	H8059	H	0.618214	0.362393	0.704459
	H8060	H	0.512954	0.642721	0.654162
	H8061	H	0.580401	0.645333	0.649563
	H8062	H	0.580423	0.861330	0.649557
	H8063	H	0.512091	0.861176	0.654021
	H8064	H	0.604745	0.645175	0.661958
	H8065	H	0.604740	0.861525	0.661924
	H8066	H	0.610131	0.643417	0.719913
	H8067	H	0.609684	0.861972	0.719862
	H8068	H	0.540610	0.440669	0.631430
	H8069	H	0.585460	0.440645	0.742330
	H8070	H	0.533577	0.441064	0.632407
	H8071	H	0.529320	0.440848	0.630863
	H8072	H	0.583965	0.440867	0.745911
	H8073	H	0.582216	0.441064	0.744225
	H8074	H	0.585346	0.564148	0.742301
	H8075	H	0.540786	0.564236	0.631419
	H8076	H	0.582215	0.564490	0.744223
	H8077	H	0.584022	0.564362	0.745901
	H8078	H	0.529394	0.564309	0.630860
	H8079	H	0.533655	0.564113	0.632435
	H8080	H	0.610308	0.143423	0.719962
	H8081	H	0.609904	0.362407	0.719865
	H8082	H	0.537914	0.064014	0.626793
	H8083	H	0.531679	0.064665	0.626698
	H8084	H	0.542456	0.063993	0.630054
	H8085	H	0.542150	0.861075	0.724336
	H8086	H	0.541755	0.644442	0.724518
	H8087	H	0.541832	0.361707	0.724475
	H8088	H	0.542067	0.144317	0.724286
	H8089	H	0.512311	0.143897	0.654101
	H8090	H	0.580325	0.144045	0.649619
	H8091	H	0.580413	0.360931	0.649601
	H8092	H	0.512679	0.362370	0.654176
	H8093	H	0.604697	0.144220	0.661972
	H8094	H	0.604786	0.360933	0.661961
	H8095	H	0.587914	0.064235	0.744160
	H8096	H	0.587519	0.064035	0.743983
	H8097	H	0.586615	0.064344	0.744057
	H8098	H	0.531778	0.940740	0.626711
	H8099	H	0.538016	0.941112	0.626828
	H8100	H	0.542519	0.941097	0.630072
	H8101	H	0.587986	0.940570	0.744200
	H8102	H	0.587485	0.941025	0.743961
	H8103	H	0.586517	0.941114	0.744033
	Zn8104	Zn	0.472423	0.680099	0.692101
	Zn8105	Zn	0.472475	0.825321	0.692099
	Zn8106	Zn	0.472524	0.180166	0.692141
	Zn8107	Zn	0.472340	0.325100	0.692097
	Zn8108	Zn	0.587062	0.679787	0.744296
	Zn8109	Zn	0.587112	0.825198	0.744301
	Zn8110	Zn	0.587129	0.180031	0.744303
	Zn8111	Zn	0.587067	0.325329	0.744330
	C8112	C	0.621114	0.753118	0.670030
	C8113	C	0.501316	0.752411	0.703920
	C8114	C	0.516189	0.752575	0.711273
	C8115	C	0.522901	0.691327	0.714853
	C8116	C	0.523140	0.813922	0.714750
	C8117	C	0.501248	0.253273	0.703946
	C8118	C	0.516210	0.253302	0.711267
	C8119	C	0.523124	0.191705	0.714711
	C8120	C	0.522967	0.314718	0.714813
	C8121	C	0.496585	0.752241	0.679458
	C8122	C	0.503679	0.752113	0.670471
	C8123	C	0.505936	0.813972	0.666087
	C8124	C	0.506377	0.690150	0.666162
	C8125	C	0.496441	0.253192	0.679440
	C8126	C	0.503541	0.253117	0.670461
	C8127	C	0.506102	0.315007	0.666147
	C8128	C	0.505904	0.191283	0.666102
	C8129	C	0.646344	0.043433	0.680839
	C8130	C	0.646358	0.962581	0.680844
	C8131	C	0.472358	0.043147	0.691201
	C8132	C	0.472349	0.962542	0.691152
	C8133	C	0.470556	0.043384	0.692617
	C8134	C	0.470500	0.962321	0.692605
	C8135	C	0.469660	0.462009	0.692026
	C8136	C	0.645243	0.462343	0.681139
	C8137	C	0.653639	0.462209	0.680447
	C8138	C	0.469691	0.542875	0.692048
	C8139	C	0.653613	0.543109	0.680438
	C8140	C	0.645258	0.543099	0.681139
	C8141	C	0.625962	0.753020	0.694568
	C8142	C	0.625890	0.252706	0.694560
	C8143	C	0.618823	0.752865	0.703542
	C8144	C	0.616436	0.690895	0.707888
	C8145	C	0.616194	0.814707	0.707873
	C8146	C	0.618795	0.252681	0.703547
	C8147	C	0.616531	0.190748	0.707918
	C8148	C	0.616283	0.314730	0.707875
	C8149	C	0.621121	0.252544	0.670046
	C8150	C	0.564096	0.753185	0.641466
	C8151	C	0.517599	0.752027	0.643895
	C8152	C	0.558272	0.752710	0.732506
	C8153	C	0.599332	0.692120	0.659195
	C8154	C	0.599340	0.814501	0.659178
	C8155	C	0.579051	0.753289	0.648797
	C8156	C	0.512619	0.751955	0.653168
	C8157	C	0.510871	0.690052	0.657586
	C8158	C	0.585846	0.692217	0.652327
	C8159	C	0.585839	0.814477	0.652312
	C8160	C	0.510425	0.813934	0.657515
	C8161	C	0.606250	0.753255	0.662674
	C8162	C	0.604702	0.752476	0.730105
	C8163	C	0.611893	0.690808	0.716461
	C8164	C	0.611641	0.814542	0.716443
	C8165	C	0.609723	0.752574	0.720839
	C8166	C	0.587417	0.461975	0.742925
	C8167	C	0.532392	0.462243	0.631116
	C8168	C	0.584201	0.462254	0.744879
	C8169	C	0.587372	0.543018	0.742907
	C8170	C	0.584207	0.543048	0.744880
	C8171	C	0.532418	0.542973	0.631125
	C8172	C	0.604765	0.252872	0.730107
	C8173	C	0.612000	0.190858	0.716488
	C8174	C	0.611768	0.314811	0.716442
	C8175	C	0.609788	0.252888	0.720852
	C8176	C	0.534846	0.043106	0.627532
	C8177	C	0.564026	0.252575	0.641525
	C8178	C	0.517748	0.253235	0.643923
	C8179	C	0.558359	0.252961	0.732459
	C8180	C	0.599319	0.191229	0.659213
	C8181	C	0.599345	0.313918	0.659214
	C8182	C	0.578943	0.252513	0.648869
	C8183	C	0.512727	0.253164	0.653181
	C8184	C	0.543321	0.752776	0.725166
	C8185	C	0.536618	0.814091	0.721617
	C8186	C	0.536387	0.691430	0.721721
	C8187	C	0.543456	0.253019	0.725108
	C8188	C	0.536536	0.314584	0.721655
	C8189	C	0.536654	0.191593	0.721562
	C8190	C	0.510503	0.191334	0.657542
	C8191	C	0.585797	0.191207	0.652359
	C8192	C	0.585843	0.313889	0.652355
	C8193	C	0.510713	0.314937	0.657591
	C8194	C	0.606191	0.252563	0.662721
	C8195	C	0.587651	0.042905	0.744149
	C8196	C	0.539322	0.043150	0.630854
	C8197	C	0.534876	0.962208	0.627538
	C8198	C	0.587655	0.962087	0.744138
	C8199	C	0.539371	0.962104	0.630890
	N8200	N	0.472446	0.070141	0.692165
	N8201	N	0.472387	0.935606	0.692108
	N8202	N	0.472062	0.435354	0.692088
	N8203	N	0.472067	0.569930	0.692081
	N8204	N	0.587208	0.435292	0.744336
	N8205	N	0.587179	0.569789	0.744319
	N8206	N	0.587237	0.069835	0.744319
	N8207	N	0.587219	0.935286	0.744294
	O8208	O	0.607340	0.695480	0.800026
	O8209	O	0.607660	0.812296	0.800024
	O8210	O	0.541921	0.694382	0.817858
	O8211	O	0.541986	0.811143	0.817843
	O8212	O	0.542064	0.193521	0.817814
	O8213	O	0.542099	0.310295	0.817825
	O8214	O	0.539992	0.694583	0.796212
	O8215	O	0.540122	0.811049	0.796236
	O8216	O	0.540090	0.193754	0.796171
	O8217	O	0.540028	0.310251	0.796191
	O8218	O	0.607019	0.695637	0.820858
	O8219	O	0.607423	0.812329	0.820970
	O8220	O	0.607438	0.193446	0.820980
	O8221	O	0.607097	0.310217	0.820873
	O8222	O	0.607496	0.193481	0.800087
	O8223	O	0.607406	0.310192	0.800039
	O8224	O	0.604527	0.693711	0.755324
	O8225	O	0.566556	0.694493	0.753700
	O8226	O	0.582917	0.694264	0.863858
	O8227	O	0.583108	0.810961	0.863964
	O8228	O	0.544913	0.694881	0.862627
	O8229	O	0.545116	0.811864	0.862609
	O8230	O	0.566727	0.811361	0.753770
	O8231	O	0.604670	0.810633	0.755286
	O8232	O	0.604575	0.193929	0.755344
	O8233	O	0.566575	0.193995	0.753694
	O8234	O	0.583106	0.194401	0.863950
	O8235	O	0.582985	0.311124	0.863884
	O8236	O	0.545110	0.194065	0.862581
	O8237	O	0.545127	0.310965	0.862551
	O8238	O	0.566470	0.310600	0.753720
	O8239	O	0.604563	0.310881	0.755322
	H8240	H	0.543185	0.643405	0.832257
	H8241	H	0.543846	0.862692	0.832220
	H8242	H	0.543599	0.142059	0.832223
	H8243	H	0.543450	0.361731	0.832190
	H8244	H	0.547416	0.862255	0.782395
	H8245	H	0.547141	0.643537	0.782368
	H8246	H	0.547310	0.361585	0.782396
	H8247	H	0.547420	0.142663	0.782370
	H8248	H	0.626120	0.064682	0.808414
	H8249	H	0.621644	0.064157	0.808997
	H8250	H	0.621684	0.941388	0.808975
	H8251	H	0.626223	0.940939	0.808381
	H8252	H	0.631146	0.064970	0.810398
	H8253	H	0.631086	0.941040	0.810409
	H8254	H	0.529549	0.063963	0.812291
	H8255	H	0.529618	0.941037	0.812325
	H8256	H	0.537198	0.064334	0.808905
	H8257	H	0.537119	0.940663	0.808930
	H8258	H	0.532683	0.064551	0.802418
	H8259	H	0.532740	0.941168	0.802421
	H8260	H	0.524085	0.440630	0.804386
	H8261	H	0.520201	0.441240	0.805415
	H8262	H	0.529721	0.440852	0.805870
	H8263	H	0.631181	0.441084	0.808300
	H8264	H	0.632864	0.440992	0.812614
	H8265	H	0.627407	0.441126	0.814566
	H8266	H	0.520003	0.564309	0.805413
	H8267	H	0.524038	0.564310	0.804383
	H8268	H	0.627287	0.564762	0.814588
	H8269	H	0.633043	0.564256	0.812667
	H8270	H	0.631328	0.564328	0.808307
	H8271	H	0.529667	0.564051	0.805858
	H8272	H	0.599302	0.643988	0.834669
	H8273	H	0.599901	0.863289	0.834861
	H8274	H	0.599850	0.142401	0.834820
	H8275	H	0.599278	0.361774	0.834678
	H8276	H	0.555458	0.643417	0.766927
	H8277	H	0.605447	0.642779	0.769705
	H8278	H	0.606640	0.862267	0.769605
	H8279	H	0.555819	0.862123	0.766986
	H8280	H	0.604615	0.643320	0.785689
	H8281	H	0.605776	0.863177	0.785636
	H8282	H	0.592204	0.643413	0.850244
	H8283	H	0.592736	0.862842	0.850424
	H8284	H	0.589509	0.440786	0.742527
	H8285	H	0.563663	0.441080	0.875196
	H8286	H	0.591916	0.440892	0.744797
	H8287	H	0.589514	0.440767	0.746185
	H8288	H	0.566182	0.441135	0.872339
	H8289	H	0.567032	0.441379	0.873866
	H8290	H	0.563680	0.564273	0.875257
	H8291	H	0.589415	0.564225	0.742467
	H8292	H	0.567088	0.564417	0.873844
	H8293	H	0.566247	0.564968	0.872319
	H8294	H	0.589572	0.564182	0.746147
	H8295	H	0.591866	0.564056	0.744758
	H8296	H	0.592804	0.142600	0.850416
	H8297	H	0.592304	0.362345	0.850271
	H8298	H	0.587014	0.064325	0.744650
	H8299	H	0.587706	0.064397	0.744613
	H8300	H	0.586410	0.064375	0.744344
	H8301	H	0.542995	0.863170	0.848218
	H8302	H	0.542350	0.643575	0.848246
	H8303	H	0.542641	0.361975	0.848183
	H8304	H	0.542754	0.142336	0.848228
	H8305	H	0.555758	0.142841	0.766930
	H8306	H	0.605955	0.142393	0.769667
	H8307	H	0.605958	0.361938	0.769704
	H8308	H	0.555588	0.361728	0.766959
	H8309	H	0.605122	0.142124	0.785679
	H8310	H	0.605057	0.361548	0.785709
	H8311	H	0.560413	0.064212	0.872913
	H8312	H	0.560508	0.064804	0.874002
	H8313	H	0.563513	0.064851	0.874734
	H8314	H	0.587685	0.940489	0.744618
	H8315	H	0.587021	0.940805	0.744621
	H8316	H	0.586322	0.941080	0.744355
	H8317	H	0.560359	0.941135	0.872907
	H8318	H	0.560542	0.941526	0.874004
	H8319	H	0.563605	0.941288	0.874781
	Zn8320	Zn	0.524573	0.679928	0.806856
	Zn8321	Zn	0.524584	0.825344	0.806855
	Zn8322	Zn	0.524540	0.179935	0.806826
	Zn8323	Zn	0.524734	0.325441	0.806852
	Zn8324	Zn	0.563010	0.680340	0.873391
	Zn8325	Zn	0.563129	0.825210	0.873439
	Zn8326	Zn	0.563174	0.180258	0.873439
	Zn8327	Zn	0.562992	0.325257	0.873441
	C8328	C	0.606310	0.753873	0.796302
	C8329	C	0.542920	0.752796	0.821600
	C8330	C	0.543774	0.753017	0.831264
	C8331	C	0.543164	0.691085	0.835810
	C8332	C	0.543515	0.815144	0.835790
	C8333	C	0.542966	0.251846	0.821570
	C8334	C	0.543817	0.251812	0.831233
	C8335	C	0.543374	0.189749	0.835772
	C8336	C	0.543310	0.314021	0.835753
	C8337	C	0.542141	0.752843	0.792640
	C8338	C	0.547122	0.752879	0.783358
	C8339	C	0.549268	0.814732	0.778974
	C8340	C	0.549079	0.691013	0.778948
	C8341	C	0.542146	0.252053	0.792603
	C8342	C	0.547165	0.252189	0.783343
	C8343	C	0.549190	0.314104	0.778958
	C8344	C	0.549241	0.190239	0.778940
	C8345	C	0.624376	0.043107	0.809274
	C8346	C	0.624370	0.962497	0.809273
	C8347	C	0.531119	0.043033	0.809611
	C8348	C	0.531130	0.962206	0.809629
	C8349	C	0.526648	0.043045	0.803104
	C8350	C	0.526686	0.962351	0.803113
	C8351	C	0.522868	0.462246	0.805421
	C8352	C	0.627086	0.462407	0.808531
	C8353	C	0.628817	0.462492	0.812877
	C8354	C	0.522811	0.543117	0.805409
	C8355	C	0.628789	0.543287	0.812898
	C8356	C	0.627138	0.543365	0.808517
	C8357	C	0.604820	0.753910	0.824446
	C8358	C	0.604894	0.251888	0.824474
	C8359	C	0.599852	0.753699	0.833761
	C8360	C	0.597876	0.691481	0.838168
	C8361	C	0.598200	0.815511	0.838273
	C8362	C	0.599860	0.252053	0.833782
	C8363	C	0.598229	0.190187	0.838278
	C8364	C	0.597907	0.314250	0.838180
	C8365	C	0.606245	0.251746	0.796332
	C8366	C	0.605570	0.752261	0.759042
	C8367	C	0.563222	0.752874	0.757060
	C8368	C	0.543774	0.753326	0.858901
	C8369	C	0.605008	0.690995	0.782130
	C8370	C	0.605665	0.815351	0.782088
	C8371	C	0.606367	0.752532	0.768711
	C8372	C	0.556190	0.752838	0.766052
	C8373	C	0.553615	0.690915	0.770372
	C8374	C	0.605609	0.690559	0.773256
	C8375	C	0.606272	0.814880	0.773206
	C8376	C	0.553823	0.814740	0.770401
	C8377	C	0.605039	0.753435	0.786632
	C8378	C	0.586052	0.752754	0.860466
	C8379	C	0.594086	0.691174	0.846834
	C8380	C	0.594391	0.815355	0.846942
	C8381	C	0.592274	0.753148	0.851302
	C8382	C	0.562239	0.462300	0.874575
	C8383	C	0.589800	0.462120	0.745174
	C8384	C	0.565636	0.462494	0.873192
	C8385	C	0.562250	0.543161	0.874579
	C8386	C	0.565671	0.543384	0.873184
	C8387	C	0.589814	0.542766	0.745168
	C8388	C	0.586068	0.252694	0.860474
	C8389	C	0.594422	0.190319	0.846943
	C8390	C	0.594104	0.314526	0.846851
	C8391	C	0.592264	0.252545	0.851320
	C8392	C	0.587391	0.043050	0.744538
	C8393	C	0.605476	0.252450	0.759068
	C8394	C	0.563160	0.252216	0.757051
	C8395	C	0.543910	0.252475	0.858846
	C8396	C	0.605192	0.189845	0.782123
	C8397	C	0.605180	0.313954	0.782136
	C8398	C	0.606283	0.252263	0.768733
	C8399	C	0.556178	0.252182	0.766042
	C8400	C	0.542357	0.753302	0.849222
	C8401	C	0.542887	0.815313	0.844673
	C8402	C	0.542528	0.691232	0.844691
	C8403	C	0.542503	0.252181	0.849182
	C8404	C	0.542770	0.314201	0.844636
	C8405	C	0.542801	0.189950	0.844657
	C8406	C	0.553818	0.190239	0.770375
	C8407	C	0.605831	0.190068	0.773248
	C8408	C	0.605835	0.314264	0.773264
	C8409	C	0.553737	0.314117	0.770389
	C8410	C	0.604846	0.251825	0.786669
	C8411	C	0.561174	0.043196	0.873443
	C8412	C	0.586736	0.042980	0.744225
	C8413	C	0.587371	0.962015	0.744534
	C8414	C	0.561130	0.962596	0.873450
	C8415	C	0.586719	0.962263	0.744214
	N8416	N	0.524674	0.069751	0.806873
	N8417	N	0.524677	0.935269	0.806859
	N8418	N	0.524870	0.435458	0.806856
	N8419	N	0.524790	0.569983	0.806856
	N8420	N	0.562932	0.435612	0.873415
	N8421	N	0.562954	0.570190	0.873406
	N8422	N	0.563126	0.070047	0.873457
	N8423	N	0.563155	0.935487	0.873449
	O8424	O	0.606482	0.694895	0.927005
	O8425	O	0.606466	0.811393	0.927007
	O8426	O	0.520252	0.694895	0.946426
	O8427	O	0.520229	0.811407	0.946434
	O8428	O	0.520196	0.194036	0.946393
	O8429	O	0.520369	0.310527	0.946401
	O8430	O	0.520782	0.694767	0.926432
	O8431	O	0.520791	0.811470	0.926456
	O8432	O	0.520896	0.193817	0.926445
	O8433	O	0.520824	0.310520	0.926435
	O8434	O	0.605734	0.694845	0.946971
	O8435	O	0.606080	0.811493	0.946988
	O8436	O	0.606044	0.194914	0.947023
	O8437	O	0.605761	0.311684	0.947001
	O8438	O	0.606565	0.194179	0.926985
	O8439	O	0.606236	0.310839	0.926997
	O8440	O	0.582366	0.693877	0.883865
	O8441	O	0.544894	0.694714	0.883463
	O8442	O	0.581699	0.694137	0.989875
	O8443	O	0.581914	0.811013	0.989972
	O8444	O	0.544069	0.695042	0.989586
	O8445	O	0.544347	0.811543	0.989556
	O8446	O	0.544874	0.811408	0.883447
	O8447	O	0.582560	0.810443	0.883842
	O8448	O	0.582540	0.194651	0.883842
	O8449	O	0.544756	0.194327	0.883416
	O8450	O	0.582005	0.195037	0.990026
	O8451	O	0.581735	0.311655	0.989958
	O8452	O	0.544317	0.194413	0.989583
	O8453	O	0.544124	0.310911	0.989563
	O8454	O	0.544718	0.310946	0.883411
	O8455	O	0.582292	0.311197	0.883849
	H8456	H	0.528485	0.644239	0.960264
	H8457	H	0.528733	0.862353	0.960168
	H8458	H	0.528680	0.142919	0.960249
	H8459	H	0.528565	0.361517	0.960185
	H8460	H	0.530084	0.862819	0.912870
	H8461	H	0.530068	0.643311	0.912817
	H8462	H	0.530169	0.361909	0.912837
	H8463	H	0.530080	0.142238	0.912807
	H8464	H	0.619861	0.064602	0.934930
	H8465	H	0.617835	0.064990	0.937752
	H8466	H	0.617780	0.941093	0.937773
	H8467	H	0.619838	0.941417	0.934925
	H8468	H	0.628895	0.064301	0.934245
	H8469	H	0.628943	0.941061	0.934223
	H8470	H	0.498924	0.064243	0.938317
	H8471	H	0.498998	0.940950	0.938320
	H8472	H	0.503765	0.065006	0.938213
	H8473	H	0.503775	0.941110	0.938215
	H8474	H	0.506504	0.064206	0.935630
	H8475	H	0.506476	0.941326	0.935635
	H8476	H	0.513684	0.441067	0.937453
	H8477	H	0.511304	0.440498	0.932776
	H8478	H	0.502734	0.440837	0.941636
	H8479	H	0.608028	0.441161	0.939167
	H8480	H	0.615176	0.440909	0.930682
	H8481	H	0.630336	0.441105	0.929797
	H8482	H	0.511363	0.564350	0.932798
	H8483	H	0.513693	0.564694	0.937493
	H8484	H	0.630316	0.564702	0.929789
	H8485	H	0.615194	0.564583	0.930673
	H8486	H	0.608075	0.564541	0.939202
	H8487	H	0.502705	0.564607	0.941620
	H8488	H	0.596613	0.643605	0.960552
	H8489	H	0.596569	0.862823	0.960570
	H8490	H	0.596261	0.143502	0.960536
	H8491	H	0.596528	0.362629	0.960585
	H8492	H	0.537081	0.643555	0.897275
	H8493	H	0.590933	0.643547	0.897665
	H8494	H	0.591028	0.861596	0.897614
	H8495	H	0.537167	0.862640	0.897265
	H8496	H	0.597874	0.644031	0.913235
	H8497	H	0.598065	0.862166	0.913197
	H8498	H	0.589521	0.643424	0.976135
	H8499	H	0.589578	0.862559	0.976155
	H8500	H	0.560301	0.440926	0.874736
	H8501	H	0.557499	0.441300	0.997905
	H8502	H	0.559086	0.441283	0.872684
	H8503	H	0.561619	0.441080	0.871724
	H8504	H	0.562597	0.441323	1.003230
	H8505	H	0.557220	0.441407	1.001672
	H8506	H	0.557481	0.564834	0.997926
	H8507	H	0.560283	0.564466	0.874751
	H8508	H	0.557205	0.564666	1.001712
	H8509	H	0.562643	0.564770	1.003266
	H8510	H	0.561700	0.564690	0.871667
	H8511	H	0.559123	0.564194	0.872669
	H8512	H	0.589297	0.143440	0.976135
	H8513	H	0.589585	0.362771	0.976175
	H8514	H	0.565498	0.064517	0.872702
	H8515	H	0.563264	0.064336	0.872138
	H8516	H	0.565658	0.064567	0.874210
	H8517	H	0.536012	0.862493	0.975742
	H8518	H	0.535590	0.644408	0.975795
	H8519	H	0.535571	0.361860	0.975765
	H8520	H	0.535740	0.143171	0.975807
	H8521	H	0.537037	0.142430	0.897225
	H8522	H	0.591230	0.143506	0.897633
	H8523	H	0.590485	0.362213	0.897634
	H8524	H	0.537112	0.362001	0.897248
	H8525	H	0.598331	0.143338	0.913184
	H8526	H	0.597578	0.361851	0.913203
	H8527	H	0.572724	0.064402	1.001631
	H8528	H	0.572174	0.064818	0.998083
	H8529	H	0.562169	0.065105	0.995745
	H8530	H	0.563270	0.940609	0.872102
	H8531	H	0.565596	0.941019	0.872685
	H8532	H	0.565707	0.941319	0.874230
	H8533	H	0.572801	0.941431	1.001646
	H8534	H	0.572162	0.941185	0.998078
	H8535	H	0.562158	0.940994	0.995779
	Zn8536	Zn	0.500976	0.680511	0.935986
	Zn8537	Zn	0.500861	0.825110	0.935991
	Zn8538	Zn	0.500918	0.180291	0.935960
	Zn8539	Zn	0.501016	0.324987	0.936002
	Zn8540	Zn	0.563605	0.680441	0.999944
	Zn8541	Zn	0.563663	0.825568	0.999980
	Zn8542	Zn	0.563668	0.180393	0.999950
	Zn8543	Zn	0.563498	0.325586	0.999983
	C8544	C	0.603768	0.753143	0.923457
	C8545	C	0.522950	0.753128	0.949984
	C8546	C	0.528498	0.753266	0.959282
	C8547	C	0.530228	0.691675	0.963707
	C8548	C	0.530517	0.815056	0.963658
	C8549	C	0.522967	0.252234	0.949956
	C8550	C	0.528396	0.252171	0.959266
	C8551	C	0.530296	0.190475	0.963703
	C8552	C	0.530184	0.314090	0.963664
	C8553	C	0.523724	0.753146	0.922995
	C8554	C	0.529733	0.753144	0.913834
	C8555	C	0.531752	0.815179	0.909416
	C8556	C	0.531708	0.691118	0.909401
	C8557	C	0.523789	0.252129	0.922986
	C8558	C	0.529834	0.252105	0.913809
	C8559	C	0.531826	0.314147	0.909377
	C8560	C	0.531767	0.190081	0.909372
	C8561	C	0.620695	0.043355	0.936644
	C8562	C	0.620712	0.962453	0.936642
	C8563	C	0.501209	0.043280	0.937654
	C8564	C	0.501225	0.962278	0.937661
	C8565	C	0.503959	0.042945	0.935048
	C8566	C	0.503982	0.962473	0.935054
	C8567	C	0.509493	0.462226	0.935357
	C8568	C	0.616323	0.462365	0.940687
	C8569	C	0.623536	0.462344	0.932126
	C8570	C	0.509460	0.543267	0.935367
	C8571	C	0.623537	0.543324	0.932122
	C8572	C	0.616337	0.543131	0.940701
	C8573	C	0.602911	0.753244	0.950426
	C8574	C	0.602923	0.253256	0.950460
	C8575	C	0.596791	0.753238	0.959587
	C8576	C	0.594847	0.691147	0.964006
	C8577	C	0.594898	0.815166	0.964022
	C8578	C	0.596865	0.253064	0.959637
	C8579	C	0.594734	0.191028	0.964026
	C8580	C	0.594880	0.315029	0.964054
	C8581	C	0.603696	0.252472	0.923444
	C8582	C	0.585142	0.752205	0.887401
	C8583	C	0.542412	0.753120	0.887002
	C8584	C	0.541545	0.753297	0.986031
	C8585	C	0.596380	0.691210	0.909777
	C8586	C	0.596432	0.814691	0.909747
	C8587	C	0.590662	0.752462	0.896715
	C8588	C	0.537352	0.753178	0.896310
	C8589	C	0.535546	0.691152	0.900744
	C8590	C	0.592549	0.690954	0.901135
	C8591	C	0.592596	0.814286	0.901104
	C8592	C	0.535577	0.815139	0.900749
	C8593	C	0.598301	0.753121	0.914171
	C8594	C	0.584214	0.752714	0.986390
	C8595	C	0.591057	0.691043	0.972669
	C8596	C	0.591109	0.815017	0.972684
	C8597	C	0.589252	0.752969	0.977098
	C8598	C	0.561159	0.462528	0.998013
	C8599	C	0.561055	0.462452	0.872534
	C8600	C	0.560888	0.462685	1.001822
	C8601	C	0.561152	0.543186	0.997999
	C8602	C	0.560919	0.543422	1.001833
	C8603	C	0.561054	0.543242	0.872506
	C8604	C	0.584311	0.253319	0.986459
	C8605	C	0.590950	0.191066	0.972697
	C8606	C	0.591116	0.314986	0.972722
	C8607	C	0.589355	0.253061	0.977166
	C8608	C	0.564053	0.043209	0.872683
	C8609	C	0.585098	0.252897	0.887396
	C8610	C	0.542296	0.252610	0.886959
	C8611	C	0.541471	0.252623	0.986041
	C8612	C	0.596575	0.190812	0.909720
	C8613	C	0.596161	0.314432	0.909732
	C8614	C	0.590707	0.252813	0.896680
	C8615	C	0.537283	0.252314	0.896253
	C8616	C	0.536077	0.753400	0.976734
	C8617	C	0.534332	0.815130	0.972305
	C8618	C	0.534056	0.691742	0.972339
	C8619	C	0.535913	0.252528	0.976746
	C8620	C	0.533996	0.314259	0.972311
	C8621	C	0.534123	0.190647	0.972342
	C8622	C	0.535540	0.190147	0.900703
	C8623	C	0.592783	0.190942	0.901079
	C8624	C	0.592371	0.314632	0.901083
	C8625	C	0.535604	0.314292	0.900711
	C8626	C	0.598236	0.252489	0.914132
	C8627	C	0.570163	0.043290	0.999890
	C8628	C	0.564232	0.043393	0.874218
	C8629	C	0.564071	0.962076	0.872672
	C8630	C	0.570158	0.962451	0.999883
	C8631	C	0.564270	0.962569	0.874230
	N8632	N	0.500882	0.070021	0.935972
	N8633	N	0.500891	0.935457	0.935985
	N8634	N	0.501011	0.435380	0.935993
	N8635	N	0.501005	0.570039	0.936002
	N8636	N	0.563568	0.435790	0.999971
	N8637	N	0.563637	0.570350	0.999976
	N8638	N	0.563675	0.070168	0.999957
	N8639	N	0.563691	0.935644	0.999963
	O8640	O	0.757497	0.694511	0.046900
	O8641	O	0.757540	0.810840	0.046866
	O8642	O	0.624966	0.695033	0.075572
	O8643	O	0.625168	0.811320	0.075552
	O8644	O	0.625098	0.195247	0.075533
	O8645	O	0.625065	0.311702	0.075574
	O8646	O	0.622613	0.694349	0.057145
	O8647	O	0.622593	0.811275	0.057159
	O8648	O	0.622645	0.194957	0.057156
	O8649	O	0.622607	0.311702	0.057158
	O8650	O	0.759950	0.694471	0.065182
	O8651	O	0.759932	0.811330	0.065176
	O8652	O	0.760050	0.194459	0.065224
	O8653	O	0.760005	0.311280	0.065216
	O8654	O	0.757536	0.195097	0.046885
	O8655	O	0.757707	0.311255	0.046849
	O8656	O	0.687400	0.694399	0.013125
	O8657	O	0.648842	0.694828	0.014617
	O8658	O	0.733310	0.694575	0.107620
	O8659	O	0.733541	0.811122	0.107684
	O8660	O	0.695016	0.694826	0.109395
	O8661	O	0.695221	0.811018	0.109371
	O8662	O	0.649002	0.811467	0.014639
	O8663	O	0.687543	0.810770	0.013034
	O8664	O	0.687572	0.195070	0.013074
	O8665	O	0.649108	0.194222	0.014653
	O8666	O	0.733767	0.194751	0.107750
	O8667	O	0.733637	0.311293	0.107695
	O8668	O	0.695304	0.194619	0.109304
	O8669	O	0.695216	0.310883	0.109405
	O8670	O	0.648997	0.310685	0.014659
	O8671	O	0.687486	0.311430	0.013114
	H8672	H	0.647465	0.644952	0.086395
	H8673	H	0.647881	0.861265	0.086261
	H8674	H	0.647694	0.144773	0.086293
	H8675	H	0.647570	0.362119	0.086415
	H8676	H	0.633441	0.862763	0.043915
	H8677	H	0.633415	0.643297	0.043868
	H8678	H	0.633553	0.362618	0.043874
	H8679	H	0.633396	0.143588	0.043945
	H8680	H	0.777419	0.064479	0.054450
	H8681	H	0.776253	0.064330	0.055977
	H8682	H	0.776292	0.941294	0.055987
	H8683	H	0.777435	0.941198	0.054437
	H8684	H	0.782405	0.064508	0.054124
	H8685	H	0.782383	0.940844	0.054201
	H8686	H	0.590630	0.064690	0.064726
	H8687	H	0.590468	0.941440	0.064733
	H8688	H	0.591888	0.064862	0.069192
	H8689	H	0.591729	0.941394	0.069188
	H8690	H	0.604788	0.064900	0.071832
	H8691	H	0.604650	0.941413	0.071896
	H8692	H	0.592879	0.441011	0.063516
	H8693	H	0.591041	0.441200	0.067494
	H8694	H	0.605115	0.441232	0.061909
	H8695	H	0.781726	0.440690	0.052445
	H8696	H	0.788325	0.440960	0.055233
	H8697	H	0.786988	0.441182	0.058008
	H8698	H	0.590883	0.564879	0.067498
	H8699	H	0.592750	0.564323	0.063488
	H8700	H	0.787109	0.564517	0.057985
	H8701	H	0.788350	0.564850	0.055217
	H8702	H	0.781608	0.564514	0.052383
	H8703	H	0.605046	0.564839	0.061923
	H8704	H	0.748654	0.643506	0.078372
	H8705	H	0.749420	0.862296	0.078477
	H8706	H	0.749326	0.143266	0.078500
	H8707	H	0.748779	0.362587	0.078443
	H8708	H	0.641566	0.643581	0.028413
	H8709	H	0.709894	0.644112	0.023953
	H8710	H	0.709915	0.861105	0.023892
	H8711	H	0.641579	0.862696	0.028454
	H8712	H	0.734713	0.644147	0.036180
	H8713	H	0.734790	0.861167	0.036115
	H8714	H	0.740205	0.643697	0.093781
	H8715	H	0.741061	0.862162	0.093921
	H8716	H	0.663927	0.441317	0.004637
	H8717	H	0.716080	0.440714	0.121450
	H8718	H	0.662967	0.441031	0.004040
	H8719	H	0.663473	0.440566	0.003615
	H8720	H	0.725569	0.441206	0.117787
	H8721	H	0.724277	0.441606	0.120462
	H8722	H	0.715986	0.564212	0.121479
	H8723	H	0.663887	0.564267	0.004630
	H8724	H	0.724217	0.564630	0.120434
	H8725	H	0.725579	0.564459	0.117755
	H8726	H	0.663456	0.563903	0.003631
	H8727	H	0.663003	0.564209	0.004058
	H8728	H	0.741097	0.143327	0.093963
	H8729	H	0.740519	0.362352	0.093863
	H8730	H	0.657605	0.064745	0.005675
	H8731	H	0.663161	0.064581	0.007502
	H8732	H	0.658365	0.064112	0.001583
	H8733	H	0.672703	0.861204	0.098532
	H8734	H	0.672257	0.645187	0.098646
	H8735	H	0.672409	0.362008	0.098654
	H8736	H	0.672599	0.144384	0.098509
	H8737	H	0.641634	0.142985	0.028497
	H8738	H	0.710186	0.145062	0.023806
	H8739	H	0.710068	0.361641	0.023916
	H8740	H	0.641896	0.362134	0.028449
	H8741	H	0.735039	0.144649	0.036039
	H8742	H	0.734940	0.361617	0.036143
	H8743	H	0.726267	0.064464	0.116664
	H8744	H	0.720055	0.064948	0.114594
	H8745	H	0.710620	0.064998	0.116165
	H8746	H	0.663152	0.941388	0.007494
	H8747	H	0.657551	0.941136	0.005712
	H8748	H	0.658402	0.940886	0.001583
	H8749	H	0.726264	0.941021	0.116675
	H8750	H	0.720216	0.940604	0.114590
	H8751	H	0.710593	0.941260	0.116206
	Zn8752	Zn	0.602004	0.680536	0.066558
	Zn8753	Zn	0.602088	0.825688	0.066536
	Zn8754	Zn	0.602213	0.180260	0.066551
	Zn8755	Zn	0.602088	0.325597	0.066529
	Zn8756	Zn	0.718035	0.680360	0.118331
	Zn8757	Zn	0.718232	0.825435	0.118400
	Zn8758	Zn	0.718110	0.180479	0.118347
	Zn8759	Zn	0.718225	0.325555	0.118360
	C8760	C	0.751532	0.752669	0.044120
	C8761	C	0.631032	0.753139	0.078329
	C8762	C	0.646221	0.753138	0.085596
	C8763	C	0.653104	0.691927	0.089076
	C8764	C	0.653343	0.814398	0.089010
	C8765	C	0.631061	0.253438	0.078314
	C8766	C	0.646223	0.253408	0.085602
	C8767	C	0.653238	0.191864	0.089037
	C8768	C	0.653152	0.314920	0.089111
	C8769	C	0.625928	0.752848	0.053817
	C8770	C	0.633019	0.753014	0.044838
	C8771	C	0.635404	0.815102	0.040492
	C8772	C	0.635393	0.691000	0.040468
	C8773	C	0.625975	0.253348	0.053817
	C8774	C	0.633038	0.253097	0.044826
	C8775	C	0.635521	0.314967	0.040464
	C8776	C	0.635396	0.190982	0.040491
	C8777	C	0.777872	0.043094	0.055396
	C8778	C	0.777923	0.962272	0.055398
	C8779	C	0.594062	0.043400	0.066837
	C8780	C	0.594008	0.962599	0.066855
	C8781	C	0.607079	0.043245	0.069493
	C8782	C	0.607005	0.962476	0.069522
	C8783	C	0.594468	0.462508	0.065786
	C8784	C	0.779175	0.462469	0.053617
	C8785	C	0.785925	0.462300	0.056415
	C8786	C	0.594446	0.543356	0.065790
	C8787	C	0.785947	0.543152	0.056399
	C8788	C	0.779113	0.543049	0.053600
	C8789	C	0.756592	0.752894	0.068518
	C8790	C	0.756620	0.252878	0.068556
	C8791	C	0.749488	0.752931	0.077500
	C8792	C	0.746803	0.691030	0.081807
	C8793	C	0.747258	0.814877	0.081875
	C8794	C	0.749540	0.252889	0.077551
	C8795	C	0.747286	0.190817	0.081919
	C8796	C	0.746965	0.314923	0.081879
	C8797	C	0.751607	0.253243	0.044112
	C8798	C	0.693443	0.752599	0.015839
	C8799	C	0.646810	0.753147	0.018204
	C8800	C	0.689104	0.753003	0.106637
	C8801	C	0.729297	0.691286	0.033413
	C8802	C	0.729332	0.814035	0.033368
	C8803	C	0.708634	0.752622	0.023094
	C8804	C	0.641815	0.753225	0.027502
	C8805	C	0.639828	0.691057	0.031879
	C8806	C	0.715529	0.691288	0.026613
	C8807	C	0.715576	0.813995	0.026570
	C8808	C	0.639855	0.815180	0.031909
	C8809	C	0.736382	0.752667	0.036835
	C8810	C	0.735494	0.752927	0.104072
	C8811	C	0.742248	0.691077	0.090375
	C8812	C	0.742732	0.814892	0.090451
	C8813	C	0.740462	0.753006	0.094797
	C8814	C	0.714953	0.462412	0.119919
	C8815	C	0.663485	0.462202	0.003885
	C8816	C	0.723214	0.462521	0.118915
	C8817	C	0.714896	0.543219	0.119913
	C8818	C	0.723181	0.543137	0.118907
	C8819	C	0.663494	0.543049	0.003895
	C8820	C	0.735724	0.252926	0.104143
	C8821	C	0.742788	0.190817	0.090501
	C8822	C	0.742471	0.314805	0.090457
	C8823	C	0.740629	0.252815	0.094872
	C8824	C	0.661430	0.043242	0.005914
	C8825	C	0.693526	0.253293	0.015830
	C8826	C	0.646972	0.252403	0.018238
	C8827	C	0.689233	0.252860	0.106613
	C8828	C	0.729476	0.191940	0.033339
	C8829	C	0.729418	0.314552	0.033394
	C8830	C	0.708678	0.253331	0.023101
	C8831	C	0.642006	0.252541	0.027514
	C8832	C	0.673926	0.753104	0.099344
	C8833	C	0.667081	0.814306	0.095823
	C8834	C	0.666829	0.692041	0.095889
	C8835	C	0.673983	0.253101	0.099351
	C8836	C	0.666934	0.314793	0.095906
	C8837	C	0.667010	0.191730	0.095837
	C8838	C	0.639889	0.190683	0.031917
	C8839	C	0.715686	0.192001	0.026547
	C8840	C	0.715629	0.314609	0.026604
	C8841	C	0.640040	0.314663	0.031896
	C8842	C	0.736431	0.253246	0.036838
	C8843	C	0.721968	0.043320	0.116355
	C8844	C	0.662254	0.043034	0.001804
	C8845	C	0.661440	0.962357	0.005913
	C8846	C	0.721967	0.962319	0.116354
	C8847	C	0.662229	0.962345	0.001803
	N8848	N	0.602085	0.070092	0.066544
	N8849	N	0.602006	0.935598	0.066590
	N8850	N	0.601841	0.435830	0.066576
	N8851	N	0.601781	0.570393	0.066565
	N8852	N	0.718344	0.435533	0.118354
	N8853	N	0.718277	0.570074	0.118342
	N8854	N	0.718394	0.070173	0.118411
	N8855	N	0.718432	0.935544	0.118426
	O8856	O	0.738797	0.694154	0.174186
	O8857	O	0.738866	0.811003	0.174110
	O8858	O	0.672714	0.694679	0.191851
	O8859	O	0.672631	0.811661	0.191932
	O8860	O	0.672525	0.194400	0.191869
	O8861	O	0.672778	0.311428	0.191868
	O8862	O	0.670990	0.694863	0.170179
	O8863	O	0.670745	0.811483	0.170183
	O8864	O	0.670917	0.194740	0.170196
	O8865	O	0.670711	0.311202	0.170166
	O8866	O	0.738282	0.694339	0.194777
	O8867	O	0.738117	0.811103	0.194714
	O8868	O	0.738132	0.194453	0.194783
	O8869	O	0.738254	0.311035	0.194795
	O8870	O	0.738615	0.194603	0.174140
	O8871	O	0.738875	0.311262	0.174128
	O8872	O	0.735448	0.693549	0.129408
	O8873	O	0.697603	0.694569	0.127750
	O8874	O	0.714360	0.694721	0.237846
	O8875	O	0.714199	0.811710	0.237800
	O8876	O	0.676497	0.693814	0.236624
	O8877	O	0.676168	0.810461	0.236698
	O8878	O	0.697477	0.811376	0.127700
	O8879	O	0.735429	0.810296	0.129409
	O8880	O	0.735510	0.194637	0.129398
	O8881	O	0.697516	0.194353	0.127725
	O8882	O	0.714202	0.193489	0.237804
	O8883	O	0.714523	0.310324	0.237859
	O8884	O	0.676069	0.195184	0.236657
	O8885	O	0.676595	0.311741	0.236587
	O8886	O	0.697525	0.311179	0.127709
	O8887	O	0.735520	0.311425	0.129414
	H8888	H	0.674594	0.642958	0.206232
	H8889	H	0.673808	0.862542	0.206307
	H8890	H	0.673949	0.142942	0.206243
	H8891	H	0.674436	0.362724	0.206229
	H8892	H	0.677854	0.862547	0.156349
	H8893	H	0.678240	0.643880	0.156393
	H8894	H	0.677993	0.362286	0.156364
	H8895	H	0.678279	0.143352	0.156410
	H8896	H	0.765080	0.064324	0.181706
	H8897	H	0.756335	0.064862	0.180039
	H8898	H	0.756355	0.941083	0.179987
	H8899	H	0.765088	0.940930	0.181725
	H8900	H	0.766985	0.064083	0.187264
	H8901	H	0.766940	0.940794	0.187286
	H8902	H	0.652781	0.064516	0.180215
	H8903	H	0.652739	0.941170	0.180244
	H8904	H	0.652852	0.064652	0.181366
	H8905	H	0.652789	0.941282	0.181406
	H8906	H	0.655922	0.064640	0.182108
	H8907	H	0.655891	0.941096	0.182142
	H8908	H	0.660130	0.440896	0.180148
	H8909	H	0.657151	0.441323	0.178823
	H8910	H	0.658809	0.441765	0.182474
	H8911	H	0.757496	0.441327	0.184502
	H8912	H	0.758178	0.441010	0.184907
	H8913	H	0.757878	0.440896	0.185203
	H8914	H	0.657156	0.564636	0.178863
	H8915	H	0.660150	0.564838	0.180114
	H8916	H	0.757724	0.564501	0.185211
	H8917	H	0.758149	0.564205	0.184923
	H8918	H	0.757576	0.564526	0.184513
	H8919	H	0.658777	0.564703	0.182433
	H8920	H	0.730566	0.642895	0.208618
	H8921	H	0.729920	0.862623	0.208495
	H8922	H	0.729924	0.142573	0.208507
	H8923	H	0.730661	0.362234	0.208671
	H8924	H	0.686671	0.643797	0.140973
	H8925	H	0.736642	0.642306	0.143789
	H8926	H	0.737149	0.861941	0.143754
	H8927	H	0.686336	0.862501	0.140940
	H8928	H	0.735834	0.642554	0.159800
	H8929	H	0.736397	0.862235	0.159741
	H8930	H	0.723645	0.643124	0.224225
	H8931	H	0.723058	0.862905	0.224119
	H8932	H	0.711392	0.441118	0.119510
	H8933	H	0.698356	0.440793	0.249019
	H8934	H	0.713205	0.441066	0.115858
	H8935	H	0.719138	0.440968	0.115079
	H8936	H	0.696426	0.441484	0.245400
	H8937	H	0.699440	0.440943	0.246627
	H8938	H	0.698344	0.564191	0.249031
	H8939	H	0.711300	0.564441	0.119472
	H8940	H	0.699443	0.564713	0.246636
	H8941	H	0.696302	0.564645	0.245406
	H8942	H	0.719108	0.564753	0.115084
	H8943	H	0.713177	0.564530	0.115864
	H8944	H	0.722954	0.142120	0.224113
	H8945	H	0.723685	0.361700	0.224269
	H8946	H	0.718103	0.064617	0.122322
	H8947	H	0.725069	0.064541	0.121154
	H8948	H	0.709714	0.064439	0.119493
	H8949	H	0.673088	0.862370	0.222310
	H8950	H	0.673934	0.642377	0.222238
	H8951	H	0.673882	0.362971	0.222239
	H8952	H	0.673324	0.143086	0.222254
	H8953	H	0.686810	0.143202	0.141004
	H8954	H	0.736720	0.143321	0.143755
	H8955	H	0.736861	0.362727	0.143782
	H8956	H	0.686471	0.362288	0.140964
	H8957	H	0.736024	0.143209	0.159751
	H8958	H	0.736113	0.362588	0.159762
	H8959	H	0.703269	0.064407	0.246731
	H8960	H	0.698752	0.064310	0.244088
	H8961	H	0.688673	0.064698	0.244485
	H8962	H	0.725126	0.941454	0.121163
	H8963	H	0.718217	0.941206	0.122327
	H8964	H	0.709810	0.941547	0.119461
	H8965	H	0.703239	0.941119	0.246765
	H8966	H	0.698753	0.941111	0.244089
	H8967	H	0.688677	0.941356	0.244488
	Zn8968	Zn	0.655500	0.680041	0.180787
	Zn8969	Zn	0.655452	0.825640	0.180861
	Zn8970	Zn	0.655447	0.180146	0.180824
	Zn8971	Zn	0.655442	0.325673	0.180831
	Zn8972	Zn	0.694773	0.680266	0.247427
	Zn8973	Zn	0.694486	0.825558	0.247420
	Zn8974	Zn	0.694485	0.180246	0.247460
	Zn8975	Zn	0.694804	0.325286	0.247410
	C8976	C	0.737560	0.752424	0.170426
	C8977	C	0.673598	0.753020	0.195625
	C8978	C	0.674563	0.752752	0.205307
	C8979	C	0.674386	0.690574	0.209815
	C8980	C	0.673955	0.814791	0.209864
	C8981	C	0.673613	0.252904	0.195595
	C8982	C	0.674610	0.252874	0.205257
	C8983	C	0.674026	0.190757	0.209798
	C8984	C	0.674315	0.314983	0.209798
	C8985	C	0.672896	0.753264	0.166595
	C8986	C	0.677851	0.753283	0.157329
	C8987	C	0.679817	0.815097	0.152931
	C8988	C	0.680013	0.691330	0.152954
	C8989	C	0.672895	0.252931	0.166595
	C8990	C	0.677904	0.252784	0.157323
	C8991	C	0.679878	0.314766	0.152929
	C8992	C	0.680078	0.190765	0.152949
	C8993	C	0.759726	0.043297	0.181914
	C8994	C	0.759754	0.962351	0.181908
	C8995	C	0.653563	0.043287	0.180803
	C8996	C	0.653562	0.962543	0.180816
	C8997	C	0.656609	0.043370	0.181587
	C8998	C	0.656640	0.962609	0.181592
	C8999	C	0.657880	0.462300	0.179834
	C9000	C	0.757123	0.462419	0.184606
	C9001	C	0.757774	0.462375	0.185007
	C9002	C	0.657929	0.543298	0.179826
	C9003	C	0.757718	0.543187	0.185011
	C9004	C	0.757146	0.543117	0.184599
	C9005	C	0.735662	0.752765	0.198277
	C9006	C	0.735676	0.252711	0.198329
	C9007	C	0.730473	0.752766	0.207581
	C9008	C	0.728894	0.690723	0.212064
	C9009	C	0.728541	0.814964	0.212000
	C9010	C	0.730415	0.252413	0.207594
	C9011	C	0.728482	0.190221	0.212004
	C9012	C	0.728911	0.314389	0.212093
	C9013	C	0.737443	0.252905	0.170410
	C9014	C	0.736408	0.751902	0.133161
	C9015	C	0.694140	0.753036	0.131051
	C9016	C	0.675018	0.752203	0.232927
	C9017	C	0.736173	0.690202	0.156234
	C9018	C	0.736449	0.814322	0.156203
	C9019	C	0.737333	0.752077	0.142816
	C9020	C	0.686960	0.753153	0.140029
	C9021	C	0.684585	0.691264	0.144384
	C9022	C	0.736728	0.690019	0.147351
	C9023	C	0.737014	0.814272	0.147327
	C9024	C	0.684382	0.815036	0.144361
	C9025	C	0.736084	0.752301	0.160762
	C9026	C	0.717201	0.753174	0.234370
	C9027	C	0.725212	0.690841	0.220755
	C9028	C	0.724880	0.815096	0.220688
	C9029	C	0.723148	0.753076	0.225163
	C9030	C	0.695990	0.462259	0.248800
	C9031	C	0.716768	0.462327	0.116239
	C9032	C	0.697129	0.462449	0.246394
	C9033	C	0.695991	0.543009	0.248803
	C9034	C	0.697072	0.543402	0.246387
	C9035	C	0.716748	0.543354	0.116232
	C9036	C	0.717219	0.251881	0.234367
	C9037	C	0.724758	0.189964	0.220679
	C9038	C	0.725178	0.314111	0.220769
	C9039	C	0.723036	0.251918	0.225152
	C9040	C	0.720820	0.043259	0.120857
	C9041	C	0.736406	0.252972	0.133150
	C9042	C	0.694179	0.252804	0.131059
	C9043	C	0.675060	0.253379	0.232887
	C9044	C	0.736133	0.190838	0.156203
	C9045	C	0.736201	0.314887	0.156216
	C9046	C	0.737155	0.252904	0.142800
	C9047	C	0.687048	0.252845	0.140028
	C9048	C	0.673445	0.752344	0.223263
	C9049	C	0.673465	0.814688	0.218750
	C9050	C	0.673904	0.690295	0.218699
	C9051	C	0.673483	0.253127	0.223213
	C9052	C	0.673860	0.315161	0.218683
	C9053	C	0.673556	0.190802	0.218690
	C9054	C	0.684665	0.190865	0.144381
	C9055	C	0.736684	0.190838	0.147319
	C9056	C	0.736743	0.314983	0.147335
	C9057	C	0.684469	0.314735	0.144362
	C9058	C	0.735891	0.252811	0.160743
	C9059	C	0.699297	0.043217	0.245952
	C9060	C	0.712377	0.043398	0.117972
	C9061	C	0.720825	0.962509	0.120847
	C9062	C	0.699292	0.962447	0.245963
	C9063	C	0.712406	0.962693	0.117981
	N9064	N	0.655564	0.070195	0.180826
	N9065	N	0.655560	0.935698	0.180838
	N9066	N	0.655608	0.435553	0.180843
	N9067	N	0.655645	0.570033	0.180840
	N9068	N	0.694963	0.435505	0.247412
	N9069	N	0.694925	0.570057	0.247428
	N9070	N	0.694597	0.070182	0.247443
	N9071	N	0.694609	0.935665	0.247449
	O9072	O	0.727519	0.695742	0.302570
	O9073	O	0.727935	0.812501	0.302493
	O9074	O	0.650664	0.694267	0.320635
	O9075	O	0.651289	0.810965	0.320552
	O9076	O	0.651242	0.194985	0.320531
	O9077	O	0.650696	0.311884	0.320633
	O9078	O	0.651820	0.694259	0.300335
	O9079	O	0.651965	0.810828	0.300336
	O9080	O	0.651886	0.195474	0.300332
	O9081	O	0.651852	0.311977	0.300333
	O9082	O	0.726644	0.695273	0.322758
	O9083	O	0.726864	0.811879	0.322787
	O9084	O	0.727004	0.194330	0.322816
	O9085	O	0.726640	0.310861	0.322706
	O9086	O	0.727849	0.193415	0.302583
	O9087	O	0.727401	0.310088	0.302571
	O9088	O	0.713366	0.695213	0.258084
	O9089	O	0.675791	0.693847	0.257315
	O9090	O	0.702821	0.693944	0.365781
	O9091	O	0.703210	0.810714	0.365842
	O9092	O	0.664970	0.695771	0.365104
	O9093	O	0.665806	0.812407	0.364981
	O9094	O	0.675681	0.810416	0.257279
	O9095	O	0.713196	0.811972	0.258109
	O9096	O	0.713377	0.193591	0.258051
	O9097	O	0.675769	0.195146	0.257311
	O9098	O	0.703308	0.195537	0.365876
	O9099	O	0.702685	0.312263	0.365772
	O9100	O	0.665863	0.193316	0.364957
	O9101	O	0.665173	0.309932	0.365080
	O9102	O	0.675813	0.311895	0.257248
	O9103	O	0.713407	0.310353	0.258108
	H9104	H	0.655573	0.643120	0.334869
	H9105	H	0.657427	0.862418	0.334739
	H9106	H	0.657149	0.143114	0.334706
	H9107	H	0.655993	0.362468	0.334911
	H9108	H	0.660856	0.862179	0.286667
	H9109	H	0.660867	0.642625	0.286727
	H9110	H	0.661025	0.363724	0.286690
	H9111	H	0.661165	0.144143	0.286701
	H9112	H	0.761172	0.064642	0.310072
	H9113	H	0.750005	0.064562	0.306176
	H9114	H	0.750000	0.941108	0.306186
	H9115	H	0.761183	0.941025	0.310038
	H9116	H	0.758968	0.064182	0.318375
	H9117	H	0.758974	0.941215	0.318329
	H9118	H	0.634989	0.064332	0.310288
	H9119	H	0.634999	0.941004	0.310291
	H9120	H	0.634504	0.064474	0.309299
	H9121	H	0.634574	0.940963	0.309308
	H9122	H	0.631525	0.064780	0.308847
	H9123	H	0.631586	0.941048	0.308840
	H9124	H	0.631403	0.441499	0.316707
	H9125	H	0.643449	0.441547	0.314768
	H9126	H	0.617273	0.441289	0.311630
	H9127	H	0.754832	0.440440	0.311569
	H9128	H	0.752847	0.441356	0.316237
	H9129	H	0.745319	0.441277	0.317238
	H9130	H	0.643439	0.564537	0.314785
	H9131	H	0.631320	0.564822	0.316723
	H9132	H	0.745286	0.564448	0.317247
	H9133	H	0.752865	0.564482	0.316253
	H9134	H	0.754930	0.564615	0.311517
	H9135	H	0.617245	0.564900	0.311601
	H9136	H	0.717267	0.643073	0.336336
	H9137	H	0.718192	0.863096	0.336530
	H9138	H	0.718176	0.143147	0.336566
	H9139	H	0.717065	0.362618	0.336234
	H9140	H	0.667819	0.642463	0.271142
	H9141	H	0.718542	0.644057	0.272342
	H9142	H	0.718901	0.863656	0.272283
	H9143	H	0.667862	0.861907	0.271090
	H9144	H	0.721909	0.644453	0.288359
	H9145	H	0.722310	0.863684	0.288287
	H9146	H	0.710500	0.642562	0.351943
	H9147	H	0.711298	0.862382	0.352141
	H9148	H	0.694371	0.441199	0.249564
	H9149	H	0.684573	0.441315	0.371077
	H9150	H	0.690211	0.440802	0.247847
	H9151	H	0.690942	0.441239	0.246074
	H9152	H	0.674417	0.441649	0.377469
	H9153	H	0.674326	0.441097	0.373574
	H9154	H	0.684637	0.564627	0.371081
	H9155	H	0.694417	0.564498	0.249545
	H9156	H	0.674271	0.564924	0.373611
	H9157	H	0.674474	0.564899	0.377481
	H9158	H	0.690980	0.564455	0.246168
	H9159	H	0.690224	0.564303	0.247895
	H9160	H	0.711456	0.144085	0.352181
	H9161	H	0.710303	0.363428	0.351863
	H9162	H	0.691965	0.064660	0.251086
	H9163	H	0.699352	0.064742	0.250779
	H9164	H	0.685848	0.064492	0.247443
	H9165	H	0.660776	0.863073	0.350736
	H9166	H	0.658947	0.643742	0.350899
	H9167	H	0.659354	0.361503	0.350923
	H9168	H	0.660559	0.142433	0.350732
	H9169	H	0.668052	0.144286	0.271099
	H9170	H	0.718848	0.142085	0.272282
	H9171	H	0.718658	0.361464	0.272289
	H9172	H	0.667938	0.363827	0.271089
	H9173	H	0.722159	0.142045	0.288276
	H9174	H	0.721927	0.361372	0.288313
	H9175	H	0.679654	0.064557	0.374807
	H9176	H	0.679923	0.064753	0.376670
	H9177	H	0.685100	0.064838	0.377918
	H9178	H	0.699310	0.940889	0.250802
	H9179	H	0.691928	0.941096	0.251060
	H9180	H	0.685785	0.941478	0.247421
	H9181	H	0.679661	0.941487	0.374844
	H9182	H	0.679986	0.941309	0.376689
	H9183	H	0.685182	0.941492	0.377920
	Zn9184	Zn	0.632061	0.680476	0.309929
	Zn9185	Zn	0.632305	0.825299	0.309987
	Zn9186	Zn	0.632279	0.180379	0.309961
	Zn9187	Zn	0.632050	0.325371	0.309966
	Zn9188	Zn	0.683982	0.680596	0.375699
	Zn9189	Zn	0.684363	0.825452	0.375722
	Zn9190	Zn	0.684435	0.180853	0.375709
	Zn9191	Zn	0.683835	0.325613	0.375666
	C9192	C	0.725728	0.754059	0.298873
	C9193	C	0.652992	0.752701	0.324257
	C9194	C	0.656533	0.752795	0.333837
	C9195	C	0.656815	0.690872	0.338405
	C9196	C	0.657846	0.814956	0.338330
	C9197	C	0.652979	0.253306	0.324237
	C9198	C	0.656520	0.252883	0.333824
	C9199	C	0.657686	0.190582	0.338303
	C9200	C	0.657050	0.314618	0.338422
	C9201	C	0.654715	0.752492	0.296852
	C9202	C	0.660663	0.752456	0.287686
	C9203	C	0.662561	0.814372	0.283238
	C9204	C	0.662519	0.690331	0.283275
	C9205	C	0.654773	0.253732	0.296852
	C9206	C	0.660699	0.253880	0.287667
	C9207	C	0.662639	0.315994	0.283230
	C9208	C	0.662694	0.191863	0.283236
	C9209	C	0.753251	0.043356	0.309472
	C9210	C	0.753241	0.962429	0.309461
	C9211	C	0.634163	0.043218	0.309838
	C9212	C	0.634137	0.962494	0.309847
	C9213	C	0.631166	0.043502	0.309363
	C9214	C	0.631185	0.962521	0.309382
	C9215	C	0.635998	0.462617	0.314205
	C9216	C	0.750306	0.462291	0.311085
	C9217	C	0.748296	0.462450	0.315787
	C9218	C	0.635976	0.543405	0.314204
	C9219	C	0.748318	0.543086	0.315791
	C9220	C	0.750343	0.543419	0.311082
	C9221	C	0.723833	0.753564	0.326241
	C9222	C	0.723957	0.252670	0.326242
	C9223	C	0.718014	0.753156	0.335441
	C9224	C	0.715870	0.690806	0.339828
	C9225	C	0.716350	0.815136	0.339930
	C9226	C	0.718025	0.252865	0.335431
	C9227	C	0.716396	0.191115	0.339957
	C9228	C	0.715779	0.315094	0.339774
	C9229	C	0.725651	0.251653	0.298903
	C9230	C	0.715233	0.753557	0.261780
	C9231	C	0.673187	0.752156	0.260832
	C9232	C	0.663398	0.753928	0.361372
	C9233	C	0.721197	0.692017	0.284776
	C9234	C	0.721424	0.815998	0.284741
	C9235	C	0.718766	0.753752	0.271350
	C9236	C	0.668029	0.752170	0.270127
	C9237	C	0.666273	0.690249	0.274599
	C9238	C	0.719467	0.691797	0.275892
	C9239	C	0.719657	0.815937	0.275858
	C9240	C	0.666302	0.814210	0.274569
	C9241	C	0.722114	0.754005	0.289296
	C9242	C	0.705576	0.752330	0.362297
	C9243	C	0.712190	0.690451	0.348504
	C9244	C	0.712635	0.814791	0.348608
	C9245	C	0.710688	0.752438	0.352999
	C9246	C	0.687242	0.462607	0.373035
	C9247	C	0.691735	0.462360	0.247096
	C9248	C	0.676879	0.462596	0.375547
	C9249	C	0.687275	0.543332	0.373038
	C9250	C	0.676860	0.543580	0.375554
	C9251	C	0.691721	0.543163	0.247129
	C9252	C	0.705532	0.253924	0.362299
	C9253	C	0.712742	0.191582	0.348640
	C9254	C	0.712115	0.315578	0.348460
	C9255	C	0.710736	0.253791	0.353007
	C9256	C	0.695360	0.043421	0.250015
	C9257	C	0.715391	0.251851	0.261742
	C9258	C	0.673259	0.253686	0.260805
	C9259	C	0.663525	0.251718	0.361347
	C9260	C	0.721369	0.189804	0.284737
	C9261	C	0.721206	0.313737	0.284758
	C9262	C	0.718940	0.251744	0.271326
	C9263	C	0.668063	0.253928	0.270101
	C9264	C	0.659893	0.753455	0.351779
	C9265	C	0.659603	0.815265	0.347215
	C9266	C	0.658573	0.691176	0.347298
	C9267	C	0.659915	0.251945	0.351759
	C9268	C	0.658804	0.314196	0.347301
	C9269	C	0.659448	0.190125	0.347188
	C9270	C	0.666421	0.191920	0.274560
	C9271	C	0.719696	0.189700	0.275851
	C9272	C	0.719557	0.313866	0.275859
	C9273	C	0.666359	0.316025	0.274552
	C9274	C	0.722152	0.251700	0.289302
	C9275	C	0.681021	0.043484	0.375751
	C9276	C	0.689163	0.043267	0.246355
	C9277	C	0.695348	0.962441	0.250015
	C9278	C	0.681019	0.962943	0.375754
	C9279	C	0.689183	0.962683	0.246346
	N9280	N	0.632354	0.070226	0.309970
	N9281	N	0.632384	0.935668	0.309986
	N9282	N	0.632075	0.435694	0.309913
	N9283	N	0.632042	0.570260	0.309901
	N9284	N	0.683838	0.435766	0.375620
	N9285	N	0.683881	0.570326	0.375649
	N9286	N	0.684376	0.070361	0.375713
	N9287	N	0.684399	0.935737	0.375726
	O9288	O	0.705700	0.695081	0.431310
	O9289	O	0.706224	0.811781	0.431163
	O9290	O	0.639673	0.694088	0.448920
	O9291	O	0.639699	0.810701	0.448950
	O9292	O	0.639717	0.195349	0.448992
	O9293	O	0.639791	0.312063	0.448963
	O9294	O	0.640136	0.694368	0.428256
	O9295	O	0.640382	0.811027	0.428332
	O9296	O	0.640519	0.195197	0.428350
	O9297	O	0.640046	0.311864	0.428203
	O9298	O	0.707599	0.695073	0.452949
	O9299	O	0.707695	0.811570	0.452936
	O9300	O	0.707731	0.194286	0.452906
	O9301	O	0.707693	0.310701	0.452927
	O9302	O	0.706029	0.194182	0.431246
	O9303	O	0.705628	0.311101	0.431284
	O9304	O	0.702189	0.693488	0.386527
	O9305	O	0.664339	0.695109	0.385275
	O9306	O	0.681182	0.694659	0.495443
	O9307	O	0.680983	0.811419	0.495402
	O9308	O	0.643350	0.693126	0.493677
	O9309	O	0.643217	0.809993	0.493739
	O9310	O	0.664618	0.811891	0.385302
	O9311	O	0.702648	0.810108	0.386476
	O9312	O	0.702507	0.195949	0.386491
	O9313	O	0.664562	0.193537	0.385301
	O9314	O	0.681019	0.193577	0.495367
	O9315	O	0.681030	0.310374	0.495374
	O9316	O	0.643257	0.194544	0.493720
	O9317	O	0.643178	0.311370	0.493727
	O9318	O	0.664130	0.310279	0.385219
	O9319	O	0.701960	0.312571	0.386550
	H9320	H	0.642449	0.642223	0.463290
	H9321	H	0.642430	0.861764	0.463334
	H9322	H	0.642588	0.143728	0.463322
	H9323	H	0.642171	0.363276	0.463350
	H9324	H	0.648602	0.862751	0.414571
	H9325	H	0.647818	0.643295	0.414418
	H9326	H	0.647583	0.362459	0.414373
	H9327	H	0.648796	0.143009	0.414596
	H9328	H	0.723702	0.064526	0.445005
	H9329	H	0.728191	0.064691	0.443943
	H9330	H	0.728228	0.941556	0.443888
	H9331	H	0.723703	0.941302	0.445013
	H9332	H	0.717548	0.064492	0.443253
	H9333	H	0.717559	0.940998	0.443313
	H9334	H	0.616670	0.065127	0.437851
	H9335	H	0.616703	0.941292	0.437805
	H9336	H	0.617904	0.064837	0.439607
	H9337	H	0.617910	0.941379	0.439565
	H9338	H	0.623474	0.064378	0.440204
	H9339	H	0.623385	0.941361	0.440257
	H9340	H	0.614560	0.441644	0.439559
	H9341	H	0.619597	0.441435	0.441397
	H9342	H	0.615872	0.441153	0.435748
	H9343	H	0.720759	0.440915	0.442979
	H9344	H	0.720643	0.440889	0.441504
	H9345	H	0.722857	0.440950	0.441035
	H9346	H	0.619517	0.564761	0.441397
	H9347	H	0.614468	0.564706	0.439531
	H9348	H	0.722765	0.564064	0.441080
	H9349	H	0.720720	0.564382	0.441564
	H9350	H	0.720733	0.564380	0.442973
	H9351	H	0.615741	0.564960	0.435759
	H9352	H	0.700188	0.643980	0.466713
	H9353	H	0.700368	0.862380	0.466743
	H9354	H	0.700601	0.142705	0.466714
	H9355	H	0.700203	0.361244	0.466678
	H9356	H	0.654787	0.643686	0.398821
	H9357	H	0.704566	0.642482	0.400936
	H9358	H	0.705305	0.862229	0.400833
	H9359	H	0.655623	0.863092	0.398986
	H9360	H	0.703893	0.643010	0.416935
	H9361	H	0.704637	0.862674	0.416826
	H9362	H	0.691927	0.643842	0.482141
	H9363	H	0.692068	0.862370	0.482197
	H9364	H	0.692283	0.441513	0.373105
	H9365	H	0.664466	0.441080	0.501619
	H9366	H	0.692412	0.441174	0.378380
	H9367	H	0.684932	0.441719	0.380189
	H9368	H	0.652198	0.441013	0.504698
	H9369	H	0.654882	0.441283	0.501978
	H9370	H	0.664367	0.564633	0.501627
	H9371	H	0.692362	0.564693	0.373106
	H9372	H	0.654953	0.564986	0.501977
	H9373	H	0.652086	0.564512	0.504692
	H9374	H	0.684918	0.564784	0.380242
	H9375	H	0.692546	0.564623	0.378391
	H9376	H	0.692257	0.142315	0.482112
	H9377	H	0.691812	0.361190	0.482109
	H9378	H	0.688280	0.064558	0.374412
	H9379	H	0.684475	0.065022	0.373500
	H9380	H	0.688681	0.064430	0.376977
	H9381	H	0.641838	0.861503	0.479354
	H9382	H	0.641793	0.642097	0.479294
	H9383	H	0.641433	0.362890	0.479356
	H9384	H	0.641864	0.143545	0.479324
	H9385	H	0.655824	0.142563	0.399003
	H9386	H	0.705787	0.143883	0.400859
	H9387	H	0.704394	0.363674	0.400918
	H9388	H	0.654529	0.361761	0.398762
	H9389	H	0.705109	0.143420	0.416850
	H9390	H	0.703715	0.363020	0.416919
	H9391	H	0.663481	0.064648	0.507189
	H9392	H	0.666447	0.064296	0.505298
	H9393	H	0.663347	0.064001	0.502381
	H9394	H	0.684511	0.941221	0.373525
	H9395	H	0.688268	0.941128	0.374428
	H9396	H	0.688720	0.941296	0.376968
	H9397	H	0.663505	0.941193	0.507218
	H9398	H	0.666412	0.940886	0.505317
	H9399	H	0.663339	0.940431	0.502386
	Zn9400	Zn	0.621319	0.680622	0.438144
	Zn9401	Zn	0.621600	0.825383	0.438177
	Zn9402	Zn	0.621515	0.180689	0.438192
	Zn9403	Zn	0.621465	0.325430	0.438144
	Zn9404	Zn	0.660590	0.680022	0.504753
	Zn9405	Zn	0.660371	0.825224	0.504767
	Zn9406	Zn	0.660390	0.180093	0.504761
	Zn9407	Zn	0.660634	0.325313	0.504744
	C9408	C	0.704980	0.753182	0.427495
	C9409	C	0.640991	0.752296	0.452665
	C9410	C	0.642615	0.752038	0.462329
	C9411	C	0.642388	0.689894	0.466855
	C9412	C	0.642395	0.814073	0.466886
	C9413	C	0.641063	0.253741	0.452698
	C9414	C	0.642601	0.253596	0.462363
	C9415	C	0.642386	0.191399	0.466882
	C9416	C	0.642173	0.315563	0.466904
	C9417	C	0.642807	0.752758	0.424766
	C9418	C	0.648113	0.753011	0.415485
	C9419	C	0.650071	0.815149	0.411083
	C9420	C	0.649603	0.691064	0.410992
	C9421	C	0.642885	0.253312	0.424758
	C9422	C	0.648094	0.252908	0.415468
	C9423	C	0.649455	0.314805	0.410960
	C9424	C	0.650151	0.190634	0.411093
	C9425	C	0.725174	0.043338	0.443896
	C9426	C	0.725207	0.962650	0.443895
	C9427	C	0.618424	0.043661	0.438592
	C9428	C	0.618428	0.962683	0.438576
	C9429	C	0.623988	0.043338	0.439216
	C9430	C	0.623961	0.962534	0.439237
	C9431	C	0.618169	0.462704	0.439856
	C9432	C	0.722065	0.462268	0.442990
	C9433	C	0.722038	0.462183	0.441541
	C9434	C	0.618166	0.543340	0.439851
	C9435	C	0.722053	0.543035	0.441557
	C9436	C	0.722078	0.543025	0.442985
	C9437	C	0.705528	0.753354	0.456516
	C9438	C	0.705598	0.252439	0.456493
	C9439	C	0.700553	0.753280	0.465778
	C9440	C	0.698438	0.691459	0.470158
	C9441	C	0.698547	0.814982	0.470180
	C9442	C	0.700589	0.252142	0.465762
	C9443	C	0.698668	0.190106	0.470146
	C9444	C	0.698440	0.313835	0.470138
	C9445	C	0.704913	0.252722	0.427526
	C9446	C	0.703678	0.751875	0.390239
	C9447	C	0.661594	0.753519	0.388752
	C9448	C	0.642371	0.751628	0.489968
	C9449	C	0.704097	0.690567	0.413345
	C9450	C	0.704527	0.814853	0.413284
	C9451	C	0.705138	0.752194	0.399899
	C9452	C	0.655625	0.753431	0.397941
	C9453	C	0.653354	0.691274	0.402319
	C9454	C	0.704629	0.690297	0.404464
	C9455	C	0.705068	0.814492	0.404404
	C9456	C	0.653860	0.815362	0.402411
	C9457	C	0.703966	0.752826	0.417840
	C9458	C	0.684451	0.753032	0.492081
	C9459	C	0.693941	0.691315	0.478728
	C9460	C	0.694027	0.814955	0.478756
	C9461	C	0.691563	0.753050	0.483087
	C9462	C	0.664863	0.462304	0.503367
	C9463	C	0.687417	0.462684	0.378335
	C9464	C	0.655322	0.462335	0.503690
	C9465	C	0.664866	0.543074	0.503374
	C9466	C	0.655308	0.543179	0.503690
	C9467	C	0.687441	0.543533	0.378342
	C9468	C	0.684412	0.251965	0.492035
	C9469	C	0.694085	0.189989	0.478710
	C9470	C	0.693870	0.313791	0.478705
	C9471	C	0.691488	0.251925	0.483058
	C9472	C	0.685883	0.043492	0.374443
	C9473	C	0.703567	0.254197	0.390244
	C9474	C	0.661444	0.251927	0.388719
	C9475	C	0.642258	0.253011	0.489984
	C9476	C	0.704842	0.191204	0.413312
	C9477	C	0.704074	0.315459	0.413342
	C9478	C	0.705142	0.253854	0.399900
	C9479	C	0.655544	0.252257	0.397927
	C9480	C	0.641496	0.751816	0.480292
	C9481	C	0.641914	0.813926	0.475772
	C9482	C	0.641882	0.689819	0.475742
	C9483	C	0.641398	0.253217	0.480313
	C9484	C	0.641660	0.315380	0.475786
	C9485	C	0.641866	0.191180	0.475769
	C9486	C	0.653890	0.190325	0.402423
	C9487	C	0.705308	0.191580	0.404426
	C9488	C	0.704554	0.315821	0.404459
	C9489	C	0.653202	0.314450	0.402286
	C9490	C	0.704016	0.253166	0.417858
	C9491	C	0.663694	0.043227	0.505846
	C9492	C	0.686257	0.043334	0.377010
	C9493	C	0.685864	0.962401	0.374440
	C9494	C	0.663682	0.962436	0.505848
	C9495	C	0.686283	0.962545	0.376990
	N9496	N	0.621557	0.070459	0.438217
	N9497	N	0.621558	0.935848	0.438221
	N9498	N	0.621392	0.435708	0.438173
	N9499	N	0.621330	0.570301	0.438153
	N9500	N	0.660486	0.435444	0.504771
	N9501	N	0.660435	0.569956	0.504753
	N9502	N	0.660183	0.069960	0.504749
	N9503	N	0.660195	0.935397	0.504752
	O9504	O	0.752431	0.694304	0.547856
	O9505	O	0.752300	0.810699	0.547896
	O9506	O	0.620706	0.693732	0.576281
	O9507	O	0.620871	0.810025	0.576261
	O9508	O	0.620934	0.194598	0.576170
	O9509	O	0.620665	0.310734	0.576309
	O9510	O	0.618342	0.693878	0.557791
	O9511	O	0.618606	0.810505	0.557847
	O9512	O	0.618639	0.195011	0.557855
	O9513	O	0.618409	0.311845	0.557884
	O9514	O	0.754509	0.694113	0.566262
	O9515	O	0.754715	0.810892	0.566281
	O9516	O	0.754694	0.194220	0.566261
	O9517	O	0.754507	0.310999	0.566246
	O9518	O	0.752254	0.194748	0.547911
	O9519	O	0.752411	0.311090	0.547821
	O9520	O	0.683434	0.694742	0.513808
	O9521	O	0.644892	0.693908	0.515337
	O9522	O	0.727989	0.694111	0.608734
	O9523	O	0.728156	0.810526	0.608821
	O9524	O	0.689685	0.694325	0.610374
	O9525	O	0.689831	0.810577	0.610301
	O9526	O	0.644873	0.810411	0.515343
	O9527	O	0.683250	0.811159	0.513848
	O9528	O	0.683137	0.194200	0.513838
	O9529	O	0.644784	0.195240	0.515345
	O9530	O	0.728157	0.194800	0.608799
	O9531	O	0.727973	0.311199	0.608752
	O9532	O	0.689643	0.194306	0.610378
	O9533	O	0.689674	0.310616	0.610357
	O9534	O	0.644918	0.311732	0.515385
	O9535	O	0.683387	0.310394	0.513767
	H9536	H	0.642889	0.643574	0.587239
	H9537	H	0.643223	0.860554	0.586998
	H9538	H	0.643297	0.144786	0.586998
	H9539	H	0.642928	0.360826	0.587211
	H9540	H	0.629369	0.861748	0.544580
	H9541	H	0.629369	0.642901	0.544567
	H9542	H	0.629428	0.363139	0.544621
	H9543	H	0.629413	0.144024	0.544592
	H9544	H	0.782019	0.064049	0.552306
	H9545	H	0.771442	0.064160	0.551517
	H9546	H	0.771485	0.940944	0.551530
	H9547	H	0.782068	0.941055	0.552324
	H9548	H	0.787621	0.064387	0.558364
	H9549	H	0.787594	0.940554	0.558350
	H9550	H	0.608436	0.064185	0.565749
	H9551	H	0.608464	0.940869	0.565799
	H9552	H	0.601710	0.064104	0.562678
	H9553	H	0.601870	0.941114	0.562648
	H9554	H	0.589276	0.064376	0.563913
	H9555	H	0.589296	0.940794	0.563936
	H9556	H	0.598590	0.440842	0.568400
	H9557	H	0.600268	0.441014	0.567719
	H9558	H	0.595362	0.440352	0.567902
	H9559	H	0.772900	0.440991	0.556690
	H9560	H	0.774734	0.441114	0.555906
	H9561	H	0.776591	0.440902	0.556080
	H9562	H	0.600297	0.564692	0.567737
	H9563	H	0.598510	0.564043	0.568409
	H9564	H	0.776627	0.564258	0.556118
	H9565	H	0.774759	0.564038	0.555924
	H9566	H	0.772937	0.564342	0.556782
	H9567	H	0.595419	0.563823	0.567907
	H9568	H	0.743245	0.643148	0.579472
	H9569	H	0.743813	0.861895	0.579535
	H9570	H	0.744070	0.143185	0.579594
	H9571	H	0.742941	0.362009	0.579381
	H9572	H	0.637586	0.642861	0.529125
	H9573	H	0.705722	0.644099	0.524641
	H9574	H	0.705656	0.861162	0.524652
	H9575	H	0.637552	0.861889	0.529127
	H9576	H	0.730136	0.644029	0.537003
	H9577	H	0.730121	0.861290	0.536993
	H9578	H	0.735037	0.643354	0.594931
	H9579	H	0.735549	0.861765	0.594991
	H9580	H	0.668561	0.441220	0.504182
	H9581	H	0.717567	0.440649	0.621602
	H9582	H	0.664893	0.440944	0.507866
	H9583	H	0.657965	0.440811	0.508142
	H9584	H	0.714429	0.440465	0.616555
	H9585	H	0.718820	0.440928	0.618224
	H9586	H	0.717560	0.564844	0.621567
	H9587	H	0.668626	0.564246	0.504171
	H9588	H	0.718747	0.564024	0.618209
	H9589	H	0.714290	0.564080	0.616595
	H9590	H	0.657897	0.564079	0.508122
	H9591	H	0.664737	0.564282	0.507908
	H9592	H	0.735817	0.143491	0.595029
	H9593	H	0.734718	0.362192	0.594850
	H9594	H	0.653928	0.064602	0.504670
	H9595	H	0.656262	0.064788	0.506809
	H9596	H	0.657937	0.064237	0.502100
	H9597	H	0.667675	0.860976	0.599322
	H9598	H	0.667308	0.644009	0.599599
	H9599	H	0.667258	0.360578	0.599579
	H9600	H	0.667649	0.144462	0.599372
	H9601	H	0.637530	0.143738	0.529141
	H9602	H	0.705623	0.144079	0.524714
	H9603	H	0.705556	0.360409	0.524660
	H9604	H	0.637667	0.363090	0.529176
	H9605	H	0.730117	0.144540	0.537050
	H9606	H	0.730022	0.360874	0.536997
	H9607	H	0.720843	0.063757	0.621051
	H9608	H	0.720560	0.064243	0.617866
	H9609	H	0.711652	0.063976	0.615589
	H9610	H	0.656203	0.941119	0.506794
	H9611	H	0.653939	0.941347	0.504662
	H9612	H	0.658001	0.940883	0.502058
	H9613	H	0.720797	0.940610	0.621015
	H9614	H	0.720508	0.940391	0.617841
	H9615	H	0.711579	0.940709	0.615626
	Zn9616	Zn	0.597789	0.680186	0.567219
	Zn9617	Zn	0.598018	0.825371	0.567243
	Zn9618	Zn	0.598025	0.179998	0.567189
	Zn9619	Zn	0.597732	0.325197	0.567216
	Zn9620	Zn	0.712588	0.679888	0.619397
	Zn9621	Zn	0.712621	0.824807	0.619434
	Zn9622	Zn	0.712633	0.179999	0.619406
	Zn9623	Zn	0.712559	0.324964	0.619409
	C9624	C	0.746427	0.752516	0.545117
	C9625	C	0.626759	0.751804	0.579024
	C9626	C	0.641656	0.751941	0.586364
	C9627	C	0.648426	0.690770	0.589941
	C9628	C	0.648593	0.813492	0.589797
	C9629	C	0.626717	0.252641	0.579019
	C9630	C	0.641586	0.252743	0.586388
	C9631	C	0.648606	0.191563	0.589808
	C9632	C	0.648386	0.313851	0.589936
	C9633	C	0.621828	0.752178	0.554473
	C9634	C	0.628823	0.752233	0.545475
	C9635	C	0.631245	0.814206	0.541137
	C9636	C	0.631269	0.690348	0.541128
	C9637	C	0.621892	0.253578	0.554534
	C9638	C	0.628884	0.253533	0.545518
	C9639	C	0.631353	0.315525	0.541186
	C9640	C	0.631352	0.191555	0.541158
	C9641	C	0.776349	0.042851	0.553226
	C9642	C	0.776389	0.962143	0.553225
	C9643	C	0.603180	0.042709	0.564994
	C9644	C	0.603202	0.962150	0.565008
	C9645	C	0.590622	0.043029	0.566228
	C9646	C	0.590643	0.962092	0.566231
	C9647	C	0.598905	0.462164	0.567847
	C9648	C	0.773867	0.462031	0.557107
	C9649	C	0.775610	0.462164	0.556257
	C9650	C	0.598939	0.543090	0.567837
	C9651	C	0.775603	0.543048	0.556271
	C9652	C	0.773854	0.543023	0.557129
	C9653	C	0.751168	0.752544	0.569593
	C9654	C	0.751218	0.252566	0.569590
	C9655	C	0.744074	0.752584	0.578582
	C9656	C	0.741444	0.690765	0.582913
	C9657	C	0.741742	0.814376	0.582948
	C9658	C	0.744160	0.252597	0.578582
	C9659	C	0.741964	0.190727	0.582975
	C9660	C	0.741361	0.314516	0.582870
	C9661	C	0.746459	0.252907	0.545080
	C9662	C	0.689286	0.752976	0.516589
	C9663	C	0.642762	0.752138	0.518914
	C9664	C	0.683836	0.752450	0.607559
	C9665	C	0.724710	0.691200	0.534254
	C9666	C	0.724701	0.814130	0.534243
	C9667	C	0.704278	0.752764	0.523918
	C9668	C	0.637777	0.752281	0.528179
	C9669	C	0.635799	0.690302	0.532562
	C9670	C	0.711168	0.691222	0.527406
	C9671	C	0.711137	0.814189	0.527405
	C9672	C	0.635767	0.814318	0.532570
	C9673	C	0.731532	0.752672	0.537762
	C9674	C	0.730154	0.752476	0.605187
	C9675	C	0.736929	0.690793	0.591494
	C9676	C	0.737229	0.814423	0.591528
	C9677	C	0.735042	0.752634	0.595906
	C9678	C	0.714414	0.461991	0.621294
	C9679	C	0.661113	0.462263	0.507143
	C9680	C	0.715638	0.462009	0.617912
	C9681	C	0.714381	0.542952	0.621282
	C9682	C	0.715576	0.542710	0.617923
	C9683	C	0.661060	0.543128	0.507144
	C9684	C	0.730176	0.252956	0.605192
	C9685	C	0.737453	0.190974	0.591558
	C9686	C	0.736846	0.314704	0.591451
	C9687	C	0.735175	0.252946	0.595910
	C9688	C	0.656407	0.043259	0.505469
	C9689	C	0.689274	0.252258	0.516539
	C9690	C	0.642696	0.253462	0.518933
	C9691	C	0.683730	0.252449	0.607604
	C9692	C	0.724639	0.191399	0.534276
	C9693	C	0.724595	0.313854	0.534249
	C9694	C	0.704248	0.252290	0.523873
	C9695	C	0.637751	0.253405	0.528190
	C9696	C	0.668962	0.752471	0.600205
	C9697	C	0.662152	0.813747	0.596642
	C9698	C	0.661957	0.691050	0.596794
	C9699	C	0.668825	0.252498	0.600254
	C9700	C	0.661878	0.313676	0.596812
	C9701	C	0.662082	0.191500	0.596685
	C9702	C	0.635793	0.191410	0.532577
	C9703	C	0.711090	0.191159	0.527426
	C9704	C	0.711044	0.313557	0.527402
	C9705	C	0.635808	0.315441	0.532605
	C9706	C	0.731550	0.252774	0.537721
	C9707	C	0.718662	0.042622	0.619445
	C9708	C	0.660506	0.042855	0.502891
	C9709	C	0.656388	0.962375	0.505462
	C9710	C	0.718625	0.961775	0.619421
	C9711	C	0.660510	0.962025	0.502897
	N9712	N	0.597791	0.069877	0.567225
	N9713	N	0.597832	0.935348	0.567239
	N9714	N	0.597626	0.435312	0.567202
	N9715	N	0.597670	0.569867	0.567220
	N9716	N	0.712756	0.435133	0.619416
	N9717	N	0.712772	0.569624	0.619414
	N9718	N	0.712870	0.069700	0.619450
	N9719	N	0.712833	0.935080	0.619448
	O9720	O	0.732955	0.694798	0.675235
	O9721	O	0.733343	0.811335	0.675199
	O9722	O	0.667247	0.693867	0.692873
	O9723	O	0.667241	0.810589	0.692886
	O9724	O	0.667199	0.194388	0.692872
	O9725	O	0.667325	0.311253	0.692831
	O9726	O	0.665406	0.693890	0.671235
	O9727	O	0.665585	0.810505	0.671308
	O9728	O	0.665467	0.194687	0.671270
	O9729	O	0.665505	0.311440	0.671253
	O9730	O	0.732868	0.695130	0.695978
	O9731	O	0.732989	0.811831	0.695995
	O9732	O	0.732982	0.194087	0.695966
	O9733	O	0.733062	0.310788	0.696015
	O9734	O	0.733387	0.194034	0.675150
	O9735	O	0.733000	0.310698	0.675194
	O9736	O	0.729855	0.693513	0.630423
	O9737	O	0.692099	0.694292	0.628812
	O9738	O	0.708299	0.695188	0.738868
	O9739	O	0.708183	0.811768	0.738894
	O9740	O	0.670425	0.693615	0.737613
	O9741	O	0.670195	0.810389	0.737577
	O9742	O	0.692133	0.811067	0.628792
	O9743	O	0.729995	0.810556	0.630426
	O9744	O	0.730018	0.194722	0.630432
	O9745	O	0.692227	0.193973	0.628798
	O9746	O	0.708026	0.193809	0.738900
	O9747	O	0.708122	0.310499	0.738856
	O9748	O	0.670155	0.194984	0.737603
	O9749	O	0.670325	0.311726	0.737607
	O9750	O	0.691952	0.310673	0.628748
	O9751	O	0.729917	0.311500	0.630406
	H9752	H	0.668854	0.642191	0.707245
	H9753	H	0.668681	0.862004	0.707237
	H9754	H	0.668569	0.143067	0.707169
	H9755	H	0.668981	0.362781	0.707226
	H9756	H	0.673057	0.861909	0.657519
	H9757	H	0.672641	0.643252	0.657452
	H9758	H	0.672571	0.362033	0.657440
	H9759	H	0.672726	0.143615	0.657463
	H9760	H	0.741018	0.064479	0.683196
	H9761	H	0.740044	0.064800	0.687566
	H9762	H	0.740208	0.940711	0.687542
	H9763	H	0.741083	0.941093	0.683226
	H9764	H	0.753579	0.064707	0.680928
	H9765	H	0.753505	0.941481	0.680922
	H9766	H	0.647270	0.064437	0.684375
	H9767	H	0.647310	0.941140	0.684366
	H9768	H	0.652730	0.064742	0.684532
	H9769	H	0.652694	0.940787	0.684509
	H9770	H	0.656552	0.064220	0.681742
	H9771	H	0.656572	0.940755	0.681760
	H9772	H	0.648444	0.441183	0.684969
	H9773	H	0.654448	0.441473	0.684512
	H9774	H	0.642606	0.441290	0.682205
	H9775	H	0.754396	0.441183	0.686680
	H9776	H	0.750990	0.441312	0.687616
	H9777	H	0.748269	0.441366	0.686961
	H9778	H	0.654568	0.564472	0.684480
	H9779	H	0.648492	0.564445	0.684977
	H9780	H	0.748281	0.564589	0.686958
	H9781	H	0.750887	0.565023	0.687611
	H9782	H	0.754481	0.564723	0.686673
	H9783	H	0.642623	0.564331	0.682183
	H9784	H	0.724603	0.644113	0.709743
	H9785	H	0.725159	0.863244	0.709831
	H9786	H	0.724747	0.142242	0.709723
	H9787	H	0.725215	0.361930	0.709811
	H9788	H	0.680847	0.643290	0.642009
	H9789	H	0.730993	0.642704	0.644818
	H9790	H	0.731766	0.862112	0.644799
	H9791	H	0.681344	0.861974	0.642096
	H9792	H	0.730130	0.642893	0.660808
	H9793	H	0.731000	0.862631	0.660792
	H9794	H	0.717535	0.643915	0.725314
	H9795	H	0.718042	0.863047	0.725415
	H9796	H	0.712261	0.441085	0.622332
	H9797	H	0.696714	0.441149	0.745569
	H9798	H	0.706154	0.441258	0.620134
	H9799	H	0.706956	0.440419	0.617615
	H9800	H	0.678379	0.441021	0.746585
	H9801	H	0.684719	0.441452	0.743952
	H9802	H	0.696621	0.564669	0.745599
	H9803	H	0.712327	0.564040	0.622340
	H9804	H	0.684831	0.564877	0.743926
	H9805	H	0.678369	0.564596	0.746551
	H9806	H	0.707052	0.564353	0.617646
	H9807	H	0.706201	0.564078	0.620082
	H9808	H	0.717316	0.142032	0.725282
	H9809	H	0.717821	0.361810	0.725342
	H9810	H	0.705883	0.064108	0.621648
	H9811	H	0.712295	0.063988	0.623274
	H9812	H	0.705474	0.064327	0.617246
	H9813	H	0.667895	0.861660	0.723224
	H9814	H	0.668009	0.642335	0.723260
	H9815	H	0.668038	0.362811	0.723216
	H9816	H	0.667627	0.142974	0.723191
	H9817	H	0.681131	0.143464	0.642024
	H9818	H	0.732119	0.143139	0.644815
	H9819	H	0.731073	0.362457	0.644808
	H9820	H	0.680945	0.361926	0.642015
	H9821	H	0.731230	0.142976	0.660808
	H9822	H	0.730093	0.362189	0.660808
	H9823	H	0.686562	0.064580	0.747732
	H9824	H	0.685942	0.064290	0.748434
	H9825	H	0.687444	0.064267	0.749274
	H9826	H	0.712438	0.940519	0.623250
	H9827	H	0.705900	0.940408	0.621641
	H9828	H	0.705401	0.941092	0.617271
	H9829	H	0.686538	0.941281	0.747639
	H9830	H	0.685810	0.941159	0.748375
	H9831	H	0.687439	0.941281	0.749301
	Zn9832	Zn	0.649814	0.680126	0.681840
	Zn9833	Zn	0.649977	0.825163	0.681873
	Zn9834	Zn	0.649925	0.180308	0.681883
	Zn9835	Zn	0.649847	0.325363	0.681857
	Zn9836	Zn	0.688496	0.680455	0.748406
	Zn9837	Zn	0.688104	0.825362	0.748385
	Zn9838	Zn	0.688185	0.180484	0.748461
	Zn9839	Zn	0.688376	0.325291	0.748417
	C9840	C	0.731847	0.753004	0.671485
	C9841	C	0.668145	0.752195	0.696619
	C9842	C	0.668976	0.752046	0.706267
	C9843	C	0.668611	0.689905	0.710803
	C9844	C	0.668566	0.814175	0.710788
	C9845	C	0.668189	0.252918	0.696592
	C9846	C	0.669044	0.252949	0.706251
	C9847	C	0.668493	0.190729	0.710754
	C9848	C	0.668723	0.315075	0.710789
	C9849	C	0.667586	0.752330	0.667704
	C9850	C	0.672567	0.752574	0.658441
	C9851	C	0.674784	0.814471	0.654080
	C9852	C	0.674513	0.690722	0.654042
	C9853	C	0.667577	0.253002	0.667691
	C9854	C	0.672599	0.252821	0.658425
	C9855	C	0.674565	0.314647	0.654028
	C9856	C	0.674637	0.190951	0.654029
	C9857	C	0.743385	0.043380	0.685540
	C9858	C	0.743419	0.962322	0.685548
	C9859	C	0.650069	0.043242	0.683771
	C9860	C	0.650089	0.962391	0.683778
	C9861	C	0.653864	0.042992	0.681010
	C9862	C	0.653904	0.962162	0.681010
	C9863	C	0.651119	0.462428	0.683986
	C9864	C	0.753544	0.462600	0.685998
	C9865	C	0.749978	0.462547	0.686937
	C9866	C	0.651149	0.543303	0.683984
	C9867	C	0.749989	0.543227	0.686960
	C9868	C	0.753550	0.543363	0.686022
	C9869	C	0.730402	0.753538	0.699516
	C9870	C	0.730490	0.252356	0.699514
	C9871	C	0.725207	0.753675	0.708807
	C9872	C	0.723231	0.691664	0.713223
	C9873	C	0.723565	0.815534	0.713282
	C9874	C	0.725336	0.252051	0.708804
	C9875	C	0.723275	0.189927	0.713212
	C9876	C	0.723547	0.314095	0.713249
	C9877	C	0.731910	0.252445	0.671435
	C9878	C	0.730888	0.752052	0.634160
	C9879	C	0.688647	0.752729	0.632129
	C9880	C	0.669012	0.751911	0.733869
	C9881	C	0.730503	0.690616	0.657260
	C9882	C	0.730962	0.814750	0.657258
	C9883	C	0.731742	0.752354	0.643837
	C9884	C	0.681561	0.752676	0.641138
	C9885	C	0.678998	0.690751	0.645460
	C9886	C	0.731106	0.690345	0.648374
	C9887	C	0.731530	0.814549	0.648369
	C9888	C	0.679279	0.814549	0.645506
	C9889	C	0.730502	0.752764	0.661812
	C9890	C	0.711288	0.753575	0.735449
	C9891	C	0.719310	0.691594	0.721876
	C9892	C	0.719613	0.815530	0.721930
	C9893	C	0.717455	0.753570	0.726315
	C9894	C	0.695322	0.462315	0.747757
	C9895	C	0.708248	0.462145	0.619002
	C9896	C	0.683359	0.462564	0.746099
	C9897	C	0.695343	0.543127	0.747766
	C9898	C	0.683366	0.543288	0.746099
	C9899	C	0.708276	0.542979	0.619011
	C9900	C	0.711110	0.251945	0.735436
	C9901	C	0.719253	0.189811	0.721863
	C9902	C	0.719529	0.314010	0.721897
	C9903	C	0.717313	0.251858	0.726296
	C9904	C	0.710143	0.042897	0.621655
	C9905	C	0.730950	0.253171	0.634162
	C9906	C	0.688667	0.252324	0.632106
	C9907	C	0.668957	0.253321	0.733882
	C9908	C	0.731090	0.190640	0.657253
	C9909	C	0.730499	0.314593	0.657243
	C9910	C	0.731813	0.252872	0.643823
	C9911	C	0.681659	0.252570	0.641113
	C9912	C	0.667679	0.751947	0.724204
	C9913	C	0.667985	0.814043	0.719665
	C9914	C	0.668022	0.689922	0.719683
	C9915	C	0.667611	0.252952	0.724199
	C9916	C	0.668069	0.315002	0.719666
	C9917	C	0.667851	0.190809	0.719636
	C9918	C	0.679184	0.190873	0.645455
	C9919	C	0.731719	0.190816	0.648371
	C9920	C	0.731136	0.314727	0.648362
	C9921	C	0.679092	0.314518	0.645453
	C9922	C	0.730481	0.252580	0.661776
	C9923	C	0.686693	0.043112	0.748153
	C9924	C	0.709725	0.042778	0.617206
	C9925	C	0.710148	0.961917	0.621657
	C9926	C	0.686666	0.962339	0.748134
	C9927	C	0.709668	0.962019	0.617226
	N9928	N	0.650100	0.070055	0.681879
	N9929	N	0.650139	0.935485	0.681894
	N9930	N	0.649967	0.435447	0.681869
	N9931	N	0.649970	0.569949	0.681862
	N9932	N	0.688359	0.435536	0.748421
	N9933	N	0.688383	0.570081	0.748408
	N9934	N	0.688068	0.070110	0.748408
	N9935	N	0.688053	0.935537	0.748368
	O9936	O	0.731480	0.695600	0.801971
	O9937	O	0.731491	0.812003	0.802017
	O9938	O	0.644649	0.693373	0.821316
	O9939	O	0.644968	0.809938	0.821275
	O9940	O	0.645197	0.195783	0.821251
	O9941	O	0.644590	0.312233	0.821393
	O9942	O	0.645320	0.693595	0.801315
	O9943	O	0.645656	0.810245	0.801372
	O9944	O	0.645481	0.195416	0.801392
	O9945	O	0.645137	0.312088	0.801330
	O9946	O	0.730746	0.694488	0.821898
	O9947	O	0.730964	0.811106	0.821982
	O9948	O	0.730994	0.194222	0.822033
	O9949	O	0.730803	0.310920	0.821954
	O9950	O	0.731537	0.194361	0.802065
	O9951	O	0.731576	0.311096	0.801977
	O9952	O	0.707868	0.695604	0.758814
	O9953	O	0.670206	0.694026	0.758487
	O9954	O	0.706310	0.694548	0.864902
	O9955	O	0.706116	0.811276	0.864852
	O9956	O	0.668665	0.693813	0.864493
	O9957	O	0.668775	0.810504	0.864494
	O9958	O	0.669975	0.810545	0.758458
	O9959	O	0.707540	0.812283	0.758847
	O9960	O	0.707609	0.193999	0.758886
	O9961	O	0.670166	0.195038	0.758499
	O9962	O	0.706333	0.194199	0.864914
	O9963	O	0.706548	0.310801	0.864936
	O9964	O	0.668719	0.194754	0.864533
	O9965	O	0.668846	0.311328	0.864538
	O9966	O	0.670104	0.311654	0.758468
	O9967	O	0.707698	0.310465	0.758836
	H9968	H	0.652942	0.642316	0.835110
	H9969	H	0.653528	0.861475	0.835070
	H9970	H	0.653785	0.144189	0.835070
	H9971	H	0.652754	0.362788	0.835232
	H9972	H	0.655282	0.861792	0.787869
	H9973	H	0.654948	0.642325	0.787787
	H9974	H	0.654697	0.363340	0.787802
	H9975	H	0.655560	0.144141	0.787895
	H9976	H	0.753654	0.064678	0.815133
	H9977	H	0.757131	0.064245	0.813341
	H9978	H	0.757177	0.940961	0.813327
	H9979	H	0.753696	0.941190	0.815149
	H9980	H	0.746108	0.064880	0.814457
	H9981	H	0.746183	0.940930	0.814474
	H9982	H	0.620523	0.064320	0.811822
	H9983	H	0.620508	0.941430	0.811811
	H9984	H	0.624133	0.064718	0.813232
	H9985	H	0.624144	0.941443	0.813237
	H9986	H	0.630267	0.064745	0.812459
	H9987	H	0.630298	0.941247	0.812444
	H9988	H	0.616828	0.441348	0.809732
	H9989	H	0.618098	0.441112	0.812891
	H9990	H	0.624355	0.441152	0.807074
	H9991	H	0.752343	0.441480	0.810853
	H9992	H	0.754725	0.440957	0.812637
	H9993	H	0.753124	0.440892	0.813852
	H9994	H	0.617914	0.564194	0.812829
	H9995	H	0.616754	0.564547	0.809666
	H9996	H	0.753066	0.564264	0.813820
	H9997	H	0.754742	0.564886	0.812590
	H9998	H	0.752449	0.563790	0.810832
	H9999	H	0.624521	0.564705	0.807030
	H10000	H	0.720916	0.643056	0.835492
	H10001	H	0.721345	0.862445	0.835518
	H10002	H	0.721697	0.142950	0.835589
	H10003	H	0.720850	0.362174	0.835490
	H10004	H	0.662191	0.642424	0.772223
	H10005	H	0.716164	0.645197	0.772638
	H10006	H	0.716209	0.863467	0.772610
	H10007	H	0.662472	0.861944	0.772300
	H10008	H	0.723006	0.645112	0.788221
	H10009	H	0.723066	0.863456	0.788183
	H10010	H	0.713699	0.643271	0.851082
	H10011	H	0.714055	0.862414	0.851074
	H10012	H	0.698889	0.440933	0.749450
	H10013	H	0.690937	0.440913	0.875397
	H10014	H	0.690283	0.440980	0.753067
	H10015	H	0.681563	0.440928	0.751888
	H10016	H	0.687594	0.441488	0.873664
	H10017	H	0.690019	0.441208	0.873949
	H10018	H	0.690765	0.564597	0.875394
	H10019	H	0.699034	0.564173	0.749477
	H10020	H	0.689894	0.564448	0.873992
	H10021	H	0.687593	0.564579	0.873694
	H10022	H	0.681537	0.564694	0.751887
	H10023	H	0.690260	0.564313	0.753087
	H10024	H	0.714564	0.142757	0.851164
	H10025	H	0.713768	0.362194	0.851070
	H10026	H	0.690240	0.065047	0.748234
	H10027	H	0.689075	0.064758	0.747567
	H10028	H	0.689335	0.064873	0.749220
	H10029	H	0.660643	0.861498	0.850657
	H10030	H	0.660064	0.642700	0.850676
	H10031	H	0.659752	0.362329	0.850809
	H10032	H	0.660788	0.143556	0.850660
	H10033	H	0.662889	0.144119	0.772345
	H10034	H	0.716143	0.143324	0.772718
	H10035	H	0.715919	0.361513	0.772665
	H10036	H	0.662044	0.363236	0.772243
	H10037	H	0.723194	0.143417	0.788265
	H10038	H	0.722961	0.361741	0.788234
	H10039	H	0.694999	0.064699	0.873678
	H10040	H	0.690091	0.064519	0.871739
	H10041	H	0.681708	0.064468	0.872922
	H10042	H	0.689019	0.941532	0.747572
	H10043	H	0.690195	0.941229	0.748222
	H10044	H	0.689255	0.940962	0.749221
	H10045	H	0.694998	0.940750	0.873693
	H10046	H	0.690061	0.940755	0.871771
	H10047	H	0.681680	0.941467	0.872912
	Zn10048	Zn	0.625200	0.680274	0.810856
	Zn10049	Zn	0.625668	0.825749	0.810886
	Zn10050	Zn	0.625648	0.180130	0.810918
	Zn10051	Zn	0.625263	0.325609	0.810851
	Zn10052	Zn	0.688150	0.680027	0.874960
	Zn10053	Zn	0.688044	0.825485	0.874936
	Zn10054	Zn	0.688094	0.180098	0.874925
	Zn10055	Zn	0.688209	0.325414	0.874943
	C10056	C	0.728777	0.753951	0.798442
	C10057	C	0.647452	0.751640	0.824844
	C10058	C	0.652961	0.751769	0.834139
	C10059	C	0.654694	0.689949	0.838559
	C10060	C	0.655016	0.813841	0.838540
	C10061	C	0.647551	0.253893	0.824885
	C10062	C	0.653093	0.253574	0.834188
	C10063	C	0.655200	0.191570	0.838560
	C10064	C	0.654662	0.315188	0.838649
	C10065	C	0.648576	0.751891	0.797924
	C10066	C	0.654716	0.751931	0.788777
	C10067	C	0.656871	0.814097	0.784396
	C10068	C	0.656655	0.689950	0.784341
	C10069	C	0.648349	0.253776	0.797932
	C10070	C	0.654632	0.253792	0.788810
	C10071	C	0.656523	0.315663	0.784376
	C10072	C	0.657001	0.191889	0.784427
	C10073	C	0.754208	0.043151	0.813763
	C10074	C	0.754248	0.962381	0.813776
	C10075	C	0.623185	0.043322	0.812088
	C10076	C	0.623179	0.962467	0.812075
	C10077	C	0.629356	0.043405	0.811291
	C10078	C	0.629350	0.962485	0.811290
	C10079	C	0.619455	0.462416	0.811188
	C10080	C	0.750769	0.462332	0.811254
	C10081	C	0.753107	0.462071	0.813010
	C10082	C	0.619388	0.543068	0.811154
	C10083	C	0.753089	0.543208	0.812995
	C10084	C	0.750770	0.542712	0.811240
	C10085	C	0.727801	0.752747	0.825373
	C10086	C	0.727858	0.252625	0.825430
	C10087	C	0.721544	0.752704	0.834519
	C10088	C	0.719344	0.690778	0.838946
	C10089	C	0.719530	0.814727	0.838945
	C10090	C	0.721632	0.252464	0.834581
	C10091	C	0.719795	0.190507	0.839024
	C10092	C	0.719356	0.314508	0.838966
	C10093	C	0.728871	0.252595	0.798478
	C10094	C	0.710368	0.753988	0.762382
	C10095	C	0.667628	0.752267	0.762022
	C10096	C	0.666015	0.752169	0.860945
	C10097	C	0.721481	0.692526	0.784743
	C10098	C	0.721488	0.816033	0.784733
	C10099	C	0.715825	0.754239	0.771696
	C10100	C	0.662581	0.752104	0.771306
	C10101	C	0.660637	0.690057	0.775704
	C10102	C	0.717718	0.692498	0.776100
	C10103	C	0.717723	0.816038	0.776090
	C10104	C	0.660808	0.814164	0.775750
	C10105	C	0.723309	0.754262	0.789147
	C10106	C	0.708667	0.752906	0.861342
	C10107	C	0.715430	0.690815	0.847604
	C10108	C	0.715605	0.814835	0.847601
	C10109	C	0.713746	0.752818	0.852042
	C10110	C	0.689599	0.462422	0.875544
	C10111	C	0.686552	0.462299	0.751403
	C10112	C	0.688668	0.462463	0.874118
	C10113	C	0.689532	0.543355	0.875533
	C10114	C	0.688644	0.543102	0.874135
	C10115	C	0.686558	0.543305	0.751418
	C10116	C	0.708921	0.252438	0.861386
	C10117	C	0.715956	0.190461	0.847680
	C10118	C	0.715524	0.314465	0.847628
	C10119	C	0.713970	0.252404	0.852094
	C10120	C	0.689182	0.043618	0.748037
	C10121	C	0.710334	0.252328	0.762410
	C10122	C	0.667697	0.253455	0.762029
	C10123	C	0.666099	0.253088	0.860993
	C10124	C	0.721592	0.190729	0.784784
	C10125	C	0.721437	0.314305	0.784760
	C10126	C	0.715813	0.252437	0.771717
	C10127	C	0.662537	0.253742	0.771318
	C10128	C	0.660564	0.752029	0.851621
	C10129	C	0.658866	0.813955	0.847190
	C10130	C	0.658543	0.690108	0.847203
	C10131	C	0.660684	0.253053	0.851680
	C10132	C	0.658498	0.314978	0.847305
	C10133	C	0.659036	0.191336	0.847217
	C10134	C	0.660961	0.191754	0.775778
	C10135	C	0.717782	0.190790	0.776150
	C10136	C	0.717621	0.314225	0.776122
	C10137	C	0.660502	0.315704	0.775727
	C10138	C	0.723403	0.252500	0.789166
	C10139	C	0.691351	0.043384	0.873303
	C10140	C	0.688270	0.043190	0.749041
	C10141	C	0.689200	0.962664	0.748033
	C10142	C	0.691347	0.962288	0.873318
	C10143	C	0.688263	0.962407	0.749027
	N10144	N	0.625619	0.069968	0.810904
	N10145	N	0.625612	0.935522	0.810875
	N10146	N	0.625152	0.435797	0.810861
	N10147	N	0.625113	0.570332	0.810844
	N10148	N	0.688250	0.435526	0.874946
	N10149	N	0.688166	0.570001	0.874936
	N10150	N	0.688077	0.070191	0.874963
	N10151	N	0.688038	0.935706	0.874947
	O10152	O	0.709245	0.694284	0.930517
	O10153	O	0.709121	0.810976	0.930530
	O10154	O	0.643819	0.694032	0.948296
	O10155	O	0.644058	0.810752	0.948225
	O10156	O	0.644035	0.195022	0.948231
	O10157	O	0.643681	0.311774	0.948303
	O10158	O	0.643849	0.694315	0.927423
	O10159	O	0.644209	0.810728	0.927448
	O10160	O	0.643970	0.195049	0.927405
	O10161	O	0.643888	0.311677	0.927397
	O10162	O	0.711023	0.694131	0.952139
	O10163	O	0.711218	0.810609	0.952194
	O10164	O	0.711126	0.194911	0.952135
	O10165	O	0.710913	0.311312	0.952103
	O10166	O	0.709260	0.194725	0.930474
	O10167	O	0.709191	0.311705	0.930495
	O10168	O	0.706044	0.694435	0.885752
	O10169	O	0.668172	0.694156	0.884465
	O10170	O	0.685202	0.693543	0.994747
	O10171	O	0.685188	0.810278	0.994716
	O10172	O	0.647335	0.694330	0.993010
	O10173	O	0.647331	0.811119	0.993018
	O10174	O	0.668263	0.810676	0.884493
	O10175	O	0.706146	0.811445	0.885784
	O10176	O	0.706256	0.194226	0.885747
	O10177	O	0.668223	0.194930	0.884462
	O10178	O	0.685214	0.195142	0.994681
	O10179	O	0.685065	0.311779	0.994682
	O10180	O	0.647494	0.193974	0.992956
	O10181	O	0.647148	0.310808	0.993043
	O10182	O	0.668059	0.311625	0.884408
	O10183	O	0.706114	0.311081	0.885785
	H10184	H	0.646449	0.642805	0.962639
	H10185	H	0.646334	0.862547	0.962615
	H10186	H	0.646701	0.143316	0.962607
	H10187	H	0.646356	0.362909	0.962647
	H10188	H	0.652007	0.861995	0.913656
	H10189	H	0.651470	0.643083	0.913590
	H10190	H	0.651806	0.363273	0.913601
	H10191	H	0.651394	0.143800	0.913569
	H10192	H	0.726200	0.064733	0.943602
	H10193	H	0.729922	0.064720	0.942970
	H10194	H	0.729867	0.941456	0.942978
	H10195	H	0.726262	0.941250	0.943641
	H10196	H	0.721835	0.064894	0.942041
	H10197	H	0.721864	0.940979	0.942035
	H10198	H	0.624111	0.064328	0.940911
	H10199	H	0.624146	0.940750	0.940905
	H10200	H	0.630842	0.064145	0.940366
	H10201	H	0.630842	0.941028	0.940385
	H10202	H	0.633589	0.064305	0.936526
	H10203	H	0.633523	0.940929	0.936501
	H10204	H	0.638530	0.440935	0.943297
	H10205	H	0.643693	0.440985	0.937095
	H10206	H	0.617922	0.441370	0.944527
	H10207	H	0.729538	0.441456	0.938897
	H10208	H	0.733450	0.441452	0.942018
	H10209	H	0.730445	0.441508	0.944136
	H10210	H	0.643819	0.564502	0.937122
	H10211	H	0.638699	0.564367	0.943328
	H10212	H	0.730484	0.564727	0.944135
	H10213	H	0.733394	0.564538	0.941991
	H10214	H	0.729595	0.564151	0.938891
	H10215	H	0.617977	0.564583	0.944562
	H10216	H	0.703793	0.642789	0.965929
	H10217	H	0.704342	0.861734	0.966043
	H10218	H	0.703941	0.144102	0.965942
	H10219	H	0.703740	0.362718	0.965902
	H10220	H	0.658518	0.642820	0.898012
	H10221	H	0.708425	0.642737	0.900089
	H10222	H	0.708639	0.862560	0.900157
	H10223	H	0.658980	0.862053	0.898048
	H10224	H	0.707641	0.642588	0.916083
	H10225	H	0.707742	0.862351	0.916161
	H10226	H	0.695783	0.642467	0.981410
	H10227	H	0.696262	0.861582	0.981502
	H10228	H	0.689276	0.441204	0.876134
	H10229	H	0.665033	0.440984	1.004570
	H10230	H	0.686070	0.441332	0.875745
	H10231	H	0.685425	0.441000	0.874695
	H10232	H	0.665085	0.441180	1.003553
	H10233	H	0.665758	0.441221	1.003998
	H10234	H	0.665123	0.564535	1.004616
	H10235	H	0.689133	0.564372	0.876121
	H10236	H	0.665756	0.564616	1.003964
	H10237	H	0.665057	0.564565	1.003535
	H10238	H	0.685399	0.564782	0.874654
	H10239	H	0.686115	0.564644	0.875726
	H10240	H	0.695980	0.144131	0.981409
	H10241	H	0.695799	0.362901	0.981396
	H10242	H	0.687387	0.064543	0.878311
	H10243	H	0.693521	0.064617	0.877453
	H10244	H	0.680602	0.064584	0.875740
	H10245	H	0.645688	0.862686	0.978613
	H10246	H	0.645844	0.642796	0.978663
	H10247	H	0.645688	0.362669	0.978648
	H10248	H	0.646007	0.142942	0.978604
	H10249	H	0.658444	0.143886	0.897995
	H10250	H	0.708431	0.142562	0.900140
	H10251	H	0.708830	0.362650	0.900116
	H10252	H	0.658881	0.363186	0.898008
	H10253	H	0.707703	0.143145	0.916177
	H10254	H	0.707965	0.362801	0.916089
	H10255	H	0.671598	0.064278	1.005966
	H10256	H	0.672179	0.064703	1.002923
	H10257	H	0.664635	0.064312	1.000440
	H10258	H	0.693410	0.941276	0.877498
	H10259	H	0.687345	0.941083	0.878308
	H10260	H	0.680655	0.941212	0.875680
	H10261	H	0.671604	0.940934	1.005933
	H10262	H	0.672193	0.940781	1.002909
	H10263	H	0.664533	0.941023	1.000457
	Zn10264	Zn	0.625666	0.680331	0.937451
	Zn10265	Zn	0.625876	0.825132	0.937433
	Zn10266	Zn	0.625797	0.180126	0.937465
	Zn10267	Zn	0.625552	0.325083	0.937428
	Zn10268	Zn	0.664508	0.679923	1.004057
	Zn10269	Zn	0.664639	0.825599	1.004017
	Zn10270	Zn	0.664620	0.180102	1.004039
	Zn10271	Zn	0.664505	0.325625	1.004062
	C10272	C	0.708272	0.752621	0.926773
	C10273	C	0.645211	0.752496	0.951984
	C10274	C	0.646647	0.752649	0.961655
	C10275	C	0.646373	0.690551	0.966200
	C10276	C	0.646296	0.814816	0.966179
	C10277	C	0.645158	0.253319	0.951994
	C10278	C	0.646625	0.253030	0.961668
	C10279	C	0.646494	0.190847	0.966179
	C10280	C	0.646313	0.315122	0.966210
	C10281	C	0.646454	0.752502	0.923895
	C10282	C	0.651501	0.752541	0.914602
	C10283	C	0.653450	0.814437	0.910165
	C10284	C	0.653160	0.690570	0.910140
	C10285	C	0.646371	0.253401	0.923861
	C10286	C	0.651441	0.253530	0.914577
	C10287	C	0.653330	0.315537	0.910139
	C10288	C	0.653107	0.191560	0.910126
	C10289	C	0.727550	0.043287	0.942826
	C10290	C	0.727561	0.962624	0.942830
	C10291	C	0.627053	0.042951	0.939807
	C10292	C	0.627094	0.962256	0.939809
	C10293	C	0.629843	0.043238	0.935919
	C10294	C	0.629879	0.962403	0.935919
	C10295	C	0.637077	0.462470	0.939487
	C10296	C	0.726625	0.462540	0.939511
	C10297	C	0.730510	0.462443	0.942665
	C10298	C	0.637123	0.543259	0.939479
	C10299	C	0.730489	0.543283	0.942672
	C10300	C	0.726605	0.543254	0.939505
	C10301	C	0.709025	0.752282	0.955737
	C10302	C	0.708987	0.253169	0.955707
	C10303	C	0.704150	0.752162	0.965018
	C10304	C	0.702143	0.690269	0.969394
	C10305	C	0.702414	0.814092	0.969455
	C10306	C	0.704159	0.253447	0.965003
	C10307	C	0.702207	0.191523	0.969391
	C10308	C	0.702125	0.315390	0.969387
	C10309	C	0.708310	0.253288	0.926754
	C10310	C	0.707341	0.752882	0.889484
	C10311	C	0.665181	0.752414	0.887921
	C10312	C	0.646430	0.752729	0.989269
	C10313	C	0.707806	0.690397	0.912544
	C10314	C	0.707904	0.814719	0.912594
	C10315	C	0.708728	0.752718	0.899154
	C10316	C	0.659097	0.752505	0.897085
	C10317	C	0.656980	0.690488	0.901478
	C10318	C	0.708354	0.690439	0.903662
	C10319	C	0.708482	0.814800	0.903713
	C10320	C	0.657231	0.814436	0.901501
	C10321	C	0.707424	0.752520	0.917106
	C10322	C	0.688513	0.751850	0.991380
	C10323	C	0.697815	0.690127	0.977996
	C10324	C	0.698080	0.813959	0.978051
	C10325	C	0.695505	0.751914	0.982376
	C10326	C	0.664406	0.462388	1.004454
	C10327	C	0.686438	0.462519	0.875143
	C10328	C	0.665086	0.462290	1.003844
	C10329	C	0.664443	0.543148	1.004468
	C10330	C	0.665105	0.543093	1.003841
	C10331	C	0.686411	0.543449	0.875129
	C10332	C	0.688446	0.253522	0.991330
	C10333	C	0.697828	0.191592	0.977979
	C10334	C	0.697742	0.315414	0.977981
	C10335	C	0.695396	0.253500	0.982335
	C10336	C	0.689834	0.043237	0.877137
	C10337	C	0.707423	0.252576	0.889490
	C10338	C	0.665132	0.253328	0.887871
	C10339	C	0.646339	0.252566	0.989269
	C10340	C	0.707801	0.190673	0.912577
	C10341	C	0.707981	0.315092	0.912544
	C10342	C	0.708780	0.252531	0.899155
	C10343	C	0.659034	0.253519	0.897051
	C10344	C	0.645506	0.752669	0.979610
	C10345	C	0.645786	0.814889	0.975060
	C10346	C	0.645864	0.690527	0.975084
	C10347	C	0.645416	0.252770	0.979609
	C10348	C	0.645767	0.314958	0.975093
	C10349	C	0.645930	0.190744	0.975061
	C10350	C	0.656922	0.191490	0.901465
	C10351	C	0.708392	0.190363	0.903696
	C10352	C	0.708589	0.314899	0.903671
	C10353	C	0.657152	0.315613	0.901472
	C10354	C	0.707460	0.253044	0.917084
	C10355	C	0.669934	0.043240	1.004317
	C10356	C	0.682962	0.043276	0.874494
	C10357	C	0.689780	0.962453	0.877133
	C10358	C	0.669959	0.962323	1.004308
	C10359	C	0.682969	0.962630	0.874482
	N10360	N	0.625845	0.070065	0.937454
	N10361	N	0.625885	0.935466	0.937453
	N10362	N	0.625630	0.435579	0.937431
	N10363	N	0.625687	0.570198	0.937447
	N10364	N	0.664288	0.435360	1.004059
	N10365	N	0.664347	0.569797	1.004066
	N10366	N	0.664510	0.070113	1.003998
	N10367	N	0.664500	0.935628	1.004013
	O10368	O	0.863541	0.694785	0.049031
	O10369	O	0.863501	0.811590	0.049026
	O10370	O	0.797828	0.694090	0.066901
	O10371	O	0.797793	0.811037	0.066890
	O10372	O	0.797802	0.193792	0.066922
	O10373	O	0.797854	0.310769	0.066929
	O10374	O	0.795993	0.694407	0.045184
	O10375	O	0.796022	0.810954	0.045225
	O10376	O	0.796113	0.194419	0.045202
	O10377	O	0.795924	0.310905	0.045128
	O10378	O	0.862813	0.694750	0.069690
	O10379	O	0.863091	0.811453	0.069739
	O10380	O	0.862984	0.194277	0.069731
	O10381	O	0.862800	0.310868	0.069675
	O10382	O	0.863721	0.194135	0.049019
	O10383	O	0.863537	0.310975	0.049027
	O10384	O	0.859876	0.694585	0.004290
	O10385	O	0.822071	0.694571	0.002717
	O10386	O	0.839291	0.694075	0.112761
	O10387	O	0.839631	0.810584	0.112839
	O10388	O	0.801339	0.694516	0.111622
	O10389	O	0.801592	0.811351	0.111591
	O10390	O	0.822017	0.811524	0.002680
	O10391	O	0.859943	0.811403	0.004305
	O10392	O	0.859861	0.194192	0.004250
	O10393	O	0.821928	0.194492	0.002590
	O10394	O	0.839486	0.195051	0.112831
	O10395	O	0.839172	0.311762	0.112748
	O10396	O	0.801506	0.193578	0.111658
	O10397	O	0.801263	0.310265	0.111653
	O10398	O	0.822005	0.311289	0.002625
	O10399	O	0.859882	0.311079	0.004305
	H10400	H	0.799087	0.642439	0.081289
	H10401	H	0.799344	0.862713	0.081251
	H10402	H	0.799623	0.142275	0.081307
	H10403	H	0.798966	0.361916	0.081281
	H10404	H	0.803116	0.862386	0.031396
	H10405	H	0.803122	0.643622	0.031399
	H10406	H	0.802950	0.362016	0.031310
	H10407	H	0.803164	0.143036	0.031358
	H10408	H	0.891711	0.064563	0.060032
	H10409	H	0.888239	0.064861	0.056631
	H10410	H	0.888238	0.940908	0.056615
	H10411	H	0.891875	0.940898	0.059967
	H10412	H	0.885284	0.064141	0.064017
	H10413	H	0.885334	0.941034	0.063983
	H10414	H	0.779706	0.064398	0.057648
	H10415	H	0.779638	0.941185	0.057651
	H10416	H	0.783266	0.064305	0.057442
	H10417	H	0.783334	0.941121	0.057410
	H10418	H	0.784844	0.064546	0.055391
	H10419	H	0.784865	0.940945	0.055339
	H10420	H	0.773585	0.441053	0.056994
	H10421	H	0.778498	0.441301	0.059079
	H10422	H	0.775472	0.441414	0.053233
	H10423	H	0.870496	0.441260	0.053801
	H10424	H	0.890341	0.441042	0.053411
	H10425	H	0.898783	0.440747	0.058845
	H10426	H	0.778428	0.564860	0.059075
	H10427	H	0.773501	0.564472	0.057010
	H10428	H	0.898747	0.564395	0.058856
	H10429	H	0.890410	0.564559	0.053441
	H10430	H	0.870543	0.564355	0.053831
	H10431	H	0.775265	0.563911	0.053185
	H10432	H	0.854881	0.643126	0.083445
	H10433	H	0.855201	0.862680	0.083564
	H10434	H	0.855384	0.143262	0.083573
	H10435	H	0.854687	0.362655	0.083460
	H10436	H	0.811263	0.643763	0.015960
	H10437	H	0.861327	0.643408	0.018644
	H10438	H	0.861692	0.863262	0.018657
	H10439	H	0.811271	0.862558	0.015943
	H10440	H	0.860625	0.643501	0.034658
	H10441	H	0.861004	0.863302	0.034664
	H10442	H	0.848114	0.642596	0.099040
	H10443	H	0.848440	0.862365	0.099172
	H10444	H	0.830595	0.441123	-0.005153
	H10445	H	0.825759	0.440609	0.124460
	H10446	H	0.834770	0.441576	-0.011232
	H10447	H	0.845233	0.440993	-0.012177
	H10448	H	0.820359	0.441047	0.119118
	H10449	H	0.825877	0.440730	0.120668
	H10450	H	0.825748	0.564180	0.124497
	H10451	H	0.830560	0.564154	-0.005179
	H10452	H	0.825922	0.564404	0.120681
	H10453	H	0.820367	0.564320	0.119162
	H10454	H	0.845336	0.564453	-0.012180
	H10455	H	0.834765	0.563991	-0.011249
	H10456	H	0.848730	0.143449	0.099207
	H10457	H	0.848061	0.363084	0.099059
	H10458	H	0.851872	0.064264	-0.003793
	H10459	H	0.853425	0.064421	-0.007804
	H10460	H	0.839829	0.064928	-0.002086
	H10461	H	0.798685	0.862879	0.097259
	H10462	H	0.798466	0.642779	0.097298
	H10463	H	0.798311	0.361894	0.097294
	H10464	H	0.798994	0.142166	0.097293
	H10465	H	0.811353	0.143081	0.015889
	H10466	H	0.861556	0.142710	0.018658
	H10467	H	0.861460	0.362412	0.018645
	H10468	H	0.811062	0.362005	0.015836
	H10469	H	0.860889	0.142747	0.034645
	H10470	H	0.860845	0.362439	0.034681
	H10471	H	0.824302	0.063976	0.124737
	H10472	H	0.826540	0.064386	0.122476
	H10473	H	0.821891	0.064114	0.119660
	H10474	H	0.853358	0.941132	-0.007776
	H10475	H	0.851760	0.940749	-0.003781
	H10476	H	0.839734	0.940825	-0.002049
	H10477	H	0.824394	0.940515	0.124724
	H10478	H	0.826616	0.940865	0.122491
	H10479	H	0.821940	0.941049	0.119627
	Zn10480	Zn	0.780632	0.680366	0.055849
	Zn10481	Zn	0.780622	0.825334	0.055844
	Zn10482	Zn	0.780606	0.180235	0.055850
	Zn10483	Zn	0.780723	0.325455	0.055892
	Zn10484	Zn	0.819520	0.680218	0.122411
	Zn10485	Zn	0.819827	0.824922	0.122386
	Zn10486	Zn	0.819847	0.180072	0.122420
	Zn10487	Zn	0.819554	0.324852	0.122377
	C10488	C	0.862209	0.753201	0.045304
	C10489	C	0.798677	0.752555	0.070633
	C10490	C	0.799575	0.752509	0.080297
	C10491	C	0.799112	0.690324	0.084836
	C10492	C	0.799238	0.814921	0.084811
	C10493	C	0.798780	0.252237	0.070668
	C10494	C	0.799675	0.252173	0.080337
	C10495	C	0.799436	0.189982	0.084869
	C10496	C	0.799068	0.314236	0.084859
	C10497	C	0.798075	0.752769	0.041625
	C10498	C	0.802942	0.752987	0.032338
	C10499	C	0.804878	0.815029	0.027944
	C10500	C	0.804861	0.691067	0.027949
	C10501	C	0.798052	0.252574	0.041581
	C10502	C	0.802970	0.252524	0.032294
	C10503	C	0.804858	0.314482	0.027884
	C10504	C	0.805002	0.190506	0.027919
	C10505	C	0.887839	0.043271	0.058720
	C10506	C	0.887873	0.962227	0.058711
	C10507	C	0.781311	0.043143	0.057101
	C10508	C	0.781345	0.962453	0.057092
	C10509	C	0.782898	0.043163	0.055041
	C10510	C	0.782890	0.962144	0.055037
	C10511	C	0.777336	0.462321	0.057461
	C10512	C	0.871142	0.462518	0.057501
	C10513	C	0.891148	0.462269	0.057109
	C10514	C	0.777284	0.543366	0.057466
	C10515	C	0.891177	0.543207	0.057118
	C10516	C	0.871147	0.543127	0.057485
	C10517	C	0.860366	0.753097	0.073232
	C10518	C	0.860335	0.252631	0.073235
	C10519	C	0.855280	0.752933	0.082513
	C10520	C	0.853411	0.690748	0.086928
	C10521	C	0.853569	0.814841	0.086995
	C10522	C	0.855228	0.252892	0.082541
	C10523	C	0.853714	0.190972	0.087025
	C10524	C	0.853357	0.315016	0.086960
	C10525	C	0.862299	0.252539	0.045298
	C10526	C	0.860899	0.752989	0.008035
	C10527	C	0.818732	0.753107	0.006032
	C10528	C	0.800101	0.752869	0.107891
	C10529	C	0.860828	0.691218	0.031100
	C10530	C	0.861006	0.815561	0.031110
	C10531	C	0.861881	0.753251	0.017698
	C10532	C	0.811739	0.753139	0.015021
	C10533	C	0.809351	0.691235	0.019376
	C10534	C	0.861351	0.691113	0.022222
	C10535	C	0.861540	0.815550	0.022225
	C10536	C	0.809368	0.815065	0.019371
	C10537	C	0.860683	0.753341	0.035639
	C10538	C	0.842315	0.752317	0.109317
	C10539	C	0.849785	0.690445	0.095611
	C10540	C	0.849954	0.814658	0.095685
	C10541	C	0.848004	0.752440	0.100076
	C10542	C	0.822113	0.461961	0.124373
	C10543	C	0.840776	0.462445	-0.010394
	C10544	C	0.822165	0.462057	0.120566
	C10545	C	0.822073	0.542840	0.124400
	C10546	C	0.822206	0.542995	0.120580
	C10547	C	0.840798	0.543067	-0.010400
	C10548	C	0.842215	0.253344	0.109319
	C10549	C	0.850127	0.191112	0.095718
	C10550	C	0.849744	0.315213	0.095643
	C10551	C	0.848004	0.253249	0.100112
	C10552	C	0.850050	0.043063	-0.006043
	C10553	C	0.860816	0.252527	0.008010
	C10554	C	0.818646	0.252832	0.005947
	C10555	C	0.800079	0.251883	0.107935
	C10556	C	0.860934	0.190417	0.031092
	C10557	C	0.860962	0.314832	0.031105
	C10558	C	0.861787	0.252620	0.017665
	C10559	C	0.811744	0.252593	0.014967
	C10560	C	0.798535	0.752768	0.098220
	C10561	C	0.798792	0.815081	0.093695
	C10562	C	0.798663	0.690408	0.093716
	C10563	C	0.798535	0.251988	0.098280
	C10564	C	0.798572	0.314179	0.093740
	C10565	C	0.798936	0.189902	0.093751
	C10566	C	0.809390	0.190545	0.019324
	C10567	C	0.861415	0.190437	0.022203
	C10568	C	0.861449	0.314714	0.022213
	C10569	C	0.809244	0.314570	0.019291
	C10570	C	0.860713	0.252637	0.035618
	C10571	C	0.823966	0.043032	0.123287
	C10572	C	0.837933	0.043277	-0.004331
	C10573	C	0.850022	0.962304	-0.006029
	C10574	C	0.824018	0.962028	0.123285
	C10575	C	0.837942	0.962291	-0.004324
	N10576	N	0.780743	0.069976	0.055834
	N10577	N	0.780746	0.935404	0.055839
	N10578	N	0.780820	0.435493	0.055867
	N10579	N	0.780781	0.570054	0.055837
	N10580	N	0.819611	0.435260	0.122391
	N10581	N	0.819590	0.569886	0.122396
	N10582	N	0.819819	0.069824	0.122408
	N10583	N	0.819851	0.935259	0.122396
	O10584	O	0.852955	0.693704	0.177494
	O10585	O	0.852654	0.810421	0.177480
	O10586	O	0.775773	0.694583	0.195526
	O10587	O	0.775765	0.811402	0.195537
	O10588	O	0.775783	0.194329	0.195543
	O10589	O	0.775779	0.311156	0.195552
	O10590	O	0.776786	0.694908	0.175307
	O10591	O	0.776820	0.811488	0.175352
	O10592	O	0.776620	0.194198	0.175296
	O10593	O	0.776794	0.310805	0.175279
	O10594	O	0.851907	0.693682	0.197801
	O10595	O	0.851563	0.810350	0.197745
	O10596	O	0.851693	0.194999	0.197744
	O10597	O	0.851785	0.311718	0.197768
	O10598	O	0.852485	0.195366	0.177553
	O10599	O	0.852749	0.312081	0.177541
	O10600	O	0.838363	0.693466	0.133038
	O10601	O	0.800741	0.695249	0.132279
	O10602	O	0.827319	0.693883	0.240705
	O10603	O	0.827517	0.810522	0.240755
	O10604	O	0.789701	0.695188	0.240049
	O10605	O	0.789874	0.811857	0.240008
	O10606	O	0.800952	0.812020	0.132291
	O10607	O	0.838595	0.810100	0.133036
	O10608	O	0.838429	0.195187	0.133092
	O10609	O	0.800997	0.193644	0.132295
	O10610	O	0.827441	0.194959	0.240737
	O10611	O	0.827477	0.311567	0.240764
	O10612	O	0.789945	0.194270	0.240013
	O10613	O	0.789962	0.310997	0.239955
	O10614	O	0.800749	0.310352	0.132264
	O10615	O	0.838335	0.311816	0.133044
	H10616	H	0.781168	0.643410	0.209793
	H10617	H	0.781288	0.863015	0.209766
	H10618	H	0.780985	0.143106	0.209749
	H10619	H	0.781488	0.362614	0.209768
	H10620	H	0.786576	0.863204	0.161796
	H10621	H	0.785516	0.643611	0.161598
	H10622	H	0.785836	0.362052	0.161622
	H10623	H	0.785896	0.142582	0.161668
	H10624	H	0.881391	0.064149	0.183461
	H10625	H	0.869370	0.063835	0.181561
	H10626	H	0.869220	0.940654	0.181607
	H10627	H	0.881310	0.940760	0.183456
	H10628	H	0.885078	0.064494	0.190892
	H10629	H	0.885106	0.940507	0.190885
	H10630	H	0.746416	0.065043	0.183336
	H10631	H	0.746285	0.940909	0.183282
	H10632	H	0.747814	0.064181	0.187363
	H10633	H	0.747753	0.940914	0.187385
	H10634	H	0.759723	0.064229	0.189692
	H10635	H	0.759652	0.941403	0.189696
	H10636	H	0.756301	0.440698	0.184916
	H10637	H	0.756698	0.441111	0.185219
	H10638	H	0.756623	0.441235	0.184517
	H10639	H	0.880692	0.441082	0.193634
	H10640	H	0.863440	0.440811	0.193513
	H10641	H	0.856729	0.441220	0.188665
	H10642	H	0.756666	0.564532	0.185169
	H10643	H	0.756223	0.564656	0.184936
	H10644	H	0.856904	0.564587	0.188733
	H10645	H	0.863495	0.564286	0.193547
	H10646	H	0.880709	0.564673	0.193614
	H10647	H	0.756842	0.564654	0.184512
	H10648	H	0.842847	0.642218	0.211425
	H10649	H	0.842156	0.861955	0.211330
	H10650	H	0.842318	0.143547	0.211362
	H10651	H	0.842647	0.363149	0.211401
	H10652	H	0.792446	0.644109	0.146001
	H10653	H	0.843624	0.642224	0.147270
	H10654	H	0.844127	0.861131	0.147270
	H10655	H	0.793517	0.863420	0.146175
	H10656	H	0.847000	0.642111	0.163274
	H10657	H	0.847510	0.861492	0.163268
	H10658	H	0.835746	0.642403	0.226978
	H10659	H	0.835052	0.862049	0.226919
	H10660	H	0.820210	0.440763	0.125701
	H10661	H	0.805935	0.441648	0.252324
	H10662	H	0.812778	0.440815	0.123610
	H10663	H	0.812846	0.440985	0.120859
	H10664	H	0.813340	0.441106	0.250894
	H10665	H	0.811307	0.441347	0.252392
	H10666	H	0.805925	0.564576	0.252274
	H10667	H	0.820126	0.564090	0.125729
	H10668	H	0.811391	0.565005	0.252335
	H10669	H	0.813196	0.564805	0.250854
	H10670	H	0.812792	0.563907	0.120801
	H10671	H	0.812655	0.564039	0.123558
	H10672	H	0.835279	0.143684	0.226947
	H10673	H	0.835657	0.363119	0.226998
	H10674	H	0.813302	0.064300	0.122889
	H10675	H	0.816724	0.063849	0.124928
	H10676	H	0.816300	0.064355	0.119815
	H10677	H	0.784495	0.863120	0.225780
	H10678	H	0.784363	0.643650	0.225816
	H10679	H	0.784778	0.362398	0.225772
	H10680	H	0.784231	0.142889	0.225774
	H10681	H	0.792981	0.142638	0.146082
	H10682	H	0.843916	0.144203	0.147318
	H10683	H	0.844009	0.363259	0.147301
	H10684	H	0.792873	0.361735	0.146072
	H10685	H	0.847137	0.144305	0.163321
	H10686	H	0.847139	0.363283	0.163306
	H10687	H	0.809289	0.064730	0.253925
	H10688	H	0.814846	0.064767	0.252712
	H10689	H	0.815018	0.064454	0.248928
	H10690	H	0.816664	0.940972	0.124965
	H10691	H	0.813227	0.941004	0.122875
	H10692	H	0.816299	0.940780	0.119758
	H10693	H	0.809314	0.940786	0.253913
	H10694	H	0.814906	0.941130	0.252712
	H10695	H	0.815067	0.941398	0.248942
	Zn10696	Zn	0.757159	0.680226	0.184901
	Zn10697	Zn	0.756938	0.825271	0.184886
	Zn10698	Zn	0.756981	0.180216	0.184916
	Zn10699	Zn	0.757058	0.325343	0.184877
	Zn10700	Zn	0.808544	0.680444	0.250607
	Zn10701	Zn	0.808896	0.825406	0.250650
	Zn10702	Zn	0.808747	0.180193	0.250623
	Zn10703	Zn	0.808632	0.325402	0.250626
	C10704	C	0.850793	0.751963	0.173826
	C10705	C	0.777708	0.752979	0.199202
	C10706	C	0.781180	0.753160	0.208798
	C10707	C	0.781929	0.691183	0.213357
	C10708	C	0.781995	0.815309	0.213336
	C10709	C	0.777735	0.252777	0.199199
	C10710	C	0.781236	0.252848	0.208787
	C10711	C	0.781900	0.190680	0.213319
	C10712	C	0.782181	0.314922	0.213321
	C10713	C	0.779704	0.753301	0.171863
	C10714	C	0.785632	0.753471	0.162675
	C10715	C	0.787900	0.815583	0.158290
	C10716	C	0.787303	0.691492	0.158181
	C10717	C	0.779616	0.252394	0.171817
	C10718	C	0.785610	0.252232	0.162637
	C10719	C	0.787557	0.314220	0.158203
	C10720	C	0.787558	0.190240	0.158221
	C10721	C	0.874289	0.042941	0.183978
	C10722	C	0.874230	0.962336	0.183975
	C10723	C	0.749709	0.043224	0.185224
	C10724	C	0.749660	0.962284	0.185216
	C10725	C	0.761670	0.042933	0.187519
	C10726	C	0.761642	0.962290	0.187531
	C10727	C	0.756646	0.462329	0.185020
	C10728	C	0.880522	0.462335	0.190449
	C10729	C	0.863164	0.462347	0.190336
	C10730	C	0.756617	0.543290	0.184991
	C10731	C	0.863223	0.543187	0.190370
	C10732	C	0.880517	0.543270	0.190453
	C10733	C	0.848867	0.752016	0.201239
	C10734	C	0.848784	0.253376	0.201212
	C10735	C	0.842817	0.752097	0.210390
	C10736	C	0.841049	0.690082	0.214834
	C10737	C	0.840627	0.814227	0.214793
	C10738	C	0.842913	0.253451	0.210404
	C10739	C	0.840818	0.191420	0.214819
	C10740	C	0.841021	0.315450	0.214845
	C10741	C	0.850620	0.253783	0.173882
	C10742	C	0.840450	0.751773	0.136719
	C10743	C	0.798278	0.753688	0.135815
	C10744	C	0.787797	0.753466	0.236357
	C10745	C	0.846268	0.689764	0.159733
	C10746	C	0.846535	0.813753	0.159729
	C10747	C	0.843878	0.751719	0.146317
	C10748	C	0.793043	0.753824	0.145110
	C10749	C	0.791024	0.691697	0.149506
	C10750	C	0.844539	0.689766	0.150845
	C10751	C	0.844825	0.813642	0.150845
	C10752	C	0.791650	0.815775	0.149614
	C10753	C	0.847204	0.751827	0.164264
	C10754	C	0.829962	0.752228	0.237193
	C10755	C	0.837232	0.690104	0.223495
	C10756	C	0.836826	0.814307	0.223465
	C10757	C	0.835244	0.752216	0.227916
	C10758	C	0.805865	0.462715	0.251289
	C10759	C	0.814572	0.462383	0.122273
	C10760	C	0.811364	0.462626	0.251368
	C10761	C	0.805887	0.543171	0.251290
	C10762	C	0.811295	0.543532	0.251352
	C10763	C	0.814551	0.542965	0.122262
	C10764	C	0.830032	0.253341	0.237219
	C10765	C	0.837037	0.191395	0.223489
	C10766	C	0.837218	0.315541	0.223514
	C10767	C	0.835339	0.253502	0.227941
	C10768	C	0.816261	0.042936	0.123507
	C10769	C	0.840388	0.253599	0.136746
	C10770	C	0.798287	0.252022	0.135800
	C10771	C	0.787915	0.252547	0.236322
	C10772	C	0.846378	0.191820	0.159760
	C10773	C	0.846467	0.315670	0.159748
	C10774	C	0.843945	0.253654	0.146339
	C10775	C	0.793119	0.252078	0.145084
	C10776	C	0.784329	0.753421	0.226762
	C10777	C	0.783635	0.815463	0.222226
	C10778	C	0.783568	0.691290	0.222247
	C10779	C	0.784461	0.252579	0.226724
	C10780	C	0.783838	0.314795	0.222203
	C10781	C	0.783577	0.190480	0.222204
	C10782	C	0.791362	0.190195	0.149546
	C10783	C	0.844708	0.191730	0.150876
	C10784	C	0.844761	0.315630	0.150863
	C10785	C	0.791345	0.314123	0.149539
	C10786	C	0.847205	0.253751	0.164296
	C10787	C	0.811197	0.043403	0.252611
	C10788	C	0.819290	0.042999	0.120428
	C10789	C	0.816249	0.962146	0.123516
	C10790	C	0.811239	0.962362	0.252618
	C10791	C	0.819301	0.962221	0.120410
	N10792	N	0.756990	0.070028	0.184923
	N10793	N	0.756979	0.935477	0.184921
	N10794	N	0.757186	0.435520	0.184879
	N10795	N	0.757166	0.570051	0.184874
	N10796	N	0.808610	0.435663	0.250614
	N10797	N	0.808610	0.570217	0.250602
	N10798	N	0.808773	0.070229	0.250627
	N10799	N	0.808817	0.935718	0.250618
	O10800	O	0.830376	0.693832	0.306160
	O10801	O	0.830335	0.810666	0.306118
	O10802	O	0.764457	0.693157	0.323945
	O10803	O	0.764898	0.810014	0.323956
	O10804	O	0.764859	0.195273	0.323964
	O10805	O	0.764478	0.312103	0.323954
	O10806	O	0.765050	0.693989	0.303241
	O10807	O	0.765514	0.810515	0.303377
	O10808	O	0.765367	0.194962	0.303338
	O10809	O	0.765066	0.311487	0.303269
	O10810	O	0.832194	0.694661	0.327813
	O10811	O	0.832307	0.810946	0.327800
	O10812	O	0.832209	0.194268	0.327831
	O10813	O	0.832237	0.310674	0.327863
	O10814	O	0.830545	0.194480	0.306117
	O10815	O	0.830386	0.311355	0.306093
	O10816	O	0.826954	0.693731	0.261397
	O10817	O	0.788838	0.694992	0.260196
	O10818	O	0.806261	0.694549	0.370409
	O10819	O	0.806297	0.811321	0.370392
	O10820	O	0.768298	0.693973	0.368722
	O10821	O	0.768494	0.810750	0.368669
	O10822	O	0.789167	0.811853	0.260266
	O10823	O	0.827079	0.810448	0.261415
	O10824	O	0.827206	0.195152	0.261370
	O10825	O	0.789093	0.194129	0.260261
	O10826	O	0.806352	0.194035	0.370450
	O10827	O	0.806244	0.310911	0.370420
	O10828	O	0.768486	0.194523	0.368699
	O10829	O	0.768189	0.311297	0.368758
	O10830	O	0.788911	0.310947	0.260212
	O10831	O	0.826945	0.311824	0.261406
	H10832	H	0.767090	0.641730	0.338349
	H10833	H	0.767817	0.861472	0.338296
	H10834	H	0.767834	0.143872	0.338272
	H10835	H	0.766902	0.363427	0.338381
	H10836	H	0.773358	0.862538	0.289536
	H10837	H	0.772999	0.642855	0.289407
	H10838	H	0.773011	0.362606	0.289425
	H10839	H	0.773459	0.143091	0.289542
	H10840	H	0.851705	0.064832	0.315068
	H10841	H	0.846436	0.065006	0.314350
	H10842	H	0.846411	0.941149	0.314330
	H10843	H	0.851727	0.941302	0.315066
	H10844	H	0.853745	0.064284	0.318226
	H10845	H	0.853702	0.941684	0.318217
	H10846	H	0.732467	0.064581	0.309129
	H10847	H	0.732442	0.941490	0.309151
	H10848	H	0.730882	0.064940	0.315197
	H10849	H	0.730857	0.941256	0.315186
	H10850	H	0.746099	0.064589	0.320503
	H10851	H	0.746235	0.941047	0.320518
	H10852	H	0.738368	0.441309	0.310575
	H10853	H	0.737029	0.441098	0.313996
	H10854	H	0.748718	0.441097	0.309147
	H10855	H	0.846666	0.441166	0.316738
	H10856	H	0.848104	0.441444	0.316753
	H10857	H	0.848806	0.441526	0.317201
	H10858	H	0.736909	0.564584	0.313957
	H10859	H	0.738496	0.564540	0.310540
	H10860	H	0.848901	0.564594	0.317196
	H10861	H	0.848302	0.564736	0.316745
	H10862	H	0.846683	0.564695	0.316768
	H10863	H	0.748727	0.564461	0.309166
	H10864	H	0.825075	0.643453	0.341649
	H10865	H	0.825229	0.862232	0.341650
	H10866	H	0.824891	0.143046	0.341658
	H10867	H	0.825518	0.361681	0.341726
	H10868	H	0.779850	0.643303	0.273803
	H10869	H	0.829711	0.642176	0.275759
	H10870	H	0.829696	0.861635	0.275731
	H10871	H	0.780257	0.863070	0.273944
	H10872	H	0.828934	0.642156	0.291755
	H10873	H	0.828963	0.861901	0.291740
	H10874	H	0.816970	0.643293	0.357112
	H10875	H	0.817154	0.862419	0.357113
	H10876	H	0.803777	0.441546	0.250736
	H10877	H	0.784891	0.441001	0.380095
	H10878	H	0.806520	0.440862	0.248734
	H10879	H	0.810465	0.440923	0.248736
	H10880	H	0.786554	0.441105	0.379832
	H10881	H	0.786152	0.441182	0.380176
	H10882	H	0.784855	0.564979	0.380131
	H10883	H	0.803940	0.564087	0.250732
	H10884	H	0.786176	0.564575	0.380177
	H10885	H	0.786560	0.564257	0.379816
	H10886	H	0.810498	0.565012	0.248775
	H10887	H	0.806522	0.564488	0.248728
	H10888	H	0.816816	0.143069	0.357134
	H10889	H	0.817348	0.361702	0.357167
	H10890	H	0.801985	0.064652	0.249030
	H10891	H	0.801859	0.064228	0.251805
	H10892	H	0.809577	0.065030	0.247343
	H10893	H	0.767096	0.861812	0.354312
	H10894	H	0.766372	0.642179	0.354345
	H10895	H	0.766341	0.363019	0.354383
	H10896	H	0.767271	0.143386	0.354292
	H10897	H	0.780264	0.143074	0.273931
	H10898	H	0.829563	0.143286	0.275730
	H10899	H	0.829494	0.363016	0.275713
	H10900	H	0.779966	0.362364	0.273849
	H10901	H	0.828937	0.143152	0.291720
	H10902	H	0.828904	0.362765	0.291724
	H10903	H	0.785188	0.064776	0.379883
	H10904	H	0.785585	0.063997	0.379938
	H10905	H	0.786069	0.064330	0.379860
	H10906	H	0.801835	0.941391	0.251786
	H10907	H	0.802028	0.941236	0.249029
	H10908	H	0.809671	0.941090	0.247383
	H10909	H	0.785191	0.940786	0.379867
	H10910	H	0.785518	0.941322	0.379989
	H10911	H	0.786007	0.940810	0.379884
	Zn10912	Zn	0.746272	0.680263	0.313144
	Zn10913	Zn	0.746638	0.825242	0.313209
	Zn10914	Zn	0.746663	0.180302	0.313207
	Zn10915	Zn	0.746288	0.325343	0.313137
	Zn10916	Zn	0.785610	0.680021	0.379767
	Zn10917	Zn	0.785620	0.825175	0.379755
	Zn10918	Zn	0.785637	0.180044	0.379772
	Zn10919	Zn	0.785559	0.325260	0.379787
	C10920	C	0.829489	0.752172	0.302396
	C10921	C	0.766013	0.751522	0.327669
	C10922	C	0.767550	0.751617	0.337332
	C10923	C	0.767126	0.689615	0.341886
	C10924	C	0.767502	0.813782	0.341859
	C10925	C	0.765934	0.253734	0.327681
	C10926	C	0.767529	0.253697	0.337352
	C10927	C	0.767575	0.191453	0.341863
	C10928	C	0.767065	0.315639	0.341919
	C10929	C	0.767755	0.752388	0.299759
	C10930	C	0.772905	0.752630	0.290463
	C10931	C	0.774752	0.814858	0.286040
	C10932	C	0.774524	0.690630	0.285964
	C10933	C	0.767700	0.253213	0.299754
	C10934	C	0.772878	0.252975	0.290474
	C10935	C	0.774596	0.314841	0.285988
	C10936	C	0.774822	0.190875	0.286050
	C10937	C	0.848616	0.043612	0.315355
	C10938	C	0.848633	0.962449	0.315346
	C10939	C	0.735613	0.043347	0.312450
	C10940	C	0.735589	0.962508	0.312455
	C10941	C	0.750994	0.043194	0.317817
	C10942	C	0.751022	0.962476	0.317795
	C10943	C	0.739920	0.462462	0.312489
	C10944	C	0.846639	0.462432	0.317014
	C10945	C	0.848193	0.462645	0.317034
	C10946	C	0.739943	0.543273	0.312473
	C10947	C	0.848229	0.543350	0.317026
	C10948	C	0.846662	0.543329	0.316990
	C10949	C	0.830205	0.752847	0.331400
	C10950	C	0.830224	0.252408	0.331442
	C10951	C	0.825393	0.752793	0.340696
	C10952	C	0.823356	0.690880	0.345103
	C10953	C	0.823454	0.814713	0.345102
	C10954	C	0.825353	0.252330	0.340722
	C10955	C	0.823206	0.190515	0.345115
	C10956	C	0.823588	0.314209	0.345142
	C10957	C	0.829537	0.252874	0.302371
	C10958	C	0.828342	0.752015	0.265131
	C10959	C	0.786137	0.753411	0.263698
	C10960	C	0.767400	0.752254	0.364949
	C10961	C	0.829069	0.689946	0.288202
	C10962	C	0.829033	0.814105	0.288189
	C10963	C	0.829887	0.751933	0.274786
	C10964	C	0.780194	0.753170	0.272892
	C10965	C	0.778188	0.690893	0.277286
	C10966	C	0.829603	0.689927	0.279318
	C10967	C	0.829589	0.814042	0.279304
	C10968	C	0.778430	0.815181	0.277360
	C10969	C	0.828623	0.752038	0.292733
	C10970	C	0.809632	0.752891	0.367050
	C10971	C	0.818958	0.690900	0.353694
	C10972	C	0.819062	0.814777	0.353695
	C10973	C	0.816622	0.752827	0.358050
	C10974	C	0.784821	0.462240	0.379899
	C10975	C	0.808500	0.462309	0.249239
	C10976	C	0.786054	0.462480	0.379923
	C10977	C	0.784842	0.543163	0.379915
	C10978	C	0.786099	0.543078	0.379938
	C10979	C	0.808507	0.543430	0.249254
	C10980	C	0.809661	0.252456	0.367092
	C10981	C	0.818815	0.190608	0.353708
	C10982	C	0.819191	0.314268	0.353732
	C10983	C	0.816655	0.252477	0.358083
	C10984	C	0.803714	0.043170	0.250477
	C10985	C	0.828353	0.253415	0.265119
	C10986	C	0.786077	0.252583	0.263691
	C10987	C	0.767398	0.252992	0.364990
	C10988	C	0.828987	0.190976	0.288177
	C10989	C	0.828990	0.315116	0.288172
	C10990	C	0.829788	0.253173	0.274770
	C10991	C	0.780188	0.252640	0.272892
	C10992	C	0.766438	0.751995	0.355278
	C10993	C	0.767024	0.814052	0.350744
	C10994	C	0.766651	0.689778	0.350768
	C10995	C	0.766398	0.253109	0.355313
	C10996	C	0.766595	0.315355	0.350808
	C10997	C	0.767099	0.191198	0.350752
	C10998	C	0.778495	0.190755	0.277367
	C10999	C	0.829498	0.190979	0.279301
	C11000	C	0.829490	0.315293	0.279292
	C11001	C	0.778272	0.314707	0.277305
	C11002	C	0.828590	0.253024	0.292706
	C11003	C	0.785418	0.043046	0.379869
	C11004	C	0.811386	0.043419	0.248806
	C11005	C	0.803759	0.962575	0.250470
	C11006	C	0.785390	0.962284	0.379863
	C11007	C	0.811431	0.962554	0.248809
	N11008	N	0.746656	0.070099	0.313239
	N11009	N	0.746655	0.935520	0.313226
	N11010	N	0.746206	0.435673	0.313127
	N11011	N	0.746222	0.570182	0.313105
	N11012	N	0.785361	0.435425	0.379769
	N11013	N	0.785394	0.569986	0.379792
	N11014	N	0.785571	0.069879	0.379763
	N11015	N	0.785539	0.935305	0.379761
	O11016	O	0.877454	0.694847	0.422862
	O11017	O	0.877395	0.811159	0.422899
	O11018	O	0.746024	0.694044	0.451368
	O11019	O	0.746191	0.810509	0.451298
	O11020	O	0.746036	0.194769	0.451312
	O11021	O	0.746011	0.311054	0.451319
	O11022	O	0.743506	0.694049	0.432852
	O11023	O	0.743916	0.810808	0.432924
	O11024	O	0.743855	0.194437	0.432954
	O11025	O	0.743657	0.311284	0.432924
	O11026	O	0.879861	0.694233	0.441278
	O11027	O	0.879750	0.810917	0.441215
	O11028	O	0.879860	0.194715	0.441295
	O11029	O	0.879928	0.311425	0.441333
	O11030	O	0.877473	0.195193	0.422844
	O11031	O	0.877512	0.311675	0.422839
	O11032	O	0.808533	0.694871	0.388787
	O11033	O	0.770008	0.694120	0.390381
	O11034	O	0.853552	0.694930	0.483797
	O11035	O	0.853254	0.811519	0.483741
	O11036	O	0.815159	0.693951	0.485379
	O11037	O	0.814717	0.810252	0.485554
	O11038	O	0.770045	0.810712	0.390356
	O11039	O	0.808485	0.811088	0.388797
	O11040	O	0.808450	0.194852	0.388832
	O11041	O	0.770227	0.194072	0.390443
	O11042	O	0.853400	0.194029	0.483742
	O11043	O	0.853382	0.310641	0.483779
	O11044	O	0.814947	0.194988	0.485417
	O11045	O	0.814935	0.311264	0.485398
	O11046	O	0.769984	0.310702	0.390398
	O11047	O	0.808448	0.311241	0.388786
	H11048	H	0.768326	0.643487	0.462274
	H11049	H	0.768308	0.860535	0.462158
	H11050	H	0.768243	0.144512	0.462191
	H11051	H	0.768612	0.361543	0.462130
	H11052	H	0.755096	0.862035	0.419721
	H11053	H	0.754426	0.642899	0.419620
	H11054	H	0.754203	0.362122	0.419661
	H11055	H	0.754720	0.143311	0.419743
	H11056	H	0.906376	0.064134	0.431604
	H11057	H	0.903551	0.064489	0.429738
	H11058	H	0.903574	0.940179	0.429785
	H11059	H	0.906348	0.940439	0.431649
	H11060	H	0.903395	0.064627	0.434307
	H11061	H	0.903329	0.940788	0.434302
	H11062	H	0.728258	0.064841	0.440868
	H11063	H	0.728165	0.941192	0.440847
	H11064	H	0.723814	0.064245	0.439553
	H11065	H	0.723686	0.940832	0.439608
	H11066	H	0.717618	0.063970	0.441007
	H11067	H	0.717590	0.940904	0.441045
	H11068	H	0.725727	0.441032	0.442854
	H11069	H	0.725734	0.441080	0.441794
	H11070	H	0.722873	0.440917	0.443510
	H11071	H	0.898830	0.440754	0.435539
	H11072	H	0.892073	0.441053	0.432340
	H11073	H	0.894060	0.440883	0.429332
	H11074	H	0.725532	0.564209	0.441801
	H11075	H	0.725623	0.564487	0.442859
	H11076	H	0.893899	0.564047	0.429328
	H11077	H	0.891950	0.564115	0.432318
	H11078	H	0.898842	0.564301	0.435571
	H11079	H	0.722822	0.564124	0.443519
	H11080	H	0.869500	0.643607	0.454640
	H11081	H	0.868592	0.862220	0.454442
	H11082	H	0.868803	0.143644	0.454464
	H11083	H	0.869179	0.362653	0.454613
	H11084	H	0.762689	0.642957	0.404155
	H11085	H	0.830972	0.644817	0.399627
	H11086	H	0.830790	0.861402	0.399667
	H11087	H	0.763339	0.862048	0.404273
	H11088	H	0.855333	0.645220	0.411980
	H11089	H	0.855170	0.861157	0.412037
	H11090	H	0.861142	0.643749	0.470082
	H11091	H	0.860235	0.862427	0.469877
	H11092	H	0.784459	0.441037	0.379808
	H11093	H	0.842406	0.441068	0.494923
	H11094	H	0.785020	0.440611	0.379353
	H11095	H	0.785875	0.440651	0.379415
	H11096	H	0.836763	0.440687	0.492618
	H11097	H	0.840443	0.441139	0.492849
	H11098	H	0.842465	0.564623	0.494905
	H11099	H	0.784437	0.564194	0.379814
	H11100	H	0.840302	0.563723	0.492856
	H11101	H	0.836801	0.563901	0.492641
	H11102	H	0.785950	0.564314	0.379415
	H11103	H	0.785059	0.563900	0.379378
	H11104	H	0.860513	0.143243	0.469905
	H11105	H	0.860958	0.362226	0.470058
	H11106	H	0.785624	0.064091	0.379564
	H11107	H	0.785229	0.064650	0.379599
	H11108	H	0.786050	0.064503	0.379648
	H11109	H	0.792708	0.860762	0.474552
	H11110	H	0.792656	0.643422	0.474639
	H11111	H	0.792995	0.361421	0.474500
	H11112	H	0.792689	0.144615	0.474544
	H11113	H	0.762919	0.143088	0.404276
	H11114	H	0.830572	0.144539	0.399752
	H11115	H	0.830885	0.362170	0.399624
	H11116	H	0.762455	0.361985	0.404213
	H11117	H	0.855083	0.144867	0.412072
	H11118	H	0.855340	0.362088	0.411938
	H11119	H	0.826780	0.064240	0.492269
	H11120	H	0.827386	0.064194	0.496715
	H11121	H	0.839784	0.064383	0.499579
	H11122	H	0.785291	0.940698	0.379577
	H11123	H	0.785607	0.941160	0.379559
	H11124	H	0.786002	0.940805	0.379681
	H11125	H	0.826826	0.941087	0.492314
	H11126	H	0.827459	0.940689	0.496678
	H11127	H	0.839680	0.940742	0.499593
	Zn11128	Zn	0.723040	0.680088	0.442283
	Zn11129	Zn	0.723234	0.825470	0.442262
	Zn11130	Zn	0.723198	0.180257	0.442265
	Zn11131	Zn	0.723065	0.325181	0.442273
	Zn11132	Zn	0.838027	0.679950	0.494419
	Zn11133	Zn	0.837817	0.825426	0.494461
	Zn11134	Zn	0.837950	0.180260	0.494423
	Zn11135	Zn	0.837935	0.325531	0.494425
	C11136	C	0.871527	0.752984	0.420105
	C11137	C	0.752046	0.752218	0.454097
	C11138	C	0.767015	0.752062	0.461432
	C11139	C	0.773789	0.690657	0.464987
	C11140	C	0.773809	0.813490	0.464927
	C11141	C	0.751968	0.252949	0.454086
	C11142	C	0.766935	0.253009	0.461431
	C11143	C	0.773741	0.191644	0.464938
	C11144	C	0.773938	0.314430	0.464908
	C11145	C	0.747076	0.752437	0.429551
	C11146	C	0.754170	0.752454	0.420572
	C11147	C	0.756880	0.814435	0.416269
	C11148	C	0.756488	0.690460	0.416206
	C11149	C	0.747117	0.252855	0.429613
	C11150	C	0.754118	0.252800	0.420617
	C11151	C	0.756307	0.314694	0.416248
	C11152	C	0.756603	0.190741	0.416287
	C11153	C	0.903820	0.042978	0.430989
	C11154	C	0.903832	0.962013	0.431008
	C11155	C	0.725239	0.043235	0.440756
	C11156	C	0.725182	0.962278	0.440753
	C11157	C	0.718987	0.043132	0.442178
	C11158	C	0.718990	0.962245	0.442196
	C11159	C	0.724956	0.462175	0.442321
	C11160	C	0.901867	0.462008	0.434377
	C11161	C	0.894984	0.462212	0.431128
	C11162	C	0.724919	0.543137	0.442315
	C11163	C	0.894961	0.542816	0.431131
	C11164	C	0.901886	0.543020	0.434394
	C11165	C	0.876446	0.752683	0.444593
	C11166	C	0.876424	0.253060	0.444638
	C11167	C	0.869401	0.752873	0.453591
	C11168	C	0.867266	0.691067	0.458013
	C11169	C	0.866764	0.814802	0.457891
	C11170	C	0.869281	0.253071	0.453613
	C11171	C	0.866837	0.191010	0.457925
	C11172	C	0.867065	0.314972	0.458010
	C11173	C	0.871541	0.253471	0.420093
	C11174	C	0.814460	0.752970	0.391553
	C11175	C	0.767933	0.752471	0.393951
	C11176	C	0.809057	0.752134	0.482684
	C11177	C	0.849853	0.692023	0.409238
	C11178	C	0.849725	0.814336	0.409268
	C11179	C	0.829430	0.753060	0.398877
	C11180	C	0.763008	0.752553	0.403238
	C11181	C	0.760921	0.690462	0.407615
	C11182	C	0.836336	0.691892	0.402383
	C11183	C	0.836220	0.814394	0.402399
	C11184	C	0.761305	0.814508	0.407678
	C11185	C	0.856620	0.753122	0.412754
	C11186	C	0.855489	0.753239	0.480195
	C11187	C	0.862765	0.691185	0.466592
	C11188	C	0.862271	0.814961	0.466475
	C11189	C	0.860478	0.753180	0.470921
	C11190	C	0.840541	0.462155	0.495254
	C11191	C	0.785407	0.462064	0.379477
	C11192	C	0.838514	0.462288	0.493195
	C11193	C	0.840601	0.543147	0.495251
	C11194	C	0.838542	0.542817	0.493200
	C11195	C	0.785447	0.542934	0.379487
	C11196	C	0.855427	0.252435	0.480184
	C11197	C	0.862320	0.190844	0.466496
	C11198	C	0.862554	0.314719	0.466579
	C11199	C	0.860332	0.252643	0.470921
	C11200	C	0.785437	0.043048	0.379622
	C11201	C	0.814336	0.253142	0.391600
	C11202	C	0.768022	0.252416	0.394003
	C11203	C	0.809069	0.253075	0.482627
	C11204	C	0.849656	0.191879	0.409313
	C11205	C	0.849795	0.314903	0.409242
	C11206	C	0.829278	0.253310	0.398938
	C11207	C	0.763019	0.252527	0.403284
	C11208	C	0.794186	0.752138	0.475318
	C11209	C	0.787309	0.813583	0.471798
	C11210	C	0.787301	0.690680	0.471849
	C11211	C	0.794205	0.252958	0.475278
	C11212	C	0.787469	0.314356	0.471765
	C11213	C	0.787265	0.191636	0.471796
	C11214	C	0.761058	0.190659	0.407701
	C11215	C	0.836117	0.191755	0.402461
	C11216	C	0.836269	0.314926	0.402393
	C11217	C	0.760785	0.314534	0.407663
	C11218	C	0.856541	0.253440	0.412782
	C11219	C	0.830024	0.043120	0.494475
	C11220	C	0.785882	0.043210	0.379765
	C11221	C	0.785436	0.962281	0.379617
	C11222	C	0.830023	0.962287	0.494486
	C11223	C	0.785872	0.962212	0.379774
	N11224	N	0.723099	0.070086	0.442260
	N11225	N	0.723057	0.935538	0.442265
	N11226	N	0.723045	0.435319	0.442288
	N11227	N	0.723027	0.569866	0.442302
	N11228	N	0.838203	0.435503	0.494454
	N11229	N	0.838279	0.569970	0.494475
	N11230	N	0.837989	0.069986	0.494434
	N11231	N	0.837950	0.935496	0.494461
	O11232	O	0.858097	0.695415	0.550143
	O11233	O	0.858338	0.812071	0.550175
	O11234	O	0.792508	0.694535	0.567954
	O11235	O	0.792830	0.811221	0.567867
	O11236	O	0.792681	0.193677	0.567884
	O11237	O	0.792372	0.310591	0.567896
	O11238	O	0.790584	0.694046	0.546273
	O11239	O	0.790754	0.810571	0.546285
	O11240	O	0.790758	0.194006	0.546260
	O11241	O	0.790556	0.310502	0.546235
	O11242	O	0.857742	0.695213	0.570999
	O11243	O	0.858369	0.811670	0.571178
	O11244	O	0.858378	0.194340	0.571142
	O11245	O	0.857797	0.310750	0.570993
	O11246	O	0.858243	0.193885	0.550188
	O11247	O	0.858159	0.310531	0.550167
	O11248	O	0.855346	0.695115	0.505391
	O11249	O	0.817153	0.694013	0.503727
	O11250	O	0.833129	0.693555	0.613920
	O11251	O	0.833770	0.810116	0.614067
	O11252	O	0.795294	0.696258	0.612663
	O11253	O	0.795808	0.813162	0.612624
	O11254	O	0.817387	0.810791	0.503848
	O11255	O	0.855212	0.811847	0.505403
	O11256	O	0.855301	0.193822	0.505444
	O11257	O	0.817439	0.194397	0.503796
	O11258	O	0.833885	0.195978	0.614028
	O11259	O	0.833145	0.312708	0.613924
	O11260	O	0.795973	0.193127	0.612583
	O11261	O	0.795168	0.309896	0.612633
	O11262	O	0.817457	0.311106	0.503817
	O11263	O	0.855331	0.310671	0.505429
	H11264	H	0.793298	0.644182	0.582321
	H11265	H	0.794707	0.863815	0.582237
	H11266	H	0.794985	0.142185	0.582257
	H11267	H	0.793268	0.361731	0.582247
	H11268	H	0.798190	0.861513	0.532486
	H11269	H	0.797581	0.642486	0.532374
	H11270	H	0.798112	0.361607	0.532479
	H11271	H	0.797895	0.142923	0.532419
	H11272	H	0.882746	0.064494	0.562751
	H11273	H	0.883259	0.064582	0.560062
	H11274	H	0.883275	0.941037	0.560079
	H11275	H	0.882788	0.941413	0.562826
	H11276	H	0.875106	0.064861	0.564230
	H11277	H	0.874973	0.941295	0.564215
	H11278	H	0.762573	0.064366	0.556371
	H11279	H	0.762567	0.941114	0.556387
	H11280	H	0.766664	0.064347	0.560850
	H11281	H	0.766618	0.941224	0.560837
	H11282	H	0.781167	0.064579	0.561926
	H11283	H	0.781208	0.941031	0.561945
	H11284	H	0.776271	0.440322	0.557828
	H11285	H	0.777646	0.440883	0.557232
	H11286	H	0.773633	0.440416	0.557608
	H11287	H	0.880170	0.441084	0.564549
	H11288	H	0.869955	0.440611	0.563757
	H11289	H	0.867049	0.441094	0.560662
	H11290	H	0.777644	0.563947	0.557293
	H11291	H	0.776286	0.563869	0.557877
	H11292	H	0.867062	0.563935	0.560647
	H11293	H	0.869926	0.564681	0.563724
	H11294	H	0.880197	0.564550	0.564465
	H11295	H	0.773625	0.564664	0.557617
	H11296	H	0.849214	0.643264	0.584697
	H11297	H	0.851131	0.862332	0.585036
	H11298	H	0.850917	0.143689	0.584987
	H11299	H	0.849707	0.363053	0.584743
	H11300	H	0.806032	0.642370	0.516963
	H11301	H	0.856748	0.643935	0.519793
	H11302	H	0.856918	0.863328	0.519727
	H11303	H	0.806573	0.861309	0.517052
	H11304	H	0.855743	0.644186	0.535783
	H11305	H	0.856032	0.863808	0.535741
	H11306	H	0.842027	0.642614	0.600244
	H11307	H	0.843964	0.861620	0.600612
	H11308	H	0.840236	0.440809	0.496113
	H11309	H	0.800688	0.441142	0.625257
	H11310	H	0.835356	0.441268	0.495866
	H11311	H	0.833781	0.441433	0.494338
	H11312	H	0.823451	0.440903	0.627386
	H11313	H	0.813342	0.441124	0.629320
	H11314	H	0.800531	0.564531	0.625228
	H11315	H	0.840321	0.564581	0.496163
	H11316	H	0.813327	0.564630	0.629282
	H11317	H	0.823478	0.564371	0.627389
	H11318	H	0.833810	0.564817	0.494355
	H11319	H	0.835293	0.564938	0.495873
	H11320	H	0.843713	0.144461	0.600563
	H11321	H	0.842455	0.363746	0.600297
	H11322	H	0.847329	0.064834	0.491375
	H11323	H	0.838357	0.064614	0.489262
	H11324	H	0.848053	0.064705	0.497394
	H11325	H	0.793874	0.864494	0.598235
	H11326	H	0.792432	0.644949	0.598315
	H11327	H	0.792382	0.361578	0.598241
	H11328	H	0.794222	0.141967	0.598246
	H11329	H	0.806339	0.143222	0.516984
	H11330	H	0.856928	0.142415	0.519772
	H11331	H	0.856476	0.362141	0.519854
	H11332	H	0.806494	0.361856	0.517041
	H11333	H	0.856098	0.142079	0.535778
	H11334	H	0.855657	0.361790	0.535845
	H11335	H	0.823646	0.064278	0.617445
	H11336	H	0.809224	0.064681	0.616034
	H11337	H	0.796434	0.064978	0.622451
	H11338	H	0.838247	0.941222	0.489303
	H11339	H	0.847146	0.941332	0.491392
	H11340	H	0.848068	0.941395	0.497399
	H11341	H	0.823605	0.940729	0.617521
	H11342	H	0.809238	0.941044	0.616037
	H11343	H	0.796350	0.941264	0.622468
	Zn11344	Zn	0.775225	0.679823	0.556933
	Zn11345	Zn	0.775222	0.825262	0.556923
	Zn11346	Zn	0.775197	0.180003	0.556901
	Zn11347	Zn	0.775253	0.325351	0.556915
	Zn11348	Zn	0.813180	0.680288	0.623460
	Zn11349	Zn	0.813708	0.825107	0.623492
	Zn11350	Zn	0.813806	0.180660	0.623493
	Zn11351	Zn	0.813168	0.325312	0.623460
	C11352	C	0.857018	0.753856	0.546427
	C11353	C	0.793605	0.753097	0.571653
	C11354	C	0.794366	0.753902	0.581303
	C11355	C	0.793512	0.692009	0.585861
	C11356	C	0.794295	0.816216	0.585814
	C11357	C	0.793461	0.252103	0.571626
	C11358	C	0.794377	0.252088	0.581294
	C11359	C	0.794513	0.189872	0.585818
	C11360	C	0.793511	0.314151	0.585803
	C11361	C	0.792777	0.752281	0.542696
	C11362	C	0.797748	0.752023	0.533405
	C11363	C	0.799912	0.813910	0.529033
	C11364	C	0.799582	0.689989	0.528972
	C11365	C	0.792775	0.252254	0.542669
	C11366	C	0.797796	0.252237	0.533401
	C11367	C	0.799923	0.314148	0.529027
	C11368	C	0.799826	0.190402	0.528999
	C11369	C	0.881254	0.043327	0.561312
	C11370	C	0.881250	0.962573	0.561324
	C11371	C	0.767475	0.042977	0.558168
	C11372	C	0.767460	0.962283	0.558163
	C11373	C	0.782002	0.043185	0.559276
	C11374	C	0.782033	0.962118	0.559293
	C11375	C	0.776530	0.462023	0.557386
	C11376	C	0.880744	0.462766	0.562668
	C11377	C	0.870490	0.462275	0.561887
	C11378	C	0.776532	0.542747	0.557414
	C11379	C	0.870479	0.543190	0.561888
	C11380	C	0.880716	0.543502	0.562628
	C11381	C	0.855534	0.753290	0.574614
	C11382	C	0.855656	0.252692	0.574615
	C11383	C	0.850483	0.752876	0.583892
	C11384	C	0.848076	0.690731	0.588224
	C11385	C	0.849179	0.814555	0.588424
	C11386	C	0.850584	0.253314	0.583895
	C11387	C	0.849042	0.191477	0.588394
	C11388	C	0.848361	0.315536	0.588260
	C11389	C	0.856978	0.252095	0.546443
	C11390	C	0.856215	0.753471	0.509139
	C11391	C	0.813857	0.752231	0.507110
	C11392	C	0.794301	0.754742	0.608923
	C11393	C	0.855968	0.691869	0.532225
	C11394	C	0.856112	0.815963	0.532201
	C11395	C	0.857082	0.753671	0.518806
	C11396	C	0.806774	0.751906	0.516092
	C11397	C	0.804123	0.689903	0.520399
	C11398	C	0.856586	0.691721	0.523343
	C11399	C	0.856719	0.815800	0.523318
	C11400	C	0.804444	0.813848	0.520457
	C11401	C	0.855747	0.753991	0.536755
	C11402	C	0.836528	0.751860	0.610564
	C11403	C	0.844183	0.690389	0.596875
	C11404	C	0.845277	0.814156	0.597080
	C11405	C	0.842695	0.752082	0.601396
	C11406	C	0.804243	0.462319	0.622981
	C11407	C	0.835546	0.462479	0.494938
	C11408	C	0.816984	0.462307	0.627067
	C11409	C	0.804260	0.543350	0.622963
	C11410	C	0.816998	0.543195	0.627057
	C11411	C	0.835566	0.543443	0.494944
	C11412	C	0.836582	0.254399	0.610541
	C11413	C	0.845146	0.191992	0.597054
	C11414	C	0.844457	0.315970	0.596914
	C11415	C	0.842773	0.254171	0.601394
	C11416	C	0.841566	0.043226	0.491408
	C11417	C	0.856212	0.252276	0.509171
	C11418	C	0.814052	0.252743	0.507141
	C11419	C	0.794337	0.251524	0.608883
	C11420	C	0.856120	0.189856	0.532224
	C11421	C	0.855871	0.314100	0.532269
	C11422	C	0.857044	0.252247	0.518830
	C11423	C	0.806956	0.252527	0.516114
	C11424	C	0.793028	0.754748	0.599251
	C11425	C	0.793672	0.816618	0.594695
	C11426	C	0.792882	0.692483	0.594741
	C11427	C	0.793052	0.251767	0.599219
	C11428	C	0.792901	0.313973	0.594683
	C11429	C	0.793908	0.189710	0.594691
	C11430	C	0.804415	0.190543	0.520430
	C11431	C	0.856729	0.190077	0.523345
	C11432	C	0.856493	0.314254	0.523386
	C11433	C	0.804507	0.314312	0.520460
	C11434	C	0.855656	0.251934	0.536778
	C11435	C	0.815702	0.043108	0.618523
	C11436	C	0.842395	0.043207	0.497421
	C11437	C	0.841502	0.962383	0.491419
	C11438	C	0.815684	0.962380	0.618532
	C11439	C	0.842348	0.962337	0.497421
	N11440	N	0.775241	0.069774	0.556908
	N11441	N	0.775294	0.935263	0.556899
	N11442	N	0.775412	0.435368	0.556874
	N11443	N	0.775436	0.569843	0.556920
	N11444	N	0.813170	0.435513	0.623481
	N11445	N	0.813182	0.570035	0.623459
	N11446	N	0.813683	0.070230	0.623481
	N11447	N	0.813712	0.935608	0.623520
	O11448	O	0.856956	0.694102	0.677052
	O11449	O	0.856788	0.810792	0.677023
	O11450	O	0.770479	0.694162	0.696433
	O11451	O	0.770719	0.810708	0.696400
	O11452	O	0.770573	0.194795	0.696454
	O11453	O	0.770442	0.311414	0.696480
	O11454	O	0.770871	0.693953	0.676391
	O11455	O	0.771134	0.810662	0.676511
	O11456	O	0.771416	0.194715	0.676552
	O11457	O	0.770776	0.311371	0.676407
	O11458	O	0.856210	0.694464	0.697018
	O11459	O	0.856226	0.810940	0.697054
	O11460	O	0.856037	0.195312	0.697007
	O11461	O	0.856282	0.311875	0.697035
	O11462	O	0.856954	0.195082	0.676991
	O11463	O	0.856875	0.311727	0.677078
	O11464	O	0.832475	0.693328	0.633939
	O11465	O	0.794977	0.695957	0.633427
	O11466	O	0.831972	0.694287	0.739999
	O11467	O	0.831995	0.810662	0.739974
	O11468	O	0.794281	0.695243	0.739625
	O11469	O	0.794412	0.811871	0.739597
	O11470	O	0.795574	0.812689	0.633572
	O11471	O	0.833135	0.809879	0.633886
	O11472	O	0.833059	0.195990	0.633882
	O11473	O	0.795646	0.193158	0.633591
	O11474	O	0.832078	0.195403	0.740002
	O11475	O	0.831977	0.312027	0.739986
	O11476	O	0.794540	0.194515	0.739578
	O11477	O	0.794232	0.311090	0.739649
	O11478	O	0.795026	0.309825	0.633495
	O11479	O	0.832660	0.312619	0.633906
	H11480	H	0.778687	0.643593	0.710288
	H11481	H	0.779453	0.861848	0.710190
	H11482	H	0.779357	0.143875	0.710222
	H11483	H	0.778691	0.362584	0.710296
	H11484	H	0.780936	0.862611	0.662981
	H11485	H	0.780280	0.643187	0.662766
	H11486	H	0.779803	0.361890	0.662799
	H11487	H	0.781300	0.142736	0.663055
	H11488	H	0.868007	0.064382	0.691256
	H11489	H	0.877679	0.064960	0.692793
	H11490	H	0.877688	0.941322	0.692743
	H11491	H	0.868077	0.941207	0.691262
	H11492	H	0.864912	0.064732	0.685279
	H11493	H	0.864918	0.941419	0.685261
	H11494	H	0.751353	0.064885	0.691234
	H11495	H	0.751326	0.941137	0.691219
	H11496	H	0.760473	0.064713	0.689524
	H11497	H	0.760404	0.941490	0.689578
	H11498	H	0.761668	0.064660	0.683606
	H11499	H	0.761712	0.941118	0.683622
	H11500	H	0.750718	0.441126	0.684430
	H11501	H	0.748127	0.440932	0.685103
	H11502	H	0.754307	0.441471	0.685324
	H11503	H	0.879359	0.441541	0.684588
	H11504	H	0.883747	0.441964	0.687926
	H11505	H	0.880735	0.441871	0.690235
	H11506	H	0.748059	0.564539	0.685104
	H11507	H	0.750714	0.564399	0.684434
	H11508	H	0.880714	0.565219	0.690215
	H11509	H	0.883654	0.565295	0.687945
	H11510	H	0.879301	0.565062	0.684638
	H11511	H	0.754293	0.564090	0.685356
	H11512	H	0.846536	0.642976	0.710557
	H11513	H	0.846721	0.862085	0.710578
	H11514	H	0.846702	0.144016	0.710607
	H11515	H	0.846641	0.363450	0.710558
	H11516	H	0.787285	0.644071	0.647165
	H11517	H	0.841117	0.642405	0.647733
	H11518	H	0.841611	0.860916	0.647655
	H11519	H	0.787975	0.863290	0.647410
	H11520	H	0.848227	0.642800	0.663303
	H11521	H	0.848641	0.861150	0.663229
	H11522	H	0.839379	0.642894	0.726110
	H11523	H	0.839580	0.862132	0.726151
	H11524	H	0.801494	0.441062	0.620363
	H11525	H	0.815684	0.441136	0.751616
	H11526	H	0.815485	0.440992	0.617719
	H11527	H	0.824718	0.441224	0.620727
	H11528	H	0.815681	0.441134	0.748459
	H11529	H	0.817669	0.441245	0.749745
	H11530	H	0.815659	0.564809	0.751583
	H11531	H	0.801643	0.564890	0.620341
	H11532	H	0.817702	0.564703	0.749712
	H11533	H	0.815623	0.564488	0.748417
	H11534	H	0.824747	0.564231	0.620735
	H11535	H	0.815487	0.564416	0.617714
	H11536	H	0.839804	0.144181	0.726217
	H11537	H	0.839656	0.363519	0.726152
	H11538	H	0.821048	0.064497	0.630543
	H11539	H	0.830448	0.064773	0.625848
	H11540	H	0.801280	0.064058	0.628576
	H11541	H	0.786461	0.862475	0.725771
	H11542	H	0.785744	0.644015	0.725849
	H11543	H	0.785770	0.362313	0.725852
	H11544	H	0.786462	0.143570	0.725783
	H11545	H	0.788413	0.141932	0.647485
	H11546	H	0.841375	0.144800	0.647645
	H11547	H	0.841160	0.363559	0.647727
	H11548	H	0.786948	0.361564	0.647236
	H11549	H	0.848570	0.144440	0.663201
	H11550	H	0.848380	0.363351	0.663291
	H11551	H	0.819459	0.064520	0.751859
	H11552	H	0.820377	0.064874	0.749332
	H11553	H	0.814204	0.064973	0.747010
	H11554	H	0.830445	0.940756	0.625879
	H11555	H	0.821092	0.941558	0.630605
	H11556	H	0.801377	0.941562	0.628605
	H11557	H	0.819411	0.941021	0.751836
	H11558	H	0.820462	0.941095	0.749334
	H11559	H	0.814295	0.940929	0.746971
	Zn11560	Zn	0.751155	0.680439	0.686021
	Zn11561	Zn	0.751359	0.825141	0.686005
	Zn11562	Zn	0.751287	0.180612	0.685995
	Zn11563	Zn	0.751127	0.325199	0.685982
	Zn11564	Zn	0.813629	0.680565	0.749998
	Zn11565	Zn	0.813903	0.825194	0.750039
	Zn11566	Zn	0.813897	0.180522	0.750040
	Zn11567	Zn	0.813703	0.325170	0.750037
	C11568	C	0.854163	0.752349	0.673500
	C11569	C	0.773213	0.752413	0.699985
	C11570	C	0.778703	0.752704	0.709299
	C11571	C	0.780447	0.691046	0.713727
	C11572	C	0.780835	0.814599	0.713684
	C11573	C	0.773268	0.253101	0.700008
	C11574	C	0.778813	0.253216	0.709313
	C11575	C	0.780885	0.191263	0.713699
	C11576	C	0.780489	0.314977	0.713744
	C11577	C	0.774050	0.752452	0.673014
	C11578	C	0.780159	0.752871	0.663854
	C11579	C	0.782445	0.815080	0.659501
	C11580	C	0.782053	0.691010	0.659367
	C11581	C	0.774153	0.252910	0.673044
	C11582	C	0.780249	0.252437	0.663881
	C11583	C	0.781875	0.314295	0.659405
	C11584	C	0.782640	0.190244	0.659533
	C11585	C	0.873709	0.043581	0.690825
	C11586	C	0.873715	0.962669	0.690815
	C11587	C	0.754663	0.043229	0.689243
	C11588	C	0.754647	0.962627	0.689238
	C11589	C	0.755939	0.043425	0.683251
	C11590	C	0.755951	0.962608	0.683258
	C11591	C	0.749861	0.462223	0.685086
	C11592	C	0.876284	0.462725	0.685335
	C11593	C	0.880704	0.462939	0.688663
	C11594	C	0.749845	0.543299	0.685103
	C11595	C	0.880675	0.543869	0.688665
	C11596	C	0.876308	0.543599	0.685360
	C11597	C	0.853225	0.752626	0.700486
	C11598	C	0.853139	0.253624	0.700471
	C11599	C	0.847066	0.752519	0.709623
	C11600	C	0.844981	0.690594	0.714029
	C11601	C	0.845063	0.814495	0.714039
	C11602	C	0.847063	0.253672	0.709630
	C11603	C	0.845079	0.191691	0.714063
	C11604	C	0.845035	0.315720	0.714033
	C11605	C	0.854186	0.253569	0.673490
	C11606	C	0.835522	0.751578	0.637453
	C11607	C	0.792782	0.754233	0.637031
	C11608	C	0.791649	0.753527	0.736082
	C11609	C	0.846727	0.690059	0.659813
	C11610	C	0.846960	0.813734	0.659779
	C11611	C	0.841068	0.751664	0.646758
	C11612	C	0.787810	0.753783	0.646341
	C11613	C	0.785838	0.691420	0.650700
	C11614	C	0.842839	0.689905	0.651175
	C11615	C	0.843101	0.813587	0.651140
	C11616	C	0.786244	0.815556	0.650839
	C11617	C	0.848743	0.751999	0.664193
	C11618	C	0.834410	0.752409	0.736428
	C11619	C	0.841146	0.690576	0.722687
	C11620	C	0.841225	0.814447	0.722704
	C11621	C	0.839459	0.752445	0.727148
	C11622	C	0.813838	0.462365	0.751189
	C11623	C	0.818247	0.462371	0.620340
	C11624	C	0.815865	0.462376	0.749326
	C11625	C	0.813859	0.543306	0.751189
	C11626	C	0.815859	0.543219	0.749324
	C11627	C	0.818248	0.543055	0.620338
	C11628	C	0.834516	0.253747	0.736456
	C11629	C	0.841250	0.191771	0.722728
	C11630	C	0.841186	0.315770	0.722694
	C11631	C	0.839459	0.253792	0.727156
	C11632	C	0.822565	0.043469	0.626962
	C11633	C	0.835551	0.254362	0.637437
	C11634	C	0.792902	0.251483	0.637088
	C11635	C	0.791676	0.252842	0.736076
	C11636	C	0.846828	0.192008	0.659762
	C11637	C	0.846746	0.315926	0.659812
	C11638	C	0.841047	0.254252	0.646736
	C11639	C	0.787928	0.251708	0.646369
	C11640	C	0.786206	0.753265	0.726777
	C11641	C	0.784617	0.814860	0.722331
	C11642	C	0.784239	0.691310	0.722376
	C11643	C	0.786327	0.252997	0.726766
	C11644	C	0.784266	0.314869	0.722384
	C11645	C	0.784667	0.191167	0.722336
	C11646	C	0.786480	0.189837	0.650868
	C11647	C	0.843027	0.192169	0.651116
	C11648	C	0.842909	0.316040	0.651168
	C11649	C	0.785725	0.313916	0.650747
	C11650	C	0.848686	0.253933	0.664184
	C11651	C	0.818305	0.043354	0.750466
	C11652	C	0.802750	0.043253	0.624982
	C11653	C	0.822565	0.962452	0.626967
	C11654	C	0.818329	0.962438	0.750446
	C11655	C	0.802749	0.962504	0.624999
	N11656	N	0.751357	0.070248	0.685998
	N11657	N	0.751368	0.935644	0.686009
	N11658	N	0.751113	0.435547	0.686020
	N11659	N	0.751093	0.570128	0.686028
	N11660	N	0.813620	0.435379	0.749993
	N11661	N	0.813621	0.569951	0.749977
	N11662	N	0.813773	0.070187	0.750022
	N11663	N	0.813763	0.935577	0.750000
	O11664	O	0.834518	0.693864	0.805562
	O11665	O	0.834820	0.810612	0.805538
	O11666	O	0.768706	0.694241	0.823291
	O11667	O	0.769002	0.810943	0.823286
	O11668	O	0.768865	0.194079	0.823245
	O11669	O	0.768752	0.310922	0.823272
	O11670	O	0.769214	0.694773	0.802444
	O11671	O	0.769128	0.811651	0.802447
	O11672	O	0.769099	0.194104	0.802399
	O11673	O	0.769169	0.310713	0.802440
	O11674	O	0.836462	0.694525	0.827238
	O11675	O	0.836354	0.811001	0.827195
	O11676	O	0.836451	0.195440	0.827216
	O11677	O	0.836637	0.311971	0.827260
	O11678	O	0.834789	0.194713	0.805510
	O11679	O	0.834544	0.311545	0.805571
	O11680	O	0.831644	0.693803	0.760859
	O11681	O	0.793804	0.695179	0.759520
	O11682	O	0.809547	0.694233	0.869649
	O11683	O	0.809578	0.811108	0.869679
	O11684	O	0.771421	0.695019	0.868062
	O11685	O	0.771645	0.811748	0.868027
	O11686	O	0.794042	0.811865	0.759560
	O11687	O	0.831978	0.810544	0.760785
	O11688	O	0.832002	0.195084	0.760822
	O11689	O	0.793828	0.194222	0.759505
	O11690	O	0.809654	0.194907	0.869675
	O11691	O	0.809481	0.311763	0.869668
	O11692	O	0.771645	0.193625	0.868001
	O11693	O	0.771579	0.310404	0.868003
	O11694	O	0.793582	0.310888	0.759498
	O11695	O	0.831721	0.311880	0.760826
	H11696	H	0.770834	0.643074	0.837708
	H11697	H	0.771742	0.862581	0.837653
	H11698	H	0.771728	0.142426	0.837612
	H11699	H	0.770800	0.362006	0.837660
	H11700	H	0.777009	0.863182	0.788671
	H11701	H	0.776812	0.643524	0.788581
	H11702	H	0.776821	0.362179	0.788613
	H11703	H	0.777142	0.142778	0.788650
	H11704	H	0.847582	0.064543	0.816400
	H11705	H	0.848779	0.065013	0.817808
	H11706	H	0.848594	0.941370	0.817854
	H11707	H	0.847350	0.941392	0.816374
	H11708	H	0.850625	0.064589	0.814822
	H11709	H	0.850568	0.941421	0.814760
	H11710	H	0.754414	0.064341	0.810158
	H11711	H	0.754486	0.940595	0.810179
	H11712	H	0.748870	0.064006	0.809655
	H11713	H	0.748959	0.940927	0.809687
	H11714	H	0.744134	0.064590	0.812117
	H11715	H	0.744170	0.941334	0.812157
	H11716	H	0.746825	0.440284	0.812529
	H11717	H	0.748521	0.440943	0.813807
	H11718	H	0.749040	0.440457	0.810823
	H11719	H	0.842685	0.441691	0.816864
	H11720	H	0.847701	0.441413	0.812866
	H11721	H	0.855603	0.441133	0.812955
	H11722	H	0.748659	0.564209	0.813753
	H11723	H	0.746918	0.564675	0.812485
	H11724	H	0.855586	0.564742	0.812973
	H11725	H	0.847838	0.564831	0.812877
	H11726	H	0.842637	0.564824	0.816882
	H11727	H	0.749096	0.563906	0.810785
	H11728	H	0.828823	0.643461	0.840979
	H11729	H	0.829141	0.862195	0.841016
	H11730	H	0.828906	0.144324	0.840967
	H11731	H	0.829282	0.363178	0.841076
	H11732	H	0.784188	0.643971	0.773038
	H11733	H	0.833842	0.642500	0.775211
	H11734	H	0.834561	0.862012	0.775169
	H11735	H	0.784327	0.863461	0.773106
	H11736	H	0.832853	0.642567	0.791210
	H11737	H	0.833541	0.862321	0.791167
	H11738	H	0.820404	0.643262	0.856408
	H11739	H	0.820705	0.862432	0.856457
	H11740	H	0.812201	0.441355	0.751658
	H11741	H	0.783844	0.441392	0.882836
	H11742	H	0.809491	0.440918	0.749895
	H11743	H	0.810969	0.440782	0.748558
	H11744	H	0.799180	0.441505	0.879035
	H11745	H	0.795675	0.441399	0.882467
	H11746	H	0.783857	0.565018	0.882783
	H11747	H	0.812198	0.564715	0.751671
	H11748	H	0.795635	0.564735	0.882452
	H11749	H	0.799107	0.564819	0.879024
	H11750	H	0.810877	0.564184	0.748531
	H11751	H	0.809403	0.564376	0.749904
	H11752	H	0.820509	0.143973	0.856404
	H11753	H	0.820829	0.362837	0.856503
	H11754	H	0.807502	0.064164	0.751228
	H11755	H	0.812027	0.064344	0.752972
	H11756	H	0.808842	0.064666	0.747813
	H11757	H	0.770790	0.863144	0.853636
	H11758	H	0.769859	0.643400	0.853713
	H11759	H	0.769845	0.361676	0.853678
	H11760	H	0.770772	0.142260	0.853614
	H11761	H	0.784331	0.142842	0.773048
	H11762	H	0.834568	0.143836	0.775173
	H11763	H	0.833846	0.363210	0.775218
	H11764	H	0.783967	0.362296	0.773061
	H11765	H	0.833656	0.143452	0.791168
	H11766	H	0.832963	0.363133	0.791203
	H11767	H	0.789114	0.064925	0.879270
	H11768	H	0.789377	0.064789	0.879136
	H11769	H	0.789349	0.064338	0.878907
	H11770	H	0.812031	0.940857	0.752943
	H11771	H	0.807515	0.940940	0.751237
	H11772	H	0.808769	0.941448	0.747821
	H11773	H	0.789031	0.941225	0.879297
	H11774	H	0.789391	0.941267	0.879163
	H11775	H	0.789376	0.941602	0.878953
	Zn11776	Zn	0.750778	0.680046	0.812401
	Zn11777	Zn	0.750897	0.825506	0.812504
	Zn11778	Zn	0.750832	0.179986	0.812472
	Zn11779	Zn	0.750819	0.325317	0.812437
	Zn11780	Zn	0.788928	0.680251	0.878994
	Zn11781	Zn	0.789045	0.825861	0.879036
	Zn11782	Zn	0.789121	0.180129	0.879027
	Zn11783	Zn	0.788895	0.325806	0.879006
	C11784	C	0.833723	0.752207	0.801810
	C11785	C	0.770091	0.752595	0.827023
	C11786	C	0.771353	0.752761	0.836688
	C11787	C	0.770810	0.690861	0.841248
	C11788	C	0.771314	0.814947	0.841213
	C11789	C	0.770039	0.252443	0.826984
	C11790	C	0.771325	0.252221	0.836659
	C11791	C	0.771318	0.190073	0.841179
	C11792	C	0.770791	0.314287	0.841208
	C11793	C	0.771638	0.753263	0.798923
	C11794	C	0.776857	0.753404	0.789650
	C11795	C	0.778714	0.815510	0.785226
	C11796	C	0.778641	0.691409	0.785182
	C11797	C	0.771629	0.252454	0.798892
	C11798	C	0.776811	0.252430	0.789608
	C11799	C	0.778533	0.314572	0.785170
	C11800	C	0.778746	0.190425	0.785175
	C11801	C	0.848982	0.043463	0.816979
	C11802	C	0.848934	0.962561	0.816974
	C11803	C	0.751465	0.042951	0.810572
	C11804	C	0.751468	0.962150	0.810593
	C11805	C	0.746653	0.043296	0.813069
	C11806	C	0.746685	0.962333	0.813090
	C11807	C	0.748525	0.462012	0.812970
	C11808	C	0.846544	0.462945	0.817900
	C11809	C	0.851694	0.462488	0.813865
	C11810	C	0.748567	0.542974	0.812943
	C11811	C	0.851679	0.543332	0.813875
	C11812	C	0.846539	0.543639	0.817916
	C11813	C	0.834254	0.752794	0.830787
	C11814	C	0.834419	0.253701	0.830811
	C11815	C	0.829203	0.752850	0.840053
	C11816	C	0.827090	0.690913	0.844435
	C11817	C	0.827242	0.814807	0.844454
	C11818	C	0.829358	0.253697	0.840068
	C11819	C	0.827158	0.191693	0.844422
	C11820	C	0.827380	0.315550	0.844482
	C11821	C	0.833737	0.253241	0.801808
	C11822	C	0.833036	0.752250	0.764553
	C11823	C	0.790870	0.753511	0.762982
	C11824	C	0.770699	0.753338	0.864297
	C11825	C	0.833163	0.690209	0.787643
	C11826	C	0.833545	0.814489	0.787610
	C11827	C	0.834394	0.752282	0.774218
	C11828	C	0.784748	0.753705	0.772155
	C11829	C	0.782569	0.691544	0.776530
	C11830	C	0.833875	0.690198	0.778767
	C11831	C	0.834243	0.814428	0.778735
	C11832	C	0.782652	0.815725	0.776571
	C11833	C	0.832900	0.752383	0.792150
	C11834	C	0.812895	0.752708	0.866329
	C11835	C	0.822515	0.690838	0.853005
	C11836	C	0.822649	0.814906	0.853027
	C11837	C	0.820069	0.752808	0.857350
	C11838	C	0.783193	0.462750	0.880653
	C11839	C	0.811086	0.462264	0.749418
	C11840	C	0.795122	0.462635	0.880273
	C11841	C	0.783227	0.543531	0.880633
	C11842	C	0.795090	0.543331	0.880273
	C11843	C	0.811099	0.543132	0.749430
	C11844	C	0.812954	0.253381	0.866340
	C11845	C	0.822558	0.191524	0.852989
	C11846	C	0.822754	0.315421	0.853047
	C11847	C	0.820150	0.253383	0.857357
	C11848	C	0.810829	0.043119	0.751561
	C11849	C	0.833059	0.253500	0.764556
	C11850	C	0.790681	0.252493	0.762940
	C11851	C	0.770722	0.251991	0.864267
	C11852	C	0.833580	0.191228	0.787616
	C11853	C	0.833170	0.315468	0.787639
	C11854	C	0.834300	0.253485	0.774218
	C11855	C	0.784617	0.252433	0.772111
	C11856	C	0.769917	0.753252	0.854637
	C11857	C	0.770644	0.815239	0.850092
	C11858	C	0.770152	0.691027	0.850131
	C11859	C	0.769916	0.251913	0.854594
	C11860	C	0.770132	0.314133	0.850088
	C11861	C	0.770664	0.189952	0.850054
	C11862	C	0.782650	0.190432	0.776520
	C11863	C	0.834216	0.191379	0.778739
	C11864	C	0.833789	0.315491	0.778762
	C11865	C	0.782447	0.314553	0.776518
	C11866	C	0.832913	0.253316	0.792146
	C11867	C	0.789094	0.043736	0.879169
	C11868	C	0.812117	0.043222	0.748110
	C11869	C	0.810830	0.962291	0.751560
	C11870	C	0.789074	0.962608	0.879187
	C11871	C	0.812099	0.962483	0.748094
	N11872	N	0.750748	0.069955	0.812479
	N11873	N	0.750808	0.935544	0.812496
	N11874	N	0.750816	0.435311	0.812416
	N11875	N	0.750861	0.569870	0.812408
	N11876	N	0.788749	0.435742	0.878954
	N11877	N	0.788800	0.570233	0.878938
	N11878	N	0.788974	0.070330	0.879039
	N11879	N	0.788931	0.935933	0.879058
	O11880	O	0.882160	0.695528	0.921745
	O11881	O	0.882130	0.811746	0.921760
	O11882	O	0.749423	0.694588	0.950565
	O11883	O	0.749447	0.810991	0.950531
	O11884	O	0.749504	0.194485	0.950538
	O11885	O	0.749413	0.310792	0.950541
	O11886	O	0.747096	0.694258	0.932157
	O11887	O	0.747107	0.811150	0.932165
	O11888	O	0.747196	0.194386	0.932172
	O11889	O	0.747032	0.311186	0.932144
	O11890	O	0.884639	0.694654	0.940160
	O11891	O	0.884451	0.811459	0.940150
	O11892	O	0.884593	0.194430	0.940155
	O11893	O	0.884525	0.311234	0.940154
	O11894	O	0.882263	0.194924	0.921725
	O11895	O	0.882097	0.311384	0.921766
	O11896	O	0.812015	0.694716	0.888026
	O11897	O	0.773655	0.695008	0.889681
	O11898	O	0.858000	0.694495	0.982608
	O11899	O	0.857932	0.811053	0.982632
	O11900	O	0.819605	0.694866	0.984320
	O11901	O	0.819544	0.811206	0.984312
	O11902	O	0.773718	0.811527	0.889722
	O11903	O	0.812053	0.811119	0.888004
	O11904	O	0.812078	0.194943	0.887996
	O11905	O	0.773852	0.194623	0.889702
	O11906	O	0.857943	0.194449	0.982592
	O11907	O	0.857933	0.310997	0.982627
	O11908	O	0.819562	0.194830	0.984348
	O11909	O	0.819601	0.310979	0.984326
	O11910	O	0.773354	0.311231	0.889634
	O11911	O	0.811941	0.311373	0.888023
	H11912	H	0.772033	0.644445	0.961332
	H11913	H	0.772054	0.861489	0.961333
	H11914	H	0.772198	0.144644	0.961302
	H11915	H	0.771967	0.360978	0.961328
	H11916	H	0.758445	0.861975	0.918988
	H11917	H	0.758010	0.643145	0.918897
	H11918	H	0.757598	0.362343	0.918871
	H11919	H	0.758605	0.143358	0.918982
	H11920	H	0.897276	0.064531	0.933417
	H11921	H	0.904986	0.064539	0.935366
	H11922	H	0.905065	0.941277	0.935365
	H11923	H	0.897256	0.941092	0.933446
	H11924	H	0.896550	0.064346	0.928235
	H11925	H	0.896547	0.941441	0.928262
	H11926	H	0.730673	0.064719	0.940676
	H11927	H	0.730647	0.940940	0.940649
	H11928	H	0.727525	0.064426	0.939517
	H11929	H	0.727507	0.941132	0.939497
	H11930	H	0.722504	0.064383	0.940335
	H11931	H	0.722354	0.941432	0.940337
	H11932	H	0.719723	0.440622	0.941566
	H11933	H	0.722465	0.441279	0.943846
	H11934	H	0.723786	0.440710	0.938685
	H11935	H	0.903395	0.441301	0.933222
	H11936	H	0.899224	0.441076	0.930804
	H11937	H	0.901093	0.441074	0.928714
	H11938	H	0.722573	0.564365	0.943882
	H11939	H	0.719703	0.564805	0.941607
	H11940	H	0.901181	0.564497	0.928732
	H11941	H	0.899165	0.564434	0.930751
	H11942	H	0.903371	0.564820	0.933141
	H11943	H	0.723781	0.565030	0.938694
	H11944	H	0.874108	0.643374	0.953413
	H11945	H	0.873462	0.862318	0.953391
	H11946	H	0.873589	0.143339	0.953365
	H11947	H	0.874103	0.362196	0.953460
	H11948	H	0.766340	0.643446	0.903453
	H11949	H	0.834764	0.644603	0.898753
	H11950	H	0.834720	0.861372	0.898686
	H11951	H	0.766791	0.862173	0.903558
	H11952	H	0.859627	0.644857	0.910995
	H11953	H	0.859634	0.861741	0.910921
	H11954	H	0.865719	0.643325	0.968826
	H11955	H	0.865048	0.862048	0.968802
	H11956	H	0.778682	0.441570	0.879660
	H11957	H	0.838083	0.441039	0.998485
	H11958	H	0.783444	0.441346	0.874984
	H11959	H	0.792107	0.441437	0.874755
	H11960	H	0.855530	0.440890	0.992742
	H11961	H	0.852441	0.440943	0.997203
	H11962	H	0.838041	0.564725	0.998472
	H11963	H	0.778725	0.564544	0.879672
	H11964	H	0.852383	0.564466	0.997222
	H11965	H	0.855531	0.564576	0.992754
	H11966	H	0.792176	0.564956	0.874730
	H11967	H	0.783470	0.564815	0.874954
	H11968	H	0.865224	0.143253	0.968776
	H11969	H	0.865714	0.362098	0.968889
	H11970	H	0.788548	0.064895	0.878989
	H11971	H	0.788520	0.064249	0.879159
	H11972	H	0.789056	0.064871	0.878838
	H11973	H	0.796897	0.861600	0.973553
	H11974	H	0.796971	0.644500	0.973554
	H11975	H	0.796797	0.361239	0.973562
	H11976	H	0.796977	0.144802	0.973555
	H11977	H	0.766851	0.143276	0.903550
	H11978	H	0.834525	0.144802	0.898792
	H11979	H	0.834548	0.361818	0.898791
	H11980	H	0.765858	0.362292	0.903401
	H11981	H	0.859408	0.144706	0.911032
	H11982	H	0.859432	0.361797	0.911029
	H11983	H	0.843561	0.064799	0.988356
	H11984	H	0.834749	0.064488	0.989648
	H11985	H	0.832578	0.064569	0.995120
	H11986	H	0.788501	0.941376	0.879152
	H11987	H	0.788483	0.941151	0.878998
	H11988	H	0.789047	0.940761	0.878835
	H11989	H	0.843532	0.941476	0.988418
	H11990	H	0.834776	0.941741	0.989664
	H11991	H	0.832589	0.941445	0.995126
	Zn11992	Zn	0.726610	0.679872	0.941535
	Zn11993	Zn	0.726536	0.825420	0.941533
	Zn11994	Zn	0.726505	0.180111	0.941471
	Zn11995	Zn	0.726542	0.325592	0.941518
	Zn11996	Zn	0.842624	0.680308	0.993287
	Zn11997	Zn	0.842513	0.825505	0.993285
	Zn11998	Zn	0.842570	0.180291	0.993243
	Zn11999	Zn	0.842630	0.325266	0.993313
	C12000	C	0.876112	0.753629	0.919022
	C12001	C	0.755419	0.752830	0.953294
	C12002	C	0.770667	0.752945	0.960549
	C12003	C	0.777641	0.691626	0.964028
	C12004	C	0.777648	0.814356	0.964021
	C12005	C	0.755462	0.252657	0.953283
	C12006	C	0.770687	0.252751	0.960530
	C12007	C	0.777712	0.191636	0.964014
	C12008	C	0.777564	0.314071	0.964022
	C12009	C	0.750523	0.752711	0.928844
	C12010	C	0.757647	0.752616	0.919865
	C12011	C	0.760281	0.814606	0.915544
	C12012	C	0.760029	0.690719	0.915497
	C12013	C	0.750537	0.252851	0.928835
	C12014	C	0.757581	0.252895	0.919842
	C12015	C	0.759776	0.314861	0.915460
	C12016	C	0.760304	0.190876	0.915527
	C12017	C	0.902273	0.043285	0.933453
	C12018	C	0.902309	0.962426	0.933468
	C12019	C	0.728323	0.043313	0.940466
	C12020	C	0.728335	0.962476	0.940452
	C12021	C	0.723227	0.043401	0.941277
	C12022	C	0.723218	0.962445	0.941275
	C12023	C	0.722518	0.462411	0.942404
	C12024	C	0.905687	0.462677	0.932477
	C12025	C	0.901509	0.462421	0.930025
	C12026	C	0.722526	0.543260	0.942413
	C12027	C	0.901536	0.543334	0.929999
	C12028	C	0.905660	0.543596	0.932465
	C12029	C	0.881171	0.753025	0.943485
	C12030	C	0.881230	0.252861	0.943496
	C12031	C	0.874129	0.752899	0.952470
	C12032	C	0.871911	0.690850	0.956819
	C12033	C	0.871556	0.814712	0.956813
	C12034	C	0.874088	0.252828	0.952463
	C12035	C	0.871571	0.190878	0.956783
	C12036	C	0.871861	0.314677	0.956846
	C12037	C	0.876097	0.253165	0.919034
	C12038	C	0.818026	0.752873	0.890756
	C12039	C	0.771638	0.753202	0.893277
	C12040	C	0.813551	0.752990	0.981573
	C12041	C	0.854038	0.691888	0.908283
	C12042	C	0.854035	0.814648	0.908237
	C12043	C	0.833213	0.752961	0.898029
	C12044	C	0.766722	0.752835	0.902562
	C12045	C	0.764592	0.690868	0.906923
	C12046	C	0.840281	0.691660	0.901486
	C12047	C	0.840254	0.814418	0.901445
	C12048	C	0.764841	0.814705	0.906976
	C12049	C	0.860937	0.753423	0.911752
	C12050	C	0.860091	0.752826	0.979045
	C12051	C	0.867398	0.690848	0.965389
	C12052	C	0.867017	0.814601	0.965382
	C12053	C	0.865141	0.752736	0.969777
	C12054	C	0.836585	0.462319	0.995784
	C12055	C	0.787998	0.462612	0.875927
	C12056	C	0.851057	0.462241	0.994539
	C12057	C	0.836547	0.543199	0.995787
	C12058	C	0.851046	0.543175	0.994550
	C12059	C	0.788029	0.543628	0.875927
	C12060	C	0.860090	0.252819	0.979038
	C12061	C	0.867008	0.190878	0.965353
	C12062	C	0.867302	0.314647	0.965415
	C12063	C	0.865045	0.252802	0.969776
	C12064	C	0.788596	0.043172	0.879070
	C12065	C	0.817950	0.253208	0.890767
	C12066	C	0.771507	0.252944	0.893243
	C12067	C	0.813592	0.252933	0.981571
	C12068	C	0.853915	0.191892	0.908294
	C12069	C	0.853931	0.314674	0.908286
	C12070	C	0.833129	0.253306	0.898045
	C12071	C	0.766483	0.252866	0.902524
	C12072	C	0.798432	0.753049	0.974282
	C12073	C	0.791428	0.814476	0.970812
	C12074	C	0.791447	0.691630	0.970817
	C12075	C	0.798444	0.253016	0.974275
	C12076	C	0.791333	0.314213	0.970821
	C12077	C	0.791485	0.191743	0.970807
	C12078	C	0.764770	0.190856	0.906947
	C12079	C	0.840115	0.191915	0.901506
	C12080	C	0.840132	0.314751	0.901501
	C12081	C	0.764216	0.314796	0.906877
	C12082	C	0.860906	0.253242	0.911768
	C12083	C	0.840124	0.043545	0.990124
	C12084	C	0.789096	0.043266	0.878919
	C12085	C	0.788580	0.962591	0.879072
	C12086	C	0.840127	0.962802	0.990145
	C12087	C	0.789090	0.962511	0.878925
	N12088	N	0.726376	0.070274	0.941539
	N12089	N	0.726419	0.935736	0.941521
	N12090	N	0.726530	0.435573	0.941503
	N12091	N	0.726538	0.569992	0.941517
	N12092	N	0.842850	0.435424	0.993286
	N12093	N	0.842861	0.570010	0.993296
	N12094	N	0.842725	0.069985	0.993266
	N12095	N	0.842713	0.935474	0.993286
	O12096	O	0.977419	0.695373	0.052490
	O12097	O	0.977632	0.811992	0.052447
	O12098	O	0.900348	0.693973	0.070520
	O12099	O	0.900496	0.810631	0.070462
	O12100	O	0.900551	0.195014	0.070483
	O12101	O	0.900404	0.311622	0.070488
	O12102	O	0.901485	0.694072	0.050289
	O12103	O	0.901578	0.810770	0.050266
	O12104	O	0.901575	0.195028	0.050307
	O12105	O	0.901497	0.311522	0.050291
	O12106	O	0.976278	0.695216	0.072638
	O12107	O	0.976693	0.811690	0.072691
	O12108	O	0.976741	0.193708	0.072763
	O12109	O	0.976302	0.310432	0.072667
	O12110	O	0.977638	0.194080	0.052442
	O12111	O	0.977327	0.310886	0.052493
	O12112	O	0.962932	0.694147	0.008047
	O12113	O	0.925489	0.694579	0.007228
	O12114	O	0.952565	0.694902	0.115716
	O12115	O	0.952622	0.811601	0.115732
	O12116	O	0.915103	0.694122	0.114956
	O12117	O	0.915027	0.810870	0.114934
	O12118	O	0.925564	0.811183	0.007273
	O12119	O	0.963144	0.810820	0.007977
	O12120	O	0.963106	0.194910	0.008014
	O12121	O	0.925577	0.194438	0.007284
	O12122	O	0.952610	0.194164	0.115745
	O12123	O	0.952652	0.310963	0.115734
	O12124	O	0.915021	0.195171	0.114988
	O12125	O	0.915173	0.311987	0.114918
	O12126	O	0.925524	0.310969	0.007264
	O12127	O	0.962902	0.311385	0.008067
	H12128	H	0.906055	0.642813	0.084720
	H12129	H	0.906539	0.862161	0.084698
	H12130	H	0.906004	0.143882	0.084782
	H12131	H	0.906089	0.362734	0.084652
	H12132	H	0.910998	0.862193	0.036727
	H12133	H	0.910399	0.642651	0.036588
	H12134	H	0.910441	0.362721	0.036607
	H12135	H	0.910760	0.143528	0.036705
	H12136	H	0.999625	0.064725	0.056871
	H12137	H	0.987474	0.064635	0.057818
	H12138	H	0.987505	0.940948	0.057830
	H12139	H	0.999636	0.941201	0.056879
	H12140	H	1.010996	0.064804	0.062580
	H12141	H	1.011045	0.941368	0.062604
	H12142	H	0.876845	0.064678	0.055976
	H12143	H	0.876827	0.941292	0.055977
	H12144	H	0.872068	0.064692	0.058888
	H12145	H	0.872079	0.941503	0.058874
	H12146	H	0.876912	0.064633	0.063540
	H12147	H	0.876943	0.941150	0.063510
	H12148	H	0.875770	0.440665	0.066911
	H12149	H	0.890265	0.440786	0.066642
	H12150	H	0.864274	0.441236	0.059512
	H12151	H	0.987614	0.441365	0.056507
	H12152	H	1.007043	0.441324	0.057712
	H12153	H	1.012991	0.441077	0.063477
	H12154	H	0.890326	0.564447	0.066627
	H12155	H	0.875729	0.564508	0.066906
	H12156	H	1.012984	0.564990	0.063531
	H12157	H	1.007151	0.564390	0.057750
	H12158	H	0.987718	0.564774	0.056520
	H12159	H	0.864326	0.564376	0.059488
	H12160	H	0.967240	0.643870	0.086291
	H12161	H	0.967808	0.863144	0.086366
	H12162	H	0.968320	0.142414	0.086473
	H12163	H	0.966955	0.361635	0.086272
	H12164	H	0.917309	0.642847	0.020986
	H12165	H	0.968350	0.643308	0.022291
	H12166	H	0.968965	0.862770	0.022219
	H12167	H	0.917894	0.862497	0.021135
	H12168	H	0.971656	0.643752	0.038259
	H12169	H	0.972316	0.863114	0.038228
	H12170	H	0.960446	0.643546	0.101898
	H12171	H	0.961019	0.863087	0.101989
	H12172	H	0.944581	0.441581	0.005284
	H12173	H	0.914294	0.440985	0.129114
	H12174	H	0.927287	0.440915	-0.000214
	H12175	H	0.928331	0.440859	-0.006847
	H12176	H	0.951204	0.441147	0.131518
	H12177	H	0.935489	0.441263	0.135057
	H12178	H	0.914263	0.564568	0.129086
	H12179	H	0.944590	0.564356	0.005294
	H12180	H	0.935520	0.564465	0.135038
	H12181	H	0.951188	0.564627	0.131525
	H12182	H	0.928312	0.564609	-0.006804
	H12183	H	0.927297	0.564949	-0.000158
	H12184	H	0.961476	0.142579	0.102079
	H12185	H	0.960119	0.361979	0.101881
	H12186	H	0.945743	0.064581	-0.003009
	H12187	H	0.944604	0.064772	-0.003346
	H12188	H	0.945673	0.064640	-0.002196
	H12189	H	0.909884	0.862160	0.100700
	H12190	H	0.909433	0.642772	0.100717
	H12191	H	0.909495	0.363171	0.100673
	H12192	H	0.909382	0.144172	0.100764
	H12193	H	0.917641	0.143043	0.021116
	H12194	H	0.968802	0.143397	0.022250
	H12195	H	0.968733	0.362535	0.022268
	H12196	H	0.917271	0.362395	0.021011
	H12197	H	0.972202	0.143011	0.038235
	H12198	H	0.972171	0.362396	0.038290
	H12199	H	0.923437	0.064197	0.128699
	H12200	H	0.932833	0.064712	0.131141
	H12201	H	0.945242	0.064870	0.128049
	H12202	H	0.944468	0.941185	-0.003355
	H12203	H	0.945669	0.941401	-0.003005
	H12204	H	0.945684	0.941430	-0.002170
	H12205	H	0.923487	0.941090	0.128709
	H12206	H	0.932848	0.941141	0.131120
	H12207	H	0.945283	0.941156	0.128051
	Zn12208	Zn	0.881697	0.680514	0.059862
	Zn12209	Zn	0.881851	0.825231	0.059823
	Zn12210	Zn	0.881798	0.180587	0.059877
	Zn12211	Zn	0.881650	0.325133	0.059869
	Zn12212	Zn	0.933853	0.680411	0.125634
	Zn12213	Zn	0.933820	0.825440	0.125597
	Zn12214	Zn	0.933676	0.180401	0.125611
	Zn12215	Zn	0.933884	0.325226	0.125634
	C12216	C	0.975491	0.753611	0.048800
	C12217	C	0.902565	0.752371	0.074156
	C12218	C	0.906149	0.752471	0.083738
	C12219	C	0.906900	0.690411	0.088282
	C12220	C	0.907165	0.814549	0.088267
	C12221	C	0.902483	0.253304	0.074158
	C12222	C	0.906043	0.253327	0.083751
	C12223	C	0.906858	0.191512	0.088318
	C12224	C	0.906906	0.315385	0.088245
	C12225	C	0.904420	0.752349	0.046806
	C12226	C	0.910267	0.752287	0.037600
	C12227	C	0.912396	0.814528	0.033219
	C12228	C	0.912092	0.690278	0.033144
	C12229	C	0.904485	0.253258	0.046834
	C12230	C	0.910281	0.253175	0.037614
	C12231	C	0.912100	0.315051	0.033159
	C12232	C	0.912251	0.191088	0.033218
	C12233	C	0.994325	0.043408	0.058883
	C12234	C	0.994344	0.962360	0.058880
	C12235	C	0.876358	0.043270	0.058067
	C12236	C	0.876389	0.962599	0.058055
	C12237	C	0.881273	0.043225	0.062731
	C12238	C	0.881289	0.962406	0.062726
	C12239	C	0.882644	0.462099	0.064942
	C12240	C	0.986869	0.462647	0.060091
	C12241	C	1.006356	0.462590	0.061274
	C12242	C	0.882646	0.543117	0.064944
	C12243	C	1.006389	0.543392	0.061292
	C12244	C	0.986904	0.543577	0.060092
	C12245	C	0.973630	0.753495	0.076141
	C12246	C	0.973659	0.252080	0.076188
	C12247	C	0.967849	0.753540	0.085361
	C12248	C	0.965783	0.691526	0.089780
	C12249	C	0.966098	0.815503	0.089828
	C12250	C	0.967754	0.251974	0.085395
	C12251	C	0.966285	0.190047	0.089881
	C12252	C	0.965525	0.314085	0.089769
	C12253	C	0.975479	0.252561	0.048811
	C12254	C	0.965109	0.752629	0.011673
	C12255	C	0.922944	0.752798	0.010777
	C12256	C	0.913045	0.752418	0.111280
	C12257	C	0.971009	0.691266	0.034691
	C12258	C	0.971347	0.815421	0.034675
	C12259	C	0.968635	0.753024	0.021256
	C12260	C	0.917751	0.752680	0.020052
	C12261	C	0.915831	0.690507	0.024468
	C12262	C	0.969284	0.691146	0.025811
	C12263	C	0.969630	0.815208	0.025786
	C12264	C	0.916129	0.814676	0.024544
	C12265	C	0.971959	0.753345	0.039213
	C12266	C	0.955218	0.753259	0.112203
	C12267	C	0.962064	0.691366	0.098459
	C12268	C	0.962370	0.815392	0.098506
	C12269	C	0.960422	0.753324	0.102927
	C12270	C	0.919537	0.462272	0.125288
	C12271	C	0.932100	0.462223	-0.003286
	C12272	C	0.940877	0.462477	0.131283
	C12273	C	0.919531	0.543352	0.125291
	C12274	C	0.940826	0.543340	0.131278
	C12275	C	0.932077	0.543505	-0.003269
	C12276	C	0.955223	0.252504	0.112228
	C12277	C	0.962570	0.190157	0.098554
	C12278	C	0.961814	0.314284	0.098446
	C12279	C	0.960398	0.252302	0.102944
	C12280	C	0.944945	0.043236	-0.003049
	C12281	C	0.965052	0.253092	0.011713
	C12282	C	0.923017	0.252700	0.010813
	C12283	C	0.913073	0.253507	0.111296
	C12284	C	0.971307	0.190799	0.034685
	C12285	C	0.971293	0.314911	0.034716
	C12286	C	0.968609	0.253032	0.021288
	C12287	C	0.917741	0.252726	0.020073
	C12288	C	0.909567	0.752478	0.101692
	C12289	C	0.908882	0.814518	0.097148
	C12290	C	0.908633	0.690412	0.097162
	C12291	C	0.909515	0.253657	0.101701
	C12292	C	0.908685	0.315553	0.097136
	C12293	C	0.908615	0.191648	0.097203
	C12294	C	0.915979	0.190865	0.024548
	C12295	C	0.969548	0.190939	0.025809
	C12296	C	0.969540	0.314994	0.025832
	C12297	C	0.915815	0.314860	0.024484
	C12298	C	0.972056	0.252765	0.039221
	C12299	C	0.929611	0.043250	0.128795
	C12300	C	0.944884	0.043110	-0.002215
	C12301	C	0.944899	0.962416	-0.003039
	C12302	C	0.929624	0.962503	0.128780
	C12303	C	0.944883	0.962416	-0.002197
	N12304	N	0.881867	0.070085	0.059830
	N12305	N	0.881925	0.935445	0.059790
	N12306	N	0.881671	0.435538	0.059856
	N12307	N	0.881668	0.570109	0.059864
	N12308	N	0.933875	0.435575	0.125683
	N12309	N	0.933851	0.570169	0.125672
	N12310	N	0.933680	0.070295	0.125631
	N12311	N	0.933704	0.935732	0.125616
	O12312	O	0.955697	0.694326	0.181155
	O12313	O	0.955544	0.811036	0.181224
	O12314	O	0.890094	0.695301	0.198911
	O12315	O	0.889499	0.812126	0.198951
	O12316	O	0.889565	0.193859	0.198930
	O12317	O	0.889829	0.310683	0.198898
	O12318	O	0.890313	0.694884	0.178318
	O12319	O	0.890156	0.811766	0.178280
	O12320	O	0.890022	0.194008	0.178194
	O12321	O	0.890492	0.310689	0.178306
	O12322	O	0.957469	0.694902	0.202818
	O12323	O	0.957479	0.811390	0.202848
	O12324	O	0.957463	0.194674	0.202835
	O12325	O	0.957574	0.311115	0.202862
	O12326	O	0.955523	0.194746	0.181152
	O12327	O	0.955575	0.311470	0.181143
	O12328	O	0.951994	0.694961	0.136424
	O12329	O	0.914247	0.694351	0.135259
	O12330	O	0.930858	0.695198	0.245275
	O12331	O	0.930618	0.811865	0.245238
	O12332	O	0.893165	0.693484	0.243619
	O12333	O	0.892898	0.810192	0.243674
	O12334	O	0.914189	0.811207	0.135241
	O12335	O	0.951941	0.811787	0.136396
	O12336	O	0.952043	0.194064	0.136389
	O12337	O	0.914119	0.194895	0.135224
	O12338	O	0.930937	0.193990	0.245326
	O12339	O	0.931082	0.310656	0.245345
	O12340	O	0.892906	0.195489	0.243679
	O12341	O	0.893262	0.312202	0.243617
	O12342	O	0.914109	0.311528	0.135194
	O12343	O	0.952094	0.310926	0.136402
	H12344	H	0.893051	0.643550	0.213216
	H12345	H	0.891679	0.863046	0.213326
	H12346	H	0.891834	0.142557	0.213332
	H12347	H	0.892861	0.362427	0.213241
	H12348	H	0.898073	0.862913	0.164445
	H12349	H	0.898080	0.643398	0.164499
	H12350	H	0.898335	0.362290	0.164488
	H12351	H	0.897905	0.142891	0.164389
	H12352	H	0.974849	0.064741	0.191265
	H12353	H	0.972448	0.064588	0.190897
	H12354	H	0.972352	0.941143	0.190868
	H12355	H	0.974765	0.941457	0.191270
	H12356	H	0.975604	0.064684	0.192736
	H12357	H	0.975622	0.941260	0.192728
	H12358	H	0.856705	0.064594	0.186430
	H12359	H	0.856664	0.940881	0.186448
	H12360	H	0.859532	0.064391	0.191864
	H12361	H	0.859450	0.941319	0.191904
	H12362	H	0.875932	0.063957	0.194435
	H12363	H	0.875898	0.941085	0.194436
	H12364	H	0.877495	0.441289	0.182235
	H12365	H	0.864929	0.441477	0.182179
	H12366	H	0.886619	0.441310	0.188892
	H12367	H	0.971366	0.441083	0.192637
	H12368	H	0.971406	0.441204	0.191653
	H12369	H	0.972770	0.441173	0.191323
	H12370	H	0.864856	0.564780	0.182226
	H12371	H	0.877472	0.564864	0.182256
	H12372	H	0.972870	0.564363	0.191360
	H12373	H	0.971431	0.564539	0.191655
	H12374	H	0.971379	0.564568	0.192652
	H12375	H	0.886605	0.564841	0.188855
	H12376	H	0.950327	0.643800	0.216646
	H12377	H	0.949883	0.862847	0.216614
	H12378	H	0.949874	0.143230	0.216592
	H12379	H	0.950635	0.361770	0.216719
	H12380	H	0.905178	0.643293	0.148907
	H12381	H	0.954916	0.643525	0.150721
	H12382	H	0.954816	0.862891	0.150781
	H12383	H	0.905127	0.862746	0.148865
	H12384	H	0.954262	0.643054	0.166729
	H12385	H	0.954206	0.862767	0.166781
	H12386	H	0.941861	0.644080	0.232078
	H12387	H	0.941380	0.862896	0.231991
	H12388	H	0.914542	0.440989	0.121211
	H12389	H	0.916616	0.441187	0.258015
	H12390	H	0.936116	0.441185	0.116391
	H12391	H	0.951550	0.441215	0.120745
	H12392	H	0.913591	0.441418	0.250807
	H12393	H	0.919244	0.441404	0.253412
	H12394	H	0.916528	0.564823	0.258020
	H12395	H	0.914514	0.564872	0.121237
	H12396	H	0.919392	0.564531	0.253465
	H12397	H	0.913690	0.564724	0.250825
	H12398	H	0.951546	0.564322	0.120741
	H12399	H	0.936091	0.564478	0.116433
	H12400	H	0.941589	0.142876	0.232017
	H12401	H	0.942331	0.361696	0.232170
	H12402	H	0.932237	0.064824	0.120062
	H12403	H	0.923149	0.064512	0.122325
	H12404	H	0.944981	0.064616	0.123398
	H12405	H	0.891029	0.862384	0.229313
	H12406	H	0.892325	0.642720	0.229206
	H12407	H	0.892107	0.363089	0.229237
	H12408	H	0.891155	0.143374	0.229334
	H12409	H	0.904706	0.143356	0.148779
	H12410	H	0.954544	0.142656	0.150756
	H12411	H	0.955079	0.362400	0.150765
	H12412	H	0.905161	0.362685	0.148878
	H12413	H	0.953766	0.142839	0.166759
	H12414	H	0.954239	0.362489	0.166758
	H12415	H	0.902544	0.064721	0.254272
	H12416	H	0.904687	0.064714	0.256949
	H12417	H	0.913373	0.064562	0.257750
	H12418	H	0.923141	0.940975	0.122309
	H12419	H	0.932177	0.941020	0.120074
	H12420	H	0.945098	0.941515	0.123379
	H12421	H	0.902346	0.941364	0.254293
	H12422	H	0.904696	0.941348	0.256994
	H12423	H	0.913495	0.941091	0.257799
	Zn12424	Zn	0.871597	0.680446	0.188190
	Zn12425	Zn	0.871199	0.825267	0.188152
	Zn12426	Zn	0.871385	0.180242	0.188110
	Zn12427	Zn	0.871618	0.325103	0.188175
	Zn12428	Zn	0.910518	0.680601	0.254698
	Zn12429	Zn	0.910243	0.825481	0.254665
	Zn12430	Zn	0.910244	0.180580	0.254648
	Zn12431	Zn	0.910467	0.325620	0.254646
	C12432	C	0.954725	0.752787	0.177433
	C12433	C	0.891044	0.753669	0.202650
	C12434	C	0.892523	0.753345	0.212296
	C12435	C	0.892606	0.691054	0.216797
	C12436	C	0.891853	0.815207	0.216855
	C12437	C	0.891018	0.252289	0.202639
	C12438	C	0.892549	0.252499	0.212312
	C12439	C	0.892014	0.190482	0.216870
	C12440	C	0.892564	0.314897	0.216818
	C12441	C	0.892738	0.753310	0.174770
	C12442	C	0.897958	0.753168	0.165480
	C12443	C	0.899762	0.815146	0.161012
	C12444	C	0.899780	0.691084	0.161044
	C12445	C	0.892804	0.252412	0.174721
	C12446	C	0.897870	0.252658	0.165418
	C12447	C	0.899793	0.314747	0.160999
	C12448	C	0.899517	0.190680	0.160946
	C12449	C	0.973394	0.043465	0.191363
	C12450	C	0.973322	0.962713	0.191357
	C12451	C	0.861585	0.043272	0.188862
	C12452	C	0.861572	0.962220	0.188884
	C12453	C	0.878130	0.042978	0.191453
	C12454	C	0.878093	0.962080	0.191446
	C12455	C	0.871347	0.462547	0.183783
	C12456	C	0.972238	0.462572	0.192640
	C12457	C	0.972264	0.462294	0.191669
	C12458	C	0.871317	0.543375	0.183817
	C12459	C	0.972289	0.543184	0.191682
	C12460	C	0.972246	0.543467	0.192654
	C12461	C	0.955340	0.753097	0.206401
	C12462	C	0.955432	0.252834	0.206438
	C12463	C	0.950288	0.753186	0.215659
	C12464	C	0.948382	0.691387	0.220065
	C12465	C	0.948128	0.815176	0.220036
	C12466	C	0.950380	0.252596	0.215700
	C12467	C	0.948149	0.190703	0.220059
	C12468	C	0.948578	0.314347	0.220129
	C12469	C	0.954614	0.253062	0.177398
	C12470	C	0.953334	0.753417	0.140126
	C12471	C	0.911277	0.752766	0.138710
	C12472	C	0.892141	0.751925	0.239895
	C12473	C	0.954312	0.690927	0.163200
	C12474	C	0.954270	0.814955	0.163226
	C12475	C	0.955030	0.753212	0.149789
	C12476	C	0.905346	0.752882	0.147917
	C12477	C	0.903489	0.690891	0.152365
	C12478	C	0.954816	0.691016	0.154313
	C12479	C	0.954769	0.815151	0.154343
	C12480	C	0.903489	0.815013	0.152332
	C12481	C	0.953854	0.752916	0.167769
	C12482	C	0.934102	0.753523	0.241916
	C12483	C	0.943818	0.691464	0.228637
	C12484	C	0.943573	0.815361	0.228602
	C12485	C	0.941249	0.753394	0.232952
	C12486	C	0.912066	0.462583	0.257441
	C12487	C	0.941227	0.462427	0.120432
	C12488	C	0.914818	0.462834	0.252796
	C12489	C	0.912051	0.543544	0.257447
	C12490	C	0.914852	0.543396	0.252815
	C12491	C	0.941201	0.543120	0.120434
	C12492	C	0.934394	0.252297	0.241998
	C12493	C	0.943635	0.190534	0.228626
	C12494	C	0.944078	0.314302	0.228707
	C12495	C	0.941427	0.252315	0.233012
	C12496	C	0.929277	0.043455	0.122360
	C12497	C	0.953425	0.252470	0.140117
	C12498	C	0.911173	0.253270	0.138668
	C12499	C	0.892181	0.253722	0.239911
	C12500	C	0.953989	0.190508	0.163200
	C12501	C	0.954288	0.314808	0.163210
	C12502	C	0.954981	0.252468	0.149786
	C12503	C	0.905244	0.253030	0.147866
	C12504	C	0.891267	0.752455	0.230229
	C12505	C	0.891318	0.814763	0.225733
	C12506	C	0.892074	0.690639	0.225676
	C12507	C	0.891313	0.253249	0.230249
	C12508	C	0.892029	0.315210	0.225698
	C12509	C	0.891491	0.190948	0.225754
	C12510	C	0.903219	0.190880	0.152272
	C12511	C	0.954566	0.190412	0.154320
	C12512	C	0.954844	0.314687	0.154328
	C12513	C	0.903453	0.314969	0.152319
	C12514	C	0.953745	0.252706	0.167731
	C12515	C	0.905243	0.043440	0.255368
	C12516	C	0.942131	0.043314	0.125691
	C12517	C	0.929267	0.962369	0.122353
	C12518	C	0.905222	0.962671	0.255379
	C12519	C	0.942140	0.962682	0.125689
	N12520	N	0.871363	0.070106	0.188129
	N12521	N	0.871302	0.935588	0.188134
	N12522	N	0.871669	0.435349	0.188180
	N12523	N	0.871695	0.569907	0.188207
	N12524	N	0.910300	0.435782	0.254676
	N12525	N	0.910305	0.570314	0.254692
	N12526	N	0.910038	0.070311	0.254658
	N12527	N	0.910040	0.935695	0.254674
	O12528	O	1.002235	0.694967	0.297776
	O12529	O	1.002080	0.811394	0.297857
	O12530	O	0.870644	0.695019	0.326209
	O12531	O	0.870457	0.811443	0.326211
	O12532	O	0.870694	0.194968	0.326188
	O12533	O	0.870501	0.311348	0.326229
	O12534	O	0.868099	0.694319	0.307759
	O12535	O	0.868126	0.810952	0.307723
	O12536	O	0.868372	0.194853	0.307788
	O12537	O	0.868178	0.311468	0.307803
	O12538	O	1.004735	0.694527	0.316254
	O12539	O	1.004501	0.811225	0.316274
	O12540	O	1.004555	0.194668	0.316245
	O12541	O	1.004572	0.311461	0.316268
	O12542	O	1.002149	0.194725	0.297879
	O12543	O	1.002153	0.310912	0.297882
	O12544	O	0.933403	0.695525	0.263701
	O12545	O	0.894777	0.694092	0.265282
	O12546	O	0.977939	0.694231	0.358726
	O12547	O	0.977936	0.810656	0.358727
	O12548	O	0.939725	0.695403	0.360256
	O12549	O	0.939566	0.811856	0.360309
	O12550	O	0.894787	0.810717	0.265325
	O12551	O	0.933078	0.811877	0.263799
	O12552	O	0.933060	0.193976	0.263789
	O12553	O	0.894635	0.195506	0.265261
	O12554	O	0.977972	0.194904	0.358736
	O12555	O	0.977930	0.311288	0.358766
	O12556	O	0.939617	0.195135	0.360286
	O12557	O	0.939480	0.311470	0.360358
	O12558	O	0.894768	0.312184	0.265302
	O12559	O	0.933325	0.310484	0.263714
	H12560	H	0.892803	0.644907	0.337120
	H12561	H	0.892975	0.862264	0.337039
	H12562	H	0.892831	0.144927	0.337105
	H12563	H	0.892958	0.361512	0.337020
	H12564	H	0.879154	0.861827	0.294498
	H12565	H	0.879161	0.642960	0.294524
	H12566	H	0.879406	0.362870	0.294610
	H12567	H	0.879094	0.143840	0.294452
	H12568	H	1.024330	0.064378	0.311615
	H12569	H	1.032943	0.064208	0.310427
	H12570	H	1.032985	0.940778	0.310424
	H12571	H	1.024367	0.941119	0.311668
	H12572	H	1.014671	0.064592	0.307926
	H12573	H	1.014565	0.941463	0.307927
	H12574	H	0.841196	0.064484	0.316571
	H12575	H	0.841177	0.941620	0.316543
	H12576	H	0.842741	0.065009	0.318874
	H12577	H	0.842685	0.941096	0.318845
	H12578	H	0.850009	0.064762	0.319851
	H12579	H	0.849974	0.940655	0.319852
	H12580	H	0.847011	0.440826	0.317715
	H12581	H	0.848087	0.441339	0.317730
	H12582	H	0.846173	0.440829	0.317147
	H12583	H	1.036034	0.441052	0.309020
	H12584	H	1.024634	0.441313	0.312033
	H12585	H	1.015823	0.441835	0.309851
	H12586	H	0.848138	0.564399	0.317734
	H12587	H	0.846903	0.564441	0.317701
	H12588	H	1.015857	0.565024	0.309814
	H12589	H	1.024657	0.564990	0.312014
	H12590	H	1.036126	0.564543	0.309024
	H12591	H	0.846188	0.564358	0.317115
	H12592	H	0.993729	0.643240	0.329454
	H12593	H	0.993467	0.862156	0.329504
	H12594	H	0.993767	0.143406	0.329511
	H12595	H	0.993598	0.362601	0.329505
	H12596	H	0.887555	0.642952	0.279091
	H12597	H	0.955620	0.645176	0.274565
	H12598	H	0.955260	0.861932	0.274697
	H12599	H	0.887546	0.861544	0.279088
	H12600	H	0.980045	0.645103	0.286920
	H12601	H	0.979649	0.861630	0.287038
	H12602	H	0.985357	0.642973	0.344889
	H12603	H	0.985154	0.861993	0.344925
	H12604	H	0.908931	0.441111	0.258823
	H12605	H	0.949807	0.441514	0.370659
	H12606	H	0.900923	0.441015	0.255194
	H12607	H	0.902990	0.441395	0.251859
	H12608	H	0.971885	0.441392	0.373589
	H12609	H	0.961502	0.441134	0.375043
	H12610	H	0.949748	0.564730	0.370673
	H12611	H	0.908830	0.564818	0.258828
	H12612	H	0.961411	0.564459	0.375020
	H12613	H	0.971775	0.564279	0.373570
	H12614	H	0.903038	0.565206	0.251840
	H12615	H	0.900937	0.564844	0.255198
	H12616	H	0.985485	0.143468	0.344953
	H12617	H	0.985312	0.362647	0.344948
	H12618	H	0.914402	0.064432	0.251949
	H12619	H	0.908001	0.064532	0.251350
	H12620	H	0.917491	0.064553	0.255600
	H12621	H	0.917487	0.862293	0.349355
	H12622	H	0.917290	0.644938	0.349451
	H12623	H	0.917371	0.361807	0.349373
	H12624	H	0.917289	0.145152	0.349441
	H12625	H	0.887343	0.144391	0.279016
	H12626	H	0.955289	0.143685	0.274757
	H12627	H	0.955793	0.360750	0.274511
	H12628	H	0.887648	0.363294	0.279158
	H12629	H	0.979703	0.144104	0.287081
	H12630	H	0.980123	0.361266	0.286857
	H12631	H	0.969508	0.064354	0.368269
	H12632	H	0.964931	0.064494	0.366319
	H12633	H	0.956607	0.064542	0.367169
	H12634	H	0.907990	0.940883	0.251321
	H12635	H	0.914433	0.941321	0.251887
	H12636	H	0.917517	0.941281	0.255622
	H12637	H	0.969429	0.940884	0.368286
	H12638	H	0.964838	0.941278	0.366366
	H12639	H	0.956693	0.941619	0.367219
	Zn12640	Zn	0.847688	0.680260	0.317173
	Zn12641	Zn	0.847634	0.825464	0.317096
	Zn12642	Zn	0.847779	0.180283	0.317164
	Zn12643	Zn	0.847552	0.325526	0.317151
	Zn12644	Zn	0.962317	0.680331	0.369362
	Zn12645	Zn	0.962535	0.825491	0.369357
	Zn12646	Zn	0.962468	0.180035	0.369353
	Zn12647	Zn	0.962464	0.325489	0.369382
	C12648	C	0.996252	0.753195	0.295052
	C12649	C	0.876528	0.753370	0.328961
	C12650	C	0.891494	0.753593	0.336310
	C12651	C	0.898321	0.692140	0.339843
	C12652	C	0.898409	0.815067	0.339797
	C12653	C	0.876500	0.253180	0.328992
	C12654	C	0.891480	0.253331	0.336318
	C12655	C	0.898344	0.192042	0.339824
	C12656	C	0.898418	0.314627	0.339784
	C12657	C	0.871497	0.752540	0.304406
	C12658	C	0.878647	0.752364	0.295445
	C12659	C	0.881139	0.814228	0.291094
	C12660	C	0.881141	0.690420	0.291103
	C12661	C	0.871656	0.253258	0.304452
	C12662	C	0.878773	0.253386	0.295469
	C12663	C	0.881280	0.315446	0.291153
	C12664	C	0.881069	0.191560	0.291061
	C12665	C	1.027809	0.043078	0.309936
	C12666	C	1.027819	0.962240	0.309943
	C12667	C	0.843422	0.043280	0.317575
	C12668	C	0.843388	0.962684	0.317563
	C12669	C	0.850727	0.043208	0.318545
	C12670	C	0.850666	0.962450	0.318545
	C12671	C	0.847478	0.462360	0.317594
	C12672	C	1.033090	0.462460	0.306861
	C12673	C	1.021584	0.462571	0.309871
	C12674	C	0.847487	0.543197	0.317585
	C12675	C	1.021571	0.543475	0.309867
	C12676	C	1.033097	0.543295	0.306855
	C12677	C	1.001240	0.752772	0.319604
	C12678	C	1.001181	0.253044	0.319586
	C12679	C	0.994072	0.752713	0.328563
	C12680	C	0.991682	0.690680	0.332887
	C12681	C	0.991500	0.814539	0.332916
	C12682	C	0.994123	0.253010	0.328576
	C12683	C	0.991762	0.190941	0.332932
	C12684	C	0.991669	0.315010	0.332936
	C12685	C	0.996212	0.252883	0.295112
	C12686	C	0.939125	0.753737	0.266541
	C12687	C	0.892672	0.752311	0.268877
	C12688	C	0.933770	0.753623	0.357493
	C12689	C	0.974603	0.692096	0.284170
	C12690	C	0.974367	0.814732	0.284257
	C12691	C	0.954108	0.753590	0.273865
	C12692	C	0.887694	0.752198	0.278145
	C12693	C	0.885695	0.690368	0.282533
	C12694	C	0.961049	0.692160	0.277324
	C12695	C	0.960825	0.814931	0.277408
	C12696	C	0.885679	0.814094	0.282530
	C12697	C	0.981354	0.753343	0.287709
	C12698	C	0.980043	0.752463	0.355147
	C12699	C	0.987127	0.690585	0.341458
	C12700	C	0.986955	0.814397	0.341485
	C12701	C	0.984994	0.752489	0.345866
	C12702	C	0.953859	0.462820	0.368573
	C12703	C	0.904168	0.462419	0.253835
	C12704	C	0.965583	0.462426	0.373015
	C12705	C	0.953825	0.543451	0.368561
	C12706	C	0.965533	0.543345	0.373001
	C12707	C	0.904156	0.543495	0.253839
	C12708	C	0.980056	0.253146	0.355168
	C12709	C	0.987250	0.191009	0.341512
	C12710	C	0.987130	0.315043	0.341512
	C12711	C	0.985112	0.253078	0.345894
	C12712	C	0.910872	0.043298	0.252416
	C12713	C	0.939086	0.252161	0.266542
	C12714	C	0.892603	0.253845	0.268850
	C12715	C	0.933632	0.253346	0.357546
	C12716	C	0.974363	0.191190	0.284292
	C12717	C	0.974611	0.314014	0.284163
	C12718	C	0.954047	0.252162	0.273875
	C12719	C	0.887658	0.253844	0.278129
	C12720	C	0.918826	0.753613	0.350151
	C12721	C	0.911958	0.815039	0.346645
	C12722	C	0.911885	0.692126	0.346688
	C12723	C	0.918706	0.253504	0.350188
	C12724	C	0.911919	0.314719	0.346650
	C12725	C	0.911868	0.192119	0.346684
	C12726	C	0.885601	0.191734	0.282485
	C12727	C	0.960835	0.190841	0.277432
	C12728	C	0.961092	0.313691	0.277305
	C12729	C	0.885798	0.315700	0.282572
	C12730	C	0.981308	0.252776	0.287748
	C12731	C	0.965989	0.043227	0.367857
	C12732	C	0.913986	0.043394	0.256143
	C12733	C	0.910874	0.962532	0.252410
	C12734	C	0.965982	0.962357	0.367861
	C12735	C	0.914029	0.962504	0.256155
	N12736	N	0.847593	0.070057	0.317151
	N12737	N	0.847574	0.935513	0.317127
	N12738	N	0.847413	0.435684	0.317208
	N12739	N	0.847489	0.570196	0.317202
	N12740	N	0.962600	0.435892	0.369367
	N12741	N	0.962507	0.570448	0.369357
	N12742	N	0.962592	0.070107	0.369354
	N12743	N	0.962619	0.935569	0.369369
	O12744	O	0.982473	0.694935	0.425150
	O12745	O	0.983020	0.811587	0.425079
	O12746	O	0.917822	0.694364	0.442907
	O12747	O	0.917917	0.811233	0.442911
	O12748	O	0.917755	0.193775	0.442917
	O12749	O	0.917808	0.310604	0.442898
	O12750	O	0.915666	0.694465	0.421205
	O12751	O	0.915959	0.811007	0.421286
	O12752	O	0.915960	0.193924	0.421295
	O12753	O	0.915985	0.310396	0.421273
	O12754	O	0.982635	0.694949	0.445932
	O12755	O	0.982834	0.811551	0.445983
	O12756	O	0.982744	0.194070	0.445969
	O12757	O	0.982539	0.310611	0.445937
	O12758	O	0.983046	0.193473	0.425139
	O12759	O	0.982432	0.310152	0.425148
	O12760	O	0.979661	0.694083	0.380383
	O12761	O	0.941641	0.694438	0.378661
	O12762	O	0.958491	0.693977	0.488891
	O12763	O	0.958783	0.810797	0.488996
	O12764	O	0.920685	0.694993	0.487688
	O12765	O	0.920866	0.811711	0.487666
	O12766	O	0.941885	0.811140	0.378678
	O12767	O	0.979926	0.810951	0.380320
	O12768	O	0.979897	0.194446	0.380308
	O12769	O	0.941946	0.194251	0.378728
	O12770	O	0.958830	0.194927	0.489018
	O12771	O	0.958613	0.311658	0.488956
	O12772	O	0.920896	0.193859	0.487661
	O12773	O	0.920655	0.310526	0.487666
	O12774	O	0.941793	0.310996	0.378728
	O12775	O	0.979665	0.311251	0.380451
	H12776	H	0.918910	0.642878	0.457316
	H12777	H	0.919367	0.862643	0.457289
	H12778	H	0.919123	0.142614	0.457287
	H12779	H	0.919116	0.361969	0.457276
	H12780	H	0.923041	0.862136	0.407465
	H12781	H	0.922707	0.643562	0.407399
	H12782	H	0.922511	0.361484	0.407401
	H12783	H	0.923169	0.142637	0.407481
	H12784	H	1.003290	0.064551	0.439859
	H12785	H	1.009294	0.064682	0.437902
	H12786	H	1.009197	0.941378	0.437859
	H12787	H	1.003293	0.941047	0.439844
	H12788	H	0.993570	0.064615	0.437996
	H12789	H	0.993618	0.941009	0.438005
	H12790	H	0.896636	0.064326	0.429798
	H12791	H	0.896718	0.940732	0.429782
	H12792	H	0.894473	0.063733	0.431766
	H12793	H	0.894449	0.941499	0.431776
	H12794	H	0.898342	0.064244	0.434346
	H12795	H	0.898408	0.941083	0.434327
	H12796	H	0.908668	0.441002	0.430836
	H12797	H	0.903539	0.440848	0.428479
	H12798	H	0.905808	0.440687	0.434934
	H12799	H	1.004006	0.441150	0.436152
	H12800	H	1.001341	0.441547	0.437391
	H12801	H	0.998489	0.441641	0.436995
	H12802	H	0.903522	0.564511	0.428507
	H12803	H	0.908517	0.564581	0.430835
	H12804	H	0.998570	0.564952	0.436989
	H12805	H	1.001322	0.564959	0.437293
	H12806	H	1.004108	0.564493	0.436188
	H12807	H	0.905861	0.564478	0.434960
	H12808	H	0.974572	0.643166	0.459684
	H12809	H	0.975875	0.862942	0.459881
	H12810	H	0.975165	0.142788	0.459843
	H12811	H	0.974892	0.362207	0.459734
	H12812	H	0.930790	0.643491	0.391929
	H12813	H	0.980841	0.643223	0.394773
	H12814	H	0.981648	0.862531	0.394742
	H12815	H	0.931121	0.862540	0.391983
	H12816	H	0.979911	0.643325	0.410760
	H12817	H	0.980754	0.862653	0.410716
	H12818	H	0.967412	0.642935	0.475258
	H12819	H	0.968594	0.862628	0.475458
	H12820	H	0.951694	0.441412	0.365899
	H12821	H	0.943061	0.440993	0.501160
	H12822	H	0.965731	0.440964	0.363907
	H12823	H	0.974256	0.440964	0.367111
	H12824	H	0.941821	0.441160	0.495641
	H12825	H	0.945758	0.441177	0.497774
	H12826	H	0.943069	0.564495	0.501143
	H12827	H	0.951579	0.564557	0.365881
	H12828	H	0.945787	0.564552	0.497777
	H12829	H	0.941730	0.564364	0.495664
	H12830	H	0.974300	0.564036	0.367140
	H12831	H	0.965777	0.564734	0.363944
	H12832	H	0.968253	0.143320	0.475475
	H12833	H	0.968077	0.362827	0.475336
	H12834	H	0.961430	0.064712	0.372541
	H12835	H	0.967397	0.064106	0.371902
	H12836	H	0.955225	0.064947	0.369834
	H12837	H	0.918518	0.862939	0.473287
	H12838	H	0.918195	0.643128	0.473337
	H12839	H	0.918229	0.361978	0.473283
	H12840	H	0.918262	0.142638	0.473301
	H12841	H	0.931193	0.142821	0.392009
	H12842	H	0.981594	0.142101	0.394735
	H12843	H	0.980896	0.361766	0.394809
	H12844	H	0.930595	0.361636	0.391933
	H12845	H	0.980768	0.141859	0.410753
	H12846	H	0.979986	0.361481	0.410799
	H12847	H	0.934975	0.064493	0.497586
	H12848	H	0.934915	0.064515	0.499195
	H12849	H	0.939222	0.064823	0.500445
	H12850	H	0.967430	0.941244	0.371918
	H12851	H	0.961402	0.941110	0.372539
	H12852	H	0.955313	0.941056	0.369877
	H12853	H	0.935080	0.941272	0.497590
	H12854	H	0.934892	0.940985	0.499210
	H12855	H	0.939157	0.940699	0.500448
	Zn12856	Zn	0.900338	0.679814	0.431887
	Zn12857	Zn	0.900445	0.825141	0.431901
	Zn12858	Zn	0.900329	0.179828	0.431902
	Zn12859	Zn	0.900418	0.325201	0.431906
	Zn12860	Zn	0.938772	0.680222	0.498478
	Zn12861	Zn	0.938845	0.825378	0.498547
	Zn12862	Zn	0.938911	0.180249	0.498500
	Zn12863	Zn	0.938670	0.325378	0.498488
	C12864	C	0.981490	0.753168	0.421385
	C12865	C	0.918795	0.752764	0.446654
	C12866	C	0.919580	0.752750	0.456334
	C12867	C	0.918985	0.690609	0.460883
	C12868	C	0.919197	0.814943	0.460859
	C12869	C	0.918714	0.252197	0.446649
	C12870	C	0.919558	0.252174	0.456323
	C12871	C	0.919064	0.190248	0.460854
	C12872	C	0.919067	0.314287	0.460844
	C12873	C	0.917885	0.752806	0.417666
	C12874	C	0.922740	0.752849	0.408362
	C12875	C	0.924714	0.814813	0.403984
	C12876	C	0.924543	0.690953	0.403949
	C12877	C	0.917991	0.252077	0.417692
	C12878	C	0.922743	0.252032	0.408397
	C12879	C	0.924466	0.314058	0.403974
	C12880	C	0.924820	0.190204	0.404015
	C12881	C	1.004908	0.043371	0.438108
	C12882	C	1.004874	0.962506	0.438089
	C12883	C	0.896867	0.042645	0.431060
	C12884	C	0.896928	0.962179	0.431079
	C12885	C	0.900809	0.043169	0.433684
	C12886	C	0.900788	0.962081	0.433684
	C12887	C	0.904629	0.462305	0.430269
	C12888	C	1.002892	0.462563	0.435635
	C12889	C	1.000106	0.462836	0.436830
	C12890	C	0.904606	0.543127	0.430257
	C12891	C	1.000112	0.543512	0.436829
	C12892	C	1.002875	0.543295	0.435648
	C12893	C	0.980293	0.753222	0.449493
	C12894	C	0.980222	0.252341	0.449504
	C12895	C	0.975198	0.753104	0.458785
	C12896	C	0.973128	0.690895	0.463171
	C12897	C	0.973809	0.815122	0.463288
	C12898	C	0.975251	0.252397	0.458811
	C12899	C	0.973583	0.190501	0.463295
	C12900	C	0.973482	0.314586	0.463228
	C12901	C	0.981520	0.251751	0.421414
	C12902	C	0.980712	0.752639	0.384091
	C12903	C	0.938459	0.752857	0.382018
	C12904	C	0.919558	0.753328	0.483946
	C12905	C	0.980191	0.690879	0.407195
	C12906	C	0.980657	0.814977	0.407167
	C12907	C	0.981551	0.752753	0.393764
	C12908	C	0.931472	0.752969	0.391019
	C12909	C	0.928961	0.690961	0.395363
	C12910	C	0.980870	0.690826	0.398316
	C12911	C	0.981318	0.814902	0.398289
	C12912	C	0.929125	0.814879	0.395397
	C12913	C	0.980094	0.752915	0.411719
	C12914	C	0.961577	0.752512	0.485491
	C12915	C	0.969360	0.690741	0.471840
	C12916	C	0.970046	0.815002	0.471959
	C12917	C	0.967632	0.752742	0.476312
	C12918	C	0.939702	0.462474	0.500581
	C12919	C	0.968078	0.462308	0.366528
	C12920	C	0.942419	0.462399	0.497161
	C12921	C	0.939733	0.543238	0.500582
	C12922	C	0.942448	0.543126	0.497171
	C12923	C	0.968049	0.543314	0.366531
	C12924	C	0.961721	0.253223	0.485539
	C12925	C	0.969790	0.190769	0.471966
	C12926	C	0.969704	0.314917	0.471897
	C12927	C	0.967754	0.252956	0.476356
	C12928	C	0.963960	0.043266	0.371479
	C12929	C	0.980704	0.252561	0.384116
	C12930	C	0.938487	0.252550	0.382064
	C12931	C	0.919540	0.252195	0.483929
	C12932	C	0.980699	0.189641	0.407196
	C12933	C	0.980278	0.313874	0.407234
	C12934	C	0.981518	0.251984	0.393795
	C12935	C	0.931423	0.252251	0.391048
	C12936	C	0.918144	0.753119	0.474280
	C12937	C	0.918538	0.815143	0.469736
	C12938	C	0.918314	0.690797	0.469768
	C12939	C	0.918231	0.252257	0.474268
	C12940	C	0.918464	0.314291	0.469724
	C12941	C	0.918474	0.190283	0.469738
	C12942	C	0.929157	0.190284	0.395420
	C12943	C	0.981310	0.189789	0.398309
	C12944	C	0.980892	0.314000	0.398353
	C12945	C	0.928804	0.314137	0.395379
	C12946	C	0.980157	0.251653	0.411749
	C12947	C	0.935999	0.043037	0.498431
	C12948	C	0.957699	0.043322	0.368740
	C12949	C	0.964013	0.962554	0.371481
	C12950	C	0.936008	0.962416	0.498432
	C12951	C	0.957748	0.962515	0.368756
	N12952	N	0.900521	0.069790	0.431946
	N12953	N	0.900530	0.935272	0.431960
	N12954	N	0.900536	0.435354	0.431885
	N12955	N	0.900521	0.569894	0.431911
	N12956	N	0.938753	0.435579	0.498475
	N12957	N	0.938781	0.570088	0.498470
	N12958	N	0.938958	0.070230	0.498530
	N12959	N	0.938978	0.935685	0.498527
	O12960	O	0.981612	0.695267	0.552212
	O12961	O	0.982110	0.811947	0.552104
	O12962	O	0.895256	0.693837	0.571477
	O12963	O	0.895634	0.810312	0.571475
	O12964	O	0.895819	0.195535	0.571457
	O12965	O	0.895467	0.312133	0.571410
	O12966	O	0.896070	0.693884	0.551441
	O12967	O	0.896252	0.810497	0.551532
	O12968	O	0.896360	0.195276	0.551572
	O12969	O	0.895956	0.311897	0.551422
	O12970	O	0.981468	0.695463	0.572085
	O12971	O	0.981584	0.812026	0.572066
	O12972	O	0.981644	0.194060	0.572064
	O12973	O	0.981264	0.310815	0.572049
	O12974	O	0.981981	0.194380	0.552075
	O12975	O	0.981760	0.311044	0.552168
	O12976	O	0.957960	0.694196	0.508983
	O12977	O	0.920545	0.694947	0.508513
	O12978	O	0.957304	0.695282	0.615012
	O12979	O	0.957106	0.811940	0.615026
	O12980	O	0.919567	0.694168	0.614664
	O12981	O	0.919551	0.810763	0.614568
	O12982	O	0.920613	0.811435	0.508555
	O12983	O	0.958319	0.810938	0.508944
	O12984	O	0.958164	0.195636	0.508959
	O12985	O	0.920781	0.194075	0.508603
	O12986	O	0.957106	0.193929	0.614986
	O12987	O	0.956946	0.310630	0.615004
	O12988	O	0.919497	0.195538	0.614618
	O12989	O	0.919545	0.312226	0.614635
	O12990	O	0.920452	0.310809	0.508488
	O12991	O	0.957936	0.312342	0.508993
	H12992	H	0.903767	0.642624	0.585353
	H12993	H	0.904333	0.860939	0.585198
	H12994	H	0.904346	0.144440	0.585223
	H12995	H	0.903721	0.363180	0.585270
	H12996	H	0.905767	0.862266	0.537998
	H12997	H	0.905707	0.642875	0.537892
	H12998	H	0.905444	0.362933	0.537865
	H12999	H	0.906008	0.143767	0.538026
	H13000	H	0.999776	0.064711	0.561193
	H13001	H	0.998198	0.064847	0.562151
	H13002	H	0.998181	0.941799	0.562191
	H13003	H	0.999836	0.941483	0.561212
	H13004	H	1.003461	0.064274	0.561417
	H13005	H	1.003590	0.941162	0.561429
	H13006	H	0.876260	0.064878	0.557817
	H13007	H	0.876311	0.941535	0.557785
	H13008	H	0.870625	0.064876	0.558858
	H13009	H	0.870712	0.941546	0.558835
	H13010	H	0.869899	0.064883	0.562567
	H13011	H	0.869949	0.941050	0.562537
	H13012	H	0.880753	0.441161	0.557752
	H13013	H	0.873345	0.441085	0.557203
	H13014	H	0.884796	0.441534	0.562028
	H13015	H	1.005275	0.441296	0.564354
	H13016	H	0.998830	0.441080	0.564842
	H13017	H	0.995508	0.440789	0.563217
	H13018	H	0.873222	0.563999	0.557184
	H13019	H	0.880639	0.564987	0.557790
	H13020	H	0.995541	0.564719	0.563237
	H13021	H	0.998792	0.564451	0.564888
	H13022	H	1.005317	0.564413	0.564363
	H13023	H	0.884663	0.564863	0.561911
	H13024	H	0.972242	0.644203	0.585653
	H13025	H	0.971566	0.863767	0.585597
	H13026	H	0.971912	0.142862	0.585583
	H13027	H	0.971978	0.361790	0.585615
	H13028	H	0.912813	0.643336	0.522322
	H13029	H	0.965910	0.643459	0.522852
	H13030	H	0.966847	0.862100	0.522690
	H13031	H	0.912856	0.862705	0.522408
	H13032	H	0.972957	0.644035	0.538436
	H13033	H	0.973899	0.862585	0.538290
	H13034	H	0.965243	0.644106	0.601233
	H13035	H	0.964574	0.863563	0.601217
	H13036	H	0.937055	0.441274	0.501555
	H13037	H	0.938788	0.440894	0.626505
	H13038	H	0.931598	0.441125	0.498628
	H13039	H	0.933520	0.441099	0.496150
	H13040	H	0.941779	0.441677	0.624513
	H13041	H	0.941827	0.441358	0.625662
	H13042	H	0.938764	0.564778	0.626446
	H13043	H	0.937090	0.564482	0.501539
	H13044	H	0.941967	0.564806	0.625655
	H13045	H	0.941753	0.565125	0.624489
	H13046	H	0.933676	0.564513	0.496174
	H13047	H	0.931682	0.564515	0.498630
	H13048	H	0.964827	0.142865	0.601165
	H13049	H	0.964833	0.361912	0.601194
	H13050	H	0.942666	0.064226	0.497561
	H13051	H	0.939522	0.064839	0.496631
	H13052	H	0.942459	0.064054	0.499771
	H13053	H	0.911347	0.861116	0.600781
	H13054	H	0.910815	0.643054	0.600941
	H13055	H	0.910722	0.363015	0.600855
	H13056	H	0.911226	0.144416	0.600799
	H13057	H	0.913090	0.143464	0.522464
	H13058	H	0.966826	0.144525	0.522749
	H13059	H	0.965988	0.363248	0.522874
	H13060	H	0.912590	0.362380	0.522283
	H13061	H	0.973848	0.144104	0.538311
	H13062	H	0.973006	0.362772	0.538431
	H13063	H	0.945159	0.064595	0.626290
	H13064	H	0.944886	0.064544	0.623759
	H13065	H	0.937783	0.064966	0.621989
	H13066	H	0.939592	0.940938	0.496625
	H13067	H	0.942696	0.941371	0.497554
	H13068	H	0.942479	0.941159	0.499814
	H13069	H	0.945217	0.941187	0.626292
	H13070	H	0.944857	0.941421	0.623708
	H13071	H	0.937669	0.941451	0.621977
	Zn13072	Zn	0.875985	0.680424	0.560963
	Zn13073	Zn	0.876405	0.825370	0.561085
	Zn13074	Zn	0.876429	0.180553	0.561074
	Zn13075	Zn	0.876059	0.325531	0.560990
	Zn13076	Zn	0.939030	0.681022	0.625041
	Zn13077	Zn	0.938772	0.825184	0.625040
	Zn13078	Zn	0.938822	0.181109	0.625013
	Zn13079	Zn	0.938977	0.325257	0.625072
	C13080	C	0.979170	0.753560	0.548622
	C13081	C	0.898168	0.751901	0.575019
	C13082	C	0.903725	0.751746	0.584313
	C13083	C	0.905506	0.690073	0.588770
	C13084	C	0.905836	0.813672	0.588678
	C13085	C	0.898303	0.254010	0.574991
	C13086	C	0.903731	0.253929	0.584305
	C13087	C	0.905760	0.191950	0.588706
	C13088	C	0.905462	0.315720	0.588732
	C13089	C	0.899234	0.752279	0.548058
	C13090	C	0.905407	0.752604	0.538909
	C13091	C	0.907435	0.814721	0.534520
	C13092	C	0.907389	0.690747	0.534459
	C13093	C	0.899168	0.253466	0.548061
	C13094	C	0.905352	0.253352	0.538910
	C13095	C	0.907199	0.315176	0.534441
	C13096	C	0.907521	0.191281	0.534547
	C13097	C	0.999617	0.043359	0.561885
	C13098	C	0.999663	0.962641	0.561888
	C13099	C	0.874190	0.043348	0.559040
	C13100	C	0.874210	0.962675	0.559034
	C13101	C	0.873525	0.043601	0.562773
	C13102	C	0.873450	0.962549	0.562768
	C13103	C	0.876744	0.462456	0.558418
	C13104	C	1.004745	0.462517	0.563157
	C13105	C	0.998212	0.462247	0.563660
	C13106	C	0.876675	0.543208	0.558401
	C13107	C	0.998204	0.543313	0.563665
	C13108	C	1.004744	0.543339	0.563172
	C13109	C	0.978522	0.753810	0.575527
	C13110	C	0.978394	0.252376	0.575493
	C13111	C	0.972344	0.754028	0.584671
	C13112	C	0.970396	0.691993	0.589086
	C13113	C	0.970039	0.816042	0.589067
	C13114	C	0.972257	0.252387	0.584662
	C13115	C	0.970227	0.190361	0.589063
	C13116	C	0.970249	0.314335	0.589080
	C13117	C	0.979185	0.252871	0.548585
	C13118	C	0.960734	0.752560	0.512519
	C13119	C	0.918137	0.753129	0.512084
	C13120	C	0.916851	0.752307	0.611074
	C13121	C	0.971568	0.691409	0.534943
	C13122	C	0.972102	0.814987	0.534852
	C13123	C	0.966157	0.752669	0.521845
	C13124	C	0.913057	0.753015	0.521383
	C13125	C	0.911251	0.690929	0.525805
	C13126	C	0.967742	0.690997	0.526294
	C13127	C	0.968286	0.814774	0.526200
	C13128	C	0.911279	0.814935	0.525858
	C13129	C	0.973686	0.753330	0.539319
	C13130	C	0.959732	0.753677	0.611492
	C13131	C	0.966612	0.691818	0.597751
	C13132	C	0.966254	0.815980	0.597736
	C13133	C	0.964722	0.753862	0.602185
	C13134	C	0.937903	0.462544	0.625898
	C13135	C	0.934209	0.462423	0.497657
	C13136	C	0.941069	0.462828	0.625100
	C13137	C	0.937936	0.543415	0.625884
	C13138	C	0.941095	0.543578	0.625087
	C13139	C	0.934275	0.543329	0.497686
	C13140	C	0.959504	0.252391	0.611464
	C13141	C	0.966379	0.190492	0.597725
	C13142	C	0.966379	0.314343	0.597735
	C13143	C	0.964562	0.252453	0.602175
	C13144	C	0.940534	0.043395	0.497472
	C13145	C	0.960747	0.253974	0.512523
	C13146	C	0.918197	0.252576	0.512096
	C13147	C	0.916787	0.253889	0.611081
	C13148	C	0.972020	0.191658	0.534865
	C13149	C	0.971550	0.315439	0.534932
	C13150	C	0.966191	0.253952	0.521834
	C13151	C	0.913108	0.252875	0.521397
	C13152	C	0.911389	0.752050	0.601753
	C13153	C	0.909646	0.813801	0.597322
	C13154	C	0.909345	0.690223	0.597414
	C13155	C	0.911254	0.253749	0.601778
	C13156	C	0.909247	0.315542	0.597377
	C13157	C	0.909511	0.191957	0.597353
	C13158	C	0.911467	0.191092	0.525895
	C13159	C	0.968258	0.191974	0.526224
	C13160	C	0.967780	0.315622	0.526292
	C13161	C	0.911159	0.314958	0.525792
	C13162	C	0.973683	0.253445	0.539303
	C13163	C	0.943410	0.043306	0.625009
	C13164	C	0.940324	0.043264	0.499711
	C13165	C	0.940556	0.962406	0.497490
	C13166	C	0.943409	0.962596	0.624989
	C13167	C	0.940312	0.962378	0.499706
	N13168	N	0.876329	0.070092	0.561068
	N13169	N	0.876323	0.935471	0.561051
	N13170	N	0.875943	0.435754	0.560967
	N13171	N	0.875922	0.570284	0.560919
	N13172	N	0.938910	0.435801	0.625093
	N13173	N	0.938974	0.570498	0.625062
	N13174	N	0.938728	0.070472	0.625016
	N13175	N	0.938705	0.935758	0.625002
	O13176	O	0.959751	0.695109	0.680634
	O13177	O	0.959877	0.811911	0.680612
	O13178	O	0.894238	0.695297	0.698347
	O13179	O	0.894149	0.812025	0.698317
	O13180	O	0.894116	0.194484	0.698365
	O13181	O	0.894293	0.311377	0.698346
	O13182	O	0.894654	0.695319	0.677508
	O13183	O	0.894187	0.811737	0.677416
	O13184	O	0.894515	0.194222	0.677490
	O13185	O	0.894434	0.310900	0.677462
	O13186	O	0.962049	0.694980	0.702310
	O13187	O	0.961737	0.811326	0.702237
	O13188	O	0.961922	0.194318	0.702308
	O13189	O	0.961899	0.310813	0.702278
	O13190	O	0.959722	0.194428	0.680620
	O13191	O	0.959846	0.311279	0.680596
	O13192	O	0.956991	0.695293	0.635904
	O13193	O	0.919039	0.694529	0.634586
	O13194	O	0.934779	0.695334	0.744703
	O13195	O	0.934670	0.812103	0.744673
	O13196	O	0.896961	0.695371	0.743060
	O13197	O	0.897070	0.812292	0.743059
	O13198	O	0.918755	0.811197	0.634526
	O13199	O	0.956666	0.811817	0.635889
	O13200	O	0.956707	0.193875	0.635891
	O13201	O	0.918914	0.194755	0.634516
	O13202	O	0.934640	0.194299	0.744688
	O13203	O	0.934832	0.311025	0.744716
	O13204	O	0.896829	0.195509	0.743100
	O13205	O	0.897025	0.312202	0.743094
	O13206	O	0.919061	0.311439	0.634590
	O13207	O	0.957095	0.310738	0.635854
	H13208	H	0.896632	0.644587	0.712680
	H13209	H	0.896548	0.863927	0.712738
	H13210	H	0.896546	0.143617	0.712789
	H13211	H	0.896612	0.363034	0.712686
	H13212	H	0.902131	0.862891	0.663626
	H13213	H	0.902022	0.643751	0.663662
	H13214	H	0.902353	0.362021	0.663727
	H13215	H	0.902078	0.142848	0.663630
	H13216	H	0.981824	0.064802	0.695513
	H13217	H	0.986740	0.064498	0.692653
	H13218	H	0.986848	0.941571	0.692715
	H13219	H	0.981754	0.941469	0.695581
	H13220	H	0.970489	0.064831	0.694633
	H13221	H	0.970605	0.941669	0.694675
	H13222	H	0.887722	0.065362	0.688838
	H13223	H	0.887803	0.941860	0.688810
	H13224	H	0.885490	0.065045	0.684493
	H13225	H	0.885541	0.941457	0.684459
	H13226	H	0.872374	0.064785	0.682436
	H13227	H	0.872368	0.941237	0.682379
	H13228	H	0.869008	0.441426	0.687697
	H13229	H	0.872243	0.441308	0.690110
	H13230	H	0.873118	0.441025	0.684501
	H13231	H	0.970777	0.441502	0.690065
	H13232	H	0.978026	0.441029	0.688547
	H13233	H	0.983059	0.441403	0.690102
	H13234	H	0.872280	0.564873	0.690088
	H13235	H	0.869107	0.564840	0.687653
	H13236	H	0.983173	0.565011	0.690050
	H13237	H	0.978038	0.564863	0.688527
	H13238	H	0.970777	0.564992	0.690073
	H13239	H	0.873164	0.564534	0.684555
	H13240	H	0.954960	0.644223	0.716147
	H13241	H	0.954164	0.862589	0.715986
	H13242	H	0.954308	0.143323	0.716053
	H13243	H	0.954495	0.361812	0.716089
	H13244	H	0.909220	0.643336	0.648082
	H13245	H	0.959051	0.643848	0.650231
	H13246	H	0.959420	0.863675	0.650265
	H13247	H	0.909311	0.862725	0.648068
	H13248	H	0.958193	0.643735	0.666232
	H13249	H	0.958535	0.863493	0.666243
	H13250	H	0.946313	0.644543	0.731539
	H13251	H	0.945604	0.862860	0.731391
	H13252	H	0.936281	0.441475	0.625902
	H13253	H	0.903633	0.441268	0.754778
	H13254	H	0.936148	0.441546	0.624271
	H13255	H	0.938457	0.441400	0.623697
	H13256	H	0.921309	0.442060	0.757787
	H13257	H	0.912625	0.441946	0.758707
	H13258	H	0.903568	0.565216	0.754727
	H13259	H	0.936375	0.564647	0.625853
	H13260	H	0.912587	0.565079	0.758736
	H13261	H	0.921280	0.565160	0.757716
	H13262	H	0.938525	0.565153	0.623679
	H13263	H	0.936310	0.564790	0.624240
	H13264	H	0.945724	0.143115	0.731466
	H13265	H	0.945919	0.361813	0.731494
	H13266	H	0.933283	0.064443	0.626765
	H13267	H	0.938459	0.064747	0.628033
	H13268	H	0.932792	0.064781	0.623276
	H13269	H	0.895710	0.863778	0.728747
	H13270	H	0.895767	0.644399	0.728667
	H13271	H	0.895596	0.363565	0.728688
	H13272	H	0.895609	0.144043	0.728772
	H13273	H	0.909172	0.143007	0.648055
	H13274	H	0.959082	0.142936	0.650268
	H13275	H	0.959629	0.362444	0.650214
	H13276	H	0.909506	0.362305	0.648149
	H13277	H	0.958250	0.143286	0.666256
	H13278	H	0.958707	0.362425	0.666229
	H13279	H	0.911732	0.065441	0.753947
	H13280	H	0.912229	0.064871	0.754788
	H13281	H	0.914904	0.064995	0.755145
	H13282	H	0.938473	0.941219	0.628024
	H13283	H	0.933229	0.941486	0.626746
	H13284	H	0.932796	0.941493	0.623268
	H13285	H	0.911740	0.941732	0.753964
	H13286	H	0.912299	0.941730	0.754810
	H13287	H	0.914991	0.941847	0.755118
	Zn13288	Zn	0.876255	0.681239	0.687517
	Zn13289	Zn	0.876040	0.825238	0.687484
	Zn13290	Zn	0.876046	0.181291	0.687485
	Zn13291	Zn	0.876294	0.325274	0.687527
	Zn13292	Zn	0.914272	0.681144	0.754087
	Zn13293	Zn	0.914263	0.826090	0.754080
	Zn13294	Zn	0.914080	0.181226	0.754109
	Zn13295	Zn	0.914318	0.326101	0.754104
	C13296	C	0.958903	0.753505	0.676875
	C13297	C	0.895380	0.753772	0.702068
	C13298	C	0.896705	0.754264	0.711729
	C13299	C	0.896425	0.692225	0.716242
	C13300	C	0.896365	0.816317	0.716279
	C13301	C	0.895455	0.252934	0.702086
	C13302	C	0.896700	0.253209	0.711760
	C13303	C	0.896361	0.191307	0.716322
	C13304	C	0.896420	0.315459	0.716261
	C13305	C	0.896948	0.753475	0.673916
	C13306	C	0.902036	0.753285	0.664633
	C13307	C	0.903787	0.815206	0.660184
	C13308	C	0.903771	0.691265	0.660203
	C13309	C	0.896929	0.252506	0.673932
	C13310	C	0.902011	0.252390	0.664634
	C13311	C	0.903837	0.314485	0.660229
	C13312	C	0.903709	0.190456	0.660171
	C13313	C	0.982359	0.043609	0.693448
	C13314	C	0.982395	0.962841	0.693476
	C13315	C	0.883863	0.043837	0.686887
	C13316	C	0.883885	0.962844	0.686861
	C13317	C	0.870617	0.043393	0.684801
	C13318	C	0.870630	0.962598	0.684793
	C13319	C	0.872168	0.462693	0.688530
	C13320	C	0.972290	0.462712	0.691434
	C13321	C	0.979593	0.462584	0.689927
	C13322	C	0.872204	0.543496	0.688529
	C13323	C	0.979621	0.543497	0.689906
	C13324	C	0.972249	0.543467	0.691444
	C13325	C	0.959822	0.753200	0.705860
	C13326	C	0.959747	0.252575	0.705863
	C13327	C	0.954706	0.753338	0.715119
	C13328	C	0.952832	0.691639	0.719542
	C13329	C	0.952411	0.815223	0.719453
	C13330	C	0.954647	0.252549	0.715135
	C13331	C	0.952488	0.190704	0.719508
	C13332	C	0.952579	0.314390	0.719519
	C13333	C	0.958872	0.252804	0.676857
	C13334	C	0.958075	0.753621	0.639627
	C13335	C	0.915854	0.752902	0.637988
	C13336	C	0.896108	0.753835	0.739325
	C13337	C	0.958417	0.691457	0.662670
	C13338	C	0.958569	0.815755	0.662675
	C13339	C	0.959392	0.753691	0.649268
	C13340	C	0.909764	0.753037	0.647138
	C13341	C	0.907632	0.691062	0.651542
	C13342	C	0.959032	0.691550	0.653789
	C13343	C	0.959182	0.815877	0.653798
	C13344	C	0.907629	0.815094	0.651530
	C13345	C	0.958095	0.753544	0.667202
	C13346	C	0.938185	0.753707	0.741368
	C13347	C	0.948168	0.691860	0.728100
	C13348	C	0.947767	0.815387	0.728015
	C13349	C	0.945422	0.753700	0.732403
	C13350	C	0.907184	0.462715	0.753193
	C13351	C	0.937741	0.462784	0.624271
	C13352	C	0.916192	0.463107	0.757145
	C13353	C	0.907158	0.543915	0.753171
	C13354	C	0.916184	0.543847	0.757136
	C13355	C	0.937792	0.543680	0.624262
	C13356	C	0.938137	0.252573	0.741377
	C13357	C	0.947811	0.190611	0.728067
	C13358	C	0.947922	0.314285	0.728082
	C13359	C	0.945327	0.252406	0.732417
	C13360	C	0.936651	0.043438	0.626767
	C13361	C	0.958147	0.252348	0.639590
	C13362	C	0.915973	0.253024	0.637991
	C13363	C	0.896018	0.253844	0.739351
	C13364	C	0.958443	0.190823	0.662671
	C13365	C	0.958716	0.314903	0.662652
	C13366	C	0.959525	0.252640	0.649245
	C13367	C	0.909732	0.252726	0.647130
	C13368	C	0.895266	0.754011	0.729659
	C13369	C	0.895774	0.816208	0.725160
	C13370	C	0.895815	0.692095	0.725116
	C13371	C	0.895231	0.253797	0.729701
	C13372	C	0.895720	0.315767	0.725141
	C13373	C	0.895682	0.191582	0.725199
	C13374	C	0.907565	0.190635	0.651512
	C13375	C	0.959102	0.190712	0.653797
	C13376	C	0.959378	0.314818	0.653770
	C13377	C	0.907720	0.314594	0.651570
	C13378	C	0.958080	0.252913	0.667181
	C13379	C	0.912496	0.043925	0.754313
	C13380	C	0.936214	0.043645	0.623248
	C13381	C	0.936635	0.962627	0.626762
	C13382	C	0.912533	0.962978	0.754315
	C13383	C	0.936195	0.962648	0.623245
	N13384	N	0.876049	0.070573	0.687512
	N13385	N	0.876082	0.935851	0.687483
	N13386	N	0.876412	0.435749	0.687513
	N13387	N	0.876395	0.570441	0.687513
	N13388	N	0.914111	0.436119	0.754082
	N13389	N	0.914089	0.570741	0.754049
	N13390	N	0.913933	0.070806	0.754100
	N13391	N	0.914010	0.936261	0.754107
	O13392	O	1.007632	0.694936	0.796821
	O13393	O	1.007469	0.811161	0.796911
	O13394	O	0.874917	0.695204	0.825593
	O13395	O	0.874734	0.811531	0.825677
	O13396	O	0.874986	0.194742	0.825544
	O13397	O	0.874897	0.311109	0.825606
	O13398	O	0.872574	0.695030	0.807306
	O13399	O	0.872619	0.811808	0.807291
	O13400	O	0.872527	0.194612	0.807276
	O13401	O	0.872516	0.311437	0.807271
	O13402	O	1.009858	0.694989	0.815196
	O13403	O	1.009996	0.811697	0.815221
	O13404	O	1.010033	0.194971	0.815204
	O13405	O	1.009806	0.311632	0.815161
	O13406	O	1.007747	0.194765	0.796815
	O13407	O	1.007591	0.311121	0.796781
	O13408	O	0.937379	0.695217	0.763075
	O13409	O	0.898910	0.694997	0.764776
	O13410	O	0.983356	0.694792	0.857673
	O13411	O	0.983627	0.811072	0.857695
	O13412	O	0.944980	0.695026	0.859402
	O13413	O	0.945148	0.811264	0.859341
	O13414	O	0.899037	0.811494	0.764801
	O13415	O	0.937210	0.811574	0.763113
	O13416	O	0.937266	0.194761	0.763073
	O13417	O	0.898905	0.195812	0.764758
	O13418	O	0.983602	0.194682	0.857713
	O13419	O	0.983537	0.311131	0.857653
	O13420	O	0.945010	0.194947	0.859404
	O13421	O	0.945152	0.310969	0.859340
	O13422	O	0.899111	0.312248	0.764847
	O13423	O	0.937488	0.311132	0.763018
	H13424	H	0.897390	0.645139	0.836383
	H13425	H	0.897462	0.861664	0.836438
	H13426	H	0.897497	0.144778	0.836373
	H13427	H	0.897521	0.361203	0.836369
	H13428	H	0.884001	0.862947	0.794086
	H13429	H	0.883432	0.643753	0.794006
	H13430	H	0.883426	0.362272	0.794091
	H13431	H	0.883543	0.143763	0.794025
	H13432	H	1.024828	0.064860	0.807407
	H13433	H	1.029786	0.064884	0.808905
	H13434	H	1.029743	0.941743	0.808903
	H13435	H	1.024800	0.941698	0.807400
	H13436	H	1.025113	0.064998	0.803922
	H13437	H	1.025136	0.941478	0.803948
	H13438	H	0.853471	0.064895	0.818286
	H13439	H	0.853521	0.941427	0.818363
	H13440	H	0.855813	0.064630	0.817110
	H13441	H	0.855822	0.941702	0.817176
	H13442	H	0.854038	0.065034	0.815153
	H13443	H	0.854208	0.941417	0.815125
	H13444	H	0.857462	0.441383	0.820030
	H13445	H	0.861205	0.441156	0.817039
	H13446	H	0.846706	0.441614	0.819858
	H13447	H	1.022670	0.441991	0.805845
	H13448	H	1.027490	0.441380	0.802529
	H13449	H	1.034295	0.440955	0.802689
	H13450	H	0.861200	0.564673	0.817052
	H13451	H	0.857480	0.565065	0.820033
	H13452	H	1.034254	0.565330	0.802654
	H13453	H	1.027454	0.564928	0.802494
	H13454	H	1.022627	0.564698	0.805868
	H13455	H	0.846696	0.564751	0.819907
	H13456	H	0.998365	0.643980	0.828367
	H13457	H	0.999547	0.862375	0.828498
	H13458	H	0.998933	0.143389	0.828421
	H13459	H	0.998813	0.362426	0.828416
	H13460	H	0.891613	0.643826	0.778557
	H13461	H	0.960027	0.644733	0.773841
	H13462	H	0.959891	0.861755	0.773894
	H13463	H	0.892228	0.862882	0.778638
	H13464	H	0.984881	0.644900	0.786094
	H13465	H	0.984707	0.861766	0.786150
	H13466	H	0.990194	0.643655	0.843817
	H13467	H	0.991286	0.862207	0.843953
	H13468	H	0.905805	0.441014	0.750998
	H13469	H	0.977713	0.441306	0.867191
	H13470	H	0.917773	0.441788	0.749667
	H13471	H	0.924326	0.442299	0.752605
	H13472	H	0.961046	0.441407	0.865232
	H13473	H	0.968639	0.441326	0.863932
	H13474	H	0.977788	0.564988	0.867243
	H13475	H	0.905826	0.565455	0.750946
	H13476	H	0.968688	0.565286	0.863959
	H13477	H	0.961120	0.564810	0.865264
	H13478	H	0.924234	0.565064	0.752570
	H13479	H	0.917733	0.564891	0.749670
	H13480	H	0.990728	0.143099	0.843876
	H13481	H	0.990604	0.362256	0.843855
	H13482	H	0.915435	0.065190	0.753332
	H13483	H	0.913580	0.065525	0.753080
	H13484	H	0.916194	0.065273	0.754509
	H13485	H	0.922461	0.861377	0.848618
	H13486	H	0.922311	0.644827	0.848586
	H13487	H	0.922354	0.361247	0.848596
	H13488	H	0.922311	0.144491	0.848627
	H13489	H	0.891897	0.144272	0.778582
	H13490	H	0.960115	0.144127	0.773791
	H13491	H	0.960022	0.361313	0.773838
	H13492	H	0.891785	0.362642	0.778662
	H13493	H	0.985038	0.143976	0.785990
	H13494	H	0.984960	0.361189	0.786038
	H13495	H	0.964316	0.064495	0.868492
	H13496	H	0.966107	0.064485	0.869762
	H13497	H	0.970659	0.064628	0.869673
	H13498	H	0.913662	0.941938	0.753067
	H13499	H	0.915509	0.941993	0.753347
	H13500	H	0.916402	0.941760	0.754443
	H13501	H	0.964399	0.941197	0.868479
	H13502	H	0.966245	0.941066	0.869722
	H13503	H	0.970646	0.941571	0.869670
	Zn13504	Zn	0.852002	0.680513	0.816617
	Zn13505	Zn	0.851904	0.825763	0.816581
	Zn13506	Zn	0.851849	0.180570	0.816607
	Zn13507	Zn	0.851961	0.325903	0.816571
	Zn13508	Zn	0.968129	0.680444	0.868337
	Zn13509	Zn	0.968168	0.825551	0.868353
	Zn13510	Zn	0.968083	0.180295	0.868331
	Zn13511	Zn	0.968151	0.325786	0.868333
	C13512	C	1.001548	0.753111	0.794116
	C13513	C	0.880831	0.753395	0.828391
	C13514	C	0.896066	0.753438	0.835645
	C13515	C	0.903057	0.692091	0.839090
	C13516	C	0.903103	0.814625	0.839119
	C13517	C	0.880864	0.252945	0.828347
	C13518	C	0.896017	0.252989	0.835625
	C13519	C	0.903049	0.191734	0.839088
	C13520	C	0.903055	0.314221	0.839088
	C13521	C	0.875988	0.753406	0.803960
	C13522	C	0.883088	0.753316	0.794968
	C13523	C	0.885743	0.815322	0.790642
	C13524	C	0.885438	0.691306	0.790598
	C13525	C	0.875918	0.253014	0.803949
	C13526	C	0.883019	0.253071	0.794972
	C13527	C	0.885427	0.314982	0.790650
	C13528	C	0.885488	0.191306	0.790609
	C13529	C	1.028232	0.043760	0.807558
	C13530	C	1.028206	0.963090	0.807551
	C13531	C	0.853818	0.043615	0.817420
	C13532	C	0.853861	0.962825	0.817448
	C13533	C	0.852114	0.043512	0.815400
	C13534	C	0.852135	0.962624	0.815387
	C13535	C	0.857328	0.462640	0.818014
	C13536	C	1.025986	0.463047	0.806846
	C13537	C	1.030878	0.462609	0.803448
	C13538	C	0.857336	0.543567	0.818026
	C13539	C	1.030902	0.543807	0.803418
	C13540	C	1.026020	0.543704	0.806832
	C13541	C	1.006548	0.753355	0.818542
	C13542	C	1.006490	0.253273	0.818511
	C13543	C	0.999444	0.753159	0.827532
	C13544	C	0.996701	0.691274	0.831836
	C13545	C	0.997322	0.814946	0.831899
	C13546	C	0.999435	0.252947	0.827504
	C13547	C	0.997019	0.190869	0.831854
	C13548	C	0.996957	0.314869	0.831844
	C13549	C	1.001606	0.252812	0.794056
	C13550	C	0.943319	0.753380	0.765840
	C13551	C	0.896973	0.753231	0.768376
	C13552	C	0.939033	0.753154	0.856638
	C13553	C	0.979360	0.691933	0.783356
	C13554	C	0.979277	0.814612	0.783381
	C13555	C	0.958560	0.753210	0.773095
	C13556	C	0.892063	0.753336	0.777653
	C13557	C	0.889933	0.691330	0.782018
	C13558	C	0.965586	0.691863	0.776556
	C13559	C	0.965509	0.814653	0.776581
	C13560	C	0.890256	0.815315	0.782066
	C13561	C	0.986372	0.753248	0.786827
	C13562	C	0.985559	0.752924	0.854099
	C13563	C	0.992172	0.691184	0.840409
	C13564	C	0.992790	0.814804	0.840471
	C13565	C	0.990477	0.753003	0.844835
	C13566	C	0.974952	0.462820	0.868805
	C13567	C	0.919213	0.463233	0.751901
	C13568	C	0.965857	0.462615	0.865571
	C13569	C	0.974922	0.543628	0.868836
	C13570	C	0.965861	0.543553	0.865593
	C13571	C	0.919176	0.543830	0.751893
	C13572	C	0.985606	0.252803	0.854101
	C13573	C	0.992548	0.190737	0.840435
	C13574	C	0.992500	0.314702	0.840423
	C13575	C	0.990562	0.252706	0.844828
	C13576	C	0.914360	0.043928	0.753465
	C13577	C	0.943343	0.252897	0.765808
	C13578	C	0.896955	0.253891	0.768386
	C13579	C	0.939016	0.252952	0.856642
	C13580	C	0.979431	0.191149	0.783302
	C13581	C	0.979378	0.314068	0.783325
	C13582	C	0.958513	0.252694	0.773084
	C13583	C	0.892044	0.253465	0.777662
	C13584	C	0.923896	0.753192	0.849360
	C13585	C	0.916900	0.814441	0.845910
	C13586	C	0.916853	0.692035	0.845880
	C13587	C	0.923798	0.252856	0.849364
	C13588	C	0.916827	0.314207	0.845883
	C13589	C	0.916808	0.191616	0.845891
	C13590	C	0.890043	0.191547	0.782033
	C13591	C	0.965625	0.191286	0.776517
	C13592	C	0.965570	0.314074	0.776540
	C13593	C	0.889982	0.315119	0.782078
	C13594	C	0.986369	0.252552	0.786797
	C13595	C	0.966066	0.043351	0.868905
	C13596	C	0.915131	0.043907	0.754640
	C13597	C	0.914412	0.963156	0.753453
	C13598	C	0.966122	0.962391	0.868893
	C13599	C	0.915190	0.962977	0.754634
	N13600	N	0.851678	0.070370	0.816590
	N13601	N	0.851628	0.935785	0.816589
	N13602	N	0.851842	0.435886	0.816582
	N13603	N	0.851826	0.570374	0.816612
	N13604	N	0.968433	0.435853	0.868289
	N13605	N	0.968418	0.570377	0.868325
	N13606	N	0.968247	0.070238	0.868337
	N13607	N	0.968280	0.935726	0.868320
	O13608	O	0.988752	0.694296	0.924140
	O13609	O	0.988832	0.811125	0.924116
	O13610	O	0.922344	0.694022	0.941815
	O13611	O	0.922632	0.810845	0.941841
	O13612	O	0.922487	0.194925	0.941823
	O13613	O	0.922321	0.311687	0.941859
	O13614	O	0.920641	0.694847	0.920123
	O13615	O	0.920569	0.811286	0.920173
	O13616	O	0.920664	0.195247	0.920158
	O13617	O	0.920709	0.311592	0.920190
	O13618	O	0.988354	0.694311	0.944782
	O13619	O	0.988222	0.811200	0.944772
	O13620	O	0.987888	0.195226	0.944702
	O13621	O	0.988582	0.312012	0.944819
	O13622	O	0.988900	0.194800	0.924062
	O13623	O	0.988753	0.311458	0.924093
	O13624	O	0.985471	0.694854	0.879410
	O13625	O	0.947605	0.694424	0.877752
	O13626	O	0.963957	0.694284	0.987763
	O13627	O	0.963892	0.811082	0.987767
	O13628	O	0.926121	0.694368	0.986570
	O13629	O	0.926136	0.811102	0.986549
	O13630	O	0.947635	0.811216	0.877766
	O13631	O	0.985436	0.811489	0.879373
	O13632	O	0.985488	0.194534	0.879362
	O13633	O	0.947532	0.194717	0.877742
	O13634	O	0.964109	0.195193	0.987774
	O13635	O	0.963951	0.311741	0.987753
	O13636	O	0.926256	0.194083	0.986532
	O13637	O	0.925953	0.310796	0.986594
	O13638	O	0.947559	0.311524	0.877724
	O13639	O	0.985425	0.311356	0.879347
	H13640	H	0.923979	0.642484	0.956212
	H13641	H	0.924091	0.862227	0.956214
	H13642	H	0.924153	0.143413	0.956135
	H13643	H	0.923538	0.362720	0.956231
	H13644	H	0.927877	0.862503	0.906392
	H13645	H	0.928477	0.643547	0.906437
	H13646	H	0.928231	0.362751	0.906383
	H13647	H	0.927910	0.144652	0.906353
	H13648	H	1.012045	0.064620	0.934211
	H13649	H	1.008812	0.064617	0.932695
	H13650	H	1.008906	0.941244	0.932729
	H13651	H	1.012024	0.941144	0.934260
	H13652	H	1.010354	0.064302	0.936849
	H13653	H	1.010434	0.941292	0.936876
	H13654	H	0.915068	0.065065	0.932675
	H13655	H	0.915062	0.941330	0.932662
	H13656	H	0.914578	0.064737	0.928823
	H13657	H	0.914565	0.941059	0.928829
	H13658	H	0.903805	0.064094	0.926238
	H13659	H	0.903823	0.941379	0.926285
	H13660	H	0.910860	0.441509	0.930269
	H13661	H	0.907849	0.441093	0.928512
	H13662	H	0.908298	0.441602	0.933011
	H13663	H	1.017038	0.440934	0.934226
	H13664	H	1.012373	0.441311	0.938784
	H13665	H	1.003756	0.441419	0.938991
	H13666	H	0.907995	0.564339	0.928510
	H13667	H	0.910864	0.564774	0.930279
	H13668	H	1.003715	0.564831	0.939018
	H13669	H	1.012214	0.564508	0.938800
	H13670	H	1.017064	0.564758	0.934272
	H13671	H	0.908255	0.564856	0.933001
	H13672	H	0.980203	0.642779	0.958521
	H13673	H	0.980254	0.862268	0.958574
	H13674	H	0.980140	0.144164	0.958496
	H13675	H	0.980451	0.363462	0.958540
	H13676	H	0.937020	0.643406	0.891016
	H13677	H	0.986966	0.643250	0.893774
	H13678	H	0.986699	0.862900	0.893754
	H13679	H	0.936478	0.862379	0.890976
	H13680	H	0.986224	0.643023	0.909795
	H13681	H	0.985915	0.862867	0.909765
	H13682	H	0.973201	0.642680	0.974115
	H13683	H	0.973276	0.862243	0.974183
	H13684	H	0.976725	0.441498	0.870725
	H13685	H	0.958303	0.441614	1.002640
	H13686	H	0.966297	0.441316	0.872512
	H13687	H	0.959612	0.441481	0.870120
	H13688	H	0.947092	0.441194	0.989553
	H13689	H	0.959718	0.441059	0.993552
	H13690	H	0.958307	0.564994	1.002632
	H13691	H	0.976709	0.564897	0.870788
	H13692	H	0.959692	0.564773	0.993540
	H13693	H	0.947033	0.564242	0.989536
	H13694	H	0.959615	0.564465	0.870177
	H13695	H	0.966178	0.564518	0.872542
	H13696	H	0.973016	0.143971	0.974059
	H13697	H	0.973300	0.363528	0.974128
	H13698	H	0.969630	0.065082	0.866780
	H13699	H	0.966429	0.064078	0.866794
	H13700	H	0.972092	0.065194	0.868488
	H13701	H	0.923402	0.862390	0.972201
	H13702	H	0.923284	0.642441	0.972206
	H13703	H	0.923051	0.362420	0.972247
	H13704	H	0.923637	0.142808	0.972141
	H13705	H	0.936402	0.144591	0.890920
	H13706	H	0.987108	0.143116	0.893744
	H13707	H	0.986811	0.362746	0.893701
	H13708	H	0.936673	0.362751	0.890981
	H13709	H	0.986389	0.143244	0.909727
	H13710	H	0.986147	0.363035	0.909710
	H13711	H	0.942923	0.064806	0.997025
	H13712	H	0.942900	0.064439	0.997632
	H13713	H	0.944600	0.064274	0.998100
	H13714	H	0.966378	0.941175	0.866829
	H13715	H	0.969685	0.941332	0.866788
	H13716	H	0.972083	0.941308	0.868435
	H13717	H	0.942857	0.940993	0.997019
	H13718	H	0.942803	0.940854	0.997640
	H13719	H	0.944423	0.941302	0.998101
	Zn13720	Zn	0.905090	0.680321	0.930770
	Zn13721	Zn	0.905240	0.825297	0.930818
	Zn13722	Zn	0.905149	0.180309	0.930767
	Zn13723	Zn	0.905089	0.325462	0.930778
	Zn13724	Zn	0.944256	0.680703	0.997368
	Zn13725	Zn	0.944246	0.825182	0.997364
	Zn13726	Zn	0.944350	0.180580	0.997369
	Zn13727	Zn	0.944232	0.325359	0.997345
	C13728	C	0.987464	0.752701	0.920408
	C13729	C	0.923439	0.752345	0.945574
	C13730	C	0.924284	0.752413	0.955229
	C13731	C	0.923857	0.690245	0.959762
	C13732	C	0.923924	0.814454	0.959772
	C13733	C	0.923343	0.253270	0.945587
	C13734	C	0.924245	0.253121	0.955247
	C13735	C	0.924012	0.190897	0.959737
	C13736	C	0.923677	0.315055	0.959796
	C13737	C	0.922755	0.753168	0.916584
	C13738	C	0.927906	0.753086	0.907345
	C13739	C	0.929897	0.815022	0.902971
	C13740	C	0.930209	0.691044	0.902987
	C13741	C	0.922792	0.253473	0.916592
	C13742	C	0.927913	0.253589	0.907343
	C13743	C	0.930048	0.315324	0.902967
	C13744	C	0.929878	0.191923	0.902931
	C13745	C	1.009507	0.043441	0.933859
	C13746	C	1.009539	0.962399	0.933865
	C13747	C	0.912394	0.043523	0.930775
	C13748	C	0.912371	0.962449	0.930777
	C13749	C	0.901621	0.043069	0.928177
	C13750	C	0.901618	0.962509	0.928202
	C13751	C	0.908318	0.462553	0.929754
	C13752	C	1.012563	0.462340	0.933259
	C13753	C	1.007767	0.462553	0.937846
	C13754	C	0.908349	0.543212	0.929736
	C13755	C	1.007722	0.543208	0.937860
	C13756	C	1.012539	0.543441	0.933267
	C13757	C	0.985656	0.752725	0.948279
	C13758	C	0.985663	0.253620	0.948268
	C13759	C	0.980415	0.752600	0.957570
	C13760	C	0.978658	0.690478	0.961999
	C13761	C	0.978672	0.814592	0.962035
	C13762	C	0.980508	0.253812	0.957564
	C13763	C	0.978655	0.191777	0.961982
	C13764	C	0.978859	0.315835	0.962021
	C13765	C	0.987533	0.253195	0.920361
	C13766	C	0.986353	0.753238	0.883142
	C13767	C	0.944258	0.752810	0.881102
	C13768	C	0.924745	0.752677	0.982842
	C13769	C	0.986245	0.690779	0.906231
	C13770	C	0.986124	0.815049	0.906210
	C13771	C	0.987166	0.753036	0.892806
	C13772	C	0.937202	0.752921	0.890094
	C13773	C	0.934852	0.690921	0.894431
	C13774	C	0.986814	0.690926	0.897342
	C13775	C	0.986679	0.815181	0.897326
	C13776	C	0.934545	0.814923	0.894417
	C13777	C	0.985942	0.752840	0.910752
	C13778	C	0.966893	0.752709	0.984321
	C13779	C	0.974851	0.690475	0.970671
	C13780	C	0.974879	0.814570	0.970708
	C13781	C	0.972853	0.752560	0.975120
	C13782	C	0.949506	0.462717	1.002218
	C13783	C	0.964398	0.462655	0.870541
	C13784	C	0.950957	0.462600	0.993061
	C13785	C	0.949518	0.543330	1.002238
	C13786	C	0.950940	0.543327	0.993074
	C13787	C	0.964351	0.543425	0.870555
	C13788	C	0.966922	0.253478	0.984285
	C13789	C	0.974856	0.191702	0.970648
	C13790	C	0.975018	0.315805	0.970685
	C13791	C	0.972960	0.253702	0.975103
	C13792	C	0.968134	0.043323	0.867190
	C13793	C	0.986360	0.252945	0.883098
	C13794	C	0.944167	0.253170	0.881066
	C13795	C	0.924807	0.252502	0.982845
	C13796	C	0.986362	0.190973	0.906189
	C13797	C	0.986215	0.315271	0.906163
	C13798	C	0.987249	0.252900	0.892773
	C13799	C	0.937063	0.253526	0.890058
	C13800	C	0.923121	0.752521	0.973184
	C13801	C	0.923415	0.814589	0.968650
	C13802	C	0.923349	0.690274	0.968645
	C13803	C	0.923248	0.252598	0.973195
	C13804	C	0.923240	0.314796	0.968681
	C13805	C	0.923579	0.190701	0.968621
	C13806	C	0.934493	0.191806	0.894367
	C13807	C	0.986904	0.190872	0.897307
	C13808	C	0.986763	0.315128	0.897281
	C13809	C	0.934640	0.315314	0.894405
	C13810	C	0.985995	0.253151	0.910713
	C13811	C	0.943274	0.043390	0.997334
	C13812	C	0.970601	0.043466	0.868883
	C13813	C	0.968133	0.962608	0.867194
	C13814	C	0.943244	0.962365	0.997341
	C13815	C	0.970580	0.962667	0.868866
	N13816	N	0.905422	0.070175	0.930809
	N13817	N	0.905437	0.935561	0.930840
	N13818	N	0.905213	0.435761	0.930759
	N13819	N	0.905271	0.570316	0.930740
	N13820	N	0.944186	0.435718	0.997310
	N13821	N	0.944196	0.570291	0.997331
	N13822	N	0.944350	0.070058	0.997362
	N13823	N	0.944318	0.935429	0.997373
