data_Molecule from HDF5

_cell_length_a		73.230124
_cell_length_b		19.186298
_cell_length_c		152.952758
_cell_angle_alpha	89.999869
_cell_angle_beta	93.876770
_cell_angle_gamma	89.994107
_symmetry_space_group_name_H-M	'P 1'
_symmetry_Int_Tables_number		1

loop_
	_symmetry_equiv_pos_as_xyz
	x,y,z

loop_
	_atom_site_label
	_atom_site_type_symbol
	_atom_site_fract_x
	_atom_site_fract_y
	_atom_site_fract_z
	O0	O	0.077428	0.694356	0.056867
	O1	O	0.077708	0.811317	0.056812
	O2	O	0.014301	0.692880	0.073760
	O3	O	0.014722	0.809700	0.073811
	O4	O	0.014843	0.195412	0.073752
	O5	O	0.014317	0.312199	0.073714
	O6	O	0.015608	0.693689	0.052867
	O7	O	0.016030	0.810402	0.052969
	O8	O	0.015944	0.195108	0.052919
	O9	O	0.015693	0.311861	0.052872
	O10	O	0.078911	0.695119	0.079049
	O11	O	0.079212	0.811566	0.079041
	O12	O	0.079046	0.194264	0.079031
	O13	O	0.079100	0.310519	0.079039
	O14	O	0.077738	0.194034	0.056843
	O15	O	0.077447	0.310901	0.056897
	O16	O	0.076546	0.693055	0.011228
	O17	O	0.041133	0.695264	0.009587
	O18	O	0.050715	0.694622	0.121541
	O19	O	0.050915	0.811422	0.121600
	O20	O	0.015306	0.693799	0.119379
	O21	O	0.015396	0.810684	0.119363
	O22	O	0.041662	0.811926	0.009770
	O23	O	0.076976	0.809737	0.011217
	O24	O	0.076972	0.195437	0.011290
	O25	O	0.041519	0.193430	0.009729
	O26	O	0.050890	0.194648	0.121587
	O27	O	0.050744	0.311278	0.121590
	O28	O	0.015535	0.194375	0.119333
	O29	O	0.015348	0.311125	0.119399
	O30	O	0.041156	0.310104	0.009548
	O31	O	0.076446	0.312293	0.011217
	H32	H	0.016357	0.641482	0.088494
	H33	H	0.016548	0.861349	0.088413
	H34	H	0.016730	0.144013	0.088356
	H35	H	0.016047	0.363549	0.088434
	H36	H	0.025311	0.862236	0.039291
	H37	H	0.024282	0.642322	0.039034
	H38	H	0.024224	0.363512	0.038989
	H39	H	0.025313	0.143281	0.039254
	H40	H	0.089725	0.064496	0.070185
	H41	H	0.094225	0.063923	0.071014
	H42	H	0.094174	0.941025	0.071011
	H43	H	0.089802	0.941168	0.070201
	H44	H	0.088433	0.064600	0.067085
	H45	H	0.088462	0.940889	0.067068
	H46	H	-0.003610	0.064586	0.062266
	H47	H	-0.003614	0.940660	0.062260
	H48	H	-0.003719	0.063901	0.062911
	H49	H	-0.003736	0.941306	0.062921
	H50	H	-0.002118	0.063945	0.063419
	H51	H	-0.002166	0.941118	0.063445
	H52	H	-0.001541	0.440692	0.065622
	H53	H	0.003028	0.440300	0.064257
	H54	H	-0.008394	0.441134	0.063879
	H55	H	0.093621	0.440846	0.066886
	H56	H	0.096443	0.441215	0.068092
	H57	H	0.095929	0.440829	0.069364
	H58	H	0.002995	0.564509	0.064242
	H59	H	-0.001474	0.563762	0.065646
	H60	H	0.095900	0.564688	0.069321
	H61	H	0.096402	0.564013	0.068106
	H62	H	0.093694	0.564115	0.066912
	H63	H	-0.008369	0.563663	0.063921
	H64	H	0.071159	0.643928	0.092895
	H65	H	0.071365	0.862973	0.092962
	H66	H	0.071276	0.143437	0.092914
	H67	H	0.071229	0.361744	0.092885
	H68	H	0.031783	0.642976	0.023296
	H69	H	0.078348	0.641839	0.025964
	H70	H	0.079230	0.861541	0.025881
	H71	H	0.032868	0.862986	0.023605
	H72	H	0.076777	0.642616	0.042243
	H73	H	0.077591	0.862306	0.042146
	H74	H	0.062132	0.643691	0.108367
	H75	H	0.062286	0.862488	0.108443
	H76	H	0.059585	0.440898	-0.005420
	H77	H	0.027853	0.440710	0.127419
	H78	H	0.070213	0.441006	-0.001549
	H79	H	0.069386	0.441051	0.002952
	H80	H	0.026702	0.440684	0.133778
	H81	H	0.023362	0.440646	0.130975
	H82	H	0.027779	0.564222	0.127411
	H83	H	0.059566	0.564334	-0.005432
	H84	H	0.023386	0.564342	0.130990
	H85	H	0.026658	0.564445	0.133763
	H86	H	0.069304	0.564296	0.002969
	H87	H	0.070099	0.564323	-0.001520
	H88	H	0.062126	0.143700	0.108371
	H89	H	0.062086	0.362113	0.108355
	H90	H	0.057913	0.064073	0.003169
	H91	H	0.063537	0.063740	0.003003
	H92	H	0.053106	0.064450	0.000019
	H93	H	0.015017	0.861758	0.104707
	H94	H	0.014801	0.642184	0.104785
	H95	H	0.014506	0.362871	0.104717
	H96	H	0.015098	0.143382	0.104631
	H97	H	0.032835	0.142752	0.023547
	H98	H	0.079344	0.143869	0.025903
	H99	H	0.078076	0.363703	0.025923
	H100	H	0.031768	0.362731	0.023247
	H101	H	0.077714	0.143186	0.042184
	H102	H	0.076521	0.363057	0.042207
	H103	H	0.031626	0.063843	0.134076
	H104	H	0.036562	0.064159	0.132995
	H105	H	0.036977	0.064277	0.129361
	H106	H	0.063613	0.940710	0.003006
	H107	H	0.057884	0.940464	0.003169
	H108	H	0.053155	0.940478	0.000020
	H109	H	0.031610	0.940621	0.134053
	H110	H	0.036605	0.941076	0.132966
	H111	H	0.036897	0.940486	0.129344
	Zn112	Zn	-0.002685	0.680170	0.062545
	Zn113	Zn	-0.002284	0.824576	0.062630
	Zn114	Zn	-0.002326	0.180673	0.062597
	Zn115	Zn	-0.002766	0.325047	0.062516
	Zn116	Zn	0.031307	0.680060	0.130873
	Zn117	Zn	0.031346	0.824924	0.130856
	Zn118	Zn	0.031402	0.180109	0.130894
	Zn119	Zn	0.031226	0.324828	0.130877
	C120	C	0.076971	0.752721	0.053013
	C121	C	0.015611	0.751151	0.077597
	C122	C	0.016648	0.751351	0.087459
	C123	C	0.016108	0.689298	0.092088
	C124	C	0.016242	0.813739	0.092051
	C125	C	0.015643	0.253899	0.077554
	C126	C	0.016614	0.253849	0.087429
	C127	C	0.016283	0.191544	0.092003
	C128	C	0.015921	0.315731	0.092050
	C129	C	0.018658	0.752083	0.049427
	C130	C	0.024512	0.752173	0.040154
	C131	C	0.026815	0.814534	0.035751
	C132	C	0.026214	0.690202	0.035599
	C133	C	0.018694	0.253534	0.049405
	C134	C	0.024469	0.253537	0.040116
	C135	C	0.026228	0.315515	0.035563
	C136	C	0.026842	0.191085	0.035727
	C137	C	0.092381	0.042966	0.069984
	C138	C	0.092385	0.962405	0.069994
	C139	C	-0.003265	0.042935	0.062612
	C140	C	-0.003264	0.962164	0.062610
	C141	C	-0.001711	0.043122	0.063145
	C142	C	-0.001686	0.962132	0.063145
	C143	C	-0.000188	0.461925	0.064301
	C144	C	0.092601	0.462088	0.067387
	C145	C	0.095382	0.462242	0.068631
	C146	C	-0.000150	0.542893	0.064305
	C147	C	0.095360	0.543039	0.068641
	C148	C	0.092602	0.543172	0.067398
	C149	C	0.076876	0.753451	0.082653
	C150	C	0.076876	0.252395	0.082625
	C151	C	0.071444	0.753462	0.091943
	C152	C	0.069173	0.691437	0.096340
	C153	C	0.069268	0.815310	0.096382
	C154	C	0.071478	0.252591	0.091922
	C155	C	0.069205	0.190900	0.096346
	C156	C	0.069184	0.314410	0.096330
	C157	C	0.076909	0.252601	0.053041
	C158	C	0.077874	0.751386	0.015044
	C159	C	0.038599	0.753441	0.013186
	C160	C	0.014730	0.752191	0.115544
	C161	C	0.077282	0.690138	0.038593
	C162	C	0.077731	0.814425	0.038544
	C163	C	0.078941	0.751702	0.024920
	C164	C	0.032746	0.752906	0.022468
	C165	C	0.030300	0.690573	0.026853
	C166	C	0.078276	0.689755	0.029562
	C167	C	0.078746	0.814007	0.029517
	C168	C	0.030904	0.814914	0.027009
	C169	C	0.076814	0.752457	0.043159
	C170	C	0.054231	0.753023	0.118268
	C171	C	0.064220	0.691201	0.104938
	C172	C	0.064306	0.815077	0.104980
	C173	C	0.061548	0.753006	0.109294
	C174	C	0.031069	0.462065	0.128405
	C175	C	0.067077	0.462179	0.000498
	C176	C	0.026608	0.461999	0.131984
	C177	C	0.031034	0.542926	0.128397
	C178	C	0.026633	0.543045	0.131980
	C179	C	0.067051	0.542914	0.000517
	C180	C	0.054210	0.253043	0.118260
	C181	C	0.064252	0.191104	0.104943
	C182	C	0.064207	0.314641	0.104928
	C183	C	0.061519	0.252919	0.109287
	C184	C	0.060524	0.042664	0.002311
	C185	C	0.077835	0.254038	0.015057
	C186	C	0.038487	0.251995	0.013125
	C187	C	0.014754	0.252893	0.115533
	C188	C	0.077733	0.191043	0.038576
	C189	C	0.077030	0.315430	0.038585
	C190	C	0.078836	0.253841	0.024936
	C191	C	0.032701	0.252673	0.022423
	C192	C	0.014541	0.752039	0.105689
	C193	C	0.015273	0.814057	0.101084
	C194	C	0.015137	0.689723	0.101121
	C195	C	0.014466	0.253172	0.105678
	C196	C	0.014952	0.315322	0.101081
	C197	C	0.015299	0.191241	0.101037
	C198	C	0.030926	0.190692	0.026987
	C199	C	0.078752	0.191477	0.029543
	C200	C	0.078032	0.315866	0.029550
	C201	C	0.030340	0.315108	0.026818
	C202	C	0.076724	0.253039	0.043177
	C203	C	0.033316	0.042769	0.132805
	C204	C	0.055734	0.043020	-0.000850
	C205	C	0.060555	0.961956	0.002301
	C206	C	0.033310	0.962263	0.132809
	C207	C	0.055744	0.962231	-0.000866
	N208	N	-0.002180	0.069913	0.062669
	N209	N	-0.002174	0.935197	0.062673
	N210	N	-0.002756	0.435294	0.062518
	N211	N	-0.002701	0.569879	0.062537
	N212	N	0.031067	0.435107	0.130869
	N213	N	0.031044	0.569713	0.130852
	N214	N	0.031256	0.070028	0.130877
	N215	N	0.031223	0.935388	0.130881
	O216	O	0.121192	0.694327	0.174354
	O217	O	0.121073	0.810699	0.174405
	O218	O	-0.009305	0.694516	0.202707
	O219	O	-0.009417	0.810669	0.202727
	O220	O	-0.009398	0.194249	0.202677
	O221	O	-0.009356	0.310346	0.202739
	O222	O	-0.011596	0.694379	0.184096
	O223	O	-0.011692	0.811136	0.184109
	O224	O	-0.011695	0.194018	0.184061
	O225	O	-0.011602	0.310757	0.184080
	O226	O	0.123452	0.694070	0.192982
	O227	O	0.123529	0.810893	0.193002
	O228	O	0.123668	0.194994	0.193061
	O229	O	0.123754	0.311718	0.193087
	O230	O	0.120956	0.194940	0.174447
	O231	O	0.121217	0.311239	0.174352
	O232	O	0.053129	0.694347	0.140132
	O233	O	0.016856	0.694934	0.141604
	O234	O	0.094890	0.693980	0.235489
	O235	O	0.094987	0.810503	0.235503
	O236	O	0.058582	0.694661	0.236993
	O237	O	0.058810	0.810789	0.236872
	O238	O	0.016883	0.811368	0.141615
	O239	O	0.053160	0.810562	0.140172
	O240	O	0.052948	0.194879	0.140248
	O241	O	0.017132	0.193999	0.141642
	O242	O	0.095053	0.195344	0.235526
	O243	O	0.094963	0.311794	0.235496
	O244	O	0.058710	0.194261	0.236900
	O245	O	0.058727	0.310387	0.236885
	O246	O	0.016755	0.310505	0.141577
	O247	O	0.053023	0.311086	0.140198
	H248	H	0.012499	0.644546	0.213660
	H249	H	0.012570	0.860921	0.213619
	H250	H	0.012626	0.143932	0.213561
	H251	H	0.012410	0.359918	0.213696
	H252	H	-0.000229	0.862519	0.170946
	H253	H	-0.000318	0.643533	0.170886
	H254	H	-0.000430	0.361519	0.170899
	H255	H	-0.000142	0.142921	0.170942
	H256	H	0.141131	0.064608	0.178015
	H257	H	0.132749	0.064139	0.180352
	H258	H	0.132805	0.940869	0.180394
	H259	H	0.141052	0.940952	0.177977
	H260	H	0.153255	0.065082	0.181351
	H261	H	0.153399	0.941466	0.181354
	H262	H	-0.034899	0.064527	0.193823
	H263	H	-0.034931	0.940577	0.193801
	H264	H	-0.032717	0.064179	0.195028
	H265	H	-0.032825	0.940870	0.194990
	H266	H	-0.028448	0.063954	0.194737
	H267	H	-0.028536	0.940976	0.194758
	H268	H	-0.032975	0.441114	0.191204
	H269	H	-0.035781	0.441398	0.192518
	H270	H	-0.027490	0.440901	0.191962
	H271	H	0.139601	0.441097	0.179538
	H272	H	0.149764	0.441374	0.181065
	H273	H	0.151827	0.441099	0.184611
	H274	H	-0.035732	0.564366	0.192528
	H275	H	-0.032938	0.564554	0.191243
	H276	H	0.151839	0.564308	0.184574
	H277	H	0.149704	0.564667	0.181066
	H278	H	0.139532	0.564406	0.179524
	H279	H	-0.027503	0.564476	0.192015
	H280	H	0.112198	0.642797	0.206186
	H281	H	0.111850	0.861810	0.206108
	H282	H	0.112212	0.144190	0.206216
	H283	H	0.112341	0.362699	0.206216
	H284	H	0.008777	0.643569	0.155430
	H285	H	0.075126	0.644319	0.151025
	H286	H	0.074904	0.860538	0.151167
	H287	H	0.008924	0.862650	0.155464
	H288	H	0.099325	0.644128	0.163398
	H289	H	0.099075	0.860511	0.163548
	H290	H	0.102977	0.642832	0.221623
	H291	H	0.102672	0.861749	0.221580
	H292	H	0.034349	0.440653	0.127638
	H293	H	0.072156	0.441175	0.252774
	H294	H	0.038868	0.441244	0.131420
	H295	H	0.035644	0.441041	0.134072
	H296	H	0.096820	0.440752	0.246746
	H297	H	0.091003	0.441204	0.252545
	H298	H	0.072201	0.564124	0.252750
	H299	H	0.034291	0.563872	0.127622
	H300	H	0.090976	0.564174	0.252578
	H301	H	0.096846	0.564928	0.246807
	H302	H	0.035669	0.564284	0.134009
	H303	H	0.038889	0.563891	0.131390
	H304	H	0.102882	0.144301	0.221644
	H305	H	0.103008	0.362747	0.221667
	H306	H	0.025406	0.064354	0.129208
	H307	H	0.025155	0.064551	0.131842
	H308	H	0.032224	0.064253	0.127706
	H309	H	0.036808	0.860859	0.225985
	H310	H	0.036707	0.644438	0.226055
	H311	H	0.036656	0.360046	0.226020
	H312	H	0.036833	0.143848	0.225930
	H313	H	0.009119	0.142898	0.155499
	H314	H	0.074798	0.144734	0.151208
	H315	H	0.075133	0.361716	0.151083
	H316	H	0.008761	0.361920	0.155454
	H317	H	0.099062	0.144922	0.163570
	H318	H	0.099353	0.361380	0.163414
	H319	H	0.075253	0.064921	0.247186
	H320	H	0.078899	0.064578	0.248846
	H321	H	0.085385	0.064903	0.247954
	H322	H	0.025081	0.940796	0.131867
	H323	H	0.025346	0.941007	0.129219
	H324	H	0.032162	0.940690	0.127718
	H325	H	0.075257	0.941605	0.247170
	H326	H	0.079043	0.941186	0.248854
	H327	H	0.085394	0.940769	0.247914
	Zn328	Zn	-0.031057	0.680068	0.193408
	Zn329	Zn	-0.031130	0.825245	0.193426
	Zn330	Zn	-0.031152	0.180071	0.193374
	Zn331	Zn	-0.031009	0.325237	0.193410
	Zn332	Zn	0.080404	0.680041	0.246222
	Zn333	Zn	0.080522	0.825645	0.246188
	Zn334	Zn	0.080563	0.180372	0.246207
	Zn335	Zn	0.080390	0.325557	0.246198
	C336	C	0.115343	0.752486	0.171594
	C337	C	-0.003600	0.752655	0.205520
	C338	C	0.011106	0.752711	0.212903
	C339	C	0.017877	0.691537	0.216424
	C340	C	0.017926	0.813866	0.216388
	C341	C	-0.003568	0.252180	0.205484
	C342	C	0.011158	0.252012	0.212857
	C343	C	0.018002	0.190743	0.216335
	C344	C	0.017891	0.313119	0.216406
	C345	C	-0.008242	0.752864	0.180781
	C346	C	-0.000815	0.753054	0.171841
	C347	C	0.001885	0.815059	0.167496
	C348	C	0.001821	0.691052	0.167475
	C349	C	-0.008213	0.252376	0.180762
	C350	C	-0.000829	0.252304	0.171812
	C351	C	0.001789	0.314225	0.167472
	C352	C	0.001960	0.190460	0.167489
	C353	C	0.138547	0.043254	0.180359
	C354	C	0.138561	0.962393	0.180344
	C355	C	-0.033204	0.043172	0.194148
	C356	C	-0.033225	0.962177	0.194133
	C357	C	-0.028864	0.042802	0.193851
	C358	C	-0.028908	0.962092	0.193868
	C359	C	-0.033533	0.462542	0.192267
	C360	C	0.138592	0.462500	0.181542
	C361	C	0.148775	0.462486	0.183048
	C362	C	-0.033515	0.543244	0.192291
	C363	C	0.148740	0.543299	0.183050
	C364	C	0.138573	0.543134	0.181558
	C365	C	0.120064	0.752428	0.196298
	C366	C	0.120246	0.253376	0.196372
	C367	C	0.112687	0.752355	0.205251
	C368	C	0.110043	0.690354	0.209604
	C369	C	0.109853	0.814298	0.209572
	C370	C	0.112770	0.253522	0.205289
	C371	C	0.110039	0.191672	0.209627
	C372	C	0.110124	0.315306	0.209639
	C373	C	0.115311	0.253129	0.171607
	C374	C	0.058894	0.752386	0.142965
	C375	C	0.014648	0.753157	0.145195
	C376	C	0.052923	0.752683	0.234137
	C377	C	0.093835	0.691125	0.160693
	C378	C	0.093706	0.813619	0.160773
	C379	C	0.073571	0.752388	0.150349
	C380	C	0.009135	0.753122	0.154480
	C381	C	0.006807	0.691079	0.158880
	C382	C	0.080453	0.691180	0.153809
	C383	C	0.080328	0.813527	0.153898
	C384	C	0.006886	0.815053	0.158901
	C385	C	0.100567	0.752388	0.164251
	C386	C	0.097135	0.752267	0.231893
	C387	C	0.104982	0.690388	0.218187
	C388	C	0.104797	0.814257	0.218157
	C389	C	0.102610	0.752327	0.222591
	C390	C	0.071467	0.462425	0.248943
	C391	C	0.035600	0.462153	0.132244
	C392	C	0.090407	0.462300	0.248749
	C393	C	0.071498	0.543191	0.248943
	C394	C	0.090405	0.543227	0.248780
	C395	C	0.035603	0.542764	0.132229
	C396	C	0.097218	0.253571	0.231915
	C397	C	0.104958	0.191650	0.218206
	C398	C	0.105042	0.315333	0.218217
	C399	C	0.102664	0.253547	0.222616
	C400	C	0.026823	0.043113	0.130597
	C401	C	0.058796	0.253036	0.143008
	C402	C	0.014719	0.252287	0.145204
	C403	C	0.052916	0.252279	0.234093
	C404	C	0.093701	0.191831	0.160774
	C405	C	0.093867	0.314451	0.160706
	C406	C	0.073525	0.253195	0.150370
	C407	C	0.009274	0.252436	0.154495
	C408	C	0.038153	0.752665	0.226791
	C409	C	0.031346	0.813827	0.223261
	C410	C	0.031287	0.691461	0.223303
	C411	C	0.038203	0.252060	0.226729
	C412	C	0.031284	0.313068	0.223275
	C413	C	0.031410	0.190843	0.223210
	C414	C	0.007029	0.190504	0.158911
	C415	C	0.080254	0.191797	0.153914
	C416	C	0.080443	0.314512	0.153842
	C417	C	0.006832	0.314360	0.158891
	C418	C	0.100598	0.253108	0.164237
	C419	C	0.078067	0.043306	0.247549
	C420	C	0.033681	0.043034	0.129135
	C421	C	0.026790	0.962158	0.130612
	C422	C	0.078115	0.962617	0.247542
	C423	C	0.033639	0.961981	0.129131
	N424	N	-0.031272	0.070018	0.193389
	N425	N	-0.031292	0.935481	0.193407
	N426	N	-0.031182	0.435330	0.193421
	N427	N	-0.031239	0.569854	0.193433
	N428	N	0.080460	0.435569	0.246220
	N429	N	0.080517	0.570021	0.246237
	N430	N	0.080646	0.070122	0.246216
	N431	N	0.080641	0.935586	0.246200
	O432	O	0.094417	0.694302	0.303173
	O433	O	0.094260	0.811047	0.303189
	O434	O	0.034151	0.694725	0.320113
	O435	O	0.034142	0.811469	0.320124
	O436	O	0.034057	0.194281	0.320119
	O437	O	0.034235	0.311258	0.320101
	O438	O	0.032446	0.695170	0.298043
	O439	O	0.032657	0.811571	0.298104
	O440	O	0.032490	0.194440	0.298039
	O441	O	0.032257	0.310943	0.297977
	O442	O	0.095893	0.694220	0.325267
	O443	O	0.095806	0.810583	0.325241
	O444	O	0.096001	0.194349	0.325242
	O445	O	0.095999	0.310570	0.325265
	O446	O	0.094274	0.194543	0.303198
	O447	O	0.094358	0.311413	0.303171
	O448	O	0.096703	0.694355	0.257641
	O449	O	0.061126	0.695016	0.255570
	O450	O	0.067242	0.694443	0.367778
	O451	O	0.067375	0.811133	0.367738
	O452	O	0.031586	0.694522	0.365624
	O453	O	0.031649	0.811427	0.365637
	O454	O	0.061155	0.811855	0.255581
	O455	O	0.096544	0.811085	0.257639
	O456	O	0.096677	0.194736	0.257654
	O457	O	0.061120	0.193845	0.255547
	O458	O	0.066981	0.194151	0.367659
	O459	O	0.067190	0.311164	0.367725
	O460	O	0.031573	0.194817	0.365683
	O461	O	0.031646	0.311484	0.365632
	O462	O	0.061149	0.310621	0.255559
	O463	O	0.096705	0.311550	0.257645
	H464	H	0.034299	0.643443	0.334778
	H465	H	0.034209	0.863109	0.334820
	H466	H	0.033979	0.143043	0.334828
	H467	H	0.034293	0.362557	0.334761
	H468	H	0.040746	0.862842	0.284242
	H469	H	0.040226	0.643978	0.284146
	H470	H	0.040249	0.361998	0.284122
	H471	H	0.040553	0.143116	0.284241
	H472	H	0.110455	0.064913	0.317170
	H473	H	0.114517	0.064500	0.316402
	H474	H	0.114511	0.941533	0.316437
	H475	H	0.110274	0.941217	0.317192
	H476	H	0.105379	0.064305	0.315227
	H477	H	0.105303	0.941675	0.315203
	H478	H	0.009972	0.064764	0.309710
	H479	H	0.009979	0.941195	0.309711
	H480	H	0.014762	0.064921	0.312306
	H481	H	0.014944	0.941195	0.312304
	H482	H	0.024204	0.064738	0.311515
	H483	H	0.024150	0.941105	0.311484
	H484	H	0.026262	0.441387	0.311953
	H485	H	0.028050	0.441206	0.307932
	H486	H	0.014809	0.441378	0.313407
	H487	H	0.112800	0.441102	0.316480
	H488	H	0.107825	0.440879	0.316191
	H489	H	0.106171	0.440987	0.314592
	H490	H	0.028226	0.565121	0.307916
	H491	H	0.026361	0.565008	0.311942
	H492	H	0.106160	0.564557	0.314598
	H493	H	0.107822	0.564410	0.316190
	H494	H	0.112865	0.564387	0.316493
	H495	H	0.014922	0.564633	0.313415
	H496	H	0.087947	0.642810	0.339165
	H497	H	0.087528	0.861836	0.339012
	H498	H	0.087496	0.142963	0.339065
	H499	H	0.088078	0.361496	0.339131
	H500	H	0.049430	0.644089	0.268680
	H501	H	0.096825	0.642877	0.272344
	H502	H	0.096943	0.862016	0.272303
	H503	H	0.049913	0.862699	0.268772
	H504	H	0.094086	0.642957	0.288541
	H505	H	0.094242	0.862247	0.288517
	H506	H	0.078722	0.642953	0.354603
	H507	H	0.078287	0.861989	0.354465
	H508	H	0.064268	0.441216	0.247064
	H509	H	0.045774	0.440737	0.376929
	H510	H	0.072227	0.441431	0.239166
	H511	H	0.085909	0.440944	0.239011
	H512	H	0.048609	0.441104	0.378006
	H513	H	0.046938	0.441014	0.377958
	H514	H	0.045738	0.564544	0.376933
	H515	H	0.064345	0.564586	0.247094
	H516	H	0.046871	0.564781	0.377935
	H517	H	0.048603	0.564675	0.377975
	H518	H	0.086014	0.564696	0.239017
	H519	H	0.072266	0.564293	0.239188
	H520	H	0.078198	0.143145	0.354496
	H521	H	0.078712	0.361810	0.354542
	H522	H	0.081009	0.064108	0.243393
	H523	H	0.076444	0.064813	0.244088
	H524	H	0.086223	0.064558	0.245675
	H525	H	0.031559	0.862806	0.351017
	H526	H	0.031635	0.643417	0.350980
	H527	H	0.031659	0.362660	0.350984
	H528	H	0.031357	0.143462	0.351029
	H529	H	0.049939	0.142789	0.268801
	H530	H	0.096800	0.143493	0.272308
	H531	H	0.096704	0.363309	0.272311
	H532	H	0.049644	0.361774	0.268697
	H533	H	0.094117	0.143410	0.288511
	H534	H	0.094063	0.363112	0.288541
	H535	H	0.043779	0.064652	0.374199
	H536	H	0.040824	0.064623	0.376568
	H537	H	0.044975	0.064746	0.380028
	H538	H	0.076409	0.941232	0.244133
	H539	H	0.081071	0.941497	0.243408
	H540	H	0.086222	0.941504	0.245659
	H541	H	0.043859	0.940784	0.374228
	H542	H	0.040981	0.941092	0.376551
	H543	H	0.045063	0.941822	0.380038
	Zn544	Zn	0.017969	0.680358	0.308711
	Zn545	Zn	0.017851	0.825380	0.308723
	Zn546	Zn	0.017818	0.180304	0.308703
	Zn547	Zn	0.017791	0.325534	0.308723
	Zn548	Zn	0.047805	0.679994	0.377071
	Zn549	Zn	0.047996	0.825720	0.377045
	Zn550	Zn	0.047703	0.180219	0.377057
	Zn551	Zn	0.047902	0.325424	0.377093
	C552	C	0.093772	0.752737	0.299347
	C553	C	0.034720	0.753098	0.323957
	C554	C	0.034603	0.753282	0.333800
	C555	C	0.033707	0.691146	0.338374
	C556	C	0.033692	0.815328	0.338403
	C557	C	0.034663	0.252817	0.323941
	C558	C	0.034528	0.252864	0.333793
	C559	C	0.033557	0.190855	0.338419
	C560	C	0.033737	0.314928	0.338375
	C561	C	0.034741	0.753429	0.294475
	C562	C	0.040166	0.753493	0.285169
	C563	C	0.042649	0.815343	0.280785
	C564	C	0.042366	0.691558	0.280726
	C565	C	0.034645	0.252678	0.294418
	C566	C	0.040188	0.252616	0.285135
	C567	C	0.042417	0.314480	0.280708
	C568	C	0.042585	0.190589	0.280767
	C569	C	0.111906	0.043691	0.316190
	C570	C	0.111868	0.962613	0.316223
	C571	C	0.013846	0.043385	0.310395
	C572	C	0.013900	0.962380	0.310400
	C573	C	0.023262	0.043305	0.309614
	C574	C	0.023280	0.962420	0.309606
	C575	C	0.024752	0.462513	0.309615
	C576	C	0.112854	0.462194	0.315454
	C577	C	0.107872	0.462380	0.315191
	C578	C	0.024858	0.543616	0.309602
	C579	C	0.107872	0.543339	0.315183
	C580	C	0.112904	0.543245	0.315463
	C581	C	0.093600	0.752402	0.328843
	C582	C	0.093717	0.252407	0.328837
	C583	C	0.088100	0.752353	0.338130
	C584	C	0.085848	0.690387	0.342569
	C585	C	0.085619	0.814309	0.342495
	C586	C	0.088068	0.252214	0.338094
	C587	C	0.085569	0.190444	0.342495
	C588	C	0.085882	0.314084	0.342530
	C589	C	0.093734	0.252937	0.299356
	C590	C	0.097252	0.752692	0.261483
	C591	C	0.057672	0.753437	0.258877
	C592	C	0.031068	0.753016	0.361808
	C593	C	0.094670	0.690582	0.284940
	C594	C	0.094708	0.814516	0.284911
	C595	C	0.097170	0.752544	0.271339
	C596	C	0.050205	0.753438	0.267826
	C597	C	0.047366	0.691449	0.272131
	C598	C	0.096250	0.690519	0.275945
	C599	C	0.096309	0.814476	0.275921
	C600	C	0.047644	0.815350	0.272190
	C601	C	0.093814	0.752661	0.289517
	C602	C	0.070723	0.752685	0.364447
	C603	C	0.080831	0.690477	0.351158
	C604	C	0.080605	0.814375	0.351084
	C605	C	0.078061	0.752512	0.355476
	C606	C	0.046594	0.462472	0.376710
	C607	C	0.079473	0.462402	0.240962
	C608	C	0.047725	0.462350	0.377725
	C609	C	0.046556	0.543233	0.376707
	C610	C	0.047696	0.543298	0.377720
	C611	C	0.079516	0.543163	0.240962
	C612	C	0.070526	0.252680	0.364391
	C613	C	0.080473	0.190531	0.351072
	C614	C	0.080763	0.314297	0.351103
	C615	C	0.077918	0.252483	0.355428
	C616	C	0.079260	0.043407	0.244392
	C617	C	0.097204	0.253206	0.261486
	C618	C	0.057727	0.252217	0.258863
	C619	C	0.031050	0.253098	0.361818
	C620	C	0.094606	0.191174	0.284905
	C621	C	0.094581	0.315415	0.284919
	C622	C	0.097041	0.253417	0.271330
	C623	C	0.050315	0.252295	0.267804
	C624	C	0.031171	0.753196	0.351961
	C625	C	0.032063	0.815274	0.347391
	C626	C	0.032092	0.691119	0.347366
	C627	C	0.031139	0.253133	0.351971
	C628	C	0.032124	0.315026	0.347373
	C629	C	0.031922	0.190981	0.347412
	C630	C	0.047661	0.190435	0.272184
	C631	C	0.096188	0.191259	0.275913
	C632	C	0.096154	0.315502	0.275923
	C633	C	0.047496	0.314193	0.272128
	C634	C	0.093697	0.253223	0.289503
	C635	C	0.043774	0.043573	0.375829
	C636	C	0.084486	0.043352	0.246640
	C637	C	0.079257	0.962482	0.244387
	C638	C	0.043772	0.962533	0.375826
	C639	C	0.084484	0.962440	0.246622
	N640	N	0.017915	0.070021	0.308694
	N641	N	0.017965	0.935500	0.308706
	N642	N	0.017950	0.435794	0.308689
	N643	N	0.018027	0.570341	0.308689
	N644	N	0.047775	0.435515	0.377083
	N645	N	0.047700	0.569993	0.377092
	N646	N	0.047791	0.070342	0.377063
	N647	N	0.047861	0.935868	0.377052
	O648	O	0.137624	0.694762	0.420541
	O649	O	0.137715	0.811036	0.420515
	O650	O	0.006959	0.694773	0.448801
	O651	O	0.006873	0.811169	0.448818
	O652	O	0.006921	0.195104	0.448829
	O653	O	0.006754	0.311548	0.448836
	O654	O	0.004570	0.694782	0.430186
	O655	O	0.004564	0.811499	0.430236
	O656	O	0.004469	0.194658	0.430170
	O657	O	0.004373	0.311303	0.430181
	O658	O	0.139827	0.694736	0.439133
	O659	O	0.139811	0.811311	0.439135
	O660	O	0.140100	0.194282	0.439197
	O661	O	0.139855	0.310990	0.439178
	O662	O	0.137767	0.194188	0.420467
	O663	O	0.137639	0.310400	0.420535
	O664	O	0.069529	0.694885	0.386360
	O665	O	0.033282	0.695120	0.387743
	O666	O	0.111131	0.694433	0.481647
	O667	O	0.111288	0.810779	0.481674
	O668	O	0.074963	0.695108	0.483060
	O669	O	0.074936	0.811137	0.483067
	O670	O	0.033432	0.811605	0.387749
	O671	O	0.069690	0.811089	0.386307
	O672	O	0.069406	0.194401	0.386372
	O673	O	0.033287	0.195066	0.387757
	O674	O	0.111162	0.194309	0.481626
	O675	O	0.111230	0.310735	0.481616
	O676	O	0.075046	0.194957	0.482974
	O677	O	0.075109	0.311391	0.482999
	O678	O	0.033418	0.311392	0.387744
	O679	O	0.069598	0.310733	0.386358
	H680	H	0.028917	0.644828	0.459696
	H681	H	0.028821	0.861181	0.459747
	H682	H	0.028740	0.144668	0.459788
	H683	H	0.028688	0.362247	0.459840
	H684	H	0.015736	0.863036	0.417006
	H685	H	0.016126	0.644135	0.417047
	H686	H	0.016126	0.362937	0.417039
	H687	H	0.015826	0.143632	0.417008
	H688	H	0.155774	0.064604	0.433556
	H689	H	0.163247	0.064934	0.433866
	H690	H	0.163202	0.941038	0.433845
	H691	H	0.155784	0.941255	0.433549
	H692	H	0.150927	0.064616	0.429145
	H693	H	0.150772	0.941429	0.429191
	H694	H	-0.011492	0.065089	0.444256
	H695	H	-0.011490	0.941478	0.444357
	H696	H	-0.005246	0.064529	0.441599
	H697	H	-0.005253	0.941109	0.441604
	H698	H	-0.008051	0.064167	0.436034
	H699	H	-0.008205	0.940903	0.436034
	H700	H	-0.024150	0.441358	0.435985
	H701	H	-0.025951	0.441099	0.440352
	H702	H	-0.011914	0.441823	0.434382
	H703	H	0.153870	0.441011	0.426703
	H704	H	0.163426	0.441031	0.426504
	H705	H	0.167619	0.441060	0.429276
	H706	H	-0.025930	0.564942	0.440384
	H707	H	-0.024046	0.564900	0.435981
	H708	H	0.167663	0.564710	0.429278
	H709	H	0.163501	0.564409	0.426440
	H710	H	0.153756	0.564334	0.426654
	H711	H	-0.011723	0.564779	0.434371
	H712	H	0.128119	0.643421	0.452272
	H713	H	0.128652	0.862234	0.452350
	H714	H	0.128622	0.142900	0.452343
	H715	H	0.128594	0.361918	0.452362
	H716	H	0.025433	0.644177	0.401603
	H717	H	0.091633	0.644700	0.397224
	H718	H	0.091415	0.861218	0.397281
	H719	H	0.025055	0.863130	0.401560
	H720	H	0.115815	0.644834	0.409593
	H721	H	0.115612	0.861080	0.409660
	H722	H	0.118985	0.643537	0.467743
	H723	H	0.119573	0.862189	0.467829
	H724	H	0.046664	0.441497	0.376227
	H725	H	0.098955	0.441314	0.490683
	H726	H	0.049000	0.441558	0.376296
	H727	H	0.049886	0.440920	0.377086
	H728	H	0.092704	0.440709	0.492214
	H729	H	0.094180	0.440995	0.490712
	H730	H	0.098990	0.564333	0.490637
	H731	H	0.046566	0.564347	0.376290
	H732	H	0.094054	0.564250	0.490722
	H733	H	0.092628	0.564684	0.492233
	H734	H	0.049763	0.564468	0.377063
	H735	H	0.048892	0.564068	0.376325
	H736	H	0.119223	0.142866	0.467805
	H737	H	0.119275	0.361952	0.467784
	H738	H	0.054796	0.064590	0.376972
	H739	H	0.051828	0.064506	0.374434
	H740	H	0.050801	0.064890	0.380150
	H741	H	0.052990	0.860881	0.472134
	H742	H	0.053065	0.644733	0.472083
	H743	H	0.053021	0.362100	0.472146
	H744	H	0.053077	0.144445	0.472091
	H745	H	0.025163	0.143713	0.401604
	H746	H	0.091383	0.143935	0.397233
	H747	H	0.091349	0.360648	0.397311
	H748	H	0.025498	0.362903	0.401611
	H749	H	0.115745	0.143594	0.409566
	H750	H	0.115678	0.360875	0.409643
	H751	H	0.095068	0.064804	0.497650
	H752	H	0.104337	0.064628	0.496696
	H753	H	0.107467	0.064868	0.490687
	H754	H	0.051927	0.941282	0.374433
	H755	H	0.054858	0.941150	0.376977
	H756	H	0.050870	0.941290	0.380157
	H757	H	0.095153	0.941353	0.497667
	H758	H	0.104393	0.941466	0.496695
	H759	H	0.107501	0.941396	0.490624
	Zn760	Zn	-0.014769	0.680373	0.439519
	Zn761	Zn	-0.014877	0.825709	0.439531
	Zn762	Zn	-0.014723	0.180171	0.439511
	Zn763	Zn	-0.014957	0.325738	0.439498
	Zn764	Zn	0.096669	0.680011	0.492321
	Zn765	Zn	0.096718	0.825392	0.492334
	Zn766	Zn	0.096658	0.180214	0.492338
	Zn767	Zn	0.096760	0.325431	0.492319
	C768	C	0.131877	0.752924	0.417741
	C769	C	0.012729	0.753026	0.451568
	C770	C	0.027449	0.753108	0.458946
	C771	C	0.034241	0.691810	0.462473
	C772	C	0.034212	0.814185	0.462488
	C773	C	0.012565	0.253454	0.451666
	C774	C	0.027297	0.253508	0.459031
	C775	C	0.034194	0.191894	0.462507
	C776	C	0.034169	0.314951	0.462531
	C777	C	0.008015	0.753230	0.426907
	C778	C	0.015467	0.753495	0.417962
	C779	C	0.018072	0.815526	0.413603
	C780	C	0.018273	0.691691	0.413621
	C781	C	0.007838	0.253061	0.426858
	C782	C	0.015365	0.253327	0.417947
	C783	C	0.018276	0.315304	0.413621
	C784	C	0.018084	0.191341	0.413608
	C785	C	0.159557	0.043345	0.432714
	C786	C	0.159537	0.962490	0.432711
	C787	C	-0.010111	0.043509	0.442049
	C788	C	-0.010113	0.962587	0.442061
	C789	C	-0.012987	0.043175	0.436423
	C790	C	-0.013065	0.962432	0.436430
	C791	C	-0.022434	0.462767	0.438524
	C792	C	0.154342	0.462468	0.428662
	C793	C	0.163973	0.462341	0.428420
	C794	C	-0.022405	0.543571	0.438507
	C795	C	0.164004	0.543303	0.428396
	C796	C	0.154317	0.543216	0.428619
	C797	C	0.136387	0.752992	0.442443
	C798	C	0.136571	0.252530	0.442511
	C799	C	0.129002	0.752830	0.451390
	C800	C	0.126157	0.690988	0.455726
	C801	C	0.126453	0.814700	0.455763
	C802	C	0.129165	0.252339	0.451453
	C803	C	0.126429	0.190362	0.455788
	C804	C	0.126408	0.314351	0.455789
	C805	C	0.131912	0.252303	0.417724
	C806	C	0.075403	0.752973	0.389115
	C807	C	0.031122	0.753441	0.391331
	C808	C	0.069168	0.753104	0.480252
	C809	C	0.110398	0.691823	0.406852
	C810	C	0.110285	0.814244	0.406875
	C811	C	0.090140	0.752924	0.396482
	C812	C	0.025615	0.753596	0.400619
	C813	C	0.023334	0.691674	0.405036
	C814	C	0.096993	0.691698	0.399985
	C815	C	0.096856	0.814232	0.400017
	C816	C	0.023132	0.815607	0.405018
	C817	C	0.117164	0.753033	0.410366
	C818	C	0.113421	0.752663	0.478055
	C819	C	0.121115	0.691045	0.464316
	C820	C	0.121427	0.814701	0.464354
	C821	C	0.118936	0.752866	0.468757
	C822	C	0.099193	0.462220	0.491628
	C823	C	0.048953	0.462389	0.376800
	C824	C	0.094371	0.462317	0.491699
	C825	C	0.099202	0.543157	0.491635
	C826	C	0.094344	0.543371	0.491706
	C827	C	0.048889	0.543080	0.376795
	C828	C	0.113459	0.252467	0.478037
	C829	C	0.121328	0.190389	0.464362
	C830	C	0.121313	0.314341	0.464359
	C831	C	0.118995	0.252340	0.468763
	C832	C	0.051843	0.043228	0.376074
	C833	C	0.075280	0.252440	0.389162
	C834	C	0.031086	0.253300	0.391345
	C835	C	0.069225	0.253260	0.480228
	C836	C	0.110385	0.190900	0.406819
	C837	C	0.110360	0.313657	0.406865
	C838	C	0.090119	0.252298	0.396490
	C839	C	0.025620	0.253333	0.400631
	C840	C	0.054445	0.752989	0.472876
	C841	C	0.047595	0.814093	0.469379
	C842	C	0.047627	0.691733	0.469356
	C843	C	0.054455	0.253347	0.472868
	C844	C	0.047608	0.314914	0.469388
	C845	C	0.047626	0.191851	0.469369
	C846	C	0.023177	0.191386	0.405036
	C847	C	0.096929	0.190878	0.399961
	C848	C	0.096919	0.313642	0.400007
	C849	C	0.023371	0.315288	0.405040
	C850	C	0.117227	0.252336	0.410337
	C851	C	0.098970	0.043360	0.495900
	C852	C	0.047855	0.043395	0.379297
	C853	C	0.051900	0.962612	0.376053
	C854	C	0.099024	0.962731	0.495911
	C855	C	0.047886	0.962569	0.379286
	N856	N	-0.014887	0.070109	0.439513
	N857	N	-0.014946	0.935614	0.439540
	N858	N	-0.015070	0.435926	0.439450
	N859	N	-0.014980	0.570443	0.439477
	N860	N	0.096975	0.435576	0.492330
	N861	N	0.096939	0.570080	0.492356
	N862	N	0.096877	0.070031	0.492321
	N863	N	0.096910	0.935497	0.492327
	O864	O	0.113114	0.695089	0.549447
	O865	O	0.113314	0.812107	0.549476
	O866	O	0.050050	0.693465	0.566379
	O867	O	0.050131	0.810254	0.566370
	O868	O	0.050044	0.194631	0.566379
	O869	O	0.050249	0.311437	0.566353
	O870	O	0.048495	0.694111	0.544117
	O871	O	0.048828	0.810569	0.544172
	O872	O	0.048815	0.195005	0.544189
	O873	O	0.048672	0.311464	0.544179
	O874	O	0.111819	0.695155	0.570297
	O875	O	0.112036	0.811768	0.570308
	O876	O	0.112017	0.193439	0.570302
	O877	O	0.111822	0.310214	0.570322
	O878	O	0.113261	0.193704	0.549494
	O879	O	0.113145	0.310375	0.549476
	O880	O	0.112480	0.694398	0.503839
	O881	O	0.077061	0.694206	0.501599
	O882	O	0.086328	0.695205	0.613558
	O883	O	0.086193	0.811906	0.613568
	O884	O	0.050949	0.693597	0.612009
	O885	O	0.050775	0.810288	0.611995
	O886	O	0.077329	0.811086	0.501660
	O887	O	0.112657	0.811227	0.503849
	O888	O	0.112591	0.194240	0.503855
	O889	O	0.077200	0.194454	0.501648
	O890	O	0.086185	0.193748	0.613542
	O891	O	0.086273	0.310167	0.613523
	O892	O	0.050711	0.195094	0.611988
	O893	O	0.051012	0.311690	0.611963
	O894	O	0.077221	0.311274	0.501622
	O895	O	0.112657	0.311117	0.503862
	H896	H	0.050438	0.641891	0.581061
	H897	H	0.050627	0.861756	0.581080
	H898	H	0.050395	0.143551	0.580980
	H899	H	0.050551	0.362877	0.581025
	H900	H	0.056756	0.861786	0.530301
	H901	H	0.056528	0.643085	0.530223
	H902	H	0.056735	0.362469	0.530303
	H903	H	0.057256	0.143928	0.530400
	H904	H	0.122434	0.064345	0.558627
	H905	H	0.122371	0.064675	0.562209
	H906	H	0.122300	0.941451	0.562202
	H907	H	0.122316	0.940695	0.558613
	H908	H	0.131307	0.064350	0.556459
	H909	H	0.131265	0.940693	0.556429
	H910	H	0.033396	0.063825	0.554791
	H911	H	0.033316	0.940819	0.554814
	H912	H	0.033672	0.064337	0.555158
	H913	H	0.033638	0.940652	0.555233
	H914	H	0.034794	0.064581	0.555242
	H915	H	0.034908	0.940868	0.555280
	H916	H	0.035034	0.440303	0.551761
	H917	H	0.029809	0.440745	0.552469
	H918	H	0.040685	0.440574	0.554329
	H919	H	0.127868	0.441066	0.556142
	H920	H	0.138073	0.441021	0.558438
	H921	H	0.139265	0.441098	0.562273
	H922	H	0.029862	0.564167	0.552420
	H923	H	0.035005	0.564020	0.551715
	H924	H	0.139302	0.564612	0.562238
	H925	H	0.138111	0.564496	0.558418
	H926	H	0.127868	0.564654	0.556156
	H927	H	0.040688	0.563873	0.554333
	H928	H	0.102685	0.643835	0.584066
	H929	H	0.103000	0.863546	0.584104
	H930	H	0.102897	0.141820	0.584052
	H931	H	0.102724	0.361165	0.584031
	H932	H	0.065742	0.643255	0.514750
	H933	H	0.112476	0.642842	0.518513
	H934	H	0.113452	0.862876	0.518492
	H935	H	0.065966	0.861871	0.514851
	H936	H	0.110938	0.643167	0.534776
	H937	H	0.111854	0.863290	0.534785
	H938	H	0.095089	0.643789	0.599762
	H939	H	0.095360	0.863493	0.599794
	H940	H	0.101026	0.440743	0.492049
	H941	H	0.071201	0.440942	0.627701
	H942	H	0.099101	0.441291	0.494146
	H943	H	0.095585	0.441538	0.494205
	H944	H	0.074653	0.441160	0.619930
	H945	H	0.077884	0.441143	0.623640
	H946	H	0.071259	0.564468	0.627714
	H947	H	0.101030	0.564556	0.492108
	H948	H	0.077968	0.564177	0.623613
	H949	H	0.074625	0.564631	0.619905
	H950	H	0.095431	0.564511	0.494176
	H951	H	0.098892	0.564384	0.494191
	H952	H	0.095175	0.141762	0.599729
	H953	H	0.095001	0.361305	0.599711
	H954	H	0.087817	0.064005	0.488598
	H955	H	0.085547	0.064533	0.493030
	H956	H	0.100548	0.064847	0.487289
	H957	H	0.049016	0.861643	0.597346
	H958	H	0.048863	0.642023	0.597359
	H959	H	0.048964	0.362934	0.597270
	H960	H	0.048818	0.143473	0.597276
	H961	H	0.066244	0.143923	0.514906
	H962	H	0.113300	0.142870	0.518495
	H963	H	0.112592	0.362338	0.518541
	H964	H	0.065779	0.362546	0.514830
	H965	H	0.111603	0.142281	0.534776
	H966	H	0.110858	0.361886	0.534798
	H967	H	0.061081	0.064812	0.623596
	H968	H	0.064502	0.064833	0.625921
	H969	H	0.072253	0.064804	0.625734
	H970	H	0.085540	0.940947	0.493052
	H971	H	0.087794	0.940881	0.488636
	H972	H	0.100533	0.941297	0.487237
	H973	H	0.061065	0.940920	0.623588
	H974	H	0.064465	0.940824	0.625923
	H975	H	0.072296	0.941204	0.625752
	Zn976	Zn	0.034139	0.679839	0.554860
	Zn977	Zn	0.034280	0.825117	0.554871
	Zn978	Zn	0.034156	0.179980	0.554878
	Zn979	Zn	0.034117	0.325343	0.554828
	Zn980	Zn	0.068082	0.680171	0.623233
	Zn981	Zn	0.067777	0.825397	0.623198
	Zn982	Zn	0.067778	0.180046	0.623167
	Zn983	Zn	0.068098	0.325137	0.623178
	C984	C	0.112148	0.753660	0.545660
	C985	C	0.050687	0.751867	0.570202
	C986	C	0.050907	0.751844	0.580066
	C987	C	0.050205	0.689705	0.584684
	C988	C	0.050305	0.813914	0.584688
	C989	C	0.050731	0.253100	0.570196
	C990	C	0.050899	0.253104	0.580048
	C991	C	0.050149	0.191101	0.584627
	C992	C	0.050236	0.315205	0.584647
	C993	C	0.050836	0.752318	0.540539
	C994	C	0.056308	0.752291	0.531241
	C995	C	0.058705	0.814302	0.526849
	C996	C	0.058588	0.690486	0.526808
	C997	C	0.051002	0.253234	0.540595
	C998	C	0.056582	0.253201	0.531307
	C999	C	0.058779	0.315009	0.526867
	C1000	C	0.059061	0.191330	0.526920
	C1001	C	0.124533	0.043300	0.560477
	C1002	C	0.124482	0.962441	0.560485
	C1003	C	0.033791	0.042799	0.554936
	C1004	C	0.033767	0.962154	0.554966
	C1005	C	0.034912	0.042999	0.555042
	C1006	C	0.034949	0.962284	0.555059
	C1007	C	0.032973	0.462090	0.552839
	C1008	C	0.126169	0.462230	0.558144
	C1009	C	0.136428	0.462495	0.560424
	C1010	C	0.032980	0.543006	0.552815
	C1011	C	0.136440	0.543185	0.560421
	C1012	C	0.126153	0.543183	0.558140
	C1013	C	0.109081	0.753537	0.573802
	C1014	C	0.109085	0.251690	0.573801
	C1015	C	0.103162	0.753738	0.583055
	C1016	C	0.101027	0.691654	0.587536
	C1017	C	0.101196	0.815744	0.587563
	C1018	C	0.103158	0.251536	0.583061
	C1019	C	0.101122	0.189550	0.587533
	C1020	C	0.100983	0.313498	0.587516
	C1021	C	0.112071	0.251988	0.545658
	C1022	C	0.113187	0.752832	0.507678
	C1023	C	0.073758	0.752644	0.504923
	C1024	C	0.049728	0.751871	0.608186
	C1025	C	0.111395	0.690977	0.531166
	C1026	C	0.111893	0.815441	0.531164
	C1027	C	0.113383	0.752890	0.517540
	C1028	C	0.066345	0.752566	0.513890
	C1029	C	0.063602	0.690625	0.518213
	C1030	C	0.112440	0.690696	0.522130
	C1031	C	0.112945	0.815161	0.522133
	C1032	C	0.063733	0.814391	0.518261
	C1033	C	0.111145	0.753386	0.535781
	C1034	C	0.089037	0.753641	0.610053
	C1035	C	0.096890	0.691594	0.596275
	C1036	C	0.097064	0.815852	0.596298
	C1037	C	0.094940	0.753784	0.600764
	C1038	C	0.067388	0.462196	0.626251
	C1039	C	0.097232	0.462574	0.493689
	C1040	C	0.074133	0.462396	0.622144
	C1041	C	0.067442	0.543026	0.626277
	C1042	C	0.074148	0.543143	0.622141
	C1043	C	0.097159	0.543048	0.493704
	C1044	C	0.089058	0.251852	0.610029
	C1045	C	0.096978	0.189623	0.596269
	C1046	C	0.096867	0.313534	0.596257
	C1047	C	0.094932	0.251583	0.600762
	C1048	C	0.089379	0.043135	0.491218
	C1049	C	0.113229	0.252698	0.507688
	C1050	C	0.073832	0.252920	0.504959
	C1051	C	0.049728	0.253337	0.608154
	C1052	C	0.111808	0.190137	0.531169
	C1053	C	0.111373	0.314327	0.531191
	C1054	C	0.113360	0.252699	0.517544
	C1055	C	0.066535	0.253116	0.513931
	C1056	C	0.048707	0.751879	0.598314
	C1057	C	0.049284	0.813947	0.593713
	C1058	C	0.049186	0.689667	0.593723
	C1059	C	0.048691	0.253147	0.598287
	C1060	C	0.049215	0.315170	0.593675
	C1061	C	0.049131	0.191144	0.593664
	C1062	C	0.064061	0.191272	0.518326
	C1063	C	0.112863	0.190444	0.522140
	C1064	C	0.112430	0.314562	0.522162
	C1065	C	0.063777	0.315077	0.518273
	C1066	C	0.111089	0.252090	0.535797
	C1067	C	0.064085	0.043352	0.624337
	C1068	C	0.102151	0.043339	0.489868
	C1069	C	0.089351	0.962334	0.491231
	C1070	C	0.064054	0.962356	0.624345
	C1071	C	0.102140	0.962380	0.489841
	N1072	N	0.034409	0.069834	0.554865
	N1073	N	0.034416	0.935248	0.554883
	N1074	N	0.034391	0.435425	0.554853
	N1075	N	0.034362	0.569873	0.554840
	N1076	N	0.068107	0.435488	0.623198
	N1077	N	0.068127	0.570032	0.623195
	N1078	N	0.067767	0.070002	0.623158
	N1079	N	0.067774	0.935526	0.623165
	O1080	O	0.085655	0.694524	0.680043
	O1081	O	0.085718	0.811373	0.680013
	O1082	O	0.022163	0.693004	0.696846
	O1083	O	0.022730	0.809828	0.696799
	O1084	O	0.022507	0.195515	0.696860
	O1085	O	0.022262	0.312116	0.696875
	O1086	O	0.023466	0.693140	0.676044
	O1087	O	0.023917	0.809835	0.676070
	O1088	O	0.023953	0.195804	0.676050
	O1089	O	0.023609	0.312466	0.676028
	O1090	O	0.086979	0.695097	0.702232
	O1091	O	0.087217	0.811687	0.702249
	O1092	O	0.087232	0.194579	0.702278
	O1093	O	0.086977	0.311091	0.702191
	O1094	O	0.085622	0.194154	0.679979
	O1095	O	0.085671	0.310752	0.680015
	O1096	O	0.085139	0.695527	0.634381
	O1097	O	0.049731	0.693612	0.632857
	O1098	O	0.058673	0.694415	0.744745
	O1099	O	0.058616	0.811180	0.744725
	O1100	O	0.023173	0.694042	0.742469
	O1101	O	0.023230	0.810623	0.742448
	O1102	O	0.049450	0.810278	0.632819
	O1103	O	0.085004	0.812121	0.634402
	O1104	O	0.085006	0.193732	0.634391
	O1105	O	0.049467	0.195540	0.632823
	O1106	O	0.058764	0.194973	0.744784
	O1107	O	0.058559	0.311739	0.744754
	O1108	O	0.023536	0.193699	0.742450
	O1109	O	0.023171	0.310611	0.742529
	O1110	O	0.049616	0.312018	0.632825
	O1111	O	0.085116	0.310428	0.634387
	H1112	H	0.024008	0.641772	0.711554
	H1113	H	0.024772	0.861427	0.711495
	H1114	H	0.024500	0.143838	0.711498
	H1115	H	0.024102	0.363549	0.711601
	H1116	H	0.033094	0.861375	0.662374
	H1117	H	0.032563	0.641654	0.662219
	H1118	H	0.032696	0.364137	0.662235
	H1119	H	0.032822	0.144601	0.662262
	H1120	H	0.099151	0.064670	0.691880
	H1121	H	0.100691	0.064556	0.692590
	H1122	H	0.100756	0.941640	0.692600
	H1123	H	0.099199	0.941297	0.691868
	H1124	H	0.099799	0.064164	0.690530
	H1125	H	0.099911	0.940986	0.690545
	H1126	H	0.018305	0.064219	0.680605
	H1127	H	0.018337	0.940975	0.680559
	H1128	H	0.005070	0.064100	0.677425
	H1129	H	0.004991	0.941020	0.677425
	H1130	H	-0.010767	0.064653	0.682577
	H1131	H	-0.010810	0.941109	0.682602
	H1132	H	-0.003045	0.440810	0.686006
	H1133	H	0.000696	0.441229	0.688852
	H1134	H	0.001073	0.440838	0.682120
	H1135	H	0.109646	0.441013	0.693825
	H1136	H	0.100289	0.441021	0.695862
	H1137	H	0.093738	0.440976	0.693780
	H1138	H	0.000763	0.564119	0.688814
	H1139	H	-0.003117	0.564008	0.685980
	H1140	H	0.093602	0.564732	0.693755
	H1141	H	0.100271	0.564059	0.695919
	H1142	H	0.109717	0.564229	0.693804
	H1143	H	0.001047	0.564595	0.682147
	H1144	H	0.078943	0.644084	0.716026
	H1145	H	0.079065	0.862963	0.716108
	H1146	H	0.079486	0.143579	0.716174
	H1147	H	0.078918	0.362791	0.716024
	H1148	H	0.040289	0.641882	0.646544
	H1149	H	0.087110	0.643473	0.649095
	H1150	H	0.086748	0.863278	0.649102
	H1151	H	0.040737	0.861448	0.646659
	H1152	H	0.085515	0.643243	0.665360
	H1153	H	0.085159	0.863060	0.665385
	H1154	H	0.069735	0.643580	0.731479
	H1155	H	0.069865	0.862712	0.731554
	H1156	H	0.063035	0.440935	0.627001
	H1157	H	0.040947	0.440431	0.748772
	H1158	H	0.058558	0.440855	0.621920
	H1159	H	0.063392	0.440930	0.618943
	H1160	H	0.028140	0.441003	0.755508
	H1161	H	0.028987	0.440795	0.751051
	H1162	H	0.040934	0.564442	0.748721
	H1163	H	0.063089	0.564220	0.627015
	H1164	H	0.029018	0.564285	0.751021
	H1165	H	0.028190	0.564140	0.755533
	H1166	H	0.063408	0.564601	0.618953
	H1167	H	0.058478	0.564066	0.621958
	H1168	H	0.070273	0.143666	0.731643
	H1169	H	0.069715	0.363272	0.731496
	H1170	H	0.069921	0.064290	0.620139
	H1171	H	0.064220	0.064481	0.620301
	H1172	H	0.074564	0.064315	0.623298
	H1173	H	0.023217	0.861833	0.727758
	H1174	H	0.022456	0.642403	0.727825
	H1175	H	0.022693	0.362888	0.727896
	H1176	H	0.023084	0.143132	0.727773
	H1177	H	0.040515	0.144318	0.646591
	H1178	H	0.086723	0.142733	0.649074
	H1179	H	0.086840	0.362249	0.649093
	H1180	H	0.040388	0.364081	0.646533
	H1181	H	0.085132	0.142923	0.665354
	H1182	H	0.085209	0.362347	0.665345
	H1183	H	0.043696	0.064136	0.754779
	H1184	H	0.042992	0.064069	0.752850
	H1185	H	0.037852	0.063955	0.751825
	H1186	H	0.064175	0.941351	0.620275
	H1187	H	0.069897	0.941053	0.620174
	H1188	H	0.074590	0.940951	0.623307
	H1189	H	0.043633	0.941069	0.754754
	H1190	H	0.042958	0.940746	0.752822
	H1191	H	0.037837	0.940539	0.751808
	Zn1192	Zn	0.004965	0.679917	0.685643
	Zn1193	Zn	0.005589	0.824792	0.685661
	Zn1194	Zn	0.005546	0.180296	0.685679
	Zn1195	Zn	0.005055	0.325062	0.685666
	Zn1196	Zn	0.039026	0.680096	0.754017
	Zn1197	Zn	0.039068	0.825123	0.753985
	Zn1198	Zn	0.039196	0.180064	0.754025
	Zn1199	Zn	0.039044	0.325309	0.754076
	C1200	C	0.085072	0.752900	0.676194
	C1201	C	0.023569	0.751452	0.700629
	C1202	C	0.024529	0.751584	0.710508
	C1203	C	0.023871	0.689707	0.715148
	C1204	C	0.024268	0.813736	0.715112
	C1205	C	0.023454	0.253837	0.700702
	C1206	C	0.024486	0.253734	0.710569
	C1207	C	0.024166	0.191477	0.715148
	C1208	C	0.023945	0.315695	0.715209
	C1209	C	0.026520	0.751347	0.672556
	C1210	C	0.032485	0.751338	0.663293
	C1211	C	0.034684	0.813566	0.658853
	C1212	C	0.034437	0.689444	0.658776
	C1213	C	0.026552	0.254254	0.672528
	C1214	C	0.032432	0.254373	0.663248
	C1215	C	0.034457	0.316367	0.658748
	C1216	C	0.034541	0.192263	0.658775
	C1217	C	0.100284	0.043239	0.692045
	C1218	C	0.100316	0.962561	0.692036
	C1219	C	0.010050	0.043018	0.680766
	C1220	C	0.010049	0.962343	0.680750
	C1221	C	-0.005912	0.042982	0.685931
	C1222	C	-0.005883	0.962147	0.685942
	C1223	C	0.000406	0.462409	0.686967
	C1224	C	0.107532	0.462273	0.691827
	C1225	C	0.098118	0.462372	0.693951
	C1226	C	0.000416	0.543010	0.686961
	C1227	C	0.098117	0.543257	0.693970
	C1228	C	0.107536	0.543019	0.691841
	C1229	C	0.084831	0.753432	0.705827
	C1230	C	0.084905	0.252932	0.705835
	C1231	C	0.079337	0.753436	0.715117
	C1232	C	0.076986	0.691346	0.719493
	C1233	C	0.077060	0.815371	0.719541
	C1234	C	0.079450	0.253150	0.715151
	C1235	C	0.077303	0.191187	0.719595
	C1236	C	0.076987	0.315284	0.719512
	C1237	C	0.085056	0.252515	0.676161
	C1238	C	0.086131	0.753771	0.638213
	C1239	C	0.046741	0.751884	0.636327
	C1240	C	0.022625	0.752283	0.738607
	C1241	C	0.085673	0.690989	0.661744
	C1242	C	0.085461	0.815302	0.661747
	C1243	C	0.087071	0.753489	0.648092
	C1244	C	0.040738	0.751687	0.645576
	C1245	C	0.038602	0.689607	0.650040
	C1246	C	0.086723	0.691263	0.652715
	C1247	C	0.086488	0.815464	0.652719
	C1248	C	0.038806	0.813679	0.650106
	C1249	C	0.084846	0.753051	0.666346
	C1250	C	0.061993	0.752813	0.741419
	C1251	C	0.071960	0.691128	0.728077
	C1252	C	0.072025	0.815111	0.728125
	C1253	C	0.069310	0.752998	0.732452
	C1254	C	0.043194	0.462138	0.751214
	C1255	C	0.062869	0.462289	0.621164
	C1256	C	0.031238	0.462002	0.753481
	C1257	C	0.043211	0.543100	0.751195
	C1258	C	0.031254	0.542894	0.753467
	C1259	C	0.062854	0.543173	0.621191
	C1260	C	0.062092	0.253458	0.741462
	C1261	C	0.072263	0.191343	0.728181
	C1262	C	0.071953	0.315483	0.728101
	C1263	C	0.069438	0.253466	0.732510
	C1264	C	0.067235	0.043163	0.620998
	C1265	C	0.086093	0.252086	0.638206
	C1266	C	0.046678	0.253865	0.636321
	C1267	C	0.022690	0.252356	0.738669
	C1268	C	0.085445	0.190483	0.661724
	C1269	C	0.085503	0.314624	0.661720
	C1270	C	0.087039	0.252320	0.648078
	C1271	C	0.040650	0.254172	0.645544
	C1272	C	0.022384	0.752070	0.728758
	C1273	C	0.023277	0.814013	0.724145
	C1274	C	0.022909	0.689954	0.724179
	C1275	C	0.022443	0.252943	0.728819
	C1276	C	0.022991	0.315315	0.724243
	C1277	C	0.023210	0.191062	0.724181
	C1278	C	0.038678	0.192170	0.650040
	C1279	C	0.086465	0.190396	0.652693
	C1280	C	0.086522	0.314478	0.652694
	C1281	C	0.038641	0.316245	0.650018
	C1282	C	0.084781	0.252554	0.666312
	C1283	C	0.042161	0.042856	0.753856
	C1284	C	0.071929	0.043183	0.624170
	C1285	C	0.067230	0.962443	0.620994
	C1286	C	0.042114	0.962187	0.753838
	C1287	C	0.071918	0.962390	0.624175
	N1288	N	0.005499	0.069923	0.685670
	N1289	N	0.005548	0.935262	0.685656
	N1290	N	0.004972	0.435317	0.685638
	N1291	N	0.004952	0.569838	0.685641
	N1292	N	0.038839	0.435316	0.754054
	N1293	N	0.038824	0.569874	0.754010
	N1294	N	0.039053	0.069859	0.754020
	N1295	N	0.038996	0.935306	0.754000
	O1296	O	0.129135	0.694712	0.797461
	O1297	O	0.129188	0.810977	0.797431
	O1298	O	-0.001180	0.694873	0.825854
	O1299	O	-0.001449	0.811356	0.825930
	O1300	O	-0.001419	0.194537	0.825913
	O1301	O	-0.001384	0.310803	0.825856
	O1302	O	-0.003612	0.694419	0.807253
	O1303	O	-0.003570	0.811335	0.807299
	O1304	O	-0.003795	0.193491	0.807234
	O1305	O	-0.003574	0.310192	0.807251
	O1306	O	0.131529	0.694469	0.815997
	O1307	O	0.131575	0.811283	0.816038
	O1308	O	0.131405	0.194309	0.815988
	O1309	O	0.131463	0.310952	0.816004
	O1310	O	0.129168	0.194613	0.797412
	O1311	O	0.129113	0.310875	0.797455
	O1312	O	0.060838	0.694599	0.763303
	O1313	O	0.024655	0.694541	0.764773
	O1314	O	0.102964	0.694440	0.858544
	O1315	O	0.103148	0.810868	0.858542
	O1316	O	0.066847	0.694779	0.860014
	O1317	O	0.066858	0.810783	0.860031
	O1318	O	0.024694	0.810904	0.764730
	O1319	O	0.060758	0.810787	0.763351
	O1320	O	0.060862	0.194757	0.763335
	O1321	O	0.024530	0.193466	0.764679
	O1322	O	0.103167	0.194625	0.858540
	O1323	O	0.103342	0.311173	0.858598
	O1324	O	0.066999	0.194410	0.859977
	O1325	O	0.066903	0.310640	0.859992
	O1326	O	0.024460	0.309799	0.764697
	O1327	O	0.060820	0.310901	0.763337
	H1328	H	0.020646	0.645046	0.836740
	H1329	H	0.020586	0.861381	0.836787
	H1330	H	0.020594	0.144155	0.836790
	H1331	H	0.020533	0.361016	0.836828
	H1332	H	0.007285	0.862426	0.793992
	H1333	H	0.007990	0.643496	0.794151
	H1334	H	0.007865	0.361068	0.794059
	H1335	H	0.007382	0.142122	0.794013
	H1336	H	0.161459	0.064707	0.807412
	H1337	H	0.158474	0.064381	0.803438
	H1338	H	0.158461	0.940687	0.803462
	H1339	H	0.161474	0.940410	0.807437
	H1340	H	0.153794	0.064429	0.811645
	H1341	H	0.153838	0.940801	0.811612
	H1342	H	-0.019311	0.064303	0.815096
	H1343	H	-0.019236	0.940854	0.815088
	H1344	H	-0.023217	0.064367	0.814017
	H1345	H	-0.023258	0.940617	0.814053
	H1346	H	-0.028174	0.064482	0.815559
	H1347	H	-0.028169	0.940444	0.815549
	H1348	H	-0.011908	0.440511	0.817137
	H1349	H	-0.015607	0.440878	0.812767
	H1350	H	-0.019767	0.440954	0.821715
	H1351	H	0.149252	0.440623	0.801623
	H1352	H	0.160472	0.441052	0.804546
	H1353	H	0.161133	0.441011	0.808882
	H1354	H	-0.015461	0.563859	0.812831
	H1355	H	-0.011843	0.564401	0.817153
	H1356	H	0.161177	0.564737	0.808890
	H1357	H	0.160558	0.564730	0.804595
	H1358	H	0.149269	0.564428	0.801581
	H1359	H	-0.019682	0.564117	0.821796
	H1360	H	0.120443	0.642969	0.829246
	H1361	H	0.120153	0.862136	0.829199
	H1362	H	0.120083	0.143061	0.829221
	H1363	H	0.120072	0.362266	0.829223
	H1364	H	0.017180	0.643532	0.778677
	H1365	H	0.082741	0.644318	0.774236
	H1366	H	0.083016	0.861078	0.774108
	H1367	H	0.016429	0.862266	0.778550
	H1368	H	0.107036	0.644422	0.786576
	H1369	H	0.107289	0.860871	0.786450
	H1370	H	0.111291	0.642872	0.844703
	H1371	H	0.111044	0.862293	0.844674
	H1372	H	0.048772	0.440731	0.751692
	H1373	H	0.080208	0.441180	0.867432
	H1374	H	0.047560	0.441201	0.757805
	H1375	H	0.038951	0.441097	0.759525
	H1376	H	0.090210	0.440946	0.873630
	H1377	H	0.082762	0.441016	0.872347
	H1378	H	0.080132	0.564085	0.867420
	H1379	H	0.048689	0.564289	0.751620
	H1380	H	0.082793	0.564593	0.872335
	H1381	H	0.090098	0.565030	0.873623
	H1382	H	0.038909	0.564095	0.759459
	H1383	H	0.047553	0.564512	0.757811
	H1384	H	0.111023	0.143342	0.844679
	H1385	H	0.111061	0.362385	0.844710
	H1386	H	0.035747	0.064505	0.755524
	H1387	H	0.039488	0.064418	0.756263
	H1388	H	0.034835	0.063927	0.752908
	H1389	H	0.044770	0.861338	0.849182
	H1390	H	0.044815	0.644879	0.849115
	H1391	H	0.044866	0.360834	0.849164
	H1392	H	0.044874	0.144010	0.849109
	H1393	H	0.016365	0.142035	0.778514
	H1394	H	0.082856	0.144683	0.774190
	H1395	H	0.082959	0.361019	0.774188
	H1396	H	0.016937	0.360817	0.778606
	H1397	H	0.107050	0.144321	0.786552
	H1398	H	0.107150	0.361059	0.786561
	H1399	H	0.091640	0.064601	0.872124
	H1400	H	0.095150	0.064184	0.870259
	H1401	H	0.092609	0.064589	0.866794
	H1402	H	0.039468	0.940792	0.756253
	H1403	H	0.035716	0.940676	0.755478
	H1404	H	0.034764	0.940715	0.752894
	H1405	H	0.091632	0.940717	0.872113
	H1406	H	0.095211	0.941131	0.870264
	H1407	H	0.092595	0.941240	0.866772
	Zn1408	Zn	-0.022958	0.680239	0.816612
	Zn1409	Zn	-0.023106	0.825239	0.816557
	Zn1410	Zn	-0.023205	0.179935	0.816600
	Zn1411	Zn	-0.023125	0.325037	0.816542
	Zn1412	Zn	0.088557	0.680224	0.869226
	Zn1413	Zn	0.088738	0.825135	0.869246
	Zn1414	Zn	0.088759	0.180052	0.869250
	Zn1415	Zn	0.088729	0.325091	0.869260
	C1416	C	0.123347	0.752807	0.794657
	C1417	C	0.004451	0.753197	0.828679
	C1418	C	0.019236	0.753240	0.836020
	C1419	C	0.026063	0.691962	0.839502
	C1420	C	0.026004	0.814479	0.839532
	C1421	C	0.004409	0.252719	0.828673
	C1422	C	0.019199	0.252703	0.836025
	C1423	C	0.026017	0.191294	0.839530
	C1424	C	0.025986	0.313911	0.839554
	C1425	C	-0.000182	0.752934	0.803974
	C1426	C	0.007158	0.752922	0.795005
	C1427	C	0.009583	0.814879	0.790607
	C1428	C	0.009988	0.690936	0.790687
	C1429	C	-0.000281	0.251786	0.803924
	C1430	C	0.007033	0.251616	0.794965
	C1431	C	0.009860	0.313492	0.790625
	C1432	C	0.009566	0.189639	0.790592
	C1433	C	0.157709	0.043191	0.805775
	C1434	C	0.157717	0.962074	0.805789
	C1435	C	-0.021827	0.042879	0.815077
	C1436	C	-0.021809	0.962013	0.815085
	C1437	C	-0.026786	0.043049	0.816568
	C1438	C	-0.026774	0.962096	0.816593
	C1439	C	-0.016266	0.462087	0.815382
	C1440	C	0.147042	0.462335	0.803781
	C1441	C	0.158295	0.462394	0.806737
	C1442	C	-0.016207	0.542956	0.815388
	C1443	C	0.158338	0.543255	0.806734
	C1444	C	0.147062	0.543218	0.803765
	C1445	C	0.128158	0.752828	0.819340
	C1446	C	0.128031	0.252631	0.819321
	C1447	C	0.120854	0.752596	0.828317
	C1448	C	0.118279	0.690576	0.832677
	C1449	C	0.118113	0.814574	0.832658
	C1450	C	0.120706	0.252694	0.828287
	C1451	C	0.117961	0.190712	0.832632
	C1452	C	0.118020	0.314721	0.832659
	C1453	C	0.123318	0.252753	0.794658
	C1454	C	0.066575	0.752675	0.766121
	C1455	C	0.022501	0.752822	0.768350
	C1456	C	0.061054	0.752851	0.857236
	C1457	C	0.101620	0.691411	0.783831
	C1458	C	0.101781	0.813926	0.783761
	C1459	C	0.081319	0.752726	0.773482
	C1460	C	0.017104	0.752892	0.777656
	C1461	C	0.015007	0.691006	0.782099
	C1462	C	0.088159	0.691359	0.776978
	C1463	C	0.088321	0.813983	0.776906
	C1464	C	0.014581	0.814796	0.782019
	C1465	C	0.108518	0.752693	0.787321
	C1466	C	0.105273	0.752611	0.854946
	C1467	C	0.113285	0.690514	0.841276
	C1468	C	0.113116	0.814561	0.841252
	C1469	C	0.110854	0.752572	0.845680
	C1470	C	0.084520	0.462319	0.867026
	C1471	C	0.042021	0.462358	0.757447
	C1472	C	0.087139	0.462145	0.872008
	C1473	C	0.084468	0.542916	0.867024
	C1474	C	0.087085	0.543290	0.872004
	C1475	C	0.042042	0.543047	0.757412
	C1476	C	0.105451	0.252904	0.854976
	C1477	C	0.113007	0.190834	0.841228
	C1478	C	0.113084	0.314836	0.841260
	C1479	C	0.110808	0.252832	0.845658
	C1480	C	0.037958	0.043167	0.755384
	C1481	C	0.066687	0.252879	0.766108
	C1482	C	0.022318	0.251558	0.768291
	C1483	C	0.061126	0.252501	0.857209
	C1484	C	0.101722	0.191493	0.783803
	C1485	C	0.101767	0.314066	0.783812
	C1486	C	0.081478	0.252909	0.773452
	C1487	C	0.016919	0.251409	0.777598
	C1488	C	0.046306	0.753089	0.849886
	C1489	C	0.039420	0.814361	0.846396
	C1490	C	0.039470	0.691883	0.846370
	C1491	C	0.046359	0.252556	0.849863
	C1492	C	0.039460	0.313841	0.846399
	C1493	C	0.039474	0.191157	0.846383
	C1494	C	0.014530	0.189565	0.781995
	C1495	C	0.088259	0.191565	0.776952
	C1496	C	0.088308	0.314103	0.776959
	C1497	C	0.014807	0.313357	0.782032
	C1498	C	0.108552	0.252772	0.787323
	C1499	C	0.092246	0.043042	0.870683
	C1500	C	0.037005	0.042784	0.752787
	C1501	C	0.037934	0.961990	0.755368
	C1502	C	0.092269	0.962166	0.870678
	C1503	C	0.037002	0.962074	0.752776
	N1504	N	-0.023336	0.069891	0.816547
	N1505	N	-0.023286	0.935384	0.816556
	N1506	N	-0.023240	0.435341	0.816473
	N1507	N	-0.023196	0.569971	0.816525
	N1508	N	0.088837	0.435302	0.869258
	N1509	N	0.088763	0.569875	0.869239
	N1510	N	0.088928	0.069890	0.869234
	N1511	N	0.088915	0.935382	0.869233
	O1512	O	0.105039	0.695457	0.926373
	O1513	O	0.105592	0.812062	0.926334
	O1514	O	0.041745	0.694515	0.943176
	O1515	O	0.041788	0.811533	0.943161
	O1516	O	0.041702	0.193640	0.943186
	O1517	O	0.041582	0.310441	0.943267
	O1518	O	0.040351	0.694793	0.920974
	O1519	O	0.040398	0.811361	0.921036
	O1520	O	0.040400	0.194340	0.921024
	O1521	O	0.040288	0.311004	0.921007
	O1522	O	0.103864	0.695047	0.947134
	O1523	O	0.104386	0.811752	0.947267
	O1524	O	0.104406	0.193248	0.947252
	O1525	O	0.103849	0.309978	0.947134
	O1526	O	0.105601	0.193068	0.926397
	O1527	O	0.104889	0.309816	0.926422
	O1528	O	0.104463	0.693793	0.880770
	O1529	O	0.069048	0.694691	0.878510
	O1530	O	0.077951	0.693466	0.990321
	O1531	O	0.078376	0.810260	0.990462
	O1532	O	0.042602	0.695549	0.988813
	O1533	O	0.042950	0.812150	0.988826
	O1534	O	0.069231	0.811462	0.878532
	O1535	O	0.104675	0.810504	0.880674
	O1536	O	0.104731	0.193933	0.880707
	O1537	O	0.069310	0.194377	0.878582
	O1538	O	0.078247	0.194731	0.990456
	O1539	O	0.078026	0.311512	0.990313
	O1540	O	0.043032	0.192996	0.988862
	O1541	O	0.042634	0.309708	0.988824
	O1542	O	0.069213	0.311097	0.878569
	O1543	O	0.104468	0.310713	0.880823
	H1544	H	0.041972	0.643827	0.957869
	H1545	H	0.042774	0.863116	0.957790
	H1546	H	0.042545	0.141976	0.957849
	H1547	H	0.041864	0.361605	0.957909
	H1548	H	0.048793	0.862755	0.907182
	H1549	H	0.048376	0.644152	0.907160
	H1550	H	0.048402	0.362112	0.907208
	H1551	H	0.048731	0.142929	0.907241
	H1552	H	0.118402	0.064352	0.932970
	H1553	H	0.112675	0.064551	0.935902
	H1554	H	0.112767	0.940825	0.935853
	H1555	H	0.118488	0.940968	0.932940
	H1556	H	0.130113	0.064541	0.934470
	H1557	H	0.130039	0.941320	0.934444
	H1558	H	0.024413	0.064855	0.935154
	H1559	H	0.024489	0.941223	0.935207
	H1560	H	0.030630	0.064525	0.934596
	H1561	H	0.030714	0.941156	0.934609
	H1562	H	0.032912	0.064154	0.930578
	H1563	H	0.032899	0.941328	0.930602
	H1564	H	0.033564	0.440648	0.931929
	H1565	H	0.030830	0.440947	0.929076
	H1566	H	0.028499	0.440812	0.935241
	H1567	H	0.127246	0.441261	0.932387
	H1568	H	0.134179	0.440956	0.938433
	H1569	H	0.128967	0.440996	0.942477
	H1570	H	0.030779	0.564209	0.929006
	H1571	H	0.033527	0.563952	0.931888
	H1572	H	0.129023	0.564157	0.942497
	H1573	H	0.134223	0.564483	0.938464
	H1574	H	0.127315	0.564636	0.932374
	H1575	H	0.028478	0.564684	0.935209
	H1576	H	0.094354	0.643334	0.960765
	H1577	H	0.095667	0.862873	0.961139
	H1578	H	0.095390	0.142131	0.961048
	H1579	H	0.094592	0.361729	0.960826
	H1580	H	0.057553	0.643920	0.891714
	H1581	H	0.104618	0.643218	0.895418
	H1582	H	0.105582	0.862613	0.895353
	H1583	H	0.057988	0.862325	0.891757
	H1584	H	0.103053	0.643651	0.911671
	H1585	H	0.103925	0.863353	0.911634
	H1586	H	0.086617	0.642569	0.976464
	H1587	H	0.087971	0.862224	0.976833
	H1588	H	0.085739	0.441169	0.865024
	H1589	H	0.050963	0.440730	0.996200
	H1590	H	0.095897	0.440952	0.866776
	H1591	H	0.097760	0.441057	0.870339
	H1592	H	0.057627	0.440731	1.005195
	H1593	H	0.049803	0.440455	1.002339
	H1594	H	0.050941	0.563974	0.996178
	H1595	H	0.085586	0.563889	0.864989
	H1596	H	0.049770	0.564378	1.002349
	H1597	H	0.057524	0.564023	1.005216
	H1598	H	0.097769	0.564857	0.870332
	H1599	H	0.095834	0.564171	0.866693
	H1600	H	0.087708	0.142668	0.976754
	H1601	H	0.086918	0.362558	0.976509
	H1602	H	0.082285	0.064056	0.868698
	H1603	H	0.084150	0.064230	0.871289
	H1604	H	0.087230	0.064442	0.866172
	H1605	H	0.041300	0.863789	0.974103
	H1606	H	0.040471	0.644128	0.974130
	H1607	H	0.040454	0.361305	0.974163
	H1608	H	0.041189	0.141524	0.974154
	H1609	H	0.057989	0.142823	0.891791
	H1610	H	0.105368	0.141671	0.895359
	H1611	H	0.104728	0.361369	0.895472
	H1612	H	0.057700	0.362267	0.891774
	H1613	H	0.103726	0.141175	0.911642
	H1614	H	0.103056	0.360845	0.911732
	H1615	H	0.066606	0.064306	0.999632
	H1616	H	0.063094	0.064571	0.997333
	H1617	H	0.055374	0.064062	0.997559
	H1618	H	0.084235	0.940726	0.871323
	H1619	H	0.082299	0.940637	0.868769
	H1620	H	0.087136	0.940825	0.866163
	H1621	H	0.066592	0.940667	0.999602
	H1622	H	0.063069	0.941267	0.997310
	H1623	H	0.055331	0.941214	0.997565
	Zn1624	Zn	0.025725	0.680315	0.931645
	Zn1625	Zn	0.025656	0.825326	0.931647
	Zn1626	Zn	0.025695	0.180438	0.931648
	Zn1627	Zn	0.025743	0.325247	0.931688
	Zn1628	Zn	0.059466	0.680314	0.999991
	Zn1629	Zn	0.059944	0.824690	1.000058
	Zn1630	Zn	0.059966	0.180436	1.000098
	Zn1631	Zn	0.059650	0.324855	0.999996
	C1632	C	0.104235	0.753721	0.922528
	C1633	C	0.042406	0.753072	0.946995
	C1634	C	0.042767	0.753380	0.956862
	C1635	C	0.041919	0.691492	0.961492
	C1636	C	0.042355	0.815716	0.961448
	C1637	C	0.042326	0.251871	0.947055
	C1638	C	0.042641	0.251781	0.956903
	C1639	C	0.042193	0.189571	0.961494
	C1640	C	0.041791	0.313810	0.961522
	C1641	C	0.042673	0.753195	0.917432
	C1642	C	0.048309	0.753423	0.908164
	C1643	C	0.050695	0.815184	0.903749
	C1644	C	0.050495	0.691537	0.903743
	C1645	C	0.042657	0.252679	0.917443
	C1646	C	0.048258	0.252541	0.908165
	C1647	C	0.050516	0.314529	0.903762
	C1648	C	0.050724	0.190489	0.903780
	C1649	C	0.117414	0.043276	0.935262
	C1650	C	0.117441	0.962401	0.935244
	C1651	C	0.027105	0.043416	0.934037
	C1652	C	0.027121	0.962386	0.934043
	C1653	C	0.029377	0.043149	0.930046
	C1654	C	0.029374	0.962310	0.930043
	C1655	C	0.030588	0.462137	0.930798
	C1656	C	0.122114	0.462637	0.933591
	C1657	C	0.129086	0.462314	0.939663
	C1658	C	0.030568	0.543005	0.930786
	C1659	C	0.129085	0.543093	0.939666
	C1660	C	0.122158	0.543302	0.933588
	C1661	C	0.101302	0.753312	0.950704
	C1662	C	0.101227	0.251585	0.950673
	C1663	C	0.095376	0.753085	0.959981
	C1664	C	0.092905	0.690823	0.964343
	C1665	C	0.093616	0.815028	0.964549
	C1666	C	0.095230	0.251811	0.959937
	C1667	C	0.093466	0.189954	0.964498
	C1668	C	0.092997	0.314117	0.964363
	C1669	C	0.104118	0.251429	0.922585
	C1670	C	0.105220	0.752357	0.884548
	C1671	C	0.065753	0.753101	0.881843
	C1672	C	0.041687	0.753920	0.984998
	C1673	C	0.103539	0.691270	0.908043
	C1674	C	0.104052	0.815393	0.908013
	C1675	C	0.105449	0.752858	0.894391
	C1676	C	0.058423	0.753086	0.890818
	C1677	C	0.055570	0.691341	0.895164
	C1678	C	0.104523	0.691037	0.899018
	C1679	C	0.105053	0.815024	0.898978
	C1680	C	0.055793	0.815001	0.895172
	C1681	C	0.103300	0.753486	0.912654
	C1682	C	0.081025	0.751931	0.986910
	C1683	C	0.088702	0.690466	0.973072
	C1684	C	0.089415	0.814560	0.973278
	C1685	C	0.087021	0.752216	0.977664
	C1686	C	0.056387	0.462060	0.996581
	C1687	C	0.094740	0.462418	0.868733
	C1688	C	0.055222	0.461831	1.002772
	C1689	C	0.056367	0.542821	0.996604
	C1690	C	0.055194	0.542937	1.002766
	C1691	C	0.094704	0.543209	0.868716
	C1692	C	0.080966	0.252955	0.986895
	C1693	C	0.089246	0.190335	0.973226
	C1694	C	0.088809	0.314517	0.973093
	C1695	C	0.086931	0.252597	0.977638
	C1696	C	0.084775	0.042956	0.869802
	C1697	C	0.105195	0.252101	0.884596
	C1698	C	0.065838	0.252713	0.881893
	C1699	C	0.041703	0.251231	0.985027
	C1700	C	0.103854	0.189006	0.908039
	C1701	C	0.103493	0.313255	0.908104
	C1702	C	0.105363	0.251578	0.894441
	C1703	C	0.058433	0.252592	0.890849
	C1704	C	0.040710	0.753986	0.975120
	C1705	C	0.041432	0.816044	0.970491
	C1706	C	0.040974	0.691815	0.970525
	C1707	C	0.040647	0.251347	0.975153
	C1708	C	0.040878	0.313612	0.970553
	C1709	C	0.041275	0.189317	0.970529
	C1710	C	0.055792	0.190509	0.895196
	C1711	C	0.104901	0.189267	0.899006
	C1712	C	0.104540	0.313479	0.899079
	C1713	C	0.055591	0.314573	0.895186
	C1714	C	0.103145	0.251024	0.912693
	C1715	C	0.063564	0.043070	0.998913
	C1716	C	0.089677	0.043048	0.867211
	C1717	C	0.084783	0.962162	0.869822
	C1718	C	0.063555	0.962036	0.998897
	C1719	C	0.089655	0.962197	0.867209
	N1720	N	0.025815	0.070096	0.931643
	N1721	N	0.025807	0.935526	0.931647
	N1722	N	0.025887	0.435447	0.931690
	N1723	N	0.025903	0.570048	0.931681
	N1724	N	0.059601	0.435161	0.999958
	N1725	N	0.059565	0.569760	0.999972
	N1726	N	0.059900	0.069912	1.000126
	N1727	N	0.059930	0.935236	1.000116
	O1728	O	0.245948	0.694541	0.049364
	O1729	O	0.245991	0.810680	0.049384
	O1730	O	0.115178	0.694344	0.077638
	O1731	O	0.115418	0.810468	0.077610
	O1732	O	0.115481	0.194440	0.077582
	O1733	O	0.115318	0.310857	0.077623
	O1734	O	0.112985	0.693659	0.059044
	O1735	O	0.113198	0.810518	0.059105
	O1736	O	0.113221	0.194690	0.059065
	O1737	O	0.112962	0.311494	0.059024
	O1738	O	0.248239	0.693844	0.067996
	O1739	O	0.248369	0.810485	0.068047
	O1740	O	0.248130	0.194101	0.067987
	O1741	O	0.248321	0.310923	0.068009
	O1742	O	0.245846	0.194427	0.049316
	O1743	O	0.245907	0.310778	0.049349
	O1744	O	0.177840	0.694906	0.015190
	O1745	O	0.141387	0.694338	0.016490
	O1746	O	0.219778	0.694454	0.110530
	O1747	O	0.219830	0.810962	0.110508
	O1748	O	0.183365	0.694790	0.111858
	O1749	O	0.183351	0.810953	0.111856
	O1750	O	0.141463	0.810840	0.016585
	O1751	O	0.177883	0.811249	0.015169
	O1752	O	0.177892	0.194898	0.015168
	O1753	O	0.141689	0.194756	0.016552
	O1754	O	0.219679	0.194425	0.110499
	O1755	O	0.219625	0.310899	0.110434
	O1756	O	0.183434	0.194441	0.111892
	O1757	O	0.183383	0.310759	0.111852
	O1758	O	0.141456	0.311063	0.016557
	O1759	O	0.177755	0.311196	0.015195
	H1760	H	0.137252	0.644066	0.088608
	H1761	H	0.137175	0.860423	0.088537
	H1762	H	0.137565	0.144092	0.088439
	H1763	H	0.137450	0.361179	0.088530
	H1764	H	0.124135	0.861705	0.045895
	H1765	H	0.124330	0.642474	0.045831
	H1766	H	0.124254	0.362369	0.045865
	H1767	H	0.124612	0.143615	0.045901
	H1768	H	0.269522	0.064455	0.056796
	H1769	H	0.265725	0.064298	0.056671
	H1770	H	0.265827	0.940691	0.056749
	H1771	H	0.269511	0.941105	0.056867
	H1772	H	0.271964	0.064604	0.059030
	H1773	H	0.271985	0.941406	0.059119
	H1774	H	0.099097	0.064398	0.069188
	H1775	H	0.099099	0.940595	0.069186
	H1776	H	0.098125	0.064320	0.066881
	H1777	H	0.098132	0.940928	0.066926
	H1778	H	0.091998	0.064299	0.065744
	H1779	H	0.092032	0.941093	0.065738
	H1780	H	0.090433	0.441640	0.068885
	H1781	H	0.092463	0.441195	0.069773
	H1782	H	0.091116	0.440889	0.067208
	H1783	H	0.273731	0.441557	0.059858
	H1784	H	0.267692	0.441476	0.061688
	H1785	H	0.262794	0.441323	0.060404
	H1786	H	0.092439	0.564630	0.069776
	H1787	H	0.090410	0.564490	0.068886
	H1788	H	0.262918	0.564873	0.060456
	H1789	H	0.267759	0.564598	0.061678
	H1790	H	0.273707	0.565060	0.059840
	H1791	H	0.091132	0.564543	0.067192
	H1792	H	0.236669	0.642815	0.081162
	H1793	H	0.237045	0.861469	0.081188
	H1794	H	0.237043	0.142613	0.081253
	H1795	H	0.236670	0.362027	0.081126
	H1796	H	0.133546	0.642660	0.030381
	H1797	H	0.199853	0.644882	0.026029
	H1798	H	0.199987	0.861147	0.026094
	H1799	H	0.133299	0.861895	0.030430
	H1800	H	0.224034	0.644464	0.038415
	H1801	H	0.224142	0.860985	0.038479
	H1802	H	0.227483	0.643208	0.096633
	H1803	H	0.227883	0.861780	0.096644
	H1804	H	0.160867	0.441227	0.004352
	H1805	H	0.208204	0.441247	0.119987
	H1806	H	0.160915	0.441282	0.007693
	H1807	H	0.156457	0.440842	0.008835
	H1808	H	0.201498	0.440733	0.120440
	H1809	H	0.203722	0.441100	0.119313
	H1810	H	0.208161	0.564331	0.119993
	H1811	H	0.160894	0.564373	0.004361
	H1812	H	0.203755	0.564070	0.119331
	H1813	H	0.201500	0.564514	0.120429
	H1814	H	0.156529	0.564944	0.008839
	H1815	H	0.160989	0.564198	0.007734
	H1816	H	0.227693	0.142871	0.096659
	H1817	H	0.227392	0.362256	0.096562
	H1818	H	0.157212	0.064658	0.008592
	H1819	H	0.161002	0.064463	0.007261
	H1820	H	0.151031	0.064747	0.007172
	H1821	H	0.161356	0.860633	0.100907
	H1822	H	0.161475	0.644722	0.100966
	H1823	H	0.161641	0.361012	0.100894
	H1824	H	0.161704	0.143894	0.100803
	H1825	H	0.133783	0.143550	0.030457
	H1826	H	0.199858	0.144424	0.026069
	H1827	H	0.199870	0.361698	0.026066
	H1828	H	0.133456	0.362472	0.030413
	H1829	H	0.224043	0.144437	0.038432
	H1830	H	0.224103	0.361542	0.038415
	H1831	H	0.212450	0.064372	0.125096
	H1832	H	0.215789	0.064362	0.121313
	H1833	H	0.208398	0.064753	0.116518
	H1834	H	0.161042	0.941263	0.007330
	H1835	H	0.157158	0.941160	0.008604
	H1836	H	0.151029	0.941252	0.007177
	H1837	H	0.212427	0.940712	0.125090
	H1838	H	0.215714	0.941185	0.121301
	H1839	H	0.208307	0.941096	0.116494
	Zn1840	Zn	0.093401	0.680453	0.068339
	Zn1841	Zn	0.093603	0.825397	0.068319
	Zn1842	Zn	0.093645	0.180306	0.068373
	Zn1843	Zn	0.093509	0.325463	0.068353
	Zn1844	Zn	0.205141	0.679956	0.121145
	Zn1845	Zn	0.205060	0.825105	0.121147
	Zn1846	Zn	0.205263	0.180120	0.121194
	Zn1847	Zn	0.205095	0.325107	0.121125
	C1848	C	0.240181	0.752626	0.046584
	C1849	C	0.121107	0.752252	0.080411
	C1850	C	0.135807	0.752223	0.087792
	C1851	C	0.142634	0.691152	0.091324
	C1852	C	0.142580	0.813474	0.091301
	C1853	C	0.121217	0.252712	0.080388
	C1854	C	0.135898	0.252750	0.087790
	C1855	C	0.142787	0.191219	0.091254
	C1856	C	0.142755	0.314092	0.091295
	C1857	C	0.116452	0.752088	0.055764
	C1858	C	0.123758	0.752054	0.046796
	C1859	C	0.126356	0.814175	0.042465
	C1860	C	0.126463	0.690099	0.042417
	C1861	C	0.116491	0.253099	0.055739
	C1862	C	0.123828	0.253001	0.046781
	C1863	C	0.126449	0.314937	0.042431
	C1864	C	0.126627	0.191116	0.042446
	C1865	C	0.267638	0.043154	0.057258
	C1866	C	0.267681	0.962257	0.057296
	C1867	C	0.097244	0.043133	0.068108
	C1868	C	0.097246	0.962033	0.068117
	C1869	C	0.091069	0.043125	0.066907
	C1870	C	0.091082	0.962324	0.066908
	C1871	C	0.091892	0.462747	0.069077
	C1872	C	0.272018	0.462583	0.058570
	C1873	C	0.265936	0.462723	0.060433
	C1874	C	0.091881	0.543326	0.069083
	C1875	C	0.265985	0.543500	0.060422
	C1876	C	0.272024	0.543597	0.058571
	C1877	C	0.244880	0.752113	0.071337
	C1878	C	0.244785	0.252517	0.071306
	C1879	C	0.237427	0.752129	0.080276
	C1880	C	0.234612	0.690289	0.084612
	C1881	C	0.234828	0.814095	0.084620
	C1882	C	0.237317	0.252494	0.080253
	C1883	C	0.234689	0.190389	0.084619
	C1884	C	0.234520	0.314585	0.084564
	C1885	C	0.240121	0.252678	0.046537
	C1886	C	0.183643	0.753081	0.017981
	C1887	C	0.139181	0.752450	0.020134
	C1888	C	0.177573	0.752859	0.109057
	C1889	C	0.218613	0.691545	0.035701
	C1890	C	0.218685	0.814037	0.035735
	C1891	C	0.198365	0.753001	0.025359
	C1892	C	0.133697	0.752302	0.029443
	C1893	C	0.131448	0.690169	0.033826
	C1894	C	0.205213	0.691748	0.028826
	C1895	C	0.205270	0.814137	0.028863
	C1896	C	0.131316	0.814271	0.033869
	C1897	C	0.225431	0.752693	0.039232
	C1898	C	0.221987	0.752627	0.106919
	C1899	C	0.229579	0.690561	0.093201
	C1900	C	0.229773	0.814208	0.093204
	C1901	C	0.227411	0.752462	0.097628
	C1902	C	0.207807	0.462339	0.120871
	C1903	C	0.157914	0.462407	0.007654
	C1904	C	0.203349	0.462147	0.120199
	C1905	C	0.207804	0.543101	0.120878
	C1906	C	0.203358	0.543034	0.120203
	C1907	C	0.157952	0.543126	0.007659
	C1908	C	0.221876	0.252609	0.106876
	C1909	C	0.229670	0.190416	0.093208
	C1910	C	0.229482	0.314594	0.093146
	C1911	C	0.227264	0.252541	0.097584
	C1912	C	0.158224	0.043439	0.007394
	C1913	C	0.183652	0.253073	0.017963
	C1914	C	0.139353	0.252849	0.020156
	C1915	C	0.177623	0.252520	0.109078
	C1916	C	0.218609	0.191521	0.035690
	C1917	C	0.218639	0.314479	0.035678
	C1918	C	0.198362	0.253055	0.025331
	C1919	C	0.133898	0.252952	0.029447
	C1920	C	0.162842	0.752758	0.101697
	C1921	C	0.155963	0.813735	0.098185
	C1922	C	0.156015	0.691487	0.098206
	C1923	C	0.162882	0.252472	0.101715
	C1924	C	0.156139	0.313918	0.098183
	C1925	C	0.156174	0.191101	0.098136
	C1926	C	0.131681	0.191064	0.033866
	C1927	C	0.205192	0.191569	0.028831
	C1928	C	0.205225	0.314505	0.028818
	C1929	C	0.131501	0.314866	0.033850
	C1930	C	0.225415	0.252922	0.039179
	C1931	C	0.211834	0.043002	0.122684
	C1932	C	0.152065	0.043324	0.005980
	C1933	C	0.158233	0.962573	0.007401
	C1934	C	0.211790	0.962237	0.122671
	C1935	C	0.152060	0.962314	0.005984
	N1936	N	0.093475	0.069957	0.068349
	N1937	N	0.093503	0.935386	0.068351
	N1938	N	0.093324	0.435497	0.068359
	N1939	N	0.093279	0.570085	0.068349
	N1940	N	0.205265	0.435503	0.121148
	N1941	N	0.205270	0.570031	0.121158
	N1942	N	0.205383	0.070058	0.121217
	N1943	N	0.205272	0.935467	0.121198
	O1944	O	0.218711	0.694623	0.178058
	O1945	O	0.218889	0.811329	0.178118
	O1946	O	0.159225	0.694574	0.195037
	O1947	O	0.159147	0.811349	0.195099
	O1948	O	0.159228	0.194178	0.195117
	O1949	O	0.159263	0.311085	0.195077
	O1950	O	0.157393	0.694558	0.172986
	O1951	O	0.157325	0.811051	0.172967
	O1952	O	0.157345	0.194323	0.173003
	O1953	O	0.157355	0.310641	0.172976
	O1954	O	0.220650	0.694236	0.200159
	O1955	O	0.220626	0.810696	0.200190
	O1956	O	0.220696	0.194829	0.200212
	O1957	O	0.220549	0.311385	0.200154
	O1958	O	0.218933	0.195255	0.178074
	O1959	O	0.218861	0.312155	0.178110
	O1960	O	0.221356	0.694362	0.132581
	O1961	O	0.185847	0.694026	0.130490
	O1962	O	0.192127	0.693917	0.242677
	O1963	O	0.192254	0.810643	0.242755
	O1964	O	0.156624	0.694240	0.240617
	O1965	O	0.156508	0.811105	0.240628
	O1966	O	0.185811	0.810889	0.130500
	O1967	O	0.221449	0.810978	0.132531
	O1968	O	0.221392	0.195129	0.132585
	O1969	O	0.185863	0.194544	0.130491
	O1970	O	0.192289	0.194514	0.242693
	O1971	O	0.192315	0.311240	0.242731
	O1972	O	0.156598	0.194576	0.240635
	O1973	O	0.156760	0.311213	0.240656
	O1974	O	0.185714	0.311297	0.130452
	O1975	O	0.221458	0.311958	0.132546
	H1976	H	0.159599	0.642754	0.209749
	H1977	H	0.159191	0.862432	0.209725
	H1978	H	0.159214	0.143234	0.209742
	H1979	H	0.159309	0.362393	0.209772
	H1980	H	0.165245	0.862141	0.159116
	H1981	H	0.165393	0.643224	0.159170
	H1982	H	0.165189	0.361516	0.159109
	H1983	H	0.165479	0.143245	0.159138
	H1984	H	0.242011	0.064512	0.191112
	H1985	H	0.241744	0.064241	0.188046
	H1986	H	0.241785	0.940899	0.188040
	H1987	H	0.242084	0.940725	0.191114
	H1988	H	0.234792	0.064779	0.193078
	H1989	H	0.234813	0.941484	0.193099
	H1990	H	0.133519	0.064196	0.186862
	H1991	H	0.133486	0.941156	0.186816
	H1992	H	0.142333	0.064449	0.189345
	H1993	H	0.142442	0.941213	0.189340
	H1994	H	0.153889	0.064693	0.186115
	H1995	H	0.153935	0.941434	0.186133
	H1996	H	0.137290	0.440692	0.186843
	H1997	H	0.144779	0.440966	0.187982
	H1998	H	0.134384	0.441127	0.182037
	H1999	H	0.234656	0.441474	0.186869
	H2000	H	0.240196	0.441456	0.188510
	H2001	H	0.240332	0.441218	0.190758
	H2002	H	0.144751	0.564366	0.187989
	H2003	H	0.137378	0.564345	0.186870
	H2004	H	0.240227	0.564324	0.190734
	H2005	H	0.240164	0.564555	0.188493
	H2006	H	0.234533	0.564679	0.186844
	H2007	H	0.134402	0.564328	0.182022
	H2008	H	0.212565	0.643218	0.213991
	H2009	H	0.212781	0.861641	0.214081
	H2010	H	0.213019	0.143853	0.214070
	H2011	H	0.212498	0.362794	0.213996
	H2012	H	0.174695	0.642994	0.143714
	H2013	H	0.221413	0.643441	0.147202
	H2014	H	0.221643	0.862648	0.147199
	H2015	H	0.174463	0.861984	0.143682
	H2016	H	0.218684	0.643423	0.163398
	H2017	H	0.218912	0.862644	0.163413
	H2018	H	0.203372	0.642817	0.229453
	H2019	H	0.203616	0.861603	0.229542
	H2020	H	0.209128	0.441203	0.121527
	H2021	H	0.173537	0.441358	0.248652
	H2022	H	0.205924	0.441125	0.123045
	H2023	H	0.202701	0.440755	0.122519
	H2024	H	0.166412	0.440622	0.253326
	H2025	H	0.166317	0.440983	0.250426
	H2026	H	0.173516	0.564647	0.248659
	H2027	H	0.209163	0.564557	0.121549
	H2028	H	0.166403	0.563947	0.250463
	H2029	H	0.166402	0.564050	0.253288
	H2030	H	0.202656	0.564475	0.122519
	H2031	H	0.205993	0.564168	0.123078
	H2032	H	0.203834	0.143804	0.229500
	H2033	H	0.203323	0.362795	0.229482
	H2034	H	0.195063	0.064256	0.121981
	H2035	H	0.200454	0.064528	0.125516
	H2036	H	0.199665	0.064414	0.116821
	H2037	H	0.156361	0.862525	0.225934
	H2038	H	0.156789	0.642856	0.225936
	H2039	H	0.156631	0.362701	0.225969
	H2040	H	0.156566	0.142881	0.225953
	H2041	H	0.174603	0.143437	0.143678
	H2042	H	0.221537	0.143752	0.147256
	H2043	H	0.221641	0.363581	0.147213
	H2044	H	0.174419	0.361985	0.143657
	H2045	H	0.218776	0.143815	0.163447
	H2046	H	0.218900	0.363745	0.163426
	H2047	H	0.175668	0.064453	0.252971
	H2048	H	0.176014	0.064190	0.251643
	H2049	H	0.173001	0.063882	0.250473
	H2050	H	0.200386	0.940438	0.125519
	H2051	H	0.195027	0.940959	0.121982
	H2052	H	0.199593	0.941456	0.116838
	H2053	H	0.175703	0.940343	0.253013
	H2054	H	0.176111	0.940865	0.251619
	H2055	H	0.172935	0.941184	0.250467
	Zn2056	Zn	0.142941	0.680217	0.183693
	Zn2057	Zn	0.142877	0.825383	0.183665
	Zn2058	Zn	0.142912	0.180249	0.183692
	Zn2059	Zn	0.142981	0.325327	0.183672
	Zn2060	Zn	0.172829	0.679970	0.252019
	Zn2061	Zn	0.172907	0.825132	0.252052
	Zn2062	Zn	0.172996	0.179783	0.252033
	Zn2063	Zn	0.172961	0.325248	0.252059
	C2064	C	0.218288	0.753076	0.174247
	C2065	C	0.159779	0.752835	0.198903
	C2066	C	0.159703	0.752624	0.208756
	C2067	C	0.158901	0.690469	0.213348
	C2068	C	0.158691	0.814751	0.213350
	C2069	C	0.159793	0.252723	0.198933
	C2070	C	0.159683	0.252805	0.208789
	C2071	C	0.158740	0.190786	0.213369
	C2072	C	0.158756	0.314813	0.213389
	C2073	C	0.159553	0.752758	0.169383
	C2074	C	0.165057	0.752624	0.160093
	C2075	C	0.167293	0.814636	0.155677
	C2076	C	0.167407	0.690624	0.155701
	C2077	C	0.159563	0.252432	0.169387
	C2078	C	0.165022	0.252414	0.160083
	C2079	C	0.167268	0.314251	0.155667
	C2080	C	0.167411	0.190715	0.155680
	C2081	C	0.240039	0.043219	0.189567
	C2082	C	0.240098	0.962198	0.189574
	C2083	C	0.139266	0.043125	0.186930
	C2084	C	0.139297	0.962424	0.186924
	C2085	C	0.150796	0.043446	0.183728
	C2086	C	0.150839	0.962508	0.183709
	C2087	C	0.141575	0.462107	0.186430
	C2088	C	0.233280	0.462423	0.187913
	C2089	C	0.238880	0.462476	0.189611
	C2090	C	0.141596	0.543136	0.186434
	C2091	C	0.238827	0.543154	0.189591
	C2092	C	0.233216	0.543380	0.187899
	C2093	C	0.218403	0.752417	0.203762
	C2094	C	0.218386	0.253187	0.203767
	C2095	C	0.212921	0.752434	0.213079
	C2096	C	0.210560	0.690569	0.217462
	C2097	C	0.210696	0.814215	0.217519
	C2098	C	0.212986	0.253387	0.213070
	C2099	C	0.210895	0.191455	0.217495
	C2100	C	0.210594	0.315260	0.217465
	C2101	C	0.218361	0.253779	0.174262
	C2102	C	0.222001	0.752798	0.136386
	C2103	C	0.182442	0.752390	0.133803
	C2104	C	0.156035	0.752710	0.236778
	C2105	C	0.219287	0.691032	0.159792
	C2106	C	0.219406	0.814999	0.159801
	C2107	C	0.221932	0.752992	0.146216
	C2108	C	0.175116	0.752366	0.142769
	C2109	C	0.172464	0.690487	0.147123
	C2110	C	0.220943	0.691061	0.150806
	C2111	C	0.221068	0.814943	0.150811
	C2112	C	0.172344	0.814429	0.147097
	C2113	C	0.218437	0.753037	0.164386
	C2114	C	0.195610	0.752362	0.239402
	C2115	C	0.205573	0.690470	0.226060
	C2116	C	0.205705	0.814167	0.226116
	C2117	C	0.202914	0.752303	0.230444
	C2118	C	0.175247	0.462158	0.250184
	C2119	C	0.204605	0.462295	0.122363
	C2120	C	0.168051	0.462213	0.251934
	C2121	C	0.175199	0.543130	0.250161
	C2122	C	0.168049	0.543009	0.251919
	C2123	C	0.204599	0.543077	0.122364
	C2124	C	0.195689	0.252980	0.239389
	C2125	C	0.205898	0.191369	0.226087
	C2126	C	0.205597	0.315258	0.226059
	C2127	C	0.203019	0.253280	0.230427
	C2128	C	0.199787	0.043090	0.123083
	C2129	C	0.221976	0.253648	0.136403
	C2130	C	0.182397	0.252912	0.133787
	C2131	C	0.156126	0.252955	0.236809
	C2132	C	0.219321	0.191646	0.159835
	C2133	C	0.219388	0.315961	0.159818
	C2134	C	0.221897	0.253729	0.146250
	C2135	C	0.175041	0.252695	0.142735
	C2136	C	0.156163	0.752653	0.226927
	C2137	C	0.157010	0.814754	0.222335
	C2138	C	0.157216	0.690578	0.222333
	C2139	C	0.156241	0.252857	0.226973
	C2140	C	0.157144	0.314914	0.222381
	C2141	C	0.157118	0.190770	0.222362
	C2142	C	0.172434	0.190833	0.147092
	C2143	C	0.220958	0.191607	0.150847
	C2144	C	0.221038	0.315875	0.150826
	C2145	C	0.172299	0.314456	0.147080
	C2146	C	0.218466	0.253848	0.164409
	C2147	C	0.175003	0.043060	0.252243
	C2148	C	0.204425	0.043372	0.117868
	C2149	C	0.199748	0.962149	0.123081
	C2150	C	0.175032	0.961963	0.252259
	C2151	C	0.204347	0.962522	0.117860
	N2152	N	0.142930	0.070055	0.183674
	N2153	N	0.142962	0.935510	0.183674
	N2154	N	0.143005	0.435601	0.183674
	N2155	N	0.142982	0.570101	0.183672
	N2156	N	0.172806	0.435485	0.252087
	N2157	N	0.172804	0.569965	0.252060
	N2158	N	0.172812	0.069773	0.252011
	N2159	N	0.172796	0.935272	0.252026
	O2160	O	0.262655	0.694230	0.295557
	O2161	O	0.262679	0.810392	0.295525
	O2162	O	0.132334	0.695095	0.323919
	O2163	O	0.132236	0.811264	0.323920
	O2164	O	0.132281	0.194867	0.323936
	O2165	O	0.132313	0.310887	0.323856
	O2166	O	0.129815	0.694356	0.305200
	O2167	O	0.129841	0.811142	0.305230
	O2168	O	0.129921	0.194744	0.305238
	O2169	O	0.129807	0.311477	0.305214
	O2170	O	0.264692	0.694271	0.314157
	O2171	O	0.264690	0.811057	0.314184
	O2172	O	0.264738	0.194180	0.314188
	O2173	O	0.264863	0.310973	0.314195
	O2174	O	0.262705	0.194824	0.295563
	O2175	O	0.262681	0.311181	0.295562
	O2176	O	0.194311	0.694216	0.261422
	O2177	O	0.158217	0.694908	0.262665
	O2178	O	0.236405	0.694898	0.356695
	O2179	O	0.236411	0.811393	0.356709
	O2180	O	0.200335	0.694676	0.358068
	O2181	O	0.200276	0.810920	0.358105
	O2182	O	0.158465	0.811371	0.262764
	O2183	O	0.194646	0.810583	0.261326
	O2184	O	0.194632	0.194774	0.261357
	O2185	O	0.158476	0.194573	0.262716
	O2186	O	0.236377	0.194027	0.356706
	O2187	O	0.236487	0.310569	0.356723
	O2188	O	0.200203	0.195355	0.358142
	O2189	O	0.200455	0.311584	0.358059
	O2190	O	0.158306	0.311032	0.262678
	O2191	O	0.194603	0.310971	0.261380
	H2192	H	0.154414	0.645074	0.334725
	H2193	H	0.154123	0.861308	0.334842
	H2194	H	0.154138	0.145727	0.334872
	H2195	H	0.154357	0.360717	0.334734
	H2196	H	0.141402	0.862276	0.292089
	H2197	H	0.140824	0.643134	0.291972
	H2198	H	0.140929	0.362399	0.291983
	H2199	H	0.141158	0.143734	0.291984
	H2200	H	0.280405	0.064383	0.305206
	H2201	H	0.282589	0.064292	0.306523
	H2202	H	0.282475	0.941040	0.306486
	H2203	H	0.280405	0.941164	0.305141
	H2204	H	0.282005	0.064523	0.303186
	H2205	H	0.282014	0.941302	0.303205
	H2206	H	0.115284	0.064344	0.313532
	H2207	H	0.115244	0.941523	0.313558
	H2208	H	0.111591	0.065005	0.312051
	H2209	H	0.111604	0.940840	0.312121
	H2210	H	0.105905	0.064566	0.313102
	H2211	H	0.105861	0.941044	0.313086
	H2212	H	0.112457	0.441225	0.312929
	H2213	H	0.108884	0.441482	0.312680
	H2214	H	0.114730	0.440624	0.315046
	H2215	H	0.284005	0.440909	0.307007
	H2216	H	0.279991	0.441338	0.305293
	H2217	H	0.280760	0.441433	0.303495
	H2218	H	0.108938	0.564481	0.312659
	H2219	H	0.112608	0.564429	0.312898
	H2220	H	0.280833	0.564862	0.303466
	H2221	H	0.279989	0.564782	0.305280
	H2222	H	0.283961	0.564317	0.307070
	H2223	H	0.114787	0.564671	0.315077
	H2224	H	0.253443	0.643509	0.327388
	H2225	H	0.253711	0.862015	0.327415
	H2226	H	0.253510	0.142862	0.327380
	H2227	H	0.253307	0.361859	0.327381
	H2228	H	0.149984	0.643211	0.276499
	H2229	H	0.216355	0.644100	0.272290
	H2230	H	0.216476	0.860581	0.272284
	H2231	H	0.150637	0.862346	0.276633
	H2232	H	0.240534	0.643950	0.284678
	H2233	H	0.240678	0.860457	0.284633
	H2234	H	0.244265	0.643765	0.342847
	H2235	H	0.244525	0.862142	0.342876
	H2236	H	0.178776	0.440940	0.250351
	H2237	H	0.212759	0.441633	0.365153
	H2238	H	0.178711	0.441138	0.254244
	H2239	H	0.173529	0.441027	0.255541
	H2240	H	0.223299	0.441387	0.372307
	H2241	H	0.215079	0.441452	0.370709
	H2242	H	0.212721	0.564415	0.365161
	H2243	H	0.178692	0.564414	0.250289
	H2244	H	0.215069	0.565122	0.370721
	H2245	H	0.223202	0.564966	0.372338
	H2246	H	0.173439	0.564323	0.255518
	H2247	H	0.178704	0.564570	0.254213
	H2248	H	0.244334	0.142924	0.342844
	H2249	H	0.244128	0.361639	0.342830
	H2250	H	0.169943	0.064676	0.252685
	H2251	H	0.172165	0.064327	0.253550
	H2252	H	0.170401	0.064723	0.250867
	H2253	H	0.178303	0.861332	0.347246
	H2254	H	0.178515	0.644674	0.347112
	H2255	H	0.178515	0.361156	0.347113
	H2256	H	0.178311	0.145861	0.347253
	H2257	H	0.150326	0.143891	0.276530
	H2258	H	0.216703	0.144465	0.272282
	H2259	H	0.216327	0.361477	0.272325
	H2260	H	0.150052	0.362363	0.276512
	H2261	H	0.240914	0.144777	0.284640
	H2262	H	0.240627	0.361774	0.284685
	H2263	H	0.223006	0.064767	0.369884
	H2264	H	0.226559	0.064630	0.368831
	H2265	H	0.226135	0.064869	0.365920
	H2266	H	0.172113	0.941143	0.253559
	H2267	H	0.169860	0.941066	0.252671
	H2268	H	0.170329	0.940767	0.250877
	H2269	H	0.222950	0.941294	0.369894
	H2270	H	0.226547	0.941482	0.368832
	H2271	H	0.226096	0.941308	0.365953
	Zn2272	Zn	0.110634	0.680276	0.314588
	Zn2273	Zn	0.110551	0.825763	0.314618
	Zn2274	Zn	0.110667	0.180182	0.314606
	Zn2275	Zn	0.110552	0.325608	0.314596
	Zn2276	Zn	0.221899	0.680307	0.367438
	Zn2277	Zn	0.221894	0.825894	0.367421
	Zn2278	Zn	0.221923	0.180248	0.367436
	Zn2279	Zn	0.222128	0.325729	0.367432
	C2280	C	0.256832	0.752298	0.292756
	C2281	C	0.138047	0.753223	0.326712
	C2282	C	0.152815	0.753216	0.334058
	C2283	C	0.159720	0.691921	0.337507
	C2284	C	0.159591	0.814397	0.337571
	C2285	C	0.138077	0.252967	0.326689
	C2286	C	0.152824	0.253176	0.334039
	C2287	C	0.159584	0.192397	0.337587
	C2288	C	0.159690	0.314152	0.337513
	C2289	C	0.133261	0.752750	0.301905
	C2290	C	0.140594	0.752744	0.292948
	C2291	C	0.143467	0.814718	0.288642
	C2292	C	0.143143	0.690739	0.288568
	C2293	C	0.133248	0.253107	0.301900
	C2294	C	0.140604	0.253055	0.292937
	C2295	C	0.143152	0.314942	0.288569
	C2296	C	0.143292	0.191265	0.288564
	C2297	C	0.282256	0.043184	0.305591
	C2298	C	0.282225	0.962475	0.305567
	C2299	C	0.112599	0.043177	0.313253
	C2300	C	0.112612	0.962247	0.313276
	C2301	C	0.106853	0.043255	0.314265
	C2302	C	0.106843	0.962692	0.314255
	C2303	C	0.110560	0.462737	0.313273
	C2304	C	0.285458	0.462159	0.306320
	C2305	C	0.281466	0.462576	0.304524
	C2306	C	0.110610	0.543087	0.313262
	C2307	C	0.281500	0.543519	0.304534
	C2308	C	0.285475	0.543192	0.306359
	C2309	C	0.261305	0.752635	0.317494
	C2310	C	0.261394	0.252558	0.317505
	C2311	C	0.254031	0.752710	0.326479
	C2312	C	0.251334	0.690974	0.330825
	C2313	C	0.251491	0.814566	0.330845
	C2314	C	0.253988	0.252356	0.326451
	C2315	C	0.251362	0.190408	0.330813
	C2316	C	0.251260	0.314253	0.330802
	C2317	C	0.256912	0.253010	0.292772
	C2318	C	0.200241	0.752359	0.264178
	C2319	C	0.156071	0.753010	0.266306
	C2320	C	0.194494	0.752801	0.355313
	C2321	C	0.235234	0.691062	0.281890
	C2322	C	0.235306	0.813469	0.281872
	C2323	C	0.214983	0.752320	0.271517
	C2324	C	0.150636	0.752831	0.275602
	C2325	C	0.148154	0.690810	0.279976
	C2326	C	0.221797	0.691065	0.275022
	C2327	C	0.221874	0.813518	0.275011
	C2328	C	0.148494	0.814723	0.280050
	C2329	C	0.242102	0.752257	0.285386
	C2330	C	0.238600	0.753180	0.353119
	C2331	C	0.246325	0.691244	0.339412
	C2332	C	0.246474	0.814662	0.339433
	C2333	C	0.244077	0.753018	0.343834
	C2334	C	0.217688	0.462564	0.364828
	C2335	C	0.175239	0.462403	0.254156
	C2336	C	0.220024	0.462632	0.370447
	C2337	C	0.217644	0.543130	0.364830
	C2338	C	0.219972	0.543706	0.370441
	C2339	C	0.175218	0.543124	0.254126
	C2340	C	0.238629	0.252243	0.353125
	C2341	C	0.246364	0.190397	0.339405
	C2342	C	0.246255	0.314173	0.339395
	C2343	C	0.244092	0.252265	0.343825
	C2344	C	0.171480	0.043021	0.252841
	C2345	C	0.200392	0.252866	0.264168
	C2346	C	0.156130	0.252859	0.266275
	C2347	C	0.194541	0.253549	0.355308
	C2348	C	0.235491	0.191858	0.281885
	C2349	C	0.235310	0.314548	0.281907
	C2350	C	0.215134	0.252924	0.271527
	C2351	C	0.150624	0.253122	0.275568
	C2352	C	0.179816	0.752942	0.347928
	C2353	C	0.173017	0.814282	0.344442
	C2354	C	0.173140	0.691737	0.344369
	C2355	C	0.179837	0.253515	0.347928
	C2356	C	0.173116	0.314378	0.344378
	C2357	C	0.172986	0.192480	0.344457
	C2358	C	0.148302	0.191318	0.279970
	C2359	C	0.222065	0.191704	0.275019
	C2360	C	0.221853	0.314450	0.275048
	C2361	C	0.148172	0.314931	0.279974
	C2362	C	0.242226	0.253174	0.285401
	C2363	C	0.224112	0.043273	0.368863
	C2364	C	0.171958	0.042975	0.251045
	C2365	C	0.171453	0.962283	0.252849
	C2366	C	0.224096	0.962690	0.368861
	C2367	C	0.171932	0.962265	0.251026
	N2368	N	0.110476	0.070124	0.314565
	N2369	N	0.110429	0.935657	0.314593
	N2370	N	0.110428	0.435674	0.314658
	N2371	N	0.110493	0.570199	0.314648
	N2372	N	0.222265	0.435620	0.367431
	N2373	N	0.222176	0.570171	0.367433
	N2374	N	0.222135	0.070262	0.367432
	N2375	N	0.222156	0.935813	0.367434
	O2376	O	0.238309	0.695522	0.424563
	O2377	O	0.238587	0.812103	0.424556
	O2378	O	0.175170	0.694215	0.441384
	O2379	O	0.175317	0.810948	0.441354
	O2380	O	0.175345	0.195064	0.441404
	O2381	O	0.175132	0.311910	0.441444
	O2382	O	0.173957	0.694854	0.419209
	O2383	O	0.173857	0.811407	0.419186
	O2384	O	0.173766	0.195253	0.419127
	O2385	O	0.173807	0.311708	0.419107
	O2386	O	0.237242	0.695274	0.445390
	O2387	O	0.237256	0.812056	0.445390
	O2388	O	0.237200	0.194093	0.445366
	O2389	O	0.237208	0.310649	0.445387
	O2390	O	0.238589	0.193946	0.424498
	O2391	O	0.238414	0.310689	0.424530
	O2392	O	0.237775	0.695148	0.378933
	O2393	O	0.202333	0.694399	0.376717
	O2394	O	0.211389	0.694654	0.488586
	O2395	O	0.211260	0.811488	0.488592
	O2396	O	0.175839	0.694888	0.486981
	O2397	O	0.175897	0.811615	0.486991
	O2398	O	0.202411	0.811074	0.376706
	O2399	O	0.237920	0.812057	0.378915
	O2400	O	0.237898	0.193851	0.378921
	O2401	O	0.202169	0.194871	0.376636
	O2402	O	0.211200	0.194505	0.488570
	O2403	O	0.211297	0.311167	0.488555
	O2404	O	0.175839	0.194213	0.487018
	O2405	O	0.175583	0.310891	0.487012
	O2406	O	0.202501	0.311582	0.376666
	O2407	O	0.237899	0.310564	0.378938
	H2408	H	0.175387	0.643092	0.456017
	H2409	H	0.176019	0.862790	0.456029
	H2410	H	0.175986	0.143229	0.456081
	H2411	H	0.175380	0.362713	0.456132
	H2412	H	0.181799	0.862492	0.405301
	H2413	H	0.181932	0.643748	0.405356
	H2414	H	0.181904	0.362918	0.405290
	H2415	H	0.181736	0.143997	0.405281
	H2416	H	0.256605	0.064374	0.436638
	H2417	H	0.257561	0.064268	0.436073
	H2418	H	0.257669	0.941340	0.436127
	H2419	H	0.256568	0.941584	0.436685
	H2420	H	0.254292	0.065108	0.436404
	H2421	H	0.254371	0.941066	0.436381
	H2422	H	0.168494	0.064542	0.429793
	H2423	H	0.168382	0.940926	0.429826
	H2424	H	0.164829	0.064350	0.426641
	H2425	H	0.164757	0.941386	0.426648
	H2426	H	0.154611	0.064156	0.426221
	H2427	H	0.154627	0.941011	0.426211
	H2428	H	0.156864	0.441219	0.433580
	H2429	H	0.163818	0.441183	0.433453
	H2430	H	0.151101	0.441234	0.429727
	H2431	H	0.266382	0.440928	0.437892
	H2432	H	0.255479	0.441643	0.441220
	H2433	H	0.246642	0.441440	0.438975
	H2434	H	0.163834	0.564788	0.433415
	H2435	H	0.156833	0.564681	0.433577
	H2436	H	0.246597	0.564764	0.438994
	H2437	H	0.255401	0.564707	0.441251
	H2438	H	0.266447	0.564670	0.437919
	H2439	H	0.150979	0.564469	0.429703
	H2440	H	0.227955	0.643502	0.459070
	H2441	H	0.228383	0.863457	0.459215
	H2442	H	0.228296	0.142528	0.459225
	H2443	H	0.228040	0.362257	0.459082
	H2444	H	0.191149	0.643470	0.389923
	H2445	H	0.237763	0.643819	0.393596
	H2446	H	0.238316	0.863350	0.393546
	H2447	H	0.190872	0.862381	0.389844
	H2448	H	0.236363	0.644027	0.409859
	H2449	H	0.236922	0.863607	0.409847
	H2450	H	0.220216	0.643148	0.474765
	H2451	H	0.220673	0.863031	0.474907
	H2452	H	0.219304	0.441051	0.362615
	H2453	H	0.204020	0.441116	0.502481
	H2454	H	0.230564	0.440901	0.364829
	H2455	H	0.232197	0.441617	0.368915
	H2456	H	0.194555	0.441218	0.491580
	H2457	H	0.204546	0.441758	0.494818
	H2458	H	0.203979	0.564625	0.502498
	H2459	H	0.219214	0.564545	0.362644
	H2460	H	0.204579	0.564642	0.494867
	H2461	H	0.194606	0.564940	0.491545
	H2462	H	0.232090	0.564508	0.368925
	H2463	H	0.230411	0.564807	0.364848
	H2464	H	0.220539	0.142828	0.474876
	H2465	H	0.220228	0.362474	0.474775
	H2466	H	0.217091	0.064371	0.366358
	H2467	H	0.217518	0.064415	0.368521
	H2468	H	0.222093	0.064697	0.364951
	H2469	H	0.174345	0.862938	0.472298
	H2470	H	0.173725	0.642983	0.472292
	H2471	H	0.173612	0.362176	0.472401
	H2472	H	0.174244	0.142777	0.472339
	H2473	H	0.191000	0.144114	0.389851
	H2474	H	0.238476	0.142304	0.393585
	H2475	H	0.238214	0.361915	0.393587
	H2476	H	0.191163	0.362957	0.389838
	H2477	H	0.236871	0.142352	0.409860
	H2478	H	0.236587	0.362030	0.409840
	H2479	H	0.198954	0.065141	0.497921
	H2480	H	0.195998	0.064828	0.495802
	H2481	H	0.188982	0.064059	0.495867
	H2482	H	0.217501	0.940940	0.368502
	H2483	H	0.217197	0.941089	0.366366
	H2484	H	0.222139	0.941386	0.364907
	H2485	H	0.198942	0.941742	0.497954
	H2486	H	0.196022	0.941295	0.495836
	H2487	H	0.188974	0.941007	0.495861
	Zn2488	Zn	0.159327	0.680229	0.429865
	Zn2489	Zn	0.159332	0.825587	0.429851
	Zn2490	Zn	0.159478	0.180073	0.429888
	Zn2491	Zn	0.159281	0.325490	0.429859
	Zn2492	Zn	0.192868	0.680151	0.498144
	Zn2493	Zn	0.192869	0.825271	0.498229
	Zn2494	Zn	0.192969	0.180223	0.498232
	Zn2495	Zn	0.192858	0.325420	0.498170
	C2496	C	0.237418	0.753849	0.420725
	C2497	C	0.175856	0.752660	0.445201
	C2498	C	0.176111	0.752912	0.455056
	C2499	C	0.175283	0.690811	0.459652
	C2500	C	0.175611	0.815093	0.459657
	C2501	C	0.175833	0.253414	0.445264
	C2502	C	0.175997	0.253035	0.455118
	C2503	C	0.175480	0.190773	0.459703
	C2504	C	0.175135	0.314959	0.459732
	C2505	C	0.176100	0.753140	0.415606
	C2506	C	0.181575	0.753079	0.406311
	C2507	C	0.183805	0.814944	0.401882
	C2508	C	0.183933	0.691108	0.401915
	C2509	C	0.176025	0.253439	0.415534
	C2510	C	0.181492	0.253468	0.406257
	C2511	C	0.183866	0.315375	0.401852
	C2512	C	0.183792	0.191550	0.401857
	C2513	C	0.256736	0.043239	0.436205
	C2514	C	0.256742	0.962849	0.436231
	C2515	C	0.164819	0.043123	0.428666
	C2516	C	0.164770	0.962449	0.428678
	C2517	C	0.154594	0.043316	0.428279
	C2518	C	0.154562	0.962437	0.428282
	C2519	C	0.160141	0.462538	0.432555
	C2520	C	0.263181	0.462683	0.435602
	C2521	C	0.252175	0.462769	0.438947
	C2522	C	0.160124	0.543309	0.432551
	C2523	C	0.252178	0.543523	0.438965
	C2524	C	0.263196	0.543502	0.435624
	C2525	C	0.234447	0.753681	0.448886
	C2526	C	0.234338	0.252326	0.448880
	C2527	C	0.228477	0.753589	0.458153
	C2528	C	0.226284	0.691267	0.462585
	C2529	C	0.226541	0.815598	0.462666
	C2530	C	0.228402	0.252427	0.458145
	C2531	C	0.226462	0.190450	0.462659
	C2532	C	0.226284	0.314586	0.462588
	C2533	C	0.237439	0.252387	0.420704
	C2534	C	0.238437	0.753617	0.382742
	C2535	C	0.198973	0.752774	0.380029
	C2536	C	0.174835	0.753244	0.483164
	C2537	C	0.236718	0.691701	0.406230
	C2538	C	0.237029	0.815868	0.406217
	C2539	C	0.238664	0.753643	0.392594
	C2540	C	0.191578	0.752890	0.388971
	C2541	C	0.188929	0.690940	0.393326
	C2542	C	0.237764	0.691612	0.397201
	C2543	C	0.238072	0.815722	0.397188
	C2544	C	0.188837	0.814857	0.393294
	C2545	C	0.236438	0.753818	0.410844
	C2546	C	0.214155	0.753137	0.485102
	C2547	C	0.222128	0.691108	0.471319
	C2548	C	0.222381	0.815406	0.471402
	C2549	C	0.220181	0.753165	0.475838
	C2550	C	0.197271	0.462478	0.502188
	C2551	C	0.228959	0.462576	0.367011
	C2552	C	0.197777	0.462625	0.494509
	C2553	C	0.197269	0.543453	0.502183
	C2554	C	0.197801	0.543508	0.494513
	C2555	C	0.228914	0.543361	0.367028
	C2556	C	0.214053	0.252809	0.485064
	C2557	C	0.222270	0.190617	0.471380
	C2558	C	0.222081	0.314693	0.471317
	C2559	C	0.220006	0.252728	0.475817
	C2560	C	0.218586	0.043292	0.367441
	C2561	C	0.238482	0.252138	0.382765
	C2562	C	0.198924	0.253335	0.379961
	C2563	C	0.174617	0.252503	0.483203
	C2564	C	0.237061	0.190063	0.406243
	C2565	C	0.236946	0.314251	0.406243
	C2566	C	0.238676	0.252063	0.392611
	C2567	C	0.191534	0.253506	0.388928
	C2568	C	0.173936	0.753046	0.473301
	C2569	C	0.174592	0.815152	0.468688
	C2570	C	0.174278	0.690857	0.468681
	C2571	C	0.173702	0.252505	0.473339
	C2572	C	0.174084	0.314680	0.468759
	C2573	C	0.174420	0.190509	0.468731
	C2574	C	0.188848	0.191588	0.393276
	C2575	C	0.238072	0.189947	0.397213
	C2576	C	0.237936	0.314190	0.397216
	C2577	C	0.188920	0.315492	0.393270
	C2578	C	0.236487	0.252205	0.410848
	C2579	C	0.196260	0.043417	0.497238
	C2580	C	0.223578	0.043549	0.365951
	C2581	C	0.218595	0.962444	0.367443
	C2582	C	0.196263	0.962649	0.497241
	C2583	C	0.223616	0.962583	0.365955
	N2584	N	0.159679	0.070145	0.429883
	N2585	N	0.159622	0.935645	0.429883
	N2586	N	0.159511	0.435690	0.429870
	N2587	N	0.159530	0.570198	0.429849
	N2588	N	0.192894	0.435704	0.498136
	N2589	N	0.192894	0.570200	0.498129
	N2590	N	0.192920	0.070213	0.498232
	N2591	N	0.192908	0.935684	0.498220
	O2592	O	0.210543	0.694364	0.554982
	O2593	O	0.210615	0.811406	0.555001
	O2594	O	0.147198	0.693391	0.571843
	O2595	O	0.147589	0.810062	0.571882
	O2596	O	0.147535	0.195422	0.571894
	O2597	O	0.147119	0.312197	0.571854
	O2598	O	0.148517	0.693499	0.550977
	O2599	O	0.148801	0.810301	0.551057
	O2600	O	0.148822	0.195500	0.551087
	O2601	O	0.148473	0.312170	0.550971
	O2602	O	0.211973	0.694205	0.577181
	O2603	O	0.212063	0.810724	0.577228
	O2604	O	0.212192	0.194819	0.577231
	O2605	O	0.211975	0.311269	0.577159
	O2606	O	0.210646	0.194329	0.555034
	O2607	O	0.210539	0.311099	0.555000
	O2608	O	0.209845	0.694284	0.509348
	O2609	O	0.174356	0.694558	0.507772
	O2610	O	0.183450	0.694600	0.619727
	O2611	O	0.183373	0.811285	0.619667
	O2612	O	0.147999	0.693516	0.617497
	O2613	O	0.148047	0.810512	0.617429
	O2614	O	0.174627	0.811435	0.507885
	O2615	O	0.210203	0.811047	0.509433
	O2616	O	0.210244	0.194920	0.509386
	O2617	O	0.174741	0.194480	0.507931
	O2618	O	0.183441	0.194703	0.619671
	O2619	O	0.183540	0.311419	0.619737
	O2620	O	0.148109	0.195071	0.617453
	O2621	O	0.147924	0.312001	0.617535
	O2622	O	0.174378	0.311018	0.507757
	O2623	O	0.209987	0.311643	0.509383
	H2624	H	0.149215	0.641784	0.586528
	H2625	H	0.149444	0.861608	0.586578
	H2626	H	0.149427	0.144084	0.586555
	H2627	H	0.149225	0.363790	0.586524
	H2628	H	0.157926	0.862053	0.537334
	H2629	H	0.157571	0.641874	0.537220
	H2630	H	0.157369	0.363799	0.537180
	H2631	H	0.158015	0.143758	0.537341
	H2632	H	0.230209	0.064187	0.564353
	H2633	H	0.225070	0.064684	0.563615
	H2634	H	0.225132	0.941350	0.563602
	H2635	H	0.230191	0.940983	0.564397
	H2636	H	0.232278	0.064478	0.567665
	H2637	H	0.232243	0.941084	0.567641
	H2638	H	0.131209	0.064773	0.564955
	H2639	H	0.131262	0.941323	0.564975
	H2640	H	0.137823	0.064652	0.563412
	H2641	H	0.137773	0.941106	0.563369
	H2642	H	0.137870	0.064112	0.558456
	H2643	H	0.137829	0.941043	0.558448
	H2644	H	0.123156	0.441114	0.563561
	H2645	H	0.130675	0.441041	0.565250
	H2646	H	0.121623	0.440910	0.558335
	H2647	H	0.231837	0.441084	0.568170
	H2648	H	0.225214	0.441352	0.569373
	H2649	H	0.220931	0.440934	0.567837
	H2650	H	0.130659	0.564648	0.565234
	H2651	H	0.123239	0.564291	0.563568
	H2652	H	0.220897	0.564997	0.567820
	H2653	H	0.225163	0.564509	0.569370
	H2654	H	0.231846	0.564139	0.568179
	H2655	H	0.121603	0.564262	0.558336
	H2656	H	0.203595	0.642829	0.591015
	H2657	H	0.204418	0.861884	0.591123
	H2658	H	0.204292	0.143929	0.591103
	H2659	H	0.203910	0.362577	0.590994
	H2660	H	0.165375	0.642172	0.521540
	H2661	H	0.211579	0.642871	0.524014
	H2662	H	0.212049	0.862418	0.524077
	H2663	H	0.165691	0.862497	0.521639
	H2664	H	0.209938	0.642869	0.540287
	H2665	H	0.210406	0.862479	0.540354
	H2666	H	0.194324	0.643107	0.606467
	H2667	H	0.195120	0.861956	0.606558
	H2668	H	0.193612	0.440953	0.504772
	H2669	H	0.159608	0.440948	0.626675
	H2670	H	0.180029	0.441447	0.500312
	H2671	H	0.180386	0.441532	0.494759
	H2672	H	0.161866	0.440878	0.631843
	H2673	H	0.158011	0.440907	0.630056
	H2674	H	0.159616	0.564187	0.626686
	H2675	H	0.193710	0.564881	0.504762
	H2676	H	0.158033	0.564818	0.630058
	H2677	H	0.161983	0.564991	0.631878
	H2678	H	0.180394	0.564713	0.494719
	H2679	H	0.180062	0.564650	0.500326
	H2680	H	0.195086	0.143915	0.606567
	H2681	H	0.194725	0.362642	0.606461
	H2682	H	0.190765	0.064926	0.500915
	H2683	H	0.195974	0.065001	0.500898
	H2684	H	0.186867	0.064473	0.498031
	H2685	H	0.147771	0.861356	0.602855
	H2686	H	0.147568	0.641828	0.602809
	H2687	H	0.147628	0.363783	0.602817
	H2688	H	0.147774	0.144222	0.602831
	H2689	H	0.165719	0.143408	0.521677
	H2690	H	0.212393	0.143237	0.524094
	H2691	H	0.211565	0.362885	0.524031
	H2692	H	0.165144	0.363341	0.521477
	H2693	H	0.210614	0.143036	0.540351
	H2694	H	0.209846	0.362763	0.540319
	H2695	H	0.171137	0.064559	0.631364
	H2696	H	0.171931	0.064361	0.627917
	H2697	H	0.163924	0.064239	0.624819
	H2698	H	0.195923	0.941462	0.500879
	H2699	H	0.190754	0.941036	0.500927
	H2700	H	0.186692	0.940817	0.498023
	H2701	H	0.171089	0.941112	0.631348
	H2702	H	0.171979	0.941138	0.627866
	H2703	H	0.163811	0.940950	0.624810
	Zn2704	Zn	0.130138	0.680484	0.560682
	Zn2705	Zn	0.130424	0.825496	0.560695
	Zn2706	Zn	0.130551	0.179995	0.560684
	Zn2707	Zn	0.130165	0.325025	0.560669
	Zn2708	Zn	0.164015	0.679814	0.629040
	Zn2709	Zn	0.163859	0.825167	0.628967
	Zn2710	Zn	0.163953	0.180199	0.628946
	Zn2711	Zn	0.164011	0.325595	0.629016
	C2712	C	0.209957	0.752925	0.551176
	C2713	C	0.148484	0.751631	0.575677
	C2714	C	0.149540	0.751755	0.585548
	C2715	C	0.148949	0.689569	0.590143
	C2716	C	0.149105	0.813865	0.590182
	C2717	C	0.148450	0.253932	0.575692
	C2718	C	0.149494	0.253980	0.585569
	C2719	C	0.149064	0.191831	0.590177
	C2720	C	0.148951	0.316155	0.590159
	C2721	C	0.151489	0.751909	0.547520
	C2722	C	0.157457	0.751960	0.538257
	C2723	C	0.159646	0.814280	0.533819
	C2724	C	0.159460	0.689808	0.533765
	C2725	C	0.151494	0.253788	0.547534
	C2726	C	0.157366	0.253787	0.538257
	C2727	C	0.159319	0.315876	0.533740
	C2728	C	0.159665	0.191570	0.533837
	C2729	C	0.227275	0.043117	0.564663
	C2730	C	0.227250	0.962366	0.564664
	C2731	C	0.133496	0.043233	0.563257
	C2732	C	0.133486	0.962331	0.563254
	C2733	C	0.133519	0.043000	0.558313
	C2734	C	0.133495	0.962228	0.558298
	C2735	C	0.127758	0.462288	0.563421
	C2736	C	0.230502	0.462425	0.566780
	C2737	C	0.223856	0.462392	0.568051
	C2738	C	0.127783	0.543226	0.563421
	C2739	C	0.223851	0.543345	0.568064
	C2740	C	0.230488	0.543226	0.566782
	C2741	C	0.209802	0.752426	0.580795
	C2742	C	0.209869	0.253115	0.580792
	C2743	C	0.204283	0.752412	0.590083
	C2744	C	0.201722	0.690474	0.594462
	C2745	C	0.202194	0.814280	0.594524
	C2746	C	0.204413	0.253286	0.590093
	C2747	C	0.202194	0.191403	0.594535
	C2748	C	0.201973	0.315100	0.594471
	C2749	C	0.209970	0.252671	0.551179
	C2750	C	0.211064	0.752501	0.513211
	C2751	C	0.171667	0.752830	0.511313
	C2752	C	0.147436	0.751854	0.613640
	C2753	C	0.210422	0.690607	0.536683
	C2754	C	0.210638	0.814775	0.536734
	C2755	C	0.212028	0.752558	0.523080
	C2756	C	0.165780	0.752360	0.520585
	C2757	C	0.163614	0.690002	0.525028
	C2758	C	0.211391	0.690413	0.527651
	C2759	C	0.211649	0.814724	0.527702
	C2760	C	0.163789	0.814496	0.525081
	C2761	C	0.209821	0.752689	0.541321
	C2762	C	0.186832	0.752839	0.616383
	C2763	C	0.196684	0.690558	0.603051
	C2764	C	0.197138	0.814423	0.603107
	C2765	C	0.194216	0.752543	0.607427
	C2766	C	0.162579	0.462292	0.627092
	C2767	C	0.183569	0.462725	0.497687
	C2768	C	0.160938	0.462275	0.630455
	C2769	C	0.162550	0.542981	0.627109
	C2770	C	0.160962	0.543309	0.630472
	C2771	C	0.183557	0.543342	0.497685
	C2772	C	0.186906	0.253158	0.616395
	C2773	C	0.197134	0.191466	0.603124
	C2774	C	0.196937	0.315138	0.603062
	C2775	C	0.194336	0.253382	0.607450
	C2776	C	0.193235	0.043605	0.500202
	C2777	C	0.211177	0.253291	0.513193
	C2778	C	0.171677	0.252932	0.511330
	C2779	C	0.147437	0.253750	0.613676
	C2780	C	0.210757	0.190802	0.536728
	C2781	C	0.210368	0.315050	0.536701
	C2782	C	0.212123	0.253098	0.523072
	C2783	C	0.165736	0.253403	0.520584
	C2784	C	0.147258	0.751628	0.603778
	C2785	C	0.148062	0.813796	0.599212
	C2786	C	0.147903	0.689514	0.599174
	C2787	C	0.147245	0.254019	0.603811
	C2788	C	0.147931	0.316085	0.599196
	C2789	C	0.148013	0.191884	0.599209
	C2790	C	0.163835	0.191365	0.525111
	C2791	C	0.211809	0.190910	0.527696
	C2792	C	0.211399	0.315158	0.527663
	C2793	C	0.163493	0.315703	0.525006
	C2794	C	0.209843	0.252873	0.541320
	C2795	C	0.169431	0.043107	0.629443
	C2796	C	0.189195	0.043193	0.497292
	C2797	C	0.193209	0.962563	0.500210
	C2798	C	0.169403	0.962250	0.629441
	C2799	C	0.189169	0.962451	0.497289
	N2800	N	0.130520	0.069943	0.560695
	N2801	N	0.130487	0.935459	0.560685
	N2802	N	0.130095	0.435538	0.560667
	N2803	N	0.130132	0.570112	0.560653
	N2804	N	0.163792	0.435470	0.629031
	N2805	N	0.163805	0.569865	0.629046
	N2806	N	0.163657	0.070108	0.628921
	N2807	N	0.163634	0.935515	0.628939
	O2808	O	0.254059	0.695157	0.672357
	O2809	O	0.253996	0.811417	0.672357
	O2810	O	0.123316	0.694123	0.700851
	O2811	O	0.123362	0.810560	0.700860
	O2812	O	0.123321	0.194525	0.700785
	O2813	O	0.123255	0.310503	0.700822
	O2814	O	0.121032	0.693788	0.682214
	O2815	O	0.121083	0.810547	0.682198
	O2816	O	0.121033	0.194421	0.682228
	O2817	O	0.121149	0.311136	0.682257
	O2818	O	0.256361	0.694673	0.691062
	O2819	O	0.256282	0.811366	0.690996
	O2820	O	0.256279	0.194432	0.690940
	O2821	O	0.256339	0.311221	0.690981
	O2822	O	0.254078	0.195065	0.672334
	O2823	O	0.254034	0.311378	0.672385
	O2824	O	0.185601	0.695287	0.638327
	O2825	O	0.149397	0.694118	0.639684
	O2826	O	0.227893	0.694688	0.733524
	O2827	O	0.227883	0.811345	0.733527
	O2828	O	0.191704	0.694479	0.734852
	O2829	O	0.191574	0.810691	0.734917
	O2830	O	0.149342	0.810580	0.639667
	O2831	O	0.185675	0.811530	0.638263
	O2832	O	0.185684	0.194947	0.638268
	O2833	O	0.149439	0.194274	0.639665
	O2834	O	0.227766	0.194349	0.733459
	O2835	O	0.227902	0.311054	0.733476
	O2836	O	0.191650	0.194685	0.734919
	O2837	O	0.191622	0.310819	0.734915
	O2838	O	0.149504	0.310813	0.639681
	O2839	O	0.185679	0.311221	0.638304
	H2840	H	0.145253	0.643538	0.711719
	H2841	H	0.145315	0.860973	0.711701
	H2842	H	0.145565	0.144276	0.711657
	H2843	H	0.145252	0.360671	0.711722
	H2844	H	0.132253	0.861409	0.669026
	H2845	H	0.132382	0.642588	0.668998
	H2846	H	0.132289	0.361912	0.668996
	H2847	H	0.132305	0.143733	0.669037
	H2848	H	0.278538	0.064621	0.682675
	H2849	H	0.279107	0.064506	0.681359
	H2850	H	0.279149	0.941150	0.681392
	H2851	H	0.278453	0.941081	0.682673
	H2852	H	0.274808	0.064798	0.683108
	H2853	H	0.274744	0.941225	0.683169
	H2854	H	0.103464	0.064427	0.692341
	H2855	H	0.103422	0.940826	0.692353
	H2856	H	0.103982	0.064544	0.691318
	H2857	H	0.103982	0.940775	0.691383
	H2858	H	0.101838	0.064389	0.690304
	H2859	H	0.101997	0.940969	0.690337
	H2860	H	0.100857	0.441170	0.687135
	H2861	H	0.093976	0.440892	0.688654
	H2862	H	0.109936	0.441401	0.690045
	H2863	H	0.272481	0.440864	0.683077
	H2864	H	0.271707	0.441319	0.680478
	H2865	H	0.274897	0.441210	0.679333
	H2866	H	0.093992	0.564814	0.688625
	H2867	H	0.100798	0.564427	0.687130
	H2868	H	0.274932	0.563986	0.679413
	H2869	H	0.271770	0.564827	0.680499
	H2870	H	0.272522	0.564633	0.683078
	H2871	H	0.109818	0.564429	0.690076
	H2872	H	0.244999	0.643795	0.704240
	H2873	H	0.245085	0.862804	0.704233
	H2874	H	0.245150	0.143131	0.704195
	H2875	H	0.245092	0.362203	0.704194
	H2876	H	0.141605	0.642880	0.653562
	H2877	H	0.207536	0.645075	0.649209
	H2878	H	0.207809	0.861699	0.649117
	H2879	H	0.141375	0.861586	0.653561
	H2880	H	0.231869	0.645084	0.661527
	H2881	H	0.232177	0.861452	0.661435
	H2882	H	0.235808	0.643858	0.719694
	H2883	H	0.235900	0.862605	0.719698
	H2884	H	0.164732	0.440963	0.626102
	H2885	H	0.207726	0.441208	0.747526
	H2886	H	0.170098	0.441616	0.628588
	H2887	H	0.168917	0.441204	0.631073
	H2888	H	0.222845	0.441171	0.745202
	H2889	H	0.218547	0.441189	0.748167
	H2890	H	0.207590	0.564371	0.747526
	H2891	H	0.164634	0.563948	0.626111
	H2892	H	0.218495	0.564568	0.748205
	H2893	H	0.222912	0.564804	0.745213
	H2894	H	0.168944	0.564645	0.631078
	H2895	H	0.170030	0.564387	0.628582
	H2896	H	0.235900	0.143213	0.719672
	H2897	H	0.235884	0.362274	0.719641
	H2898	H	0.156123	0.064874	0.630679
	H2899	H	0.161924	0.064510	0.632935
	H2900	H	0.157290	0.064632	0.625962
	H2901	H	0.169574	0.860892	0.724029
	H2902	H	0.169543	0.643809	0.724074
	H2903	H	0.169567	0.360883	0.724036
	H2904	H	0.169798	0.144492	0.723994
	H2905	H	0.141450	0.143475	0.653558
	H2906	H	0.207824	0.144888	0.649135
	H2907	H	0.207628	0.361268	0.649221
	H2908	H	0.141440	0.361873	0.653524
	H2909	H	0.232134	0.145040	0.661462
	H2910	H	0.231909	0.361191	0.661546
	H2911	H	0.215096	0.064674	0.746568
	H2912	H	0.218194	0.064298	0.745305
	H2913	H	0.216895	0.063853	0.742516
	H2914	H	0.161907	0.941025	0.632930
	H2915	H	0.156031	0.941004	0.630712
	H2916	H	0.157122	0.940858	0.625986
	H2917	H	0.215004	0.941010	0.746515
	H2918	H	0.218065	0.940582	0.745301
	H2919	H	0.216831	0.940750	0.742569
	Zn2920	Zn	0.101494	0.680062	0.691546
	Zn2921	Zn	0.101706	0.825312	0.691532
	Zn2922	Zn	0.101557	0.180310	0.691498
	Zn2923	Zn	0.101528	0.325487	0.691524
	Zn2924	Zn	0.213421	0.680341	0.744197
	Zn2925	Zn	0.213262	0.825230	0.744205
	Zn2926	Zn	0.213449	0.180331	0.744203
	Zn2927	Zn	0.213432	0.325312	0.744185
	C2928	C	0.248188	0.753247	0.669591
	C2929	C	0.129158	0.752282	0.703616
	C2930	C	0.143985	0.752266	0.710918
	C2931	C	0.150737	0.690734	0.714438
	C2932	C	0.150770	0.813807	0.714424
	C2933	C	0.129115	0.252493	0.703597
	C2934	C	0.143894	0.252455	0.710943
	C2935	C	0.150856	0.191360	0.714410
	C2936	C	0.150714	0.313715	0.714441
	C2937	C	0.124471	0.752094	0.678896
	C2938	C	0.131858	0.751945	0.669947
	C2939	C	0.134476	0.813891	0.665608
	C2940	C	0.134591	0.690151	0.665595
	C2941	C	0.124487	0.252792	0.678923
	C2942	C	0.131848	0.252866	0.669948
	C2943	C	0.134502	0.314527	0.665578
	C2944	C	0.134498	0.191059	0.665598
	C2945	C	0.278087	0.043325	0.681906
	C2946	C	0.278071	0.962368	0.681924
	C2947	C	0.103102	0.043284	0.691742
	C2948	C	0.103087	0.962309	0.691760
	C2949	C	0.100984	0.043018	0.690697
	C2950	C	0.101040	0.962198	0.690712
	C2951	C	0.098409	0.462358	0.688851
	C2952	C	0.274832	0.462189	0.683027
	C2953	C	0.274072	0.462600	0.680376
	C2954	C	0.098402	0.543198	0.688855
	C2955	C	0.274078	0.543148	0.680397
	C2956	C	0.274820	0.543160	0.683021
	C2957	C	0.252921	0.753113	0.694344
	C2958	C	0.252958	0.252739	0.694285
	C2959	C	0.245544	0.753248	0.703295
	C2960	C	0.242848	0.691321	0.707654
	C2961	C	0.242904	0.815261	0.707650
	C2962	C	0.245735	0.252618	0.703272
	C2963	C	0.243057	0.190667	0.707629
	C2964	C	0.242989	0.314645	0.707619
	C2965	C	0.248218	0.253268	0.669591
	C2966	C	0.191433	0.753435	0.641086
	C2967	C	0.147140	0.752363	0.643272
	C2968	C	0.185888	0.752563	0.732075
	C2969	C	0.226501	0.692062	0.658774
	C2970	C	0.226659	0.814525	0.658723
	C2971	C	0.206214	0.753401	0.648427
	C2972	C	0.141810	0.752250	0.652591
	C2973	C	0.139590	0.690316	0.657005
	C2974	C	0.213024	0.692148	0.651935
	C2975	C	0.213173	0.814642	0.651881
	C2976	C	0.139473	0.814017	0.657021
	C2977	C	0.233398	0.753226	0.662259
	C2978	C	0.230098	0.753017	0.729938
	C2979	C	0.237836	0.691300	0.716240
	C2980	C	0.237874	0.815165	0.716236
	C2981	C	0.235544	0.753193	0.720635
	C2982	C	0.207982	0.462380	0.745355
	C2983	C	0.167958	0.462518	0.629639
	C2984	C	0.218875	0.462256	0.746033
	C2985	C	0.207942	0.543238	0.745352
	C2986	C	0.218869	0.543170	0.746047
	C2987	C	0.167959	0.543192	0.629642
	C2988	C	0.230071	0.252667	0.729880
	C2989	C	0.237982	0.190698	0.716216
	C2990	C	0.237935	0.314673	0.716201
	C2991	C	0.235626	0.252665	0.720596
	C2992	C	0.160184	0.043326	0.631044
	C2993	C	0.191516	0.253036	0.641062
	C2994	C	0.147258	0.252534	0.643268
	C2995	C	0.185828	0.252727	0.732130
	C2996	C	0.226652	0.192018	0.658732
	C2997	C	0.226549	0.314297	0.658777
	C2998	C	0.206323	0.253060	0.648391
	C2999	C	0.141807	0.252560	0.652566
	C3000	C	0.171149	0.752348	0.724719
	C3001	C	0.164247	0.813793	0.721260
	C3002	C	0.164219	0.690888	0.721271
	C3003	C	0.171083	0.252649	0.724785
	C3004	C	0.164163	0.313869	0.721295
	C3005	C	0.164316	0.191428	0.721262
	C3006	C	0.139473	0.190927	0.656999
	C3007	C	0.213190	0.191911	0.651880
	C3008	C	0.213079	0.314208	0.651931
	C3009	C	0.139486	0.314417	0.656975
	C3010	C	0.233448	0.253215	0.662248
	C3011	C	0.215868	0.043154	0.745477
	C3012	C	0.161350	0.043185	0.626323
	C3013	C	0.160171	0.962442	0.631069
	C3014	C	0.215787	0.962210	0.745471
	C3015	C	0.161323	0.962304	0.626324
	N3016	N	0.101410	0.070046	0.691493
	N3017	N	0.101454	0.935497	0.691502
	N3018	N	0.101318	0.435453	0.691516
	N3019	N	0.101272	0.569951	0.691543
	N3020	N	0.213668	0.435301	0.744202
	N3021	N	0.213652	0.569930	0.744215
	N3022	N	0.213616	0.070073	0.744225
	N3023	N	0.213547	0.935514	0.744213
	O3024	O	0.229778	0.696300	0.801296
	O3025	O	0.230412	0.813147	0.801317
	O3026	O	0.167062	0.694002	0.818236
	O3027	O	0.167055	0.810794	0.818243
	O3028	O	0.167021	0.194398	0.818206
	O3029	O	0.166986	0.311056	0.818206
	O3030	O	0.165284	0.694052	0.795974
	O3031	O	0.165297	0.810539	0.796006
	O3032	O	0.165378	0.194768	0.796005
	O3033	O	0.165401	0.311281	0.796007
	O3034	O	0.228668	0.695817	0.822129
	O3035	O	0.229052	0.812637	0.822197
	O3036	O	0.229081	0.193443	0.822247
	O3037	O	0.228564	0.310095	0.822161
	O3038	O	0.230216	0.193548	0.801355
	O3039	O	0.229867	0.310267	0.801355
	O3040	O	0.229358	0.694887	0.755736
	O3041	O	0.193859	0.694267	0.753491
	O3042	O	0.202959	0.694539	0.865284
	O3043	O	0.203343	0.811259	0.865478
	O3044	O	0.167715	0.694457	0.863864
	O3045	O	0.167801	0.811173	0.863838
	O3046	O	0.193870	0.811046	0.753561
	O3047	O	0.229376	0.811587	0.755633
	O3048	O	0.229353	0.194262	0.755717
	O3049	O	0.193999	0.194784	0.753549
	O3050	O	0.203326	0.194239	0.865481
	O3051	O	0.203057	0.310986	0.865340
	O3052	O	0.168021	0.194210	0.863797
	O3053	O	0.167770	0.310960	0.863790
	O3054	O	0.193941	0.311543	0.753501
	O3055	O	0.229343	0.311265	0.755729
	H3056	H	0.167048	0.642718	0.832920
	H3057	H	0.167778	0.862541	0.832924
	H3058	H	0.167926	0.142645	0.832872
	H3059	H	0.167054	0.362573	0.832828
	H3060	H	0.173762	0.862014	0.782241
	H3061	H	0.173003	0.643167	0.782085
	H3062	H	0.172998	0.362612	0.782099
	H3063	H	0.173406	0.143622	0.782152
	H3064	H	0.252823	0.064977	0.815003
	H3065	H	0.254551	0.064720	0.812331
	H3066	H	0.254607	0.941278	0.812285
	H3067	H	0.252912	0.941576	0.814981
	H3068	H	0.244844	0.064634	0.815637
	H3069	H	0.244950	0.941627	0.815681
	H3070	H	0.146679	0.064219	0.802057
	H3071	H	0.146718	0.941196	0.802129
	H3072	H	0.141110	0.064550	0.805119
	H3073	H	0.141093	0.941355	0.805182
	H3074	H	0.145221	0.064620	0.810613
	H3075	H	0.145277	0.941297	0.810605
	H3076	H	0.142761	0.441346	0.809700
	H3077	H	0.150857	0.441128	0.811878
	H3078	H	0.141771	0.441237	0.803827
	H3079	H	0.241637	0.440754	0.802129
	H3080	H	0.265303	0.441085	0.807241
	H3081	H	0.268176	0.441429	0.816099
	H3082	H	0.150884	0.564720	0.811879
	H3083	H	0.142713	0.564313	0.809727
	H3084	H	0.268223	0.564743	0.816096
	H3085	H	0.265384	0.564556	0.807212
	H3086	H	0.241583	0.564743	0.802038
	H3087	H	0.141795	0.564291	0.803783
	H3088	H	0.219336	0.644131	0.835772
	H3089	H	0.220524	0.863963	0.836041
	H3090	H	0.220547	0.141860	0.836103
	H3091	H	0.219260	0.361745	0.835831
	H3092	H	0.182218	0.643204	0.766631
	H3093	H	0.229104	0.644172	0.770403
	H3094	H	0.230054	0.863835	0.770298
	H3095	H	0.182968	0.862195	0.766806
	H3096	H	0.227724	0.645002	0.786690
	H3097	H	0.228639	0.864680	0.786567
	H3098	H	0.211674	0.643519	0.851470
	H3099	H	0.212843	0.863470	0.851756
	H3100	H	0.204187	0.441076	0.744008
	H3101	H	0.190593	0.441146	0.868372
	H3102	H	0.210247	0.441036	0.739936
	H3103	H	0.218060	0.440722	0.740394
	H3104	H	0.169605	0.441115	0.875492
	H3105	H	0.173318	0.441335	0.869720
	H3106	H	0.190701	0.564199	0.868334
	H3107	H	0.204162	0.564319	0.743980
	H3108	H	0.173401	0.564602	0.869701
	H3109	H	0.169594	0.564722	0.875492
	H3110	H	0.218153	0.564520	0.740385
	H3111	H	0.210245	0.564161	0.739908
	H3112	H	0.212784	0.142372	0.851800
	H3113	H	0.211521	0.361982	0.851491
	H3114	H	0.208653	0.064280	0.743534
	H3115	H	0.209580	0.064373	0.745539
	H3116	H	0.212888	0.064173	0.741847
	H3117	H	0.166103	0.862673	0.849176
	H3118	H	0.165442	0.642821	0.849193
	H3119	H	0.165472	0.362590	0.849101
	H3120	H	0.166372	0.142683	0.849163
	H3121	H	0.182716	0.143856	0.766701
	H3122	H	0.229948	0.142572	0.770363
	H3123	H	0.229502	0.362439	0.770391
	H3124	H	0.182305	0.362658	0.766654
	H3125	H	0.228439	0.142192	0.786655
	H3126	H	0.227949	0.362152	0.786660
	H3127	H	0.195417	0.064352	0.874644
	H3128	H	0.190339	0.064100	0.870849
	H3129	H	0.178053	0.064446	0.870801
	H3130	H	0.209504	0.940624	0.745546
	H3131	H	0.208546	0.940754	0.743497
	H3132	H	0.212896	0.940975	0.741825
	H3133	H	0.195413	0.940971	0.874615
	H3134	H	0.190419	0.940956	0.870817
	H3135	H	0.178011	0.941067	0.870777
	Zn3136	Zn	0.150968	0.680007	0.806720
	Zn3137	Zn	0.151021	0.825368	0.806715
	Zn3138	Zn	0.150951	0.179975	0.806737
	Zn3139	Zn	0.150872	0.325468	0.806703
	Zn3140	Zn	0.184817	0.680402	0.875014
	Zn3141	Zn	0.184828	0.825326	0.875050
	Zn3142	Zn	0.184781	0.179992	0.875035
	Zn3143	Zn	0.184816	0.325119	0.874995
	C3144	C	0.228994	0.754815	0.797497
	C3145	C	0.167679	0.752375	0.822073
	C3146	C	0.167810	0.752535	0.831926
	C3147	C	0.166912	0.690513	0.836535
	C3148	C	0.167276	0.814731	0.836533
	C3149	C	0.167632	0.252734	0.822038
	C3150	C	0.167859	0.252654	0.831885
	C3151	C	0.167433	0.190430	0.836496
	C3152	C	0.166942	0.314818	0.836469
	C3153	C	0.167532	0.752395	0.792404
	C3154	C	0.173059	0.752538	0.783121
	C3155	C	0.175579	0.814579	0.778769
	C3156	C	0.175189	0.690662	0.778674
	C3157	C	0.167601	0.252991	0.792417
	C3158	C	0.173011	0.253120	0.783113
	C3159	C	0.175181	0.315171	0.778683
	C3160	C	0.175418	0.191189	0.778712
	C3161	C	0.252084	0.043479	0.813372
	C3162	C	0.252120	0.962644	0.813364
	C3163	C	0.145830	0.043167	0.804433
	C3164	C	0.145856	0.962552	0.804451
	C3165	C	0.149964	0.043086	0.809965
	C3166	C	0.150009	0.962347	0.809967
	C3167	C	0.147983	0.462433	0.809737
	C3168	C	0.237683	0.462518	0.806692
	C3169	C	0.261547	0.462710	0.811887
	C3170	C	0.147993	0.543152	0.809743
	C3171	C	0.261571	0.543336	0.811868
	C3172	C	0.237676	0.543365	0.806662
	C3173	C	0.226003	0.754272	0.825631
	C3174	C	0.226042	0.251702	0.825697
	C3175	C	0.220106	0.754124	0.834897
	C3176	C	0.217792	0.691774	0.839299
	C3177	C	0.218430	0.816079	0.839457
	C3178	C	0.220149	0.251646	0.834941
	C3179	C	0.218450	0.189727	0.839507
	C3180	C	0.217744	0.313935	0.839346
	C3181	C	0.228963	0.251906	0.797541
	C3182	C	0.229964	0.753419	0.759521
	C3183	C	0.190488	0.752557	0.756843
	C3184	C	0.166636	0.752793	0.860040
	C3185	C	0.228160	0.692469	0.783035
	C3186	C	0.228687	0.816730	0.782970
	C3187	C	0.230139	0.753803	0.769371
	C3188	C	0.183116	0.752637	0.765801
	C3189	C	0.180223	0.690661	0.770086
	C3190	C	0.229198	0.691992	0.774004
	C3191	C	0.229673	0.816254	0.773937
	C3192	C	0.180609	0.814623	0.770185
	C3193	C	0.228005	0.754738	0.787618
	C3194	C	0.205977	0.753114	0.861888
	C3195	C	0.213626	0.691494	0.848039
	C3196	C	0.214245	0.815803	0.848192
	C3197	C	0.211847	0.753549	0.852589
	C3198	C	0.192328	0.462434	0.871855
	C3199	C	0.214067	0.462326	0.741218
	C3200	C	0.174979	0.462464	0.873226
	C3201	C	0.192361	0.543080	0.871856
	C3202	C	0.174997	0.543257	0.873215
	C3203	C	0.214083	0.543036	0.741212
	C3204	C	0.206023	0.252458	0.861916
	C3205	C	0.214320	0.189901	0.848245
	C3206	C	0.213629	0.314140	0.848080
	C3207	C	0.211948	0.252107	0.852637
	C3208	C	0.210335	0.043079	0.744455
	C3209	C	0.229999	0.252725	0.759550
	C3210	C	0.190528	0.253228	0.756829
	C3211	C	0.166766	0.252593	0.859986
	C3212	C	0.228622	0.189973	0.783047
	C3213	C	0.228322	0.314397	0.783043
	C3214	C	0.230193	0.252493	0.769416
	C3215	C	0.183090	0.253300	0.765777
	C3216	C	0.165583	0.752717	0.850172
	C3217	C	0.166265	0.814881	0.845558
	C3218	C	0.165898	0.690535	0.845563
	C3219	C	0.165690	0.252584	0.850118
	C3220	C	0.165936	0.314789	0.845494
	C3221	C	0.166437	0.190456	0.845523
	C3222	C	0.180491	0.191278	0.770136
	C3223	C	0.229643	0.190136	0.774011
	C3224	C	0.229344	0.314572	0.774013
	C3225	C	0.180239	0.315207	0.770099
	C3226	C	0.228021	0.252145	0.787660
	C3227	C	0.190736	0.043063	0.873350
	C3228	C	0.214589	0.042959	0.742732
	C3229	C	0.210306	0.962118	0.744441
	C3230	C	0.190770	0.962250	0.873347
	C3231	C	0.214553	0.962236	0.742729
	N3232	N	0.151182	0.070069	0.806722
	N3233	N	0.151235	0.935537	0.806737
	N3234	N	0.151080	0.435592	0.806743
	N3235	N	0.151146	0.570087	0.806735
	N3236	N	0.184868	0.435502	0.874964
	N3237	N	0.184903	0.570125	0.874970
	N3238	N	0.184718	0.069965	0.875037
	N3239	N	0.184754	0.935458	0.875035
	O3240	O	0.202595	0.694764	0.931863
	O3241	O	0.202638	0.811634	0.931834
	O3242	O	0.139394	0.692854	0.948709
	O3243	O	0.139852	0.809522	0.948710
	O3244	O	0.139909	0.195892	0.948717
	O3245	O	0.139375	0.312765	0.948733
	O3246	O	0.140660	0.693309	0.927847
	O3247	O	0.140909	0.809911	0.927949
	O3248	O	0.140773	0.195482	0.927919
	O3249	O	0.140575	0.312092	0.927876
	O3250	O	0.203867	0.694503	0.954018
	O3251	O	0.204020	0.810950	0.954027
	O3252	O	0.204332	0.195466	0.954106
	O3253	O	0.204095	0.311798	0.954048
	O3254	O	0.202485	0.194584	0.931820
	O3255	O	0.202555	0.311455	0.931809
	O3256	O	0.201781	0.694192	0.886256
	O3257	O	0.166428	0.694327	0.884643
	O3258	O	0.175576	0.694273	0.996550
	O3259	O	0.175669	0.811014	0.996571
	O3260	O	0.140084	0.694267	0.994332
	O3261	O	0.140302	0.811086	0.994347
	O3262	O	0.166453	0.811100	0.884689
	O3263	O	0.201903	0.810994	0.886253
	O3264	O	0.201957	0.194782	0.886215
	O3265	O	0.166418	0.195044	0.884621
	O3266	O	0.175602	0.194807	0.996533
	O3267	O	0.175596	0.311662	0.996554
	O3268	O	0.140353	0.195040	0.994290
	O3269	O	0.139994	0.311940	0.994385
	O3270	O	0.166489	0.311720	0.884668
	O3271	O	0.201867	0.311414	0.886147
	H3272	H	0.140841	0.641996	0.963438
	H3273	H	0.142123	0.861497	0.963402
	H3274	H	0.142038	0.144414	0.963370
	H3275	H	0.140861	0.364147	0.963450
	H3276	H	0.149925	0.861791	0.914197
	H3277	H	0.149605	0.642018	0.914032
	H3278	H	0.149534	0.363684	0.914070
	H3279	H	0.149850	0.143889	0.914169
	H3280	H	0.209414	0.065005	0.942644
	H3281	H	0.211926	0.064755	0.946107
	H3282	H	0.212026	0.941235	0.946112
	H3283	H	0.209492	0.941034	0.942713
	H3284	H	0.216091	0.064487	0.939101
	H3285	H	0.216159	0.940986	0.939160
	H3286	H	0.116550	0.064587	0.941368
	H3287	H	0.116456	0.941139	0.941297
	H3288	H	0.125072	0.064741	0.942442
	H3289	H	0.124929	0.941057	0.942441
	H3290	H	0.132855	0.064415	0.938473
	H3291	H	0.132864	0.940962	0.938451
	H3292	H	0.109933	0.441239	0.937542
	H3293	H	0.114971	0.440909	0.941970
	H3294	H	0.117009	0.441359	0.932039
	H3295	H	0.216125	0.441350	0.948209
	H3296	H	0.207895	0.441266	0.943577
	H3297	H	0.210658	0.441158	0.939615
	H3298	H	0.115014	0.564515	0.941927
	H3299	H	0.110024	0.564746	0.937534
	H3300	H	0.210574	0.564559	0.939637
	H3301	H	0.207879	0.564678	0.943600
	H3302	H	0.216154	0.564693	0.948233
	H3303	H	0.117123	0.564481	0.931996
	H3304	H	0.195788	0.643221	0.967849
	H3305	H	0.196480	0.862172	0.967936
	H3306	H	0.196553	0.144235	0.967971
	H3307	H	0.196135	0.362992	0.967902
	H3308	H	0.157211	0.642382	0.898334
	H3309	H	0.203628	0.642926	0.900960
	H3310	H	0.204184	0.862426	0.900946
	H3311	H	0.157490	0.862293	0.898474
	H3312	H	0.202057	0.643125	0.917243
	H3313	H	0.202571	0.862641	0.917203
	H3314	H	0.186694	0.643237	0.983318
	H3315	H	0.187339	0.861994	0.983415
	H3316	H	0.199411	0.441029	0.873134
	H3317	H	0.156291	0.441383	1.002985
	H3318	H	0.194321	0.440873	0.881052
	H3319	H	0.181675	0.440640	0.882046
	H3320	H	0.150277	0.440721	1.006999
	H3321	H	0.150109	0.441329	1.004517
	H3322	H	0.156364	0.564435	1.002945
	H3323	H	0.199494	0.564096	0.873137
	H3324	H	0.150230	0.564277	1.004509
	H3325	H	0.150382	0.564747	1.006980
	H3326	H	0.181735	0.564603	0.882039
	H3327	H	0.194364	0.564465	0.881056
	H3328	H	0.187128	0.144182	0.983383
	H3329	H	0.186734	0.362954	0.983341
	H3330	H	0.180734	0.064685	0.879695
	H3331	H	0.189825	0.064428	0.879761
	H3332	H	0.174018	0.064525	0.874517
	H3333	H	0.140481	0.862182	0.979665
	H3334	H	0.139169	0.642832	0.979702
	H3335	H	0.139239	0.363724	0.979701
	H3336	H	0.140406	0.143881	0.979660
	H3337	H	0.157352	0.143586	0.898438
	H3338	H	0.203934	0.143363	0.900915
	H3339	H	0.203862	0.363010	0.900856
	H3340	H	0.157100	0.363431	0.898349
	H3341	H	0.202305	0.143585	0.917181
	H3342	H	0.202263	0.362905	0.917136
	H3343	H	0.160228	0.064382	1.004141
	H3344	H	0.155632	0.064881	1.003087
	H3345	H	0.150469	0.065293	1.004870
	H3346	H	0.189853	0.940816	0.879728
	H3347	H	0.180776	0.940967	0.879715
	H3348	H	0.173935	0.941239	0.874529
	H3349	H	0.160115	0.941323	1.004167
	H3350	H	0.155636	0.941166	1.003107
	H3351	H	0.150413	0.941132	1.004878
	Zn3352	Zn	0.122227	0.680057	0.937505
	Zn3353	Zn	0.122617	0.825189	0.937591
	Zn3354	Zn	0.122744	0.180148	0.937609
	Zn3355	Zn	0.122155	0.325344	0.937519
	Zn3356	Zn	0.156108	0.680204	1.005910
	Zn3357	Zn	0.156080	0.825442	1.005895
	Zn3358	Zn	0.156161	0.180329	1.005842
	Zn3359	Zn	0.156031	0.325513	1.005888
	C3360	C	0.201966	0.753148	0.928025
	C3361	C	0.140678	0.751169	0.952527
	C3362	C	0.141618	0.751628	0.962401
	C3363	C	0.140771	0.689868	0.967028
	C3364	C	0.141480	0.813875	0.967017
	C3365	C	0.140704	0.254347	0.952541
	C3366	C	0.141634	0.254199	0.962419
	C3367	C	0.141450	0.191902	0.967012
	C3368	C	0.140794	0.316227	0.967054
	C3369	C	0.143623	0.751685	0.924398
	C3370	C	0.149446	0.751943	0.915098
	C3371	C	0.151594	0.814195	0.910664
	C3372	C	0.151435	0.689884	0.910581
	C3373	C	0.143509	0.253776	0.924393
	C3374	C	0.149423	0.253816	0.915126
	C3375	C	0.151358	0.315843	0.910605
	C3376	C	0.151528	0.191636	0.910660
	C3377	C	0.212648	0.043373	0.944108
	C3378	C	0.212706	0.962400	0.944119
	C3379	C	0.121277	0.043122	0.940778
	C3380	C	0.121233	0.962273	0.940746
	C3381	C	0.129151	0.043158	0.936758
	C3382	C	0.129124	0.962333	0.936757
	C3383	C	0.115025	0.462204	0.939144
	C3384	C	0.219912	0.462667	0.946682
	C3385	C	0.211641	0.462441	0.942053
	C3386	C	0.115010	0.543159	0.939139
	C3387	C	0.211612	0.543405	0.942064
	C3388	C	0.219889	0.543415	0.946684
	C3389	C	0.201780	0.752722	0.957622
	C3390	C	0.202041	0.253700	0.957672
	C3391	C	0.196365	0.752801	0.966925
	C3392	C	0.193923	0.690788	0.971305
	C3393	C	0.194297	0.814667	0.971361
	C3394	C	0.196617	0.253648	0.966967
	C3395	C	0.194350	0.191726	0.971381
	C3396	C	0.194156	0.315499	0.971347
	C3397	C	0.201936	0.253001	0.927989
	C3398	C	0.202949	0.752610	0.890062
	C3399	C	0.163603	0.752625	0.888145
	C3400	C	0.139580	0.752699	0.990499
	C3401	C	0.202399	0.690722	0.913597
	C3402	C	0.202725	0.815022	0.913583
	C3403	C	0.204001	0.752684	0.899937
	C3404	C	0.157707	0.752433	0.897411
	C3405	C	0.155563	0.690100	0.901842
	C3406	C	0.203415	0.690676	0.904565
	C3407	C	0.203734	0.814805	0.904554
	C3408	C	0.155716	0.814450	0.901924
	C3409	C	0.201831	0.753016	0.918174
	C3410	C	0.179062	0.752633	0.993247
	C3411	C	0.188956	0.690761	0.979902
	C3412	C	0.189313	0.814605	0.979957
	C3413	C	0.186442	0.752654	0.984287
	C3414	C	0.157820	0.462366	1.004239
	C3415	C	0.187173	0.462144	0.879818
	C3416	C	0.151662	0.462399	1.005776
	C3417	C	0.157857	0.543365	1.004248
	C3418	C	0.151699	0.543228	1.005789
	C3419	C	0.187169	0.543161	0.879831
	C3420	C	0.179037	0.253314	0.993237
	C3421	C	0.189299	0.191633	0.979962
	C3422	C	0.189113	0.315497	0.979932
	C3423	C	0.186490	0.253574	0.984287
	C3424	C	0.185113	0.043196	0.878495
	C3425	C	0.203008	0.253186	0.889999
	C3426	C	0.163608	0.253336	0.888140
	C3427	C	0.139554	0.253645	0.990514
	C3428	C	0.202533	0.191174	0.913542
	C3429	C	0.202514	0.315270	0.913509
	C3430	C	0.204019	0.253225	0.899871
	C3431	C	0.157704	0.253408	0.897416
	C3432	C	0.139413	0.752502	0.980654
	C3433	C	0.140476	0.814370	0.976050
	C3434	C	0.139775	0.690319	0.976061
	C3435	C	0.139355	0.253670	0.980653
	C3436	C	0.139756	0.316052	0.976081
	C3437	C	0.140399	0.191623	0.976039
	C3438	C	0.155682	0.191432	0.901923
	C3439	C	0.203560	0.191165	0.904509
	C3440	C	0.203539	0.315328	0.904474
	C3441	C	0.155518	0.315603	0.901870
	C3442	C	0.201792	0.253222	0.918128
	C3443	C	0.157344	0.043322	1.004206
	C3444	C	0.178308	0.043094	0.873289
	C3445	C	0.185160	0.962232	0.878500
	C3446	C	0.157340	0.962641	1.004207
	C3447	C	0.178297	0.962333	0.873293
	N3448	N	0.122633	0.069968	0.937603
	N3449	N	0.122602	0.935439	0.937571
	N3450	N	0.122086	0.435542	0.937493
	N3451	N	0.122132	0.569986	0.937485
	N3452	N	0.155809	0.435631	1.005887
	N3453	N	0.155844	0.570149	1.005897
	N3454	N	0.155862	0.070090	1.005869
	N3455	N	0.155836	0.935504	1.005896
	O3456	O	0.343879	0.694714	0.053046
	O3457	O	0.343861	0.811483	0.053057
	O3458	O	0.283959	0.694230	0.070097
	O3459	O	0.283954	0.811070	0.070143
	O3460	O	0.283817	0.193871	0.070075
	O3461	O	0.283864	0.310763	0.070107
	O3462	O	0.282103	0.695425	0.047983
	O3463	O	0.282009	0.811640	0.047987
	O3464	O	0.282090	0.194342	0.047935
	O3465	O	0.282086	0.310745	0.047972
	O3466	O	0.345498	0.695141	0.075142
	O3467	O	0.345606	0.811473	0.075209
	O3468	O	0.345435	0.195424	0.075181
	O3469	O	0.345424	0.312006	0.075183
	O3470	O	0.343772	0.194604	0.053074
	O3471	O	0.343915	0.311451	0.053073
	O3472	O	0.346178	0.694464	0.007513
	O3473	O	0.310623	0.695819	0.005440
	O3474	O	0.316866	0.694661	0.117607
	O3475	O	0.316925	0.811465	0.117655
	O3476	O	0.281356	0.694670	0.115645
	O3477	O	0.281358	0.811413	0.115616
	O3478	O	0.310726	0.812429	0.005466
	O3479	O	0.346449	0.811190	0.007496
	O3480	O	0.346402	0.195027	0.007522
	O3481	O	0.310810	0.194731	0.005463
	O3482	O	0.317083	0.194786	0.117709
	O3483	O	0.316951	0.311573	0.117687
	O3484	O	0.281386	0.194453	0.115624
	O3485	O	0.281251	0.311338	0.115602
	O3486	O	0.310748	0.311426	0.005442
	O3487	O	0.346388	0.311780	0.007509
	H3488	H	0.283668	0.642832	0.084731
	H3489	H	0.284112	0.862280	0.084803
	H3490	H	0.283944	0.142597	0.084752
	H3491	H	0.283800	0.361980	0.084771
	H3492	H	0.290146	0.863260	0.034142
	H3493	H	0.289880	0.644333	0.034011
	H3494	H	0.290290	0.362138	0.034112
	H3495	H	0.290278	0.143481	0.034075
	H3496	H	0.362857	0.064863	0.064867
	H3497	H	0.362192	0.064505	0.063683
	H3498	H	0.362249	0.941626	0.063654
	H3499	H	0.362933	0.940871	0.064880
	H3500	H	0.360309	0.064973	0.065917
	H3501	H	0.360460	0.941337	0.065928
	H3502	H	0.263099	0.064300	0.058629
	H3503	H	0.263173	0.941045	0.058689
	H3504	H	0.264829	0.064699	0.060268
	H3505	H	0.264953	0.941584	0.060359
	H3506	H	0.269994	0.064731	0.060503
	H3507	H	0.270003	0.941482	0.060527
	H3508	H	0.266629	0.441362	0.055569
	H3509	H	0.262157	0.441467	0.056910
	H3510	H	0.273284	0.441423	0.057288
	H3511	H	0.362449	0.441485	0.069301
	H3512	H	0.351530	0.441450	0.066889
	H3513	H	0.350162	0.441520	0.062807
	H3514	H	0.262292	0.564838	0.056953
	H3515	H	0.266644	0.564333	0.055579
	H3516	H	0.350176	0.565088	0.062828
	H3517	H	0.351488	0.565122	0.066889
	H3518	H	0.362490	0.565275	0.069314
	H3519	H	0.273245	0.564979	0.057312
	H3520	H	0.337692	0.643669	0.089027
	H3521	H	0.337802	0.862550	0.089058
	H3522	H	0.337496	0.143987	0.089060
	H3523	H	0.337467	0.363216	0.089037
	H3524	H	0.299170	0.645070	0.018577
	H3525	H	0.346492	0.643258	0.022179
	H3526	H	0.346514	0.862626	0.022196
	H3527	H	0.299390	0.863553	0.018697
	H3528	H	0.343698	0.643342	0.038371
	H3529	H	0.343824	0.862658	0.038382
	H3530	H	0.328348	0.643948	0.104465
	H3531	H	0.328443	0.862488	0.104480
	H3532	H	0.330210	0.441673	-0.005378
	H3533	H	0.300616	0.441567	0.130103
	H3534	H	0.332987	0.441356	-0.004202
	H3535	H	0.332588	0.441203	-0.002997
	H3536	H	0.301782	0.441490	0.124410
	H3537	H	0.304628	0.441341	0.126949
	H3538	H	0.300549	0.564682	0.130106
	H3539	H	0.330185	0.564806	-0.005318
	H3540	H	0.304707	0.564961	0.126969
	H3541	H	0.301820	0.564611	0.124412
	H3542	H	0.332503	0.564688	-0.003000
	H3543	H	0.332869	0.565121	-0.004177
	H3544	H	0.328304	0.143879	0.104496
	H3545	H	0.328216	0.363111	0.104486
	H3546	H	0.327801	0.065157	-0.001219
	H3547	H	0.332990	0.064812	-0.001173
	H3548	H	0.323909	0.065225	-0.004223
	H3549	H	0.281397	0.862172	0.101000
	H3550	H	0.280941	0.642906	0.100946
	H3551	H	0.281108	0.361993	0.100975
	H3552	H	0.281254	0.142577	0.100941
	H3553	H	0.299693	0.143843	0.018662
	H3554	H	0.346605	0.143632	0.022175
	H3555	H	0.346364	0.363015	0.022167
	H3556	H	0.299602	0.362302	0.018694
	H3557	H	0.343808	0.143303	0.038357
	H3558	H	0.343592	0.362881	0.038383
	H3559	H	0.303837	0.064537	0.126667
	H3560	H	0.300732	0.065098	0.124495
	H3561	H	0.293516	0.065362	0.124686
	H3562	H	0.332944	0.941554	-0.001194
	H3563	H	0.327783	0.941477	-0.001247
	H3564	H	0.323819	0.941395	-0.004221
	H3565	H	0.303809	0.941997	0.126608
	H3566	H	0.300668	0.941465	0.124459
	H3567	H	0.293437	0.940846	0.124663
	Zn3568	Zn	0.267747	0.680287	0.058687
	Zn3569	Zn	0.267620	0.825412	0.058726
	Zn3570	Zn	0.267605	0.180256	0.058691
	Zn3571	Zn	0.267631	0.325598	0.058653
	Zn3572	Zn	0.297687	0.680492	0.127010
	Zn3573	Zn	0.297633	0.825686	0.127031
	Zn3574	Zn	0.297672	0.180436	0.127042
	Zn3575	Zn	0.297546	0.325560	0.127017
	C3576	C	0.343299	0.753111	0.049218
	C3577	C	0.284473	0.752593	0.073948
	C3578	C	0.284363	0.752515	0.083784
	C3579	C	0.283267	0.690489	0.088348
	C3580	C	0.283519	0.814555	0.088388
	C3581	C	0.284351	0.252275	0.073924
	C3582	C	0.284237	0.252337	0.083773
	C3583	C	0.283373	0.190235	0.088351
	C3584	C	0.283320	0.314345	0.088381
	C3585	C	0.284306	0.753600	0.044391
	C3586	C	0.289760	0.753789	0.035101
	C3587	C	0.292112	0.815817	0.030699
	C3588	C	0.291978	0.692068	0.030631
	C3589	C	0.284376	0.252608	0.044364
	C3590	C	0.289887	0.252681	0.035080
	C3591	C	0.292302	0.314586	0.030690
	C3592	C	0.292315	0.191020	0.030659
	C3593	C	0.361788	0.043529	0.064352
	C3594	C	0.361825	0.962618	0.064334
	C3595	C	0.264976	0.043326	0.059261
	C3596	C	0.265019	0.962513	0.059290
	C3597	C	0.270092	0.043484	0.059499
	C3598	C	0.270130	0.962653	0.059517
	C3599	C	0.265296	0.462579	0.056868
	C3600	C	0.364216	0.462711	0.067157
	C3601	C	0.353177	0.463047	0.064767
	C3602	C	0.265343	0.543225	0.056888
	C3603	C	0.353192	0.543758	0.064776
	C3604	C	0.364238	0.543582	0.067154
	C3605	C	0.343402	0.753230	0.078761
	C3606	C	0.343170	0.253698	0.078764
	C3607	C	0.337955	0.753082	0.088058
	C3608	C	0.335632	0.691164	0.092451
	C3609	C	0.335698	0.815006	0.092477
	C3610	C	0.337687	0.253623	0.088064
	C3611	C	0.335423	0.191577	0.092483
	C3612	C	0.335403	0.315586	0.092473
	C3613	C	0.343306	0.253025	0.049245
	C3614	C	0.346852	0.752885	0.011347
	C3615	C	0.307259	0.754170	0.008778
	C3616	C	0.280786	0.752966	0.111795
	C3617	C	0.344272	0.691017	0.034771
	C3618	C	0.344286	0.814962	0.034780
	C3619	C	0.346745	0.752946	0.021192
	C3620	C	0.299844	0.754257	0.017734
	C3621	C	0.297010	0.692290	0.022040
	C3622	C	0.345867	0.690915	0.025774
	C3623	C	0.345888	0.814915	0.025792
	C3624	C	0.297143	0.816040	0.022106
	C3625	C	0.343353	0.753051	0.039369
	C3626	C	0.320355	0.753139	0.114323
	C3627	C	0.330541	0.691271	0.101028
	C3628	C	0.330608	0.815085	0.101047
	C3629	C	0.327839	0.753225	0.105381
	C3630	C	0.297613	0.462833	0.129234
	C3631	C	0.332074	0.462568	-0.003676
	C3632	C	0.301709	0.462648	0.126037
	C3633	C	0.297679	0.543514	0.129246
	C3634	C	0.301753	0.543659	0.126049
	C3635	C	0.332049	0.543597	-0.003671
	C3636	C	0.320424	0.253206	0.114391
	C3637	C	0.330458	0.191512	0.101076
	C3638	C	0.330414	0.315502	0.101067
	C3639	C	0.327759	0.253450	0.105427
	C3640	C	0.330361	0.043452	-0.001904
	C3641	C	0.346963	0.253459	0.011355
	C3642	C	0.307403	0.253110	0.008776
	C3643	C	0.280725	0.252829	0.111788
	C3644	C	0.344318	0.191104	0.034778
	C3645	C	0.344199	0.315148	0.034787
	C3646	C	0.346831	0.253362	0.021209
	C3647	C	0.300067	0.253108	0.017742
	C3648	C	0.280812	0.752547	0.101931
	C3649	C	0.281857	0.814595	0.097372
	C3650	C	0.281603	0.690498	0.097335
	C3651	C	0.280819	0.252322	0.101932
	C3652	C	0.281692	0.314354	0.097368
	C3653	C	0.281762	0.190276	0.097339
	C3654	C	0.297376	0.191110	0.022077
	C3655	C	0.345975	0.191232	0.025789
	C3656	C	0.345853	0.315407	0.025793
	C3657	C	0.297336	0.314882	0.022102
	C3658	C	0.343373	0.253058	0.039384
	C3659	C	0.301000	0.043456	0.125965
	C3660	C	0.326443	0.043623	-0.004921
	C3661	C	0.330364	0.962768	-0.001906
	C3662	C	0.301000	0.963062	0.125940
	C3663	C	0.326443	0.962768	-0.004917
	N3664	N	0.267643	0.070232	0.058648
	N3665	N	0.267678	0.935725	0.058712
	N3666	N	0.267738	0.435622	0.058633
	N3667	N	0.267798	0.570135	0.058641
	N3668	N	0.297617	0.435859	0.127003
	N3669	N	0.297688	0.570391	0.127012
	N3670	N	0.297599	0.070512	0.127058
	N3671	N	0.297554	0.935965	0.127028
	O3672	O	0.387327	0.694576	0.170538
	O3673	O	0.387340	0.810911	0.170552
	O3674	O	0.256761	0.694300	0.198791
	O3675	O	0.256848	0.810763	0.198820
	O3676	O	0.256808	0.194297	0.198835
	O3677	O	0.257066	0.310659	0.198780
	O3678	O	0.254549	0.694931	0.180193
	O3679	O	0.254522	0.811608	0.180154
	O3680	O	0.254388	0.194288	0.180152
	O3681	O	0.254698	0.311198	0.180219
	O3682	O	0.389658	0.694296	0.189204
	O3683	O	0.389479	0.810905	0.189185
	O3684	O	0.389534	0.194432	0.189200
	O3685	O	0.389516	0.311322	0.189201
	O3686	O	0.387190	0.195151	0.170583
	O3687	O	0.387378	0.311450	0.170579
	O3688	O	0.319414	0.694854	0.136289
	O3689	O	0.283121	0.694402	0.137709
	O3690	O	0.361172	0.694319	0.231726
	O3691	O	0.361046	0.810795	0.231673
	O3692	O	0.324822	0.693883	0.233051
	O3693	O	0.324791	0.810148	0.233019
	O3694	O	0.282966	0.810807	0.137657
	O3695	O	0.319273	0.810954	0.136385
	O3696	O	0.319487	0.194742	0.136302
	O3697	O	0.283149	0.194396	0.137722
	O3698	O	0.361151	0.194706	0.231746
	O3699	O	0.361039	0.311156	0.231707
	O3700	O	0.324831	0.194001	0.233056
	O3701	O	0.324876	0.310256	0.233026
	O3702	O	0.283184	0.310681	0.137755
	O3703	O	0.319312	0.310778	0.136284
	H3704	H	0.278651	0.643790	0.209696
	H3705	H	0.278477	0.860338	0.209811
	H3706	H	0.278795	0.143786	0.209704
	H3707	H	0.278932	0.360656	0.209716
	H3708	H	0.265356	0.862368	0.166898
	H3709	H	0.266209	0.643783	0.167066
	H3710	H	0.266251	0.362081	0.167097
	H3711	H	0.265754	0.142990	0.167004
	H3712	H	0.404646	0.064079	0.181380
	H3713	H	0.408876	0.064343	0.182572
	H3714	H	0.408877	0.941039	0.182576
	H3715	H	0.404583	0.941123	0.181371
	H3716	H	0.404237	0.064706	0.178339
	H3717	H	0.404266	0.941058	0.178269
	H3718	H	0.233957	0.063914	0.185936
	H3719	H	0.234049	0.941219	0.185948
	H3720	H	0.228700	0.064239	0.187412
	H3721	H	0.228761	0.940948	0.187385
	H3722	H	0.229160	0.064737	0.191542
	H3723	H	0.229162	0.940999	0.191541
	H3724	H	0.230728	0.440831	0.190894
	H3725	H	0.234826	0.440861	0.192090
	H3726	H	0.230597	0.440957	0.187844
	H3727	H	0.409652	0.441383	0.181264
	H3728	H	0.406786	0.441098	0.180547
	H3729	H	0.406418	0.441253	0.179389
	H3730	H	0.234687	0.564168	0.192098
	H3731	H	0.230633	0.564675	0.190910
	H3732	H	0.406488	0.564749	0.179334
	H3733	H	0.406677	0.564813	0.180508
	H3734	H	0.409681	0.565083	0.181238
	H3735	H	0.230570	0.564712	0.187821
	H3736	H	0.378479	0.643040	0.202402
	H3737	H	0.378020	0.861899	0.202325
	H3738	H	0.378450	0.143382	0.202440
	H3739	H	0.378093	0.362635	0.202382
	H3740	H	0.275430	0.643571	0.151616
	H3741	H	0.341237	0.644048	0.147281
	H3742	H	0.341228	0.861318	0.147289
	H3743	H	0.274579	0.862418	0.151449
	H3744	H	0.365403	0.644332	0.159674
	H3745	H	0.365334	0.861264	0.159654
	H3746	H	0.369416	0.642852	0.217878
	H3747	H	0.368816	0.861881	0.217777
	H3748	H	0.294655	0.441615	0.129944
	H3749	H	0.344112	0.441425	0.245253
	H3750	H	0.290736	0.441081	0.126418
	H3751	H	0.293670	0.441624	0.124128
	H3752	H	0.353212	0.441103	0.242205
	H3753	H	0.351551	0.441046	0.244650
	H3754	H	0.344154	0.564200	0.245254
	H3755	H	0.294843	0.564879	0.129950
	H3756	H	0.351571	0.564642	0.244681
	H3757	H	0.353312	0.564969	0.242227
	H3758	H	0.293781	0.564544	0.124175
	H3759	H	0.290823	0.564848	0.126499
	H3760	H	0.369184	0.143417	0.217882
	H3761	H	0.368817	0.362558	0.217836
	H3762	H	0.295669	0.064247	0.129871
	H3763	H	0.300931	0.064868	0.129720
	H3764	H	0.291375	0.064460	0.126886
	H3765	H	0.302675	0.860518	0.222209
	H3766	H	0.302801	0.643181	0.222079
	H3767	H	0.302925	0.360413	0.222119
	H3768	H	0.302943	0.143521	0.222113
	H3769	H	0.275025	0.142880	0.151561
	H3770	H	0.341234	0.145045	0.147277
	H3771	H	0.341392	0.361240	0.147166
	H3772	H	0.275516	0.361957	0.151668
	H3773	H	0.365207	0.145090	0.159737
	H3774	H	0.365489	0.361521	0.159593
	H3775	H	0.339832	0.064153	0.245620
	H3776	H	0.347890	0.064738	0.247169
	H3777	H	0.356454	0.064507	0.243789
	H3778	H	0.300964	0.941093	0.129719
	H3779	H	0.295698	0.941018	0.129866
	H3780	H	0.291336	0.941768	0.126892
	H3781	H	0.339667	0.941731	0.245585
	H3782	H	0.347750	0.941458	0.247220
	H3783	H	0.356491	0.941276	0.243819
	Zn3784	Zn	0.235051	0.680004	0.189463
	Zn3785	Zn	0.235181	0.825014	0.189523
	Zn3786	Zn	0.235010	0.180096	0.189474
	Zn3787	Zn	0.235308	0.325278	0.189528
	Zn3788	Zn	0.346580	0.680285	0.242403
	Zn3789	Zn	0.346499	0.825330	0.242318
	Zn3790	Zn	0.346588	0.180433	0.242419
	Zn3791	Zn	0.346442	0.325334	0.242348
	C3792	C	0.381507	0.752739	0.167782
	C3793	C	0.262563	0.752450	0.201602
	C3794	C	0.277294	0.752241	0.208979
	C3795	C	0.284103	0.690763	0.212460
	C3796	C	0.284013	0.813488	0.212533
	C3797	C	0.262689	0.252369	0.201610
	C3798	C	0.277353	0.252260	0.208999
	C3799	C	0.284128	0.190751	0.212499
	C3800	C	0.284189	0.313599	0.212501
	C3801	C	0.257949	0.753208	0.176852
	C3802	C	0.265245	0.753056	0.167882
	C3803	C	0.267694	0.814929	0.163491
	C3804	C	0.268158	0.691171	0.163583
	C3805	C	0.257978	0.252732	0.176886
	C3806	C	0.265353	0.252643	0.167940
	C3807	C	0.268286	0.314513	0.163647
	C3808	C	0.267988	0.190580	0.163587
	C3809	C	0.407380	0.043083	0.181429
	C3810	C	0.407369	0.962406	0.181426
	C3811	C	0.232283	0.042895	0.187419
	C3812	C	0.232332	0.962338	0.187421
	C3813	C	0.232721	0.043141	0.191588
	C3814	C	0.232756	0.962187	0.191579
	C3815	C	0.233342	0.462286	0.190973
	C3816	C	0.410297	0.462465	0.180697
	C3817	C	0.407298	0.462548	0.179950
	C3818	C	0.233281	0.543185	0.190971
	C3819	C	0.407291	0.543452	0.179927
	C3820	C	0.410291	0.543218	0.180686
	C3821	C	0.386122	0.752562	0.192502
	C3822	C	0.386111	0.252885	0.192512
	C3823	C	0.378734	0.752501	0.201447
	C3824	C	0.376206	0.690501	0.205819
	C3825	C	0.375940	0.814390	0.205775
	C3826	C	0.378767	0.253031	0.201488
	C3827	C	0.376154	0.190965	0.205844
	C3828	C	0.375971	0.315081	0.205823
	C3829	C	0.381504	0.253407	0.167778
	C3830	C	0.325082	0.752782	0.139150
	C3831	C	0.280808	0.752693	0.141269
	C3832	C	0.318987	0.751938	0.230262
	C3833	C	0.360005	0.691325	0.156907
	C3834	C	0.359993	0.814107	0.156897
	C3835	C	0.339772	0.752619	0.146536
	C3836	C	0.275290	0.752952	0.150539
	C3837	C	0.273215	0.691219	0.154997
	C3838	C	0.346623	0.691175	0.150027
	C3839	C	0.346609	0.814096	0.150025
	C3840	C	0.272726	0.814867	0.154899
	C3841	C	0.366790	0.752718	0.160411
	C3842	C	0.363335	0.752480	0.228106
	C3843	C	0.371230	0.690501	0.214412
	C3844	C	0.370954	0.814336	0.214364
	C3845	C	0.368758	0.752430	0.218803
	C3846	C	0.343428	0.462341	0.243726
	C3847	C	0.293626	0.462686	0.125749
	C3848	C	0.350900	0.462235	0.243162
	C3849	C	0.343469	0.543080	0.243733
	C3850	C	0.350945	0.543419	0.243184
	C3851	C	0.293659	0.543474	0.125768
	C3852	C	0.363281	0.252892	0.228129
	C3853	C	0.371142	0.190982	0.214433
	C3854	C	0.370945	0.315023	0.214414
	C3855	C	0.368720	0.252949	0.218830
	C3856	C	0.298082	0.043546	0.129069
	C3857	C	0.325196	0.252896	0.139082
	C3858	C	0.280909	0.252472	0.141329
	C3859	C	0.319041	0.252064	0.230259
	C3860	C	0.359972	0.192002	0.156912
	C3861	C	0.360091	0.314542	0.156844
	C3862	C	0.339876	0.253126	0.146454
	C3863	C	0.275431	0.252451	0.150627
	C3864	C	0.304315	0.751937	0.222877
	C3865	C	0.297387	0.813349	0.219426
	C3866	C	0.297480	0.690576	0.219348
	C3867	C	0.304303	0.252010	0.222896
	C3868	C	0.297585	0.313450	0.219368
	C3869	C	0.297548	0.190683	0.219367
	C3870	C	0.273020	0.190422	0.155007
	C3871	C	0.346601	0.191967	0.150021
	C3872	C	0.346724	0.314363	0.149948
	C3873	C	0.273307	0.314437	0.155064
	C3874	C	0.366843	0.253383	0.160379
	C3875	C	0.344625	0.043051	0.245345
	C3876	C	0.293780	0.043665	0.126113
	C3877	C	0.298090	0.962455	0.129059
	C3878	C	0.344569	0.962630	0.245338
	C3879	C	0.293749	0.962651	0.126102
	N3880	N	0.234995	0.069937	0.189503
	N3881	N	0.235063	0.935380	0.189509
	N3882	N	0.235160	0.435576	0.189477
	N3883	N	0.235077	0.570058	0.189468
	N3884	N	0.346720	0.435500	0.242406
	N3885	N	0.346812	0.570121	0.242419
	N3886	N	0.346819	0.070126	0.242385
	N3887	N	0.346786	0.935505	0.242374
	O3888	O	0.363038	0.695568	0.299531
	O3889	O	0.363512	0.812354	0.299537
	O3890	O	0.300227	0.695119	0.316448
	O3891	O	0.299971	0.811827	0.316459
	O3892	O	0.300164	0.193913	0.316399
	O3893	O	0.300170	0.310620	0.316400
	O3894	O	0.298629	0.695170	0.294169
	O3895	O	0.298897	0.811655	0.294259
	O3896	O	0.298799	0.194838	0.294202
	O3897	O	0.298719	0.311372	0.294201
	O3898	O	0.361743	0.695593	0.320322
	O3899	O	0.362181	0.812427	0.320392
	O3900	O	0.362104	0.192726	0.320370
	O3901	O	0.361848	0.309466	0.320352
	O3902	O	0.363628	0.193563	0.299472
	O3903	O	0.363009	0.310238	0.299537
	O3904	O	0.362438	0.694823	0.253971
	O3905	O	0.326943	0.694952	0.251646
	O3906	O	0.336288	0.694965	0.363554
	O3907	O	0.336515	0.811571	0.363697
	O3908	O	0.300949	0.694635	0.362040
	O3909	O	0.300844	0.811247	0.362069
	O3910	O	0.327007	0.811643	0.251659
	O3911	O	0.362242	0.811577	0.253899
	O3912	O	0.362568	0.194555	0.253897
	O3913	O	0.327080	0.194522	0.251691
	O3914	O	0.336430	0.194042	0.363666
	O3915	O	0.336185	0.310690	0.363523
	O3916	O	0.300843	0.194622	0.362037
	O3917	O	0.300897	0.311310	0.362041
	O3918	O	0.326887	0.311188	0.251627
	O3919	O	0.362347	0.311525	0.253926
	H3920	H	0.300370	0.643692	0.331109
	H3921	H	0.300718	0.863255	0.331114
	H3922	H	0.300740	0.142963	0.331090
	H3923	H	0.300516	0.362398	0.331073
	H3924	H	0.307102	0.863066	0.280419
	H3925	H	0.305805	0.644084	0.280213
	H3926	H	0.306530	0.362316	0.280335
	H3927	H	0.306834	0.143357	0.280376
	H3928	H	0.390620	0.064494	0.306922
	H3929	H	0.380497	0.064466	0.304367
	H3930	H	0.380510	0.940803	0.304404
	H3931	H	0.390651	0.941419	0.306908
	H3932	H	0.392103	0.065000	0.314193
	H3933	H	0.392158	0.941317	0.314230
	H3934	H	0.287170	0.064710	0.306315
	H3935	H	0.287025	0.941229	0.306285
	H3936	H	0.288262	0.064530	0.304803
	H3937	H	0.288249	0.940869	0.304844
	H3938	H	0.285361	0.064563	0.303042
	H3939	H	0.285328	0.940851	0.303019
	H3940	H	0.288558	0.441239	0.304157
	H3941	H	0.285791	0.441281	0.302864
	H3942	H	0.287605	0.440519	0.306581
	H3943	H	0.371437	0.441047	0.308396
	H3944	H	0.381189	0.440738	0.306205
	H3945	H	0.388079	0.440939	0.308445
	H3946	H	0.285838	0.564514	0.302865
	H3947	H	0.288768	0.564427	0.304187
	H3948	H	0.388046	0.564147	0.308445
	H3949	H	0.381199	0.564532	0.306212
	H3950	H	0.371506	0.564761	0.308399
	H3951	H	0.287604	0.564201	0.306663
	H3952	H	0.352468	0.644261	0.333981
	H3953	H	0.353377	0.863880	0.334212
	H3954	H	0.353299	0.141339	0.334201
	H3955	H	0.352737	0.361211	0.334089
	H3956	H	0.314967	0.643888	0.264772
	H3957	H	0.362491	0.643959	0.268649
	H3958	H	0.363186	0.863293	0.268592
	H3959	H	0.316281	0.862824	0.264966
	H3960	H	0.361076	0.644261	0.284913
	H3961	H	0.361755	0.863714	0.284878
	H3962	H	0.344764	0.643564	0.349653
	H3963	H	0.345677	0.863650	0.349934
	H3964	H	0.340357	0.440694	0.243120
	H3965	H	0.314798	0.441375	0.372691
	H3966	H	0.342640	0.440671	0.239806
	H3967	H	0.348006	0.441386	0.239349
	H3968	H	0.318933	0.441511	0.374839
	H3969	H	0.316167	0.441752	0.374503
	H3970	H	0.314702	0.564605	0.372703
	H3971	H	0.340459	0.564489	0.243159
	H3972	H	0.316055	0.564772	0.374472
	H3973	H	0.318939	0.565258	0.374812
	H3974	H	0.348123	0.564124	0.239348
	H3975	H	0.342651	0.564046	0.239793
	H3976	H	0.345596	0.141735	0.349920
	H3977	H	0.345043	0.361610	0.349743
	H3978	H	0.343814	0.064815	0.237662
	H3979	H	0.337494	0.064334	0.240168
	H3980	H	0.354794	0.064909	0.239792
	H3981	H	0.299218	0.863326	0.347371
	H3982	H	0.298862	0.643625	0.347377
	H3983	H	0.299012	0.362744	0.347336
	H3984	H	0.299189	0.143192	0.347365
	H3985	H	0.315992	0.143172	0.264890
	H3986	H	0.363398	0.142832	0.268488
	H3987	H	0.362291	0.362596	0.268610
	H3988	H	0.315625	0.362409	0.264853
	H3989	H	0.361832	0.142148	0.284776
	H3990	H	0.360749	0.361840	0.284898
	H3991	H	0.307521	0.064882	0.374811
	H3992	H	0.314192	0.064707	0.378122
	H3993	H	0.326600	0.063901	0.376834
	H3994	H	0.337474	0.941090	0.240135
	H3995	H	0.343888	0.940581	0.237602
	H3996	H	0.354987	0.940988	0.239799
	H3997	H	0.307594	0.940947	0.374805
	H3998	H	0.314237	0.941065	0.378115
	H3999	H	0.326507	0.941206	0.376869
	Zn4000	Zn	0.284331	0.680245	0.304920
	Zn4001	Zn	0.284147	0.825593	0.304906
	Zn4002	Zn	0.284260	0.180241	0.304875
	Zn4003	Zn	0.284216	0.325771	0.304919
	Zn4004	Zn	0.317950	0.681007	0.373239
	Zn4005	Zn	0.317867	0.825561	0.373254
	Zn4006	Zn	0.317918	0.180565	0.373269
	Zn4007	Zn	0.318034	0.325156	0.373211
	C4008	C	0.362188	0.754028	0.295726
	C4009	C	0.300691	0.753457	0.320290
	C4010	C	0.300888	0.753519	0.330146
	C4011	C	0.300173	0.691408	0.334739
	C4012	C	0.300323	0.815608	0.334741
	C4013	C	0.300774	0.252272	0.320236
	C4014	C	0.301030	0.252569	0.330092
	C4015	C	0.300418	0.190672	0.334707
	C4016	C	0.300270	0.314773	0.334698
	C4017	C	0.300968	0.753499	0.290617
	C4018	C	0.306296	0.753535	0.281306
	C4019	C	0.308890	0.815491	0.276951
	C4020	C	0.308188	0.691592	0.276836
	C4021	C	0.300981	0.253082	0.290613
	C4022	C	0.306443	0.252857	0.281313
	C4023	C	0.308653	0.314823	0.276892
	C4024	C	0.308814	0.190889	0.276907
	C4025	C	0.384262	0.043113	0.306979
	C4026	C	0.384274	0.962324	0.306982
	C4027	C	0.286824	0.043206	0.305377
	C4028	C	0.286794	0.962404	0.305380
	C4029	C	0.283875	0.043116	0.303582
	C4030	C	0.283867	0.962201	0.303574
	C4031	C	0.286488	0.462449	0.303881
	C4032	C	0.373644	0.462530	0.310419
	C4033	C	0.383426	0.462278	0.308209
	C4034	C	0.286548	0.543117	0.303905
	C4035	C	0.383421	0.543161	0.308212
	C4036	C	0.373679	0.543202	0.310402
	C4037	C	0.359169	0.754082	0.323851
	C4038	C	0.359208	0.251004	0.323870
	C4039	C	0.353197	0.754084	0.333125
	C4040	C	0.350882	0.691844	0.337525
	C4041	C	0.351399	0.816098	0.337664
	C4042	C	0.353263	0.251136	0.333137
	C4043	C	0.351411	0.189186	0.337660
	C4044	C	0.351092	0.313420	0.337582
	C4045	C	0.362210	0.251957	0.295682
	C4046	C	0.362957	0.753345	0.257772
	C4047	C	0.323579	0.753302	0.254970
	C4048	C	0.299789	0.753037	0.358243
	C4049	C	0.361427	0.691823	0.281281
	C4050	C	0.361804	0.816043	0.281251
	C4051	C	0.363188	0.753625	0.267621
	C4052	C	0.316241	0.753372	0.263948
	C4053	C	0.313133	0.691478	0.268239
	C4054	C	0.362411	0.691710	0.272252
	C4055	C	0.362754	0.815770	0.272217
	C4056	C	0.313840	0.815377	0.268351
	C4057	C	0.361136	0.754028	0.285863
	C4058	C	0.339172	0.753418	0.360114
	C4059	C	0.346748	0.691633	0.346260
	C4060	C	0.347246	0.815862	0.346404
	C4061	C	0.345015	0.753628	0.350838
	C4062	C	0.316306	0.462442	0.372483
	C4063	C	0.345707	0.462434	0.240319
	C4064	C	0.317669	0.462698	0.374295
	C4065	C	0.316272	0.543351	0.372469
	C4066	C	0.317641	0.543589	0.374279
	C4067	C	0.345760	0.543031	0.240324
	C4068	C	0.339103	0.252168	0.360093
	C4069	C	0.347282	0.189386	0.346401
	C4070	C	0.346959	0.313672	0.346318
	C4071	C	0.345048	0.251616	0.350839
	C4072	C	0.342295	0.043367	0.239820
	C4073	C	0.363068	0.253019	0.257728
	C4074	C	0.323622	0.252880	0.254991
	C4075	C	0.299837	0.252954	0.358219
	C4076	C	0.361900	0.190034	0.281167
	C4077	C	0.361286	0.314319	0.281242
	C4078	C	0.363304	0.252802	0.267573
	C4079	C	0.316363	0.252862	0.263953
	C4080	C	0.298727	0.753504	0.348393
	C4081	C	0.299348	0.815510	0.343767
	C4082	C	0.299167	0.691461	0.343772
	C4083	C	0.298836	0.252936	0.348349
	C4084	C	0.299289	0.314924	0.343725
	C4085	C	0.299410	0.190861	0.343735
	C4086	C	0.313783	0.190772	0.268309
	C4087	C	0.362882	0.190442	0.272135
	C4088	C	0.362269	0.314696	0.272213
	C4089	C	0.313597	0.314852	0.268296
	C4090	C	0.361119	0.252005	0.285805
	C4091	C	0.312743	0.043524	0.375610
	C4092	C	0.353376	0.043442	0.241942
	C4093	C	0.342303	0.962108	0.239782
	C4094	C	0.312723	0.962375	0.375609
	C4095	C	0.353388	0.962595	0.241943
	N4096	N	0.284323	0.070047	0.304846
	N4097	N	0.284260	0.935513	0.304842
	N4098	N	0.284499	0.435623	0.304922
	N4099	N	0.284548	0.570070	0.304956
	N4100	N	0.318129	0.435535	0.373215
	N4101	N	0.318046	0.570229	0.373200
	N4102	N	0.317954	0.070226	0.373266
	N4103	N	0.317959	0.935707	0.373281
	O4104	O	0.335798	0.694958	0.430026
	O4105	O	0.335841	0.811911	0.430046
	O4106	O	0.272572	0.693916	0.446930
	O4107	O	0.272888	0.810728	0.446922
	O4108	O	0.272742	0.195463	0.446907
	O4109	O	0.272413	0.312248	0.446934
	O4110	O	0.273750	0.694020	0.426080
	O4111	O	0.274035	0.810762	0.426133
	O4112	O	0.274124	0.195394	0.426160
	O4113	O	0.273972	0.312048	0.426097
	O4114	O	0.337194	0.694861	0.452255
	O4115	O	0.337138	0.811214	0.452212
	O4116	O	0.337044	0.194660	0.452222
	O4117	O	0.337073	0.311162	0.452252
	O4118	O	0.335942	0.194418	0.430049
	O4119	O	0.335859	0.311479	0.430048
	O4120	O	0.334941	0.694826	0.384424
	O4121	O	0.299646	0.694302	0.382899
	O4122	O	0.308792	0.695451	0.494788
	O4123	O	0.308709	0.812245	0.494759
	O4124	O	0.273518	0.693988	0.492605
	O4125	O	0.273598	0.810861	0.492534
	O4126	O	0.299411	0.810987	0.382824
	O4127	O	0.334872	0.811612	0.384449
	O4128	O	0.334985	0.194569	0.384426
	O4129	O	0.299438	0.194721	0.382840
	O4130	O	0.308739	0.194244	0.494793
	O4131	O	0.308850	0.310999	0.494834
	O4132	O	0.273601	0.195529	0.492538
	O4133	O	0.273510	0.312394	0.492575
	O4134	O	0.299645	0.311409	0.382861
	O4135	O	0.334871	0.311303	0.384438
	H4136	H	0.274385	0.641927	0.461611
	H4137	H	0.274664	0.861768	0.461623
	H4138	H	0.274570	0.144005	0.461647
	H4139	H	0.274487	0.364010	0.461575
	H4140	H	0.283141	0.862473	0.412358
	H4141	H	0.282917	0.642611	0.412336
	H4142	H	0.282600	0.363627	0.412252
	H4143	H	0.283343	0.143699	0.412421
	H4144	H	0.354662	0.064684	0.443599
	H4145	H	0.356569	0.064768	0.441954
	H4146	H	0.356635	0.941277	0.441924
	H4147	H	0.354628	0.941663	0.443642
	H4148	H	0.349084	0.064884	0.443490
	H4149	H	0.349039	0.941840	0.443460
	H4150	H	0.256908	0.064977	0.435057
	H4151	H	0.256906	0.941340	0.435045
	H4152	H	0.255267	0.064750	0.434856
	H4153	H	0.255301	0.941407	0.434883
	H4154	H	0.253755	0.064780	0.435623
	H4155	H	0.253818	0.941228	0.435638
	H4156	H	0.253347	0.441586	0.430145
	H4157	H	0.245403	0.441518	0.432611
	H4158	H	0.265559	0.441282	0.433232
	H4159	H	0.353657	0.441581	0.445800
	H4160	H	0.344210	0.441142	0.443647
	H4161	H	0.343164	0.441471	0.440124
	H4162	H	0.245375	0.564926	0.432590
	H4163	H	0.253377	0.564808	0.430174
	H4164	H	0.343214	0.564576	0.440056
	H4165	H	0.344264	0.564685	0.443607
	H4166	H	0.353713	0.564422	0.445794
	H4167	H	0.265465	0.564824	0.433264
	H4168	H	0.329172	0.643741	0.466140
	H4169	H	0.328950	0.862565	0.466057
	H4170	H	0.329211	0.143552	0.466103
	H4171	H	0.328931	0.362396	0.466105
	H4172	H	0.290558	0.642851	0.396631
	H4173	H	0.336797	0.643572	0.399092
	H4174	H	0.336946	0.863098	0.399101
	H4175	H	0.290829	0.862404	0.396694
	H4176	H	0.335369	0.643649	0.415348
	H4177	H	0.335424	0.863235	0.415404
	H4178	H	0.320035	0.644037	0.481603
	H4179	H	0.319788	0.862732	0.481522
	H4180	H	0.316631	0.440995	0.371740
	H4181	H	0.280248	0.441454	0.502940
	H4182	H	0.320580	0.441099	0.372135
	H4183	H	0.321499	0.441049	0.373465
	H4184	H	0.292372	0.441611	0.508448
	H4185	H	0.284495	0.441346	0.507804
	H4186	H	0.280245	0.564951	0.502923
	H4187	H	0.316562	0.564239	0.371685
	H4188	H	0.284557	0.565022	0.507743
	H4189	H	0.292294	0.564938	0.508419
	H4190	H	0.321442	0.564754	0.373449
	H4191	H	0.320470	0.564281	0.372142
	H4192	H	0.320129	0.143283	0.481593
	H4193	H	0.319846	0.362158	0.481593
	H4194	H	0.319735	0.064623	0.368105
	H4195	H	0.310750	0.064212	0.369022
	H4196	H	0.328745	0.064852	0.372620
	H4197	H	0.273080	0.861721	0.477882
	H4198	H	0.272898	0.642010	0.477907
	H4199	H	0.272995	0.364246	0.477869
	H4200	H	0.272978	0.144455	0.477922
	H4201	H	0.290894	0.143281	0.396728
	H4202	H	0.336893	0.142995	0.399081
	H4203	H	0.336793	0.362779	0.399124
	H4204	H	0.290244	0.363285	0.396573
	H4205	H	0.335466	0.142809	0.415367
	H4206	H	0.335443	0.362657	0.415417
	H4207	H	0.287884	0.064616	0.505860
	H4208	H	0.291201	0.064923	0.505692
	H4209	H	0.292935	0.064809	0.503828
	H4210	H	0.310680	0.941724	0.368985
	H4211	H	0.319734	0.941252	0.368022
	H4212	H	0.328882	0.940942	0.372660
	H4213	H	0.287963	0.941355	0.505861
	H4214	H	0.291281	0.941641	0.505721
	H4215	H	0.292888	0.941776	0.503782
	Zn4216	Zn	0.255434	0.680862	0.435731
	Zn4217	Zn	0.255732	0.825594	0.435756
	Zn4218	Zn	0.255605	0.180445	0.435707
	Zn4219	Zn	0.255425	0.325335	0.435691
	Zn4220	Zn	0.289500	0.680419	0.504113
	Zn4221	Zn	0.289273	0.825604	0.504074
	Zn4222	Zn	0.289185	0.180681	0.504106
	Zn4223	Zn	0.289387	0.326055	0.504106
	C4224	C	0.335225	0.753478	0.426214
	C4225	C	0.273797	0.752267	0.450739
	C4226	C	0.274783	0.751920	0.460616
	C4227	C	0.274216	0.689740	0.465246
	C4228	C	0.274311	0.814032	0.465231
	C4229	C	0.273722	0.253837	0.450727
	C4230	C	0.274830	0.254026	0.460605
	C4231	C	0.274319	0.191953	0.465241
	C4232	C	0.274279	0.316288	0.465205
	C4233	C	0.276671	0.752404	0.422603
	C4234	C	0.282741	0.752518	0.413372
	C4235	C	0.284878	0.814585	0.408896
	C4236	C	0.284742	0.690419	0.408874
	C4237	C	0.276856	0.253645	0.422620
	C4238	C	0.282779	0.253598	0.413372
	C4239	C	0.284595	0.315652	0.408827
	C4240	C	0.284988	0.191455	0.408919
	C4241	C	0.354555	0.043355	0.442473
	C4242	C	0.354543	0.962410	0.442467
	C4243	C	0.255970	0.043432	0.435170
	C4244	C	0.255999	0.962481	0.435185
	C4245	C	0.254530	0.043538	0.435940
	C4246	C	0.254539	0.962462	0.435953
	C4247	C	0.250968	0.462648	0.432504
	C4248	C	0.355259	0.462773	0.443944
	C4249	C	0.345751	0.462611	0.441791
	C4250	C	0.250982	0.543518	0.432525
	C4251	C	0.345778	0.543535	0.441769
	C4252	C	0.355286	0.543347	0.443919
	C4253	C	0.334913	0.753069	0.455825
	C4254	C	0.334785	0.252889	0.455818
	C4255	C	0.329377	0.753180	0.465107
	C4256	C	0.327088	0.691291	0.469548
	C4257	C	0.326970	0.815112	0.469495
	C4258	C	0.329258	0.252942	0.465113
	C4259	C	0.327103	0.191051	0.469535
	C4260	C	0.326930	0.314737	0.469540
	C4261	C	0.335257	0.252925	0.426230
	C4262	C	0.335947	0.753188	0.388258
	C4263	C	0.296773	0.752704	0.386380
	C4264	C	0.272927	0.752234	0.488743
	C4265	C	0.335615	0.691362	0.411738
	C4266	C	0.335649	0.815640	0.411764
	C4267	C	0.337093	0.753362	0.398119
	C4268	C	0.290881	0.752649	0.395653
	C4269	C	0.288853	0.690463	0.400132
	C4270	C	0.336574	0.691299	0.402712
	C4271	C	0.336605	0.815536	0.402730
	C4272	C	0.288998	0.814671	0.400159
	C4273	C	0.334931	0.753519	0.416354
	C4274	C	0.312111	0.753821	0.491448
	C4275	C	0.322106	0.691428	0.478145
	C4276	C	0.321993	0.815279	0.478093
	C4277	C	0.319405	0.753468	0.482470
	C4278	C	0.284334	0.462655	0.502181
	C4279	C	0.320236	0.462371	0.372926
	C4280	C	0.288653	0.462821	0.507071
	C4281	C	0.284357	0.543495	0.502185
	C4282	C	0.288646	0.543900	0.507058
	C4283	C	0.320198	0.543219	0.372910
	C4284	C	0.312154	0.252623	0.491489
	C4285	C	0.322176	0.190884	0.478145
	C4286	C	0.322006	0.314688	0.478148
	C4287	C	0.319413	0.252722	0.482506
	C4288	C	0.315937	0.043265	0.369778
	C4289	C	0.335975	0.252931	0.388250
	C4290	C	0.296755	0.253093	0.386358
	C4291	C	0.272932	0.254101	0.488725
	C4292	C	0.335661	0.190674	0.411746
	C4293	C	0.335651	0.315027	0.411771
	C4294	C	0.337060	0.252984	0.398122
	C4295	C	0.290871	0.253228	0.395639
	C4296	C	0.272623	0.751918	0.478877
	C4297	C	0.273302	0.813996	0.474260
	C4298	C	0.273222	0.689690	0.474284
	C4299	C	0.272671	0.254365	0.478861
	C4300	C	0.273317	0.316492	0.474242
	C4301	C	0.273324	0.192147	0.474277
	C4302	C	0.289025	0.191295	0.400170
	C4303	C	0.336610	0.190745	0.402707
	C4304	C	0.336604	0.315046	0.402738
	C4305	C	0.288680	0.315456	0.400080
	C4306	C	0.334982	0.252878	0.416366
	C4307	C	0.289403	0.043555	0.505335
	C4308	C	0.325110	0.043115	0.374342
	C4309	C	0.315930	0.962609	0.369761
	C4310	C	0.289407	0.962866	0.505344
	C4311	C	0.325130	0.962427	0.374353
	N4312	N	0.255729	0.070324	0.435775
	N4313	N	0.255760	0.935771	0.435807
	N4314	N	0.255480	0.435798	0.435675
	N4315	N	0.255504	0.570423	0.435696
	N4316	N	0.289318	0.436053	0.504143
	N4317	N	0.289336	0.570485	0.504129
	N4318	N	0.289003	0.070300	0.504081
	N4319	N	0.288988	0.935659	0.504078
	O4320	O	0.379463	0.695138	0.547455
	O4321	O	0.379473	0.811444	0.547467
	O4322	O	0.248337	0.695107	0.575796
	O4323	O	0.248271	0.811297	0.575809
	O4324	O	0.248366	0.194934	0.575813
	O4325	O	0.248379	0.311274	0.575763
	O4326	O	0.246066	0.694300	0.557263
	O4327	O	0.246015	0.811090	0.557188
	O4328	O	0.245996	0.194428	0.557174
	O4329	O	0.245970	0.311128	0.557224
	O4330	O	0.381656	0.695014	0.566035
	O4331	O	0.381803	0.811872	0.566024
	O4332	O	0.381756	0.194651	0.566080
	O4333	O	0.381617	0.311319	0.566051
	O4334	O	0.379410	0.194783	0.547512
	O4335	O	0.379414	0.311077	0.547494
	O4336	O	0.311139	0.695474	0.513391
	O4337	O	0.274741	0.694020	0.514756
	O4338	O	0.352854	0.695137	0.608459
	O4339	O	0.352879	0.811560	0.608467
	O4340	O	0.316724	0.695119	0.609856
	O4341	O	0.316699	0.811208	0.609925
	O4342	O	0.274705	0.810606	0.514723
	O4343	O	0.310959	0.811606	0.513440
	O4344	O	0.311005	0.194520	0.513411
	O4345	O	0.274498	0.195766	0.514692
	O4346	O	0.353044	0.194665	0.608535
	O4347	O	0.353023	0.311136	0.608538
	O4348	O	0.316507	0.194895	0.609934
	O4349	O	0.316782	0.311285	0.609816
	O4350	O	0.274880	0.312173	0.514813
	O4351	O	0.311094	0.310773	0.513415
	H4352	H	0.270457	0.645128	0.586706
	H4353	H	0.270235	0.861348	0.586665
	H4354	H	0.270240	0.145040	0.586679
	H4355	H	0.270432	0.361553	0.586640
	H4356	H	0.257375	0.862084	0.544027
	H4357	H	0.257253	0.643296	0.544032
	H4358	H	0.257437	0.362378	0.544093
	H4359	H	0.257059	0.143660	0.543934
	H4360	H	0.397252	0.065206	0.557180
	H4361	H	0.399688	0.064843	0.558589
	H4362	H	0.399651	0.941498	0.558551
	H4363	H	0.397259	0.941693	0.557162
	H4364	H	0.398848	0.064950	0.555018
	H4365	H	0.398747	0.941366	0.554977
	H4366	H	0.220219	0.064802	0.565937
	H4367	H	0.220220	0.941268	0.565947
	H4368	H	0.221738	0.065347	0.568349
	H4369	H	0.221630	0.941384	0.568355
	H4370	H	0.228672	0.064448	0.569373
	H4371	H	0.228639	0.941078	0.569380
	H4372	H	0.226279	0.441375	0.563478
	H4373	H	0.221477	0.441181	0.564382
	H4374	H	0.232283	0.441015	0.565622
	H4375	H	0.400120	0.441513	0.555909
	H4376	H	0.402505	0.441853	0.556070
	H4377	H	0.403380	0.441851	0.556774
	H4378	H	0.221494	0.564872	0.564388
	H4379	H	0.226285	0.564316	0.563451
	H4380	H	0.403310	0.565104	0.556766
	H4381	H	0.402506	0.565382	0.556036
	H4382	H	0.400085	0.564944	0.555909
	H4383	H	0.232257	0.564456	0.565606
	H4384	H	0.370260	0.644143	0.579167
	H4385	H	0.370422	0.863220	0.579207
	H4386	H	0.370244	0.143720	0.579229
	H4387	H	0.370271	0.362593	0.579239
	H4388	H	0.266506	0.643217	0.528583
	H4389	H	0.333168	0.645794	0.524244
	H4390	H	0.333222	0.861766	0.524285
	H4391	H	0.266652	0.861900	0.528574
	H4392	H	0.357420	0.645546	0.536581
	H4393	H	0.357472	0.861359	0.536606
	H4394	H	0.360899	0.644095	0.594596
	H4395	H	0.361042	0.862900	0.594620
	H4396	H	0.284919	0.441384	0.500075
	H4397	H	0.339276	0.441689	0.621717
	H4398	H	0.295631	0.441777	0.500952
	H4399	H	0.298775	0.441838	0.504560
	H4400	H	0.342647	0.441519	0.617795
	H4401	H	0.343660	0.441212	0.619858
	H4402	H	0.339261	0.564468	0.621702
	H4403	H	0.284960	0.564895	0.500088
	H4404	H	0.343622	0.564470	0.619874
	H4405	H	0.342673	0.564736	0.617788
	H4406	H	0.298792	0.564593	0.504589
	H4407	H	0.295662	0.564474	0.500973
	H4408	H	0.360992	0.143605	0.594661
	H4409	H	0.361013	0.362534	0.594703
	H4410	H	0.286399	0.064940	0.502645
	H4411	H	0.285225	0.065193	0.504046
	H4412	H	0.290905	0.064813	0.502506
	H4413	H	0.294534	0.861750	0.599002
	H4414	H	0.294727	0.645301	0.599034
	H4415	H	0.294748	0.361405	0.598972
	H4416	H	0.294541	0.144867	0.599025
	H4417	H	0.266321	0.144171	0.528484
	H4418	H	0.333183	0.144117	0.524246
	H4419	H	0.333165	0.361081	0.524257
	H4420	H	0.266742	0.362668	0.528663
	H4421	H	0.357424	0.144189	0.536595
	H4422	H	0.357414	0.361160	0.536614
	H4423	H	0.346496	0.064582	0.617488
	H4424	H	0.340558	0.064731	0.615128
	H4425	H	0.330951	0.064288	0.616641
	H4426	H	0.285103	0.941218	0.504035
	H4427	H	0.286391	0.941227	0.502674
	H4428	H	0.290886	0.941681	0.502416
	H4429	H	0.346575	0.941050	0.617550
	H4430	H	0.340652	0.941153	0.615155
	H4431	H	0.331054	0.940876	0.616668
	Zn4432	Zn	0.226513	0.680150	0.566491
	Zn4433	Zn	0.226572	0.825353	0.566514
	Zn4434	Zn	0.226593	0.180361	0.566529
	Zn4435	Zn	0.226518	0.325455	0.566507
	Zn4436	Zn	0.338379	0.680544	0.619169
	Zn4437	Zn	0.338512	0.825478	0.619220
	Zn4438	Zn	0.338375	0.180419	0.619192
	Zn4439	Zn	0.338414	0.325391	0.619176
	C4440	C	0.373699	0.753298	0.544658
	C4441	C	0.254152	0.753190	0.578567
	C4442	C	0.268982	0.753170	0.585899
	C4443	C	0.275845	0.692080	0.589430
	C4444	C	0.275720	0.814487	0.589409
	C4445	C	0.254162	0.253150	0.578573
	C4446	C	0.268923	0.253290	0.585926
	C4447	C	0.275709	0.191951	0.589426
	C4448	C	0.275826	0.314518	0.589398
	C4449	C	0.249430	0.752590	0.553907
	C4450	C	0.256783	0.752605	0.544948
	C4451	C	0.259523	0.814597	0.540600
	C4452	C	0.259457	0.690690	0.540606
	C4453	C	0.249410	0.252861	0.553898
	C4454	C	0.256806	0.252942	0.544949
	C4455	C	0.259576	0.314874	0.540644
	C4456	C	0.259367	0.191196	0.540552
	C4457	C	0.399294	0.043778	0.557551
	C4458	C	0.399274	0.962835	0.557541
	C4459	C	0.222349	0.043569	0.566992
	C4460	C	0.222330	0.962553	0.566986
	C4461	C	0.229345	0.043248	0.568001
	C4462	C	0.229312	0.962477	0.567987
	C4463	C	0.224479	0.462461	0.564600
	C4464	C	0.400169	0.462906	0.556418
	C4465	C	0.402558	0.462883	0.556509
	C4466	C	0.224488	0.543221	0.564597
	C4467	C	0.402538	0.543633	0.556496
	C4468	C	0.400121	0.543672	0.556385
	C4469	C	0.378200	0.753567	0.569309
	C4470	C	0.378244	0.252998	0.569369
	C4471	C	0.370764	0.753749	0.578253
	C4472	C	0.368025	0.691648	0.582585
	C4473	C	0.368125	0.815680	0.582610
	C4474	C	0.370819	0.253144	0.578322
	C4475	C	0.368125	0.191236	0.582661
	C4476	C	0.368144	0.315077	0.582672
	C4477	C	0.373605	0.252910	0.544709
	C4478	C	0.316908	0.753627	0.516174
	C4479	C	0.272441	0.752366	0.518319
	C4480	C	0.310898	0.753267	0.607102
	C4481	C	0.351998	0.692489	0.533849
	C4482	C	0.352040	0.814645	0.533868
	C4483	C	0.331683	0.753709	0.523520
	C4484	C	0.266858	0.752520	0.527610
	C4485	C	0.264464	0.690674	0.532015
	C4486	C	0.338544	0.692588	0.526999
	C4487	C	0.338567	0.814769	0.527019
	C4488	C	0.264563	0.814481	0.532011
	C4489	C	0.358914	0.753461	0.537319
	C4490	C	0.355071	0.753421	0.604863
	C4491	C	0.362962	0.691613	0.591168
	C4492	C	0.363045	0.815518	0.591186
	C4493	C	0.360554	0.753550	0.595562
	C4494	C	0.337532	0.462615	0.620775
	C4495	C	0.295116	0.462906	0.503101
	C4496	C	0.341941	0.462481	0.618925
	C4497	C	0.337486	0.543400	0.620764
	C4498	C	0.341950	0.543390	0.618921
	C4499	C	0.295133	0.543449	0.503119
	C4500	C	0.355259	0.252924	0.604943
	C4501	C	0.363067	0.191158	0.591241
	C4502	C	0.363090	0.315032	0.591261
	C4503	C	0.360771	0.253047	0.595662
	C4504	C	0.286607	0.043632	0.503532
	C4505	C	0.316871	0.252594	0.516186
	C4506	C	0.272409	0.253880	0.518337
	C4507	C	0.310801	0.253090	0.607111
	C4508	C	0.352041	0.191360	0.533845
	C4509	C	0.352037	0.314036	0.533857
	C4510	C	0.331730	0.252609	0.523496
	C4511	C	0.266866	0.253504	0.527606
	C4512	C	0.296173	0.753464	0.599736
	C4513	C	0.289212	0.814634	0.596248
	C4514	C	0.289333	0.692228	0.596263
	C4515	C	0.296027	0.253091	0.599767
	C4516	C	0.289297	0.314382	0.596239
	C4517	C	0.289178	0.191901	0.596271
	C4518	C	0.264389	0.191495	0.531967
	C4519	C	0.338572	0.191313	0.526995
	C4520	C	0.338574	0.313936	0.527002
	C4521	C	0.264628	0.315158	0.532066
	C4522	C	0.358854	0.252711	0.537355
	C4523	C	0.342289	0.043360	0.617083
	C4524	C	0.291127	0.043400	0.503380
	C4525	C	0.286590	0.962517	0.503546
	C4526	C	0.342314	0.962457	0.617103
	C4527	C	0.291097	0.962825	0.503368
	N4528	N	0.226303	0.070156	0.566540
	N4529	N	0.226302	0.935597	0.566539
	N4530	N	0.226259	0.435581	0.566478
	N4531	N	0.226248	0.570112	0.566483
	N4532	N	0.338552	0.435728	0.619206
	N4533	N	0.338539	0.570285	0.619170
	N4534	N	0.338579	0.070362	0.619241
	N4535	N	0.338666	0.935781	0.619249
	O4536	O	0.355278	0.693432	0.676344
	O4537	O	0.355056	0.810343	0.676306
	O4538	O	0.291779	0.694160	0.693165
	O4539	O	0.291609	0.810965	0.693181
	O4540	O	0.291649	0.194061	0.693158
	O4541	O	0.291857	0.310947	0.693139
	O4542	O	0.290362	0.694432	0.671004
	O4543	O	0.290400	0.810904	0.671020
	O4544	O	0.290329	0.194988	0.670940
	O4545	O	0.290278	0.311310	0.670927
	O4546	O	0.353990	0.694283	0.697212
	O4547	O	0.353579	0.810986	0.697069
	O4548	O	0.353523	0.194963	0.697033
	O4549	O	0.353932	0.311534	0.697213
	O4550	O	0.355174	0.195053	0.676310
	O4551	O	0.355202	0.311646	0.676252
	O4552	O	0.354311	0.693864	0.630683
	O4553	O	0.318840	0.694325	0.628452
	O4554	O	0.328230	0.696167	0.740387
	O4555	O	0.327732	0.812983	0.740222
	O4556	O	0.292800	0.693108	0.738809
	O4557	O	0.292383	0.809927	0.738786
	O4558	O	0.318877	0.811158	0.628468
	O4559	O	0.354342	0.810665	0.630724
	O4560	O	0.354330	0.194362	0.630714
	O4561	O	0.318918	0.194413	0.628515
	O4562	O	0.327803	0.193559	0.740315
	O4563	O	0.328232	0.310167	0.740372
	O4564	O	0.292330	0.196171	0.738761
	O4565	O	0.292870	0.313086	0.738775
	O4566	O	0.319011	0.311161	0.628526
	O4567	O	0.354390	0.311297	0.630718
	H4568	H	0.292486	0.642535	0.707807
	H4569	H	0.291670	0.862379	0.707892
	H4570	H	0.291837	0.143363	0.707874
	H4571	H	0.292731	0.362910	0.707762
	H4572	H	0.298150	0.862014	0.657118
	H4573	H	0.298614	0.643145	0.657172
	H4574	H	0.298520	0.362231	0.657152
	H4575	H	0.298204	0.143799	0.657122
	H4576	H	0.383230	0.063949	0.686416
	H4577	H	0.377049	0.065330	0.682726
	H4578	H	0.376920	0.941117	0.682712
	H4579	H	0.383115	0.941226	0.686461
	H4580	H	0.378701	0.064635	0.692175
	H4581	H	0.378566	0.941023	0.692164
	H4582	H	0.276188	0.064478	0.680006
	H4583	H	0.276248	0.941035	0.680020
	H4584	H	0.273525	0.064625	0.680337
	H4585	H	0.273503	0.941149	0.680337
	H4586	H	0.272677	0.064553	0.682126
	H4587	H	0.272703	0.941083	0.682130
	H4588	H	0.280595	0.441025	0.682455
	H4589	H	0.280061	0.441076	0.680548
	H4590	H	0.276235	0.440897	0.683956
	H4591	H	0.379889	0.441240	0.682231
	H4592	H	0.385729	0.441031	0.689515
	H4593	H	0.378571	0.441577	0.693633
	H4594	H	0.279929	0.564598	0.680558
	H4595	H	0.280516	0.564691	0.682428
	H4596	H	0.378561	0.564379	0.693672
	H4597	H	0.385866	0.564803	0.689517
	H4598	H	0.379985	0.564557	0.682228
	H4599	H	0.276184	0.564606	0.683938
	H4600	H	0.344951	0.643330	0.711005
	H4601	H	0.344340	0.863345	0.710739
	H4602	H	0.344130	0.142803	0.710732
	H4603	H	0.345098	0.362714	0.711047
	H4604	H	0.307656	0.643085	0.641686
	H4605	H	0.355076	0.642140	0.645364
	H4606	H	0.354658	0.861861	0.645396
	H4607	H	0.307249	0.862169	0.641630
	H4608	H	0.353474	0.641814	0.661651
	H4609	H	0.353041	0.861448	0.661672
	H4610	H	0.337309	0.644221	0.726706
	H4611	H	0.336662	0.864222	0.726439
	H4612	H	0.335062	0.441286	0.620947
	H4613	H	0.313510	0.441272	0.751135
	H4614	H	0.333635	0.440985	0.618140
	H4615	H	0.336798	0.441236	0.616769
	H4616	H	0.310083	0.441666	0.748128
	H4617	H	0.313149	0.440948	0.748912
	H4618	H	0.313560	0.564465	0.751094
	H4619	H	0.334963	0.565101	0.620919
	H4620	H	0.313192	0.564737	0.748904
	H4621	H	0.310100	0.564864	0.748126
	H4622	H	0.336817	0.564255	0.616680
	H4623	H	0.333542	0.564943	0.618078
	H4624	H	0.336572	0.142128	0.726474
	H4625	H	0.337543	0.361912	0.726723
	H4626	H	0.338101	0.065036	0.623468
	H4627	H	0.345146	0.064926	0.622397
	H4628	H	0.329948	0.064600	0.620213
	H4629	H	0.290202	0.861686	0.724168
	H4630	H	0.291000	0.641905	0.724087
	H4631	H	0.291182	0.364126	0.724059
	H4632	H	0.290295	0.144374	0.724172
	H4633	H	0.307507	0.143499	0.641696
	H4634	H	0.354550	0.142928	0.645357
	H4635	H	0.355090	0.362604	0.645365
	H4636	H	0.307745	0.362141	0.641711
	H4637	H	0.353010	0.143052	0.661646
	H4638	H	0.353482	0.362835	0.661628
	H4639	H	0.309395	0.064816	0.744848
	H4640	H	0.301228	0.064986	0.746338
	H4641	H	0.300009	0.064743	0.752165
	H4642	H	0.345125	0.941404	0.622390
	H4643	H	0.338207	0.941716	0.623479
	H4644	H	0.330024	0.941169	0.620251
	H4645	H	0.309466	0.941695	0.744842
	H4646	H	0.301266	0.941695	0.746326
	H4647	H	0.300001	0.941169	0.752121
	Zn4648	Zn	0.275690	0.680365	0.681656
	Zn4649	Zn	0.275718	0.825531	0.681632
	Zn4650	Zn	0.275755	0.180246	0.681608
	Zn4651	Zn	0.275832	0.325122	0.681666
	Zn4652	Zn	0.310052	0.680822	0.750051
	Zn4653	Zn	0.309268	0.825678	0.749921
	Zn4654	Zn	0.309263	0.180746	0.749968
	Zn4655	Zn	0.309914	0.325406	0.750025
	C4656	C	0.354058	0.751771	0.672513
	C4657	C	0.292298	0.752530	0.697009
	C4658	C	0.292554	0.752480	0.706856
	C4659	C	0.292078	0.690202	0.711442
	C4660	C	0.291668	0.814441	0.711494
	C4661	C	0.292372	0.252556	0.696978
	C4662	C	0.292561	0.253022	0.706843
	C4663	C	0.291715	0.191242	0.711475
	C4664	C	0.292182	0.315440	0.711418
	C4665	C	0.292664	0.752640	0.667425
	C4666	C	0.298195	0.752593	0.658134
	C4667	C	0.300305	0.814545	0.653686
	C4668	C	0.300564	0.690645	0.653725
	C4669	C	0.292514	0.253165	0.667345
	C4670	C	0.298010	0.253075	0.658068
	C4671	C	0.300426	0.314854	0.653685
	C4672	C	0.300288	0.191170	0.653681
	C4673	C	0.378006	0.043350	0.685337
	C4674	C	0.377942	0.962563	0.685342
	C4675	C	0.275170	0.043187	0.680555
	C4676	C	0.275165	0.962469	0.680562
	C4677	C	0.274351	0.043380	0.682367
	C4678	C	0.274331	0.962576	0.682376
	C4679	C	0.279214	0.462302	0.681531
	C4680	C	0.373638	0.462788	0.683184
	C4681	C	0.379572	0.462437	0.690501
	C4682	C	0.279151	0.543367	0.681535
	C4683	C	0.379619	0.543258	0.690530
	C4684	C	0.373676	0.543325	0.683197
	C4685	C	0.350931	0.752713	0.700629
	C4686	C	0.350889	0.253081	0.700629
	C4687	C	0.345005	0.753258	0.709887
	C4688	C	0.343060	0.691319	0.714429
	C4689	C	0.342745	0.815723	0.714280
	C4690	C	0.345021	0.252640	0.709899
	C4691	C	0.342652	0.190358	0.714294
	C4692	C	0.343192	0.314625	0.714455
	C4693	C	0.354107	0.253248	0.672464
	C4694	C	0.354983	0.752203	0.634532
	C4695	C	0.315473	0.752739	0.631779
	C4696	C	0.291493	0.751460	0.734987
	C4697	C	0.353635	0.689580	0.658023
	C4698	C	0.353396	0.813877	0.658031
	C4699	C	0.355154	0.751984	0.644388
	C4700	C	0.308144	0.752622	0.640756
	C4701	C	0.305512	0.690652	0.645122
	C4702	C	0.354641	0.689813	0.648990
	C4703	C	0.354422	0.814010	0.649004
	C4704	C	0.305270	0.814588	0.645086
	C4705	C	0.353013	0.751657	0.662636
	C4706	C	0.330835	0.754490	0.736827
	C4707	C	0.338941	0.691752	0.723165
	C4708	C	0.338605	0.816238	0.723016
	C4709	C	0.336731	0.754211	0.727551
	C4710	C	0.311597	0.462837	0.751134
	C4711	C	0.336104	0.462646	0.617905
	C4712	C	0.311242	0.462663	0.748912
	C4713	C	0.311641	0.543426	0.751127
	C4714	C	0.311259	0.543577	0.748926
	C4715	C	0.336099	0.543479	0.617874
	C4716	C	0.330851	0.251765	0.736856
	C4717	C	0.338510	0.189983	0.723032
	C4718	C	0.339048	0.314233	0.723181
	C4719	C	0.336751	0.251932	0.727587
	C4720	C	0.340889	0.043590	0.621959
	C4721	C	0.355000	0.252810	0.634538
	C4722	C	0.315526	0.252787	0.631829
	C4723	C	0.291487	0.254690	0.734962
	C4724	C	0.353427	0.190654	0.658015
	C4725	C	0.353726	0.315052	0.658006
	C4726	C	0.355238	0.252694	0.644390
	C4727	C	0.308136	0.252797	0.640761
	C4728	C	0.290513	0.751719	0.725108
	C4729	C	0.290728	0.814084	0.720527
	C4730	C	0.291158	0.689789	0.720480
	C4731	C	0.290460	0.254267	0.725083
	C4732	C	0.291222	0.316214	0.720453
	C4733	C	0.290742	0.191830	0.720514
	C4734	C	0.305372	0.190946	0.645107
	C4735	C	0.354406	0.190585	0.648985
	C4736	C	0.354696	0.314889	0.648985
	C4737	C	0.305531	0.314724	0.645117
	C4738	C	0.353131	0.252894	0.662603
	C4739	C	0.306348	0.043625	0.746739
	C4740	C	0.332669	0.043224	0.618643
	C4741	C	0.340900	0.962737	0.621958
	C4742	C	0.306367	0.962869	0.746747
	C4743	C	0.332719	0.962541	0.618657
	N4744	N	0.275833	0.070206	0.681631
	N4745	N	0.275802	0.935652	0.681638
	N4746	N	0.276052	0.435498	0.681662
	N4747	N	0.276005	0.570130	0.681674
	N4748	N	0.310045	0.435787	0.750061
	N4749	N	0.310110	0.570383	0.750043
	N4750	N	0.309305	0.070534	0.749942
	N4751	N	0.309326	0.935976	0.749945
	O4752	O	0.327668	0.695349	0.806776
	O4753	O	0.327525	0.812217	0.806846
	O4754	O	0.264015	0.693259	0.823703
	O4755	O	0.264612	0.809975	0.823699
	O4756	O	0.264645	0.196363	0.823711
	O4757	O	0.263940	0.312846	0.823805
	O4758	O	0.265407	0.693528	0.802832
	O4759	O	0.265860	0.810163	0.802910
	O4760	O	0.265712	0.196423	0.802910
	O4761	O	0.265333	0.312987	0.802850
	O4762	O	0.328969	0.695438	0.828964
	O4763	O	0.329007	0.811799	0.829013
	O4764	O	0.329017	0.195318	0.829021
	O4765	O	0.328975	0.312039	0.829016
	O4766	O	0.327326	0.193884	0.806890
	O4767	O	0.327528	0.310659	0.806819
	O4768	O	0.326871	0.696536	0.761200
	O4769	O	0.291553	0.693017	0.759685
	O4770	O	0.300310	0.695069	0.871475
	O4771	O	0.300276	0.811840	0.871483
	O4772	O	0.264842	0.694778	0.869365
	O4773	O	0.265103	0.811637	0.869290
	O4774	O	0.290927	0.809565	0.759524
	O4775	O	0.326340	0.813411	0.761160
	O4776	O	0.326247	0.193156	0.761198
	O4777	O	0.290923	0.196717	0.759549
	O4778	O	0.300572	0.194953	0.871522
	O4779	O	0.300396	0.311803	0.871512
	O4780	O	0.265166	0.194033	0.869320
	O4781	O	0.264820	0.310838	0.869415
	O4782	O	0.291553	0.313321	0.759719
	O4783	O	0.326792	0.309906	0.761206
	H4784	H	0.265673	0.641772	0.838431
	H4785	H	0.267021	0.861654	0.838353
	H4786	H	0.267051	0.144087	0.838395
	H4787	H	0.265423	0.363953	0.838533
	H4788	H	0.274490	0.861568	0.789013
	H4789	H	0.274930	0.641769	0.789152
	H4790	H	0.274811	0.364608	0.789145
	H4791	H	0.274469	0.144855	0.789055
	H4792	H	0.345213	0.064872	0.822091
	H4793	H	0.350330	0.064633	0.820277
	H4794	H	0.350468	0.941559	0.820350
	H4795	H	0.345170	0.941019	0.822102
	H4796	H	0.336693	0.065055	0.820155
	H4797	H	0.336760	0.941523	0.820169
	H4798	H	0.248931	0.064460	0.809285
	H4799	H	0.248896	0.941341	0.809291
	H4800	H	0.243089	0.064883	0.809761
	H4801	H	0.243115	0.941173	0.809761
	H4802	H	0.240724	0.064907	0.813411
	H4803	H	0.240763	0.941450	0.813467
	H4804	H	0.230986	0.441662	0.819297
	H4805	H	0.248362	0.441211	0.823055
	H4806	H	0.227134	0.441689	0.807165
	H4807	H	0.341630	0.441459	0.818623
	H4808	H	0.342043	0.441748	0.817543
	H4809	H	0.343651	0.441841	0.817390
	H4810	H	0.248311	0.565224	0.823026
	H4811	H	0.230947	0.564788	0.819259
	H4812	H	0.343669	0.564813	0.817390
	H4813	H	0.342019	0.564894	0.817518
	H4814	H	0.341556	0.565032	0.818629
	H4815	H	0.227110	0.564495	0.807139
	H4816	H	0.320687	0.644286	0.842806
	H4817	H	0.321298	0.862945	0.842928
	H4818	H	0.320981	0.144206	0.842832
	H4819	H	0.320829	0.362995	0.842863
	H4820	H	0.282508	0.641563	0.773432
	H4821	H	0.329228	0.645196	0.775815
	H4822	H	0.328126	0.864897	0.775892
	H4823	H	0.281954	0.861191	0.773321
	H4824	H	0.327650	0.644439	0.792109
	H4825	H	0.326620	0.864345	0.792168
	H4826	H	0.311427	0.644431	0.858264
	H4827	H	0.311978	0.862913	0.858370
	H4828	H	0.310723	0.441617	0.751946
	H4829	H	0.278693	0.441493	0.884969
	H4830	H	0.306562	0.441417	0.750894
	H4831	H	0.306258	0.441851	0.749287
	H4832	H	0.289513	0.441560	0.879788
	H4833	H	0.288387	0.441420	0.883384
	H4834	H	0.278786	0.565376	0.884968
	H4835	H	0.310822	0.564717	0.751947
	H4836	H	0.288579	0.564527	0.883445
	H4837	H	0.289584	0.564914	0.879796
	H4838	H	0.306347	0.565303	0.749252
	H4839	H	0.306598	0.565163	0.750878
	H4840	H	0.311932	0.143691	0.858308
	H4841	H	0.311804	0.362949	0.858334
	H4842	H	0.318423	0.065016	0.752817
	H4843	H	0.319353	0.064989	0.748601
	H4844	H	0.307285	0.064541	0.754883
	H4845	H	0.265291	0.862378	0.854611
	H4846	H	0.263954	0.642573	0.854693
	H4847	H	0.263924	0.362981	0.854782
	H4848	H	0.265447	0.143219	0.854686
	H4849	H	0.282056	0.145241	0.773332
	H4850	H	0.328350	0.141549	0.775895
	H4851	H	0.328782	0.361221	0.775834
	H4852	H	0.282462	0.364636	0.773434
	H4853	H	0.326802	0.141893	0.792178
	H4854	H	0.327213	0.361639	0.792099
	H4855	H	0.280643	0.064883	0.884076
	H4856	H	0.285878	0.064618	0.883158
	H4857	H	0.286780	0.065019	0.879559
	H4858	H	0.319394	0.941486	0.748616
	H4859	H	0.318492	0.941432	0.752843
	H4860	H	0.307286	0.940998	0.754898
	H4861	H	0.280565	0.941452	0.884093
	H4862	H	0.285773	0.941340	0.883149
	H4863	H	0.286749	0.941623	0.879559
	Zn4864	Zn	0.246915	0.680701	0.812455
	Zn4865	Zn	0.247561	0.825841	0.812570
	Zn4866	Zn	0.247520	0.180334	0.812529
	Zn4867	Zn	0.246934	0.325413	0.812541
	Zn4868	Zn	0.281040	0.680782	0.880819
	Zn4869	Zn	0.280881	0.825938	0.880853
	Zn4870	Zn	0.281039	0.180569	0.880845
	Zn4871	Zn	0.280821	0.325944	0.880800
	C4872	C	0.326939	0.753931	0.802975
	C4873	C	0.265430	0.751571	0.827514
	C4874	C	0.266459	0.751736	0.837391
	C4875	C	0.265613	0.689737	0.842033
	C4876	C	0.266345	0.814061	0.841987
	C4877	C	0.265395	0.254466	0.827574
	C4878	C	0.266406	0.253998	0.837437
	C4879	C	0.266392	0.191645	0.842025
	C4880	C	0.265498	0.315901	0.842093
	C4881	C	0.268503	0.751792	0.799378
	C4882	C	0.274418	0.751682	0.790114
	C4883	C	0.276271	0.813672	0.785567
	C4884	C	0.276536	0.689598	0.785645
	C4885	C	0.268378	0.254763	0.799383
	C4886	C	0.274279	0.254768	0.790106
	C4887	C	0.276469	0.316839	0.785649
	C4888	C	0.276280	0.192721	0.785592
	C4889	C	0.346561	0.043598	0.820449
	C4890	C	0.346578	0.962775	0.820472
	C4891	C	0.246415	0.043535	0.810322
	C4892	C	0.246431	0.962719	0.810329
	C4893	C	0.244066	0.043516	0.814019
	C4894	C	0.244103	0.962731	0.814036
	C4895	C	0.241565	0.462701	0.818883
	C4896	C	0.342494	0.462703	0.818738
	C4897	C	0.342943	0.462951	0.817697
	C4898	C	0.241556	0.543702	0.818860
	C4899	C	0.342947	0.543656	0.817681
	C4900	C	0.342477	0.543678	0.818740
	C4901	C	0.326796	0.753516	0.832592
	C4902	C	0.326764	0.253713	0.832599
	C4903	C	0.321371	0.753607	0.841896
	C4904	C	0.318831	0.691774	0.846275
	C4905	C	0.319158	0.815436	0.846339
	C4906	C	0.321265	0.253651	0.841892
	C4907	C	0.319015	0.191546	0.846301
	C4908	C	0.318942	0.315507	0.846315
	C4909	C	0.326805	0.252114	0.803017
	C4910	C	0.327706	0.755075	0.764982
	C4911	C	0.288433	0.751303	0.763105
	C4912	C	0.264318	0.753067	0.865490
	C4913	C	0.327702	0.692318	0.788495
	C4914	C	0.327065	0.816693	0.788529
	C4915	C	0.328778	0.755003	0.774861
	C4916	C	0.282588	0.751359	0.772387
	C4917	C	0.280676	0.689444	0.776906
	C4918	C	0.328683	0.692700	0.779459
	C4919	C	0.328044	0.817037	0.779491
	C4920	C	0.280368	0.813481	0.776825
	C4921	C	0.326671	0.754274	0.793114
	C4922	C	0.303791	0.753506	0.868181
	C4923	C	0.313782	0.691828	0.854860
	C4924	C	0.314090	0.815505	0.854924
	C4925	C	0.311263	0.753681	0.859250
	C4926	C	0.277036	0.462994	0.882977
	C4927	C	0.307420	0.462634	0.750058
	C4928	C	0.286784	0.462755	0.881375
	C4929	C	0.277015	0.543778	0.882990
	C4930	C	0.286861	0.543447	0.881393
	C4931	C	0.307470	0.543686	0.750063
	C4932	C	0.303887	0.253453	0.868199
	C4933	C	0.313964	0.191375	0.854882
	C4934	C	0.313902	0.315433	0.854898
	C4935	C	0.311259	0.253378	0.859239
	C4936	C	0.316363	0.043623	0.750512
	C4937	C	0.327676	0.251471	0.765014
	C4938	C	0.288392	0.254954	0.763123
	C4939	C	0.264402	0.252617	0.865535
	C4940	C	0.327127	0.189590	0.788555
	C4941	C	0.327352	0.313709	0.788511
	C4942	C	0.328703	0.251340	0.774895
	C4943	C	0.282534	0.254914	0.772403
	C4944	C	0.264163	0.752596	0.855636
	C4945	C	0.265256	0.814453	0.851013
	C4946	C	0.264561	0.690217	0.851063
	C4947	C	0.264219	0.253033	0.855676
	C4948	C	0.264495	0.315483	0.851124
	C4949	C	0.265384	0.191080	0.851057
	C4950	C	0.280403	0.192815	0.776852
	C4951	C	0.328112	0.189267	0.779519
	C4952	C	0.328350	0.313582	0.779478
	C4953	C	0.280621	0.316924	0.776914
	C4954	C	0.326582	0.251776	0.793157
	C4955	C	0.282550	0.043666	0.882881
	C4956	C	0.305124	0.043472	0.752576
	C4957	C	0.316375	0.962653	0.750515
	C4958	C	0.282494	0.962828	0.882898
	C4959	C	0.305116	0.962627	0.752583
	N4960	N	0.247477	0.070374	0.812578
	N4961	N	0.247541	0.935875	0.812586
	N4962	N	0.246913	0.435801	0.812489
	N4963	N	0.246889	0.570384	0.812456
	N4964	N	0.280700	0.436040	0.880793
	N4965	N	0.280762	0.570594	0.880800
	N4966	N	0.280799	0.070485	0.880840
	N4967	N	0.280690	0.935989	0.880844
	O4968	O	0.370924	0.695685	0.924293
	O4969	O	0.370724	0.811800	0.924365
	O4970	O	0.240161	0.695118	0.952679
	O4971	O	0.240415	0.811368	0.952584
	O4972	O	0.240109	0.194819	0.952624
	O4973	O	0.240277	0.311104	0.952622
	O4974	O	0.238050	0.694676	0.934095
	O4975	O	0.238158	0.811474	0.934094
	O4976	O	0.237921	0.194734	0.934005
	O4977	O	0.238114	0.311452	0.934098
	O4978	O	0.373136	0.694216	0.942969
	O4979	O	0.373088	0.810993	0.942981
	O4980	O	0.373095	0.195012	0.942963
	O4981	O	0.373145	0.311721	0.942998
	O4982	O	0.370792	0.195750	0.924316
	O4983	O	0.370784	0.312166	0.924312
	O4984	O	0.302787	0.695152	0.890135
	O4985	O	0.266570	0.694496	0.891562
	O4986	O	0.344585	0.694153	0.985456
	O4987	O	0.344744	0.810676	0.985471
	O4988	O	0.308251	0.694989	0.986810
	O4989	O	0.308503	0.811300	0.986782
	O4990	O	0.266458	0.810901	0.891564
	O4991	O	0.302733	0.811434	0.890125
	O4992	O	0.302756	0.195486	0.890106
	O4993	O	0.266492	0.194682	0.891537
	O4994	O	0.344669	0.194612	0.985476
	O4995	O	0.344870	0.311118	0.985549
	O4996	O	0.308469	0.194451	0.986780
	O4997	O	0.308249	0.310802	0.986830
	O4998	O	0.266340	0.311191	0.891513
	O4999	O	0.302700	0.311744	0.890118
	H5000	H	0.262125	0.645052	0.963558
	H5001	H	0.262261	0.861461	0.963543
	H5002	H	0.262401	0.144624	0.963471
	H5003	H	0.261925	0.360894	0.963695
	H5004	H	0.249551	0.861877	0.920915
	H5005	H	0.249157	0.643680	0.920878
	H5006	H	0.248911	0.362730	0.920761
	H5007	H	0.249735	0.143696	0.920918
	H5008	H	0.395273	0.065109	0.931673
	H5009	H	0.390969	0.064543	0.931264
	H5010	H	0.390998	0.941539	0.931254
	H5011	H	0.395244	0.941331	0.931666
	H5012	H	0.397464	0.065341	0.934392
	H5013	H	0.397520	0.941642	0.934377
	H5014	H	0.222114	0.064826	0.947352
	H5015	H	0.222105	0.941727	0.947357
	H5016	H	0.226988	0.064982	0.944732
	H5017	H	0.227000	0.941757	0.944757
	H5018	H	0.223405	0.064471	0.939994
	H5019	H	0.223561	0.941570	0.940068
	H5020	H	0.228633	0.441258	0.942149
	H5021	H	0.222673	0.441006	0.938779
	H5022	H	0.224885	0.441447	0.947554
	H5023	H	0.394471	0.441778	0.933137
	H5024	H	0.394281	0.441629	0.934348
	H5025	H	0.392551	0.441328	0.934709
	H5026	H	0.222596	0.564160	0.938775
	H5027	H	0.228613	0.564568	0.942155
	H5028	H	0.392697	0.565172	0.934663
	H5029	H	0.394324	0.564938	0.934334
	H5030	H	0.394406	0.564928	0.933115
	H5031	H	0.224849	0.564464	0.947545
	H5032	H	0.362080	0.643017	0.956199
	H5033	H	0.361533	0.861769	0.956117
	H5034	H	0.361670	0.143848	0.956173
	H5035	H	0.361995	0.362479	0.956220
	H5036	H	0.258237	0.643593	0.905420
	H5037	H	0.324729	0.644802	0.901065
	H5038	H	0.324579	0.861885	0.901063
	H5039	H	0.258671	0.861890	0.905441
	H5040	H	0.348959	0.645291	0.913439
	H5041	H	0.348795	0.862139	0.913428
	H5042	H	0.352818	0.643055	0.971655
	H5043	H	0.352238	0.861588	0.971561
	H5044	H	0.272768	0.441774	0.882549
	H5045	H	0.327742	0.441527	0.995022
	H5046	H	0.274118	0.441530	0.877639
	H5047	H	0.281181	0.441015	0.876491
	H5048	H	0.329186	0.440925	0.997463
	H5049	H	0.327250	0.441234	0.996632
	H5050	H	0.327820	0.564719	0.995042
	H5051	H	0.272717	0.565047	0.882556
	H5052	H	0.327276	0.564795	0.996635
	H5053	H	0.329172	0.564066	0.997488
	H5054	H	0.281202	0.564680	0.876457
	H5055	H	0.274134	0.564801	0.877622
	H5056	H	0.352587	0.143813	0.971637
	H5057	H	0.352884	0.362269	0.971680
	H5058	H	0.275108	0.064763	0.879000
	H5059	H	0.274510	0.064901	0.881613
	H5060	H	0.282295	0.064939	0.877758
	H5061	H	0.286487	0.861718	0.975892
	H5062	H	0.286339	0.645043	0.975924
	H5063	H	0.286068	0.360790	0.976081
	H5064	H	0.286588	0.144255	0.975834
	H5065	H	0.258914	0.143724	0.905461
	H5066	H	0.324667	0.144987	0.901074
	H5067	H	0.324948	0.362564	0.900923
	H5068	H	0.258109	0.362577	0.905323
	H5069	H	0.348768	0.145248	0.913467
	H5070	H	0.349088	0.362536	0.913304
	H5071	H	0.336212	0.064761	0.995904
	H5072	H	0.333422	0.064564	0.993726
	H5073	H	0.326284	0.064391	0.993642
	H5074	H	0.274330	0.941485	0.881630
	H5075	H	0.275038	0.941449	0.878998
	H5076	H	0.282218	0.941659	0.877742
	H5077	H	0.336196	0.940983	0.995871
	H5078	H	0.333398	0.941501	0.993709
	H5079	H	0.326215	0.941604	0.993644
	Zn5080	Zn	0.218536	0.680031	0.943357
	Zn5081	Zn	0.218558	0.825649	0.943355
	Zn5082	Zn	0.218400	0.180253	0.943317
	Zn5083	Zn	0.218598	0.325743	0.943321
	Zn5084	Zn	0.329974	0.680315	0.996137
	Zn5085	Zn	0.330117	0.825911	0.996103
	Zn5086	Zn	0.330134	0.180239	0.996109
	Zn5087	Zn	0.330016	0.325752	0.996075
	C5088	C	0.365066	0.753754	0.921521
	C5089	C	0.246077	0.753227	0.955419
	C5090	C	0.260806	0.753260	0.962795
	C5091	C	0.267546	0.692018	0.966312
	C5092	C	0.267647	0.814552	0.966302
	C5093	C	0.245973	0.252846	0.955426
	C5094	C	0.260646	0.252671	0.962819
	C5095	C	0.267630	0.191483	0.966279
	C5096	C	0.267355	0.313843	0.966401
	C5097	C	0.241574	0.753052	0.930797
	C5098	C	0.248938	0.752897	0.921831
	C5099	C	0.251627	0.814627	0.917478
	C5100	C	0.251399	0.691111	0.917458
	C5101	C	0.241495	0.253171	0.930749
	C5102	C	0.248883	0.253282	0.921787
	C5103	C	0.251291	0.315148	0.917386
	C5104	C	0.251722	0.191303	0.917461
	C5105	C	0.393016	0.043572	0.932046
	C5106	C	0.392990	0.962805	0.932036
	C5107	C	0.222855	0.043707	0.945323
	C5108	C	0.222876	0.962858	0.945350
	C5109	C	0.219365	0.043236	0.940550
	C5110	C	0.219397	0.962574	0.940586
	C5111	C	0.223707	0.462439	0.941213
	C5112	C	0.393402	0.463064	0.933068
	C5113	C	0.393210	0.462744	0.934303
	C5114	C	0.223690	0.543171	0.941199
	C5115	C	0.393264	0.543708	0.934283
	C5116	C	0.393423	0.543821	0.933062
	C5117	C	0.369676	0.752527	0.946282
	C5118	C	0.369763	0.253321	0.946309
	C5119	C	0.362334	0.752408	0.955236
	C5120	C	0.359814	0.690547	0.959608
	C5121	C	0.359466	0.814241	0.959557
	C5122	C	0.362442	0.253187	0.955264
	C5123	C	0.359665	0.191304	0.959600
	C5124	C	0.359787	0.315011	0.959623
	C5125	C	0.365003	0.253932	0.921524
	C5126	C	0.308594	0.753347	0.892905
	C5127	C	0.264319	0.752643	0.895169
	C5128	C	0.302554	0.753202	0.984020
	C5129	C	0.343569	0.692243	0.910665
	C5130	C	0.343461	0.814978	0.910663
	C5131	C	0.323338	0.753377	0.900261
	C5132	C	0.258892	0.752710	0.904462
	C5133	C	0.256398	0.691031	0.908867
	C5134	C	0.330158	0.692045	0.903794
	C5135	C	0.330060	0.814770	0.903793
	C5136	C	0.256636	0.814458	0.908883
	C5137	C	0.350384	0.753738	0.914146
	C5138	C	0.346915	0.752402	0.981885
	C5139	C	0.354782	0.690503	0.968193
	C5140	C	0.354440	0.814198	0.968142
	C5141	C	0.352389	0.752365	0.972591
	C5142	C	0.329285	0.462785	0.995145
	C5143	C	0.278429	0.462742	0.878030
	C5144	C	0.328699	0.462451	0.996811
	C5145	C	0.329311	0.543377	0.995165
	C5146	C	0.328719	0.543380	0.996805
	C5147	C	0.278491	0.543658	0.878029
	C5148	C	0.347047	0.252920	0.981935
	C5149	C	0.354690	0.191266	0.968196
	C5150	C	0.354800	0.314950	0.968219
	C5151	C	0.352548	0.253059	0.972639
	C5152	C	0.276347	0.043625	0.880451
	C5153	C	0.308537	0.253664	0.892897
	C5154	C	0.264264	0.252938	0.895126
	C5155	C	0.302543	0.252558	0.984030
	C5156	C	0.343427	0.192354	0.910679
	C5157	C	0.343605	0.315365	0.910597
	C5158	C	0.323270	0.253776	0.900262
	C5159	C	0.258847	0.253109	0.904426
	C5160	C	0.287822	0.753323	0.976681
	C5161	C	0.281071	0.814613	0.973166
	C5162	C	0.280973	0.692079	0.973176
	C5163	C	0.287695	0.252545	0.976716
	C5164	C	0.280757	0.313866	0.973275
	C5165	C	0.281041	0.191309	0.973154
	C5166	C	0.256703	0.191219	0.908865
	C5167	C	0.330048	0.192294	0.903800
	C5168	C	0.330207	0.315313	0.903726
	C5169	C	0.256252	0.315002	0.908788
	C5170	C	0.350288	0.253858	0.914159
	C5171	C	0.333626	0.043412	0.995155
	C5172	C	0.283504	0.043509	0.879234
	C5173	C	0.276259	0.962761	0.880453
	C5174	C	0.333644	0.962542	0.995152
	C5175	C	0.283451	0.962828	0.879244
	N5176	N	0.218257	0.070268	0.943320
	N5177	N	0.218324	0.935737	0.943373
	N5178	N	0.218404	0.435796	0.943329
	N5179	N	0.218389	0.570201	0.943325
	N5180	N	0.330008	0.435873	0.996109
	N5181	N	0.329984	0.570321	0.996111
	N5182	N	0.330138	0.070155	0.996121
	N5183	N	0.330143	0.935753	0.996112
	O5184	O	0.512367	0.695283	0.045510
	O5185	O	0.512374	0.811688	0.045567
	O5186	O	0.381768	0.694917	0.073791
	O5187	O	0.381685	0.811110	0.073825
	O5188	O	0.381797	0.194587	0.073765
	O5189	O	0.381855	0.310842	0.073791
	O5190	O	0.379478	0.694523	0.055199
	O5191	O	0.379497	0.811310	0.055193
	O5192	O	0.379300	0.194542	0.055162
	O5193	O	0.379471	0.311264	0.055210
	O5194	O	0.514574	0.694793	0.064204
	O5195	O	0.514405	0.811513	0.064192
	O5196	O	0.514355	0.194915	0.064178
	O5197	O	0.514471	0.311820	0.064140
	O5198	O	0.512064	0.195457	0.045570
	O5199	O	0.512348	0.311644	0.045487
	O5200	O	0.444216	0.695432	0.011344
	O5201	O	0.408115	0.694466	0.012721
	O5202	O	0.486065	0.694485	0.106761
	O5203	O	0.485938	0.811101	0.106716
	O5204	O	0.449697	0.695234	0.108055
	O5205	O	0.449632	0.811586	0.108070
	O5206	O	0.407873	0.810934	0.012698
	O5207	O	0.444238	0.811576	0.011348
	O5208	O	0.444203	0.195423	0.011321
	O5209	O	0.407904	0.195000	0.012648
	O5210	O	0.485954	0.195292	0.106650
	O5211	O	0.485923	0.311747	0.106650
	O5212	O	0.449932	0.194562	0.108029
	O5213	O	0.449672	0.310864	0.108106
	O5214	O	0.407895	0.311409	0.012688
	O5215	O	0.444344	0.311663	0.011298
	H5216	H	0.403474	0.644686	0.084822
	H5217	H	0.403667	0.861381	0.084725
	H5218	H	0.403861	0.144129	0.084672
	H5219	H	0.403717	0.361053	0.084762
	H5220	H	0.390937	0.861929	0.042004
	H5221	H	0.390659	0.643405	0.042012
	H5222	H	0.390548	0.362236	0.041962
	H5223	H	0.390985	0.143399	0.042004
	H5224	H	0.530264	0.064269	0.056053
	H5225	H	0.533719	0.064832	0.057100
	H5226	H	0.533785	0.941278	0.057197
	H5227	H	0.530228	0.941403	0.056134
	H5228	H	0.530063	0.064306	0.053500
	H5229	H	0.530117	0.941665	0.053535
	H5230	H	0.358931	0.064543	0.063177
	H5231	H	0.358886	0.941510	0.063174
	H5232	H	0.357150	0.064932	0.063924
	H5233	H	0.357185	0.941444	0.063918
	H5234	H	0.358010	0.064743	0.065555
	H5235	H	0.358003	0.941453	0.065557
	H5236	H	0.367344	0.441652	0.061344
	H5237	H	0.359364	0.441589	0.059579
	H5238	H	0.369098	0.441537	0.066941
	H5239	H	0.537986	0.441656	0.055175
	H5240	H	0.534834	0.441169	0.056738
	H5241	H	0.531640	0.441243	0.056250
	H5242	H	0.359376	0.565437	0.059618
	H5243	H	0.367325	0.564546	0.061351
	H5244	H	0.531572	0.564233	0.056271
	H5245	H	0.534849	0.564549	0.056748
	H5246	H	0.537957	0.565056	0.055226
	H5247	H	0.369188	0.564566	0.066946
	H5248	H	0.503369	0.642993	0.077458
	H5249	H	0.503182	0.862673	0.077433
	H5250	H	0.503080	0.144415	0.077344
	H5251	H	0.502935	0.362945	0.077278
	H5252	H	0.399827	0.643271	0.026542
	H5253	H	0.466281	0.645091	0.022249
	H5254	H	0.466240	0.862043	0.022258
	H5255	H	0.400098	0.861742	0.026563
	H5256	H	0.490432	0.645395	0.034605
	H5257	H	0.490349	0.862160	0.034634
	H5258	H	0.494262	0.643017	0.092930
	H5259	H	0.494045	0.862560	0.092889
	H5260	H	0.419754	0.441719	0.005923
	H5261	H	0.466509	0.441250	0.119793
	H5262	H	0.413884	0.441411	0.001779
	H5263	H	0.416893	0.441453	-0.001279
	H5264	H	0.478548	0.441259	0.118399
	H5265	H	0.474742	0.440985	0.120548
	H5266	H	0.466534	0.564581	0.119762
	H5267	H	0.419707	0.565139	0.005849
	H5268	H	0.474768	0.564761	0.120566
	H5269	H	0.478497	0.564592	0.118423
	H5270	H	0.416902	0.564866	-0.001303
	H5271	H	0.413906	0.564989	0.001749
	H5272	H	0.493837	0.144361	0.092774
	H5273	H	0.493701	0.363045	0.092747
	H5274	H	0.421688	0.064972	0.001930
	H5275	H	0.421781	0.065041	0.002263
	H5276	H	0.422504	0.065072	0.001656
	H5277	H	0.427845	0.861410	0.097105
	H5278	H	0.427647	0.644821	0.097220
	H5279	H	0.427794	0.361144	0.097164
	H5280	H	0.428040	0.144039	0.097075
	H5281	H	0.400136	0.143630	0.026521
	H5282	H	0.466242	0.145422	0.022197
	H5283	H	0.466241	0.361861	0.022170
	H5284	H	0.399675	0.362343	0.026509
	H5285	H	0.490358	0.145403	0.034608
	H5286	H	0.490384	0.362082	0.034576
	H5287	H	0.471409	0.064357	0.116487
	H5288	H	0.469993	0.064399	0.116870
	H5289	H	0.470158	0.064931	0.117890
	H5290	H	0.421757	0.941127	0.002314
	H5291	H	0.421623	0.941815	0.001918
	H5292	H	0.422405	0.941757	0.001615
	H5293	H	0.471300	0.941234	0.116469
	H5294	H	0.469949	0.941221	0.116869
	H5295	H	0.469997	0.941486	0.117865
	Zn5296	Zn	0.360096	0.680392	0.064482
	Zn5297	Zn	0.360114	0.825862	0.064465
	Zn5298	Zn	0.359888	0.180288	0.064511
	Zn5299	Zn	0.360061	0.325730	0.064496
	Zn5300	Zn	0.471311	0.680311	0.117370
	Zn5301	Zn	0.471331	0.825609	0.117375
	Zn5302	Zn	0.471570	0.180276	0.117409
	Zn5303	Zn	0.471434	0.325790	0.117389
	C5304	C	0.506599	0.753577	0.042742
	C5305	C	0.387466	0.753036	0.076620
	C5306	C	0.402113	0.753094	0.084012
	C5307	C	0.408895	0.691776	0.087548
	C5308	C	0.409009	0.814376	0.087494
	C5309	C	0.387641	0.252594	0.076564
	C5310	C	0.402341	0.252566	0.083949
	C5311	C	0.409193	0.191230	0.087458
	C5312	C	0.409112	0.313841	0.087501
	C5313	C	0.382881	0.752909	0.051882
	C5314	C	0.390228	0.752758	0.042916
	C5315	C	0.392988	0.814530	0.038575
	C5316	C	0.392839	0.690754	0.038574
	C5317	C	0.382790	0.252889	0.051863
	C5318	C	0.390189	0.252788	0.042909
	C5319	C	0.392783	0.314745	0.038551
	C5320	C	0.393013	0.190890	0.038562
	C5321	C	0.532546	0.043098	0.056154
	C5322	C	0.532614	0.962496	0.056193
	C5323	C	0.358461	0.043514	0.063809
	C5324	C	0.358474	0.962823	0.063807
	C5325	C	0.359320	0.043470	0.065419
	C5326	C	0.359366	0.962768	0.065424
	C5327	C	0.362393	0.462699	0.061512
	C5328	C	0.536633	0.462920	0.054546
	C5329	C	0.533458	0.462449	0.056075
	C5330	C	0.362391	0.543579	0.061515
	C5331	C	0.533468	0.543271	0.056085
	C5332	C	0.536636	0.543546	0.054574
	C5333	C	0.511118	0.753109	0.067529
	C5334	C	0.510968	0.253497	0.067458
	C5335	C	0.503828	0.752927	0.076503
	C5336	C	0.501225	0.690808	0.080877
	C5337	C	0.501102	0.814947	0.080860
	C5338	C	0.503568	0.253730	0.076397
	C5339	C	0.500881	0.191896	0.080754
	C5340	C	0.500810	0.315569	0.080724
	C5341	C	0.506410	0.253619	0.042751
	C5342	C	0.450012	0.753465	0.014137
	C5343	C	0.405735	0.752637	0.016292
	C5344	C	0.443881	0.753377	0.105273
	C5345	C	0.485059	0.692374	0.031852
	C5346	C	0.485004	0.815054	0.031880
	C5347	C	0.464782	0.753465	0.021491
	C5348	C	0.400221	0.752515	0.025566
	C5349	C	0.397862	0.690683	0.029987
	C5350	C	0.471636	0.692222	0.024990
	C5351	C	0.471604	0.814929	0.025007
	C5352	C	0.398017	0.814374	0.029992
	C5353	C	0.491862	0.753712	0.035367
	C5354	C	0.488288	0.752730	0.103161
	C5355	C	0.496246	0.690717	0.089477
	C5356	C	0.496120	0.814867	0.089455
	C5357	C	0.493859	0.752734	0.093866
	C5358	C	0.467044	0.462671	0.118101
	C5359	C	0.417268	0.462789	0.000722
	C5360	C	0.475359	0.462684	0.118932
	C5361	C	0.466992	0.543273	0.118109
	C5362	C	0.475295	0.543477	0.118938
	C5363	C	0.417265	0.543523	0.000701
	C5364	C	0.488131	0.253525	0.103050
	C5365	C	0.495843	0.191838	0.089334
	C5366	C	0.495761	0.315557	0.089310
	C5367	C	0.493492	0.253680	0.093731
	C5368	C	0.421875	0.043677	0.002102
	C5369	C	0.450026	0.253530	0.014111
	C5370	C	0.405644	0.253151	0.016250
	C5371	C	0.443992	0.252641	0.105276
	C5372	C	0.484991	0.192499	0.031839
	C5373	C	0.485010	0.315045	0.031824
	C5374	C	0.464775	0.253567	0.021468
	C5375	C	0.400172	0.252990	0.025550
	C5376	C	0.429135	0.753206	0.097908
	C5377	C	0.422399	0.814424	0.094370
	C5378	C	0.422285	0.691822	0.094432
	C5379	C	0.429305	0.252540	0.097900
	C5380	C	0.422487	0.313898	0.094386
	C5381	C	0.422583	0.191171	0.094341
	C5382	C	0.398024	0.191006	0.029968
	C5383	C	0.471626	0.192346	0.024950
	C5384	C	0.471638	0.314946	0.024936
	C5385	C	0.397769	0.314845	0.029962
	C5386	C	0.491753	0.253761	0.035363
	C5387	C	0.470972	0.043101	0.116869
	C5388	C	0.422682	0.043704	0.001818
	C5389	C	0.421847	0.962793	0.002119
	C5390	C	0.470929	0.962590	0.116852
	C5391	C	0.422680	0.962745	0.001834
	N5392	N	0.359837	0.070503	0.064528
	N5393	N	0.359881	0.936004	0.064534
	N5394	N	0.359933	0.435898	0.064465
	N5395	N	0.359965	0.570381	0.064468
	N5396	N	0.471592	0.435876	0.117391
	N5397	N	0.471574	0.570338	0.117397
	N5398	N	0.471681	0.070199	0.117392
	N5399	N	0.471596	0.935689	0.117391
	O5400	O	0.488393	0.693110	0.174467
	O5401	O	0.488068	0.810060	0.174458
	O5402	O	0.424951	0.695052	0.191380
	O5403	O	0.424851	0.812023	0.191355
	O5404	O	0.424972	0.194448	0.191406
	O5405	O	0.424995	0.311191	0.191401
	O5406	O	0.423487	0.694923	0.169218
	O5407	O	0.423305	0.811290	0.169146
	O5408	O	0.423490	0.194307	0.169214
	O5409	O	0.423728	0.310843	0.169262
	O5410	O	0.487069	0.693633	0.195349
	O5411	O	0.486855	0.810328	0.195335
	O5412	O	0.486860	0.195422	0.195347
	O5413	O	0.487046	0.312303	0.195372
	O5414	O	0.487928	0.196129	0.174520
	O5415	O	0.488462	0.312837	0.174511
	O5416	O	0.487441	0.694460	0.128824
	O5417	O	0.451945	0.694584	0.126705
	O5418	O	0.461201	0.693628	0.238599
	O5419	O	0.461337	0.810311	0.238580
	O5420	O	0.425664	0.695287	0.236998
	O5421	O	0.425968	0.811957	0.237052
	O5422	O	0.451921	0.811309	0.126703
	O5423	O	0.487340	0.811070	0.128876
	O5424	O	0.487467	0.195361	0.128911
	O5425	O	0.451952	0.194552	0.126670
	O5426	O	0.461272	0.195102	0.238560
	O5427	O	0.461177	0.311815	0.238644
	O5428	O	0.426001	0.194204	0.237045
	O5429	O	0.425818	0.310871	0.237039
	O5430	O	0.451992	0.311237	0.126706
	O5431	O	0.487421	0.312197	0.128840
	H5432	H	0.425593	0.643890	0.206044
	H5433	H	0.425266	0.863308	0.206027
	H5434	H	0.425404	0.142802	0.206061
	H5435	H	0.425554	0.362541	0.206047
	H5436	H	0.431151	0.862421	0.155309
	H5437	H	0.431614	0.643618	0.155385
	H5438	H	0.431897	0.361865	0.155432
	H5439	H	0.430999	0.143506	0.155273
	H5440	H	0.501262	0.064683	0.183008
	H5441	H	0.498551	0.064781	0.185168
	H5442	H	0.498446	0.941282	0.185183
	H5443	H	0.501139	0.941074	0.182951
	H5444	H	0.508610	0.064713	0.183180
	H5445	H	0.508687	0.941491	0.183187
	H5446	H	0.414376	0.064651	0.181015
	H5447	H	0.414402	0.941294	0.181004
	H5448	H	0.414068	0.064498	0.178758
	H5449	H	0.414084	0.941742	0.178741
	H5450	H	0.408155	0.064822	0.177143
	H5451	H	0.408208	0.940954	0.177108
	H5452	H	0.411357	0.441377	0.179093
	H5453	H	0.409141	0.440813	0.178567
	H5454	H	0.411642	0.441477	0.180725
	H5455	H	0.511793	0.441114	0.184072
	H5456	H	0.511376	0.441589	0.188228
	H5457	H	0.505748	0.441533	0.189417
	H5458	H	0.409160	0.564363	0.178563
	H5459	H	0.411389	0.563842	0.179082
	H5460	H	0.505666	0.565097	0.189342
	H5461	H	0.511256	0.564736	0.188159
	H5462	H	0.511758	0.564772	0.184083
	H5463	H	0.411644	0.564497	0.180675
	H5464	H	0.477879	0.641867	0.209069
	H5465	H	0.478137	0.861427	0.209139
	H5466	H	0.477581	0.143982	0.209073
	H5467	H	0.478215	0.363787	0.209173
	H5468	H	0.440849	0.643617	0.139928
	H5469	H	0.488496	0.642135	0.143491
	H5470	H	0.487324	0.862156	0.143535
	H5471	H	0.440406	0.862432	0.139852
	H5472	H	0.486903	0.641653	0.159783
	H5473	H	0.485752	0.861574	0.159826
	H5474	H	0.470259	0.641636	0.224791
	H5475	H	0.470486	0.861434	0.224849
	H5476	H	0.464261	0.441570	0.116929
	H5477	H	0.445984	0.441373	0.252051
	H5478	H	0.469459	0.441265	0.114061
	H5479	H	0.475400	0.441244	0.114571
	H5480	H	0.447774	0.441020	0.245218
	H5481	H	0.451135	0.440901	0.248307
	H5482	H	0.446070	0.564913	0.252067
	H5483	H	0.464255	0.564070	0.116957
	H5484	H	0.451122	0.564147	0.248260
	H5485	H	0.447795	0.564344	0.245241
	H5486	H	0.475437	0.565078	0.114648
	H5487	H	0.469432	0.565030	0.114014
	H5488	H	0.469936	0.143744	0.224760
	H5489	H	0.470594	0.363833	0.224902
	H5490	H	0.473372	0.065130	0.117810
	H5491	H	0.473287	0.064675	0.117072
	H5492	H	0.471499	0.064999	0.118293
	H5493	H	0.423735	0.863315	0.222343
	H5494	H	0.424078	0.643959	0.222330
	H5495	H	0.423956	0.362630	0.222331
	H5496	H	0.423805	0.142632	0.222335
	H5497	H	0.440089	0.143660	0.139806
	H5498	H	0.487403	0.143946	0.143606
	H5499	H	0.488710	0.364016	0.143526
	H5500	H	0.440983	0.361873	0.139943
	H5501	H	0.485609	0.144769	0.159866
	H5502	H	0.487010	0.364510	0.159764
	H5503	H	0.450758	0.064051	0.246183
	H5504	H	0.444434	0.064547	0.244001
	H5505	H	0.435155	0.065017	0.245897
	H5506	H	0.473293	0.940984	0.117049
	H5507	H	0.473327	0.941354	0.117762
	H5508	H	0.471524	0.941357	0.118329
	H5509	H	0.450798	0.941041	0.246226
	H5510	H	0.444409	0.941079	0.243996
	H5511	H	0.435180	0.941109	0.245934
	Zn5512	Zn	0.409107	0.680287	0.179890
	Zn5513	Zn	0.408954	0.825507	0.179895
	Zn5514	Zn	0.408936	0.180362	0.179870
	Zn5515	Zn	0.409068	0.325667	0.179943
	Zn5516	Zn	0.442761	0.680704	0.248241
	Zn5517	Zn	0.443064	0.824912	0.248242
	Zn5518	Zn	0.443053	0.180991	0.248204
	Zn5519	Zn	0.442817	0.325421	0.248233
	C5520	C	0.487116	0.751523	0.170660
	C5521	C	0.425579	0.753628	0.195198
	C5522	C	0.425862	0.753686	0.205067
	C5523	C	0.425262	0.691646	0.209669
	C5524	C	0.425107	0.815651	0.209675
	C5525	C	0.425620	0.252786	0.195243
	C5526	C	0.425884	0.252706	0.205099
	C5527	C	0.425132	0.190572	0.209702
	C5528	C	0.425247	0.314880	0.209690
	C5529	C	0.425624	0.753015	0.165582
	C5530	C	0.431086	0.752987	0.156289
	C5531	C	0.433298	0.814920	0.151874
	C5532	C	0.433541	0.691115	0.151913
	C5533	C	0.425846	0.252614	0.165648
	C5534	C	0.431259	0.252756	0.156342
	C5535	C	0.433728	0.314532	0.151950
	C5536	C	0.433238	0.190980	0.151870
	C5537	C	0.501205	0.043514	0.184484
	C5538	C	0.501181	0.962439	0.184466
	C5539	C	0.412892	0.043317	0.179881
	C5540	C	0.412915	0.962670	0.179874
	C5541	C	0.407013	0.043397	0.178292
	C5542	C	0.407019	0.962239	0.178280
	C5543	C	0.409989	0.462503	0.179115
	C5544	C	0.508164	0.462258	0.183871
	C5545	C	0.507704	0.462780	0.188031
	C5546	C	0.410001	0.543248	0.179116
	C5547	C	0.507658	0.543542	0.187980
	C5548	C	0.508172	0.543356	0.183853
	C5549	C	0.484093	0.751905	0.198836
	C5550	C	0.484130	0.253893	0.198857
	C5551	C	0.478235	0.751667	0.208117
	C5552	C	0.476157	0.689492	0.212574
	C5553	C	0.476289	0.813719	0.212613
	C5554	C	0.478212	0.253855	0.208143
	C5555	C	0.475920	0.191688	0.212582
	C5556	C	0.476297	0.316024	0.212657
	C5557	C	0.487124	0.254526	0.170693
	C5558	C	0.488042	0.752662	0.132691
	C5559	C	0.448519	0.752957	0.130006
	C5560	C	0.424732	0.753719	0.233206
	C5561	C	0.486962	0.689514	0.156167
	C5562	C	0.486291	0.813913	0.156186
	C5563	C	0.488250	0.752276	0.142549
	C5564	C	0.441181	0.753087	0.138960
	C5565	C	0.438583	0.691162	0.143332
	C5566	C	0.487934	0.689842	0.147133
	C5567	C	0.487282	0.814269	0.147153
	C5568	C	0.438354	0.815030	0.143292
	C5569	C	0.486132	0.751581	0.160787
	C5570	C	0.464099	0.751858	0.235096
	C5571	C	0.472031	0.689460	0.221319
	C5572	C	0.472174	0.813615	0.221356
	C5573	C	0.469988	0.751550	0.225823
	C5574	C	0.442575	0.462608	0.250944
	C5575	C	0.472212	0.462478	0.115118
	C5576	C	0.447711	0.462507	0.247164
	C5577	C	0.442581	0.543366	0.250944
	C5578	C	0.447712	0.543209	0.247144
	C5579	C	0.472205	0.543649	0.115127
	C5580	C	0.464075	0.253634	0.235119
	C5581	C	0.471806	0.191681	0.221320
	C5582	C	0.472187	0.315993	0.221403
	C5583	C	0.469941	0.253775	0.225854
	C5584	C	0.472912	0.043525	0.117418
	C5585	C	0.488091	0.253879	0.132707
	C5586	C	0.448554	0.252870	0.130009
	C5587	C	0.424749	0.252525	0.233231
	C5588	C	0.486328	0.192334	0.156229
	C5589	C	0.487070	0.316558	0.156171
	C5590	C	0.488335	0.253964	0.142553
	C5591	C	0.441186	0.252864	0.138966
	C5592	C	0.423760	0.753705	0.223337
	C5593	C	0.424149	0.815663	0.218719
	C5594	C	0.424302	0.691684	0.218713
	C5595	C	0.423679	0.252644	0.223354
	C5596	C	0.424211	0.314803	0.218718
	C5597	C	0.424122	0.190559	0.218731
	C5598	C	0.438212	0.191051	0.143275
	C5599	C	0.487330	0.191925	0.147196
	C5600	C	0.488036	0.316327	0.147138
	C5601	C	0.438711	0.314596	0.143353
	C5602	C	0.486189	0.254604	0.160807
	C5603	C	0.446414	0.043035	0.245915
	C5604	C	0.471063	0.043536	0.117916
	C5605	C	0.472900	0.962455	0.117403
	C5606	C	0.446415	0.962434	0.245916
	C5607	C	0.471039	0.962643	0.117910
	N5608	N	0.409135	0.070052	0.179881
	N5609	N	0.409133	0.935533	0.179857
	N5610	N	0.409268	0.435687	0.179934
	N5611	N	0.409264	0.570195	0.179921
	N5612	N	0.442748	0.435681	0.248282
	N5613	N	0.442749	0.570262	0.248280
	N5614	N	0.443082	0.070174	0.248196
	N5615	N	0.443089	0.935413	0.248220
	O5616	O	0.460616	0.694694	0.305039
	O5617	O	0.460618	0.811604	0.305012
	O5618	O	0.397182	0.692862	0.321936
	O5619	O	0.397580	0.809575	0.321942
	O5620	O	0.397720	0.195374	0.321874
	O5621	O	0.397357	0.312192	0.321886
	O5622	O	0.398443	0.693416	0.301016
	O5623	O	0.398979	0.810127	0.301163
	O5624	O	0.399049	0.195645	0.301172
	O5625	O	0.398366	0.312456	0.300978
	O5626	O	0.462012	0.694789	0.327237
	O5627	O	0.461878	0.811311	0.327202
	O5628	O	0.462263	0.194443	0.327251
	O5629	O	0.461977	0.311112	0.327189
	O5630	O	0.460634	0.194965	0.305021
	O5631	O	0.460577	0.311827	0.305063
	O5632	O	0.459916	0.694026	0.259415
	O5633	O	0.424240	0.695028	0.257795
	O5634	O	0.433718	0.694865	0.369790
	O5635	O	0.433813	0.811518	0.369810
	O5636	O	0.398228	0.694352	0.367578
	O5637	O	0.398474	0.811229	0.367529
	O5638	O	0.424686	0.811932	0.257943
	O5639	O	0.460133	0.810537	0.259445
	O5640	O	0.460041	0.194949	0.259448
	O5641	O	0.424788	0.193978	0.257892
	O5642	O	0.433639	0.194500	0.369764
	O5643	O	0.433629	0.311368	0.369721
	O5644	O	0.398452	0.195072	0.367479
	O5645	O	0.398295	0.312097	0.367536
	O5646	O	0.424303	0.310528	0.257807
	O5647	O	0.459734	0.311795	0.259435
	H5648	H	0.398797	0.641439	0.336628
	H5649	H	0.399948	0.861309	0.336588
	H5650	H	0.399665	0.143763	0.336554
	H5651	H	0.399086	0.363930	0.336561
	H5652	H	0.407985	0.862172	0.287450
	H5653	H	0.407533	0.642520	0.287245
	H5654	H	0.407013	0.363308	0.287147
	H5655	H	0.408460	0.143602	0.287509
	H5656	H	0.477871	0.065376	0.316208
	H5657	H	0.476801	0.064705	0.315687
	H5658	H	0.476787	0.941740	0.315752
	H5659	H	0.477852	0.941379	0.316240
	H5660	H	0.477588	0.064728	0.317048
	H5661	H	0.477460	0.941104	0.317101
	H5662	H	0.368072	0.064524	0.308224
	H5663	H	0.368131	0.940315	0.308240
	H5664	H	0.369163	0.064452	0.313545
	H5665	H	0.369178	0.941319	0.313573
	H5666	H	0.383031	0.064608	0.316993
	H5667	H	0.383030	0.941135	0.317026
	H5668	H	0.380590	0.441474	0.315295
	H5669	H	0.387705	0.441065	0.313684
	H5670	H	0.371196	0.441511	0.312232
	H5671	H	0.478535	0.441196	0.316672
	H5672	H	0.477105	0.441587	0.317484
	H5673	H	0.475421	0.441614	0.317369
	H5674	H	0.387681	0.564456	0.313656
	H5675	H	0.380580	0.564748	0.315237
	H5676	H	0.475389	0.565040	0.317319
	H5677	H	0.477129	0.564488	0.317488
	H5678	H	0.478572	0.564295	0.316635
	H5679	H	0.371336	0.564531	0.312212
	H5680	H	0.454017	0.643408	0.341094
	H5681	H	0.454072	0.862580	0.341080
	H5682	H	0.454485	0.143237	0.341139
	H5683	H	0.453770	0.362167	0.340993
	H5684	H	0.415259	0.643036	0.271551
	H5685	H	0.461659	0.642618	0.274079
	H5686	H	0.462007	0.862370	0.274095
	H5687	H	0.415590	0.862978	0.271734
	H5688	H	0.460022	0.642855	0.290351
	H5689	H	0.460293	0.862618	0.290362
	H5690	H	0.444912	0.643492	0.356558
	H5691	H	0.444985	0.862636	0.356576
	H5692	H	0.439008	0.441580	0.251720
	H5693	H	0.416228	0.441382	0.376457
	H5694	H	0.434376	0.441377	0.247524
	H5695	H	0.438169	0.441273	0.244780
	H5696	H	0.408193	0.441542	0.379430
	H5697	H	0.409572	0.441496	0.377129
	H5698	H	0.416211	0.565117	0.376492
	H5699	H	0.438969	0.564661	0.251746
	H5700	H	0.409440	0.564971	0.377144
	H5701	H	0.408227	0.564855	0.379422
	H5702	H	0.438111	0.564833	0.244770
	H5703	H	0.434422	0.565019	0.247538
	H5704	H	0.445167	0.143203	0.356590
	H5705	H	0.444608	0.362271	0.356458
	H5706	H	0.443409	0.064584	0.252514
	H5707	H	0.450157	0.064315	0.251109
	H5708	H	0.434655	0.064604	0.249521
	H5709	H	0.398490	0.862023	0.352888
	H5710	H	0.397401	0.642245	0.352934
	H5711	H	0.397565	0.363691	0.352853
	H5712	H	0.398201	0.143787	0.352852
	H5713	H	0.416185	0.142558	0.271844
	H5714	H	0.462021	0.143672	0.274166
	H5715	H	0.461627	0.363489	0.274135
	H5716	H	0.414748	0.362541	0.271436
	H5717	H	0.460491	0.143725	0.290432
	H5718	H	0.460027	0.363322	0.290384
	H5719	H	0.418951	0.064822	0.379041
	H5720	H	0.416928	0.064806	0.377212
	H5721	H	0.411271	0.064893	0.377011
	H5722	H	0.450193	0.941082	0.251137
	H5723	H	0.443382	0.941351	0.252537
	H5724	H	0.434719	0.941226	0.249508
	H5725	H	0.419021	0.941678	0.379022
	H5726	H	0.416951	0.941672	0.377182
	H5727	H	0.411303	0.941187	0.377004
	Zn5728	Zn	0.380117	0.680285	0.310707
	Zn5729	Zn	0.380645	0.825277	0.310753
	Zn5730	Zn	0.380623	0.180351	0.310731
	Zn5731	Zn	0.380056	0.325259	0.310707
	Zn5732	Zn	0.414236	0.680436	0.379082
	Zn5733	Zn	0.414205	0.825572	0.379063
	Zn5734	Zn	0.414164	0.180540	0.379040
	Zn5735	Zn	0.414244	0.325365	0.379067
	C5736	C	0.460014	0.753093	0.301205
	C5737	C	0.398473	0.751138	0.325754
	C5738	C	0.399579	0.751331	0.335635
	C5739	C	0.398789	0.689328	0.340251
	C5740	C	0.399409	0.813730	0.340233
	C5741	C	0.398591	0.253830	0.325701
	C5742	C	0.399608	0.253845	0.335590
	C5743	C	0.399296	0.191518	0.340183
	C5744	C	0.398960	0.316078	0.340187
	C5745	C	0.401534	0.751843	0.297592
	C5746	C	0.407516	0.752211	0.288317
	C5747	C	0.409645	0.814639	0.283907
	C5748	C	0.409402	0.690291	0.283789
	C5749	C	0.401451	0.253953	0.297567
	C5750	C	0.407345	0.253642	0.288292
	C5751	C	0.409073	0.315495	0.283723
	C5752	C	0.409871	0.191199	0.283929
	C5753	C	0.477050	0.043774	0.316086
	C5754	C	0.477032	0.962919	0.316117
	C5755	C	0.371772	0.043142	0.310834
	C5756	C	0.371798	0.962354	0.310847
	C5757	C	0.385756	0.043487	0.314312
	C5758	C	0.385756	0.962522	0.314321
	C5759	C	0.383048	0.462448	0.313490
	C5760	C	0.477735	0.462375	0.316328
	C5761	C	0.476256	0.462862	0.317193
	C5762	C	0.383071	0.543388	0.313470
	C5763	C	0.476247	0.543579	0.317181
	C5764	C	0.477743	0.543281	0.316329
	C5765	C	0.459766	0.753055	0.330818
	C5766	C	0.459872	0.252787	0.330810
	C5767	C	0.454373	0.753118	0.340128
	C5768	C	0.452059	0.691091	0.344542
	C5769	C	0.452085	0.815081	0.344542
	C5770	C	0.454341	0.252728	0.340108
	C5771	C	0.452216	0.190705	0.344554
	C5772	C	0.451854	0.314669	0.344472
	C5773	C	0.460012	0.253455	0.301215
	C5774	C	0.461105	0.752235	0.263260
	C5775	C	0.421678	0.753385	0.261366
	C5776	C	0.397764	0.752665	0.363733
	C5777	C	0.460364	0.690592	0.286724
	C5778	C	0.460514	0.814803	0.286741
	C5779	C	0.462079	0.752507	0.273116
	C5780	C	0.415760	0.753029	0.270626
	C5781	C	0.413570	0.690764	0.275062
	C5782	C	0.461432	0.690361	0.277699
	C5783	C	0.461591	0.814683	0.277719
	C5784	C	0.413783	0.814985	0.275166
	C5785	C	0.459749	0.752799	0.291337
	C5786	C	0.437158	0.753185	0.366472
	C5787	C	0.447104	0.691147	0.353143
	C5788	C	0.447150	0.815110	0.353144
	C5789	C	0.444513	0.753171	0.357515
	C5790	C	0.416971	0.462770	0.377840
	C5791	C	0.437987	0.462469	0.246713
	C5792	C	0.410203	0.462623	0.378506
	C5793	C	0.416954	0.543673	0.377844
	C5794	C	0.410190	0.543511	0.378509
	C5795	C	0.437982	0.543495	0.246694
	C5796	C	0.437030	0.252879	0.366427
	C5797	C	0.447182	0.190755	0.353144
	C5798	C	0.446862	0.314721	0.353064
	C5799	C	0.444340	0.252853	0.357464
	C5800	C	0.445816	0.043204	0.250872
	C5801	C	0.460958	0.253400	0.263254
	C5802	C	0.421707	0.252242	0.261350
	C5803	C	0.397728	0.253679	0.363686
	C5804	C	0.460624	0.191370	0.286788
	C5805	C	0.460376	0.315628	0.286765
	C5806	C	0.461989	0.253463	0.273133
	C5807	C	0.415675	0.252580	0.270603
	C5808	C	0.397488	0.752151	0.353876
	C5809	C	0.398451	0.814100	0.349268
	C5810	C	0.397854	0.689786	0.349291
	C5811	C	0.397465	0.253753	0.353829
	C5812	C	0.397964	0.315971	0.349220
	C5813	C	0.398303	0.191569	0.349219
	C5814	C	0.414047	0.190669	0.275199
	C5815	C	0.461645	0.191364	0.277760
	C5816	C	0.461414	0.315605	0.277740
	C5817	C	0.413239	0.314936	0.274982
	C5818	C	0.459798	0.253475	0.291361
	C5819	C	0.416891	0.043537	0.378367
	C5820	C	0.437087	0.043517	0.247851
	C5821	C	0.445819	0.962302	0.250876
	C5822	C	0.416888	0.962893	0.378359
	C5823	C	0.437090	0.962452	0.247857
	N5824	N	0.380582	0.070077	0.310722
	N5825	N	0.380598	0.935507	0.310728
	N5826	N	0.380032	0.435543	0.310718
	N5827	N	0.380059	0.570127	0.310698
	N5828	N	0.414109	0.435676	0.379101
	N5829	N	0.414068	0.570273	0.379106
	N5830	N	0.414037	0.070536	0.379035
	N5831	N	0.414046	0.935986	0.379018
	O5832	O	0.504301	0.694974	0.422435
	O5833	O	0.504322	0.810997	0.422408
	O5834	O	0.373525	0.694879	0.450862
	O5835	O	0.373529	0.811074	0.450855
	O5836	O	0.373469	0.194994	0.450870
	O5837	O	0.373423	0.311186	0.450878
	O5838	O	0.371186	0.694862	0.432253
	O5839	O	0.371205	0.811524	0.432302
	O5840	O	0.371172	0.194529	0.432243
	O5841	O	0.371172	0.311252	0.432276
	O5842	O	0.506470	0.694492	0.441053
	O5843	O	0.506475	0.811429	0.441029
	O5844	O	0.506411	0.195117	0.441004
	O5845	O	0.506664	0.311825	0.441054
	O5846	O	0.504235	0.194994	0.422472
	O5847	O	0.504384	0.311161	0.422391
	O5848	O	0.435846	0.695454	0.388394
	O5849	O	0.399721	0.695073	0.389769
	O5850	O	0.478016	0.694664	0.483549
	O5851	O	0.478157	0.811354	0.483557
	O5852	O	0.441687	0.695019	0.484926
	O5853	O	0.441952	0.811411	0.484874
	O5854	O	0.399514	0.811626	0.389712
	O5855	O	0.436028	0.811393	0.388302
	O5856	O	0.435894	0.194948	0.388370
	O5857	O	0.399488	0.195188	0.389685
	O5858	O	0.478011	0.195701	0.483508
	O5859	O	0.477972	0.312011	0.483547
	O5860	O	0.441798	0.194746	0.484958
	O5861	O	0.441827	0.311002	0.484889
	O5862	O	0.399659	0.311700	0.389737
	O5863	O	0.435905	0.311211	0.388371
	H5864	H	0.395563	0.644719	0.461709
	H5865	H	0.395573	0.861810	0.461704
	H5866	H	0.395438	0.144884	0.461731
	H5867	H	0.395498	0.361668	0.461719
	H5868	H	0.382476	0.863110	0.419061
	H5869	H	0.382093	0.644153	0.418986
	H5870	H	0.382610	0.362566	0.419073
	H5871	H	0.382245	0.143388	0.418993
	H5872	H	0.528133	0.065147	0.427532
	H5873	H	0.520681	0.064926	0.428102
	H5874	H	0.520636	0.941648	0.428080
	H5875	H	0.528182	0.941857	0.427561
	H5876	H	0.535164	0.064625	0.431525
	H5877	H	0.535129	0.941401	0.431520
	H5878	H	0.353626	0.064138	0.439562
	H5879	H	0.353519	0.941062	0.439557
	H5880	H	0.349511	0.064752	0.439473
	H5881	H	0.349468	0.941048	0.439504
	H5882	H	0.346836	0.065032	0.441791
	H5883	H	0.346870	0.941235	0.441786
	H5884	H	0.358141	0.440962	0.438926
	H5885	H	0.351260	0.441550	0.437330
	H5886	H	0.359534	0.441523	0.443771
	H5887	H	0.530905	0.441556	0.435202
	H5888	H	0.521151	0.441230	0.434764
	H5889	H	0.517826	0.441619	0.431641
	H5890	H	0.351293	0.564560	0.437314
	H5891	H	0.358190	0.565095	0.438916
	H5892	H	0.517893	0.564782	0.431703
	H5893	H	0.521192	0.564897	0.434758
	H5894	H	0.530836	0.564923	0.435160
	H5895	H	0.359513	0.564915	0.443743
	H5896	H	0.494892	0.643309	0.454210
	H5897	H	0.495405	0.862779	0.454278
	H5898	H	0.495141	0.144809	0.454201
	H5899	H	0.495344	0.362941	0.454227
	H5900	H	0.391321	0.644204	0.403554
	H5901	H	0.458028	0.645800	0.399152
	H5902	H	0.457872	0.860848	0.399282
	H5903	H	0.391717	0.863027	0.403615
	H5904	H	0.482410	0.645399	0.411424
	H5905	H	0.482310	0.860506	0.411564
	H5906	H	0.485739	0.643399	0.469674
	H5907	H	0.486251	0.862787	0.469736
	H5908	H	0.419882	0.441526	0.378312
	H5909	H	0.470915	0.441067	0.494159
	H5910	H	0.418136	0.441383	0.381432
	H5911	H	0.413260	0.440889	0.381985
	H5912	H	0.459419	0.441464	0.491300
	H5913	H	0.465428	0.441439	0.490961
	H5914	H	0.470876	0.565158	0.494182
	H5915	H	0.419791	0.565189	0.378332
	H5916	H	0.465485	0.564689	0.490922
	H5917	H	0.459469	0.564352	0.491238
	H5918	H	0.413171	0.564448	0.381964
	H5919	H	0.418070	0.564772	0.381437
	H5920	H	0.485815	0.145039	0.469632
	H5921	H	0.486003	0.362990	0.469643
	H5922	H	0.411964	0.064932	0.381091
	H5923	H	0.416145	0.064693	0.381257
	H5924	H	0.409158	0.065093	0.378672
	H5925	H	0.419880	0.862021	0.474025
	H5926	H	0.419908	0.644833	0.474016
	H5927	H	0.419825	0.361388	0.474052
	H5928	H	0.419786	0.144603	0.474049
	H5929	H	0.391405	0.143585	0.403538
	H5930	H	0.458061	0.144999	0.399199
	H5931	H	0.457843	0.361237	0.399309
	H5932	H	0.391734	0.362677	0.403587
	H5933	H	0.482366	0.144903	0.411527
	H5934	H	0.482221	0.361220	0.411614
	H5935	H	0.454181	0.064981	0.495153
	H5936	H	0.459558	0.064874	0.498405
	H5937	H	0.470763	0.064892	0.497770
	H5938	H	0.416151	0.941513	0.381210
	H5939	H	0.412018	0.941366	0.381142
	H5940	H	0.409170	0.941334	0.378624
	H5941	H	0.454077	0.941842	0.495155
	H5942	H	0.459424	0.942169	0.498429
	H5943	H	0.470704	0.941641	0.497791
	Zn5944	Zn	0.351740	0.680598	0.441559
	Zn5945	Zn	0.351712	0.825497	0.441571
	Zn5946	Zn	0.351776	0.180590	0.441567
	Zn5947	Zn	0.351674	0.325524	0.441591
	Zn5948	Zn	0.463460	0.680543	0.494216
	Zn5949	Zn	0.463481	0.826110	0.494232
	Zn5950	Zn	0.463601	0.180493	0.494236
	Zn5951	Zn	0.463459	0.325919	0.494222
	C5952	C	0.498501	0.752981	0.419637
	C5953	C	0.379320	0.753011	0.453643
	C5954	C	0.394070	0.753176	0.460983
	C5955	C	0.400955	0.691842	0.464454
	C5956	C	0.400966	0.814704	0.464453
	C5957	C	0.379310	0.253136	0.453616
	C5958	C	0.394135	0.253220	0.460924
	C5959	C	0.400906	0.191812	0.464450
	C5960	C	0.400899	0.314596	0.464453
	C5961	C	0.374536	0.753293	0.428934
	C5962	C	0.381853	0.753595	0.419970
	C5963	C	0.384597	0.815621	0.415633
	C5964	C	0.384371	0.691730	0.415585
	C5965	C	0.374553	0.252972	0.428931
	C5966	C	0.381864	0.253132	0.419957
	C5967	C	0.384626	0.315021	0.415617
	C5968	C	0.384414	0.191076	0.415577
	C5969	C	0.524884	0.043677	0.428851
	C5970	C	0.524903	0.962802	0.428855
	C5971	C	0.351553	0.043296	0.440072
	C5972	C	0.351513	0.962598	0.440081
	C5973	C	0.348889	0.043579	0.442376
	C5974	C	0.348884	0.962764	0.442380
	C5975	C	0.353856	0.462523	0.439032
	C5976	C	0.531049	0.462867	0.433252
	C5977	C	0.521317	0.462697	0.432819
	C5978	C	0.353902	0.543517	0.439023
	C5979	C	0.521297	0.543674	0.432834
	C5980	C	0.531003	0.543467	0.433259
	C5981	C	0.503100	0.752990	0.444360
	C5982	C	0.503091	0.253513	0.444329
	C5983	C	0.495750	0.753020	0.453320
	C5984	C	0.492911	0.690972	0.457654
	C5985	C	0.493173	0.815140	0.457683
	C5986	C	0.495703	0.253786	0.453278
	C5987	C	0.492948	0.192072	0.457620
	C5988	C	0.493048	0.315622	0.457632
	C5989	C	0.498516	0.253067	0.419645
	C5990	C	0.441747	0.753456	0.391134
	C5991	C	0.397380	0.753422	0.393323
	C5992	C	0.436032	0.753291	0.482117
	C5993	C	0.476905	0.692266	0.408752
	C5994	C	0.476829	0.813935	0.408829
	C5995	C	0.456525	0.753338	0.398465
	C5996	C	0.391800	0.753675	0.402600
	C5997	C	0.389361	0.691802	0.406994
	C5998	C	0.463417	0.692431	0.401918
	C5999	C	0.463337	0.814089	0.401992
	C6000	C	0.389594	0.815571	0.407036
	C6001	C	0.483673	0.753021	0.412315
	C6002	C	0.480325	0.753005	0.479968
	C6003	C	0.487897	0.690948	0.466246
	C6004	C	0.488168	0.815189	0.466275
	C6005	C	0.485771	0.753111	0.470667
	C6006	C	0.468264	0.462652	0.495176
	C6007	C	0.415236	0.462676	0.381031
	C6008	C	0.462814	0.462922	0.491926
	C6009	C	0.468271	0.543548	0.495171
	C6010	C	0.462820	0.543429	0.491914
	C6011	C	0.415190	0.543374	0.381025
	C6012	C	0.480185	0.253924	0.479919
	C6013	C	0.487914	0.192345	0.466203
	C6014	C	0.487990	0.315668	0.466209
	C6015	C	0.485580	0.253956	0.470614
	C6016	C	0.413991	0.043693	0.380636
	C6017	C	0.441734	0.253068	0.391138
	C6018	C	0.397371	0.253399	0.393301
	C6019	C	0.436078	0.252836	0.482110
	C6020	C	0.476883	0.191851	0.408800
	C6021	C	0.476797	0.314276	0.408858
	C6022	C	0.456517	0.253120	0.398479
	C6023	C	0.391831	0.253258	0.402584
	C6024	C	0.421239	0.753332	0.474779
	C6025	C	0.414426	0.814789	0.471297
	C6026	C	0.414415	0.691904	0.471290
	C6027	C	0.421318	0.253003	0.474741
	C6028	C	0.414401	0.314438	0.471286
	C6029	C	0.414409	0.191690	0.471288
	C6030	C	0.389438	0.191146	0.406985
	C6031	C	0.463407	0.191992	0.401961
	C6032	C	0.463312	0.314296	0.402009
	C6033	C	0.389639	0.315111	0.407022
	C6034	C	0.483709	0.253001	0.412303
	C6035	C	0.458683	0.043702	0.496118
	C6036	C	0.411183	0.043643	0.378168
	C6037	C	0.414010	0.962870	0.380637
	C6038	C	0.458621	0.963241	0.496118
	C6039	C	0.411174	0.962591	0.378156
	N6040	N	0.351678	0.070312	0.441620
	N6041	N	0.351644	0.935697	0.441634
	N6042	N	0.351577	0.435705	0.441595
	N6043	N	0.351634	0.570331	0.441582
	N6044	N	0.463658	0.436120	0.494242
	N6045	N	0.463652	0.570573	0.494214
	N6046	N	0.463773	0.070466	0.494251
	N6047	N	0.463735	0.935956	0.494251
	O6048	O	0.480064	0.695448	0.551330
	O6049	O	0.480426	0.811965	0.551310
	O6050	O	0.417023	0.694985	0.568239
	O6051	O	0.417263	0.811767	0.568206
	O6052	O	0.417319	0.194849	0.568229
	O6053	O	0.417242	0.311750	0.568237
	O6054	O	0.415492	0.694295	0.546005
	O6055	O	0.415725	0.810876	0.546022
	O6056	O	0.415653	0.195157	0.546055
	O6057	O	0.415517	0.311816	0.546008
	O6058	O	0.478616	0.695493	0.572129
	O6059	O	0.478978	0.812076	0.572208
	O6060	O	0.479282	0.193107	0.572243
	O6061	O	0.478584	0.309648	0.572064
	O6062	O	0.480383	0.194006	0.551328
	O6063	O	0.479938	0.310591	0.551362
	O6064	O	0.479367	0.694279	0.505771
	O6065	O	0.444049	0.694703	0.503526
	O6066	O	0.453015	0.694985	0.615397
	O6067	O	0.453502	0.811436	0.615498
	O6068	O	0.417626	0.695025	0.613842
	O6069	O	0.417883	0.811839	0.613814
	O6070	O	0.444144	0.811431	0.503595
	O6071	O	0.479651	0.811009	0.505675
	O6072	O	0.479484	0.195039	0.505707
	O6073	O	0.444004	0.194763	0.503524
	O6074	O	0.453384	0.194942	0.615478
	O6075	O	0.453144	0.311520	0.615347
	O6076	O	0.417857	0.194772	0.613870
	O6077	O	0.417962	0.311566	0.613852
	O6078	O	0.443870	0.311486	0.503501
	O6079	O	0.479402	0.311794	0.505740
	H6080	H	0.417445	0.643505	0.582899
	H6081	H	0.417739	0.863339	0.582851
	H6082	H	0.417827	0.143670	0.582910
	H6083	H	0.417421	0.363109	0.582898
	H6084	H	0.423507	0.862156	0.532184
	H6085	H	0.423619	0.642834	0.532143
	H6086	H	0.423124	0.362436	0.532112
	H6087	H	0.423601	0.144130	0.532262
	H6088	H	0.508488	0.064397	0.559079
	H6089	H	0.498557	0.064793	0.556086
	H6090	H	0.498534	0.941315	0.556103
	H6091	H	0.508504	0.941446	0.559110
	H6092	H	0.508607	0.064722	0.566585
	H6093	H	0.508591	0.940964	0.566559
	H6094	H	0.404486	0.065070	0.558232
	H6095	H	0.404475	0.941583	0.558230
	H6096	H	0.405650	0.064626	0.556687
	H6097	H	0.405583	0.941284	0.556621
	H6098	H	0.402305	0.064858	0.554769
	H6099	H	0.402319	0.941373	0.554716
	H6100	H	0.400455	0.441030	0.557642
	H6101	H	0.402100	0.441118	0.557703
	H6102	H	0.399268	0.441374	0.556637
	H6103	H	0.489021	0.441259	0.566674
	H6104	H	0.485492	0.441811	0.560089
	H6105	H	0.492834	0.441420	0.556909
	H6106	H	0.402071	0.564535	0.557697
	H6107	H	0.400328	0.564841	0.557646
	H6108	H	0.492861	0.564698	0.556921
	H6109	H	0.485582	0.564888	0.560135
	H6110	H	0.489107	0.564710	0.566698
	H6111	H	0.399169	0.564475	0.556604
	H6112	H	0.469553	0.643892	0.585891
	H6113	H	0.470167	0.863377	0.585981
	H6114	H	0.470734	0.142015	0.586143
	H6115	H	0.469147	0.361582	0.585742
	H6116	H	0.432848	0.643092	0.516703
	H6117	H	0.479599	0.643104	0.520432
	H6118	H	0.480135	0.862849	0.520341
	H6119	H	0.432718	0.862155	0.516706
	H6120	H	0.478063	0.643445	0.536716
	H6121	H	0.478570	0.863343	0.536633
	H6122	H	0.461988	0.643469	0.601579
	H6123	H	0.462644	0.863238	0.601723
	H6124	H	0.468783	0.441615	0.496814
	H6125	H	0.436847	0.441410	0.624631
	H6126	H	0.460564	0.441845	0.497309
	H6127	H	0.456583	0.441532	0.494899
	H6128	H	0.432864	0.441699	0.624386
	H6129	H	0.434511	0.441342	0.623948
	H6130	H	0.436779	0.564458	0.624633
	H6131	H	0.468853	0.564779	0.496831
	H6132	H	0.434480	0.565097	0.623939
	H6133	H	0.432843	0.564843	0.624391
	H6134	H	0.456603	0.565255	0.494867
	H6135	H	0.460525	0.565095	0.497270
	H6136	H	0.463130	0.142559	0.601824
	H6137	H	0.461618	0.362382	0.601455
	H6138	H	0.466138	0.065168	0.489727
	H6139	H	0.457974	0.064855	0.490209
	H6140	H	0.473582	0.065255	0.494117
	H6141	H	0.416103	0.863599	0.599138
	H6142	H	0.415818	0.643579	0.599167
	H6143	H	0.415848	0.363197	0.599168
	H6144	H	0.416282	0.143368	0.599196
	H6145	H	0.432834	0.143406	0.516816
	H6146	H	0.480158	0.143484	0.520302
	H6147	H	0.479762	0.362936	0.520491
	H6148	H	0.432394	0.362362	0.516655
	H6149	H	0.478533	0.142522	0.536568
	H6150	H	0.478046	0.362062	0.536742
	H6151	H	0.435995	0.064535	0.629437
	H6152	H	0.442581	0.064610	0.627648
	H6153	H	0.442108	0.064459	0.622581
	H6154	H	0.457923	0.941499	0.490129
	H6155	H	0.466229	0.941397	0.489683
	H6156	H	0.473673	0.941327	0.494198
	H6157	H	0.435997	0.941325	0.629412
	H6158	H	0.442578	0.941327	0.627657
	H6159	H	0.442163	0.941577	0.622561
	Zn6160	Zn	0.401131	0.680538	0.556773
	Zn6161	Zn	0.401253	0.825677	0.556726
	Zn6162	Zn	0.401264	0.180489	0.556771
	Zn6163	Zn	0.401179	0.325728	0.556786
	Zn6164	Zn	0.434719	0.680801	0.625019
	Zn6165	Zn	0.434852	0.825290	0.625048
	Zn6166	Zn	0.434879	0.180673	0.625020
	Zn6167	Zn	0.434944	0.325312	0.625046
	C6168	C	0.479135	0.753695	0.547497
	C6169	C	0.417773	0.753452	0.572056
	C6170	C	0.417937	0.753372	0.581901
	C6171	C	0.417150	0.691244	0.586514
	C6172	C	0.417342	0.815617	0.586482
	C6173	C	0.417841	0.253270	0.572066
	C6174	C	0.418002	0.253330	0.581940
	C6175	C	0.417434	0.191249	0.586547
	C6176	C	0.417192	0.315415	0.586537
	C6177	C	0.417776	0.752548	0.542421
	C6178	C	0.423121	0.752549	0.533115
	C6179	C	0.425486	0.814547	0.528721
	C6180	C	0.425529	0.690555	0.528708
	C6181	C	0.417764	0.253470	0.542440
	C6182	C	0.423207	0.253331	0.533133
	C6183	C	0.425311	0.315033	0.528683
	C6184	C	0.425557	0.191370	0.528776
	C6185	C	0.501923	0.043346	0.558883
	C6186	C	0.501923	0.962755	0.558892
	C6187	C	0.404135	0.043425	0.557248
	C6188	C	0.404134	0.962668	0.557218
	C6189	C	0.400847	0.043507	0.555353
	C6190	C	0.400818	0.962697	0.555334
	C6191	C	0.401334	0.462501	0.557448
	C6192	C	0.494744	0.462589	0.566183
	C6193	C	0.491218	0.462646	0.559573
	C6194	C	0.401292	0.543536	0.557441
	C6195	C	0.491244	0.543440	0.559576
	C6196	C	0.494792	0.543500	0.566200
	C6197	C	0.476029	0.753778	0.575684
	C6198	C	0.476163	0.251444	0.575680
	C6199	C	0.470207	0.753702	0.584970
	C6200	C	0.467965	0.691587	0.589409
	C6201	C	0.468324	0.815674	0.589473
	C6202	C	0.470262	0.251708	0.584961
	C6203	C	0.468639	0.189884	0.589548
	C6204	C	0.467764	0.313999	0.589334
	C6205	C	0.479084	0.252273	0.547517
	C6206	C	0.480105	0.752824	0.509551
	C6207	C	0.440657	0.752997	0.506868
	C6208	C	0.416676	0.753380	0.610017
	C6209	C	0.478500	0.691145	0.533070
	C6210	C	0.478791	0.815422	0.533023
	C6211	C	0.480302	0.753008	0.519411
	C6212	C	0.433241	0.752783	0.515800
	C6213	C	0.430587	0.690596	0.520132
	C6214	C	0.479483	0.690990	0.524038
	C6215	C	0.479759	0.815199	0.523990
	C6216	C	0.430524	0.814698	0.520139
	C6217	C	0.478180	0.753414	0.537650
	C6218	C	0.456154	0.753218	0.611951
	C6219	C	0.463897	0.691429	0.598156
	C6220	C	0.464245	0.815476	0.598224
	C6221	C	0.462068	0.753358	0.602693
	C6222	C	0.436342	0.462634	0.625070
	C6223	C	0.459951	0.462849	0.495619
	C6224	C	0.433947	0.462607	0.624397
	C6225	C	0.436274	0.543352	0.625085
	C6226	C	0.433930	0.543549	0.624409
	C6227	C	0.459928	0.543948	0.495597
	C6228	C	0.456140	0.253044	0.611932
	C6229	C	0.464521	0.190368	0.598288
	C6230	C	0.463684	0.314373	0.598081
	C6231	C	0.462123	0.252551	0.602694
	C6232	C	0.462553	0.043568	0.491081
	C6233	C	0.480051	0.253384	0.509559
	C6234	C	0.440575	0.253125	0.506835
	C6235	C	0.416844	0.253212	0.610052
	C6236	C	0.478725	0.190446	0.532989
	C6237	C	0.478503	0.314527	0.533105
	C6238	C	0.480301	0.253211	0.519413
	C6239	C	0.433205	0.252946	0.515785
	C6240	C	0.415757	0.753467	0.600146
	C6241	C	0.416345	0.815677	0.595518
	C6242	C	0.416143	0.691284	0.595545
	C6243	C	0.415795	0.253306	0.600194
	C6244	C	0.416190	0.315392	0.595571
	C6245	C	0.416431	0.191238	0.595583
	C6246	C	0.430597	0.191163	0.520186
	C6247	C	0.479734	0.190944	0.523960
	C6248	C	0.479527	0.315009	0.524078
	C6249	C	0.430349	0.314827	0.520093
	C6250	C	0.478086	0.252229	0.537655
	C6251	C	0.438115	0.043404	0.627616
	C6252	C	0.469976	0.043900	0.495512
	C6253	C	0.462568	0.962678	0.491064
	C6254	C	0.438117	0.962449	0.627601
	C6255	C	0.469992	0.962812	0.495535
	N6256	N	0.401400	0.070323	0.556798
	N6257	N	0.401402	0.935808	0.556736
	N6258	N	0.401315	0.435978	0.556786
	N6259	N	0.401313	0.570520	0.556767
	N6260	N	0.434820	0.435905	0.625066
	N6261	N	0.434742	0.570541	0.625067
	N6262	N	0.434825	0.070123	0.625036
	N6263	N	0.434811	0.935549	0.625007
	O6264	O	0.452800	0.694280	0.681880
	O6265	O	0.452693	0.810976	0.681873
	O6266	O	0.389444	0.695177	0.698760
	O6267	O	0.389061	0.812021	0.698729
	O6268	O	0.389063	0.194428	0.698754
	O6269	O	0.389291	0.311247	0.698693
	O6270	O	0.390635	0.695198	0.677929
	O6271	O	0.390615	0.811919	0.677949
	O6272	O	0.390687	0.194228	0.677891
	O6273	O	0.390633	0.310972	0.677896
	O6274	O	0.454436	0.694790	0.704131
	O6275	O	0.454221	0.811297	0.704057
	O6276	O	0.454216	0.194654	0.704045
	O6277	O	0.454321	0.311192	0.704078
	O6278	O	0.452594	0.194531	0.681881
	O6279	O	0.452913	0.311364	0.681859
	O6280	O	0.451975	0.694524	0.636245
	O6281	O	0.416537	0.695065	0.634751
	O6282	O	0.425522	0.695223	0.746505
	O6283	O	0.425477	0.811830	0.746494
	O6284	O	0.390188	0.694968	0.744319
	O6285	O	0.389896	0.811646	0.744350
	O6286	O	0.416518	0.811718	0.634702
	O6287	O	0.451992	0.811232	0.636249
	O6288	O	0.451890	0.194323	0.636229
	O6289	O	0.416454	0.194783	0.634651
	O6290	O	0.425311	0.194598	0.746459
	O6291	O	0.425584	0.311447	0.746525
	O6292	O	0.390056	0.195310	0.744330
	O6293	O	0.390150	0.311980	0.744337
	O6294	O	0.416567	0.311584	0.634671
	O6295	O	0.452057	0.311055	0.636214
	H6296	H	0.391599	0.643952	0.713429
	H6297	H	0.390985	0.863566	0.713372
	H6298	H	0.390808	0.143183	0.713409
	H6299	H	0.391507	0.362773	0.713349
	H6300	H	0.399742	0.863542	0.664181
	H6301	H	0.399827	0.643913	0.664226
	H6302	H	0.400058	0.362576	0.664192
	H6303	H	0.399533	0.143031	0.664087
	H6304	H	0.468314	0.064417	0.695495
	H6305	H	0.471916	0.064570	0.694959
	H6306	H	0.471861	0.940755	0.694931
	H6307	H	0.468333	0.940907	0.695520
	H6308	H	0.464202	0.064138	0.693761
	H6309	H	0.464194	0.941536	0.693797
	H6310	H	0.364064	0.065036	0.683336
	H6311	H	0.364012	0.941339	0.683373
	H6312	H	0.360772	0.064708	0.687573
	H6313	H	0.360680	0.942059	0.687561
	H6314	H	0.369253	0.064894	0.692638
	H6315	H	0.369106	0.941211	0.692641
	H6316	H	0.358422	0.441341	0.686673
	H6317	H	0.362827	0.441125	0.692042
	H6318	H	0.368309	0.441441	0.681062
	H6319	H	0.466548	0.441377	0.689978
	H6320	H	0.474500	0.441331	0.691522
	H6321	H	0.475614	0.441268	0.694495
	H6322	H	0.362788	0.564527	0.692062
	H6323	H	0.358449	0.565127	0.686740
	H6324	H	0.475607	0.564781	0.694488
	H6325	H	0.474467	0.564336	0.691579
	H6326	H	0.466618	0.564690	0.690045
	H6327	H	0.368386	0.564606	0.681026
	H6328	H	0.446603	0.644015	0.717980
	H6329	H	0.445788	0.862512	0.717810
	H6330	H	0.445871	0.143653	0.717815
	H6331	H	0.446559	0.362348	0.717973
	H6332	H	0.407540	0.643765	0.648535
	H6333	H	0.453998	0.642587	0.650938
	H6334	H	0.453821	0.862476	0.650934
	H6335	H	0.407358	0.863326	0.648465
	H6336	H	0.452397	0.642758	0.667231
	H6337	H	0.452235	0.862519	0.667198
	H6338	H	0.437272	0.644146	0.733391
	H6339	H	0.436486	0.862747	0.733259
	H6340	H	0.436940	0.441135	0.625536
	H6341	H	0.403724	0.441534	0.758488
	H6342	H	0.434769	0.440947	0.626148
	H6343	H	0.432897	0.441005	0.625662
	H6344	H	0.412087	0.441460	0.755545
	H6345	H	0.410627	0.441208	0.757891
	H6346	H	0.403730	0.564650	0.758439
	H6347	H	0.436855	0.564388	0.625548
	H6348	H	0.410626	0.564585	0.757890
	H6349	H	0.412008	0.564546	0.755534
	H6350	H	0.432913	0.564553	0.625665
	H6351	H	0.434595	0.564609	0.626130
	H6352	H	0.436540	0.143544	0.733264
	H6353	H	0.437218	0.362190	0.733398
	H6354	H	0.426289	0.065233	0.623035
	H6355	H	0.426594	0.064890	0.626769
	H6356	H	0.435251	0.064837	0.620638
	H6357	H	0.389408	0.863680	0.729652
	H6358	H	0.390022	0.643974	0.729699
	H6359	H	0.389999	0.363319	0.729646
	H6360	H	0.389340	0.143482	0.729664
	H6361	H	0.407111	0.143268	0.648375
	H6362	H	0.453452	0.142914	0.650889
	H6363	H	0.454185	0.362605	0.650958
	H6364	H	0.407639	0.363030	0.648465
	H6365	H	0.451924	0.142874	0.667192
	H6366	H	0.452623	0.362419	0.667230
	H6367	H	0.407486	0.064746	0.754223
	H6368	H	0.404363	0.064927	0.754124
	H6369	H	0.402211	0.064428	0.755869
	H6370	H	0.426613	0.941571	0.626760
	H6371	H	0.426266	0.941436	0.623018
	H6372	H	0.435231	0.941176	0.620602
	H6373	H	0.407648	0.941063	0.754303
	H6374	H	0.404469	0.941048	0.754149
	H6375	H	0.402273	0.941448	0.755826
	Zn6376	Zn	0.372373	0.680784	0.687573
	Zn6377	Zn	0.372025	0.825302	0.687523
	Zn6378	Zn	0.372218	0.180698	0.687519
	Zn6379	Zn	0.372206	0.325123	0.687509
	Zn6380	Zn	0.406134	0.680458	0.755832
	Zn6381	Zn	0.406135	0.825533	0.755860
	Zn6382	Zn	0.406006	0.180325	0.755829
	Zn6383	Zn	0.406122	0.325451	0.755842
	C6384	C	0.452141	0.752621	0.678038
	C6385	C	0.390346	0.753677	0.702553
	C6386	C	0.391311	0.753770	0.712411
	C6387	C	0.391090	0.691671	0.717042
	C6388	C	0.390746	0.815915	0.717002
	C6389	C	0.390288	0.252957	0.702536
	C6390	C	0.391279	0.253065	0.712402
	C6391	C	0.390655	0.191002	0.717017
	C6392	C	0.391061	0.315253	0.716998
	C6393	C	0.393479	0.753653	0.674449
	C6394	C	0.399395	0.753752	0.665175
	C6395	C	0.401516	0.815773	0.660696
	C6396	C	0.401586	0.691618	0.660728
	C6397	C	0.393482	0.252655	0.674389
	C6398	C	0.399422	0.252813	0.665115
	C6399	C	0.401663	0.315019	0.660671
	C6400	C	0.401377	0.190782	0.660612
	C6401	C	0.469640	0.043429	0.694734
	C6402	C	0.469627	0.962293	0.694719
	C6403	C	0.364986	0.043538	0.686000
	C6404	C	0.364917	0.962920	0.685992
	C6405	C	0.373475	0.043571	0.691108
	C6406	C	0.373382	0.962438	0.691105
	C6407	C	0.363691	0.462398	0.688887
	C6408	C	0.465369	0.462478	0.691517
	C6409	C	0.473296	0.462574	0.693099
	C6410	C	0.363704	0.543558	0.688899
	C6411	C	0.473278	0.543416	0.693121
	C6412	C	0.465421	0.543431	0.691533
	C6413	C	0.452076	0.753135	0.707677
	C6414	C	0.452058	0.252926	0.707651
	C6415	C	0.446563	0.753380	0.716953
	C6416	C	0.444413	0.691530	0.721387
	C6417	C	0.443989	0.815188	0.721307
	C6418	C	0.446565	0.252989	0.716934
	C6419	C	0.443985	0.191083	0.721285
	C6420	C	0.444382	0.314801	0.721374
	C6421	C	0.452115	0.252883	0.678042
	C6422	C	0.453111	0.752865	0.640061
	C6423	C	0.413651	0.753473	0.638216
	C6424	C	0.389430	0.753421	0.740496
	C6425	C	0.452676	0.690449	0.663589
	C6426	C	0.452579	0.814749	0.663573
	C6427	C	0.454126	0.752669	0.649925
	C6428	C	0.407818	0.753575	0.647499
	C6429	C	0.405754	0.691566	0.651993
	C6430	C	0.453683	0.690468	0.654552
	C6431	C	0.453597	0.814748	0.654547
	C6432	C	0.405688	0.815659	0.651960
	C6433	C	0.451999	0.752638	0.668175
	C6434	C	0.428938	0.753551	0.743191
	C6435	C	0.439261	0.691654	0.729948
	C6436	C	0.438841	0.815252	0.729870
	C6437	C	0.436367	0.753568	0.734265
	C6438	C	0.402960	0.462516	0.757076
	C6439	C	0.434054	0.462484	0.625690
	C6440	C	0.409878	0.462657	0.756470
	C6441	C	0.402952	0.543366	0.757060
	C6442	C	0.409860	0.543539	0.756470
	C6443	C	0.434017	0.543424	0.625685
	C6444	C	0.428906	0.252972	0.743193
	C6445	C	0.438880	0.190972	0.729861
	C6446	C	0.439262	0.314777	0.729946
	C6447	C	0.436390	0.252846	0.734252
	C6448	C	0.428640	0.043520	0.624920
	C6449	C	0.453023	0.252734	0.640042
	C6450	C	0.413658	0.253192	0.638150
	C6451	C	0.389488	0.253636	0.740494
	C6452	C	0.452340	0.190579	0.663554
	C6453	C	0.452762	0.314765	0.663584
	C6454	C	0.454003	0.252709	0.649908
	C6455	C	0.407664	0.253129	0.647405
	C6456	C	0.389249	0.753807	0.730639
	C6457	C	0.389779	0.815974	0.726031
	C6458	C	0.390140	0.691672	0.726069
	C6459	C	0.389205	0.253491	0.730641
	C6460	C	0.390075	0.315506	0.726027
	C6461	C	0.389677	0.191209	0.726044
	C6462	C	0.405513	0.190955	0.651873
	C6463	C	0.453299	0.190633	0.654513
	C6464	C	0.453723	0.314754	0.654549
	C6465	C	0.405792	0.315146	0.651926
	C6466	C	0.451902	0.252703	0.668172
	C6467	C	0.405900	0.043504	0.754602
	C6468	C	0.437680	0.043364	0.622495
	C6469	C	0.428654	0.962696	0.624915
	C6470	C	0.405968	0.962483	0.754622
	C6471	C	0.437679	0.962724	0.622474
	N6472	N	0.372194	0.070431	0.687492
	N6473	N	0.372066	0.935784	0.687486
	N6474	N	0.372267	0.435664	0.687528
	N6475	N	0.372344	0.570307	0.687550
	N6476	N	0.405952	0.435722	0.755813
	N6477	N	0.405932	0.570313	0.755806
	N6478	N	0.405916	0.070257	0.755801
	N6479	N	0.405969	0.935751	0.755798
	O6480	O	0.495891	0.694326	0.799358
	O6481	O	0.495936	0.810650	0.799366
	O6482	O	0.365070	0.694954	0.827710
	O6483	O	0.365325	0.811145	0.827569
	O6484	O	0.365250	0.195114	0.827635
	O6485	O	0.365319	0.311494	0.827675
	O6486	O	0.363052	0.694622	0.809043
	O6487	O	0.363040	0.811564	0.808998
	O6488	O	0.362907	0.194537	0.809018
	O6489	O	0.362890	0.311208	0.809022
	O6490	O	0.498089	0.694313	0.817955
	O6491	O	0.498218	0.811112	0.818030
	O6492	O	0.498179	0.194255	0.818011
	O6493	O	0.498160	0.311027	0.817935
	O6494	O	0.495863	0.194856	0.799391
	O6495	O	0.495858	0.311102	0.799389
	O6496	O	0.427899	0.694958	0.765146
	O6497	O	0.391581	0.694655	0.766511
	O6498	O	0.469475	0.694764	0.860482
	O6499	O	0.469595	0.811146	0.860413
	O6500	O	0.433147	0.695382	0.861919
	O6501	O	0.433480	0.811608	0.861747
	O6502	O	0.391605	0.811161	0.766511
	O6503	O	0.427847	0.811208	0.765192
	O6504	O	0.427787	0.194753	0.765155
	O6505	O	0.391759	0.194656	0.766547
	O6506	O	0.469734	0.195102	0.860482
	O6507	O	0.469604	0.311492	0.860427
	O6508	O	0.433369	0.194937	0.861810
	O6509	O	0.433260	0.311226	0.861904
	O6510	O	0.391659	0.310891	0.766517
	O6511	O	0.427815	0.311175	0.765185
	H6512	H	0.387093	0.644553	0.838612
	H6513	H	0.387304	0.861785	0.838481
	H6514	H	0.387411	0.144634	0.838473
	H6515	H	0.387074	0.361531	0.838609
	H6516	H	0.374204	0.862036	0.795785
	H6517	H	0.374345	0.643436	0.795833
	H6518	H	0.373979	0.362351	0.795771
	H6519	H	0.374648	0.143651	0.795862
	H6520	H	0.511328	0.064879	0.806753
	H6521	H	0.510832	0.064245	0.809628
	H6522	H	0.510733	0.941608	0.809638
	H6523	H	0.511188	0.941247	0.806740
	H6524	H	0.518694	0.065003	0.805343
	H6525	H	0.518732	0.941071	0.805326
	H6526	H	0.349102	0.064704	0.815973
	H6527	H	0.349176	0.941668	0.816014
	H6528	H	0.343007	0.064859	0.814579
	H6529	H	0.343089	0.941386	0.814574
	H6530	H	0.335900	0.064944	0.817027
	H6531	H	0.335891	0.941846	0.817024
	H6532	H	0.345066	0.441577	0.818958
	H6533	H	0.345365	0.441487	0.818132
	H6534	H	0.342911	0.441541	0.819177
	H6535	H	0.521674	0.441613	0.808380
	H6536	H	0.519832	0.441797	0.810402
	H6537	H	0.516430	0.441359	0.810433
	H6538	H	0.345401	0.564764	0.818128
	H6539	H	0.345048	0.564955	0.818927
	H6540	H	0.516403	0.564617	0.810454
	H6541	H	0.519776	0.565181	0.810405
	H6542	H	0.521682	0.565113	0.808428
	H6543	H	0.342789	0.565058	0.819160
	H6544	H	0.486457	0.643280	0.831143
	H6545	H	0.487169	0.861935	0.831226
	H6546	H	0.486849	0.143864	0.831183
	H6547	H	0.486632	0.362497	0.831061
	H6548	H	0.383574	0.643490	0.780382
	H6549	H	0.449919	0.644581	0.775996
	H6550	H	0.449804	0.860986	0.776137
	H6551	H	0.383504	0.862015	0.780337
	H6552	H	0.474120	0.643906	0.788376
	H6553	H	0.474021	0.861200	0.788507
	H6554	H	0.477260	0.643397	0.846608
	H6555	H	0.477895	0.862076	0.846661
	H6556	H	0.400110	0.440795	0.756612
	H6557	H	0.456806	0.441375	0.878122
	H6558	H	0.402089	0.441171	0.753379
	H6559	H	0.407169	0.441371	0.752977
	H6560	H	0.466834	0.441864	0.867362
	H6561	H	0.469346	0.441474	0.873158
	H6562	H	0.456829	0.565481	0.878091
	H6563	H	0.400201	0.564950	0.756582
	H6564	H	0.469249	0.565197	0.873151
	H6565	H	0.466777	0.564714	0.867348
	H6566	H	0.407134	0.564326	0.752993
	H6567	H	0.402063	0.565034	0.753403
	H6568	H	0.477726	0.143908	0.846640
	H6569	H	0.477426	0.362779	0.846528
	H6570	H	0.408145	0.064839	0.757338
	H6571	H	0.409697	0.064907	0.756079
	H6572	H	0.403845	0.064687	0.757207
	H6573	H	0.411417	0.862049	0.850835
	H6574	H	0.411310	0.644908	0.850995
	H6575	H	0.411179	0.361661	0.851013
	H6576	H	0.411542	0.144677	0.850852
	H6577	H	0.383875	0.143806	0.780427
	H6578	H	0.449465	0.144270	0.776171
	H6579	H	0.449818	0.361550	0.776069
	H6580	H	0.383269	0.362255	0.780336
	H6581	H	0.473705	0.144256	0.788526
	H6582	H	0.474015	0.361731	0.788426
	H6583	H	0.449563	0.065057	0.867483
	H6584	H	0.446042	0.064478	0.870632
	H6585	H	0.451671	0.064525	0.875029
	H6586	H	0.409693	0.941383	0.756081
	H6587	H	0.408126	0.941273	0.757350
	H6588	H	0.403880	0.941336	0.757202
	H6589	H	0.449683	0.941315	0.867451
	H6590	H	0.446100	0.941279	0.870599
	H6591	H	0.451617	0.941537	0.875009
	Zn6592	Zn	0.343515	0.680514	0.818316
	Zn6593	Zn	0.343569	0.825826	0.818345
	Zn6594	Zn	0.343460	0.180428	0.818339
	Zn6595	Zn	0.343580	0.325584	0.818342
	Zn6596	Zn	0.454982	0.680686	0.871147
	Zn6597	Zn	0.455163	0.825917	0.871089
	Zn6598	Zn	0.455085	0.180549	0.871135
	Zn6599	Zn	0.455035	0.325852	0.871145
	C6600	C	0.490143	0.752513	0.796563
	C6601	C	0.371009	0.753064	0.830440
	C6602	C	0.385729	0.753095	0.837805
	C6603	C	0.392520	0.691790	0.841349
	C6604	C	0.392617	0.814622	0.841267
	C6605	C	0.371046	0.253211	0.830454
	C6606	C	0.385723	0.253042	0.837846
	C6607	C	0.392659	0.191654	0.841282
	C6608	C	0.392469	0.314461	0.841372
	C6609	C	0.366444	0.753010	0.805713
	C6610	C	0.373764	0.752808	0.796745
	C6611	C	0.376413	0.814615	0.792372
	C6612	C	0.376477	0.690907	0.792406
	C6613	C	0.366297	0.252874	0.805696
	C6614	C	0.373647	0.252946	0.796751
	C6615	C	0.376250	0.314745	0.792376
	C6616	C	0.376615	0.191238	0.792425
	C6617	C	0.512814	0.043456	0.808313
	C6618	C	0.512754	0.962722	0.808309
	C6619	C	0.345309	0.043577	0.816103
	C6620	C	0.345376	0.962851	0.816108
	C6621	C	0.338117	0.043638	0.818528
	C6622	C	0.338147	0.962843	0.818531
	C6623	C	0.344682	0.462667	0.818467
	C6624	C	0.519926	0.462845	0.807967
	C6625	C	0.518032	0.462874	0.809961
	C6626	C	0.344664	0.543587	0.818484
	C6627	C	0.518030	0.543564	0.809974
	C6628	C	0.519920	0.543736	0.808004
	C6629	C	0.494730	0.752622	0.821299
	C6630	C	0.494693	0.252797	0.821273
	C6631	C	0.487280	0.752546	0.830240
	C6632	C	0.484450	0.690783	0.834585
	C6633	C	0.484805	0.814511	0.834620
	C6634	C	0.487242	0.253085	0.830213
	C6635	C	0.484650	0.191290	0.834593
	C6636	C	0.484529	0.315103	0.834526
	C6637	C	0.490085	0.252940	0.796590
	C6638	C	0.433672	0.753030	0.767958
	C6639	C	0.389342	0.752910	0.770105
	C6640	C	0.427531	0.753501	0.859035
	C6641	C	0.468637	0.691226	0.785681
	C6642	C	0.468580	0.814010	0.785754
	C6643	C	0.448374	0.752823	0.775341
	C6644	C	0.383813	0.752773	0.779395
	C6645	C	0.381503	0.690916	0.783815
	C6646	C	0.455241	0.691434	0.778801
	C6647	C	0.455198	0.814021	0.778876
	C6648	C	0.381454	0.814600	0.783787
	C6649	C	0.475400	0.752584	0.789220
	C6650	C	0.471734	0.752800	0.856855
	C6651	C	0.479407	0.690776	0.843168
	C6652	C	0.479751	0.814647	0.843200
	C6653	C	0.477240	0.752669	0.847577
	C6654	C	0.452084	0.462835	0.875476
	C6655	C	0.404928	0.462575	0.753866
	C6656	C	0.464684	0.462979	0.870496
	C6657	C	0.452120	0.543856	0.875464
	C6658	C	0.464671	0.543633	0.870501
	C6659	C	0.404902	0.543282	0.753873
	C6660	C	0.471877	0.253240	0.856866
	C6661	C	0.479658	0.191373	0.843183
	C6662	C	0.479518	0.315107	0.843116
	C6663	C	0.477262	0.253273	0.847563
	C6664	C	0.408084	0.043409	0.756458
	C6665	C	0.433591	0.252938	0.767952
	C6666	C	0.389435	0.252816	0.770130
	C6667	C	0.427502	0.253148	0.859078
	C6668	C	0.468440	0.191510	0.785736
	C6669	C	0.468609	0.314394	0.785676
	C6670	C	0.448343	0.252837	0.775305
	C6671	C	0.383862	0.252971	0.779414
	C6672	C	0.412792	0.753418	0.851690
	C6673	C	0.406006	0.814730	0.848141
	C6674	C	0.405916	0.691981	0.848229
	C6675	C	0.412734	0.253164	0.851725
	C6676	C	0.405854	0.314540	0.848249
	C6677	C	0.406062	0.191760	0.848151
	C6678	C	0.381703	0.191201	0.783844
	C6679	C	0.455013	0.191436	0.778875
	C6680	C	0.455201	0.314366	0.778809
	C6681	C	0.381340	0.314756	0.783798
	C6682	C	0.475384	0.252943	0.789204
	C6683	C	0.449786	0.043747	0.869611
	C6684	C	0.403745	0.043320	0.756337
	C6685	C	0.408090	0.962610	0.756467
	C6686	C	0.449844	0.962814	0.869589
	C6687	C	0.403779	0.962686	0.756328
	N6688	N	0.343340	0.070609	0.818333
	N6689	N	0.343381	0.936094	0.818377
	N6690	N	0.343419	0.435787	0.818289
	N6691	N	0.343419	0.570352	0.818290
	N6692	N	0.455126	0.435895	0.871122
	N6693	N	0.455156	0.570433	0.871126
	N6694	N	0.455226	0.070563	0.871156
	N6695	N	0.455284	0.936061	0.871134
	O6696	O	0.468790	0.694361	0.928076
	O6697	O	0.468919	0.811060	0.928035
	O6698	O	0.408852	0.695054	0.945064
	O6699	O	0.408808	0.811917	0.945101
	O6700	O	0.408684	0.194655	0.945091
	O6701	O	0.408579	0.311513	0.945131
	O6702	O	0.407032	0.695959	0.922913
	O6703	O	0.406996	0.812374	0.922951
	O6704	O	0.406908	0.195262	0.922917
	O6705	O	0.407104	0.311581	0.922979
	O6706	O	0.470499	0.695169	0.950267
	O6707	O	0.470516	0.811580	0.950202
	O6708	O	0.470295	0.194617	0.950118
	O6709	O	0.470629	0.311004	0.950211
	O6710	O	0.468977	0.194442	0.928033
	O6711	O	0.468717	0.311304	0.928140
	O6712	O	0.471353	0.694810	0.882587
	O6713	O	0.435730	0.695621	0.880530
	O6714	O	0.441942	0.695414	0.992673
	O6715	O	0.441767	0.812250	0.992680
	O6716	O	0.406267	0.694472	0.990582
	O6717	O	0.406225	0.811157	0.990617
	O6718	O	0.435773	0.812352	0.880464
	O6719	O	0.471507	0.811643	0.882509
	O6720	O	0.471523	0.195311	0.882568
	O6721	O	0.435705	0.194921	0.880483
	O6722	O	0.441875	0.194613	0.992645
	O6723	O	0.441861	0.311466	0.992646
	O6724	O	0.406208	0.194866	0.990637
	O6725	O	0.406263	0.311535	0.990640
	O6726	O	0.435584	0.311703	0.880467
	O6727	O	0.471262	0.312024	0.882586
	H6728	H	0.408999	0.643378	0.959736
	H6729	H	0.408924	0.862809	0.959759
	H6730	H	0.408654	0.143228	0.959768
	H6731	H	0.408969	0.362705	0.959776
	H6732	H	0.415004	0.863523	0.909099
	H6733	H	0.414959	0.645050	0.909087
	H6734	H	0.415055	0.362821	0.909114
	H6735	H	0.414937	0.144300	0.909131
	H6736	H	0.486245	0.064877	0.937093
	H6737	H	0.481818	0.064751	0.937350
	H6738	H	0.481881	0.941589	0.937397
	H6739	H	0.486192	0.941381	0.937103
	H6740	H	0.490308	0.064706	0.939366
	H6741	H	0.490331	0.940735	0.939375
	H6742	H	0.387370	0.064758	0.933364
	H6743	H	0.387484	0.941437	0.933347
	H6744	H	0.389024	0.065142	0.935344
	H6745	H	0.389077	0.941740	0.935360
	H6746	H	0.394883	0.065345	0.935865
	H6747	H	0.394887	0.942236	0.935869
	H6748	H	0.390485	0.442042	0.933048
	H6749	H	0.390426	0.441336	0.933961
	H6750	H	0.392891	0.442152	0.932603
	H6751	H	0.483574	0.441035	0.937897
	H6752	H	0.487744	0.441309	0.938368
	H6753	H	0.488694	0.441667	0.939842
	H6754	H	0.390459	0.564864	0.933968
	H6755	H	0.390546	0.565152	0.933011
	H6756	H	0.488645	0.564576	0.939792
	H6757	H	0.487571	0.564651	0.938359
	H6758	H	0.483478	0.564481	0.937903
	H6759	H	0.392881	0.565407	0.932603
	H6760	H	0.462514	0.644476	0.964105
	H6761	H	0.462555	0.863067	0.964052
	H6762	H	0.462225	0.143314	0.963967
	H6763	H	0.462748	0.362214	0.964085
	H6764	H	0.424391	0.644878	0.893670
	H6765	H	0.471667	0.643448	0.897210
	H6766	H	0.471342	0.863070	0.897197
	H6767	H	0.424443	0.863402	0.893679
	H6768	H	0.468934	0.643131	0.913410
	H6769	H	0.468574	0.862705	0.913408
	H6770	H	0.453156	0.644685	0.979521
	H6771	H	0.453222	0.863265	0.979507
	H6772	H	0.445090	0.441890	0.875893
	H6773	H	0.426932	0.441697	1.005758
	H6774	H	0.441659	0.441962	0.867958
	H6775	H	0.450750	0.441466	0.864341
	H6776	H	0.426901	0.440830	0.998581
	H6777	H	0.431097	0.441249	1.001615
	H6778	H	0.427027	0.564968	1.005739
	H6779	H	0.445177	0.565223	0.875852
	H6780	H	0.431251	0.564410	1.001555
	H6781	H	0.426914	0.564627	0.998545
	H6782	H	0.450723	0.564952	0.864332
	H6783	H	0.441671	0.564797	0.868009
	H6784	H	0.452924	0.143347	0.979426
	H6785	H	0.453405	0.362334	0.979505
	H6786	H	0.464276	0.064626	0.870911
	H6787	H	0.460113	0.064992	0.867667
	H6788	H	0.459251	0.064967	0.875175
	H6789	H	0.406245	0.862727	0.975963
	H6790	H	0.406344	0.643243	0.975938
	H6791	H	0.406333	0.362794	0.975988
	H6792	H	0.405986	0.143274	0.975954
	H6793	H	0.424065	0.144143	0.893673
	H6794	H	0.471518	0.144204	0.897189
	H6795	H	0.471463	0.363237	0.897255
	H6796	H	0.424193	0.362612	0.893651
	H6797	H	0.468732	0.143849	0.913389
	H6798	H	0.468768	0.363314	0.913422
	H6799	H	0.422695	0.064594	1.002530
	H6800	H	0.423370	0.064398	1.002297
	H6801	H	0.423215	0.064898	1.001830
	H6802	H	0.460191	0.941745	0.867648
	H6803	H	0.464232	0.941424	0.870852
	H6804	H	0.459348	0.941394	0.875155
	H6805	H	0.422743	0.941245	1.002563
	H6806	H	0.423266	0.941508	1.002308
	H6807	H	0.423161	0.941287	1.001839
	Zn6808	Zn	0.392552	0.680840	0.933619
	Zn6809	Zn	0.392512	0.826005	0.933686
	Zn6810	Zn	0.392483	0.180638	0.933642
	Zn6811	Zn	0.392486	0.325880	0.933686
	Zn6812	Zn	0.422601	0.680505	1.001981
	Zn6813	Zn	0.422435	0.825901	1.002069
	Zn6814	Zn	0.422641	0.180332	1.002034
	Zn6815	Zn	0.422578	0.325888	1.002030
	C6816	C	0.468293	0.752655	0.924213
	C6817	C	0.409371	0.753398	0.948906
	C6818	C	0.409251	0.753182	0.958757
	C6819	C	0.408443	0.690987	0.963338
	C6820	C	0.408342	0.815164	0.963349
	C6821	C	0.409193	0.252999	0.948944
	C6822	C	0.409164	0.252971	0.958785
	C6823	C	0.408218	0.190920	0.963374
	C6824	C	0.408389	0.315025	0.963386
	C6825	C	0.409195	0.754215	0.919337
	C6826	C	0.414653	0.754237	0.910042
	C6827	C	0.417064	0.816034	0.905660
	C6828	C	0.417050	0.692377	0.905647
	C6829	C	0.409214	0.253474	0.919351
	C6830	C	0.414706	0.253534	0.910076
	C6831	C	0.417022	0.315425	0.905670
	C6832	C	0.416967	0.191664	0.905672
	C6833	C	0.484257	0.043266	0.937813
	C6834	C	0.484267	0.962486	0.937822
	C6835	C	0.389373	0.043773	0.934169
	C6836	C	0.389420	0.962863	0.934168
	C6837	C	0.395256	0.043868	0.934734
	C6838	C	0.395277	0.963085	0.934735
	C6839	C	0.391056	0.463084	0.933536
	C6840	C	0.483187	0.462180	0.938692
	C6841	C	0.487339	0.462638	0.939200
	C6842	C	0.391098	0.543817	0.933531
	C6843	C	0.487268	0.543269	0.939193
	C6844	C	0.483103	0.543266	0.938699
	C6845	C	0.468279	0.753529	0.953829
	C6846	C	0.468210	0.252763	0.953758
	C6847	C	0.462811	0.753827	0.963113
	C6848	C	0.460462	0.692018	0.967528
	C6849	C	0.460474	0.815717	0.967496
	C6850	C	0.462723	0.252756	0.963044
	C6851	C	0.460278	0.190849	0.967429
	C6852	C	0.460562	0.314675	0.967487
	C6853	C	0.468295	0.253098	0.924263
	C6854	C	0.471972	0.753359	0.886374
	C6855	C	0.432297	0.754117	0.883809
	C6856	C	0.405699	0.752902	0.986763
	C6857	C	0.469449	0.690899	0.909805
	C6858	C	0.469238	0.815099	0.909787
	C6859	C	0.471893	0.753339	0.896218
	C6860	C	0.424838	0.754231	0.892732
	C6861	C	0.422132	0.692313	0.897072
	C6862	C	0.471079	0.691250	0.900815
	C6863	C	0.470884	0.815282	0.900798
	C6864	C	0.422153	0.816025	0.897087
	C6865	C	0.468378	0.752853	0.914373
	C6866	C	0.445297	0.753943	0.989380
	C6867	C	0.455391	0.692098	0.976103
	C6868	C	0.455411	0.815857	0.976075
	C6869	C	0.452702	0.754066	0.980435
	C6870	C	0.423125	0.462944	1.004822
	C6871	C	0.448586	0.462902	0.867469
	C6872	C	0.427292	0.462599	1.000594
	C6873	C	0.423158	0.543777	1.004823
	C6874	C	0.427323	0.543530	1.000563
	C6875	C	0.448611	0.543724	0.867489
	C6876	C	0.445245	0.253044	0.989332
	C6877	C	0.455219	0.190904	0.976011
	C6878	C	0.455496	0.314822	0.976064
	C6879	C	0.452643	0.252910	0.980380
	C6880	C	0.460361	0.043446	0.869773
	C6881	C	0.471951	0.253620	0.886420
	C6882	C	0.432199	0.253290	0.883778
	C6883	C	0.405674	0.253184	0.986801
	C6884	C	0.469306	0.191580	0.909810
	C6885	C	0.469280	0.315564	0.909842
	C6886	C	0.471844	0.253608	0.896261
	C6887	C	0.424797	0.253369	0.892734
	C6888	C	0.405841	0.753006	0.976923
	C6889	C	0.406749	0.815081	0.972339
	C6890	C	0.406861	0.690936	0.972334
	C6891	C	0.405745	0.253059	0.976958
	C6892	C	0.406764	0.315070	0.972379
	C6893	C	0.406622	0.190969	0.972366
	C6894	C	0.422057	0.191666	0.897095
	C6895	C	0.470926	0.191591	0.900822
	C6896	C	0.470899	0.315686	0.900855
	C6897	C	0.422117	0.315230	0.897093
	C6898	C	0.468390	0.253447	0.914420
	C6899	C	0.422835	0.043337	1.002329
	C6900	C	0.455411	0.043456	0.874068
	C6901	C	0.460394	0.962782	0.869763
	C6902	C	0.422830	0.962705	1.002352
	C6903	C	0.455454	0.962700	0.874048
	N6904	N	0.392585	0.070551	0.933656
	N6905	N	0.392623	0.936042	0.933658
	N6906	N	0.392580	0.436104	0.933624
	N6907	N	0.392612	0.570654	0.933601
	N6908	N	0.422502	0.436050	1.002033
	N6909	N	0.422511	0.570559	1.002008
	N6910	N	0.422485	0.070355	1.002065
	N6911	N	0.422470	0.935907	1.002092
	O6912	O	0.613134	0.694897	0.049536
	O6913	O	0.613366	0.811498	0.049485
	O6914	O	0.549960	0.694246	0.066347
	O6915	O	0.549790	0.811201	0.066457
	O6916	O	0.549674	0.194703	0.066418
	O6917	O	0.550134	0.311567	0.066292
	O6918	O	0.548418	0.694946	0.044185
	O6919	O	0.548567	0.811465	0.044210
	O6920	O	0.548409	0.194672	0.044193
	O6921	O	0.548536	0.311303	0.044148
	O6922	O	0.611884	0.694611	0.070340
	O6923	O	0.611967	0.811094	0.070304
	O6924	O	0.611836	0.194117	0.070307
	O6925	O	0.611980	0.310815	0.070321
	O6926	O	0.613442	0.194500	0.049469
	O6927	O	0.613232	0.311197	0.049518
	O6928	O	0.612337	0.693957	0.003905
	O6929	O	0.577035	0.694141	0.001679
	O6930	O	0.586177	0.695550	0.113553
	O6931	O	0.585798	0.812163	0.113460
	O6932	O	0.550916	0.693557	0.111989
	O6933	O	0.550292	0.810206	0.112055
	O6934	O	0.577151	0.810995	0.001695
	O6935	O	0.612440	0.810804	0.003832
	O6936	O	0.612585	0.195235	0.003868
	O6937	O	0.577016	0.194244	0.001664
	O6938	O	0.585980	0.194002	0.113508
	O6939	O	0.586254	0.310682	0.113542
	O6940	O	0.550364	0.195749	0.111952
	O6941	O	0.551056	0.312460	0.111917
	O6942	O	0.576964	0.311031	0.001679
	O6943	O	0.612268	0.312214	0.003869
	H6944	H	0.550597	0.642204	0.081050
	H6945	H	0.550082	0.862076	0.081094
	H6946	H	0.549907	0.144297	0.081031
	H6947	H	0.550812	0.363684	0.080939
	H6948	H	0.556617	0.862491	0.030326
	H6949	H	0.556320	0.643867	0.030321
	H6950	H	0.556665	0.362375	0.030319
	H6951	H	0.556443	0.142999	0.030300
	H6952	H	0.636385	0.064525	0.064981
	H6953	H	0.640724	0.065309	0.061525
	H6954	H	0.640869	0.941266	0.061571
	H6955	H	0.636402	0.941230	0.065036
	H6956	H	0.624382	0.064372	0.064594
	H6957	H	0.624428	0.940518	0.064596
	H6958	H	0.538317	0.064640	0.055928
	H6959	H	0.538531	0.940919	0.055944
	H6960	H	0.538278	0.065060	0.054051
	H6961	H	0.538403	0.941139	0.054044
	H6962	H	0.533522	0.064653	0.052586
	H6963	H	0.533571	0.940891	0.052610
	H6964	H	0.532481	0.440975	0.052999
	H6965	H	0.530237	0.441108	0.054140
	H6966	H	0.537056	0.441785	0.053645
	H6967	H	0.623322	0.441362	0.061254
	H6968	H	0.626447	0.441250	0.057653
	H6969	H	0.632543	0.441279	0.057479
	H6970	H	0.530243	0.564647	0.054154
	H6971	H	0.532533	0.564978	0.053035
	H6972	H	0.632521	0.564885	0.057500
	H6973	H	0.626506	0.564896	0.057679
	H6974	H	0.623290	0.564770	0.061237
	H6975	H	0.536991	0.564784	0.053689
	H6976	H	0.602897	0.643467	0.084143
	H6977	H	0.602806	0.862816	0.084015
	H6978	H	0.602532	0.142581	0.084032
	H6979	H	0.602868	0.362454	0.084082
	H6980	H	0.565524	0.643584	0.014862
	H6981	H	0.612681	0.642874	0.018565
	H6982	H	0.613052	0.862429	0.018467
	H6983	H	0.565818	0.862046	0.014878
	H6984	H	0.611179	0.642993	0.034848
	H6985	H	0.611531	0.862853	0.034733
	H6986	H	0.595161	0.643771	0.099816
	H6987	H	0.594986	0.863334	0.099706
	H6988	H	0.602811	0.440966	-0.003659
	H6989	H	0.554679	0.440894	0.125791
	H6990	H	0.591029	0.441216	-0.003746
	H6991	H	0.586384	0.441733	-0.007352
	H6992	H	0.579944	0.441221	0.127650
	H6993	H	0.569337	0.440966	0.130229
	H6994	H	0.554632	0.564998	0.125769
	H6995	H	0.602799	0.564392	-0.003677
	H6996	H	0.569273	0.564896	0.130268
	H6997	H	0.579989	0.564277	0.127684
	H6998	H	0.586416	0.564264	-0.007396
	H6999	H	0.591007	0.564518	-0.003750
	H7000	H	0.594903	0.142320	0.099760
	H7001	H	0.595309	0.362235	0.099801
	H7002	H	0.595715	0.064693	-0.010094
	H7003	H	0.592118	0.064750	-0.008982
	H7004	H	0.601132	0.064856	-0.008647
	H7005	H	0.548494	0.862037	0.097373
	H7006	H	0.549003	0.642096	0.097357
	H7007	H	0.549320	0.364130	0.097225
	H7008	H	0.548333	0.144661	0.097314
	H7009	H	0.565666	0.142958	0.014855
	H7010	H	0.613441	0.143657	0.018531
	H7011	H	0.612380	0.363366	0.018542
	H7012	H	0.565857	0.362079	0.014857
	H7013	H	0.611908	0.143111	0.034803
	H7014	H	0.610861	0.363199	0.034815
	H7015	H	0.567996	0.064785	0.116850
	H7016	H	0.557766	0.064582	0.118532
	H7017	H	0.555767	0.064480	0.125684
	H7018	H	0.592134	0.941060	-0.008999
	H7019	H	0.595744	0.941113	-0.010131
	H7020	H	0.601150	0.941410	-0.008662
	H7021	H	0.568124	0.941384	0.116876
	H7022	H	0.557865	0.941194	0.118579
	H7023	H	0.555916	0.941154	0.125678
	Zn7024	Zn	0.533943	0.680339	0.054860
	Zn7025	Zn	0.534028	0.825606	0.054942
	Zn7026	Zn	0.533810	0.180398	0.054847
	Zn7027	Zn	0.533984	0.325807	0.054857
	Zn7028	Zn	0.567943	0.680584	0.123219
	Zn7029	Zn	0.567591	0.825292	0.123182
	Zn7030	Zn	0.567493	0.180724	0.123138
	Zn7031	Zn	0.567899	0.325197	0.123193
	C7032	C	0.612167	0.753106	0.045686
	C7033	C	0.550494	0.752502	0.070223
	C7034	C	0.550724	0.752192	0.080091
	C7035	C	0.550190	0.689972	0.084686
	C7036	C	0.549911	0.814283	0.084711
	C7037	C	0.550532	0.253378	0.070182
	C7038	C	0.550759	0.253926	0.080029
	C7039	C	0.549860	0.191945	0.084645
	C7040	C	0.550360	0.316189	0.084587
	C7041	C	0.550744	0.753169	0.040610
	C7042	C	0.556239	0.753034	0.031311
	C7043	C	0.558600	0.814859	0.026893
	C7044	C	0.558440	0.691191	0.026888
	C7045	C	0.550742	0.252899	0.040597
	C7046	C	0.556284	0.252775	0.031305
	C7047	C	0.558651	0.314700	0.026885
	C7048	C	0.558534	0.190647	0.026882
	C7049	C	0.636438	0.043470	0.062602
	C7050	C	0.636466	0.962530	0.062608
	C7051	C	0.537244	0.043607	0.054974
	C7052	C	0.537339	0.962388	0.054979
	C7053	C	0.532466	0.043335	0.053537
	C7054	C	0.532488	0.962636	0.053548
	C7055	C	0.532108	0.462382	0.053909
	C7056	C	0.626529	0.462666	0.061980
	C7057	C	0.629727	0.462479	0.058394
	C7058	C	0.532108	0.543452	0.053926
	C7059	C	0.629743	0.543362	0.058409
	C7060	C	0.626551	0.543592	0.061983
	C7061	C	0.609076	0.752936	0.073816
	C7062	C	0.609077	0.252483	0.073805
	C7063	C	0.603167	0.753160	0.083072
	C7064	C	0.601110	0.691261	0.087586
	C7065	C	0.601047	0.815242	0.087522
	C7066	C	0.603244	0.252446	0.083102
	C7067	C	0.600969	0.190292	0.087549
	C7068	C	0.601161	0.314588	0.087575
	C7069	C	0.612234	0.252959	0.045677
	C7070	C	0.612983	0.752526	0.007705
	C7071	C	0.573648	0.752571	0.004990
	C7072	C	0.549484	0.751964	0.108210
	C7073	C	0.611547	0.690798	0.031225
	C7074	C	0.611758	0.814955	0.031160
	C7075	C	0.613256	0.752567	0.017554
	C7076	C	0.566251	0.752696	0.013944
	C7077	C	0.563457	0.691002	0.018295
	C7078	C	0.612513	0.690614	0.022190
	C7079	C	0.612720	0.814828	0.022130
	C7080	C	0.563609	0.814656	0.018298
	C7081	C	0.611191	0.752939	0.035808
	C7082	C	0.588834	0.753797	0.110014
	C7083	C	0.596927	0.691469	0.096314
	C7084	C	0.596850	0.815543	0.096253
	C7085	C	0.594790	0.753656	0.100749
	C7086	C	0.558115	0.462565	0.122952
	C7087	C	0.590816	0.462664	-0.006116
	C7088	C	0.572855	0.462613	0.127452
	C7089	C	0.558080	0.543328	0.122940
	C7090	C	0.572856	0.543393	0.127460
	C7091	C	0.590820	0.543155	-0.006124
	C7092	C	0.588994	0.252289	0.110040
	C7093	C	0.596807	0.190176	0.096281
	C7094	C	0.597019	0.314463	0.096310
	C7095	C	0.594951	0.252232	0.100781
	C7096	C	0.594684	0.043473	-0.009020
	C7097	C	0.613030	0.253750	0.007690
	C7098	C	0.573608	0.252585	0.004992
	C7099	C	0.549603	0.254125	0.108121
	C7100	C	0.611946	0.191064	0.031197
	C7101	C	0.611388	0.315438	0.031204
	C7102	C	0.613275	0.253608	0.017561
	C7103	C	0.566287	0.252613	0.013957
	C7104	C	0.548552	0.752027	0.098334
	C7105	C	0.548909	0.814338	0.093745
	C7106	C	0.549191	0.689840	0.093721
	C7107	C	0.548652	0.254300	0.098254
	C7108	C	0.549363	0.316336	0.093617
	C7109	C	0.548829	0.192151	0.093671
	C7110	C	0.563567	0.190562	0.018296
	C7111	C	0.612910	0.191315	0.022160
	C7112	C	0.612352	0.315580	0.022170
	C7113	C	0.563669	0.314657	0.018303
	C7114	C	0.611144	0.253197	0.035814
	C7115	C	0.564111	0.043478	0.119120
	C7116	C	0.600139	0.043302	-0.007600
	C7117	C	0.594658	0.962449	-0.009050
	C7118	C	0.564170	0.962564	0.119154
	C7119	C	0.600118	0.962498	-0.007611
	N7120	N	0.534090	0.070186	0.054884
	N7121	N	0.534184	0.935649	0.054910
	N7122	N	0.534079	0.435797	0.054840
	N7123	N	0.534071	0.570248	0.054874
	N7124	N	0.567900	0.435554	0.123238
	N7125	N	0.567905	0.570190	0.123218
	N7126	N	0.567479	0.070409	0.123130
	N7127	N	0.567528	0.935764	0.123146
	O7128	O	0.585612	0.694997	0.179971
	O7129	O	0.585446	0.811950	0.180049
	O7130	O	0.522529	0.696013	0.196851
	O7131	O	0.522141	0.812697	0.196865
	O7132	O	0.522018	0.193248	0.196920
	O7133	O	0.522500	0.310107	0.196946
	O7134	O	0.523931	0.695275	0.176120
	O7135	O	0.523509	0.811990	0.175997
	O7136	O	0.523346	0.193828	0.175977
	O7137	O	0.523905	0.310387	0.176213
	O7138	O	0.586927	0.695470	0.202132
	O7139	O	0.586912	0.811959	0.202169
	O7140	O	0.586776	0.194765	0.202183
	O7141	O	0.586700	0.311235	0.202167
	O7142	O	0.585565	0.194726	0.179959
	O7143	O	0.585737	0.311472	0.179899
	O7144	O	0.584950	0.696008	0.134382
	O7145	O	0.549513	0.693937	0.132882
	O7146	O	0.558692	0.694790	0.244754
	O7147	O	0.558882	0.811582	0.244750
	O7148	O	0.523567	0.695324	0.242453
	O7149	O	0.523513	0.812084	0.242515
	O7150	O	0.549177	0.810654	0.132795
	O7151	O	0.584535	0.812737	0.134423
	O7152	O	0.584636	0.193758	0.134345
	O7153	O	0.549338	0.195542	0.132854
	O7154	O	0.558801	0.194746	0.244788
	O7155	O	0.558773	0.311588	0.244772
	O7156	O	0.523328	0.194311	0.242599
	O7157	O	0.523490	0.311013	0.242537
	O7158	O	0.549662	0.312112	0.132963
	O7159	O	0.585227	0.310499	0.134333
	H7160	H	0.524714	0.644263	0.211510
	H7161	H	0.523997	0.864238	0.211572
	H7162	H	0.523959	0.141950	0.211648
	H7163	H	0.524596	0.361379	0.211643
	H7164	H	0.532232	0.863058	0.162195
	H7165	H	0.533090	0.643143	0.162446
	H7166	H	0.533336	0.362722	0.162513
	H7167	H	0.532144	0.143096	0.162173
	H7168	H	0.602706	0.064928	0.192377
	H7169	H	0.603487	0.065071	0.191569
	H7170	H	0.603484	0.941742	0.191539
	H7171	H	0.602735	0.941563	0.192327
	H7172	H	0.600146	0.064698	0.192360
	H7173	H	0.600252	0.941656	0.192326
	H7174	H	0.502287	0.064684	0.188321
	H7175	H	0.502266	0.941675	0.188367
	H7176	H	0.507743	0.064778	0.188511
	H7177	H	0.507715	0.940904	0.188480
	H7178	H	0.511387	0.064523	0.185541
	H7179	H	0.511462	0.941189	0.185529
	H7180	H	0.498673	0.441394	0.183890
	H7181	H	0.498385	0.441043	0.186905
	H7182	H	0.506457	0.440723	0.182268
	H7183	H	0.601715	0.441785	0.192650
	H7184	H	0.599163	0.441656	0.192012
	H7185	H	0.599021	0.441326	0.191075
	H7186	H	0.498444	0.564607	0.186837
	H7187	H	0.498756	0.564244	0.183879
	H7188	H	0.599050	0.565292	0.191068
	H7189	H	0.599203	0.564660	0.191954
	H7190	H	0.601664	0.565140	0.192583
	H7191	H	0.506520	0.564520	0.182284
	H7192	H	0.578835	0.644037	0.215981
	H7193	H	0.578720	0.862832	0.216031
	H7194	H	0.579077	0.143588	0.216078
	H7195	H	0.578706	0.362618	0.216024
	H7196	H	0.540671	0.642588	0.146718
	H7197	H	0.587327	0.644437	0.149082
	H7198	H	0.586113	0.864241	0.149108
	H7199	H	0.539915	0.862608	0.146524
	H7200	H	0.585819	0.644242	0.165360
	H7201	H	0.584627	0.863829	0.165373
	H7202	H	0.569816	0.643692	0.231478
	H7203	H	0.569659	0.862367	0.231512
	H7204	H	0.554502	0.441644	0.119893
	H7205	H	0.537426	0.441435	0.253539
	H7206	H	0.569129	0.441249	0.116339
	H7207	H	0.579842	0.440935	0.119567
	H7208	H	0.539350	0.441219	0.254992
	H7209	H	0.537790	0.441744	0.254708
	H7210	H	0.537418	0.564824	0.253573
	H7211	H	0.554559	0.564643	0.119896
	H7212	H	0.537769	0.564754	0.254688
	H7213	H	0.539385	0.564811	0.255031
	H7214	H	0.579881	0.564502	0.119571
	H7215	H	0.569180	0.564332	0.116294
	H7216	H	0.570103	0.143775	0.231592
	H7217	H	0.569787	0.362524	0.231511
	H7218	H	0.578573	0.064769	0.126812
	H7219	H	0.580072	0.064726	0.121647
	H7220	H	0.564633	0.064765	0.129176
	H7221	H	0.522446	0.863730	0.227865
	H7222	H	0.523171	0.643903	0.227774
	H7223	H	0.523120	0.361806	0.227913
	H7224	H	0.522492	0.142333	0.227957
	H7225	H	0.539763	0.143709	0.146485
	H7226	H	0.586430	0.142346	0.149046
	H7227	H	0.587175	0.361805	0.148995
	H7228	H	0.540995	0.363488	0.146815
	H7229	H	0.584813	0.142845	0.165330
	H7230	H	0.585537	0.362224	0.165268
	H7231	H	0.530840	0.064064	0.255015
	H7232	H	0.535761	0.064424	0.257778
	H7233	H	0.545516	0.064711	0.257162
	H7234	H	0.580032	0.941416	0.121660
	H7235	H	0.578677	0.941373	0.126883
	H7236	H	0.564651	0.941129	0.129182
	H7237	H	0.530944	0.940957	0.254967
	H7238	H	0.535711	0.940903	0.257707
	H7239	H	0.545570	0.941210	0.257157
	Zn7240	Zn	0.505431	0.680432	0.185723
	Zn7241	Zn	0.504955	0.825027	0.185611
	Zn7242	Zn	0.505040	0.180826	0.185652
	Zn7243	Zn	0.505500	0.325472	0.185808
	Zn7244	Zn	0.539248	0.680712	0.254063
	Zn7245	Zn	0.539332	0.825612	0.254047
	Zn7246	Zn	0.539304	0.180464	0.254055
	Zn7247	Zn	0.539294	0.325835	0.254057
	C7248	C	0.584904	0.753596	0.176185
	C7249	C	0.523458	0.754402	0.200663
	C7250	C	0.524484	0.754297	0.210533
	C7251	C	0.524221	0.692012	0.215117
	C7252	C	0.523830	0.816285	0.215172
	C7253	C	0.523381	0.251589	0.200744
	C7254	C	0.524337	0.251611	0.210636
	C7255	C	0.523756	0.189682	0.215270
	C7256	C	0.524111	0.313763	0.215257
	C7257	C	0.526595	0.753561	0.172577
	C7258	C	0.532434	0.753164	0.163294
	C7259	C	0.534202	0.815267	0.158766
	C7260	C	0.534668	0.690744	0.158898
	C7261	C	0.526524	0.252325	0.172600
	C7262	C	0.532462	0.252776	0.163338
	C7263	C	0.534837	0.315110	0.158957
	C7264	C	0.534194	0.190994	0.158764
	C7265	C	0.602571	0.043773	0.191855
	C7266	C	0.602591	0.962812	0.191826
	C7267	C	0.505002	0.043318	0.187680
	C7268	C	0.504981	0.962547	0.187686
	C7269	C	0.508693	0.043328	0.184697
	C7270	C	0.508698	0.962699	0.184690
	C7271	C	0.500336	0.462582	0.185514
	C7272	C	0.602070	0.462763	0.192147
	C7273	C	0.599597	0.462931	0.191552
	C7274	C	0.500385	0.543198	0.185477
	C7275	C	0.599643	0.543595	0.191512
	C7276	C	0.602062	0.543762	0.192126
	C7277	C	0.584697	0.753665	0.205747
	C7278	C	0.584528	0.252945	0.205765
	C7279	C	0.579198	0.753451	0.215034
	C7280	C	0.576841	0.691492	0.219437
	C7281	C	0.576806	0.815220	0.219463
	C7282	C	0.579272	0.252969	0.215091
	C7283	C	0.577088	0.191083	0.219521
	C7284	C	0.576935	0.315004	0.219491
	C7285	C	0.584975	0.252951	0.176101
	C7286	C	0.585854	0.754344	0.138213
	C7287	C	0.546518	0.752337	0.136321
	C7288	C	0.522835	0.753791	0.238645
	C7289	C	0.585770	0.691927	0.161724
	C7290	C	0.585121	0.816214	0.161743
	C7291	C	0.586877	0.754228	0.148088
	C7292	C	0.540659	0.752495	0.145606
	C7293	C	0.538776	0.690541	0.150154
	C7294	C	0.586792	0.692096	0.152695
	C7295	C	0.586118	0.816350	0.152708
	C7296	C	0.538313	0.814778	0.150026
	C7297	C	0.584751	0.753885	0.166325
	C7298	C	0.562147	0.753094	0.241423
	C7299	C	0.571895	0.691259	0.228043
	C7300	C	0.571854	0.815053	0.228067
	C7301	C	0.569304	0.753057	0.232416
	C7302	C	0.538343	0.462694	0.253528
	C7303	C	0.572762	0.462288	0.119352
	C7304	C	0.538705	0.462721	0.254673
	C7305	C	0.538332	0.543682	0.253539
	C7306	C	0.538697	0.543616	0.254666
	C7307	C	0.572774	0.543286	0.119338
	C7308	C	0.562186	0.253130	0.241469
	C7309	C	0.572206	0.191102	0.228137
	C7310	C	0.572051	0.315058	0.228100
	C7311	C	0.569502	0.253080	0.232480
	C7312	C	0.576241	0.043414	0.123942
	C7313	C	0.586033	0.252130	0.138153
	C7314	C	0.546654	0.253775	0.136399
	C7315	C	0.522717	0.252539	0.238739
	C7316	C	0.585318	0.190300	0.161687
	C7317	C	0.585683	0.314547	0.161646
	C7318	C	0.586978	0.252081	0.148025
	C7319	C	0.540862	0.253588	0.145676
	C7320	C	0.522454	0.753785	0.228785
	C7321	C	0.522913	0.816140	0.224213
	C7322	C	0.523295	0.691719	0.224157
	C7323	C	0.522350	0.252098	0.228900
	C7324	C	0.523184	0.314047	0.224292
	C7325	C	0.522832	0.189930	0.224311
	C7326	C	0.538390	0.191364	0.150041
	C7327	C	0.586330	0.190168	0.152655
	C7328	C	0.586706	0.314244	0.152616
	C7329	C	0.539036	0.315553	0.150230
	C7330	C	0.584822	0.252564	0.166257
	C7331	C	0.534824	0.043297	0.255771
	C7332	C	0.562139	0.043439	0.126290
	C7333	C	0.576242	0.962630	0.123957
	C7334	C	0.534842	0.962511	0.255752
	C7335	C	0.562172	0.962608	0.126300
	N7336	N	0.504970	0.070230	0.185627
	N7337	N	0.504954	0.935511	0.185620
	N7338	N	0.505437	0.435748	0.185809
	N7339	N	0.505429	0.570291	0.185761
	N7340	N	0.539229	0.435861	0.254039
	N7341	N	0.539185	0.570431	0.254052
	N7342	N	0.539132	0.070359	0.254078
	N7343	N	0.539198	0.935860	0.254051
	O7344	O	0.629449	0.694561	0.297455
	O7345	O	0.629330	0.810851	0.297386
	O7346	O	0.498212	0.695093	0.325920
	O7347	O	0.498388	0.811573	0.325779
	O7348	O	0.498337	0.195299	0.325774
	O7349	O	0.498328	0.311337	0.325816
	O7350	O	0.495818	0.694812	0.307178
	O7351	O	0.495982	0.811418	0.307204
	O7352	O	0.496130	0.195144	0.307217
	O7353	O	0.496062	0.311775	0.307212
	O7354	O	0.631682	0.694609	0.316046
	O7355	O	0.631679	0.811392	0.316052
	O7356	O	0.631447	0.194533	0.316035
	O7357	O	0.631533	0.311296	0.316062
	O7358	O	0.629387	0.194717	0.297408
	O7359	O	0.629300	0.311132	0.297455
	O7360	O	0.560869	0.694370	0.263447
	O7361	O	0.524569	0.695140	0.264696
	O7362	O	0.602871	0.694556	0.358506
	O7363	O	0.602953	0.811050	0.358485
	O7364	O	0.566714	0.695072	0.359903
	O7365	O	0.566871	0.811382	0.359818
	O7366	O	0.524853	0.811647	0.264773
	O7367	O	0.560957	0.810805	0.263414
	O7368	O	0.561051	0.194745	0.263371
	O7369	O	0.524738	0.194569	0.264723
	O7370	O	0.603136	0.194903	0.358563
	O7371	O	0.602879	0.311340	0.358517
	O7372	O	0.566746	0.195097	0.359883
	O7373	O	0.566486	0.311377	0.359951
	O7374	O	0.524546	0.310956	0.264645
	O7375	O	0.560951	0.311015	0.263399
	H7376	H	0.520247	0.644567	0.336735
	H7377	H	0.520560	0.862124	0.336586
	H7378	H	0.520796	0.145093	0.336529
	H7379	H	0.520181	0.361165	0.336754
	H7380	H	0.507628	0.862769	0.294093
	H7381	H	0.506833	0.643961	0.293930
	H7382	H	0.506995	0.362838	0.293929
	H7383	H	0.507601	0.144303	0.294074
	H7384	H	0.647487	0.064742	0.304179
	H7385	H	0.644886	0.064609	0.306316
	H7386	H	0.644870	0.941202	0.306370
	H7387	H	0.647334	0.941027	0.304181
	H7388	H	0.654647	0.064869	0.304394
	H7389	H	0.654632	0.941309	0.304370
	H7390	H	0.475031	0.064540	0.316004
	H7391	H	0.474976	0.941613	0.316055
	H7392	H	0.474783	0.064947	0.316628
	H7393	H	0.474798	0.941316	0.316677
	H7394	H	0.476207	0.064646	0.317277
	H7395	H	0.476223	0.941207	0.317314
	H7396	H	0.475489	0.441393	0.315643
	H7397	H	0.474423	0.441290	0.316254
	H7398	H	0.477936	0.441141	0.315817
	H7399	H	0.649242	0.441593	0.308481
	H7400	H	0.647066	0.441543	0.306318
	H7401	H	0.649078	0.441270	0.304890
	H7402	H	0.474487	0.564743	0.316234
	H7403	H	0.475606	0.564767	0.315669
	H7404	H	0.649140	0.565210	0.304947
	H7405	H	0.647136	0.564616	0.306313
	H7406	H	0.649395	0.564311	0.308484
	H7407	H	0.477842	0.564635	0.315863
	H7408	H	0.620074	0.643433	0.329194
	H7409	H	0.620661	0.862284	0.329274
	H7410	H	0.620651	0.143353	0.329317
	H7411	H	0.619877	0.362329	0.329152
	H7412	H	0.516246	0.643980	0.278522
	H7413	H	0.582737	0.643714	0.274322
	H7414	H	0.582998	0.861204	0.274183
	H7415	H	0.517029	0.862826	0.278669
	H7416	H	0.607070	0.643258	0.286650
	H7417	H	0.607318	0.861384	0.286499
	H7418	H	0.610757	0.643352	0.344612
	H7419	H	0.611328	0.862216	0.344718
	H7420	H	0.538780	0.441110	0.253084
	H7421	H	0.599287	0.441360	0.370579
	H7422	H	0.540981	0.441842	0.253569
	H7423	H	0.541219	0.441807	0.254406
	H7424	H	0.585088	0.441648	0.364150
	H7425	H	0.594166	0.441658	0.364906
	H7426	H	0.599356	0.565187	0.370613
	H7427	H	0.538770	0.564915	0.253114
	H7428	H	0.594217	0.564919	0.364873
	H7429	H	0.585013	0.565009	0.364142
	H7430	H	0.541226	0.564910	0.254402
	H7431	H	0.540888	0.565280	0.253552
	H7432	H	0.611555	0.143517	0.344783
	H7433	H	0.610723	0.362408	0.344630
	H7434	H	0.541338	0.064762	0.250128
	H7435	H	0.534134	0.064976	0.250560
	H7436	H	0.547844	0.064428	0.253909
	H7437	H	0.544952	0.861903	0.348872
	H7438	H	0.544610	0.644656	0.349018
	H7439	H	0.544393	0.361004	0.349117
	H7440	H	0.545027	0.145215	0.348860
	H7441	H	0.516797	0.143902	0.278620
	H7442	H	0.583260	0.144551	0.274167
	H7443	H	0.582948	0.361290	0.274284
	H7444	H	0.516255	0.362421	0.278466
	H7445	H	0.607589	0.144440	0.286465
	H7446	H	0.607280	0.361547	0.286603
	H7447	H	0.597035	0.064900	0.370348
	H7448	H	0.595367	0.065175	0.366865
	H7449	H	0.585697	0.065359	0.365105
	H7450	H	0.534135	0.941304	0.250532
	H7451	H	0.541384	0.941360	0.250129
	H7452	H	0.547924	0.941834	0.253870
	H7453	H	0.596953	0.941314	0.370378
	H7454	H	0.595386	0.941331	0.366894
	H7455	H	0.585650	0.941348	0.365103
	Zn7456	Zn	0.476513	0.680537	0.316557
	Zn7457	Zn	0.476496	0.825736	0.316537
	Zn7458	Zn	0.476602	0.180597	0.316496
	Zn7459	Zn	0.476590	0.325580	0.316521
	Zn7460	Zn	0.588430	0.680795	0.369233
	Zn7461	Zn	0.588428	0.825690	0.369211
	Zn7462	Zn	0.588385	0.180523	0.369218
	Zn7463	Zn	0.588341	0.325755	0.369178
	C7464	C	0.623576	0.752547	0.294640
	C7465	C	0.504101	0.753405	0.328624
	C7466	C	0.518965	0.753403	0.335911
	C7467	C	0.525745	0.691829	0.339422
	C7468	C	0.525929	0.814888	0.339350
	C7469	C	0.504182	0.253267	0.328563
	C7470	C	0.518966	0.253209	0.335905
	C7471	C	0.526001	0.192093	0.339340
	C7472	C	0.525649	0.314216	0.339477
	C7473	C	0.499302	0.753104	0.303870
	C7474	C	0.506676	0.753330	0.294929
	C7475	C	0.509630	0.815299	0.290630
	C7476	C	0.509222	0.691428	0.290545
	C7477	C	0.499535	0.253468	0.303904
	C7478	C	0.506876	0.253486	0.294947
	C7479	C	0.509346	0.315222	0.290541
	C7480	C	0.509681	0.191731	0.290625
	C7481	C	0.647507	0.043451	0.305657
	C7482	C	0.647460	0.962525	0.305654
	C7483	C	0.475259	0.043339	0.316361
	C7484	C	0.475237	0.962452	0.316387
	C7485	C	0.476720	0.043472	0.316984
	C7486	C	0.476693	0.962693	0.317006
	C7487	C	0.475335	0.462570	0.316092
	C7488	C	0.651149	0.462667	0.308124
	C7489	C	0.648962	0.462653	0.305912
	C7490	C	0.475357	0.543412	0.316102
	C7491	C	0.649001	0.543738	0.305912
	C7492	C	0.651219	0.543477	0.308102
	C7493	C	0.628249	0.752968	0.319362
	C7494	C	0.628095	0.252911	0.319361
	C7495	C	0.620773	0.752932	0.328290
	C7496	C	0.617933	0.690984	0.332615
	C7497	C	0.618250	0.814855	0.332658
	C7498	C	0.620789	0.252866	0.328330
	C7499	C	0.618315	0.190910	0.332709
	C7500	C	0.617883	0.314849	0.332629
	C7501	C	0.623549	0.252962	0.294657
	C7502	C	0.566687	0.752583	0.266213
	C7503	C	0.522453	0.753347	0.268326
	C7504	C	0.561007	0.753205	0.357055
	C7505	C	0.601784	0.690663	0.283862
	C7506	C	0.601928	0.813992	0.283774
	C7507	C	0.581513	0.752502	0.273535
	C7508	C	0.516863	0.753412	0.277606
	C7509	C	0.514307	0.691533	0.281973
	C7510	C	0.588281	0.690791	0.277033
	C7511	C	0.588419	0.814127	0.276955
	C7512	C	0.514727	0.815289	0.282056
	C7513	C	0.608780	0.752326	0.287298
	C7514	C	0.605132	0.752755	0.354907
	C7515	C	0.612826	0.690874	0.341187
	C7516	C	0.613152	0.814748	0.341233
	C7517	C	0.610566	0.752767	0.345608
	C7518	C	0.594495	0.462856	0.371474
	C7519	C	0.540563	0.462974	0.254015
	C7520	C	0.589363	0.462909	0.365766
	C7521	C	0.594529	0.543870	0.371497
	C7522	C	0.589417	0.543659	0.365760
	C7523	C	0.540553	0.543643	0.254022
	C7524	C	0.605294	0.253114	0.354956
	C7525	C	0.613331	0.191039	0.341302
	C7526	C	0.612883	0.314865	0.341221
	C7527	C	0.610801	0.253002	0.345674
	C7528	C	0.538102	0.043601	0.251317
	C7529	C	0.566863	0.252902	0.266154
	C7530	C	0.522435	0.252838	0.268292
	C7531	C	0.560846	0.253157	0.357122
	C7532	C	0.602100	0.191670	0.283771
	C7533	C	0.601919	0.314430	0.283831
	C7534	C	0.581662	0.252868	0.273483
	C7535	C	0.516933	0.253152	0.277583
	C7536	C	0.546209	0.753195	0.349711
	C7537	C	0.539456	0.814635	0.346170
	C7538	C	0.539262	0.691825	0.346247
	C7539	C	0.546081	0.253107	0.349772
	C7540	C	0.539083	0.314184	0.346338
	C7541	C	0.539460	0.192023	0.346193
	C7542	C	0.514677	0.191528	0.282030
	C7543	C	0.588623	0.191569	0.276933
	C7544	C	0.588440	0.314327	0.276993
	C7545	C	0.514346	0.315048	0.281941
	C7546	C	0.608845	0.253068	0.287297
	C7547	C	0.594155	0.043662	0.368776
	C7548	C	0.544695	0.043318	0.255141
	C7549	C	0.538130	0.962499	0.251306
	C7550	C	0.594167	0.962615	0.368774
	C7551	C	0.544702	0.962688	0.255142
	N7552	N	0.476323	0.070310	0.316462
	N7553	N	0.476259	0.935798	0.316520
	N7554	N	0.476479	0.435754	0.316545
	N7555	N	0.476448	0.570307	0.316535
	N7556	N	0.588581	0.436015	0.369211
	N7557	N	0.588610	0.570578	0.369214
	N7558	N	0.588440	0.070389	0.369214
	N7559	N	0.588428	0.935890	0.369217
	O7560	O	0.605112	0.695787	0.426314
	O7561	O	0.605433	0.812632	0.426389
	O7562	O	0.541987	0.694360	0.443216
	O7563	O	0.541986	0.811243	0.443246
	O7564	O	0.542016	0.194587	0.443232
	O7565	O	0.541843	0.311333	0.443275
	O7566	O	0.540495	0.694873	0.421000
	O7567	O	0.540557	0.811293	0.421055
	O7568	O	0.540781	0.194883	0.421099
	O7569	O	0.540509	0.311276	0.421022
	O7570	O	0.603695	0.696005	0.447089
	O7571	O	0.604174	0.812428	0.447230
	O7572	O	0.604157	0.193930	0.447242
	O7573	O	0.603915	0.310474	0.447163
	O7574	O	0.605580	0.193759	0.426315
	O7575	O	0.605038	0.310299	0.426296
	O7576	O	0.604273	0.694911	0.380794
	O7577	O	0.568880	0.694688	0.378490
	O7578	O	0.578330	0.694709	0.490401
	O7579	O	0.578093	0.811558	0.490390
	O7580	O	0.543001	0.694397	0.488834
	O7581	O	0.542753	0.811029	0.488899
	O7582	O	0.569099	0.811600	0.378530
	O7583	O	0.604335	0.811569	0.380676
	O7584	O	0.604428	0.194747	0.380650
	O7585	O	0.568986	0.194597	0.378496
	O7586	O	0.578273	0.194998	0.490454
	O7587	O	0.578015	0.311449	0.490383
	O7588	O	0.542797	0.194341	0.488896
	O7589	O	0.542718	0.311020	0.488884
	O7590	O	0.568822	0.311240	0.378505
	O7591	O	0.604248	0.311634	0.380696
	H7592	H	0.542541	0.642753	0.457892
	H7593	H	0.542124	0.862761	0.457933
	H7594	H	0.542694	0.142981	0.457931
	H7595	H	0.541988	0.362821	0.457911
	H7596	H	0.548897	0.862594	0.407253
	H7597	H	0.548366	0.643980	0.407164
	H7598	H	0.547989	0.361995	0.407077
	H7599	H	0.549098	0.143081	0.407267
	H7600	H	0.627401	0.064693	0.443500
	H7601	H	0.635026	0.064779	0.439930
	H7602	H	0.635013	0.941127	0.439946
	H7603	H	0.627530	0.940881	0.443521
	H7604	H	0.612728	0.064980	0.441388
	H7605	H	0.612726	0.940855	0.441388
	H7606	H	0.517392	0.064929	0.432717
	H7607	H	0.517410	0.941628	0.432704
	H7608	H	0.522470	0.064967	0.435625
	H7609	H	0.522493	0.941330	0.435655
	H7610	H	0.532776	0.064986	0.434925
	H7611	H	0.532735	0.941284	0.434940
	H7612	H	0.529916	0.441768	0.428207
	H7613	H	0.522915	0.441729	0.427958
	H7614	H	0.534535	0.441770	0.432434
	H7615	H	0.624520	0.441132	0.437375
	H7616	H	0.623396	0.441417	0.438583
	H7617	H	0.621333	0.441360	0.438620
	H7618	H	0.522812	0.564990	0.427928
	H7619	H	0.529872	0.565225	0.428245
	H7620	H	0.621295	0.564806	0.438611
	H7621	H	0.623357	0.564613	0.438529
	H7622	H	0.624413	0.564205	0.437335
	H7623	H	0.534478	0.564825	0.432460
	H7624	H	0.594574	0.643894	0.460881
	H7625	H	0.595066	0.863954	0.461019
	H7626	H	0.595528	0.142804	0.461102
	H7627	H	0.594303	0.362271	0.460856
	H7628	H	0.557514	0.643780	0.391694
	H7629	H	0.604382	0.644364	0.395435
	H7630	H	0.605342	0.863647	0.395346
	H7631	H	0.558090	0.862656	0.391791
	H7632	H	0.602899	0.644961	0.411707
	H7633	H	0.603862	0.864335	0.411642
	H7634	H	0.586964	0.643768	0.476559
	H7635	H	0.587395	0.863458	0.476726
	H7636	H	0.593819	0.441378	0.373942
	H7637	H	0.553989	0.441056	0.500477
	H7638	H	0.581288	0.441505	0.372890
	H7639	H	0.577570	0.441715	0.368752
	H7640	H	0.563914	0.441265	0.502325
	H7641	H	0.559049	0.441527	0.502870
	H7642	H	0.554021	0.564313	0.500478
	H7643	H	0.593891	0.564972	0.373980
	H7644	H	0.559124	0.564433	0.502879
	H7645	H	0.563952	0.564659	0.502352
	H7646	H	0.577616	0.565326	0.368695
	H7647	H	0.581315	0.564985	0.372933
	H7648	H	0.587843	0.143155	0.476787
	H7649	H	0.586636	0.362625	0.476532
	H7650	H	0.582517	0.064610	0.372125
	H7651	H	0.589512	0.064593	0.373438
	H7652	H	0.580273	0.064562	0.367345
	H7653	H	0.540607	0.862669	0.474218
	H7654	H	0.540998	0.642822	0.474163
	H7655	H	0.540416	0.362648	0.474188
	H7656	H	0.541074	0.143008	0.474192
	H7657	H	0.558135	0.143124	0.391771
	H7658	H	0.605511	0.142830	0.395323
	H7659	H	0.604178	0.362344	0.395323
	H7660	H	0.556977	0.361968	0.391598
	H7661	H	0.604094	0.142260	0.411591
	H7662	H	0.602710	0.361798	0.411596
	H7663	H	0.564831	0.064363	0.502020
	H7664	H	0.566046	0.064354	0.499628
	H7665	H	0.560742	0.064784	0.497125
	H7666	H	0.589526	0.941334	0.373416
	H7667	H	0.582504	0.941988	0.372111
	H7668	H	0.580281	0.941369	0.367387
	H7669	H	0.564931	0.940874	0.502016
	H7670	H	0.565965	0.941038	0.499611
	H7671	H	0.560727	0.941035	0.497148
	Zn7672	Zn	0.526019	0.680666	0.431714
	Zn7673	Zn	0.525966	0.826099	0.431727
	Zn7674	Zn	0.525998	0.180646	0.431688
	Zn7675	Zn	0.526118	0.325887	0.431717
	Zn7676	Zn	0.559984	0.680527	0.500067
	Zn7677	Zn	0.559811	0.825641	0.500061
	Zn7678	Zn	0.559950	0.180361	0.500093
	Zn7679	Zn	0.559784	0.325644	0.500104
	C7680	C	0.604143	0.754426	0.422550
	C7681	C	0.542585	0.752744	0.447053
	C7682	C	0.542809	0.752765	0.456912
	C7683	C	0.542199	0.690591	0.461503
	C7684	C	0.541987	0.814874	0.461544
	C7685	C	0.542544	0.252854	0.447083
	C7686	C	0.542732	0.252843	0.456935
	C7687	C	0.542267	0.190744	0.461542
	C7688	C	0.541864	0.315005	0.461534
	C7689	C	0.542815	0.753179	0.417447
	C7690	C	0.548344	0.753313	0.408165
	C7691	C	0.550794	0.815166	0.403788
	C7692	C	0.550492	0.691389	0.403731
	C7693	C	0.542805	0.252983	0.417457
	C7694	C	0.548183	0.252595	0.408144
	C7695	C	0.550193	0.314409	0.403678
	C7696	C	0.550816	0.190660	0.403778
	C7697	C	0.628931	0.043326	0.440631
	C7698	C	0.628938	0.962447	0.440628
	C7699	C	0.521600	0.043664	0.433552
	C7700	C	0.521579	0.962917	0.433555
	C7701	C	0.531921	0.043679	0.432852
	C7702	C	0.531903	0.962830	0.432857
	C7703	C	0.526411	0.462893	0.429034
	C7704	C	0.623394	0.462391	0.437089
	C7705	C	0.622264	0.462444	0.438298
	C7706	C	0.526373	0.543781	0.429042
	C7707	C	0.622269	0.543244	0.438297
	C7708	C	0.623344	0.543115	0.437093
	C7709	C	0.601075	0.754138	0.450671
	C7710	C	0.601182	0.252236	0.450703
	C7711	C	0.595168	0.753978	0.459935
	C7712	C	0.592985	0.691768	0.464383
	C7713	C	0.593262	0.815977	0.464472
	C7714	C	0.595302	0.252396	0.459962
	C7715	C	0.593471	0.190620	0.464509
	C7716	C	0.592816	0.314539	0.464379
	C7717	C	0.604229	0.251954	0.422472
	C7718	C	0.604961	0.753485	0.384575
	C7719	C	0.565657	0.753171	0.381830
	C7720	C	0.541782	0.752823	0.485042
	C7721	C	0.603293	0.692467	0.408068
	C7722	C	0.603873	0.816564	0.408030
	C7723	C	0.605211	0.753971	0.394428
	C7724	C	0.558336	0.753314	0.390805
	C7725	C	0.555498	0.691367	0.395135
	C7726	C	0.604298	0.692120	0.399040
	C7727	C	0.604852	0.816228	0.398995
	C7728	C	0.555814	0.815193	0.395199
	C7729	C	0.603118	0.754629	0.412667
	C7730	C	0.581021	0.753216	0.486909
	C7731	C	0.588841	0.691579	0.473119
	C7732	C	0.589097	0.815680	0.473212
	C7733	C	0.586950	0.753446	0.477653
	C7734	C	0.555965	0.462448	0.499513
	C7735	C	0.581875	0.462883	0.370411
	C7736	C	0.561064	0.462625	0.501919
	C7737	C	0.555993	0.543363	0.499509
	C7738	C	0.561119	0.543249	0.501934
	C7739	C	0.581876	0.543690	0.370422
	C7740	C	0.580975	0.253176	0.486902
	C7741	C	0.589328	0.190819	0.473241
	C7742	C	0.588647	0.314771	0.473107
	C7743	C	0.586913	0.252884	0.477645
	C7744	C	0.586690	0.043440	0.371828
	C7745	C	0.605027	0.253095	0.384495
	C7746	C	0.565447	0.252816	0.381811
	C7747	C	0.541628	0.252709	0.485071
	C7748	C	0.603984	0.190102	0.407983
	C7749	C	0.603259	0.314162	0.407979
	C7750	C	0.605296	0.252625	0.394345
	C7751	C	0.558086	0.252569	0.390771
	C7752	C	0.540694	0.752693	0.475165
	C7753	C	0.541023	0.814942	0.470580
	C7754	C	0.541242	0.690546	0.470541
	C7755	C	0.540597	0.252764	0.475187
	C7756	C	0.540875	0.315001	0.470570
	C7757	C	0.541262	0.190724	0.470571
	C7758	C	0.555757	0.190616	0.395173
	C7759	C	0.604977	0.190424	0.398950
	C7760	C	0.604238	0.314488	0.398949
	C7761	C	0.555135	0.314462	0.395075
	C7762	C	0.603195	0.252034	0.412602
	C7763	C	0.564013	0.043194	0.500610
	C7764	C	0.584466	0.043711	0.367015
	C7765	C	0.586697	0.962837	0.371816
	C7766	C	0.564009	0.962415	0.500613
	C7767	C	0.584472	0.962681	0.367009
	N7768	N	0.526143	0.070580	0.431748
	N7769	N	0.526122	0.936074	0.431745
	N7770	N	0.526286	0.435837	0.431708
	N7771	N	0.526256	0.570349	0.431721
	N7772	N	0.559882	0.435521	0.500063
	N7773	N	0.559943	0.570025	0.500069
	N7774	N	0.559928	0.070122	0.500049
	N7775	N	0.559893	0.935698	0.500062
	O7776	O	0.577918	0.694207	0.556902
	O7777	O	0.577991	0.811074	0.556934
	O7778	O	0.514084	0.693611	0.573749
	O7779	O	0.514412	0.810456	0.573725
	O7780	O	0.514530	0.195975	0.573683
	O7781	O	0.514166	0.312677	0.573697
	O7782	O	0.515548	0.693791	0.552926
	O7783	O	0.515970	0.810164	0.552996
	O7784	O	0.515911	0.195707	0.553003
	O7785	O	0.515482	0.312205	0.552890
	O7786	O	0.579422	0.694216	0.579116
	O7787	O	0.579381	0.810585	0.579125
	O7788	O	0.579340	0.194918	0.579120
	O7789	O	0.579274	0.311482	0.579133
	O7790	O	0.577835	0.195117	0.556925
	O7791	O	0.577961	0.311639	0.556926
	O7792	O	0.576811	0.694344	0.511254
	O7793	O	0.541254	0.694435	0.509597
	O7794	O	0.550424	0.693965	0.621529
	O7795	O	0.550456	0.810807	0.621563
	O7796	O	0.515059	0.694393	0.619357
	O7797	O	0.515179	0.810989	0.619314
	O7798	O	0.541628	0.811102	0.509746
	O7799	O	0.576964	0.811079	0.511263
	O7800	O	0.576868	0.194603	0.511311
	O7801	O	0.541608	0.194895	0.509734
	O7802	O	0.550453	0.194505	0.621542
	O7803	O	0.550549	0.311235	0.621563
	O7804	O	0.515213	0.194954	0.619275
	O7805	O	0.515090	0.311587	0.619355
	O7806	O	0.541456	0.311448	0.509725
	O7807	O	0.576759	0.311235	0.511278
	H7808	H	0.516125	0.642457	0.588433
	H7809	H	0.516420	0.861964	0.588342
	H7810	H	0.517169	0.144411	0.588349
	H7811	H	0.515471	0.364110	0.588387
	H7812	H	0.525261	0.861654	0.539262
	H7813	H	0.524311	0.642014	0.539078
	H7814	H	0.524841	0.363481	0.539144
	H7815	H	0.524749	0.144070	0.539216
	H7816	H	0.598056	0.064315	0.569789
	H7817	H	0.598476	0.064085	0.567750
	H7818	H	0.598478	0.940915	0.567768
	H7819	H	0.598108	0.941300	0.569841
	H7820	H	0.592725	0.064243	0.570749
	H7821	H	0.592910	0.941203	0.570769
	H7822	H	0.485162	0.064989	0.559435
	H7823	H	0.485129	0.940964	0.559410
	H7824	H	0.485249	0.064774	0.564862
	H7825	H	0.485127	0.941371	0.564869
	H7826	H	0.498744	0.064524	0.568997
	H7827	H	0.498740	0.941375	0.569001
	H7828	H	0.508858	0.441203	0.563938
	H7829	H	0.506321	0.441356	0.559135
	H7830	H	0.498910	0.441040	0.568291
	H7831	H	0.589639	0.440960	0.570535
	H7832	H	0.588041	0.440435	0.567152
	H7833	H	0.591871	0.440918	0.565601
	H7834	H	0.506397	0.564796	0.559154
	H7835	H	0.508897	0.564835	0.563953
	H7836	H	0.591960	0.564305	0.565555
	H7837	H	0.588012	0.564242	0.567086
	H7838	H	0.589624	0.563721	0.570468
	H7839	H	0.498983	0.564823	0.568326
	H7840	H	0.571075	0.643078	0.592898
	H7841	H	0.571365	0.861390	0.592971
	H7842	H	0.571283	0.143659	0.592928
	H7843	H	0.571115	0.362223	0.592938
	H7844	H	0.531898	0.642244	0.523362
	H7845	H	0.578826	0.643232	0.525918
	H7846	H	0.578958	0.863093	0.525949
	H7847	H	0.532849	0.861830	0.523543
	H7848	H	0.577368	0.643308	0.542191
	H7849	H	0.577495	0.862842	0.542256
	H7850	H	0.561694	0.642969	0.608336
	H7851	H	0.561951	0.861425	0.608406
	H7852	H	0.555059	0.441362	0.498163
	H7853	H	0.531495	0.441081	0.629678
	H7854	H	0.561716	0.441227	0.497361
	H7855	H	0.565474	0.441136	0.499134
	H7856	H	0.528225	0.441350	0.631126
	H7857	H	0.528533	0.440993	0.630063
	H7858	H	0.531413	0.564837	0.629678
	H7859	H	0.555130	0.564652	0.498153
	H7860	H	0.528576	0.564541	0.630122
	H7861	H	0.528247	0.564225	0.631139
	H7862	H	0.565517	0.564762	0.499151
	H7863	H	0.561793	0.564520	0.497370
	H7864	H	0.561919	0.143524	0.608379
	H7865	H	0.561775	0.362237	0.608353
	H7866	H	0.554187	0.064413	0.501007
	H7867	H	0.558058	0.064540	0.502836
	H7868	H	0.555691	0.064536	0.497753
	H7869	H	0.514879	0.862247	0.604651
	H7870	H	0.514581	0.642685	0.604673
	H7871	H	0.513960	0.363484	0.604699
	H7872	H	0.515559	0.143887	0.604600
	H7873	H	0.532362	0.143562	0.523532
	H7874	H	0.578710	0.143679	0.525976
	H7875	H	0.578901	0.363134	0.525954
	H7876	H	0.532515	0.362973	0.523446
	H7877	H	0.577180	0.143928	0.542261
	H7878	H	0.577372	0.363227	0.542251
	H7879	H	0.527030	0.064429	0.631739
	H7880	H	0.529970	0.064474	0.632820
	H7881	H	0.534520	0.064573	0.632001
	H7882	H	0.558064	0.941156	0.502853
	H7883	H	0.554150	0.941250	0.501030
	H7884	H	0.555706	0.941061	0.497689
	H7885	H	0.526991	0.941091	0.631717
	H7886	H	0.529997	0.941063	0.632815
	H7887	H	0.534550	0.941539	0.631977
	Zn7888	Zn	0.497035	0.680591	0.562531
	Zn7889	Zn	0.497490	0.825238	0.562554
	Zn7890	Zn	0.497485	0.180522	0.562575
	Zn7891	Zn	0.496953	0.325152	0.562508
	Zn7892	Zn	0.530914	0.680207	0.630854
	Zn7893	Zn	0.530963	0.825355	0.630830
	Zn7894	Zn	0.530946	0.180240	0.630833
	Zn7895	Zn	0.530997	0.325422	0.630863
	C7896	C	0.577344	0.752735	0.553083
	C7897	C	0.515359	0.752053	0.577546
	C7898	C	0.516411	0.752265	0.587416
	C7899	C	0.515891	0.690208	0.592033
	C7900	C	0.516072	0.814408	0.592002
	C7901	C	0.515468	0.254358	0.577507
	C7902	C	0.516478	0.254337	0.587390
	C7903	C	0.516474	0.192041	0.591976
	C7904	C	0.515572	0.316342	0.592018
	C7905	C	0.518583	0.751931	0.549442
	C7906	C	0.524515	0.751882	0.540170
	C7907	C	0.526789	0.813946	0.535733
	C7908	C	0.526276	0.689841	0.535629
	C7909	C	0.518515	0.253906	0.549442
	C7910	C	0.524376	0.253741	0.540171
	C7911	C	0.526522	0.315641	0.535676
	C7912	C	0.526448	0.191657	0.535716
	C7913	C	0.597014	0.043034	0.568682
	C7914	C	0.597061	0.962351	0.568690
	C7915	C	0.488390	0.043489	0.562242
	C7916	C	0.488392	0.962479	0.562244
	C7917	C	0.502052	0.043418	0.566391
	C7918	C	0.502051	0.962497	0.566399
	C7919	C	0.504792	0.462639	0.561795
	C7920	C	0.592481	0.462415	0.570315
	C7921	C	0.590953	0.462023	0.566919
	C7922	C	0.504817	0.543410	0.561801
	C7923	C	0.590959	0.543127	0.566889
	C7924	C	0.592517	0.543020	0.570268
	C7925	C	0.577124	0.752393	0.582713
	C7926	C	0.577018	0.253170	0.582698
	C7927	C	0.571561	0.752278	0.591992
	C7928	C	0.569083	0.690412	0.596361
	C7929	C	0.569248	0.814009	0.596408
	C7930	C	0.571434	0.252934	0.591975
	C7931	C	0.569137	0.191040	0.596373
	C7932	C	0.569073	0.314778	0.596371
	C7933	C	0.577262	0.253383	0.553084
	C7934	C	0.578003	0.752728	0.515079
	C7935	C	0.538630	0.752605	0.513174
	C7936	C	0.514491	0.752655	0.615493
	C7937	C	0.577622	0.691107	0.538572
	C7938	C	0.577685	0.815206	0.538607
	C7939	C	0.579063	0.753156	0.524933
	C7940	C	0.532684	0.752178	0.522438
	C7941	C	0.530383	0.690034	0.526885
	C7942	C	0.578571	0.691029	0.529536
	C7943	C	0.578622	0.815296	0.529567
	C7944	C	0.530886	0.814045	0.526992
	C7945	C	0.577019	0.753118	0.543205
	C7946	C	0.553884	0.752394	0.618254
	C7947	C	0.563976	0.690384	0.604938
	C7948	C	0.564127	0.814047	0.604976
	C7949	C	0.561329	0.752257	0.609311
	C7950	C	0.531894	0.462355	0.630259
	C7951	C	0.562595	0.462470	0.498734
	C7952	C	0.528979	0.462507	0.630663
	C7953	C	0.531859	0.543299	0.630267
	C7954	C	0.528979	0.543215	0.630691
	C7955	C	0.562648	0.543285	0.498740
	C7956	C	0.553895	0.252843	0.618234
	C7957	C	0.564040	0.190955	0.604945
	C7958	C	0.563983	0.314771	0.604943
	C7959	C	0.561254	0.252848	0.609282
	C7960	C	0.557134	0.043124	0.501438
	C7961	C	0.577955	0.253017	0.515106
	C7962	C	0.538668	0.253087	0.513223
	C7963	C	0.514565	0.253414	0.615480
	C7964	C	0.577563	0.191452	0.538628
	C7965	C	0.577684	0.315566	0.538622
	C7966	C	0.579032	0.253407	0.524979
	C7967	C	0.532716	0.253122	0.522482
	C7968	C	0.514257	0.752552	0.605645
	C7969	C	0.515070	0.814491	0.601033
	C7970	C	0.514887	0.690394	0.601059
	C7971	C	0.514370	0.253651	0.605636
	C7972	C	0.514598	0.315961	0.601053
	C7973	C	0.515485	0.191822	0.601003
	C7974	C	0.530600	0.191316	0.526986
	C7975	C	0.578532	0.191446	0.529596
	C7976	C	0.578632	0.315474	0.529586
	C7977	C	0.530690	0.315384	0.526941
	C7978	C	0.577004	0.253503	0.543232
	C7979	C	0.529047	0.043312	0.631891
	C7980	C	0.558675	0.043323	0.498109
	C7981	C	0.557101	0.962528	0.501444
	C7982	C	0.529077	0.962346	0.631896
	C7983	C	0.558661	0.962261	0.498117
	N7984	N	0.497450	0.070343	0.562520
	N7985	N	0.497446	0.935760	0.562521
	N7986	N	0.496899	0.435677	0.562504
	N7987	N	0.496935	0.570259	0.562529
	N7988	N	0.530745	0.435550	0.630886
	N7989	N	0.530722	0.570083	0.630883
	N7990	N	0.530792	0.070083	0.630819
	N7991	N	0.530790	0.935497	0.630811
	O7992	O	0.620691	0.694593	0.674386
	O7993	O	0.620754	0.810995	0.674348
	O7994	O	0.490343	0.695180	0.702693
	O7995	O	0.490319	0.811609	0.702680
	O7996	O	0.490397	0.194894	0.702678
	O7997	O	0.490443	0.311041	0.702711
	O7998	O	0.488263	0.694855	0.684115
	O7999	O	0.487988	0.811667	0.684024
	O8000	O	0.488224	0.194962	0.684068
	O8001	O	0.488281	0.311482	0.684080
	O8002	O	0.623119	0.694409	0.693026
	O8003	O	0.623164	0.811080	0.692997
	O8004	O	0.623141	0.193988	0.692998
	O8005	O	0.623051	0.310691	0.693003
	O8006	O	0.620800	0.194363	0.674283
	O8007	O	0.620688	0.310588	0.674347
	O8008	O	0.552712	0.694630	0.640147
	O8009	O	0.516511	0.694888	0.641573
	O8010	O	0.594699	0.694355	0.735528
	O8011	O	0.594662	0.810591	0.735516
	O8012	O	0.558280	0.695228	0.736954
	O8013	O	0.558566	0.811316	0.736859
	O8014	O	0.516508	0.811268	0.641556
	O8015	O	0.552738	0.810794	0.640143
	O8016	O	0.552760	0.194209	0.640134
	O8017	O	0.516380	0.194631	0.641523
	O8018	O	0.594635	0.194621	0.735481
	O8019	O	0.594694	0.311183	0.735474
	O8020	O	0.558362	0.194409	0.736925
	O8021	O	0.558437	0.310806	0.736898
	O8022	O	0.516460	0.311133	0.641555
	O8023	O	0.552678	0.310450	0.640153
	H8024	H	0.512367	0.645146	0.713602
	H8025	H	0.512384	0.861907	0.713559
	H8026	H	0.512287	0.144190	0.713601
	H8027	H	0.512317	0.361484	0.713680
	H8028	H	0.499284	0.862604	0.670848
	H8029	H	0.499701	0.643793	0.670962
	H8030	H	0.499657	0.362631	0.670910
	H8031	H	0.499552	0.143964	0.670888
	H8032	H	0.646092	0.064530	0.684359
	H8033	H	0.645800	0.064541	0.682886
	H8034	H	0.645735	0.941133	0.682929
	H8035	H	0.646080	0.941203	0.684348
	H8036	H	0.642669	0.064190	0.685471
	H8037	H	0.642659	0.941197	0.685416
	H8038	H	0.472765	0.064637	0.692564
	H8039	H	0.472665	0.941596	0.692567
	H8040	H	0.469747	0.064915	0.691256
	H8041	H	0.469752	0.941380	0.691301
	H8042	H	0.464853	0.065008	0.691978
	H8043	H	0.464842	0.941248	0.692028
	H8044	H	0.463576	0.441702	0.695716
	H8045	H	0.469290	0.441642	0.696803
	H8046	H	0.461999	0.441158	0.691741
	H8047	H	0.642482	0.440858	0.685475
	H8048	H	0.638830	0.441057	0.684183
	H8049	H	0.639116	0.441325	0.682638
	H8050	H	0.469289	0.564994	0.696828
	H8051	H	0.463558	0.565373	0.695679
	H8052	H	0.639157	0.564432	0.682639
	H8053	H	0.638884	0.564665	0.684201
	H8054	H	0.642521	0.564184	0.685464
	H8055	H	0.462095	0.564777	0.691737
	H8056	H	0.611798	0.643176	0.706174
	H8057	H	0.611700	0.862460	0.706205
	H8058	H	0.611656	0.143048	0.706163
	H8059	H	0.611955	0.361838	0.706154
	H8060	H	0.508889	0.643654	0.655487
	H8061	H	0.574708	0.644676	0.651024
	H8062	H	0.574843	0.860753	0.651014
	H8063	H	0.508428	0.862553	0.655377
	H8064	H	0.598924	0.644565	0.663402
	H8065	H	0.599012	0.860744	0.663385
	H8066	H	0.602641	0.643014	0.721647
	H8067	H	0.602517	0.862039	0.721671
	H8068	H	0.533199	0.441006	0.630465
	H8069	H	0.571458	0.441318	0.746413
	H8070	H	0.532670	0.441224	0.631854
	H8071	H	0.530553	0.440885	0.632175
	H8072	H	0.585298	0.440851	0.749727
	H8073	H	0.578075	0.441063	0.750182
	H8074	H	0.571407	0.564557	0.746393
	H8075	H	0.533162	0.564619	0.630422
	H8076	H	0.578039	0.564412	0.750167
	H8077	H	0.585245	0.564803	0.749739
	H8078	H	0.530553	0.564293	0.632164
	H8079	H	0.532656	0.564662	0.631835
	H8080	H	0.602559	0.143283	0.721617
	H8081	H	0.602931	0.361976	0.721650
	H8082	H	0.530861	0.064894	0.628774
	H8083	H	0.527528	0.064374	0.629368
	H8084	H	0.534914	0.064554	0.630279
	H8085	H	0.536636	0.861926	0.725908
	H8086	H	0.536634	0.645314	0.725948
	H8087	H	0.536439	0.361136	0.726039
	H8088	H	0.536481	0.144180	0.725977
	H8089	H	0.508680	0.143814	0.655416
	H8090	H	0.574664	0.143770	0.651060
	H8091	H	0.574751	0.360771	0.650990
	H8092	H	0.508716	0.362556	0.655432
	H8093	H	0.598854	0.144064	0.663415
	H8094	H	0.598929	0.360733	0.663357
	H8095	H	0.574865	0.064353	0.741634
	H8096	H	0.569957	0.064372	0.745082
	H8097	H	0.575214	0.064151	0.750464
	H8098	H	0.527501	0.941131	0.629346
	H8099	H	0.530938	0.941225	0.628761
	H8100	H	0.534937	0.941432	0.630264
	H8101	H	0.574882	0.941151	0.741695
	H8102	H	0.569856	0.941483	0.745081
	H8103	H	0.575214	0.941207	0.750440
	Zn8104	Zn	0.468730	0.680560	0.693375
	Zn8105	Zn	0.468606	0.825602	0.693346
	Zn8106	Zn	0.468707	0.180489	0.693359
	Zn8107	Zn	0.468701	0.325608	0.693353
	Zn8108	Zn	0.580091	0.680266	0.746187
	Zn8109	Zn	0.580257	0.825281	0.746233
	Zn8110	Zn	0.580288	0.180315	0.746188
	Zn8111	Zn	0.580270	0.325394	0.746194
	C8112	C	0.614969	0.752822	0.671569
	C8113	C	0.496137	0.753445	0.705473
	C8114	C	0.510880	0.753493	0.712843
	C8115	C	0.517725	0.692287	0.716351
	C8116	C	0.517737	0.814805	0.716330
	C8117	C	0.496216	0.252909	0.705488
	C8118	C	0.510948	0.252776	0.712831
	C8119	C	0.517735	0.191345	0.716328
	C8120	C	0.517733	0.314111	0.716366
	C8121	C	0.491523	0.753208	0.680757
	C8122	C	0.498852	0.753175	0.671789
	C8123	C	0.501453	0.815056	0.667421
	C8124	C	0.501688	0.691267	0.667480
	C8125	C	0.491716	0.253192	0.680763
	C8126	C	0.499062	0.253146	0.671810
	C8127	C	0.501741	0.315113	0.667467
	C8128	C	0.501721	0.191314	0.667451
	C8129	C	0.645124	0.043200	0.683652
	C8130	C	0.645103	0.962307	0.683643
	C8131	C	0.470516	0.043384	0.692282
	C8132	C	0.470478	0.962877	0.692296
	C8133	C	0.465570	0.043292	0.693001
	C8134	C	0.465550	0.962542	0.693015
	C8135	C	0.466930	0.462868	0.695505
	C8136	C	0.643558	0.462248	0.684785
	C8137	C	0.639917	0.462216	0.683487
	C8138	C	0.466934	0.543687	0.695498
	C8139	C	0.639965	0.543033	0.683485
	C8140	C	0.643609	0.543189	0.684784
	C8141	C	0.619738	0.752828	0.696324
	C8142	C	0.619725	0.252322	0.696317
	C8143	C	0.612360	0.752912	0.705274
	C8144	C	0.609675	0.690768	0.709615
	C8145	C	0.609603	0.814773	0.709626
	C8146	C	0.612332	0.252535	0.705251
	C8147	C	0.609587	0.190531	0.709592
	C8148	C	0.609729	0.314471	0.709594
	C8149	C	0.614961	0.252493	0.671522
	C8150	C	0.558534	0.752720	0.642923
	C8151	C	0.514310	0.753092	0.645157
	C8152	C	0.552657	0.753401	0.734099
	C8153	C	0.593507	0.691542	0.660657
	C8154	C	0.593570	0.813874	0.660651
	C8155	C	0.573279	0.752760	0.650279
	C8156	C	0.508829	0.753128	0.654437
	C8157	C	0.506689	0.691282	0.658889
	C8158	C	0.580086	0.691551	0.653785
	C8159	C	0.580166	0.813872	0.653778
	C8160	C	0.506448	0.815044	0.658826
	C8161	C	0.600300	0.752717	0.664168
	C8162	C	0.596904	0.752491	0.731926
	C8163	C	0.604681	0.690623	0.718213
	C8164	C	0.604597	0.814514	0.718222
	C8165	C	0.602362	0.752565	0.722631
	C8166	C	0.574643	0.462326	0.745143
	C8167	C	0.531350	0.462267	0.631712
	C8168	C	0.581330	0.462440	0.748967
	C8169	C	0.574631	0.543231	0.745140
	C8170	C	0.581281	0.543404	0.748968
	C8171	C	0.531342	0.543179	0.631717
	C8172	C	0.596930	0.252853	0.731898
	C8173	C	0.604568	0.190744	0.718183
	C8174	C	0.604726	0.314541	0.718186
	C8175	C	0.602333	0.252742	0.722594
	C8176	C	0.529579	0.043304	0.629524
	C8177	C	0.558524	0.252335	0.642930
	C8178	C	0.514271	0.252870	0.645145
	C8179	C	0.552604	0.252605	0.734118
	C8180	C	0.593446	0.191123	0.660659
	C8181	C	0.593467	0.313732	0.660630
	C8182	C	0.573217	0.252295	0.650295
	C8183	C	0.508954	0.253053	0.654447
	C8184	C	0.537938	0.753567	0.726728
	C8185	C	0.531172	0.814901	0.723189
	C8186	C	0.531153	0.692314	0.723214
	C8187	C	0.537928	0.252610	0.726732
	C8188	C	0.531097	0.314057	0.723252
	C8189	C	0.531101	0.191244	0.723215
	C8190	C	0.506657	0.191275	0.658854
	C8191	C	0.580024	0.190985	0.653800
	C8192	C	0.580055	0.313657	0.653772
	C8193	C	0.506661	0.315069	0.658863
	C8194	C	0.600244	0.252471	0.664158
	C8195	C	0.574541	0.043227	0.744122
	C8196	C	0.533638	0.043263	0.631049
	C8197	C	0.529600	0.962379	0.629514
	C8198	C	0.574547	0.962350	0.744137
	C8199	C	0.533661	0.962624	0.631049
	N8200	N	0.468584	0.070375	0.693331
	N8201	N	0.468563	0.935822	0.693345
	N8202	N	0.468524	0.435685	0.693362
	N8203	N	0.468548	0.570248	0.693378
	N8204	N	0.580216	0.435539	0.746213
	N8205	N	0.580170	0.570101	0.746214
	N8206	N	0.580456	0.070115	0.746199
	N8207	N	0.580445	0.935520	0.746197
	O8208	O	0.593986	0.693520	0.803167
	O8209	O	0.593779	0.810231	0.803153
	O8210	O	0.534019	0.694778	0.820089
	O8211	O	0.533711	0.811575	0.820125
	O8212	O	0.533760	0.194469	0.820098
	O8213	O	0.533906	0.311319	0.820048
	O8214	O	0.532061	0.695464	0.797998
	O8215	O	0.531943	0.812054	0.797961
	O8216	O	0.532058	0.194375	0.797974
	O8217	O	0.532004	0.310961	0.797940
	O8218	O	0.595733	0.694451	0.825286
	O8219	O	0.595587	0.810745	0.825202
	O8220	O	0.595654	0.194324	0.825224
	O8221	O	0.595613	0.310677	0.825199
	O8222	O	0.593842	0.194204	0.803102
	O8223	O	0.593981	0.311065	0.803127
	O8224	O	0.596565	0.693702	0.757606
	O8225	O	0.560948	0.695064	0.755568
	O8226	O	0.566942	0.694137	0.867696
	O8227	O	0.566826	0.810868	0.867670
	O8228	O	0.531283	0.694149	0.865602
	O8229	O	0.531127	0.810991	0.865640
	O8230	O	0.561009	0.811798	0.755569
	O8231	O	0.596452	0.810593	0.757638
	O8232	O	0.596510	0.194781	0.757607
	O8233	O	0.560827	0.194205	0.755505
	O8234	O	0.566651	0.194196	0.867642
	O8235	O	0.566754	0.310915	0.867685
	O8236	O	0.531024	0.194676	0.865607
	O8237	O	0.531250	0.311510	0.865601
	O8238	O	0.560898	0.310810	0.755532
	O8239	O	0.596637	0.311539	0.757568
	H8240	H	0.533960	0.643177	0.834747
	H8241	H	0.533723	0.862792	0.834789
	H8242	H	0.533518	0.143399	0.834703
	H8243	H	0.534181	0.362889	0.834753
	H8244	H	0.540084	0.862994	0.784118
	H8245	H	0.540013	0.643982	0.784140
	H8246	H	0.539960	0.362026	0.784093
	H8247	H	0.540183	0.143282	0.784131
	H8248	H	0.608602	0.064028	0.814998
	H8249	H	0.610090	0.063998	0.815388
	H8250	H	0.610053	0.940815	0.815402
	H8251	H	0.608599	0.940793	0.815025
	H8252	H	0.608519	0.064314	0.813930
	H8253	H	0.608508	0.940808	0.813936
	H8254	H	0.517616	0.064291	0.812058
	H8255	H	0.517533	0.941372	0.812077
	H8256	H	0.523062	0.064813	0.811014
	H8257	H	0.523015	0.941176	0.811046
	H8258	H	0.523584	0.064683	0.807084
	H8259	H	0.523675	0.941399	0.807094
	H8260	H	0.515049	0.441721	0.807078
	H8261	H	0.513622	0.441399	0.808576
	H8262	H	0.519659	0.441743	0.807035
	H8263	H	0.604016	0.440450	0.812072
	H8264	H	0.612616	0.440578	0.811119
	H8265	H	0.617314	0.440540	0.813409
	H8266	H	0.513754	0.565105	0.808597
	H8267	H	0.515065	0.564958	0.807136
	H8268	H	0.617344	0.564441	0.813479
	H8269	H	0.612571	0.563505	0.811118
	H8270	H	0.604007	0.563368	0.812065
	H8271	H	0.519710	0.564599	0.807091
	H8272	H	0.587809	0.643087	0.839134
	H8273	H	0.587291	0.862095	0.839035
	H8274	H	0.587257	0.143353	0.838986
	H8275	H	0.587998	0.361997	0.839147
	H8276	H	0.549492	0.643960	0.768735
	H8277	H	0.596667	0.642089	0.772325
	H8278	H	0.596302	0.861711	0.772257
	H8279	H	0.549584	0.863016	0.768701
	H8280	H	0.593888	0.642105	0.788536
	H8281	H	0.593612	0.862014	0.788456
	H8282	H	0.578496	0.643127	0.854556
	H8283	H	0.578005	0.862011	0.854487
	H8284	H	0.573805	0.441097	0.743105
	H8285	H	0.548956	0.441049	0.878671
	H8286	H	0.583680	0.441552	0.742497
	H8287	H	0.588523	0.441470	0.745257
	H8288	H	0.549485	0.441033	0.875721
	H8289	H	0.551026	0.440987	0.877008
	H8290	H	0.549067	0.564178	0.878647
	H8291	H	0.573802	0.564295	0.743120
	H8292	H	0.551107	0.564158	0.876999
	H8293	H	0.549537	0.564359	0.875668
	H8294	H	0.588450	0.565061	0.745279
	H8295	H	0.583600	0.564570	0.742523
	H8296	H	0.577973	0.143259	0.854430
	H8297	H	0.578667	0.362079	0.854577
	H8298	H	0.590949	0.064449	0.746424
	H8299	H	0.587056	0.064290	0.742494
	H8300	H	0.584083	0.064708	0.751048
	H8301	H	0.531009	0.862657	0.850982
	H8302	H	0.531271	0.643080	0.850949
	H8303	H	0.531388	0.363011	0.850943
	H8304	H	0.530811	0.143394	0.850922
	H8305	H	0.549458	0.143150	0.768688
	H8306	H	0.596707	0.143590	0.772261
	H8307	H	0.596482	0.362964	0.772276
	H8308	H	0.549279	0.361950	0.768658
	H8309	H	0.593951	0.143272	0.788453
	H8310	H	0.593750	0.362576	0.788501
	H8311	H	0.547188	0.064527	0.874835
	H8312	H	0.543872	0.064237	0.875564
	H8313	H	0.543710	0.063945	0.878077
	H8314	H	0.587116	0.941043	0.742503
	H8315	H	0.591042	0.940881	0.746467
	H8316	H	0.584068	0.940828	0.751080
	H8317	H	0.547126	0.941037	0.874854
	H8318	H	0.543882	0.940840	0.875585
	H8319	H	0.543750	0.940800	0.878077
	Zn8320	Zn	0.517655	0.680529	0.808700
	Zn8321	Zn	0.517546	0.825674	0.808681
	Zn8322	Zn	0.517596	0.180530	0.808681
	Zn8323	Zn	0.517612	0.326113	0.808635
	Zn8324	Zn	0.547531	0.679816	0.877011
	Zn8325	Zn	0.547474	0.825137	0.876974
	Zn8326	Zn	0.547435	0.179953	0.877030
	Zn8327	Zn	0.547379	0.325318	0.877052
	C8328	C	0.593345	0.751852	0.799324
	C8329	C	0.534395	0.753116	0.823941
	C8330	C	0.534305	0.752956	0.833790
	C8331	C	0.533406	0.690869	0.838360
	C8332	C	0.533263	0.814996	0.838384
	C8333	C	0.534388	0.252988	0.823904
	C8334	C	0.534284	0.253133	0.833760
	C8335	C	0.533181	0.191001	0.838331
	C8336	C	0.533498	0.315188	0.838350
	C8337	C	0.534235	0.753684	0.794393
	C8338	C	0.539790	0.753589	0.785111
	C8339	C	0.542176	0.815462	0.780704
	C8340	C	0.542143	0.691607	0.780719
	C8341	C	0.534272	0.252614	0.794369
	C8342	C	0.539815	0.252543	0.785080
	C8343	C	0.542091	0.314498	0.780664
	C8344	C	0.542188	0.190668	0.780684
	C8345	C	0.609481	0.042639	0.814999
	C8346	C	0.609510	0.961924	0.815018
	C8347	C	0.519642	0.043381	0.810774
	C8348	C	0.519618	0.962504	0.810792
	C8349	C	0.520264	0.043456	0.806853
	C8350	C	0.520261	0.962540	0.806850
	C8351	C	0.515277	0.462751	0.808056
	C8352	C	0.605013	0.461651	0.813816
	C8353	C	0.613650	0.461711	0.812867
	C8354	C	0.515313	0.543689	0.808081
	C8355	C	0.613651	0.542739	0.812892
	C8356	C	0.605027	0.542582	0.813833
	C8357	C	0.593411	0.752696	0.828834
	C8358	C	0.593381	0.252534	0.828800
	C8359	C	0.587847	0.752638	0.838108
	C8360	C	0.585642	0.690709	0.842535
	C8361	C	0.585356	0.814597	0.842487
	C8362	C	0.587906	0.252717	0.838096
	C8363	C	0.585370	0.190848	0.842461
	C8364	C	0.585785	0.314496	0.842546
	C8365	C	0.593373	0.252693	0.799289
	C8366	C	0.597053	0.752019	0.761457
	C8367	C	0.557538	0.753428	0.758871
	C8368	C	0.530703	0.752627	0.861793
	C8369	C	0.594384	0.689900	0.784918
	C8370	C	0.594258	0.814077	0.784875
	C8371	C	0.596926	0.751889	0.771311
	C8372	C	0.550085	0.753448	0.767807
	C8373	C	0.547281	0.691489	0.772147
	C8374	C	0.596036	0.689889	0.775924
	C8375	C	0.595899	0.814037	0.775881
	C8376	C	0.547347	0.815485	0.772132
	C8377	C	0.593433	0.752000	0.789482
	C8378	C	0.570287	0.752501	0.864370
	C8379	C	0.580573	0.690654	0.851113
	C8380	C	0.580291	0.814618	0.851068
	C8381	C	0.577734	0.752592	0.855429
	C8382	C	0.547364	0.462171	0.878210
	C8383	C	0.584555	0.462599	0.744505
	C8384	C	0.549449	0.462196	0.876540
	C8385	C	0.547429	0.542951	0.878196
	C8386	C	0.549507	0.542919	0.876532
	C8387	C	0.584523	0.543281	0.744512
	C8388	C	0.570164	0.252594	0.864355
	C8389	C	0.580291	0.190797	0.851042
	C8390	C	0.580683	0.314516	0.851125
	C8391	C	0.577688	0.252674	0.855426
	C8392	C	0.586832	0.043121	0.744926
	C8393	C	0.597104	0.253226	0.761420
	C8394	C	0.557452	0.252515	0.758831
	C8395	C	0.530600	0.253074	0.861775
	C8396	C	0.594410	0.190917	0.784841
	C8397	C	0.594313	0.315087	0.784866
	C8398	C	0.596942	0.253307	0.771275
	C8399	C	0.550014	0.252552	0.767758
	C8400	C	0.530801	0.752749	0.851947
	C8401	C	0.531609	0.814925	0.847372
	C8402	C	0.531768	0.690818	0.847349
	C8403	C	0.530800	0.253132	0.851931
	C8404	C	0.531863	0.315142	0.847340
	C8405	C	0.531539	0.191053	0.847326
	C8406	C	0.547290	0.190653	0.772107
	C8407	C	0.596081	0.191169	0.775853
	C8408	C	0.595964	0.315234	0.775873
	C8409	C	0.547190	0.314498	0.772086
	C8410	C	0.593483	0.252931	0.789433
	C8411	C	0.545989	0.042978	0.875670
	C8412	C	0.579929	0.043290	0.749567
	C8413	C	0.586815	0.962348	0.744929
	C8414	C	0.546006	0.962073	0.875683
	C8415	C	0.579895	0.962370	0.749567
	N8416	N	0.517607	0.070303	0.808656
	N8417	N	0.517545	0.935822	0.808661
	N8418	N	0.517763	0.435968	0.808641
	N8419	N	0.517784	0.570410	0.808698
	N8420	N	0.547348	0.435202	0.877053
	N8421	N	0.547438	0.569693	0.877023
	N8422	N	0.547414	0.070000	0.876950
	N8423	N	0.547462	0.935466	0.876965
	O8424	O	0.637236	0.694514	0.920524
	O8425	O	0.637175	0.810580	0.920559
	O8426	O	0.506776	0.694550	0.948843
	O8427	O	0.506700	0.810822	0.948838
	O8428	O	0.506688	0.194483	0.948817
	O8429	O	0.506777	0.310664	0.948805
	O8430	O	0.504396	0.694812	0.930215
	O8431	O	0.504443	0.811599	0.930166
	O8432	O	0.504497	0.194149	0.930212
	O8433	O	0.504442	0.310867	0.930183
	O8434	O	0.639384	0.694384	0.939119
	O8435	O	0.639591	0.811075	0.939202
	O8436	O	0.639404	0.194398	0.939163
	O8437	O	0.639446	0.311129	0.939173
	O8438	O	0.637250	0.194345	0.920549
	O8439	O	0.637320	0.310667	0.920508
	O8440	O	0.569178	0.694604	0.886323
	O8441	O	0.533004	0.694637	0.887701
	O8442	O	0.610963	0.694383	0.981652
	O8443	O	0.611159	0.810850	0.981713
	O8444	O	0.574784	0.694352	0.983072
	O8445	O	0.574804	0.810682	0.983038
	O8446	O	0.532861	0.811146	0.887666
	O8447	O	0.569121	0.810954	0.886359
	O8448	O	0.569129	0.194518	0.886352
	O8449	O	0.532954	0.193700	0.887726
	O8450	O	0.611154	0.194895	0.981776
	O8451	O	0.610864	0.311385	0.981669
	O8452	O	0.574691	0.194107	0.983104
	O8453	O	0.574726	0.310362	0.983047
	O8454	O	0.532924	0.310225	0.887730
	O8455	O	0.569122	0.310586	0.886339
	H8456	H	0.528540	0.644475	0.959812
	H8457	H	0.528665	0.860952	0.959768
	H8458	H	0.528622	0.144216	0.959756
	H8459	H	0.528654	0.360387	0.959782
	H8460	H	0.515294	0.862415	0.916873
	H8461	H	0.516026	0.643548	0.917061
	H8462	H	0.515740	0.361788	0.917010
	H8463	H	0.515824	0.142747	0.917039
	H8464	H	0.657846	0.064251	0.925602
	H8465	H	0.651522	0.064350	0.927324
	H8466	H	0.651485	0.940798	0.927359
	H8467	H	0.657772	0.941097	0.925554
	H8468	H	0.667002	0.064364	0.928213
	H8469	H	0.666853	0.941134	0.928147
	H8470	H	0.479975	0.064251	0.940109
	H8471	H	0.480007	0.941013	0.940111
	H8472	H	0.482962	0.064261	0.941789
	H8473	H	0.482922	0.941043	0.941766
	H8474	H	0.488953	0.064286	0.941372
	H8475	H	0.488916	0.941054	0.941389
	H8476	H	0.482899	0.441011	0.940876
	H8477	H	0.486000	0.441322	0.941211
	H8478	H	0.481588	0.440776	0.938925
	H8479	H	0.649867	0.441175	0.930975
	H8480	H	0.653161	0.441242	0.926067
	H8481	H	0.660999	0.441321	0.925331
	H8482	H	0.485926	0.564247	0.941260
	H8483	H	0.482806	0.564596	0.940893
	H8484	H	0.661059	0.564969	0.925350
	H8485	H	0.653109	0.564399	0.926011
	H8486	H	0.649861	0.564113	0.930986
	H8487	H	0.481404	0.564384	0.938919
	H8488	H	0.627728	0.643476	0.952250
	H8489	H	0.628536	0.862242	0.952439
	H8490	H	0.628685	0.143368	0.952518
	H8491	H	0.628132	0.362391	0.952354
	H8492	H	0.525388	0.643596	0.901604
	H8493	H	0.591013	0.644172	0.897275
	H8494	H	0.591031	0.861246	0.897292
	H8495	H	0.524581	0.862073	0.901458
	H8496	H	0.615170	0.644164	0.909629
	H8497	H	0.615263	0.861037	0.909660
	H8498	H	0.618543	0.643593	0.967722
	H8499	H	0.619389	0.862033	0.967897
	H8500	H	0.545852	0.440660	0.878599
	H8501	H	0.606687	0.440462	0.992840
	H8502	H	0.543823	0.440791	0.876802
	H8503	H	0.545245	0.441225	0.875604
	H8504	H	0.591822	0.441373	0.987881
	H8505	H	0.600292	0.440768	0.987905
	H8506	H	0.606742	0.564909	0.992836
	H8507	H	0.545972	0.564145	0.878571
	H8508	H	0.600386	0.565143	0.987900
	H8509	H	0.591726	0.564198	0.987837
	H8510	H	0.545398	0.564687	0.875581
	H8511	H	0.543920	0.564338	0.876774
	H8512	H	0.619436	0.143505	0.967957
	H8513	H	0.618895	0.362456	0.967799
	H8514	H	0.551541	0.064297	0.878090
	H8515	H	0.551637	0.064386	0.876267
	H8516	H	0.546993	0.063984	0.879083
	H8517	H	0.552818	0.860844	0.972187
	H8518	H	0.552670	0.644021	0.972205
	H8519	H	0.552840	0.360175	0.972178
	H8520	H	0.552768	0.143965	0.972168
	H8521	H	0.524997	0.142657	0.901586
	H8522	H	0.591124	0.144225	0.897298
	H8523	H	0.591043	0.360693	0.897316
	H8524	H	0.524947	0.361575	0.901554
	H8525	H	0.615416	0.144298	0.909620
	H8526	H	0.615363	0.360746	0.909634
	H8527	H	0.592710	0.064302	0.993889
	H8528	H	0.596614	0.064143	0.994943
	H8529	H	0.601576	0.064716	0.993435
	H8530	H	0.551584	0.940886	0.876201
	H8531	H	0.551501	0.940964	0.878042
	H8532	H	0.547111	0.940752	0.879097
	H8533	H	0.592510	0.941330	0.993852
	H8534	H	0.596513	0.941071	0.994923
	H8535	H	0.601568	0.941255	0.993432
	Zn8536	Zn	0.484920	0.680406	0.939553
	Zn8537	Zn	0.485046	0.825319	0.939499
	Zn8538	Zn	0.485027	0.180426	0.939511
	Zn8539	Zn	0.485157	0.325279	0.939494
	Zn8540	Zn	0.596521	0.680404	0.992337
	Zn8541	Zn	0.596534	0.825530	0.992345
	Zn8542	Zn	0.596531	0.180458	0.992419
	Zn8543	Zn	0.596373	0.325479	0.992402
	C8544	C	0.631482	0.752622	0.917718
	C8545	C	0.512477	0.752727	0.951651
	C8546	C	0.527186	0.752724	0.959042
	C8547	C	0.533954	0.691382	0.962566
	C8548	C	0.534018	0.813978	0.962540
	C8549	C	0.512521	0.252480	0.951613
	C8550	C	0.527247	0.252345	0.958991
	C8551	C	0.534027	0.191117	0.962506
	C8552	C	0.534058	0.313423	0.962521
	C8553	C	0.507854	0.753098	0.926881
	C8554	C	0.515284	0.752893	0.917928
	C8555	C	0.517696	0.814723	0.913509
	C8556	C	0.518108	0.691021	0.913612
	C8557	C	0.507873	0.252418	0.926879
	C8558	C	0.515191	0.252233	0.917924
	C8559	C	0.517862	0.314233	0.913578
	C8560	C	0.517911	0.190220	0.913592
	C8561	C	0.655880	0.043016	0.927374
	C8562	C	0.655853	0.962266	0.927370
	C8563	C	0.482370	0.043193	0.940560
	C8564	C	0.482362	0.962346	0.940545
	C8565	C	0.488404	0.043370	0.940146
	C8566	C	0.488369	0.962461	0.940138
	C8567	C	0.484567	0.462527	0.940644
	C8568	C	0.654415	0.462203	0.931824
	C8569	C	0.657684	0.462384	0.926788
	C8570	C	0.484519	0.543304	0.940659
	C8571	C	0.657669	0.543296	0.926772
	C8572	C	0.654425	0.542914	0.931820
	C8573	C	0.636032	0.752685	0.942463
	C8574	C	0.636066	0.252761	0.942490
	C8575	C	0.628699	0.752753	0.951428
	C8576	C	0.625817	0.690967	0.955728
	C8577	C	0.626273	0.814662	0.955836
	C8578	C	0.628769	0.252792	0.951470
	C8579	C	0.626312	0.190915	0.955884
	C8580	C	0.626014	0.314857	0.955791
	C8581	C	0.631497	0.252472	0.917742
	C8582	C	0.574964	0.752800	0.889112
	C8583	C	0.530774	0.752894	0.891286
	C8584	C	0.568953	0.752459	0.980293
	C8585	C	0.609877	0.691354	0.906857
	C8586	C	0.609920	0.814021	0.906870
	C8587	C	0.589758	0.752810	0.896449
	C8588	C	0.525336	0.752782	0.900580
	C8589	C	0.523183	0.690975	0.905026
	C8590	C	0.596471	0.691362	0.899991
	C8591	C	0.596502	0.814133	0.900001
	C8592	C	0.522745	0.814698	0.904931
	C8593	C	0.616786	0.752680	0.910336
	C8594	C	0.613218	0.752656	0.978069
	C8595	C	0.620790	0.691035	0.964315
	C8596	C	0.621257	0.814561	0.964423
	C8597	C	0.618710	0.752735	0.968788
	C8598	C	0.602622	0.462311	0.993990
	C8599	C	0.545268	0.462243	0.876411
	C8600	C	0.596228	0.462343	0.989050
	C8601	C	0.602640	0.543311	0.993993
	C8602	C	0.596249	0.543350	0.989040
	C8603	C	0.545316	0.543097	0.876409
	C8604	C	0.613265	0.253080	0.978132
	C8605	C	0.621362	0.191041	0.964488
	C8606	C	0.621055	0.314895	0.964395
	C8607	C	0.618825	0.252973	0.968846
	C8608	C	0.550442	0.043030	0.877111
	C8609	C	0.574927	0.252549	0.889134
	C8610	C	0.530679	0.251947	0.891307
	C8611	C	0.568955	0.252207	0.980283
	C8612	C	0.609972	0.191223	0.906880
	C8613	C	0.609943	0.313790	0.906884
	C8614	C	0.589679	0.252460	0.896502
	C8615	C	0.525170	0.252039	0.900585
	C8616	C	0.554187	0.752417	0.972945
	C8617	C	0.547418	0.813822	0.969425
	C8618	C	0.547359	0.691141	0.969441
	C8619	C	0.554250	0.252118	0.972905
	C8620	C	0.547460	0.313382	0.969400
	C8621	C	0.547425	0.190930	0.969386
	C8622	C	0.522912	0.190194	0.905004
	C8623	C	0.596526	0.191269	0.900018
	C8624	C	0.596486	0.313716	0.900022
	C8625	C	0.522883	0.314076	0.904993
	C8626	C	0.616786	0.252466	0.910368
	C8627	C	0.595179	0.043063	0.993885
	C8628	C	0.545881	0.042961	0.878158
	C8629	C	0.550456	0.962130	0.877095
	C8630	C	0.595132	0.962441	0.993855
	C8631	C	0.545937	0.962254	0.878152
	N8632	N	0.484988	0.070142	0.939514
	N8633	N	0.485003	0.935543	0.939505
	N8634	N	0.485031	0.435583	0.939519
	N8635	N	0.484888	0.570197	0.939508
	N8636	N	0.596532	0.435596	0.992332
	N8637	N	0.596568	0.570096	0.992318
	N8638	N	0.596742	0.070150	0.992427
	N8639	N	0.596686	0.935589	0.992409
	O8640	O	0.710685	0.693695	0.055047
	O8641	O	0.710877	0.810615	0.054956
	O8642	O	0.647309	0.694077	0.071939
	O8643	O	0.647420	0.810655	0.071962
	O8644	O	0.647232	0.194917	0.071935
	O8645	O	0.647284	0.311614	0.071949
	O8646	O	0.648689	0.694453	0.051035
	O8647	O	0.648866	0.811013	0.051115
	O8648	O	0.649043	0.194713	0.051177
	O8649	O	0.648573	0.311502	0.050990
	O8650	O	0.712215	0.694434	0.077245
	O8651	O	0.712273	0.810847	0.077236
	O8652	O	0.712136	0.194891	0.077204
	O8653	O	0.712114	0.311334	0.077205
	O8654	O	0.710845	0.194700	0.055037
	O8655	O	0.710625	0.311657	0.055082
	O8656	O	0.709734	0.693059	0.009404
	O8657	O	0.674300	0.695405	0.007793
	O8658	O	0.683541	0.694632	0.119712
	O8659	O	0.683612	0.811267	0.119723
	O8660	O	0.648315	0.693938	0.117576
	O8661	O	0.648272	0.810801	0.117568
	O8662	O	0.674703	0.812192	0.007889
	O8663	O	0.710203	0.809752	0.009376
	O8664	O	0.710095	0.195523	0.009421
	O8665	O	0.674547	0.193387	0.007844
	O8666	O	0.683659	0.194805	0.119732
	O8667	O	0.683829	0.311653	0.119756
	O8668	O	0.648517	0.195244	0.117586
	O8669	O	0.648427	0.311904	0.117554
	O8670	O	0.674239	0.310081	0.007745
	O8671	O	0.709805	0.312615	0.009435
	H8672	H	0.648936	0.642498	0.086622
	H8673	H	0.649394	0.862167	0.086685
	H8674	H	0.649127	0.143233	0.086644
	H8675	H	0.649295	0.363032	0.086631
	H8676	H	0.658216	0.863125	0.037393
	H8677	H	0.657311	0.643231	0.037168
	H8678	H	0.657052	0.362560	0.037126
	H8679	H	0.658469	0.142679	0.037452
	H8680	H	0.735607	0.064416	0.067406
	H8681	H	0.733327	0.064339	0.063782
	H8682	H	0.733288	0.941047	0.063768
	H8683	H	0.735602	0.941053	0.067358
	H8684	H	0.728396	0.064788	0.070804
	H8685	H	0.728385	0.941592	0.070809
	H8686	H	0.634828	0.064875	0.056384
	H8687	H	0.634893	0.941570	0.056360
	H8688	H	0.626064	0.064371	0.056067
	H8689	H	0.626167	0.941590	0.056070
	H8690	H	0.620040	0.064435	0.060829
	H8691	H	0.620116	0.940630	0.060843
	H8692	H	0.635281	0.441326	0.063426
	H8693	H	0.637674	0.440949	0.060784
	H8694	H	0.627025	0.441723	0.063640
	H8695	H	0.730067	0.441091	0.066255
	H8696	H	0.728672	0.441030	0.068020
	H8697	H	0.725681	0.441207	0.068182
	H8698	H	0.637616	0.564799	0.060815
	H8699	H	0.635276	0.564605	0.063423
	H8700	H	0.725725	0.564330	0.068208
	H8701	H	0.728669	0.564332	0.068048
	H8702	H	0.730145	0.564437	0.066262
	H8703	H	0.627050	0.564896	0.063659
	H8704	H	0.704163	0.643242	0.091096
	H8705	H	0.703994	0.862232	0.091035
	H8706	H	0.703939	0.143777	0.091026
	H8707	H	0.704261	0.362569	0.091092
	H8708	H	0.665035	0.643644	0.021478
	H8709	H	0.711296	0.641487	0.024099
	H8710	H	0.712353	0.861249	0.024005
	H8711	H	0.665975	0.863633	0.021713
	H8712	H	0.709807	0.641915	0.040382
	H8713	H	0.710810	0.861531	0.040298
	H8714	H	0.694878	0.643382	0.106524
	H8715	H	0.694755	0.862453	0.106489
	H8716	H	0.680826	0.440919	0.000989
	H8717	H	0.667861	0.441173	0.125966
	H8718	H	0.682432	0.440709	-0.006402
	H8719	H	0.692857	0.440944	-0.008301
	H8720	H	0.656398	0.440962	0.128912
	H8721	H	0.659026	0.441614	0.126164
	H8722	H	0.667830	0.564335	0.125990
	H8723	H	0.680835	0.564526	0.000970
	H8724	H	0.659137	0.564856	0.126219
	H8725	H	0.656506	0.565015	0.128940
	H8726	H	0.692789	0.564386	-0.008358
	H8727	H	0.682339	0.564861	-0.006424
	H8728	H	0.694682	0.143443	0.106474
	H8729	H	0.694974	0.362449	0.106545
	H8730	H	0.701393	0.064113	0.007143
	H8731	H	0.712237	0.064192	0.001435
	H8732	H	0.678865	0.064233	0.004389
	H8733	H	0.647938	0.861951	0.102957
	H8734	H	0.647602	0.642571	0.102926
	H8735	H	0.647909	0.363133	0.102910
	H8736	H	0.647793	0.143460	0.102930
	H8737	H	0.666132	0.142077	0.021753
	H8738	H	0.712223	0.143938	0.024094
	H8739	H	0.711123	0.364108	0.024127
	H8740	H	0.664693	0.361837	0.021411
	H8741	H	0.710706	0.143575	0.040369
	H8742	H	0.709696	0.363601	0.040415
	H8743	H	0.661831	0.064755	0.130750
	H8744	H	0.665443	0.064455	0.131077
	H8745	H	0.668466	0.064727	0.129274
	H8746	H	0.712226	0.941331	0.001463
	H8747	H	0.701275	0.940366	0.007108
	H8748	H	0.678952	0.940603	0.004397
	H8749	H	0.661820	0.940944	0.130746
	H8750	H	0.665436	0.941124	0.131006
	H8751	H	0.668416	0.941249	0.129187
	Zn8752	Zn	0.630325	0.680670	0.060717
	Zn8753	Zn	0.630435	0.825469	0.060730
	Zn8754	Zn	0.630441	0.180529	0.060713
	Zn8755	Zn	0.630321	0.325313	0.060661
	Zn8756	Zn	0.664324	0.680439	0.129081
	Zn8757	Zn	0.664222	0.825196	0.129017
	Zn8758	Zn	0.664278	0.180349	0.129097
	Zn8759	Zn	0.664323	0.325395	0.129068
	C8760	C	0.710175	0.751960	0.051174
	C8761	C	0.648416	0.752306	0.075774
	C8762	C	0.649401	0.752343	0.085637
	C8763	C	0.648856	0.690208	0.090237
	C8764	C	0.649067	0.814340	0.090272
	C8765	C	0.648349	0.253223	0.075760
	C8766	C	0.649371	0.253108	0.085623
	C8767	C	0.648896	0.191068	0.090246
	C8768	C	0.649030	0.315208	0.090247
	C8769	C	0.651557	0.752811	0.047556
	C8770	C	0.657480	0.753061	0.038288
	C8771	C	0.659802	0.815342	0.033872
	C8772	C	0.659309	0.691093	0.033743
	C8773	C	0.651621	0.252946	0.047594
	C8774	C	0.657546	0.252679	0.038324
	C8775	C	0.659194	0.314555	0.033737
	C8776	C	0.659964	0.190345	0.033921
	C8777	C	0.732320	0.043317	0.065835
	C8778	C	0.732332	0.962359	0.065811
	C8779	C	0.630487	0.043354	0.057408
	C8780	C	0.630512	0.962745	0.057408
	C8781	C	0.624407	0.043294	0.062197
	C8782	C	0.624403	0.962196	0.062201
	C8783	C	0.634865	0.462521	0.061731
	C8784	C	0.728409	0.462289	0.065902
	C8785	C	0.727005	0.462406	0.067681
	C8786	C	0.634863	0.543301	0.061735
	C8787	C	0.726976	0.543030	0.067699
	C8788	C	0.728479	0.543076	0.065883
	C8789	C	0.709986	0.752660	0.080831
	C8790	C	0.709883	0.253129	0.080792
	C8791	C	0.704396	0.752723	0.090103
	C8792	C	0.702071	0.690845	0.094519
	C8793	C	0.701968	0.814709	0.094489
	C8794	C	0.704355	0.253134	0.090087
	C8795	C	0.701945	0.191219	0.094480
	C8796	C	0.702109	0.314976	0.094521
	C8797	C	0.710107	0.253264	0.051231
	C8798	C	0.711052	0.751400	0.013212
	C8799	C	0.671672	0.753785	0.011331
	C8800	C	0.647626	0.752340	0.113748
	C8801	C	0.710282	0.689575	0.036740
	C8802	C	0.710888	0.813714	0.036686
	C8803	C	0.712072	0.751307	0.023081
	C8804	C	0.665724	0.753636	0.020586
	C8805	C	0.663432	0.691358	0.025003
	C8806	C	0.711236	0.689304	0.027707
	C8807	C	0.711862	0.813610	0.027649
	C8808	C	0.663933	0.815634	0.025134
	C8809	C	0.709932	0.751737	0.041319
	C8810	C	0.686947	0.752941	0.116386
	C8811	C	0.697028	0.690943	0.103098
	C8812	C	0.696925	0.814823	0.103075
	C8813	C	0.694246	0.752922	0.107424
	C8814	C	0.668276	0.462675	0.127766
	C8815	C	0.688937	0.462263	-0.005909
	C8816	C	0.659350	0.462560	0.127969
	C8817	C	0.668254	0.543403	0.127775
	C8818	C	0.659403	0.543543	0.127979
	C8819	C	0.688920	0.543395	-0.005911
	C8820	C	0.687133	0.253169	0.116426
	C8821	C	0.696941	0.191108	0.103071
	C8822	C	0.697121	0.315006	0.103115
	C8823	C	0.694378	0.253043	0.107444
	C8824	C	0.703184	0.042858	0.002716
	C8825	C	0.710994	0.254107	0.013227
	C8826	C	0.671590	0.251811	0.011299
	C8827	C	0.647774	0.253502	0.113730
	C8828	C	0.710750	0.191393	0.036750
	C8829	C	0.710218	0.315944	0.036777
	C8830	C	0.711987	0.254081	0.023118
	C8831	C	0.665691	0.252062	0.020590
	C8832	C	0.647350	0.752169	0.103886
	C8833	C	0.648100	0.814325	0.099304
	C8834	C	0.647882	0.690118	0.099274
	C8835	C	0.647474	0.253289	0.103886
	C8836	C	0.648151	0.315320	0.099280
	C8837	C	0.648044	0.191147	0.099283
	C8838	C	0.664071	0.190057	0.025169
	C8839	C	0.711741	0.191635	0.027715
	C8840	C	0.711170	0.316260	0.027746
	C8841	C	0.663288	0.314271	0.024989
	C8842	C	0.709810	0.253518	0.041363
	C8843	C	0.663700	0.043218	0.130414
	C8844	C	0.680585	0.042894	-0.000055
	C8845	C	0.703182	0.962263	0.002693
	C8846	C	0.663731	0.962358	0.130398
	C8847	C	0.680573	0.962237	-0.000059
	N8848	N	0.630406	0.070326	0.060729
	N8849	N	0.630434	0.935782	0.060743
	N8850	N	0.630355	0.435581	0.060704
	N8851	N	0.630369	0.570203	0.060718
	N8852	N	0.664115	0.435760	0.129079
	N8853	N	0.664159	0.570315	0.129104
	N8854	N	0.664016	0.070183	0.129051
	N8855	N	0.664023	0.935546	0.129007
	O8856	O	0.754309	0.695162	0.172401
	O8857	O	0.754401	0.811215	0.172388
	O8858	O	0.623102	0.694814	0.200806
	O8859	O	0.623172	0.811094	0.200821
	O8860	O	0.623108	0.195155	0.200827
	O8861	O	0.623081	0.311296	0.200790
	O8862	O	0.621105	0.694626	0.182222
	O8863	O	0.620946	0.811309	0.182205
	O8864	O	0.620832	0.194741	0.182197
	O8865	O	0.620899	0.311530	0.182215
	O8866	O	0.756485	0.694380	0.191032
	O8867	O	0.756554	0.811244	0.191057
	O8868	O	0.756528	0.194126	0.191056
	O8869	O	0.756354	0.311015	0.190981
	O8870	O	0.754426	0.194823	0.172366
	O8871	O	0.754285	0.311052	0.172478
	O8872	O	0.686117	0.695235	0.138323
	O8873	O	0.649815	0.694537	0.139740
	O8874	O	0.727673	0.694832	0.233497
	O8875	O	0.727843	0.811399	0.233494
	O8876	O	0.691549	0.694840	0.234841
	O8877	O	0.691425	0.811106	0.234862
	O8878	O	0.649649	0.810896	0.139669
	O8879	O	0.685933	0.811259	0.138324
	O8880	O	0.685975	0.195001	0.138371
	O8881	O	0.649619	0.194772	0.139714
	O8882	O	0.727764	0.194644	0.233498
	O8883	O	0.727830	0.311280	0.233541
	O8884	O	0.691584	0.195196	0.234827
	O8885	O	0.691518	0.311369	0.234875
	O8886	O	0.649718	0.311061	0.139740
	O8887	O	0.685983	0.311214	0.138363
	H8888	H	0.645150	0.644000	0.211694
	H8889	H	0.645088	0.861575	0.211672
	H8890	H	0.645120	0.145276	0.211715
	H8891	H	0.645209	0.361825	0.211671
	H8892	H	0.632014	0.862512	0.168933
	H8893	H	0.632603	0.643478	0.169022
	H8894	H	0.632575	0.362578	0.169054
	H8895	H	0.632105	0.143566	0.168991
	H8896	H	0.773344	0.064173	0.180566
	H8897	H	0.772623	0.064740	0.181914
	H8898	H	0.772659	0.941188	0.181896
	H8899	H	0.773374	0.941290	0.180546
	H8900	H	0.777151	0.064545	0.180161
	H8901	H	0.777186	0.941509	0.180142
	H8902	H	0.602048	0.064905	0.190571
	H8903	H	0.602049	0.941552	0.190559
	H8904	H	0.600289	0.064633	0.190583
	H8905	H	0.600216	0.941146	0.190563
	H8906	H	0.599121	0.064769	0.191609
	H8907	H	0.599194	0.941523	0.191637
	H8908	H	0.602926	0.441411	0.190855
	H8909	H	0.601180	0.440999	0.190408
	H8910	H	0.603270	0.441887	0.192121
	H8911	H	0.775982	0.441095	0.180982
	H8912	H	0.777522	0.441617	0.181521
	H8913	H	0.777509	0.441349	0.182157
	H8914	H	0.601288	0.565128	0.190369
	H8915	H	0.603033	0.564539	0.190850
	H8916	H	0.777372	0.564624	0.182155
	H8917	H	0.777477	0.564786	0.181517
	H8918	H	0.775959	0.565091	0.180966
	H8919	H	0.603190	0.565233	0.192087
	H8920	H	0.745339	0.643306	0.204243
	H8921	H	0.745233	0.862223	0.204232
	H8922	H	0.745258	0.143145	0.204274
	H8923	H	0.745169	0.361942	0.204209
	H8924	H	0.641758	0.643474	0.153574
	H8925	H	0.707963	0.645955	0.149180
	H8926	H	0.708161	0.861245	0.149190
	H8927	H	0.641234	0.862596	0.153472
	H8928	H	0.732273	0.645818	0.161518
	H8929	H	0.732474	0.860680	0.161526
	H8930	H	0.736116	0.643251	0.219695
	H8931	H	0.735964	0.862366	0.219661
	H8932	H	0.671778	0.441247	0.128612
	H8933	H	0.717877	0.441188	0.242880
	H8934	H	0.668195	0.441120	0.132329
	H8935	H	0.661776	0.441005	0.132514
	H8936	H	0.708417	0.441374	0.242924
	H8937	H	0.712033	0.441226	0.241653
	H8938	H	0.717807	0.564601	0.242872
	H8939	H	0.671758	0.564728	0.128614
	H8940	H	0.711962	0.564535	0.241663
	H8941	H	0.708475	0.564683	0.242964
	H8942	H	0.661691	0.564780	0.132526
	H8943	H	0.668174	0.564605	0.132397
	H8944	H	0.736046	0.143422	0.219735
	H8945	H	0.735899	0.362177	0.219654
	H8946	H	0.661996	0.064353	0.127136
	H8947	H	0.659727	0.064375	0.128452
	H8948	H	0.666994	0.064680	0.127588
	H8949	H	0.669390	0.861601	0.224002
	H8950	H	0.669447	0.644366	0.224013
	H8951	H	0.669526	0.361743	0.223970
	H8952	H	0.669444	0.145077	0.224037
	H8953	H	0.641245	0.143480	0.153535
	H8954	H	0.707864	0.144373	0.149321
	H8955	H	0.708051	0.361710	0.149239
	H8956	H	0.641655	0.362488	0.153595
	H8957	H	0.732252	0.144567	0.161621
	H8958	H	0.732428	0.361746	0.161496
	H8959	H	0.714884	0.064114	0.244859
	H8960	H	0.715403	0.064806	0.244061
	H8961	H	0.713720	0.064865	0.243096
	H8962	H	0.659777	0.940782	0.128449
	H8963	H	0.661975	0.941218	0.127151
	H8964	H	0.666887	0.941281	0.127510
	H8965	H	0.714895	0.941382	0.244842
	H8966	H	0.715371	0.940757	0.244042
	H8967	H	0.713589	0.940992	0.243067
	Zn8968	Zn	0.601481	0.680599	0.191479
	Zn8969	Zn	0.601581	0.825638	0.191507
	Zn8970	Zn	0.601353	0.180829	0.191512
	Zn8971	Zn	0.601341	0.325718	0.191536
	Zn8972	Zn	0.713084	0.680324	0.244195
	Zn8973	Zn	0.713034	0.825678	0.244128
	Zn8974	Zn	0.713194	0.180374	0.244124
	Zn8975	Zn	0.713180	0.325541	0.244186
	C8976	C	0.748539	0.753204	0.169627
	C8977	C	0.628954	0.752862	0.203585
	C8978	C	0.643742	0.752807	0.210901
	C8979	C	0.650581	0.691328	0.214406
	C8980	C	0.650553	0.814321	0.214400
	C8981	C	0.628898	0.253331	0.203597
	C8982	C	0.643722	0.253484	0.210926
	C8983	C	0.650565	0.192222	0.214437
	C8984	C	0.650619	0.314743	0.214403
	C8985	C	0.624420	0.752972	0.178888
	C8986	C	0.631777	0.753011	0.169924
	C8987	C	0.634283	0.814922	0.165532
	C8988	C	0.634601	0.691079	0.165581
	C8989	C	0.624289	0.253142	0.178893
	C8990	C	0.631691	0.253107	0.169932
	C8991	C	0.634537	0.315056	0.165601
	C8992	C	0.634308	0.191112	0.165571
	C8993	C	0.773828	0.043144	0.181352
	C8994	C	0.773832	0.962425	0.181350
	C8995	C	0.601163	0.043638	0.190820
	C8996	C	0.601161	0.962744	0.190816
	C8997	C	0.600075	0.043492	0.191862
	C8998	C	0.600102	0.962790	0.191854
	C8999	C	0.601766	0.462740	0.190857
	C9000	C	0.775574	0.462467	0.181276
	C9001	C	0.777131	0.462897	0.181828
	C9002	C	0.601825	0.543619	0.190836
	C9003	C	0.777110	0.543443	0.181808
	C9004	C	0.775586	0.543534	0.181259
	C9005	C	0.753087	0.752789	0.194342
	C9006	C	0.753028	0.252576	0.194330
	C9007	C	0.745810	0.752724	0.203311
	C9008	C	0.743212	0.690778	0.207671
	C9009	C	0.743116	0.814690	0.207662
	C9010	C	0.745674	0.252516	0.203302
	C9011	C	0.743050	0.190693	0.207688
	C9012	C	0.742982	0.314475	0.207641
	C9013	C	0.748515	0.253014	0.169648
	C9014	C	0.691811	0.753393	0.141117
	C9015	C	0.647452	0.752801	0.143287
	C9016	C	0.685690	0.752938	0.232064
	C9017	C	0.726880	0.692536	0.158789
	C9018	C	0.726995	0.814156	0.158787
	C9019	C	0.706555	0.753614	0.148483
	C9020	C	0.641883	0.752999	0.152569
	C9021	C	0.639642	0.691045	0.156997
	C9022	C	0.713386	0.692646	0.151952
	C9023	C	0.713499	0.814452	0.151947
	C9024	C	0.639354	0.814968	0.156948
	C9025	C	0.733762	0.753278	0.162289
	C9026	C	0.730017	0.753032	0.229911
	C9027	C	0.738120	0.690855	0.216247
	C9028	C	0.738055	0.814726	0.216236
	C9029	C	0.735659	0.752772	0.220634
	C9030	C	0.717000	0.462671	0.244051
	C9031	C	0.664681	0.462421	0.131560
	C9032	C	0.711111	0.462446	0.242803
	C9033	C	0.716983	0.543494	0.244034
	C9034	C	0.711113	0.543342	0.242805
	C9035	C	0.664695	0.543313	0.131579
	C9036	C	0.730054	0.252981	0.229942
	C9037	C	0.738007	0.190867	0.216276
	C9038	C	0.737916	0.314623	0.216226
	C9039	C	0.735613	0.252814	0.220658
	C9040	C	0.661699	0.043183	0.128124
	C9041	C	0.691793	0.253077	0.141146
	C9042	C	0.647381	0.252891	0.143312
	C9043	C	0.685676	0.253302	0.232091
	C9044	C	0.726856	0.191680	0.158852
	C9045	C	0.726951	0.314581	0.158796
	C9046	C	0.706563	0.253041	0.148478
	C9047	C	0.641819	0.252989	0.152592
	C9048	C	0.670939	0.752923	0.224707
	C9049	C	0.664020	0.814370	0.221242
	C9050	C	0.664067	0.691440	0.221242
	C9051	C	0.670926	0.253357	0.224754
	C9052	C	0.664119	0.314728	0.221234
	C9053	C	0.664070	0.192101	0.221270
	C9054	C	0.639383	0.191082	0.156987
	C9055	C	0.713374	0.191671	0.152007
	C9056	C	0.713476	0.314433	0.151956
	C9057	C	0.639625	0.314912	0.157021
	C9058	C	0.733744	0.253161	0.162310
	C9059	C	0.714671	0.043332	0.244370
	C9060	C	0.666715	0.043299	0.128582
	C9061	C	0.661663	0.962355	0.128121
	C9062	C	0.714660	0.962483	0.244353
	C9063	C	0.666703	0.962453	0.128535
	N9064	N	0.601235	0.070525	0.191525
	N9065	N	0.601303	0.935918	0.191496
	N9066	N	0.601156	0.435917	0.191544
	N9067	N	0.601210	0.570454	0.191492
	N9068	N	0.713369	0.435769	0.244225
	N9069	N	0.713329	0.570332	0.244217
	N9070	N	0.713352	0.070296	0.244149
	N9071	N	0.713285	0.935777	0.244116
	O9072	O	0.730177	0.695404	0.301259
	O9073	O	0.730228	0.812170	0.301286
	O9074	O	0.666927	0.695298	0.318278
	O9075	O	0.667133	0.812123	0.318212
	O9076	O	0.667142	0.194606	0.318198
	O9077	O	0.666981	0.311504	0.318296
	O9078	O	0.665741	0.695322	0.296056
	O9079	O	0.665419	0.811668	0.296020
	O9080	O	0.665471	0.194250	0.296018
	O9081	O	0.665586	0.310675	0.296115
	O9082	O	0.728674	0.694875	0.322120
	O9083	O	0.728933	0.811575	0.322183
	O9084	O	0.729077	0.193710	0.322276
	O9085	O	0.728724	0.310524	0.322144
	O9086	O	0.730315	0.193340	0.301303
	O9087	O	0.730143	0.310039	0.301344
	O9088	O	0.728986	0.695693	0.255698
	O9089	O	0.693651	0.695067	0.253505
	O9090	O	0.703101	0.693964	0.365407
	O9091	O	0.703455	0.810654	0.365494
	O9092	O	0.667651	0.695665	0.363856
	O9093	O	0.668075	0.812397	0.363909
	O9094	O	0.693578	0.811871	0.253489
	O9095	O	0.729143	0.812343	0.255660
	O9096	O	0.729310	0.193847	0.255667
	O9097	O	0.693652	0.194735	0.253484
	O9098	O	0.703196	0.194931	0.365451
	O9099	O	0.703162	0.311707	0.365394
	O9100	O	0.667920	0.193700	0.363853
	O9101	O	0.667572	0.310553	0.363853
	O9102	O	0.693634	0.311382	0.253485
	O9103	O	0.729039	0.310762	0.255702
	H9104	H	0.667054	0.644612	0.332912
	H9105	H	0.667864	0.864127	0.332939
	H9106	H	0.667786	0.142769	0.332883
	H9107	H	0.667126	0.362797	0.332900
	H9108	H	0.673284	0.862582	0.282122
	H9109	H	0.673571	0.643979	0.282209
	H9110	H	0.673730	0.362180	0.282243
	H9111	H	0.673353	0.143648	0.282135
	H9112	H	0.741532	0.064887	0.313185
	H9113	H	0.744823	0.064064	0.315128
	H9114	H	0.744791	0.940967	0.315094
	H9115	H	0.741480	0.940901	0.313175
	H9116	H	0.743869	0.064755	0.310119
	H9117	H	0.743788	0.941168	0.310108
	H9118	H	0.648527	0.064519	0.309367
	H9119	H	0.648682	0.941162	0.309379
	H9120	H	0.653824	0.064622	0.309561
	H9121	H	0.653928	0.941669	0.309510
	H9122	H	0.657352	0.064490	0.306635
	H9123	H	0.657377	0.941797	0.306582
	H9124	H	0.655549	0.441232	0.306813
	H9125	H	0.653873	0.441880	0.305269
	H9126	H	0.652769	0.441204	0.308741
	H9127	H	0.742423	0.440880	0.311920
	H9128	H	0.746277	0.441044	0.310179
	H9129	H	0.750219	0.440690	0.310809
	H9130	H	0.654016	0.564707	0.305271
	H9131	H	0.655568	0.565031	0.306782
	H9132	H	0.750184	0.564441	0.310830
	H9133	H	0.746236	0.563941	0.310159
	H9134	H	0.742265	0.564112	0.311960
	H9135	H	0.652951	0.565005	0.308671
	H9136	H	0.719564	0.643093	0.335857
	H9137	H	0.720160	0.863129	0.336019
	H9138	H	0.720184	0.142824	0.336050
	H9139	H	0.719692	0.362454	0.335882
	H9140	H	0.682608	0.644033	0.266729
	H9141	H	0.729652	0.644371	0.270332
	H9142	H	0.729874	0.863757	0.270351
	H9143	H	0.682349	0.862570	0.266681
	H9144	H	0.728145	0.644138	0.286600
	H9145	H	0.728336	0.863676	0.286636
	H9146	H	0.712111	0.642701	0.351577
	H9147	H	0.712539	0.862560	0.351736
	H9148	H	0.718664	0.441359	0.245090
	H9149	H	0.685816	0.441311	0.381229
	H9150	H	0.713769	0.441402	0.246795
	H9151	H	0.709552	0.441283	0.245872
	H9152	H	0.695369	0.440623	0.371907
	H9153	H	0.697219	0.441213	0.377043
	H9154	H	0.685758	0.564489	0.381232
	H9155	H	0.718511	0.564714	0.245044
	H9156	H	0.697146	0.564378	0.377075
	H9157	H	0.695431	0.564267	0.371872
	H9158	H	0.709485	0.564611	0.245860
	H9159	H	0.713742	0.564897	0.246797
	H9160	H	0.712448	0.143154	0.351754
	H9161	H	0.712002	0.363011	0.351574
	H9162	H	0.711188	0.065201	0.244390
	H9163	H	0.712469	0.064953	0.245072
	H9164	H	0.711840	0.064820	0.243274
	H9165	H	0.666218	0.864233	0.349226
	H9166	H	0.665457	0.644692	0.349190
	H9167	H	0.665652	0.362516	0.349194
	H9168	H	0.666347	0.142563	0.349169
	H9169	H	0.682379	0.143699	0.266652
	H9170	H	0.730030	0.142514	0.270292
	H9171	H	0.729463	0.362071	0.270373
	H9172	H	0.682753	0.362295	0.266764
	H9173	H	0.728524	0.142209	0.286588
	H9174	H	0.727974	0.361893	0.286653
	H9175	H	0.671888	0.064271	0.371245
	H9176	H	0.671062	0.064776	0.377179
	H9177	H	0.685193	0.065131	0.382251
	H9178	H	0.712418	0.941550	0.245058
	H9179	H	0.711151	0.941685	0.244353
	H9180	H	0.711810	0.942026	0.243275
	H9181	H	0.671978	0.940928	0.371238
	H9182	H	0.671072	0.940829	0.377214
	H9183	H	0.685291	0.940944	0.382297
	Zn9184	Zn	0.651240	0.680809	0.306753
	Zn9185	Zn	0.650987	0.825822	0.306733
	Zn9186	Zn	0.651035	0.180515	0.306763
	Zn9187	Zn	0.651070	0.325688	0.306777
	Zn9188	Zn	0.684752	0.680557	0.375017
	Zn9189	Zn	0.685148	0.824993	0.375121
	Zn9190	Zn	0.684990	0.180415	0.375124
	Zn9191	Zn	0.684744	0.324838	0.375059
	C9192	C	0.729075	0.753866	0.297475
	C9193	C	0.667669	0.753866	0.322072
	C9194	C	0.667858	0.754295	0.331935
	C9195	C	0.666968	0.692354	0.336537
	C9196	C	0.667400	0.816414	0.336560
	C9197	C	0.667693	0.252858	0.322071
	C9198	C	0.667916	0.252791	0.331928
	C9199	C	0.667429	0.190477	0.336511
	C9200	C	0.667045	0.314948	0.336527
	C9201	C	0.667788	0.753519	0.292445
	C9202	C	0.673103	0.753369	0.283134
	C9203	C	0.675335	0.815161	0.278716
	C9204	C	0.675469	0.691455	0.278747
	C9205	C	0.667745	0.252607	0.292475
	C9206	C	0.673154	0.252822	0.283160
	C9207	C	0.675572	0.314692	0.278781
	C9208	C	0.675400	0.191105	0.278719
	C9209	C	0.744259	0.043223	0.313721
	C9210	C	0.744264	0.962349	0.313721
	C9211	C	0.651207	0.043392	0.308758
	C9212	C	0.651249	0.962688	0.308752
	C9213	C	0.654791	0.043501	0.305860
	C9214	C	0.654741	0.962687	0.305817
	C9215	C	0.653884	0.462755	0.306236
	C9216	C	0.744004	0.462211	0.312796
	C9217	C	0.747963	0.462318	0.311036
	C9218	C	0.653899	0.543444	0.306219
	C9219	C	0.747926	0.543125	0.311022
	C9220	C	0.743944	0.543160	0.312811
	C9221	C	0.726020	0.753207	0.325656
	C9222	C	0.726125	0.252253	0.325704
	C9223	C	0.720235	0.753194	0.334947
	C9224	C	0.718034	0.690859	0.339388
	C9225	C	0.718350	0.815226	0.339474
	C9226	C	0.720217	0.252649	0.334985
	C9227	C	0.718301	0.190645	0.339511
	C9228	C	0.718050	0.314915	0.339408
	C9229	C	0.729139	0.251733	0.297497
	C9230	C	0.729758	0.754097	0.259525
	C9231	C	0.690267	0.753469	0.256820
	C9232	C	0.666765	0.754185	0.360058
	C9233	C	0.728437	0.691861	0.282996
	C9234	C	0.728539	0.816035	0.283010
	C9235	C	0.730048	0.754011	0.269381
	C9236	C	0.682975	0.753342	0.265787
	C9237	C	0.680394	0.691403	0.270144
	C9238	C	0.729383	0.691873	0.273967
	C9239	C	0.729491	0.816160	0.273978
	C9240	C	0.680259	0.815194	0.270120
	C9241	C	0.728070	0.753908	0.287615
	C9242	C	0.706133	0.752389	0.361955
	C9243	C	0.713977	0.690620	0.348138
	C9244	C	0.714266	0.814940	0.348226
	C9245	C	0.712071	0.752663	0.352668
	C9246	C	0.681744	0.462425	0.378814
	C9247	C	0.712123	0.462590	0.245784
	C9248	C	0.693258	0.462236	0.374628
	C9249	C	0.681731	0.543336	0.378801
	C9250	C	0.693258	0.543066	0.374605
	C9251	C	0.712129	0.543582	0.245771
	C9252	C	0.706008	0.253259	0.361935
	C9253	C	0.714111	0.190835	0.348241
	C9254	C	0.713883	0.315151	0.348141
	C9255	C	0.711958	0.253164	0.352669
	C9256	C	0.712233	0.043623	0.244557
	C9257	C	0.729851	0.252227	0.259507
	C9258	C	0.690264	0.253027	0.256802
	C9259	C	0.666712	0.252173	0.360034
	C9260	C	0.728734	0.190001	0.282983
	C9261	C	0.728420	0.314176	0.283028
	C9262	C	0.730164	0.252344	0.269367
	C9263	C	0.683036	0.253010	0.265788
	C9264	C	0.665716	0.754452	0.350192
	C9265	C	0.666415	0.816545	0.345595
	C9266	C	0.665962	0.692338	0.345570
	C9267	C	0.665822	0.252505	0.350161
	C9268	C	0.666065	0.314842	0.345560
	C9269	C	0.666451	0.190390	0.345546
	C9270	C	0.680334	0.191109	0.270119
	C9271	C	0.729639	0.190161	0.273944
	C9272	C	0.729348	0.314359	0.273992
	C9273	C	0.680515	0.314844	0.270182
	C9274	C	0.728163	0.251983	0.287625
	C9275	C	0.675022	0.043173	0.374450
	C9276	C	0.712927	0.043524	0.243440
	C9277	C	0.712220	0.962709	0.244553
	C9278	C	0.675051	0.962430	0.374468
	C9279	C	0.712890	0.962837	0.243408
	N9280	N	0.651224	0.070409	0.306759
	N9281	N	0.651206	0.935901	0.306734
	N9282	N	0.651303	0.435768	0.306770
	N9283	N	0.651396	0.570384	0.306768
	N9284	N	0.684721	0.435542	0.375038
	N9285	N	0.684693	0.570212	0.375033
	N9286	N	0.684960	0.070100	0.375100
	N9287	N	0.685032	0.935478	0.375134
	O9288	O	0.702812	0.693756	0.431868
	O9289	O	0.702995	0.810668	0.431862
	O9290	O	0.639028	0.693284	0.448822
	O9291	O	0.639686	0.809948	0.448768
	O9292	O	0.639575	0.195465	0.448681
	O9293	O	0.639277	0.312009	0.448773
	O9294	O	0.640481	0.693574	0.427860
	O9295	O	0.640942	0.810017	0.427989
	O9296	O	0.640875	0.195616	0.427968
	O9297	O	0.640410	0.312202	0.427854
	O9298	O	0.704332	0.694267	0.454144
	O9299	O	0.704535	0.810694	0.454163
	O9300	O	0.704177	0.194427	0.454034
	O9301	O	0.704142	0.310953	0.454040
	O9302	O	0.702937	0.194002	0.431887
	O9303	O	0.702644	0.310863	0.431913
	O9304	O	0.701760	0.693580	0.386250
	O9305	O	0.666459	0.694448	0.384656
	O9306	O	0.675632	0.694165	0.496564
	O9307	O	0.675696	0.811151	0.496583
	O9308	O	0.640059	0.694005	0.494399
	O9309	O	0.640275	0.810779	0.494422
	O9310	O	0.666843	0.811276	0.384770
	O9311	O	0.702237	0.810217	0.386248
	O9312	O	0.702282	0.195257	0.386242
	O9313	O	0.666893	0.194074	0.384829
	O9314	O	0.675770	0.194614	0.496631
	O9315	O	0.675677	0.311493	0.496581
	O9316	O	0.640491	0.193930	0.494335
	O9317	O	0.640197	0.310637	0.494368
	O9318	O	0.666393	0.310849	0.384687
	O9319	O	0.701794	0.311855	0.386272
	H9320	H	0.640816	0.641910	0.463497
	H9321	H	0.641536	0.862146	0.463515
	H9322	H	0.641638	0.143507	0.463363
	H9323	H	0.640987	0.362933	0.463488
	H9324	H	0.650292	0.861882	0.414276
	H9325	H	0.649517	0.642419	0.414076
	H9326	H	0.649189	0.363187	0.414031
	H9327	H	0.650324	0.143300	0.414267
	H9328	H	0.732769	0.064264	0.441011
	H9329	H	0.723168	0.064671	0.436556
	H9330	H	0.723071	0.941280	0.436495
	H9331	H	0.732741	0.941308	0.440935
	H9332	H	0.729156	0.064231	0.449055
	H9333	H	0.729218	0.940786	0.449041
	H9334	H	0.630613	0.064663	0.432877
	H9335	H	0.630678	0.940920	0.432878
	H9336	H	0.619895	0.064267	0.431318
	H9337	H	0.619925	0.941230	0.431322
	H9338	H	0.609497	0.064502	0.436236
	H9339	H	0.609524	0.941437	0.436249
	H9340	H	0.620434	0.441129	0.436586
	H9341	H	0.619650	0.440873	0.437459
	H9342	H	0.623326	0.441174	0.436509
	H9343	H	0.708298	0.441351	0.439880
	H9344	H	0.721376	0.441463	0.437744
	H9345	H	0.729540	0.441560	0.441053
	H9346	H	0.619580	0.564771	0.437479
	H9347	H	0.620413	0.564915	0.436627
	H9348	H	0.729593	0.563948	0.441061
	H9349	H	0.721500	0.564583	0.437721
	H9350	H	0.708248	0.564645	0.439857
	H9351	H	0.623201	0.564616	0.436516
	H9352	H	0.696200	0.643175	0.467969
	H9353	H	0.696392	0.862114	0.467978
	H9354	H	0.695993	0.143181	0.467886
	H9355	H	0.696157	0.362161	0.467869
	H9356	H	0.657145	0.642894	0.398360
	H9357	H	0.703685	0.642146	0.400901
	H9358	H	0.704324	0.861629	0.400929
	H9359	H	0.657861	0.862394	0.398581
	H9360	H	0.702093	0.642271	0.417190
	H9361	H	0.702712	0.861936	0.417198
	H9362	H	0.686779	0.643467	0.483397
	H9363	H	0.686989	0.862285	0.483395
	H9364	H	0.675552	0.441154	0.379103
	H9365	H	0.656946	0.440507	0.501438
	H9366	H	0.673072	0.441465	0.371985
	H9367	H	0.681485	0.440880	0.368997
	H9368	H	0.647354	0.440785	0.507447
	H9369	H	0.647517	0.441086	0.503657
	H9370	H	0.656935	0.564109	0.501433
	H9371	H	0.675550	0.564618	0.379066
	H9372	H	0.647534	0.564065	0.503671
	H9373	H	0.647541	0.564565	0.507431
	H9374	H	0.681398	0.564246	0.368965
	H9375	H	0.673100	0.564411	0.372007
	H9376	H	0.686880	0.143316	0.483363
	H9377	H	0.687026	0.362578	0.483336
	H9378	H	0.697793	0.064301	0.371875
	H9379	H	0.687361	0.064613	0.368162
	H9380	H	0.696569	0.064252	0.380021
	H9381	H	0.640120	0.862183	0.479783
	H9382	H	0.639422	0.642379	0.479781
	H9383	H	0.639478	0.362250	0.479744
	H9384	H	0.640149	0.142858	0.479662
	H9385	H	0.658114	0.142819	0.398591
	H9386	H	0.704526	0.143246	0.400941
	H9387	H	0.703382	0.362706	0.401002
	H9388	H	0.656962	0.362533	0.398325
	H9389	H	0.702833	0.142675	0.417238
	H9390	H	0.701762	0.362059	0.417267
	H9391	H	0.662494	0.064181	0.505122
	H9392	H	0.658648	0.064210	0.503010
	H9393	H	0.651020	0.064236	0.503599
	H9394	H	0.687438	0.940991	0.368175
	H9395	H	0.697805	0.941009	0.371874
	H9396	H	0.696593	0.941393	0.380026
	H9397	H	0.662402	0.940707	0.505114
	H9398	H	0.658583	0.940822	0.502980
	H9399	H	0.651082	0.940877	0.503604
	Zn9400	Zn	0.622093	0.680578	0.437512
	Zn9401	Zn	0.622665	0.825321	0.437586
	Zn9402	Zn	0.622482	0.180216	0.437573
	Zn9403	Zn	0.622150	0.324895	0.437500
	Zn9404	Zn	0.656222	0.680088	0.505900
	Zn9405	Zn	0.656254	0.825431	0.505905
	Zn9406	Zn	0.656222	0.179713	0.505860
	Zn9407	Zn	0.656105	0.325266	0.505881
	C9408	C	0.702290	0.752199	0.428041
	C9409	C	0.640446	0.751696	0.452614
	C9410	C	0.641488	0.751986	0.462479
	C9411	C	0.640796	0.689914	0.467103
	C9412	C	0.641236	0.814158	0.467112
	C9413	C	0.640519	0.253587	0.452550
	C9414	C	0.641450	0.253216	0.462425
	C9415	C	0.641212	0.191003	0.467017
	C9416	C	0.640836	0.315014	0.467085
	C9417	C	0.643580	0.751852	0.424424
	C9418	C	0.649461	0.752163	0.415162
	C9419	C	0.651771	0.814264	0.410742
	C9420	C	0.651351	0.690244	0.410627
	C9421	C	0.643497	0.253832	0.424410
	C9422	C	0.649430	0.253375	0.415151
	C9423	C	0.651193	0.315254	0.410603
	C9424	C	0.651824	0.191090	0.410739
	C9425	C	0.725492	0.043158	0.439988
	C9426	C	0.725448	0.962529	0.439941
	C9427	C	0.624549	0.043276	0.433534
	C9428	C	0.624548	0.962511	0.433548
	C9429	C	0.614121	0.043296	0.438478
	C9430	C	0.614148	0.962497	0.438481
	C9431	C	0.620540	0.462435	0.437165
	C9432	C	0.710451	0.462629	0.442585
	C9433	C	0.723602	0.462527	0.440438
	C9434	C	0.620561	0.543457	0.437169
	C9435	C	0.723645	0.543162	0.440423
	C9436	C	0.710424	0.543495	0.442577
	C9437	C	0.702171	0.752490	0.457737
	C9438	C	0.701920	0.252656	0.457628
	C9439	C	0.696562	0.752563	0.466987
	C9440	C	0.694144	0.690728	0.471390
	C9441	C	0.694250	0.814587	0.471383
	C9442	C	0.696395	0.252632	0.466938
	C9443	C	0.694029	0.190695	0.471342
	C9444	C	0.694122	0.314716	0.471331
	C9445	C	0.702129	0.252451	0.428077
	C9446	C	0.703164	0.751844	0.390070
	C9447	C	0.663765	0.752819	0.388191
	C9448	C	0.639551	0.752413	0.490579
	C9449	C	0.702531	0.689913	0.413574
	C9450	C	0.702902	0.814163	0.413580
	C9451	C	0.704194	0.751841	0.399950
	C9452	C	0.657830	0.752690	0.397470
	C9453	C	0.655526	0.690505	0.401889
	C9454	C	0.703504	0.689784	0.404541
	C9455	C	0.703868	0.814015	0.404552
	C9456	C	0.655957	0.814526	0.402014
	C9457	C	0.702093	0.752116	0.418185
	C9458	C	0.679082	0.752677	0.493278
	C9459	C	0.688991	0.690742	0.479953
	C9460	C	0.689114	0.814772	0.479952
	C9461	C	0.686356	0.752774	0.484277
	C9462	C	0.659197	0.462012	0.503402
	C9463	C	0.679260	0.462442	0.371692
	C9464	C	0.649683	0.462255	0.505643
	C9465	C	0.659210	0.543016	0.503390
	C9466	C	0.649734	0.543085	0.505645
	C9467	C	0.679245	0.543178	0.371672
	C9468	C	0.679130	0.253018	0.493295
	C9469	C	0.689055	0.190826	0.479947
	C9470	C	0.689141	0.314799	0.479937
	C9471	C	0.686477	0.252898	0.484326
	C9472	C	0.690607	0.043172	0.371361
	C9473	C	0.703084	0.253537	0.390086
	C9474	C	0.663835	0.252532	0.388242
	C9475	C	0.639727	0.252354	0.490524
	C9476	C	0.702887	0.190417	0.413606
	C9477	C	0.702269	0.314494	0.413624
	C9478	C	0.704067	0.253009	0.399963
	C9479	C	0.657822	0.252717	0.397481
	C9480	C	0.639382	0.752327	0.480732
	C9481	C	0.640251	0.814416	0.476141
	C9482	C	0.639831	0.690050	0.476136
	C9483	C	0.639388	0.252470	0.480677
	C9484	C	0.639861	0.314647	0.476113
	C9485	C	0.640247	0.190646	0.476050
	C9486	C	0.656063	0.190733	0.402017
	C9487	C	0.703890	0.190741	0.404569
	C9488	C	0.703273	0.314781	0.404595
	C9489	C	0.655426	0.315003	0.401875
	C9490	C	0.701860	0.252377	0.418212
	C9491	C	0.659333	0.043139	0.504533
	C9492	C	0.689319	0.043338	0.379557
	C9493	C	0.690610	0.962183	0.371383
	C9494	C	0.659327	0.962179	0.504535
	C9495	C	0.689355	0.962474	0.379575
	N9496	N	0.622549	0.070156	0.437551
	N9497	N	0.622553	0.935676	0.437554
	N9498	N	0.622068	0.435512	0.437496
	N9499	N	0.622027	0.570160	0.437503
	N9500	N	0.655988	0.435451	0.505871
	N9501	N	0.656016	0.569975	0.505864
	N9502	N	0.656006	0.069720	0.505904
	N9503	N	0.656049	0.935284	0.505888
	O9504	O	0.746114	0.694749	0.549267
	O9505	O	0.745931	0.811314	0.549354
	O9506	O	0.615506	0.694656	0.577770
	O9507	O	0.615590	0.810772	0.577758
	O9508	O	0.615431	0.194524	0.577841
	O9509	O	0.615766	0.310842	0.577770
	O9510	O	0.613321	0.694553	0.559069
	O9511	O	0.613335	0.811335	0.559071
	O9512	O	0.613382	0.194267	0.559145
	O9513	O	0.613341	0.311174	0.559154
	O9514	O	0.748302	0.693880	0.567986
	O9515	O	0.748352	0.810783	0.568011
	O9516	O	0.748319	0.194489	0.568015
	O9517	O	0.748516	0.311450	0.568051
	O9518	O	0.746010	0.194926	0.549389
	O9519	O	0.746000	0.311259	0.549357
	O9520	O	0.677925	0.694877	0.515200
	O9521	O	0.641720	0.694084	0.516579
	O9522	O	0.719910	0.694666	0.610518
	O9523	O	0.719778	0.811024	0.610498
	O9524	O	0.683732	0.694077	0.611915
	O9525	O	0.683626	0.810268	0.611935
	O9526	O	0.641558	0.810609	0.516514
	O9527	O	0.677931	0.811282	0.515187
	O9528	O	0.677859	0.194680	0.515200
	O9529	O	0.641731	0.194373	0.516596
	O9530	O	0.719889	0.194435	0.610544
	O9531	O	0.719995	0.310867	0.610538
	O9532	O	0.683671	0.194344	0.611964
	O9533	O	0.683857	0.310747	0.611896
	O9534	O	0.641364	0.310810	0.516487
	O9535	O	0.677767	0.311033	0.515222
	H9536	H	0.637453	0.644758	0.588693
	H9537	H	0.637485	0.860135	0.588699
	H9538	H	0.637679	0.143604	0.588616
	H9539	H	0.637551	0.361155	0.588708
	H9540	H	0.624459	0.862319	0.545799
	H9541	H	0.624431	0.643497	0.545874
	H9542	H	0.624118	0.362372	0.545839
	H9543	H	0.625000	0.143581	0.546021
	H9544	H	0.768967	0.064142	0.558887
	H9545	H	0.768721	0.064432	0.558408
	H9546	H	0.768781	0.940802	0.558402
	H9547	H	0.768971	0.940967	0.558922
	H9548	H	0.767910	0.063932	0.559381
	H9549	H	0.767791	0.940944	0.559342
	H9550	H	0.593689	0.064123	0.566017
	H9551	H	0.593762	0.940649	0.566014
	H9552	H	0.589859	0.064354	0.566699
	H9553	H	0.589865	0.940605	0.566731
	H9554	H	0.589322	0.064442	0.569468
	H9555	H	0.589355	0.940709	0.569536
	H9556	H	0.599978	0.440864	0.569311
	H9557	H	0.598740	0.441228	0.566821
	H9558	H	0.594649	0.440883	0.571432
	H9559	H	0.761615	0.441164	0.559296
	H9560	H	0.763976	0.440884	0.556067
	H9561	H	0.769373	0.440895	0.555690
	H9562	H	0.598745	0.564069	0.566765
	H9563	H	0.599889	0.564737	0.569226
	H9564	H	0.769284	0.564191	0.555733
	H9565	H	0.764032	0.564309	0.556085
	H9566	H	0.761633	0.564162	0.559271
	H9567	H	0.594590	0.564401	0.571372
	H9568	H	0.737302	0.642895	0.581263
	H9569	H	0.737044	0.861778	0.581190
	H9570	H	0.736936	0.143314	0.581189
	H9571	H	0.736927	0.362552	0.581200
	H9572	H	0.633551	0.643469	0.530413
	H9573	H	0.700124	0.644831	0.525993
	H9574	H	0.699778	0.861482	0.526130
	H9575	H	0.633586	0.861948	0.530331
	H9576	H	0.724260	0.644677	0.538382
	H9577	H	0.723928	0.861577	0.538518
	H9578	H	0.728147	0.643250	0.596727
	H9579	H	0.727859	0.861941	0.596651
	H9580	H	0.663756	0.440540	0.503634
	H9581	H	0.705428	0.441421	0.621055
	H9582	H	0.663698	0.441516	0.508704
	H9583	H	0.656860	0.441342	0.510451
	H9584	H	0.705265	0.441309	0.621305
	H9585	H	0.705165	0.441486	0.621157
	H9586	H	0.705388	0.564435	0.621049
	H9587	H	0.663753	0.564232	0.503590
	H9588	H	0.705195	0.564699	0.621186
	H9589	H	0.705321	0.564842	0.621339
	H9590	H	0.656862	0.564847	0.510374
	H9591	H	0.663771	0.564173	0.508715
	H9592	H	0.727761	0.143169	0.596658
	H9593	H	0.727758	0.362440	0.596649
	H9594	H	0.654678	0.064732	0.509016
	H9595	H	0.660201	0.064095	0.508557
	H9596	H	0.649404	0.064753	0.506127
	H9597	H	0.661686	0.859752	0.601056
	H9598	H	0.661696	0.644740	0.601069
	H9599	H	0.661594	0.361174	0.601062
	H9600	H	0.661768	0.143726	0.601058
	H9601	H	0.634106	0.143334	0.530537
	H9602	H	0.699706	0.144838	0.526133
	H9603	H	0.699928	0.361631	0.526046
	H9604	H	0.633138	0.362272	0.530335
	H9605	H	0.723969	0.144280	0.538483
	H9606	H	0.724151	0.361734	0.538402
	H9607	H	0.699066	0.064302	0.619138
	H9608	H	0.698380	0.064497	0.622072
	H9609	H	0.705180	0.064598	0.624722
	H9610	H	0.660205	0.941425	0.508565
	H9611	H	0.654733	0.941105	0.509023
	H9612	H	0.649448	0.940816	0.506083
	H9613	H	0.699027	0.941231	0.619123
	H9614	H	0.698279	0.940798	0.622103
	H9615	H	0.705202	0.941078	0.624732
	Zn9616	Zn	0.593922	0.680163	0.568383
	Zn9617	Zn	0.593940	0.825066	0.568442
	Zn9618	Zn	0.593812	0.180250	0.568431
	Zn9619	Zn	0.593995	0.325194	0.568503
	Zn9620	Zn	0.705478	0.680395	0.621230
	Zn9621	Zn	0.705338	0.825297	0.621208
	Zn9622	Zn	0.705329	0.180312	0.621278
	Zn9623	Zn	0.705421	0.325332	0.621222
	C9624	C	0.740243	0.753045	0.546543
	C9625	C	0.621319	0.752655	0.580570
	C9626	C	0.635994	0.752442	0.587960
	C9627	C	0.642835	0.691455	0.591459
	C9628	C	0.642838	0.813329	0.591456
	C9629	C	0.621436	0.252538	0.580581
	C9630	C	0.636250	0.252340	0.587899
	C9631	C	0.643004	0.190744	0.591407
	C9632	C	0.642940	0.313806	0.591451
	C9633	C	0.616670	0.752965	0.555734
	C9634	C	0.623964	0.752957	0.546760
	C9635	C	0.626618	0.814823	0.542392
	C9636	C	0.626588	0.690980	0.542431
	C9637	C	0.616747	0.252754	0.555832
	C9638	C	0.624042	0.252912	0.546847
	C9639	C	0.626459	0.314878	0.542432
	C9640	C	0.626951	0.191001	0.542540
	C9641	C	0.768606	0.043033	0.558677
	C9642	C	0.768586	0.962146	0.558691
	C9643	C	0.592218	0.043017	0.566893
	C9644	C	0.592274	0.961951	0.566912
	C9645	C	0.591695	0.043056	0.569671
	C9646	C	0.591753	0.962192	0.569691
	C9647	C	0.597803	0.462114	0.568165
	C9648	C	0.764571	0.462345	0.559907
	C9649	C	0.767016	0.462209	0.556620
	C9650	C	0.597828	0.542834	0.568135
	C9651	C	0.766993	0.543057	0.556627
	C9652	C	0.764575	0.542901	0.559882
	C9653	C	0.744960	0.752296	0.571313
	C9654	C	0.744985	0.253015	0.571337
	C9655	C	0.737697	0.752257	0.580296
	C9656	C	0.735103	0.690392	0.584669
	C9657	C	0.734937	0.814276	0.584629
	C9658	C	0.737540	0.252943	0.580290
	C9659	C	0.734797	0.190867	0.584627
	C9660	C	0.734796	0.314957	0.584629
	C9661	C	0.740235	0.253025	0.546556
	C9662	C	0.683692	0.753093	0.517989
	C9663	C	0.639387	0.752422	0.520127
	C9664	C	0.677886	0.752109	0.609149
	C9665	C	0.718804	0.691733	0.535660
	C9666	C	0.718636	0.814513	0.535727
	C9667	C	0.698452	0.753155	0.525351
	C9668	C	0.633894	0.752702	0.529405
	C9669	C	0.631582	0.690912	0.533837
	C9670	C	0.705376	0.691767	0.528798
	C9671	C	0.705216	0.814550	0.528866
	C9672	C	0.631597	0.814609	0.533797
	C9673	C	0.725498	0.753110	0.539196
	C9674	C	0.722133	0.752812	0.606920
	C9675	C	0.730076	0.690628	0.593257
	C9676	C	0.729903	0.814385	0.593216
	C9677	C	0.727620	0.752578	0.597635
	C9678	C	0.705577	0.462743	0.621113
	C9679	C	0.659117	0.462470	0.508608
	C9680	C	0.705341	0.462618	0.621235
	C9681	C	0.705609	0.543462	0.621120
	C9682	C	0.705347	0.543410	0.621243
	C9683	C	0.659156	0.543170	0.508594
	C9684	C	0.722149	0.252606	0.606942
	C9685	C	0.729829	0.190708	0.593226
	C9686	C	0.729822	0.314791	0.593227
	C9687	C	0.727565	0.252717	0.597645
	C9688	C	0.657052	0.042975	0.508028
	C9689	C	0.683640	0.252905	0.517976
	C9690	C	0.639366	0.252684	0.520152
	C9691	C	0.677996	0.252573	0.609137
	C9692	C	0.718588	0.191575	0.535723
	C9693	C	0.718689	0.314513	0.535682
	C9694	C	0.698408	0.253141	0.525324
	C9695	C	0.633971	0.252767	0.529466
	C9696	C	0.663100	0.752224	0.601800
	C9697	C	0.656258	0.813171	0.598313
	C9698	C	0.656274	0.691382	0.598316
	C9699	C	0.663288	0.252460	0.601772
	C9700	C	0.656395	0.313845	0.598290
	C9701	C	0.656476	0.190902	0.598256
	C9702	C	0.631911	0.190939	0.533936
	C9703	C	0.705174	0.191733	0.528852
	C9704	C	0.705266	0.314512	0.528822
	C9705	C	0.631406	0.314762	0.533829
	C9706	C	0.725505	0.252990	0.539182
	C9707	C	0.700496	0.043356	0.620776
	C9708	C	0.651725	0.043016	0.505123
	C9709	C	0.657059	0.962287	0.508023
	C9710	C	0.700494	0.962460	0.620776
	C9711	C	0.651747	0.962105	0.505133
	N9712	N	0.593632	0.069938	0.568403
	N9713	N	0.593695	0.935314	0.568431
	N9714	N	0.593792	0.435325	0.568487
	N9715	N	0.593823	0.569903	0.568419
	N9716	N	0.705553	0.435742	0.621192
	N9717	N	0.705545	0.570310	0.621203
	N9718	N	0.705446	0.070254	0.621223
	N9719	N	0.705461	0.935678	0.621224
	O9720	O	0.718903	0.694089	0.678112
	O9721	O	0.718874	0.810936	0.678109
	O9722	O	0.658665	0.693997	0.695109
	O9723	O	0.658762	0.810733	0.695082
	O9724	O	0.658872	0.194703	0.695034
	O9725	O	0.658515	0.311506	0.695061
	O9726	O	0.656990	0.694327	0.672970
	O9727	O	0.656972	0.810734	0.672953
	O9728	O	0.656939	0.195280	0.672960
	O9729	O	0.656952	0.311572	0.672977
	O9730	O	0.720460	0.694043	0.700196
	O9731	O	0.720631	0.810664	0.700237
	O9732	O	0.720666	0.194296	0.700206
	O9733	O	0.720772	0.310675	0.700227
	O9734	O	0.718751	0.194481	0.678163
	O9735	O	0.718897	0.311179	0.678138
	O9736	O	0.721772	0.694760	0.632610
	O9737	O	0.686122	0.694329	0.630598
	O9738	O	0.691910	0.694176	0.742724
	O9739	O	0.691832	0.810881	0.742647
	O9740	O	0.656135	0.693346	0.740626
	O9741	O	0.656263	0.810299	0.740606
	O9742	O	0.685911	0.811055	0.630544
	O9743	O	0.721749	0.811441	0.632618
	O9744	O	0.721653	0.194556	0.632666
	O9745	O	0.685994	0.194810	0.630573
	O9746	O	0.691859	0.193698	0.742700
	O9747	O	0.691743	0.310607	0.742688
	O9748	O	0.656246	0.194235	0.740545
	O9749	O	0.656189	0.310856	0.740637
	O9750	O	0.686105	0.311494	0.630591
	O9751	O	0.721715	0.311369	0.632619
	H9752	H	0.658952	0.642414	0.709720
	H9753	H	0.658690	0.861936	0.709775
	H9754	H	0.659024	0.143618	0.709660
	H9755	H	0.658714	0.362880	0.709737
	H9756	H	0.665307	0.861849	0.659160
	H9757	H	0.664884	0.642996	0.659108
	H9758	H	0.665155	0.362864	0.659149
	H9759	H	0.665001	0.143969	0.659109
	H9760	H	0.737540	0.064330	0.686850
	H9761	H	0.732127	0.064073	0.686692
	H9762	H	0.732144	0.940925	0.686727
	H9763	H	0.737516	0.940872	0.686810
	H9764	H	0.741442	0.064516	0.689920
	H9765	H	0.741415	0.941197	0.689883
	H9766	H	0.641834	0.064203	0.681924
	H9767	H	0.641900	0.941051	0.681922
	H9768	H	0.639330	0.064433	0.682751
	H9769	H	0.639336	0.940753	0.682709
	H9770	H	0.639824	0.064408	0.684737
	H9771	H	0.639765	0.940937	0.684710
	H9772	H	0.645729	0.441212	0.682790
	H9773	H	0.643030	0.441504	0.681868
	H9774	H	0.645409	0.440596	0.684880
	H9775	H	0.741963	0.441172	0.693337
	H9776	H	0.730472	0.440472	0.693590
	H9777	H	0.725350	0.440276	0.690212
	H9778	H	0.643069	0.564483	0.681900
	H9779	H	0.645690	0.564722	0.682811
	H9780	H	0.725315	0.564305	0.690289
	H9781	H	0.730443	0.564052	0.693639
	H9782	H	0.741966	0.564566	0.693335
	H9783	H	0.645427	0.564108	0.684919
	H9784	H	0.712494	0.642732	0.714049
	H9785	H	0.713092	0.861540	0.714117
	H9786	H	0.712774	0.143047	0.714097
	H9787	H	0.712405	0.362057	0.714047
	H9788	H	0.674344	0.642929	0.643699
	H9789	H	0.721716	0.643250	0.647262
	H9790	H	0.721660	0.862829	0.647315
	H9791	H	0.674701	0.861882	0.643733
	H9792	H	0.718842	0.643186	0.663425
	H9793	H	0.718821	0.862221	0.663513
	H9794	H	0.703171	0.642568	0.729485
	H9795	H	0.703730	0.861930	0.729573
	H9796	H	0.705697	0.441569	0.621068
	H9797	H	0.662123	0.440734	0.755723
	H9798	H	0.705791	0.441188	0.621259
	H9799	H	0.705618	0.441179	0.621336
	H9800	H	0.684965	0.440769	0.754718
	H9801	H	0.677024	0.440710	0.758190
	H9802	H	0.662166	0.563863	0.755734
	H9803	H	0.705730	0.564816	0.621097
	H9804	H	0.676944	0.564134	0.758249
	H9805	H	0.685011	0.563996	0.754727
	H9806	H	0.705565	0.564683	0.621333
	H9807	H	0.705760	0.564938	0.621320
	H9808	H	0.703402	0.142825	0.729527
	H9809	H	0.703008	0.361999	0.729479
	H9810	H	0.711879	0.064979	0.619732
	H9811	H	0.706873	0.064363	0.617856
	H9812	H	0.710850	0.064980	0.623772
	H9813	H	0.656075	0.861536	0.725981
	H9814	H	0.656277	0.641951	0.725929
	H9815	H	0.655908	0.362794	0.725926
	H9816	H	0.656226	0.143276	0.725860
	H9817	H	0.674443	0.143872	0.643694
	H9818	H	0.721724	0.143085	0.647326
	H9819	H	0.721675	0.362479	0.647268
	H9820	H	0.674531	0.362914	0.643739
	H9821	H	0.718851	0.143110	0.663511
	H9822	H	0.718857	0.362562	0.663482
	H9823	H	0.673321	0.064080	0.749473
	H9824	H	0.668799	0.063876	0.749852
	H9825	H	0.667060	0.063934	0.752767
	H9826	H	0.706901	0.941693	0.617794
	H9827	H	0.711942	0.941309	0.619712
	H9828	H	0.710871	0.940931	0.623756
	H9829	H	0.673364	0.940557	0.749498
	H9830	H	0.668814	0.940539	0.749879
	H9831	H	0.667088	0.940619	0.752802
	Zn9832	Zn	0.642449	0.680184	0.683668
	Zn9833	Zn	0.642512	0.825279	0.683648
	Zn9834	Zn	0.642523	0.180182	0.683649
	Zn9835	Zn	0.642407	0.325144	0.683673
	Zn9836	Zn	0.672504	0.679687	0.752089
	Zn9837	Zn	0.672422	0.824983	0.752019
	Zn9838	Zn	0.672455	0.179905	0.752009
	Zn9839	Zn	0.672488	0.325159	0.752009
	C9840	C	0.718354	0.752526	0.674276
	C9841	C	0.659256	0.752403	0.698934
	C9842	C	0.659206	0.752270	0.708788
	C9843	C	0.658360	0.690015	0.713352
	C9844	C	0.658241	0.814231	0.713380
	C9845	C	0.659297	0.253092	0.698878
	C9846	C	0.659216	0.253237	0.708729
	C9847	C	0.658388	0.191164	0.713287
	C9848	C	0.658204	0.315192	0.713331
	C9849	C	0.659239	0.752502	0.669371
	C9850	C	0.664785	0.752481	0.660090
	C9851	C	0.667268	0.814339	0.655706
	C9852	C	0.667050	0.690505	0.655682
	C9853	C	0.659232	0.253471	0.669383
	C9854	C	0.664790	0.253474	0.660107
	C9855	C	0.667131	0.315426	0.655711
	C9856	C	0.667120	0.191505	0.655692
	C9857	C	0.734857	0.042917	0.687498
	C9858	C	0.734834	0.962198	0.687506
	C9859	C	0.641198	0.043066	0.682690
	C9860	C	0.641210	0.962268	0.682679
	C9861	C	0.641661	0.043112	0.684733
	C9862	C	0.641653	0.962355	0.684712
	C9863	C	0.643887	0.462278	0.682687
	C9864	C	0.741330	0.462152	0.690985
	C9865	C	0.729768	0.461922	0.691292
	C9866	C	0.643938	0.543129	0.682698
	C9867	C	0.729760	0.542964	0.691312
	C9868	C	0.741344	0.543032	0.690991
	C9869	C	0.718360	0.752320	0.703809
	C9870	C	0.718460	0.252483	0.703810
	C9871	C	0.712937	0.752258	0.713131
	C9872	C	0.710490	0.690177	0.717513
	C9873	C	0.710806	0.814228	0.717546
	C9874	C	0.712966	0.252481	0.713127
	C9875	C	0.710698	0.190522	0.717547
	C9876	C	0.710482	0.314481	0.717514
	C9877	C	0.718310	0.252798	0.674313
	C9878	C	0.722307	0.753085	0.636450
	C9879	C	0.682553	0.752667	0.633874
	C9880	C	0.655663	0.751737	0.736794
	C9881	C	0.719469	0.690783	0.659835
	C9882	C	0.719434	0.814774	0.659876
	C9883	C	0.722108	0.753104	0.646287
	C9884	C	0.675057	0.752542	0.642786
	C9885	C	0.672195	0.690546	0.647115
	C9886	C	0.721164	0.690974	0.650856
	C9887	C	0.721126	0.814972	0.650892
	C9888	C	0.672406	0.814352	0.647141
	C9889	C	0.718538	0.752685	0.664438
	C9890	C	0.695320	0.752419	0.739381
	C9891	C	0.705436	0.690176	0.726094
	C9892	C	0.705749	0.814241	0.726131
	C9893	C	0.702810	0.752241	0.730451
	C9894	C	0.663830	0.461902	0.752807
	C9895	C	0.705691	0.462551	0.621287
	C9896	C	0.678703	0.461987	0.755305
	C9897	C	0.663825	0.542783	0.752826
	C9898	C	0.678708	0.542795	0.755315
	C9899	C	0.705679	0.543522	0.621296
	C9900	C	0.695242	0.252133	0.739398
	C9901	C	0.705590	0.190496	0.726123
	C9902	C	0.705370	0.314363	0.726099
	C9903	C	0.702757	0.252278	0.730471
	C9904	C	0.708350	0.043324	0.619438
	C9905	C	0.722220	0.253060	0.636470
	C9906	C	0.682589	0.253228	0.633885
	C9907	C	0.655662	0.252751	0.736748
	C9908	C	0.719441	0.190802	0.659905
	C9909	C	0.719427	0.314874	0.659870
	C9910	C	0.722053	0.252854	0.646315
	C9911	C	0.675035	0.253421	0.642799
	C9912	C	0.655787	0.751799	0.726944
	C9913	C	0.656652	0.813975	0.722371
	C9914	C	0.656769	0.689748	0.722347
	C9915	C	0.655753	0.253072	0.726897
	C9916	C	0.656543	0.315130	0.722318
	C9917	C	0.656730	0.191093	0.722276
	C9918	C	0.672268	0.191429	0.647126
	C9919	C	0.721132	0.190865	0.650920
	C9920	C	0.721110	0.314908	0.650884
	C9921	C	0.672274	0.315401	0.647149
	C9922	C	0.718490	0.252857	0.664473
	C9923	C	0.671354	0.042695	0.750278
	C9924	C	0.707334	0.043431	0.623448
	C9925	C	0.708381	0.962720	0.619423
	C9926	C	0.671381	0.961812	0.750316
	C9927	C	0.707381	0.962412	0.623452
	N9928	N	0.642658	0.070054	0.683701
	N9929	N	0.642656	0.935494	0.683673
	N9930	N	0.642472	0.435247	0.683648
	N9931	N	0.642501	0.569772	0.683659
	N9932	N	0.672476	0.435060	0.752043
	N9933	N	0.672476	0.569582	0.752070
	N9934	N	0.672291	0.069674	0.752025
	N9935	N	0.672304	0.935101	0.752068
	O9936	O	0.762280	0.694587	0.795501
	O9937	O	0.762206	0.810520	0.795523
	O9938	O	0.631821	0.694753	0.823836
	O9939	O	0.631902	0.810692	0.823811
	O9940	O	0.631751	0.194378	0.823877
	O9941	O	0.631802	0.310492	0.823844
	O9942	O	0.629418	0.693705	0.805201
	O9943	O	0.629535	0.810494	0.805188
	O9944	O	0.629440	0.194556	0.805201
	O9945	O	0.629620	0.311437	0.805243
	O9946	O	0.764382	0.694043	0.814120
	O9947	O	0.764551	0.810851	0.814158
	O9948	O	0.764392	0.193972	0.814143
	O9949	O	0.764621	0.310750	0.814177
	O9950	O	0.762207	0.194585	0.795533
	O9951	O	0.762370	0.310952	0.795471
	O9952	O	0.694240	0.694818	0.761321
	O9953	O	0.657806	0.693756	0.762684
	O9954	O	0.736183	0.694579	0.856696
	O9955	O	0.736119	0.811051	0.856679
	O9956	O	0.699832	0.694260	0.858051
	O9957	O	0.699809	0.810471	0.858076
	O9958	O	0.658135	0.810196	0.762778
	O9959	O	0.694217	0.810917	0.761302
	O9960	O	0.694060	0.194267	0.761375
	O9961	O	0.657967	0.194374	0.762692
	O9962	O	0.736261	0.194058	0.856690
	O9963	O	0.736219	0.310574	0.856690
	O9964	O	0.699718	0.194695	0.858111
	O9965	O	0.699843	0.310839	0.858073
	O9966	O	0.657893	0.310888	0.762671
	O9967	O	0.694228	0.310535	0.761315
	H9968	H	0.653593	0.644956	0.834758
	H9969	H	0.653745	0.860298	0.834746
	H9970	H	0.653645	0.144441	0.834825
	H9971	H	0.653646	0.361000	0.834763
	H9972	H	0.641047	0.861204	0.792057
	H9973	H	0.640389	0.642495	0.791971
	H9974	H	0.640639	0.362477	0.791989
	H9975	H	0.640811	0.143738	0.792043
	H9976	H	0.785112	0.064071	0.805684
	H9977	H	0.786077	0.063993	0.805042
	H9978	H	0.786309	0.941100	0.805011
	H9979	H	0.785179	0.941042	0.805709
	H9980	H	0.782569	0.064210	0.805521
	H9981	H	0.782691	0.940871	0.805535
	H9982	H	0.611936	0.063605	0.814905
	H9983	H	0.611921	0.939952	0.814892
	H9984	H	0.611920	0.063868	0.814099
	H9985	H	0.611839	0.940484	0.814087
	H9986	H	0.609845	0.064141	0.813574
	H9987	H	0.609920	0.940552	0.813599
	H9988	H	0.609047	0.440785	0.818250
	H9989	H	0.615340	0.440961	0.817496
	H9990	H	0.602421	0.439939	0.815031
	H9991	H	0.786251	0.440911	0.805202
	H9992	H	0.784207	0.440327	0.805929
	H9993	H	0.782508	0.440434	0.805530
	H9994	H	0.615248	0.563759	0.817508
	H9995	H	0.609058	0.563870	0.818219
	H9996	H	0.782456	0.564477	0.805447
	H9997	H	0.784146	0.564191	0.805886
	H9998	H	0.786169	0.563870	0.805214
	H9999	H	0.602519	0.564135	0.815079
	H10000	H	0.753122	0.642893	0.827352
	H10001	H	0.753206	0.861622	0.827325
	H10002	H	0.753401	0.142886	0.827407
	H10003	H	0.753315	0.362177	0.827396
	H10004	H	0.649549	0.642426	0.776493
	H10005	H	0.716139	0.645313	0.772197
	H10006	H	0.715921	0.859930	0.772273
	H10007	H	0.650117	0.861225	0.776580
	H10008	H	0.740319	0.645239	0.784573
	H10009	H	0.740138	0.860005	0.784663
	H10010	H	0.744031	0.643199	0.842845
	H10011	H	0.744080	0.862254	0.842762
	H10012	H	0.659391	0.440261	0.750452
	H10013	H	0.727966	0.440938	0.869897
	H10014	H	0.670535	0.440657	0.745673
	H10015	H	0.681300	0.440824	0.747527
	H10016	H	0.723058	0.441474	0.863799
	H10017	H	0.728461	0.440989	0.865640
	H10018	H	0.727858	0.564810	0.869839
	H10019	H	0.659420	0.563963	0.750461
	H10020	H	0.728364	0.564870	0.865650
	H10021	H	0.722966	0.564255	0.863810
	H10022	H	0.681269	0.563809	0.747560
	H10023	H	0.670435	0.564471	0.745740
	H10024	H	0.744336	0.142756	0.842884
	H10025	H	0.744213	0.362104	0.842862
	H10026	H	0.676634	0.064055	0.753872
	H10027	H	0.677859	0.063826	0.751733
	H10028	H	0.670461	0.064123	0.754458
	H10029	H	0.677933	0.860235	0.847113
	H10030	H	0.677769	0.644813	0.847139
	H10031	H	0.677844	0.360984	0.847150
	H10032	H	0.677829	0.144669	0.847212
	H10033	H	0.649941	0.143532	0.776572
	H10034	H	0.715938	0.143717	0.772353
	H10035	H	0.716210	0.361070	0.772205
	H10036	H	0.649785	0.362330	0.776510
	H10037	H	0.740251	0.144070	0.784704
	H10038	H	0.740426	0.361114	0.784546
	H10039	H	0.713813	0.064115	0.864937
	H10040	H	0.713122	0.063560	0.868543
	H10041	H	0.721690	0.064374	0.871617
	H10042	H	0.677754	0.940682	0.751775
	H10043	H	0.676664	0.940812	0.753927
	H10044	H	0.670461	0.940600	0.754463
	H10045	H	0.713789	0.940790	0.864914
	H10046	H	0.713103	0.940902	0.868593
	H10047	H	0.721642	0.940629	0.871668
	Zn10048	Zn	0.610173	0.679561	0.814563
	Zn10049	Zn	0.610162	0.824834	0.814511
	Zn10050	Zn	0.610113	0.179610	0.814516
	Zn10051	Zn	0.610099	0.324917	0.814520
	Zn10052	Zn	0.721629	0.679646	0.867357
	Zn10053	Zn	0.721555	0.825004	0.867387
	Zn10054	Zn	0.721585	0.179674	0.867337
	Zn10055	Zn	0.721699	0.325196	0.867379
	C10056	C	0.756452	0.752505	0.792712
	C10057	C	0.637595	0.752696	0.826629
	C10058	C	0.652217	0.752611	0.834032
	C10059	C	0.658997	0.691564	0.837525
	C10060	C	0.659072	0.813599	0.837515
	C10061	C	0.637587	0.252465	0.826644
	C10062	C	0.652312	0.252645	0.834004
	C10063	C	0.659071	0.191517	0.837550
	C10064	C	0.659084	0.313957	0.837509
	C10065	C	0.632888	0.752043	0.801889
	C10066	C	0.640271	0.751874	0.792941
	C10067	C	0.643055	0.813810	0.788610
	C10068	C	0.642699	0.689860	0.788564
	C10069	C	0.632908	0.253007	0.801905
	C10070	C	0.640212	0.253017	0.792931
	C10071	C	0.642837	0.314999	0.788559
	C10072	C	0.642947	0.191151	0.788597
	C10073	C	0.785260	0.042782	0.805211
	C10074	C	0.785294	0.962174	0.805198
	C10075	C	0.611370	0.042569	0.814485
	C10076	C	0.611395	0.961663	0.814483
	C10077	C	0.609397	0.042745	0.813934
	C10078	C	0.609407	0.961839	0.813935
	C10079	C	0.611580	0.462049	0.816992
	C10080	C	0.785652	0.462184	0.804789
	C10081	C	0.783605	0.461754	0.805502
	C10082	C	0.611567	0.542423	0.816985
	C10083	C	0.783558	0.542969	0.805475
	C10084	C	0.785624	0.542750	0.804793
	C10085	C	0.761034	0.752443	0.817444
	C10086	C	0.761111	0.252388	0.817485
	C10087	C	0.753630	0.752327	0.826401
	C10088	C	0.750964	0.690459	0.830770
	C10089	C	0.750997	0.814286	0.830751
	C10090	C	0.753883	0.252491	0.826477
	C10091	C	0.751252	0.190466	0.830833
	C10092	C	0.751199	0.314546	0.830825
	C10093	C	0.756525	0.252753	0.792702
	C10094	C	0.700000	0.752866	0.764103
	C10095	C	0.655773	0.751885	0.766322
	C10096	C	0.693999	0.752381	0.855284
	C10097	C	0.734924	0.691847	0.781826
	C10098	C	0.734818	0.813349	0.781868
	C10099	C	0.714694	0.752631	0.771462
	C10100	C	0.650263	0.751843	0.775611
	C10101	C	0.647711	0.689831	0.779970
	C10102	C	0.721513	0.691882	0.774960
	C10103	C	0.721403	0.813407	0.774995
	C10104	C	0.648068	0.813765	0.780027
	C10105	C	0.741746	0.752539	0.785329
	C10106	C	0.738337	0.752825	0.853080
	C10107	C	0.746006	0.690611	0.839378
	C10108	C	0.746038	0.814489	0.839344
	C10109	C	0.743700	0.752672	0.843772
	C10110	C	0.724238	0.462243	0.869667
	C10111	C	0.674963	0.461981	0.748041
	C10112	C	0.724747	0.462236	0.865420
	C10113	C	0.724233	0.543076	0.869648
	C10114	C	0.724726	0.543137	0.865421
	C10115	C	0.674947	0.542691	0.748047
	C10116	C	0.738466	0.252306	0.853103
	C10117	C	0.746268	0.190381	0.839425
	C10118	C	0.746203	0.314518	0.839418
	C10119	C	0.743909	0.252378	0.843819
	C10120	C	0.675926	0.042863	0.752599
	C10121	C	0.699955	0.252370	0.764130
	C10122	C	0.655639	0.252690	0.766258
	C10123	C	0.693984	0.252810	0.855297
	C10124	C	0.734890	0.191127	0.781898
	C10125	C	0.735001	0.313923	0.781821
	C10126	C	0.714720	0.252367	0.771475
	C10127	C	0.650137	0.252843	0.775555
	C10128	C	0.679223	0.752503	0.847930
	C10129	C	0.672462	0.813423	0.844401
	C10130	C	0.672368	0.691623	0.844417
	C10131	C	0.679311	0.252842	0.847903
	C10132	C	0.672486	0.314004	0.844382
	C10133	C	0.672478	0.191676	0.844421
	C10134	C	0.647897	0.191091	0.779997
	C10135	C	0.721452	0.190933	0.775037
	C10136	C	0.721576	0.313901	0.774959
	C10137	C	0.647820	0.314903	0.779961
	C10138	C	0.741828	0.252580	0.785328
	C10139	C	0.715650	0.042606	0.866900
	C10140	C	0.669669	0.042668	0.753192
	C10141	C	0.675885	0.962037	0.752636
	C10142	C	0.715652	0.962237	0.866910
	C10143	C	0.669674	0.961829	0.753204
	N10144	N	0.610063	0.069499	0.814482
	N10145	N	0.610091	0.934933	0.814480
	N10146	N	0.610050	0.434890	0.814554
	N10147	N	0.610034	0.569366	0.814574
	N10148	N	0.721932	0.435173	0.867398
	N10149	N	0.721924	0.569662	0.867372
	N10150	N	0.721716	0.069794	0.867311
	N10151	N	0.721685	0.935274	0.867350
	O10152	O	0.738266	0.694428	0.924520
	O10153	O	0.738294	0.811202	0.924507
	O10154	O	0.674696	0.694257	0.941376
	O10155	O	0.674918	0.811209	0.941350
	O10156	O	0.674915	0.194107	0.941371
	O10157	O	0.674724	0.311061	0.941416
	O10158	O	0.673504	0.694024	0.919150
	O10159	O	0.673505	0.810616	0.919145
	O10160	O	0.673528	0.194321	0.919168
	O10161	O	0.673394	0.310640	0.919136
	O10162	O	0.736978	0.694055	0.945342
	O10163	O	0.736999	0.810685	0.945385
	O10164	O	0.737027	0.194198	0.945375
	O10165	O	0.736863	0.310967	0.945277
	O10166	O	0.738282	0.193969	0.924530
	O10167	O	0.738319	0.310816	0.924458
	O10168	O	0.737497	0.694598	0.878865
	O10169	O	0.702209	0.693819	0.876692
	O10170	O	0.711073	0.693071	0.988525
	O10171	O	0.711511	0.809943	0.988630
	O10172	O	0.675550	0.695424	0.987039
	O10173	O	0.675963	0.812122	0.986981
	O10174	O	0.702100	0.810478	0.876662
	O10175	O	0.737461	0.811602	0.878912
	O10176	O	0.737429	0.193510	0.878890
	O10177	O	0.702166	0.194104	0.876678
	O10178	O	0.711505	0.195246	0.988629
	O10179	O	0.711013	0.311850	0.988509
	O10180	O	0.675986	0.192968	0.987000
	O10181	O	0.675605	0.309878	0.987038
	O10182	O	0.702151	0.310970	0.876670
	O10183	O	0.737528	0.310449	0.878911
	H10184	H	0.674641	0.643160	0.956065
	H10185	H	0.675782	0.862903	0.956015
	H10186	H	0.675703	0.142569	0.956002
	H10187	H	0.674835	0.362172	0.956053
	H10188	H	0.681651	0.861506	0.905336
	H10189	H	0.681662	0.642595	0.905349
	H10190	H	0.681339	0.361807	0.905283
	H10191	H	0.681694	0.142982	0.905354
	H10192	H	0.760677	0.064331	0.932414
	H10193	H	0.753199	0.064419	0.931441
	H10194	H	0.753158	0.941235	0.931445
	H10195	H	0.760561	0.940744	0.932446
	H10196	H	0.763951	0.064165	0.937192
	H10197	H	0.763925	0.941092	0.937245
	H10198	H	0.651983	0.064330	0.932262
	H10199	H	0.651969	0.940964	0.932207
	H10200	H	0.658729	0.064695	0.934149
	H10201	H	0.658594	0.941100	0.934130
	H10202	H	0.667356	0.064559	0.931757
	H10203	H	0.667231	0.940690	0.931713
	H10204	H	0.666381	0.440839	0.933195
	H10205	H	0.668731	0.440828	0.929559
	H10206	H	0.655466	0.440535	0.934062
	H10207	H	0.733116	0.441566	0.935691
	H10208	H	0.746496	0.440986	0.925688
	H10209	H	0.765140	0.441272	0.926491
	H10210	H	0.668762	0.564400	0.929501
	H10211	H	0.666456	0.564423	0.933151
	H10212	H	0.765232	0.564767	0.926536
	H10213	H	0.746529	0.564781	0.925685
	H10214	H	0.733193	0.564440	0.935675
	H10215	H	0.655472	0.564107	0.934093
	H10216	H	0.727676	0.641855	0.959063
	H10217	H	0.728250	0.861732	0.959203
	H10218	H	0.728486	0.143225	0.959227
	H10219	H	0.727551	0.362841	0.958989
	H10220	H	0.690947	0.642408	0.889915
	H10221	H	0.737520	0.643027	0.893510
	H10222	H	0.738310	0.862752	0.893567
	H10223	H	0.690906	0.861587	0.889872
	H10224	H	0.735903	0.642861	0.909789
	H10225	H	0.736767	0.862870	0.909843
	H10226	H	0.719995	0.641650	0.974782
	H10227	H	0.720643	0.861525	0.974900
	H10228	H	0.722116	0.441259	0.871075
	H10229	H	0.690125	0.440807	1.004486
	H10230	H	0.714711	0.440767	0.868504
	H10231	H	0.715027	0.440740	0.865403
	H10232	H	0.705542	0.441672	0.996443
	H10233	H	0.704409	0.441152	1.001859
	H10234	H	0.690105	0.564585	1.004463
	H10235	H	0.722144	0.564218	0.871030
	H10236	H	0.704381	0.564762	1.001793
	H10237	H	0.705546	0.564128	0.996431
	H10238	H	0.715077	0.563750	0.865361
	H10239	H	0.714766	0.564063	0.868524
	H10240	H	0.720756	0.143532	0.974896
	H10241	H	0.719751	0.363110	0.974667
	H10242	H	0.729511	0.063548	0.865351
	H10243	H	0.723234	0.064317	0.863148
	H10244	H	0.728634	0.063867	0.870330
	H10245	H	0.674453	0.863591	0.972319
	H10246	H	0.673249	0.643661	0.972353
	H10247	H	0.673459	0.361886	0.972331
	H10248	H	0.674290	0.141963	0.972299
	H10249	H	0.691034	0.142870	0.889902
	H10250	H	0.737992	0.141966	0.893537
	H10251	H	0.737694	0.361769	0.893535
	H10252	H	0.690663	0.361900	0.889832
	H10253	H	0.736574	0.142008	0.909839
	H10254	H	0.736240	0.361811	0.909814
	H10255	H	0.704689	0.064988	0.990914
	H10256	H	0.688255	0.065001	0.988894
	H10257	H	0.673321	0.063951	0.996689
	H10258	H	0.723217	0.940140	0.863180
	H10259	H	0.729406	0.940581	0.865427
	H10260	H	0.728553	0.940944	0.870356
	H10261	H	0.704625	0.941448	0.990878
	H10262	H	0.688188	0.941108	0.988891
	H10263	H	0.673284	0.941000	0.996692
	Zn10264	Zn	0.658915	0.680066	0.929826
	Zn10265	Zn	0.658918	0.825402	0.929825
	Zn10266	Zn	0.658903	0.180055	0.929882
	Zn10267	Zn	0.658942	0.325278	0.929875
	Zn10268	Zn	0.692572	0.680347	0.998173
	Zn10269	Zn	0.693058	0.825248	0.998243
	Zn10270	Zn	0.693047	0.180226	0.998256
	Zn10271	Zn	0.692637	0.325127	0.998176
	C10272	C	0.737180	0.752776	0.920692
	C10273	C	0.675444	0.752782	0.945193
	C10274	C	0.675708	0.753043	0.955057
	C10275	C	0.674726	0.691043	0.959684
	C10276	C	0.675368	0.815320	0.959661
	C10277	C	0.675455	0.252474	0.945215
	C10278	C	0.675784	0.252344	0.955072
	C10279	C	0.675317	0.190056	0.959654
	C10280	C	0.674833	0.314417	0.959683
	C10281	C	0.675796	0.752303	0.915574
	C10282	C	0.681389	0.752144	0.906302
	C10283	C	0.683711	0.814010	0.901883
	C10284	C	0.683723	0.690085	0.901910
	C10285	C	0.675716	0.252457	0.915560
	C10286	C	0.681260	0.252414	0.906270
	C10287	C	0.683488	0.314327	0.901851
	C10288	C	0.683684	0.190467	0.901887
	C10289	C	0.756493	0.043181	0.932920
	C10290	C	0.756477	0.962284	0.932924
	C10291	C	0.656345	0.043216	0.932338
	C10292	C	0.656336	0.962352	0.932313
	C10293	C	0.665044	0.043236	0.929965
	C10294	C	0.665023	0.962276	0.929941
	C10295	C	0.665419	0.462276	0.930968
	C10296	C	0.742297	0.462346	0.938676
	C10297	C	0.755697	0.462270	0.928621
	C10298	C	0.665412	0.543096	0.930946
	C10299	C	0.755718	0.543344	0.928632
	C10300	C	0.742320	0.543102	0.938692
	C10301	C	0.734182	0.752280	0.948862
	C10302	C	0.734103	0.252709	0.948817
	C10303	C	0.728156	0.751801	0.958105
	C10304	C	0.725971	0.689594	0.962562
	C10305	C	0.726288	0.813850	0.962632
	C10306	C	0.728124	0.252966	0.958072
	C10307	C	0.726411	0.191063	0.962625
	C10308	C	0.725902	0.315157	0.962501
	C10309	C	0.737179	0.252220	0.920689
	C10310	C	0.738060	0.752988	0.882710
	C10311	C	0.698780	0.752156	0.880002
	C10312	C	0.674688	0.753701	0.983191
	C10313	C	0.736431	0.690644	0.906192
	C10314	C	0.736870	0.815111	0.906221
	C10315	C	0.738305	0.752883	0.892567
	C10316	C	0.691451	0.752062	0.888962
	C10317	C	0.688749	0.690016	0.893323
	C10318	C	0.737415	0.690753	0.897157
	C10319	C	0.737836	0.815069	0.897187
	C10320	C	0.688746	0.814061	0.893296
	C10321	C	0.736153	0.752885	0.910811
	C10322	C	0.714076	0.751520	0.985076
	C10323	C	0.721806	0.689363	0.971292
	C10324	C	0.722164	0.813811	0.971368
	C10325	C	0.719924	0.751522	0.975792
	C10326	C	0.687368	0.462258	1.001541
	C10327	C	0.716739	0.462093	0.867075
	C10328	C	0.701705	0.462398	0.998894
	C10329	C	0.687375	0.543077	1.001527
	C10330	C	0.701731	0.543038	0.998882
	C10331	C	0.716770	0.542882	0.867083
	C10332	C	0.714000	0.253494	0.985047
	C10333	C	0.722270	0.191268	0.971360
	C10334	C	0.721746	0.315347	0.971237
	C10335	C	0.719940	0.253372	0.975791
	C10336	C	0.725147	0.042839	0.865072
	C10337	C	0.738115	0.251908	0.882727
	C10338	C	0.698742	0.252529	0.879985
	C10339	C	0.674729	0.251471	0.983212
	C10340	C	0.736716	0.189710	0.906202
	C10341	C	0.736552	0.314059	0.906196
	C10342	C	0.738289	0.251910	0.892571
	C10343	C	0.691408	0.252363	0.888940
	C10344	C	0.673658	0.753546	0.973322
	C10345	C	0.674440	0.815587	0.968700
	C10346	C	0.673795	0.691306	0.968721
	C10347	C	0.673659	0.251779	0.973318
	C10348	C	0.673891	0.314153	0.968718
	C10349	C	0.674354	0.189814	0.968691
	C10350	C	0.688775	0.190421	0.893310
	C10351	C	0.737688	0.189643	0.897165
	C10352	C	0.737534	0.314074	0.897164
	C10353	C	0.688587	0.314301	0.893271
	C10354	C	0.736199	0.251901	0.910812
	C10355	C	0.695567	0.043414	0.992101
	C10356	C	0.724271	0.042891	0.870022
	C10357	C	0.725159	0.961890	0.865092
	C10358	C	0.695558	0.962239	0.992088
	C10359	C	0.724240	0.961791	0.870043
	N10360	N	0.659161	0.070089	0.929870
	N10361	N	0.659082	0.935559	0.929836
	N10362	N	0.659211	0.435394	0.929865
	N10363	N	0.659203	0.569956	0.929859
	N10364	N	0.692662	0.435327	0.998165
	N10365	N	0.692645	0.569907	0.998139
	N10366	N	0.693168	0.069957	0.998231
	N10367	N	0.693138	0.935384	0.998223
	O10368	O	0.879211	0.694383	0.047410
	O10369	O	0.879205	0.810725	0.047440
	O10370	O	0.748384	0.694863	0.075844
	O10371	O	0.748274	0.811166	0.075849
	O10372	O	0.748307	0.194546	0.075905
	O10373	O	0.748331	0.310760	0.075857
	O10374	O	0.746219	0.694271	0.057219
	O10375	O	0.746157	0.810993	0.057186
	O10376	O	0.746094	0.194245	0.057229
	O10377	O	0.746061	0.311171	0.057230
	O10378	O	0.881523	0.694316	0.066070
	O10379	O	0.881558	0.810993	0.066080
	O10380	O	0.881667	0.194694	0.066101
	O10381	O	0.881564	0.311338	0.066119
	O10382	O	0.879202	0.194311	0.047456
	O10383	O	0.879242	0.310502	0.047431
	O10384	O	0.810803	0.694893	0.013371
	O10385	O	0.774469	0.694351	0.014660
	O10386	O	0.852881	0.694538	0.108587
	O10387	O	0.853069	0.811101	0.108625
	O10388	O	0.816652	0.694830	0.109921
	O10389	O	0.816643	0.811099	0.109909
	O10390	O	0.774730	0.810717	0.014742
	O10391	O	0.810904	0.811388	0.013367
	O10392	O	0.810689	0.194301	0.013414
	O10393	O	0.774720	0.194991	0.014764
	O10394	O	0.852913	0.194631	0.108559
	O10395	O	0.852876	0.311016	0.108546
	O10396	O	0.816615	0.194833	0.109940
	O10397	O	0.816732	0.311317	0.109849
	O10398	O	0.774595	0.311632	0.014730
	O10399	O	0.810899	0.310386	0.013340
	H10400	H	0.770488	0.645051	0.086681
	H10401	H	0.770260	0.861210	0.086723
	H10402	H	0.770337	0.144069	0.086785
	H10403	H	0.770351	0.361404	0.086747
	H10404	H	0.757553	0.861762	0.044034
	H10405	H	0.757360	0.643000	0.043986
	H10406	H	0.757177	0.362769	0.044004
	H10407	H	0.757668	0.143321	0.044056
	H10408	H	0.886302	0.064572	0.058395
	H10409	H	0.894927	0.064432	0.063388
	H10410	H	0.894792	0.941343	0.063376
	H10411	H	0.886183	0.941699	0.058380
	H10412	H	0.891936	0.064326	0.050557
	H10413	H	0.891989	0.941556	0.050545
	H10414	H	0.723077	0.064269	0.062359
	H10415	H	0.723003	0.941171	0.062355
	H10416	H	0.717833	0.064573	0.064866
	H10417	H	0.717876	0.941036	0.064862
	H10418	H	0.720904	0.065091	0.069749
	H10419	H	0.720964	0.941101	0.069789
	H10420	H	0.724211	0.440968	0.065342
	H10421	H	0.723103	0.441217	0.066566
	H10422	H	0.728128	0.440898	0.065114
	H10423	H	0.898216	0.441298	0.057326
	H10424	H	0.898888	0.441275	0.055652
	H10425	H	0.901342	0.441840	0.055222
	H10426	H	0.723059	0.564563	0.066539
	H10427	H	0.724110	0.564426	0.065282
	H10428	H	0.901355	0.564657	0.055212
	H10429	H	0.898838	0.564844	0.055639
	H10430	H	0.898227	0.564754	0.057328
	H10431	H	0.728271	0.564219	0.065065
	H10432	H	0.870035	0.643273	0.079268
	H10433	H	0.870573	0.862239	0.079378
	H10434	H	0.870483	0.143375	0.079301
	H10435	H	0.870228	0.362259	0.079265
	H10436	H	0.766581	0.643198	0.028546
	H10437	H	0.833013	0.644116	0.024164
	H10438	H	0.832785	0.861528	0.024290
	H10439	H	0.766840	0.861777	0.028592
	H10440	H	0.857301	0.644114	0.036491
	H10441	H	0.857110	0.861503	0.036591
	H10442	H	0.860844	0.643250	0.094730
	H10443	H	0.861500	0.861937	0.094844
	H10444	H	0.795241	0.441342	-0.000200
	H10445	H	0.834419	0.441363	0.119377
	H10446	H	0.799973	0.441496	0.005554
	H10447	H	0.794224	0.441218	0.008908
	H10448	H	0.840981	0.440908	0.120797
	H10449	H	0.837705	0.440973	0.121082
	H10450	H	0.834330	0.564889	0.119425
	H10451	H	0.795184	0.564856	-0.000224
	H10452	H	0.837628	0.564308	0.121062
	H10453	H	0.841003	0.564667	0.120835
	H10454	H	0.794252	0.564626	0.008914
	H10455	H	0.799991	0.564707	0.005522
	H10456	H	0.861188	0.143561	0.094747
	H10457	H	0.860876	0.362090	0.094688
	H10458	H	0.777078	0.064811	0.004895
	H10459	H	0.783294	0.064758	0.009007
	H10460	H	0.782707	0.065166	-0.001090
	H10461	H	0.794589	0.861349	0.099065
	H10462	H	0.794766	0.644963	0.099003
	H10463	H	0.794711	0.361343	0.099022
	H10464	H	0.794684	0.144236	0.099101
	H10465	H	0.766959	0.143567	0.028623
	H10466	H	0.832682	0.144189	0.024335
	H10467	H	0.832930	0.360399	0.024269
	H10468	H	0.766398	0.362929	0.028559
	H10469	H	0.857063	0.144358	0.036638
	H10470	H	0.857258	0.360341	0.036574
	H10471	H	0.837278	0.064192	0.123282
	H10472	H	0.844188	0.064785	0.122503
	H10473	H	0.846566	0.064891	0.117867
	H10474	H	0.783291	0.941471	0.009017
	H10475	H	0.777123	0.941459	0.004956
	H10476	H	0.782641	0.941104	-0.001093
	H10477	H	0.837148	0.941691	0.123326
	H10478	H	0.844320	0.941189	0.122553
	H10479	H	0.846519	0.940999	0.117871
	Zn10480	Zn	0.726707	0.680124	0.066522
	Zn10481	Zn	0.726646	0.825269	0.066482
	Zn10482	Zn	0.726659	0.180234	0.066534
	Zn10483	Zn	0.726684	0.325500	0.066553
	Zn10484	Zn	0.838307	0.680118	0.119230
	Zn10485	Zn	0.838337	0.825917	0.119223
	Zn10486	Zn	0.838363	0.180212	0.119230
	Zn10487	Zn	0.838420	0.325801	0.119233
	C10488	C	0.873426	0.752587	0.044638
	C10489	C	0.754115	0.753088	0.078638
	C10490	C	0.768844	0.753117	0.085994
	C10491	C	0.775782	0.692006	0.089455
	C10492	C	0.775674	0.814333	0.089476
	C10493	C	0.754122	0.252721	0.078666
	C10494	C	0.768894	0.252732	0.086004
	C10495	C	0.775760	0.191304	0.089513
	C10496	C	0.775760	0.314176	0.089485
	C10497	C	0.749596	0.752579	0.053892
	C10498	C	0.756909	0.752465	0.044936
	C10499	C	0.759688	0.814347	0.040606
	C10500	C	0.759543	0.690596	0.040572
	C10501	C	0.749480	0.252742	0.053922
	C10502	C	0.756882	0.253006	0.044973
	C10503	C	0.759424	0.315095	0.040594
	C10504	C	0.759711	0.190997	0.040627
	C10505	C	0.893433	0.043378	0.059818
	C10506	C	0.893373	0.962712	0.059812
	C10507	C	0.722021	0.043126	0.064369
	C10508	C	0.721997	0.962461	0.064365
	C10509	C	0.725125	0.043332	0.069311
	C10510	C	0.725107	0.962376	0.069298
	C10511	C	0.724375	0.462389	0.066092
	C10512	C	0.899805	0.462637	0.057505
	C10513	C	0.900428	0.462756	0.055784
	C10514	C	0.724348	0.543353	0.066075
	C10515	C	0.900422	0.543440	0.055788
	C10516	C	0.899845	0.543284	0.057513
	C10517	C	0.878180	0.752655	0.069405
	C10518	C	0.878212	0.252945	0.069427
	C10519	C	0.870885	0.752709	0.078394
	C10520	C	0.868015	0.690795	0.082712
	C10521	C	0.868357	0.814591	0.082776
	C10522	C	0.870823	0.252820	0.078353
	C10523	C	0.868214	0.190944	0.082707
	C10524	C	0.868068	0.314700	0.082683
	C10525	C	0.873443	0.252372	0.044646
	C10526	C	0.816652	0.753033	0.016140
	C10527	C	0.772399	0.752490	0.018303
	C10528	C	0.810838	0.752947	0.107143
	C10529	C	0.851845	0.691269	0.033778
	C10530	C	0.851717	0.814257	0.033835
	C10531	C	0.831448	0.752791	0.023474
	C10532	C	0.766896	0.752560	0.027589
	C10533	C	0.764539	0.690650	0.031982
	C10534	C	0.838373	0.691349	0.026926
	C10535	C	0.838243	0.814262	0.026988
	C10536	C	0.764675	0.814395	0.032014
	C10537	C	0.858625	0.752728	0.037292
	C10538	C	0.855240	0.752793	0.105019
	C10539	C	0.862992	0.690795	0.091303
	C10540	C	0.863320	0.814524	0.091364
	C10541	C	0.860819	0.752646	0.095745
	C10542	C	0.835922	0.462800	0.118768
	C10543	C	0.795006	0.462679	0.006383
	C10544	C	0.839166	0.462376	0.120493
	C10545	C	0.835856	0.543528	0.118781
	C10546	C	0.839128	0.543138	0.120516
	C10547	C	0.794989	0.543509	0.006380
	C10548	C	0.855150	0.252818	0.104967
	C10549	C	0.863123	0.191022	0.091282
	C10550	C	0.862951	0.314642	0.091253
	C10551	C	0.860680	0.252817	0.095673
	C10552	C	0.782504	0.043433	0.006198
	C10553	C	0.816654	0.252275	0.016156
	C10554	C	0.772436	0.253379	0.018337
	C10555	C	0.810877	0.253004	0.107113
	C10556	C	0.851692	0.191179	0.033873
	C10557	C	0.851806	0.313406	0.033836
	C10558	C	0.831429	0.252173	0.023505
	C10559	C	0.766912	0.253279	0.027628
	C10560	C	0.796006	0.753112	0.099811
	C10561	C	0.789159	0.814432	0.096311
	C10562	C	0.789257	0.691896	0.096292
	C10563	C	0.796092	0.252805	0.099796
	C10564	C	0.789264	0.314239	0.096303
	C10565	C	0.789259	0.191326	0.096339
	C10566	C	0.764762	0.191106	0.032044
	C10567	C	0.838182	0.191158	0.027046
	C10568	C	0.838299	0.313358	0.027003
	C10569	C	0.764469	0.315291	0.032010
	C10570	C	0.858667	0.252316	0.037318
	C10571	C	0.840202	0.043315	0.121936
	C10572	C	0.788095	0.043509	0.000174
	C10573	C	0.782528	0.962737	0.006216
	C10574	C	0.840195	0.962732	0.121961
	C10575	C	0.788072	0.962531	0.000177
	N10576	N	0.726489	0.069928	0.066505
	N10577	N	0.726477	0.935376	0.066476
	N10578	N	0.726570	0.435644	0.066566
	N10579	N	0.726601	0.570139	0.066561
	N10580	N	0.838577	0.435864	0.119184
	N10581	N	0.838523	0.570341	0.119221
	N10582	N	0.838490	0.070171	0.119196
	N10583	N	0.838453	0.935718	0.119218
	O10584	O	0.855327	0.694588	0.176354
	O10585	O	0.855366	0.811260	0.176361
	O10586	O	0.791842	0.694524	0.193250
	O10587	O	0.791662	0.811446	0.193279
	O10588	O	0.791948	0.193901	0.193239
	O10589	O	0.791815	0.310690	0.193250
	O10590	O	0.790522	0.694864	0.171040
	O10591	O	0.790686	0.811166	0.171084
	O10592	O	0.790675	0.195105	0.171109
	O10593	O	0.790694	0.311760	0.171078
	O10594	O	0.854093	0.694920	0.197173
	O10595	O	0.854060	0.811454	0.197181
	O10596	O	0.853995	0.194549	0.197182
	O10597	O	0.853987	0.311145	0.197175
	O10598	O	0.855485	0.194399	0.176326
	O10599	O	0.855402	0.311081	0.176376
	O10600	O	0.854334	0.694751	0.130727
	O10601	O	0.818853	0.694567	0.128546
	O10602	O	0.828227	0.694669	0.240392
	O10603	O	0.828298	0.811412	0.240435
	O10604	O	0.792839	0.694862	0.238871
	O10605	O	0.792747	0.811439	0.238875
	O10606	O	0.819066	0.811328	0.128579
	O10607	O	0.854355	0.811694	0.130711
	O10608	O	0.854223	0.194295	0.130753
	O10609	O	0.818959	0.195097	0.128548
	O10610	O	0.828380	0.194718	0.240490
	O10611	O	0.828328	0.311300	0.240443
	O10612	O	0.792922	0.194077	0.238916
	O10613	O	0.792879	0.310718	0.238837
	O10614	O	0.818928	0.311819	0.128546
	O10615	O	0.854364	0.310869	0.130739
	H10616	H	0.792062	0.642988	0.207934
	H10617	H	0.792496	0.862514	0.207931
	H10618	H	0.792110	0.142800	0.207893
	H10619	H	0.792491	0.362340	0.207931
	H10620	H	0.798617	0.862453	0.157192
	H10621	H	0.798335	0.643849	0.157174
	H10622	H	0.798482	0.362634	0.157233
	H10623	H	0.798855	0.143897	0.157275
	H10624	H	0.872124	0.064665	0.185345
	H10625	H	0.868751	0.064512	0.186179
	H10626	H	0.868669	0.941020	0.186141
	H10627	H	0.872107	0.941033	0.185332
	H10628	H	0.876732	0.064528	0.186769
	H10629	H	0.876749	0.941358	0.186747
	H10630	H	0.775555	0.064980	0.183296
	H10631	H	0.775494	0.940867	0.183284
	H10632	H	0.778352	0.064470	0.183058
	H10633	H	0.778290	0.941004	0.183003
	H10634	H	0.779265	0.064534	0.181157
	H10635	H	0.779363	0.941410	0.181148
	H10636	H	0.774570	0.441293	0.182085
	H10637	H	0.775671	0.441099	0.182514
	H10638	H	0.774739	0.441020	0.181253
	H10639	H	0.868721	0.441104	0.181632
	H10640	H	0.882715	0.441338	0.184246
	H10641	H	0.884983	0.441103	0.189319
	H10642	H	0.775676	0.564930	0.182469
	H10643	H	0.774580	0.563986	0.182041
	H10644	H	0.885023	0.564833	0.189297
	H10645	H	0.882723	0.564683	0.184212
	H10646	H	0.868595	0.564308	0.181596
	H10647	H	0.774773	0.564003	0.181213
	H10648	H	0.844816	0.643273	0.210926
	H10649	H	0.845147	0.863248	0.210980
	H10650	H	0.844960	0.143168	0.210985
	H10651	H	0.844779	0.362839	0.210935
	H10652	H	0.807533	0.643739	0.141735
	H10653	H	0.854878	0.643447	0.145382
	H10654	H	0.854860	0.862994	0.145375
	H10655	H	0.807842	0.862459	0.141747
	H10656	H	0.853415	0.643314	0.161666
	H10657	H	0.853466	0.863058	0.161652
	H10658	H	0.837109	0.643285	0.226622
	H10659	H	0.837456	0.863053	0.226679
	H10660	H	0.835453	0.441667	0.117806
	H10661	H	0.807565	0.441229	0.251537
	H10662	H	0.839980	0.441803	0.117460
	H10663	H	0.842385	0.440832	0.118654
	H10664	H	0.813852	0.441356	0.250337
	H10665	H	0.812160	0.441228	0.251712
	H10666	H	0.807584	0.564567	0.251550
	H10667	H	0.835299	0.564625	0.117799
	H10668	H	0.812173	0.564427	0.251652
	H10669	H	0.813852	0.564884	0.250325
	H10670	H	0.842297	0.564924	0.118718
	H10671	H	0.840007	0.564606	0.117454
	H10672	H	0.837493	0.143280	0.226698
	H10673	H	0.837249	0.362770	0.226666
	H10674	H	0.831447	0.065332	0.116370
	H10675	H	0.829847	0.064765	0.119796
	H10676	H	0.841108	0.064803	0.115303
	H10677	H	0.791053	0.862769	0.224211
	H10678	H	0.790580	0.643047	0.224230
	H10679	H	0.791077	0.362358	0.224181
	H10680	H	0.790674	0.142656	0.224198
	H10681	H	0.808039	0.143972	0.141805
	H10682	H	0.854905	0.142790	0.145424
	H10683	H	0.854778	0.362103	0.145396
	H10684	H	0.807709	0.362995	0.141788
	H10685	H	0.853462	0.142984	0.161703
	H10686	H	0.853346	0.362506	0.161660
	H10687	H	0.822711	0.064247	0.248428
	H10688	H	0.814833	0.064626	0.244256
	H10689	H	0.799732	0.064807	0.245553
	H10690	H	0.829712	0.941878	0.119834
	H10691	H	0.831371	0.941573	0.116354
	H10692	H	0.841230	0.941552	0.115317
	H10693	H	0.822626	0.941550	0.248437
	H10694	H	0.814748	0.941007	0.244285
	H10695	H	0.799665	0.941020	0.245580
	Zn10696	Zn	0.775923	0.680298	0.181721
	Zn10697	Zn	0.775993	0.825548	0.181699
	Zn10698	Zn	0.775958	0.180204	0.181731
	Zn10699	Zn	0.775966	0.325762	0.181756
	Zn10700	Zn	0.809950	0.680391	0.250063
	Zn10701	Zn	0.809941	0.825603	0.250101
	Zn10702	Zn	0.810023	0.180252	0.250109
	Zn10703	Zn	0.809812	0.325407	0.250026
	C10704	C	0.854265	0.752966	0.172540
	C10705	C	0.792421	0.752906	0.197083
	C10706	C	0.792636	0.752802	0.206945
	C10707	C	0.791921	0.690744	0.211557
	C10708	C	0.792153	0.814882	0.211554
	C10709	C	0.792545	0.252258	0.197075
	C10710	C	0.792719	0.252431	0.206921
	C10711	C	0.791974	0.190473	0.211532
	C10712	C	0.792150	0.314565	0.211538
	C10713	C	0.792818	0.753021	0.167463
	C10714	C	0.798266	0.753180	0.158177
	C10715	C	0.800638	0.814996	0.153770
	C10716	C	0.800463	0.691403	0.153755
	C10717	C	0.792898	0.253330	0.167499
	C10718	C	0.798380	0.253280	0.158202
	C10719	C	0.800624	0.315235	0.153794
	C10720	C	0.800815	0.191382	0.153812
	C10721	C	0.870974	0.043462	0.186229
	C10722	C	0.870974	0.962540	0.186211
	C10723	C	0.776730	0.043352	0.182768
	C10724	C	0.776723	0.962322	0.182766
	C10725	C	0.777688	0.043306	0.180933
	C10726	C	0.777692	0.962597	0.180929
	C10727	C	0.775447	0.462422	0.182148
	C10728	C	0.866770	0.462441	0.184367
	C10729	C	0.880850	0.462342	0.186994
	C10730	C	0.775412	0.543219	0.182126
	C10731	C	0.880866	0.543355	0.186981
	C10732	C	0.866723	0.543231	0.184373
	C10733	C	0.851240	0.753175	0.200686
	C10734	C	0.851084	0.252855	0.200663
	C10735	C	0.845355	0.753209	0.209957
	C10736	C	0.843092	0.691075	0.214408
	C10737	C	0.843268	0.815349	0.214437
	C10738	C	0.845219	0.252968	0.209943
	C10739	C	0.843249	0.190948	0.214453
	C10740	C	0.843164	0.315044	0.214431
	C10741	C	0.854315	0.252819	0.172544
	C10742	C	0.854961	0.753263	0.134543
	C10743	C	0.815560	0.752976	0.131881
	C10744	C	0.791685	0.753133	0.235053
	C10745	C	0.853638	0.691064	0.158050
	C10746	C	0.853666	0.815273	0.158041
	C10747	C	0.855241	0.753219	0.144408
	C10748	C	0.808257	0.753084	0.140838
	C10749	C	0.805469	0.691216	0.145175
	C10750	C	0.854591	0.691090	0.149015
	C10751	C	0.854606	0.815360	0.149009
	C10752	C	0.805656	0.815030	0.145185
	C10753	C	0.853196	0.753135	0.162658
	C10754	C	0.831087	0.753101	0.236926
	C10755	C	0.838918	0.691148	0.223142
	C10756	C	0.839095	0.815314	0.223172
	C10757	C	0.836970	0.753224	0.227648
	C10758	C	0.807498	0.462522	0.250620
	C10759	C	0.840498	0.462636	0.118391
	C10760	C	0.812155	0.462412	0.250774
	C10761	C	0.807555	0.543559	0.250622
	C10762	C	0.812177	0.543322	0.250759
	C10763	C	0.840477	0.543566	0.118387
	C10764	C	0.831177	0.252937	0.236960
	C10765	C	0.839153	0.190952	0.223193
	C10766	C	0.839055	0.315093	0.223174
	C10767	C	0.837019	0.252983	0.227665
	C10768	C	0.832753	0.043512	0.118395
	C10769	C	0.854954	0.252594	0.134590
	C10770	C	0.815546	0.253465	0.131858
	C10771	C	0.791795	0.252251	0.235053
	C10772	C	0.853697	0.190646	0.158089
	C10773	C	0.853610	0.314709	0.158066
	C10774	C	0.855256	0.252475	0.144448
	C10775	C	0.808294	0.253517	0.140837
	C10776	C	0.790616	0.752990	0.225190
	C10777	C	0.791193	0.815058	0.220588
	C10778	C	0.790951	0.690739	0.220595
	C10779	C	0.790749	0.252348	0.225185
	C10780	C	0.791246	0.314549	0.220574
	C10781	C	0.791035	0.190377	0.220564
	C10782	C	0.805773	0.191511	0.145213
	C10783	C	0.854624	0.190458	0.149057
	C10784	C	0.854559	0.314563	0.149038
	C10785	C	0.805601	0.315388	0.145198
	C10786	C	0.853212	0.252762	0.162689
	C10787	C	0.816410	0.043197	0.247332
	C10788	C	0.842473	0.043649	0.117279
	C10789	C	0.832723	0.962660	0.118381
	C10790	C	0.816384	0.962558	0.247330
	C10791	C	0.842486	0.962733	0.117260
	N10792	N	0.776144	0.070032	0.181707
	N10793	N	0.776159	0.935533	0.181697
	N10794	N	0.776009	0.435945	0.181777
	N10795	N	0.775991	0.570460	0.181741
	N10796	N	0.809819	0.435589	0.250043
	N10797	N	0.809880	0.570123	0.250036
	N10798	N	0.809895	0.070367	0.250118
	N10799	N	0.809871	0.935858	0.250126
	O10800	O	0.827966	0.694442	0.306879
	O10801	O	0.828060	0.811289	0.306923
	O10802	O	0.764085	0.693692	0.323704
	O10803	O	0.764512	0.810465	0.323655
	O10804	O	0.764420	0.195425	0.323736
	O10805	O	0.763957	0.312166	0.323802
	O10806	O	0.765508	0.693866	0.302897
	O10807	O	0.765783	0.810380	0.302960
	O10808	O	0.765633	0.194979	0.302916
	O10809	O	0.765539	0.311617	0.302864
	O10810	O	0.829233	0.694462	0.329054
	O10811	O	0.829266	0.810769	0.329074
	O10812	O	0.829246	0.195052	0.329066
	O10813	O	0.829203	0.311710	0.329044
	O10814	O	0.828102	0.194637	0.306869
	O10815	O	0.827877	0.311501	0.306854
	O10816	O	0.826938	0.694499	0.261317
	O10817	O	0.791417	0.694349	0.259689
	O10818	O	0.800609	0.694194	0.371540
	O10819	O	0.800668	0.811088	0.371563
	O10820	O	0.765250	0.694287	0.369331
	O10821	O	0.765536	0.811016	0.369307
	O10822	O	0.791561	0.811173	0.259786
	O10823	O	0.826952	0.811078	0.261287
	O10824	O	0.827164	0.194925	0.261257
	O10825	O	0.791615	0.194480	0.259714
	O10826	O	0.800893	0.194658	0.371628
	O10827	O	0.800787	0.311310	0.371623
	O10828	O	0.765467	0.194235	0.369383
	O10829	O	0.765210	0.311059	0.369378
	O10830	O	0.791505	0.311156	0.259670
	O10831	O	0.826818	0.311716	0.261234
	H10832	H	0.765987	0.642582	0.338387
	H10833	H	0.766718	0.862136	0.338360
	H10834	H	0.766697	0.143321	0.338420
	H10835	H	0.765884	0.363231	0.338458
	H10836	H	0.774958	0.862103	0.289235
	H10837	H	0.774561	0.642253	0.289136
	H10838	H	0.774324	0.363142	0.289027
	H10839	H	0.775196	0.142994	0.289207
	H10840	H	0.838955	0.064311	0.319860
	H10841	H	0.843198	0.064265	0.321138
	H10842	H	0.843253	0.941319	0.321157
	H10843	H	0.839038	0.940645	0.319868
	H10844	H	0.838968	0.064178	0.316663
	H10845	H	0.839025	0.940770	0.316695
	H10846	H	0.751649	0.063834	0.314728
	H10847	H	0.751585	0.941077	0.314676
	H10848	H	0.753307	0.064740	0.312472
	H10849	H	0.753340	0.941283	0.312514
	H10850	H	0.748823	0.064738	0.309827
	H10851	H	0.748878	0.941578	0.309814
	H10852	H	0.748810	0.441551	0.314734
	H10853	H	0.751680	0.441424	0.313442
	H10854	H	0.743387	0.440778	0.313837
	H10855	H	0.852974	0.441051	0.318098
	H10856	H	0.848055	0.441218	0.322453
	H10857	H	0.840246	0.441405	0.322420
	H10858	H	0.751671	0.565015	0.313437
	H10859	H	0.748762	0.564720	0.314749
	H10860	H	0.840243	0.564815	0.322398
	H10861	H	0.848037	0.564193	0.322477
	H10862	H	0.852992	0.564503	0.318106
	H10863	H	0.743362	0.564698	0.313881
	H10864	H	0.820895	0.643209	0.342857
	H10865	H	0.821420	0.861897	0.342969
	H10866	H	0.821480	0.143870	0.342959
	H10867	H	0.820706	0.362734	0.342877
	H10868	H	0.782145	0.642546	0.273409
	H10869	H	0.828593	0.643504	0.275955
	H10870	H	0.829328	0.863029	0.275986
	H10871	H	0.782536	0.862238	0.273543
	H10872	H	0.827104	0.643490	0.292230
	H10873	H	0.827864	0.863062	0.292258
	H10874	H	0.811685	0.643221	0.358327
	H10875	H	0.812178	0.861810	0.358405
	H10876	H	0.805817	0.441533	0.250093
	H10877	H	0.779933	0.441020	0.383867
	H10878	H	0.808188	0.441547	0.248258
	H10879	H	0.811479	0.441405	0.248342
	H10880	H	0.787212	0.441211	0.380051
	H10881	H	0.786747	0.441205	0.382639
	H10882	H	0.779938	0.563781	0.383868
	H10883	H	0.805850	0.565228	0.250097
	H10884	H	0.786691	0.564622	0.382574
	H10885	H	0.787111	0.564537	0.380003
	H10886	H	0.811490	0.564529	0.248381
	H10887	H	0.808137	0.564831	0.248277
	H10888	H	0.812338	0.143647	0.358431
	H10889	H	0.811588	0.362629	0.358329
	H10890	H	0.807290	0.064558	0.256343
	H10891	H	0.818294	0.064567	0.255420
	H10892	H	0.796616	0.064649	0.250642
	H10893	H	0.765213	0.862369	0.354631
	H10894	H	0.764467	0.642822	0.354665
	H10895	H	0.764433	0.362683	0.354727
	H10896	H	0.765253	0.143046	0.354706
	H10897	H	0.782889	0.143014	0.273526
	H10898	H	0.829262	0.143151	0.275959
	H10899	H	0.828617	0.363048	0.275896
	H10900	H	0.782014	0.362743	0.273340
	H10901	H	0.827675	0.143281	0.292224
	H10902	H	0.827098	0.363168	0.292148
	H10903	H	0.779040	0.064390	0.383498
	H10904	H	0.784024	0.064647	0.383430
	H10905	H	0.787065	0.064305	0.380671
	H10906	H	0.818297	0.941408	0.255392
	H10907	H	0.807272	0.941048	0.256325
	H10908	H	0.796543	0.941721	0.250677
	H10909	H	0.779065	0.941001	0.383458
	H10910	H	0.783913	0.941066	0.383431
	H10911	H	0.787070	0.941048	0.380679
	Zn10912	Zn	0.746950	0.680528	0.312484
	Zn10913	Zn	0.747323	0.825136	0.312547
	Zn10914	Zn	0.747319	0.180322	0.312582
	Zn10915	Zn	0.747022	0.325028	0.312491
	Zn10916	Zn	0.781198	0.680283	0.380854
	Zn10917	Zn	0.781252	0.825459	0.380861
	Zn10918	Zn	0.781256	0.180341	0.380875
	Zn10919	Zn	0.781176	0.325255	0.380878
	C10920	C	0.827312	0.752967	0.303075
	C10921	C	0.765410	0.752128	0.327491
	C10922	C	0.766484	0.752277	0.337372
	C10923	C	0.765838	0.690295	0.341999
	C10924	C	0.766245	0.814472	0.341982
	C10925	C	0.765305	0.253711	0.327587
	C10926	C	0.766452	0.253312	0.337459
	C10927	C	0.766239	0.191024	0.342054
	C10928	C	0.765776	0.315321	0.342071
	C10929	C	0.768518	0.752155	0.299435
	C10930	C	0.774452	0.752163	0.290187
	C10931	C	0.776598	0.814258	0.285740
	C10932	C	0.776420	0.690020	0.285691
	C10933	C	0.768488	0.253246	0.299404
	C10934	C	0.774427	0.253129	0.290140
	C10935	C	0.776326	0.315162	0.285612
	C10936	C	0.776787	0.190912	0.285714
	C10937	C	0.841741	0.043068	0.319948
	C10938	C	0.841764	0.962364	0.319967
	C10939	C	0.751123	0.043265	0.313335
	C10940	C	0.751126	0.962385	0.313336
	C10941	C	0.746584	0.043089	0.310655
	C10942	C	0.746606	0.962478	0.310646
	C10943	C	0.749412	0.462665	0.313673
	C10944	C	0.848978	0.462313	0.316947
	C10945	C	0.843999	0.462576	0.321362
	C10946	C	0.749395	0.543423	0.313667
	C10947	C	0.843979	0.543275	0.321378
	C10948	C	0.848968	0.543229	0.316962
	C10949	C	0.826995	0.752585	0.332655
	C10950	C	0.826954	0.253396	0.332630
	C10951	C	0.821496	0.752570	0.341949
	C10952	C	0.819015	0.690728	0.346327
	C10953	C	0.819295	0.814400	0.346390
	C10954	C	0.821422	0.253233	0.341937
	C10955	C	0.819335	0.191296	0.346385
	C10956	C	0.818900	0.315153	0.346329
	C10957	C	0.827340	0.253085	0.303029
	C10958	C	0.828026	0.752870	0.265135
	C10959	C	0.788603	0.752667	0.263212
	C10960	C	0.764741	0.752608	0.365486
	C10961	C	0.827557	0.691214	0.288624
	C10962	C	0.827912	0.815361	0.288631
	C10963	C	0.829099	0.753139	0.274998
	C10964	C	0.782777	0.752406	0.272508
	C10965	C	0.780567	0.690171	0.276955
	C10966	C	0.828508	0.691104	0.279600
	C10967	C	0.828867	0.815348	0.279606
	C10968	C	0.780765	0.814360	0.277015
	C10969	C	0.827070	0.753313	0.293234
	C10970	C	0.804022	0.752633	0.368241
	C10971	C	0.813972	0.690716	0.354914
	C10972	C	0.814278	0.814443	0.354979
	C10973	C	0.811417	0.752532	0.359290
	C10974	C	0.778541	0.462358	0.382475
	C10975	C	0.809801	0.462713	0.248778
	C10976	C	0.785380	0.462263	0.381201
	C10977	C	0.778554	0.543009	0.382461
	C10978	C	0.785344	0.543089	0.381176
	C10979	C	0.809858	0.543319	0.248786
	C10980	C	0.804197	0.253026	0.368299
	C10981	C	0.814331	0.191177	0.354983
	C10982	C	0.813911	0.315155	0.354927
	C10983	C	0.811494	0.253090	0.359315
	C10984	C	0.812028	0.043661	0.254355
	C10985	C	0.828115	0.253363	0.265050
	C10986	C	0.788687	0.252843	0.263178
	C10987	C	0.764691	0.252645	0.365556
	C10988	C	0.827887	0.190938	0.288592
	C10989	C	0.827543	0.315306	0.288544
	C10990	C	0.829123	0.253067	0.274909
	C10991	C	0.782803	0.252835	0.272454
	C10992	C	0.764445	0.752605	0.355628
	C10993	C	0.765311	0.814594	0.351019
	C10994	C	0.764898	0.690450	0.351038
	C10995	C	0.764408	0.252787	0.355704
	C10996	C	0.764852	0.315051	0.351103
	C10997	C	0.765306	0.190801	0.351087
	C10998	C	0.780949	0.190810	0.276977
	C10999	C	0.828837	0.190961	0.279558
	C11000	C	0.828461	0.315268	0.279509
	C11001	C	0.780482	0.315052	0.276871
	C11002	C	0.827098	0.253122	0.293161
	C11003	C	0.781396	0.043241	0.382788
	C11004	C	0.801217	0.043236	0.248619
	C11005	C	0.812032	0.962718	0.254355
	C11006	C	0.781392	0.962374	0.382775
	C11007	C	0.801221	0.962569	0.248644
	N11008	N	0.747370	0.069948	0.312589
	N11009	N	0.747332	0.935320	0.312588
	N11010	N	0.747124	0.435560	0.312483
	N11011	N	0.747060	0.570172	0.312503
	N11012	N	0.781053	0.435435	0.380861
	N11013	N	0.781025	0.569994	0.380839
	N11014	N	0.781124	0.070116	0.380898
	N11015	N	0.781097	0.935581	0.380893
	O11016	O	0.871036	0.694374	0.424364
	O11017	O	0.871007	0.810690	0.424422
	O11018	O	0.740616	0.694569	0.452698
	O11019	O	0.740578	0.810769	0.452706
	O11020	O	0.740742	0.194964	0.452652
	O11021	O	0.740501	0.311123	0.452731
	O11022	O	0.738260	0.694029	0.434057
	O11023	O	0.738459	0.810774	0.434116
	O11024	O	0.738288	0.194367	0.434073
	O11025	O	0.738101	0.311051	0.434008
	O11026	O	0.873530	0.694162	0.443046
	O11027	O	0.873354	0.810815	0.442978
	O11028	O	0.873372	0.194556	0.442994
	O11029	O	0.873514	0.311206	0.443046
	O11030	O	0.870969	0.194793	0.424430
	O11031	O	0.871037	0.311074	0.424415
	O11032	O	0.802973	0.694083	0.390156
	O11033	O	0.766548	0.694586	0.391535
	O11034	O	0.844779	0.694441	0.485478
	O11035	O	0.845033	0.810976	0.485536
	O11036	O	0.808623	0.694768	0.486879
	O11037	O	0.808678	0.811007	0.486901
	O11038	O	0.766963	0.811059	0.391608
	O11039	O	0.802911	0.810516	0.390213
	O11040	O	0.802959	0.194714	0.390221
	O11041	O	0.766775	0.194619	0.391536
	O11042	O	0.844772	0.194571	0.485477
	O11043	O	0.844889	0.311167	0.485478
	O11044	O	0.808736	0.195081	0.486878
	O11045	O	0.808688	0.311056	0.486922
	O11046	O	0.766749	0.310938	0.391542
	O11047	O	0.802988	0.311035	0.390192
	H11048	H	0.762384	0.645013	0.463713
	H11049	H	0.762433	0.860780	0.463607
	H11050	H	0.762727	0.145395	0.463541
	H11051	H	0.762404	0.360811	0.463655
	H11052	H	0.749934	0.861805	0.420923
	H11053	H	0.749458	0.643075	0.420851
	H11054	H	0.749609	0.361970	0.420871
	H11055	H	0.749532	0.143329	0.420852
	H11056	H	0.890224	0.064419	0.431017
	H11057	H	0.887036	0.064562	0.432783
	H11058	H	0.887026	0.941421	0.432805
	H11059	H	0.890206	0.940835	0.430999
	H11060	H	0.897066	0.064106	0.431834
	H11061	H	0.896972	0.940590	0.431858
	H11062	H	0.706342	0.064730	0.438632
	H11063	H	0.706287	0.941039	0.438627
	H11064	H	0.703754	0.064903	0.444579
	H11065	H	0.703707	0.941096	0.444569
	H11066	H	0.716996	0.064417	0.450599
	H11067	H	0.716933	0.940831	0.450615
	H11068	H	0.718095	0.440927	0.449208
	H11069	H	0.727631	0.441411	0.447606
	H11070	H	0.706953	0.440940	0.444722
	H11071	H	0.898720	0.441107	0.435798
	H11072	H	0.891000	0.441316	0.436965
	H11073	H	0.886381	0.441025	0.434929
	H11074	H	0.727598	0.564321	0.447650
	H11075	H	0.718059	0.564752	0.449227
	H11076	H	0.886316	0.564402	0.434971
	H11077	H	0.890958	0.564511	0.436957
	H11078	H	0.898747	0.564389	0.435762
	H11079	H	0.706871	0.565112	0.444724
	H11080	H	0.862125	0.643060	0.456213
	H11081	H	0.861847	0.862086	0.456157
	H11082	H	0.861811	0.143288	0.456179
	H11083	H	0.862379	0.362323	0.456258
	H11084	H	0.758631	0.643181	0.405403
	H11085	H	0.824826	0.643785	0.401112
	H11086	H	0.824871	0.861022	0.401068
	H11087	H	0.759098	0.861781	0.405457
	H11088	H	0.849003	0.644004	0.413487
	H11089	H	0.849104	0.860962	0.413438
	H11090	H	0.853012	0.643275	0.471668
	H11091	H	0.852745	0.861981	0.471620
	H11092	H	0.775466	0.440598	0.382235
	H11093	H	0.830881	0.440606	0.493318
	H11094	H	0.776123	0.440690	0.378685
	H11095	H	0.781136	0.441446	0.377799
	H11096	H	0.824942	0.441125	0.497243
	H11097	H	0.824837	0.441072	0.494762
	H11098	H	0.830828	0.563813	0.493288
	H11099	H	0.775464	0.564411	0.382243
	H11100	H	0.824893	0.564008	0.494768
	H11101	H	0.824918	0.564161	0.497196
	H11102	H	0.781018	0.564704	0.377781
	H11103	H	0.776121	0.565122	0.378689
	H11104	H	0.852501	0.143226	0.471595
	H11105	H	0.853080	0.362348	0.471710
	H11106	H	0.777474	0.064723	0.378609
	H11107	H	0.775290	0.064637	0.380622
	H11108	H	0.784327	0.064642	0.378572
	H11109	H	0.786655	0.861418	0.475981
	H11110	H	0.786634	0.645150	0.476095
	H11111	H	0.786658	0.361148	0.476016
	H11112	H	0.786955	0.145345	0.475900
	H11113	H	0.758809	0.143344	0.405399
	H11114	H	0.824929	0.144491	0.401118
	H11115	H	0.824925	0.361114	0.401087
	H11116	H	0.758975	0.361955	0.405465
	H11117	H	0.849125	0.144807	0.413482
	H11118	H	0.849130	0.361289	0.413457
	H11119	H	0.832907	0.064588	0.492236
	H11120	H	0.825664	0.064178	0.492534
	H11121	H	0.821899	0.063975	0.496829
	H11122	H	0.775231	0.941374	0.380659
	H11123	H	0.777432	0.941340	0.378641
	H11124	H	0.784313	0.941272	0.378574
	H11125	H	0.832968	0.940690	0.492216
	H11126	H	0.825586	0.941254	0.492470
	H11127	H	0.821866	0.940728	0.496809
	Zn11128	Zn	0.718794	0.680246	0.443376
	Zn11129	Zn	0.718818	0.825465	0.443388
	Zn11130	Zn	0.718918	0.179947	0.443414
	Zn11131	Zn	0.718823	0.325354	0.443387
	Zn11132	Zn	0.830258	0.679681	0.496183
	Zn11133	Zn	0.830436	0.825491	0.496200
	Zn11134	Zn	0.830364	0.179705	0.496194
	Zn11135	Zn	0.830447	0.325243	0.496226
	C11136	C	0.865212	0.752577	0.421611
	C11137	C	0.746391	0.752688	0.455488
	C11138	C	0.761036	0.752830	0.462894
	C11139	C	0.767826	0.691910	0.466447
	C11140	C	0.767830	0.814040	0.466386
	C11141	C	0.746422	0.253084	0.455483
	C11142	C	0.761219	0.253097	0.462823
	C11143	C	0.768119	0.192219	0.466300
	C11144	C	0.767931	0.314094	0.466366
	C11145	C	0.741781	0.752445	0.430773
	C11146	C	0.749162	0.752501	0.421813
	C11147	C	0.751988	0.814300	0.417480
	C11148	C	0.751721	0.690578	0.417448
	C11149	C	0.741634	0.252659	0.430729
	C11150	C	0.749108	0.252627	0.421798
	C11151	C	0.751853	0.314455	0.417461
	C11152	C	0.751797	0.190802	0.417447
	C11153	C	0.889810	0.043179	0.432349
	C11154	C	0.889792	0.962344	0.432367
	C11155	C	0.708595	0.043519	0.442088
	C11156	C	0.708551	0.962518	0.442070
	C11157	C	0.721890	0.043106	0.448150
	C11158	C	0.721854	0.962236	0.448130
	C11159	C	0.721717	0.462466	0.447099
	C11160	C	0.897567	0.462207	0.434226
	C11161	C	0.889817	0.462352	0.435363
	C11162	C	0.721697	0.543360	0.447109
	C11163	C	0.889786	0.543190	0.435362
	C11164	C	0.897554	0.543067	0.434218
	C11165	C	0.869982	0.752524	0.446322
	C11166	C	0.870044	0.252873	0.446337
	C11167	C	0.862530	0.752609	0.455252
	C11168	C	0.859933	0.690715	0.459618
	C11169	C	0.859760	0.814515	0.459595
	C11170	C	0.862618	0.252910	0.455289
	C11171	C	0.859755	0.190893	0.459612
	C11172	C	0.860075	0.314769	0.459667
	C11173	C	0.865231	0.253002	0.421623
	C11174	C	0.808708	0.752261	0.392974
	C11175	C	0.764518	0.752792	0.395154
	C11176	C	0.802860	0.752985	0.484105
	C11177	C	0.843639	0.691036	0.410717
	C11178	C	0.843671	0.813911	0.410710
	C11179	C	0.823410	0.752425	0.400350
	C11180	C	0.759133	0.752546	0.404458
	C11181	C	0.756724	0.690655	0.408856
	C11182	C	0.830230	0.690999	0.403848
	C11183	C	0.830262	0.813892	0.403836
	C11184	C	0.756990	0.814318	0.408890
	C11185	C	0.850448	0.752468	0.414236
	C11186	C	0.847108	0.752690	0.481920
	C11187	C	0.854905	0.690762	0.468209
	C11188	C	0.854736	0.814518	0.468187
	C11189	C	0.852516	0.752629	0.472608
	C11190	C	0.832439	0.461912	0.494554
	C11191	C	0.779232	0.462433	0.378925
	C11192	C	0.826404	0.462216	0.496044
	C11193	C	0.832373	0.542812	0.494550
	C11194	C	0.826356	0.542788	0.496030
	C11195	C	0.779232	0.543506	0.378921
	C11196	C	0.847043	0.252869	0.481893
	C11197	C	0.854659	0.190870	0.468184
	C11198	C	0.854997	0.314807	0.468243
	C11199	C	0.852526	0.252860	0.472619
	C11200	C	0.777591	0.043585	0.379947
	C11201	C	0.808787	0.252853	0.392978
	C11202	C	0.764553	0.252787	0.395136
	C11203	C	0.802925	0.253085	0.484100
	C11204	C	0.843716	0.191698	0.410724
	C11205	C	0.843735	0.314285	0.410708
	C11206	C	0.823546	0.252846	0.400323
	C11207	C	0.759155	0.252635	0.404446
	C11208	C	0.788100	0.753243	0.476765
	C11209	C	0.781253	0.814322	0.473248
	C11210	C	0.781243	0.692030	0.473313
	C11211	C	0.788267	0.253167	0.476716
	C11212	C	0.781356	0.314152	0.473233
	C11213	C	0.781520	0.192223	0.473175
	C11214	C	0.756829	0.190822	0.408855
	C11215	C	0.830321	0.191598	0.403846
	C11216	C	0.830316	0.314162	0.403839
	C11217	C	0.756892	0.314413	0.408878
	C11218	C	0.850513	0.253041	0.414238
	C11219	C	0.829645	0.042832	0.493372
	C11220	C	0.784478	0.043104	0.379945
	C11221	C	0.777591	0.962581	0.379971
	C11222	C	0.829640	0.962095	0.493354
	C11223	C	0.784445	0.962433	0.379958
	N11224	N	0.718641	0.070090	0.443410
	N11225	N	0.718590	0.935574	0.443359
	N11226	N	0.718601	0.435696	0.443355
	N11227	N	0.718609	0.570255	0.443345
	N11228	N	0.830441	0.435213	0.496180
	N11229	N	0.830362	0.569664	0.496162
	N11230	N	0.830479	0.069791	0.496207
	N11231	N	0.830511	0.935321	0.496181
	O11232	O	0.843777	0.693340	0.553118
	O11233	O	0.843836	0.810323	0.553105
	O11234	O	0.783924	0.694210	0.570073
	O11235	O	0.783944	0.810927	0.570058
	O11236	O	0.784019	0.193651	0.570106
	O11237	O	0.784133	0.310479	0.570094
	O11238	O	0.782114	0.694702	0.547948
	O11239	O	0.782265	0.811386	0.548018
	O11240	O	0.782227	0.194042	0.548005
	O11241	O	0.782355	0.310615	0.548026
	O11242	O	0.845696	0.693989	0.575242
	O11243	O	0.845605	0.810544	0.575202
	O11244	O	0.845495	0.194817	0.575190
	O11245	O	0.845630	0.311301	0.575204
	O11246	O	0.843647	0.193724	0.553149
	O11247	O	0.843716	0.310593	0.553121
	O11248	O	0.846557	0.693560	0.507539
	O11249	O	0.811010	0.694610	0.505556
	O11250	O	0.816910	0.694216	0.617717
	O11251	O	0.816901	0.810967	0.617718
	O11252	O	0.781278	0.694263	0.615590
	O11253	O	0.781337	0.811107	0.615613
	O11254	O	0.811115	0.811440	0.505498
	O11255	O	0.846753	0.810407	0.507549
	O11256	O	0.846623	0.194106	0.507627
	O11257	O	0.810901	0.194261	0.505494
	O11258	O	0.816786	0.194852	0.617630
	O11259	O	0.816762	0.311538	0.617609
	O11260	O	0.781196	0.193373	0.615595
	O11261	O	0.781301	0.310355	0.615619
	O11262	O	0.810897	0.310940	0.505503
	O11263	O	0.846637	0.311053	0.507635
	H11264	H	0.783892	0.642852	0.584736
	H11265	H	0.784110	0.862122	0.584702
	H11266	H	0.783949	0.142250	0.584700
	H11267	H	0.784100	0.361987	0.584811
	H11268	H	0.790074	0.863108	0.534099
	H11269	H	0.790301	0.643920	0.534130
	H11270	H	0.790366	0.361744	0.534163
	H11271	H	0.790440	0.143037	0.534170
	H11272	H	0.862837	0.064566	0.567632
	H11273	H	0.866539	0.064352	0.565665
	H11274	H	0.866620	0.941111	0.565627
	H11275	H	0.862911	0.941215	0.567667
	H11276	H	0.855090	0.064096	0.566628
	H11277	H	0.855173	0.940971	0.566690
	H11278	H	0.767280	0.064115	0.558139
	H11279	H	0.767308	0.940762	0.558106
	H11280	H	0.766555	0.064037	0.558510
	H11281	H	0.766532	0.940886	0.558441
	H11282	H	0.766844	0.064599	0.559149
	H11283	H	0.766781	0.940801	0.559111
	H11284	H	0.772407	0.440695	0.560964
	H11285	H	0.774171	0.441024	0.558590
	H11286	H	0.765150	0.440801	0.561393
	H11287	H	0.860374	0.440983	0.561871
	H11288	H	0.865449	0.441120	0.563936
	H11289	H	0.864810	0.440860	0.566201
	H11290	H	0.774129	0.564672	0.558553
	H11291	H	0.772345	0.564577	0.560933
	H11292	H	0.864821	0.564409	0.566199
	H11293	H	0.865604	0.563902	0.563916
	H11294	H	0.860450	0.564419	0.561852
	H11295	H	0.765054	0.563938	0.561326
	H11296	H	0.837781	0.643161	0.589120
	H11297	H	0.837241	0.861798	0.588999
	H11298	H	0.837383	0.143494	0.588972
	H11299	H	0.837874	0.362819	0.589059
	H11300	H	0.799676	0.643978	0.518699
	H11301	H	0.846532	0.642165	0.522195
	H11302	H	0.846944	0.861654	0.522242
	H11303	H	0.799492	0.863088	0.518682
	H11304	H	0.843681	0.641938	0.538396
	H11305	H	0.844011	0.861531	0.538427
	H11306	H	0.828510	0.643253	0.604583
	H11307	H	0.827999	0.862015	0.604446
	H11308	H	0.835385	0.440431	0.494659
	H11309	H	0.803966	0.440741	0.623833
	H11310	H	0.835336	0.440550	0.497952
	H11311	H	0.830990	0.440711	0.499032
	H11312	H	0.788060	0.440776	0.625680
	H11313	H	0.792963	0.440706	0.622775
	H11314	H	0.803987	0.564083	0.623803
	H11315	H	0.835225	0.564077	0.494638
	H11316	H	0.793009	0.564142	0.622759
	H11317	H	0.788021	0.564300	0.625651
	H11318	H	0.830905	0.564365	0.499011
	H11319	H	0.835257	0.564418	0.497940
	H11320	H	0.828103	0.143355	0.604422
	H11321	H	0.828542	0.362893	0.604485
	H11322	H	0.836455	0.063605	0.499431
	H11323	H	0.839233	0.064623	0.496253
	H11324	H	0.826358	0.064073	0.499805
	H11325	H	0.781402	0.862211	0.600910
	H11326	H	0.781131	0.642955	0.600922
	H11327	H	0.781287	0.361515	0.601006
	H11328	H	0.781161	0.141907	0.600914
	H11329	H	0.799632	0.143018	0.518695
	H11330	H	0.846828	0.142248	0.522275
	H11331	H	0.846298	0.362424	0.522315
	H11332	H	0.799581	0.361799	0.518703
	H11333	H	0.843924	0.142026	0.538474
	H11334	H	0.843468	0.361854	0.538520
	H11335	H	0.794597	0.064215	0.625489
	H11336	H	0.793356	0.064260	0.627048
	H11337	H	0.796536	0.063965	0.629011
	H11338	H	0.839260	0.940580	0.496223
	H11339	H	0.836558	0.940968	0.499438
	H11340	H	0.826402	0.940951	0.499815
	H11341	H	0.794501	0.940834	0.625539
	H11342	H	0.793297	0.940693	0.627083
	H11343	H	0.796517	0.940642	0.628992
	Zn11344	Zn	0.767667	0.679944	0.558630
	Zn11345	Zn	0.767605	0.825223	0.558677
	Zn11346	Zn	0.767703	0.179882	0.558717
	Zn11347	Zn	0.767772	0.325356	0.558683
	Zn11348	Zn	0.797471	0.680089	0.627015
	Zn11349	Zn	0.797530	0.825100	0.627044
	Zn11350	Zn	0.797670	0.179804	0.627021
	Zn11351	Zn	0.797480	0.325073	0.626994
	C11352	C	0.843293	0.751780	0.549283
	C11353	C	0.784499	0.752569	0.573904
	C11354	C	0.784372	0.752555	0.583744
	C11355	C	0.783419	0.690501	0.588337
	C11356	C	0.783533	0.814542	0.588321
	C11357	C	0.784574	0.252097	0.573932
	C11358	C	0.784404	0.252122	0.583788
	C11359	C	0.783410	0.189815	0.588321
	C11360	C	0.783494	0.314146	0.588387
	C11361	C	0.784469	0.753159	0.544407
	C11362	C	0.789893	0.753495	0.535097
	C11363	C	0.792156	0.815468	0.530668
	C11364	C	0.792266	0.691549	0.530683
	C11365	C	0.784557	0.252360	0.544430
	C11366	C	0.790040	0.252357	0.535121
	C11367	C	0.792360	0.314220	0.530711
	C11368	C	0.792402	0.190549	0.530708
	C11369	C	0.863437	0.043015	0.566106
	C11370	C	0.863453	0.962313	0.566093
	C11371	C	0.767192	0.042723	0.558419
	C11372	C	0.767164	0.962042	0.558400
	C11373	C	0.767521	0.042989	0.559129
	C11374	C	0.767447	0.962076	0.559122
	C11375	C	0.771912	0.461989	0.559481
	C11376	C	0.858636	0.461995	0.562806
	C11377	C	0.863769	0.462238	0.564918
	C11378	C	0.771864	0.543192	0.559463
	C11379	C	0.863822	0.543070	0.564937
	C11380	C	0.858666	0.543000	0.562807
	C11381	C	0.843391	0.752325	0.578805
	C11382	C	0.843342	0.253075	0.578775
	C11383	C	0.837864	0.752480	0.588095
	C11384	C	0.835650	0.690694	0.592538
	C11385	C	0.835356	0.814371	0.592466
	C11386	C	0.837852	0.253092	0.588059
	C11387	C	0.835429	0.191016	0.592445
	C11388	C	0.835690	0.315153	0.592479
	C11389	C	0.843153	0.252074	0.549301
	C11390	C	0.847208	0.751980	0.511381
	C11391	C	0.807616	0.753202	0.508826
	C11392	C	0.780695	0.752728	0.611773
	C11393	C	0.844332	0.689757	0.534812
	C11394	C	0.844494	0.813811	0.534830
	C11395	C	0.847064	0.751914	0.521242
	C11396	C	0.800052	0.753550	0.517745
	C11397	C	0.797348	0.691595	0.522098
	C11398	C	0.845994	0.689761	0.525817
	C11399	C	0.846191	0.813982	0.525839
	C11400	C	0.797252	0.815561	0.522083
	C11401	C	0.843451	0.751760	0.539419
	C11402	C	0.820365	0.752607	0.614417
	C11403	C	0.830556	0.690763	0.601127
	C11404	C	0.830280	0.814489	0.601053
	C11405	C	0.827704	0.752684	0.605442
	C11406	C	0.803360	0.462278	0.626009
	C11407	C	0.832465	0.462010	0.497884
	C11408	C	0.792300	0.462022	0.624962
	C11409	C	0.803362	0.542916	0.626000
	C11410	C	0.792304	0.542989	0.624937
	C11411	C	0.832424	0.542848	0.497873
	C11412	C	0.820209	0.253117	0.614296
	C11413	C	0.830327	0.190998	0.601018
	C11414	C	0.830579	0.315146	0.601053
	C11415	C	0.827689	0.253073	0.605373
	C11416	C	0.835936	0.042921	0.497406
	C11417	C	0.847119	0.252552	0.511454
	C11418	C	0.807502	0.252574	0.508816
	C11419	C	0.780732	0.251881	0.611782
	C11420	C	0.844411	0.189763	0.534859
	C11421	C	0.844161	0.314173	0.534892
	C11422	C	0.846982	0.252359	0.521311
	C11423	C	0.800068	0.252466	0.517756
	C11424	C	0.780896	0.752626	0.601918
	C11425	C	0.781870	0.814594	0.597314
	C11426	C	0.781709	0.690568	0.597321
	C11427	C	0.780851	0.251773	0.601930
	C11428	C	0.781792	0.313985	0.597372
	C11429	C	0.781707	0.189671	0.597312
	C11430	C	0.797422	0.190537	0.522116
	C11431	C	0.846144	0.190007	0.525878
	C11432	C	0.845890	0.314460	0.525911
	C11433	C	0.797383	0.314315	0.522117
	C11434	C	0.843341	0.251878	0.539454
	C11435	C	0.794880	0.042960	0.626487
	C11436	C	0.825854	0.042883	0.497748
	C11437	C	0.835981	0.962280	0.497403
	C11438	C	0.794856	0.961936	0.626504
	C11439	C	0.825827	0.961911	0.497760
	N11440	N	0.767798	0.069700	0.558760
	N11441	N	0.767725	0.935175	0.558731
	N11442	N	0.767843	0.435371	0.558675
	N11443	N	0.767797	0.569897	0.558668
	N11444	N	0.797392	0.435441	0.626981
	N11445	N	0.797382	0.570039	0.626956
	N11446	N	0.797619	0.069592	0.627031
	N11447	N	0.797538	0.935094	0.627035
	O11448	O	0.887312	0.694671	0.670598
	O11449	O	0.887458	0.811059	0.670536
	O11450	O	0.756889	0.694257	0.698842
	O11451	O	0.756892	0.810514	0.698813
	O11452	O	0.756805	0.194157	0.698792
	O11453	O	0.756823	0.310379	0.698792
	O11454	O	0.754504	0.694323	0.680208
	O11455	O	0.754460	0.811168	0.680194
	O11456	O	0.754415	0.193787	0.680185
	O11457	O	0.754555	0.310608	0.680226
	O11458	O	0.889450	0.694404	0.689157
	O11459	O	0.889818	0.811157	0.689202
	O11460	O	0.889649	0.194018	0.689169
	O11461	O	0.889383	0.310583	0.689109
	O11462	O	0.887437	0.194274	0.670477
	O11463	O	0.887230	0.310414	0.670584
	O11464	O	0.819207	0.694523	0.636395
	O11465	O	0.782969	0.694754	0.637690
	O11466	O	0.861090	0.694441	0.731673
	O11467	O	0.861239	0.810878	0.731679
	O11468	O	0.824841	0.694584	0.733070
	O11469	O	0.824879	0.810736	0.733073
	O11470	O	0.782877	0.811166	0.637714
	O11471	O	0.819296	0.810904	0.636358
	O11472	O	0.819360	0.194960	0.636313
	O11473	O	0.783032	0.193904	0.637700
	O11474	O	0.861295	0.194689	0.731700
	O11475	O	0.861204	0.311256	0.731691
	O11476	O	0.824933	0.194501	0.733006
	O11477	O	0.824733	0.310790	0.733049
	O11478	O	0.782948	0.310432	0.637723
	O11479	O	0.819115	0.310992	0.636377
	H11480	H	0.778697	0.644285	0.709785
	H11481	H	0.778777	0.860682	0.709719
	H11482	H	0.778731	0.144081	0.709747
	H11483	H	0.778730	0.360488	0.709719
	H11484	H	0.765773	0.862207	0.667051
	H11485	H	0.765947	0.643148	0.667042
	H11486	H	0.765839	0.361693	0.667009
	H11487	H	0.765831	0.142441	0.667027
	H11488	H	0.908314	0.064529	0.681004
	H11489	H	0.910459	0.064214	0.681006
	H11490	H	0.910550	0.941037	0.681033
	H11491	H	0.908352	0.941299	0.681035
	H11492	H	0.906605	0.064558	0.679802
	H11493	H	0.906499	0.941318	0.679813
	H11494	H	0.728629	0.064122	0.689719
	H11495	H	0.728675	0.940640	0.689736
	H11496	H	0.731484	0.064327	0.691957
	H11497	H	0.731494	0.940928	0.691978
	H11498	H	0.738930	0.064249	0.692127
	H11499	H	0.738935	0.941079	0.692134
	H11500	H	0.738231	0.440707	0.685081
	H11501	H	0.729840	0.440770	0.685284
	H11502	H	0.745202	0.440927	0.689682
	H11503	H	0.912689	0.440553	0.678964
	H11504	H	0.912079	0.440756	0.681231
	H11505	H	0.908964	0.441131	0.681745
	H11506	H	0.729773	0.563913	0.685289
	H11507	H	0.738196	0.564057	0.685055
	H11508	H	0.908963	0.564056	0.681740
	H11509	H	0.912009	0.563967	0.681181
	H11510	H	0.912542	0.564495	0.678970
	H11511	H	0.745238	0.564620	0.689706
	H11512	H	0.878120	0.643476	0.702357
	H11513	H	0.878398	0.862196	0.702365
	H11514	H	0.878599	0.142929	0.702444
	H11515	H	0.878051	0.361868	0.702274
	H11516	H	0.775048	0.643148	0.651556
	H11517	H	0.841102	0.644089	0.647365
	H11518	H	0.841498	0.861509	0.647123
	H11519	H	0.774867	0.862262	0.651557
	H11520	H	0.865262	0.644204	0.659754
	H11521	H	0.865690	0.861540	0.659519
	H11522	H	0.869134	0.643378	0.717834
	H11523	H	0.869302	0.862293	0.717839
	H11524	H	0.807013	0.440753	0.627516
	H11525	H	0.846132	0.441025	0.745312
	H11526	H	0.800354	0.440789	0.631435
	H11527	H	0.792372	0.440842	0.630738
	H11528	H	0.852188	0.440761	0.741331
	H11529	H	0.852129	0.440608	0.743747
	H11530	H	0.846162	0.563822	0.745315
	H11531	H	0.807060	0.563943	0.627502
	H11532	H	0.852282	0.564443	0.743798
	H11533	H	0.852344	0.564313	0.741358
	H11534	H	0.792328	0.564006	0.630692
	H11535	H	0.800349	0.564177	0.631416
	H11536	H	0.869432	0.143400	0.717892
	H11537	H	0.868917	0.362071	0.717753
	H11538	H	0.801767	0.064445	0.626658
	H11539	H	0.799515	0.064134	0.625217
	H11540	H	0.800124	0.064523	0.628789
	H11541	H	0.802923	0.860635	0.722141
	H11542	H	0.802808	0.644656	0.722178
	H11543	H	0.802924	0.360698	0.722121
	H11544	H	0.802906	0.144048	0.722121
	H11545	H	0.774990	0.142688	0.651552
	H11546	H	0.841305	0.145263	0.647169
	H11547	H	0.841020	0.360945	0.647422
	H11548	H	0.775044	0.361614	0.651557
	H11549	H	0.865563	0.144832	0.659541
	H11550	H	0.865209	0.360455	0.659787
	H11551	H	0.850985	0.063978	0.744250
	H11552	H	0.852335	0.064314	0.742119
	H11553	H	0.847731	0.064567	0.739697
	H11554	H	0.799403	0.941520	0.625225
	H11555	H	0.801788	0.940804	0.626611
	H11556	H	0.800141	0.940586	0.628783
	H11557	H	0.851011	0.940777	0.744215
	H11558	H	0.852263	0.940490	0.742074
	H11559	H	0.847663	0.940303	0.739681
	Zn11560	Zn	0.735100	0.679848	0.689535
	Zn11561	Zn	0.735033	0.825220	0.689550
	Zn11562	Zn	0.735050	0.179925	0.689483
	Zn11563	Zn	0.735172	0.325041	0.689519
	Zn11564	Zn	0.846652	0.679923	0.742325
	Zn11565	Zn	0.846560	0.824899	0.742335
	Zn11566	Zn	0.846669	0.179950	0.742324
	Zn11567	Zn	0.846501	0.324862	0.742342
	C11568	C	0.881585	0.752897	0.667778
	C11569	C	0.762664	0.752418	0.701619
	C11570	C	0.777351	0.752518	0.708990
	C11571	C	0.784121	0.691363	0.712511
	C11572	C	0.784172	0.813696	0.712480
	C11573	C	0.762560	0.252261	0.701594
	C11574	C	0.777256	0.252287	0.708987
	C11575	C	0.784098	0.191066	0.712504
	C11576	C	0.784099	0.313552	0.712490
	C11577	C	0.757954	0.752773	0.676903
	C11578	C	0.765315	0.752675	0.667945
	C11579	C	0.767939	0.814675	0.663606
	C11580	C	0.768046	0.690661	0.663598
	C11581	C	0.757897	0.252210	0.676898
	C11582	C	0.765317	0.252125	0.667953
	C11583	C	0.767993	0.314119	0.663596
	C11584	C	0.768000	0.190113	0.663598
	C11585	C	0.909383	0.043014	0.680695
	C11586	C	0.909427	0.962291	0.680725
	C11587	C	0.731337	0.043169	0.690490
	C11588	C	0.731349	0.962056	0.690490
	C11589	C	0.738759	0.043051	0.690621
	C11590	C	0.738768	0.962419	0.690611
	C11591	C	0.734278	0.462150	0.686324
	C11592	C	0.910698	0.462183	0.678825
	C11593	C	0.910192	0.462412	0.681059
	C11594	C	0.734260	0.542728	0.686327
	C11595	C	0.910159	0.542712	0.681049
	C11596	C	0.910685	0.543168	0.678832
	C11597	C	0.886156	0.752867	0.692474
	C11598	C	0.886147	0.252268	0.692461
	C11599	C	0.878831	0.752855	0.701429
	C11600	C	0.876111	0.690992	0.705796
	C11601	C	0.876248	0.814732	0.705795
	C11602	C	0.878850	0.252421	0.701422
	C11603	C	0.876338	0.190594	0.705826
	C11604	C	0.876031	0.314420	0.705732
	C11605	C	0.881569	0.252367	0.667733
	C11606	C	0.825076	0.752721	0.639144
	C11607	C	0.780665	0.752897	0.641293
	C11608	C	0.819041	0.752680	0.730287
	C11609	C	0.859985	0.691305	0.656929
	C11610	C	0.860206	0.814383	0.656794
	C11611	C	0.839810	0.752789	0.646498
	C11612	C	0.775283	0.752728	0.650597
	C11613	C	0.773036	0.690708	0.655002
	C11614	C	0.846560	0.691318	0.650059
	C11615	C	0.846780	0.814277	0.649919
	C11616	C	0.772934	0.814693	0.655011
	C11617	C	0.866904	0.752886	0.660372
	C11618	C	0.863391	0.752690	0.728081
	C11619	C	0.871135	0.690888	0.714390
	C11620	C	0.871244	0.814755	0.714389
	C11621	C	0.868845	0.752821	0.718778
	C11622	C	0.844684	0.462143	0.744036
	C11623	C	0.796576	0.462122	0.630002
	C11624	C	0.850781	0.461937	0.742509
	C11625	C	0.844695	0.542631	0.744043
	C11626	C	0.850850	0.543042	0.742535
	C11627	C	0.796571	0.542935	0.629987
	C11628	C	0.863479	0.253006	0.728102
	C11629	C	0.871382	0.190872	0.714421
	C11630	C	0.871084	0.314597	0.714333
	C11631	C	0.868964	0.252907	0.718801
	C11632	C	0.799810	0.042812	0.626227
	C11633	C	0.825062	0.253076	0.639133
	C11634	C	0.780733	0.252146	0.641299
	C11635	C	0.819019	0.252571	0.730247
	C11636	C	0.860077	0.191749	0.656833
	C11637	C	0.859904	0.313747	0.656971
	C11638	C	0.839785	0.253081	0.646510
	C11639	C	0.775267	0.252205	0.650596
	C11640	C	0.804364	0.752673	0.722891
	C11641	C	0.797557	0.813772	0.719367
	C11642	C	0.797498	0.691542	0.719394
	C11643	C	0.804289	0.252443	0.722889
	C11644	C	0.797511	0.313651	0.719362
	C11645	C	0.797508	0.191127	0.719377
	C11646	C	0.772981	0.190154	0.655000
	C11647	C	0.846633	0.191950	0.649976
	C11648	C	0.846479	0.314014	0.650117
	C11649	C	0.772996	0.314086	0.655008
	C11650	C	0.866840	0.252600	0.660391
	C11651	C	0.850400	0.042807	0.742954
	C11652	C	0.798102	0.042978	0.628403
	C11653	C	0.799763	0.962151	0.626219
	C11654	C	0.850358	0.962074	0.742955
	C11655	C	0.798092	0.962201	0.628404
	N11656	N	0.734922	0.069903	0.689533
	N11657	N	0.734900	0.935395	0.689531
	N11658	N	0.735098	0.435237	0.689531
	N11659	N	0.735076	0.569770	0.689566
	N11660	N	0.846697	0.435147	0.742380
	N11661	N	0.846764	0.569708	0.742378
	N11662	N	0.846793	0.069733	0.742339
	N11663	N	0.846768	0.935139	0.742323
	O11664	O	0.863309	0.694438	0.799444
	O11665	O	0.863156	0.811268	0.799515
	O11666	O	0.799869	0.694271	0.816328
	O11667	O	0.799829	0.811073	0.816340
	O11668	O	0.799644	0.193266	0.816414
	O11669	O	0.799997	0.310116	0.816340
	O11670	O	0.798552	0.694212	0.794173
	O11671	O	0.798432	0.810547	0.794167
	O11672	O	0.798482	0.193482	0.794093
	O11673	O	0.798470	0.310076	0.794107
	O11674	O	0.861886	0.694570	0.820292
	O11675	O	0.861906	0.811315	0.820322
	O11676	O	0.861802	0.194403	0.820312
	O11677	O	0.861877	0.311097	0.820372
	O11678	O	0.863222	0.194772	0.799482
	O11679	O	0.863212	0.311511	0.799510
	O11680	O	0.862494	0.694162	0.753867
	O11681	O	0.827103	0.694159	0.751632
	O11682	O	0.836069	0.694420	0.863533
	O11683	O	0.836050	0.811140	0.863557
	O11684	O	0.800754	0.694289	0.861993
	O11685	O	0.800608	0.811041	0.861965
	O11686	O	0.827131	0.810801	0.751650
	O11687	O	0.862548	0.810952	0.753808
	O11688	O	0.862429	0.193900	0.753915
	O11689	O	0.827227	0.194035	0.751638
	O11690	O	0.836109	0.194297	0.863590
	O11691	O	0.836127	0.311175	0.863569
	O11692	O	0.800592	0.194075	0.862038
	O11693	O	0.800699	0.310915	0.861981
	O11694	O	0.827067	0.310783	0.751672
	O11695	O	0.862616	0.310636	0.753812
	H11696	H	0.800623	0.642836	0.830993
	H11697	H	0.800066	0.862520	0.830990
	H11698	H	0.800166	0.142018	0.831085
	H11699	H	0.800557	0.362051	0.831020
	H11700	H	0.806658	0.861818	0.780346
	H11701	H	0.806660	0.643252	0.780318
	H11702	H	0.806604	0.361688	0.780330
	H11703	H	0.806470	0.142213	0.780211
	H11704	H	0.868736	0.064235	0.818886
	H11705	H	0.886592	0.064106	0.820614
	H11706	H	0.886568	0.941318	0.820639
	H11707	H	0.868740	0.940542	0.818857
	H11708	H	0.859419	0.064468	0.807725
	H11709	H	0.859422	0.941169	0.807652
	H11710	H	0.785140	0.064238	0.803866
	H11711	H	0.785117	0.940905	0.803855
	H11712	H	0.783322	0.064662	0.803764
	H11713	H	0.783263	0.940464	0.803748
	H11714	H	0.781788	0.064198	0.804645
	H11715	H	0.781830	0.940805	0.804705
	H11716	H	0.783595	0.440192	0.803760
	H11717	H	0.782113	0.440728	0.804279
	H11718	H	0.785979	0.440966	0.804328
	H11719	H	0.897723	0.441302	0.814263
	H11720	H	0.880160	0.441322	0.819533
	H11721	H	0.866101	0.441174	0.815917
	H11722	H	0.782120	0.563757	0.804274
	H11723	H	0.783569	0.564010	0.803793
	H11724	H	0.866174	0.564905	0.815948
	H11725	H	0.880274	0.564521	0.819521
	H11726	H	0.897692	0.564414	0.814251
	H11727	H	0.786021	0.564301	0.804350
	H11728	H	0.852743	0.642959	0.834063
	H11729	H	0.852675	0.862940	0.834063
	H11730	H	0.852722	0.142709	0.834111
	H11731	H	0.852507	0.362826	0.834105
	H11732	H	0.815878	0.643230	0.764855
	H11733	H	0.862978	0.642946	0.768510
	H11734	H	0.863034	0.862619	0.768511
	H11735	H	0.815838	0.861960	0.764906
	H11736	H	0.861330	0.643042	0.784774
	H11737	H	0.861417	0.862772	0.784794
	H11738	H	0.845084	0.643141	0.849753
	H11739	H	0.845014	0.862895	0.849763
	H11740	H	0.841702	0.440607	0.743936
	H11741	H	0.811741	0.440955	0.874015
	H11742	H	0.841629	0.440294	0.740557
	H11743	H	0.846063	0.440808	0.739448
	H11744	H	0.822460	0.440677	0.875364
	H11745	H	0.817630	0.441036	0.876244
	H11746	H	0.811641	0.564281	0.873972
	H11747	H	0.841697	0.563909	0.743899
	H11748	H	0.817545	0.564275	0.876210
	H11749	H	0.822473	0.564302	0.875362
	H11750	H	0.846216	0.563777	0.739409
	H11751	H	0.841719	0.564120	0.740518
	H11752	H	0.845191	0.142642	0.849836
	H11753	H	0.845008	0.362665	0.849848
	H11754	H	0.841372	0.064019	0.743041
	H11755	H	0.844738	0.064198	0.744806
	H11756	H	0.843153	0.063854	0.740149
	H11757	H	0.798460	0.862213	0.847283
	H11758	H	0.799033	0.642765	0.847275
	H11759	H	0.798890	0.362367	0.847301
	H11760	H	0.798493	0.142168	0.847366
	H11761	H	0.815708	0.142589	0.764767
	H11762	H	0.862593	0.142925	0.768560
	H11763	H	0.863096	0.362518	0.768501
	H11764	H	0.815899	0.361916	0.764884
	H11765	H	0.861058	0.143134	0.784836
	H11766	H	0.861536	0.362951	0.784787
	H11767	H	0.821843	0.063992	0.872759
	H11768	H	0.819478	0.064174	0.871370
	H11769	H	0.814664	0.064295	0.871656
	H11770	H	0.844621	0.940574	0.744787
	H11771	H	0.841374	0.940827	0.743036
	H11772	H	0.843095	0.940855	0.740181
	H11773	H	0.821868	0.940904	0.872754
	H11774	H	0.819459	0.940774	0.871342
	H11775	H	0.814602	0.941048	0.871633
	Zn11776	Zn	0.783933	0.679652	0.804849
	Zn11777	Zn	0.783950	0.825137	0.804829
	Zn11778	Zn	0.783899	0.179880	0.804807
	Zn11779	Zn	0.784067	0.325046	0.804829
	Zn11780	Zn	0.817671	0.680441	0.873197
	Zn11781	Zn	0.817724	0.824918	0.873177
	Zn11782	Zn	0.817772	0.180223	0.873210
	Zn11783	Zn	0.817744	0.325013	0.873209
	C11784	C	0.862097	0.752980	0.795671
	C11785	C	0.800486	0.752649	0.820164
	C11786	C	0.800710	0.752688	0.830016
	C11787	C	0.800228	0.690509	0.834620
	C11788	C	0.799896	0.814777	0.834620
	C11789	C	0.800479	0.251793	0.820217
	C11790	C	0.800674	0.251955	0.830075
	C11791	C	0.799914	0.189846	0.834700
	C11792	C	0.800146	0.314340	0.834655
	C11793	C	0.800781	0.752388	0.790588
	C11794	C	0.806272	0.752432	0.781300
	C11795	C	0.808648	0.814306	0.776905
	C11796	C	0.808675	0.690694	0.776881
	C11797	C	0.800702	0.251770	0.790511
	C11798	C	0.806207	0.251894	0.781237
	C11799	C	0.808592	0.314062	0.776865
	C11800	C	0.808506	0.189956	0.776803
	C11801	C	0.878333	0.043088	0.817337
	C11802	C	0.878325	0.962200	0.817350
	C11803	C	0.784214	0.043071	0.804080
	C11804	C	0.784184	0.961845	0.804067
	C11805	C	0.782724	0.042907	0.805011
	C11806	C	0.782733	0.962249	0.805031
	C11807	C	0.783240	0.461938	0.804244
	C11808	C	0.892594	0.462297	0.810587
	C11809	C	0.875036	0.462391	0.815880
	C11810	C	0.783215	0.542662	0.804241
	C11811	C	0.875056	0.543410	0.815873
	C11812	C	0.892600	0.543229	0.810563
	C11813	C	0.858982	0.752904	0.823781
	C11814	C	0.858983	0.252716	0.823839
	C11815	C	0.853089	0.752965	0.833051
	C11816	C	0.851002	0.690845	0.837535
	C11817	C	0.850923	0.815130	0.837537
	C11818	C	0.853130	0.252734	0.833123
	C11819	C	0.851044	0.190542	0.837596
	C11820	C	0.850915	0.314955	0.837599
	C11821	C	0.862133	0.253161	0.795679
	C11822	C	0.863194	0.752700	0.757669
	C11823	C	0.823689	0.752476	0.754961
	C11824	C	0.799546	0.752593	0.858162
	C11825	C	0.861669	0.690703	0.781169
	C11826	C	0.861746	0.814971	0.781183
	C11827	C	0.863395	0.752786	0.767541
	C11828	C	0.816392	0.752600	0.763948
	C11829	C	0.813719	0.690756	0.768293
	C11830	C	0.862717	0.690628	0.772137
	C11831	C	0.862781	0.814930	0.772145
	C11832	C	0.813684	0.814459	0.768317
	C11833	C	0.861234	0.752878	0.785795
	C11834	C	0.838939	0.752834	0.860053
	C11835	C	0.846877	0.690888	0.846276
	C11836	C	0.846806	0.815198	0.846282
	C11837	C	0.844767	0.753009	0.850751
	C11838	C	0.813477	0.462156	0.872860
	C11839	C	0.844639	0.461854	0.740640
	C11840	C	0.819449	0.462070	0.875129
	C11841	C	0.813473	0.543073	0.872844
	C11842	C	0.819401	0.543046	0.875109
	C11843	C	0.844710	0.542749	0.740629
	C11844	C	0.839031	0.252687	0.860110
	C11845	C	0.846935	0.190459	0.846342
	C11846	C	0.846825	0.314970	0.846345
	C11847	C	0.844876	0.252643	0.850818
	C11848	C	0.844048	0.042879	0.743527
	C11849	C	0.863099	0.252463	0.757704
	C11850	C	0.823740	0.252290	0.754971
	C11851	C	0.799500	0.252389	0.858203
	C11852	C	0.861471	0.190835	0.781212
	C11853	C	0.861743	0.315071	0.781179
	C11854	C	0.863274	0.252762	0.767566
	C11855	C	0.816340	0.252236	0.763927
	C11856	C	0.798605	0.752528	0.848278
	C11857	C	0.798906	0.814665	0.843655
	C11858	C	0.799236	0.690481	0.843657
	C11859	C	0.798547	0.252332	0.848325
	C11860	C	0.799168	0.314515	0.843689
	C11861	C	0.798938	0.189951	0.843735
	C11862	C	0.813598	0.190052	0.768227
	C11863	C	0.862449	0.190663	0.772176
	C11864	C	0.862738	0.314861	0.772148
	C11865	C	0.813679	0.314269	0.768288
	C11866	C	0.861097	0.253077	0.785822
	C11867	C	0.819870	0.042922	0.872358
	C11868	C	0.845797	0.042837	0.740561
	C11869	C	0.844024	0.962055	0.743517
	C11870	C	0.819859	0.962151	0.872350
	C11871	C	0.845768	0.961886	0.740579
	N11872	N	0.784065	0.069735	0.804740
	N11873	N	0.784086	0.935228	0.804755
	N11874	N	0.784166	0.435202	0.804837
	N11875	N	0.784100	0.569704	0.804820
	N11876	N	0.817719	0.435327	0.873213
	N11877	N	0.817691	0.569950	0.873210
	N11878	N	0.817677	0.070007	0.873203
	N11879	N	0.817665	0.935403	0.873174
	O11880	O	0.835774	0.694664	0.929978
	O11881	O	0.835844	0.811736	0.929962
	O11882	O	0.772345	0.694709	0.946930
	O11883	O	0.772239	0.811349	0.946969
	O11884	O	0.772461	0.194518	0.946882
	O11885	O	0.772287	0.311316	0.946867
	O11886	O	0.773644	0.694275	0.926052
	O11887	O	0.773826	0.810889	0.926156
	O11888	O	0.773657	0.194386	0.926067
	O11889	O	0.773703	0.310980	0.926047
	O11890	O	0.836977	0.694685	0.952225
	O11891	O	0.837022	0.811163	0.952192
	O11892	O	0.837193	0.194374	0.952209
	O11893	O	0.837129	0.310965	0.952184
	O11894	O	0.835742	0.194379	0.930003
	O11895	O	0.835655	0.311230	0.930060
	O11896	O	0.834684	0.694561	0.884391
	O11897	O	0.799264	0.694710	0.882797
	O11898	O	0.808656	0.694787	0.994747
	O11899	O	0.808720	0.811454	0.994759
	O11900	O	0.773087	0.695104	0.992557
	O11901	O	0.773227	0.811943	0.992547
	O11902	O	0.799493	0.811288	0.882851
	O11903	O	0.834944	0.811302	0.884356
	O11904	O	0.834870	0.194398	0.884422
	O11905	O	0.799318	0.194387	0.882821
	O11906	O	0.808619	0.194150	0.994724
	O11907	O	0.808740	0.310833	0.994801
	O11908	O	0.773236	0.195031	0.992521
	O11909	O	0.773192	0.311795	0.992479
	O11910	O	0.799275	0.310981	0.882813
	O11911	O	0.834742	0.311318	0.884378
	H11912	H	0.773926	0.642978	0.961602
	H11913	H	0.774715	0.862924	0.961628
	H11914	H	0.774564	0.143239	0.961549
	H11915	H	0.774211	0.362682	0.961483
	H11916	H	0.783138	0.862673	0.912393
	H11917	H	0.782404	0.643063	0.912254
	H11918	H	0.782396	0.362555	0.912238
	H11919	H	0.782932	0.142407	0.912333
	H11920	H	0.853512	0.064731	0.941544
	H11921	H	0.852684	0.064598	0.940739
	H11922	H	0.852649	0.940798	0.940774
	H11923	H	0.853454	0.941094	0.941546
	H11924	H	0.852260	0.064828	0.942449
	H11925	H	0.852144	0.941764	0.942454
	H11926	H	0.746368	0.064672	0.934949
	H11927	H	0.746224	0.941574	0.934939
	H11928	H	0.748620	0.064820	0.938448
	H11929	H	0.748708	0.941114	0.938439
	H11930	H	0.758935	0.064162	0.939790
	H11931	H	0.758876	0.941051	0.939782
	H11932	H	0.767646	0.440661	0.944881
	H11933	H	0.777450	0.441450	0.937605
	H11934	H	0.742169	0.440577	0.943779
	H11935	H	0.853019	0.441448	0.941025
	H11936	H	0.853099	0.441640	0.941956
	H11937	H	0.851897	0.441392	0.942310
	H11938	H	0.777410	0.564182	0.937610
	H11939	H	0.767740	0.564262	0.944907
	H11940	H	0.851787	0.564431	0.942365
	H11941	H	0.853064	0.564623	0.941971
	H11942	H	0.852913	0.565095	0.941079
	H11943	H	0.742190	0.564293	0.943816
	H11944	H	0.828832	0.643693	0.966049
	H11945	H	0.829130	0.862518	0.966069
	H11946	H	0.829202	0.143288	0.966072
	H11947	H	0.828991	0.362163	0.966015
	H11948	H	0.790011	0.643116	0.896548
	H11949	H	0.836190	0.642937	0.899068
	H11950	H	0.837286	0.862792	0.899073
	H11951	H	0.790742	0.862788	0.896694
	H11952	H	0.834757	0.643120	0.915339
	H11953	H	0.835900	0.862717	0.915352
	H11954	H	0.819696	0.643655	0.981529
	H11955	H	0.820028	0.862747	0.981521
	H11956	H	0.812215	0.440825	0.871447
	H11957	H	0.785967	0.440658	0.998808
	H11958	H	0.818906	0.441436	0.870258
	H11959	H	0.823315	0.441048	0.871905
	H11960	H	0.781509	0.441583	1.007662
	H11961	H	0.777969	0.441111	1.003409
	H11962	H	0.785874	0.564501	0.998832
	H11963	H	0.812200	0.564366	0.871443
	H11964	H	0.778098	0.564486	1.003411
	H11965	H	0.781478	0.564525	1.007627
	H11966	H	0.823248	0.564451	0.871914
	H11967	H	0.818918	0.564670	0.870300
	H11968	H	0.820073	0.143417	0.981539
	H11969	H	0.819923	0.362131	0.981501
	H11970	H	0.816614	0.063986	0.875157
	H11971	H	0.820247	0.064118	0.874972
	H11972	H	0.813405	0.064422	0.873230
	H11973	H	0.773104	0.862946	0.977895
	H11974	H	0.772351	0.643166	0.977877
	H11975	H	0.772668	0.363005	0.977760
	H11976	H	0.773051	0.143459	0.977828
	H11977	H	0.790500	0.142428	0.896631
	H11978	H	0.836858	0.143051	0.899101
	H11979	H	0.836539	0.362883	0.899075
	H11980	H	0.789968	0.362639	0.896527
	H11981	H	0.835355	0.143106	0.915379
	H11982	H	0.835068	0.362738	0.915374
	H11983	H	0.797318	0.064494	1.008709
	H11984	H	0.801317	0.064400	1.004255
	H11985	H	0.792881	0.064595	0.998674
	H11986	H	0.820112	0.940473	0.874901
	H11987	H	0.816607	0.940539	0.875118
	H11988	H	0.813357	0.940954	0.873244
	H11989	H	0.797344	0.940970	1.008664
	H11990	H	0.801347	0.941477	1.004297
	H11991	H	0.792883	0.941328	0.998658
	Zn11992	Zn	0.755375	0.680127	0.935733
	Zn11993	Zn	0.755293	0.825147	0.935740
	Zn11994	Zn	0.755385	0.180337	0.935709
	Zn11995	Zn	0.755325	0.325147	0.935660
	Zn11996	Zn	0.789215	0.680090	1.004032
	Zn11997	Zn	0.789250	0.825601	1.004080
	Zn11998	Zn	0.789129	0.180214	1.004026
	Zn11999	Zn	0.789207	0.325577	1.004047
	C12000	C	0.835176	0.753168	0.926151
	C12001	C	0.773402	0.752972	0.950756
	C12002	C	0.774497	0.752996	0.960612
	C12003	C	0.773790	0.690781	0.965213
	C12004	C	0.774209	0.815117	0.965237
	C12005	C	0.773445	0.252966	0.950689
	C12006	C	0.774523	0.253074	0.960559
	C12007	C	0.774177	0.191000	0.965179
	C12008	C	0.773951	0.315234	0.965135
	C12009	C	0.776571	0.752702	0.922601
	C12010	C	0.782492	0.752787	0.913332
	C12011	C	0.784735	0.814903	0.908882
	C12012	C	0.784342	0.690808	0.908801
	C12013	C	0.776520	0.252647	0.922563
	C12014	C	0.782318	0.252563	0.913285
	C12015	C	0.784245	0.314741	0.908771
	C12016	C	0.784542	0.190375	0.908830
	C12017	C	0.852603	0.043356	0.941235
	C12018	C	0.852567	0.962235	0.941246
	C12019	C	0.749546	0.043493	0.936435
	C12020	C	0.749551	0.962498	0.936424
	C12021	C	0.759817	0.043057	0.937776
	C12022	C	0.759775	0.962439	0.937769
	C12023	C	0.768032	0.462345	0.939786
	C12024	C	0.852097	0.462690	0.941015
	C12025	C	0.852211	0.462823	0.941979
	C12026	C	0.768029	0.542997	0.939803
	C12027	C	0.852155	0.543417	0.942005
	C12028	C	0.852066	0.543488	0.941030
	C12029	C	0.834777	0.752988	0.955796
	C12030	C	0.834950	0.252744	0.955788
	C12031	C	0.829385	0.753064	0.965115
	C12032	C	0.826983	0.691200	0.969523
	C12033	C	0.827124	0.815007	0.969516
	C12034	C	0.829398	0.252759	0.965080
	C12035	C	0.827145	0.190821	0.969501
	C12036	C	0.827055	0.314645	0.969478
	C12037	C	0.835037	0.252906	0.926197
	C12038	C	0.835927	0.752964	0.888188
	C12039	C	0.796616	0.752953	0.886346
	C12040	C	0.772552	0.753505	0.988716
	C12041	C	0.835207	0.690718	0.911704
	C12042	C	0.835828	0.815078	0.911706
	C12043	C	0.836941	0.752854	0.898056
	C12044	C	0.790712	0.752906	0.895616
	C12045	C	0.788430	0.690901	0.900056
	C12046	C	0.836160	0.690723	0.902670
	C12047	C	0.836805	0.815043	0.902679
	C12048	C	0.788837	0.814928	0.900136
	C12049	C	0.834867	0.752993	0.916292
	C12050	C	0.812064	0.753162	0.991424
	C12051	C	0.821963	0.691234	0.978115
	C12052	C	0.822126	0.815160	0.978105
	C12053	C	0.819429	0.753276	0.982477
	C12054	C	0.790166	0.462287	1.000521
	C12055	C	0.820212	0.462510	0.871641
	C12056	C	0.782217	0.462529	1.005127
	C12057	C	0.790129	0.543345	1.000522
	C12058	C	0.782200	0.543169	1.005132
	C12059	C	0.820193	0.543127	0.871642
	C12060	C	0.812071	0.252581	0.991431
	C12061	C	0.822174	0.190867	0.978101
	C12062	C	0.822066	0.314623	0.978078
	C12063	C	0.819441	0.252768	0.982456
	C12064	C	0.818206	0.042955	0.874552
	C12065	C	0.835893	0.252950	0.888209
	C12066	C	0.796431	0.252657	0.886309
	C12067	C	0.772602	0.253369	0.988667
	C12068	C	0.835536	0.190805	0.911746
	C12069	C	0.835369	0.315081	0.911739
	C12070	C	0.836862	0.252944	0.898087
	C12071	C	0.790539	0.252564	0.895580
	C12072	C	0.772325	0.753207	0.978846
	C12073	C	0.773209	0.815277	0.974261
	C12074	C	0.772802	0.690852	0.974243
	C12075	C	0.772357	0.253267	0.978807
	C12076	C	0.772994	0.315182	0.974172
	C12077	C	0.773196	0.191269	0.974211
	C12078	C	0.788623	0.190361	0.900084
	C12079	C	0.836499	0.190794	0.902713
	C12080	C	0.836330	0.315089	0.902706
	C12081	C	0.788342	0.314765	0.900029
	C12082	C	0.834804	0.252980	0.916339
	C12083	C	0.796594	0.043350	1.005840
	C12084	C	0.814977	0.042933	0.872634
	C12085	C	0.818179	0.962043	0.874538
	C12086	C	0.796599	0.962457	1.005851
	C12087	C	0.814964	0.962151	0.872630
	N12088	N	0.755266	0.070118	0.935707
	N12089	N	0.755224	0.935555	0.935725
	N12090	N	0.755361	0.435405	0.935669
	N12091	N	0.755390	0.569935	0.935664
	N12092	N	0.789033	0.435682	1.004044
	N12093	N	0.789036	0.570172	1.004035
	N12094	N	0.789032	0.070189	1.004067
	N12095	N	0.789028	0.935724	1.004088
	O12096	O	0.979993	0.695847	0.051433
	O12097	O	0.980599	0.812593	0.051369
	O12098	O	0.916743	0.695268	0.068307
	O12099	O	0.916859	0.812019	0.068285
	O12100	O	0.917028	0.194551	0.068238
	O12101	O	0.916720	0.311469	0.068317
	O12102	O	0.915449	0.695278	0.046048
	O12103	O	0.915428	0.811931	0.046056
	O12104	O	0.915562	0.194869	0.046071
	O12105	O	0.915379	0.311110	0.046022
	O12106	O	0.978658	0.695191	0.072090
	O12107	O	0.979303	0.811779	0.072287
	O12108	O	0.979430	0.193695	0.072298
	O12109	O	0.978915	0.310136	0.072171
	O12110	O	0.980731	0.192895	0.051298
	O12111	O	0.980128	0.309594	0.051361
	O12112	O	0.979037	0.694494	0.005827
	O12113	O	0.943940	0.694707	0.003557
	O12114	O	0.953182	0.693127	0.115397
	O12115	O	0.953574	0.809677	0.115488
	O12116	O	0.917743	0.695918	0.113912
	O12117	O	0.918067	0.812532	0.113919
	O12118	O	0.944014	0.811620	0.003564
	O12119	O	0.979443	0.811391	0.005711
	O12120	O	0.979422	0.194276	0.005697
	O12121	O	0.943797	0.194440	0.003494
	O12122	O	0.953551	0.195257	0.115500
	O12123	O	0.953008	0.311897	0.115374
	O12124	O	0.918029	0.193147	0.113919
	O12125	O	0.917513	0.309801	0.113898
	O12126	O	0.943814	0.311230	0.003525
	O12127	O	0.979077	0.310962	0.005773
	H12128	H	0.916987	0.643925	0.082963
	H12129	H	0.917883	0.863542	0.082960
	H12130	H	0.917776	0.142631	0.082909
	H12131	H	0.916772	0.362310	0.082995
	H12132	H	0.923495	0.863177	0.032219
	H12133	H	0.923383	0.643976	0.032172
	H12134	H	0.923250	0.362405	0.032138
	H12135	H	0.923876	0.143505	0.032246
	H12136	H	0.999242	0.064484	0.062341
	H12137	H	0.998064	0.064297	0.061932
	H12138	H	0.998136	0.940655	0.061904
	H12139	H	0.999241	0.941012	0.062308
	H12140	H	0.999033	0.064466	0.063162
	H12141	H	0.999066	0.940573	0.063178
	H12142	H	0.912499	0.064569	0.062283
	H12143	H	0.912457	0.941738	0.062276
	H12144	H	0.916715	0.065306	0.056481
	H12145	H	0.916583	0.940910	0.056521
	H12146	H	0.904707	0.065306	0.049671
	H12147	H	0.904731	0.940952	0.049666
	H12148	H	0.903792	0.441200	0.057686
	H12149	H	0.904237	0.441170	0.056475
	H12150	H	0.900351	0.441400	0.058225
	H12151	H	0.991039	0.440657	0.061264
	H12152	H	0.997273	0.440884	0.059369
	H12153	H	1.002322	0.440711	0.060611
	H12154	H	0.904204	0.564792	0.056432
	H12155	H	0.903755	0.564804	0.057684
	H12156	H	1.002229	0.564647	0.060617
	H12157	H	0.997161	0.564036	0.059376
	H12158	H	0.991156	0.564346	0.061280
	H12159	H	0.900371	0.564458	0.058202
	H12160	H	0.969569	0.642740	0.085816
	H12161	H	0.970334	0.862480	0.086096
	H12162	H	0.970647	0.142582	0.086155
	H12163	H	0.969639	0.362124	0.085863
	H12164	H	0.932570	0.643944	0.016725
	H12165	H	0.979242	0.643855	0.020429
	H12166	H	0.980346	0.863464	0.020410
	H12167	H	0.932705	0.863027	0.016730
	H12168	H	0.977713	0.644031	0.036733
	H12169	H	0.978870	0.863925	0.036668
	H12170	H	0.962032	0.641901	0.101545
	H12171	H	0.962780	0.861748	0.101787
	H12172	H	0.963676	0.441508	-0.005040
	H12173	H	0.938197	0.440912	0.131861
	H12174	H	0.962133	0.441076	-0.005515
	H12175	H	0.962148	0.441076	-0.006084
	H12176	H	0.945052	0.441542	0.120566
	H12177	H	0.949189	0.441520	0.126185
	H12178	H	0.938253	0.564615	0.131854
	H12179	H	0.963638	0.564709	-0.005072
	H12180	H	0.949179	0.564765	0.126176
	H12181	H	0.945098	0.565098	0.120567
	H12182	H	0.962124	0.564692	-0.006096
	H12183	H	0.962201	0.564723	-0.005487
	H12184	H	0.962861	0.143302	0.101810
	H12185	H	0.961818	0.362891	0.101539
	H12186	H	0.964216	0.064822	-0.006219
	H12187	H	0.963219	0.064748	-0.006345
	H12188	H	0.964558	0.064295	-0.005534
	H12189	H	0.916319	0.864130	0.099233
	H12190	H	0.915431	0.644191	0.099250
	H12191	H	0.915391	0.361712	0.099275
	H12192	H	0.916430	0.141799	0.099191
	H12193	H	0.932857	0.143443	0.016766
	H12194	H	0.980303	0.142037	0.020333
	H12195	H	0.979407	0.361886	0.020408
	H12196	H	0.932302	0.362291	0.016648
	H12197	H	0.978806	0.141530	0.036623
	H12198	H	0.977905	0.361376	0.036671
	H12199	H	0.945903	0.064855	0.124913
	H12200	H	0.941207	0.064919	0.121098
	H12201	H	0.928992	0.065311	0.120848
	H12202	H	0.963225	0.941222	-0.006359
	H12203	H	0.964204	0.941430	-0.006235
	H12204	H	0.964690	0.941186	-0.005547
	H12205	H	0.945882	0.941539	0.124909
	H12206	H	0.941247	0.941610	0.121091
	H12207	H	0.928921	0.941188	0.120817
	Zn12208	Zn	0.900986	0.680483	0.056743
	Zn12209	Zn	0.900882	0.825416	0.056725
	Zn12210	Zn	0.901040	0.180538	0.056773
	Zn12211	Zn	0.900886	0.325599	0.056750
	Zn12212	Zn	0.934724	0.680635	0.125059
	Zn12213	Zn	0.935255	0.825276	0.125094
	Zn12214	Zn	0.935203	0.180524	0.125115
	Zn12215	Zn	0.934759	0.325169	0.125033
	C12216	C	0.979178	0.754137	0.047581
	C12217	C	0.917464	0.753660	0.072133
	C12218	C	0.917737	0.753692	0.081987
	C12219	C	0.916844	0.691697	0.086597
	C12220	C	0.917346	0.815928	0.086587
	C12221	C	0.917563	0.252875	0.072100
	C12222	C	0.917825	0.252462	0.081969
	C12223	C	0.917427	0.190236	0.086554
	C12224	C	0.916852	0.314416	0.086596
	C12225	C	0.917680	0.753600	0.042469
	C12226	C	0.923272	0.753565	0.033189
	C12227	C	0.925563	0.815634	0.028787
	C12228	C	0.925506	0.691600	0.028761
	C12229	C	0.917749	0.252989	0.042450
	C12230	C	0.923226	0.252964	0.033150
	C12231	C	0.925373	0.314880	0.028712
	C12232	C	0.925687	0.191021	0.028772
	C12233	C	0.998433	0.042932	0.062271
	C12234	C	0.998448	0.962096	0.062263
	C12235	C	0.911094	0.043613	0.058684
	C12236	C	0.911057	0.962662	0.058701
	C12237	C	0.899154	0.043401	0.051856
	C12238	C	0.899149	0.962435	0.051858
	C12239	C	0.903298	0.462487	0.056989
	C12240	C	0.992890	0.462046	0.062564
	C12241	C	0.999092	0.462258	0.060648
	C12242	C	0.903293	0.543614	0.056979
	C12243	C	0.999109	0.542978	0.060674
	C12244	C	0.992933	0.542928	0.062586
	C12245	C	0.976088	0.753346	0.075675
	C12246	C	0.976270	0.251963	0.075727
	C12247	C	0.970239	0.752733	0.084949
	C12248	C	0.967989	0.690376	0.089361
	C12249	C	0.968434	0.814571	0.089507
	C12250	C	0.970262	0.252366	0.084980
	C12251	C	0.968543	0.190517	0.089543
	C12252	C	0.967990	0.314576	0.089392
	C12253	C	0.979243	0.251293	0.047511
	C12254	C	0.979858	0.753224	0.009600
	C12255	C	0.940587	0.753247	0.006872
	C12256	C	0.916787	0.754310	0.110096
	C12257	C	0.978214	0.691678	0.033103
	C12258	C	0.978862	0.815940	0.033080
	C12259	C	0.980099	0.753546	0.019465
	C12260	C	0.933278	0.753488	0.015848
	C12261	C	0.930533	0.691446	0.020179
	C12262	C	0.979147	0.691509	0.024064
	C12263	C	0.979784	0.815821	0.024045
	C12264	C	0.930592	0.815623	0.020192
	C12265	C	0.978063	0.753902	0.037719
	C12266	C	0.956190	0.751416	0.111935
	C12267	C	0.963912	0.689873	0.098104
	C12268	C	0.964337	0.814097	0.098244
	C12269	C	0.962029	0.751756	0.102656
	C12270	C	0.932920	0.462396	0.129518
	C12271	C	0.962514	0.462298	-0.005790
	C12272	C	0.943840	0.462645	0.123817
	C12273	C	0.932918	0.543376	0.129517
	C12274	C	0.943875	0.543322	0.123820
	C12275	C	0.962569	0.543475	-0.005802
	C12276	C	0.956059	0.253526	0.111938
	C12277	C	0.964371	0.190962	0.098270
	C12278	C	0.963789	0.314978	0.098126
	C12279	C	0.961964	0.253169	0.102683
	C12280	C	0.963680	0.043429	-0.006136
	C12281	C	0.979905	0.252442	0.009571
	C12282	C	0.940407	0.252823	0.006816
	C12283	C	0.916712	0.251387	0.110085
	C12284	C	0.978889	0.189458	0.033019
	C12285	C	0.978398	0.313724	0.033050
	C12286	C	0.980150	0.251968	0.019410
	C12287	C	0.933146	0.252875	0.015788
	C12288	C	0.915732	0.754164	0.100246
	C12289	C	0.916415	0.816181	0.095618
	C12290	C	0.915940	0.691953	0.095633
	C12291	C	0.915701	0.251627	0.100220
	C12292	C	0.915879	0.314053	0.095634
	C12293	C	0.916430	0.189703	0.095585
	C12294	C	0.930637	0.191010	0.020170
	C12295	C	0.979808	0.189632	0.023982
	C12296	C	0.979332	0.314020	0.024019
	C12297	C	0.930328	0.314828	0.020114
	C12298	C	0.978201	0.251442	0.037648
	C12299	C	0.941389	0.043434	0.123573
	C12300	C	0.964059	0.043325	-0.005476
	C12301	C	0.963688	0.962404	-0.006163
	C12302	C	0.941400	0.962743	0.123556
	C12303	C	0.964101	0.962615	-0.005488
	N12304	N	0.901220	0.070196	0.056788
	N12305	N	0.901140	0.935689	0.056806
	N12306	N	0.901179	0.435851	0.056763
	N12307	N	0.901202	0.570376	0.056759
	N12308	N	0.934685	0.435650	0.125055
	N12309	N	0.934714	0.570256	0.125057
	N12310	N	0.935251	0.070217	0.125129
	N12311	N	0.935272	0.935627	0.125113
	O12312	O	0.952933	0.693688	0.181912
	O12313	O	0.953111	0.810836	0.181855
	O12314	O	0.889568	0.694683	0.198745
	O12315	O	0.889570	0.811333	0.198717
	O12316	O	0.889378	0.194681	0.198812
	O12317	O	0.889390	0.311590	0.198792
	O12318	O	0.890807	0.694766	0.177914
	O12319	O	0.890930	0.811325	0.177926
	O12320	O	0.890902	0.194772	0.177999
	O12321	O	0.890770	0.311298	0.177860
	O12322	O	0.954269	0.694315	0.204061
	O12323	O	0.954389	0.810716	0.204067
	O12324	O	0.954347	0.194755	0.204060
	O12325	O	0.954338	0.310998	0.204056
	O12326	O	0.952932	0.194934	0.181893
	O12327	O	0.953000	0.311790	0.181910
	O12328	O	0.951827	0.693413	0.136306
	O12329	O	0.916328	0.695148	0.134662
	O12330	O	0.925784	0.694296	0.246561
	O12331	O	0.925812	0.811026	0.246591
	O12332	O	0.890534	0.694738	0.244394
	O12333	O	0.890516	0.811452	0.244376
	O12334	O	0.916790	0.811722	0.134740
	O12335	O	0.952307	0.810047	0.136245
	O12336	O	0.952267	0.195965	0.136257
	O12337	O	0.916699	0.193466	0.134732
	O12338	O	0.925915	0.194914	0.246645
	O12339	O	0.925806	0.311668	0.246591
	O12340	O	0.890455	0.194398	0.244402
	O12341	O	0.890463	0.311147	0.244436
	O12342	O	0.916439	0.310109	0.134653
	O12343	O	0.951942	0.312668	0.136278
	H12344	H	0.891399	0.643114	0.213455
	H12345	H	0.891619	0.862689	0.213408
	H12346	H	0.891403	0.143045	0.213470
	H12347	H	0.891216	0.362891	0.213485
	H12348	H	0.900041	0.863124	0.164185
	H12349	H	0.899651	0.643322	0.164086
	H12350	H	0.899917	0.362070	0.164114
	H12351	H	0.900089	0.142585	0.164234
	H12352	H	0.969656	0.064476	0.191659
	H12353	H	0.966510	0.064183	0.191831
	H12354	H	0.966580	0.940744	0.191867
	H12355	H	0.969706	0.941248	0.191712
	H12356	H	0.972564	0.064182	0.193279
	H12357	H	0.972487	0.940717	0.193310
	H12358	H	0.868676	0.064129	0.188713
	H12359	H	0.868634	0.940989	0.188694
	H12360	H	0.872061	0.064405	0.189792
	H12361	H	0.872033	0.940968	0.189802
	H12362	H	0.876725	0.064653	0.188633
	H12363	H	0.876736	0.941171	0.188632
	H12364	H	0.863756	0.441613	0.191779
	H12365	H	0.874070	0.441663	0.193715
	H12366	H	0.860737	0.440906	0.184812
	H12367	H	0.973716	0.440432	0.193929
	H12368	H	0.969797	0.440727	0.195724
	H12369	H	0.965777	0.441060	0.195206
	H12370	H	0.874122	0.564500	0.193722
	H12371	H	0.863817	0.564734	0.191828
	H12372	H	0.965902	0.564163	0.195168
	H12373	H	0.969797	0.564236	0.195726
	H12374	H	0.973609	0.564148	0.193912
	H12375	H	0.860714	0.564538	0.184805
	H12376	H	0.946182	0.643323	0.217928
	H12377	H	0.946425	0.862096	0.217916
	H12378	H	0.946514	0.143340	0.218008
	H12379	H	0.946006	0.362337	0.217852
	H12380	H	0.907237	0.643642	0.148385
	H12381	H	0.953749	0.641659	0.150986
	H12382	H	0.954287	0.861512	0.150902
	H12383	H	0.907697	0.863405	0.148492
	H12384	H	0.952346	0.642073	0.167287
	H12385	H	0.952812	0.861833	0.167204
	H12386	H	0.937049	0.643402	0.233405
	H12387	H	0.937241	0.862356	0.233358
	H12388	H	0.926307	0.440973	0.130339
	H12389	H	0.903322	0.441172	0.257821
	H12390	H	0.920847	0.441336	0.122700
	H12391	H	0.928759	0.441199	0.118585
	H12392	H	0.911361	0.441535	0.256303
	H12393	H	0.909250	0.441403	0.258071
	H12394	H	0.903298	0.564629	0.257847
	H12395	H	0.926230	0.564523	0.130390
	H12396	H	0.909271	0.564403	0.258093
	H12397	H	0.911444	0.564618	0.256296
	H12398	H	0.928725	0.565032	0.118560
	H12399	H	0.920725	0.564483	0.122696
	H12400	H	0.937508	0.143835	0.233488
	H12401	H	0.936961	0.362449	0.233342
	H12402	H	0.930961	0.064145	0.129692
	H12403	H	0.939945	0.064528	0.129883
	H12404	H	0.924642	0.064455	0.124440
	H12405	H	0.889952	0.862846	0.229656
	H12406	H	0.889866	0.643314	0.229721
	H12407	H	0.889808	0.362775	0.229774
	H12408	H	0.890039	0.143054	0.229742
	H12409	H	0.907717	0.142169	0.148535
	H12410	H	0.954267	0.144191	0.150941
	H12411	H	0.953773	0.363759	0.150944
	H12412	H	0.907557	0.361698	0.148433
	H12413	H	0.952689	0.143898	0.167197
	H12414	H	0.952149	0.363548	0.167228
	H12415	H	0.900991	0.065126	0.254152
	H12416	H	0.900320	0.064185	0.256610
	H12417	H	0.906100	0.063838	0.258882
	H12418	H	0.940006	0.940984	0.129802
	H12419	H	0.930983	0.941468	0.129640
	H12420	H	0.924617	0.941292	0.124459
	H12421	H	0.901071	0.941073	0.254202
	H12422	H	0.900395	0.941387	0.256622
	H12423	H	0.906132	0.940978	0.258865
	Zn12424	Zn	0.872466	0.680271	0.187555
	Zn12425	Zn	0.872475	0.825479	0.187557
	Zn12426	Zn	0.872564	0.180200	0.187576
	Zn12427	Zn	0.872540	0.325562	0.187562
	Zn12428	Zn	0.906418	0.680238	0.255885
	Zn12429	Zn	0.906465	0.825585	0.255913
	Zn12430	Zn	0.906396	0.180140	0.255890
	Zn12431	Zn	0.906362	0.325551	0.255947
	C12432	C	0.952440	0.752158	0.178073
	C12433	C	0.890644	0.753029	0.202552
	C12434	C	0.891663	0.752946	0.212417
	C12435	C	0.891167	0.690944	0.217058
	C12436	C	0.891262	0.815050	0.217015
	C12437	C	0.890502	0.253177	0.202605
	C12438	C	0.891580	0.253040	0.212465
	C12439	C	0.891204	0.190891	0.217083
	C12440	C	0.891085	0.315113	0.217092
	C12441	C	0.893678	0.753026	0.174409
	C12442	C	0.899541	0.753185	0.165139
	C12443	C	0.901684	0.815334	0.160689
	C12444	C	0.901453	0.691265	0.160631
	C12445	C	0.893665	0.252816	0.174417
	C12446	C	0.899517	0.252341	0.165154
	C12447	C	0.901613	0.314179	0.160643
	C12448	C	0.901711	0.190193	0.160715
	C12449	C	0.968200	0.043025	0.192181
	C12450	C	0.968222	0.962243	0.192196
	C12451	C	0.870927	0.043067	0.188815
	C12452	C	0.870921	0.962481	0.188806
	C12453	C	0.875635	0.043107	0.187680
	C12454	C	0.875661	0.962386	0.187669
	C12455	C	0.869876	0.462748	0.191393
	C12456	C	0.971968	0.462080	0.193057
	C12457	C	0.968075	0.462021	0.194914
	C12458	C	0.869891	0.543268	0.191398
	C12459	C	0.968084	0.542925	0.194912
	C12460	C	0.971924	0.543009	0.193072
	C12461	C	0.952103	0.752520	0.207652
	C12462	C	0.952055	0.252921	0.207651
	C12463	C	0.946600	0.752627	0.216943
	C12464	C	0.944207	0.690783	0.221359
	C12465	C	0.944374	0.814582	0.221352
	C12466	C	0.946492	0.252866	0.216931
	C12467	C	0.944375	0.191044	0.221407
	C12468	C	0.944097	0.314842	0.221317
	C12469	C	0.952317	0.253443	0.178069
	C12470	C	0.953134	0.751749	0.140095
	C12471	C	0.913756	0.753462	0.138204
	C12472	C	0.889838	0.753094	0.240543
	C12473	C	0.952682	0.689650	0.163639
	C12474	C	0.952958	0.814078	0.163580
	C12475	C	0.954161	0.751651	0.149966
	C12476	C	0.907766	0.753475	0.147442
	C12477	C	0.905568	0.691325	0.151896
	C12478	C	0.953594	0.689508	0.154599
	C12479	C	0.953874	0.813915	0.154544
	C12480	C	0.905799	0.815574	0.151949
	C12481	C	0.952154	0.752067	0.168206
	C12482	C	0.929195	0.752707	0.243254
	C12483	C	0.939172	0.690834	0.229948
	C12484	C	0.939343	0.814716	0.229940
	C12485	C	0.936550	0.752798	0.234295
	C12486	C	0.903230	0.462402	0.256685
	C12487	C	0.927392	0.462673	0.121790
	C12488	C	0.909222	0.462629	0.256858
	C12489	C	0.903212	0.543454	0.256675
	C12490	C	0.909239	0.543212	0.256866
	C12491	C	0.927374	0.543542	0.121791
	C12492	C	0.929233	0.253276	0.243289
	C12493	C	0.939357	0.191232	0.229999
	C12494	C	0.939095	0.314940	0.229912
	C12495	C	0.936509	0.253204	0.234303
	C12496	C	0.935426	0.043311	0.128545
	C12497	C	0.953175	0.254330	0.140091
	C12498	C	0.913722	0.251836	0.138190
	C12499	C	0.889798	0.252834	0.240580
	C12500	C	0.952868	0.191749	0.163590
	C12501	C	0.952593	0.315961	0.163601
	C12502	C	0.954200	0.254097	0.149959
	C12503	C	0.907730	0.251972	0.147442
	C12504	C	0.889562	0.753065	0.230686
	C12505	C	0.890305	0.815062	0.226053
	C12506	C	0.890179	0.691005	0.226092
	C12507	C	0.889553	0.252922	0.230718
	C12508	C	0.890128	0.315122	0.226126
	C12509	C	0.890248	0.190793	0.226115
	C12510	C	0.905826	0.190057	0.151971
	C12511	C	0.953836	0.191877	0.154561
	C12512	C	0.953549	0.316107	0.154564
	C12513	C	0.905731	0.314056	0.151905
	C12514	C	0.952064	0.253764	0.168208
	C12515	C	0.902097	0.043372	0.255516
	C12516	C	0.929035	0.043472	0.123306
	C12517	C	0.935451	0.962564	0.128530
	C12518	C	0.902148	0.962430	0.255534
	C12519	C	0.929056	0.962388	0.123291
	N12520	N	0.872505	0.070237	0.187579
	N12521	N	0.872501	0.935724	0.187558
	N12522	N	0.872523	0.435557	0.187553
	N12523	N	0.872506	0.570079	0.187543
	N12524	N	0.906200	0.435624	0.255903
	N12525	N	0.906218	0.570140	0.255912
	N12526	N	0.906202	0.070185	0.255883
	N12527	N	0.906240	0.935704	0.255908
	O12528	O	0.996213	0.694580	0.299407
	O12529	O	0.996344	0.810699	0.299348
	O12530	O	0.865581	0.695096	0.327732
	O12531	O	0.865521	0.811407	0.327765
	O12532	O	0.865557	0.194282	0.327721
	O12533	O	0.865638	0.310721	0.327701
	O12534	O	0.863386	0.694786	0.309143
	O12535	O	0.863343	0.811513	0.309133
	O12536	O	0.863246	0.193794	0.309059
	O12537	O	0.863427	0.310580	0.309138
	O12538	O	0.998648	0.694710	0.318081
	O12539	O	0.998566	0.811393	0.318083
	O12540	O	0.998524	0.194297	0.318071
	O12541	O	0.998451	0.311109	0.318060
	O12542	O	0.996130	0.194621	0.299398
	O12543	O	0.996162	0.311021	0.299403
	O12544	O	0.928033	0.694584	0.265253
	O12545	O	0.891959	0.694929	0.266634
	O12546	O	0.969751	0.694757	0.360510
	O12547	O	0.969787	0.811160	0.360501
	O12548	O	0.933651	0.694879	0.361877
	O12549	O	0.933615	0.811034	0.361950
	O12550	O	0.891919	0.811414	0.266589
	O12551	O	0.928176	0.810751	0.265206
	O12552	O	0.928174	0.194672	0.265197
	O12553	O	0.891832	0.194141	0.266542
	O12554	O	0.970009	0.194654	0.360565
	O12555	O	0.969970	0.311192	0.360536
	O12556	O	0.933689	0.194404	0.361900
	O12557	O	0.933648	0.310755	0.361877
	O12558	O	0.891918	0.310649	0.266633
	O12559	O	0.928066	0.310962	0.265225
	H12560	H	0.887682	0.644816	0.338553
	H12561	H	0.887442	0.861668	0.338673
	H12562	H	0.887278	0.143520	0.338718
	H12563	H	0.887501	0.361185	0.338618
	H12564	H	0.874616	0.862621	0.295914
	H12565	H	0.874670	0.643727	0.295937
	H12566	H	0.874780	0.361596	0.295915
	H12567	H	0.874500	0.142404	0.295845
	H12568	H	1.019419	0.064335	0.304807
	H12569	H	1.012667	0.064366	0.305406
	H12570	H	1.012733	0.941627	0.305442
	H12571	H	1.019517	0.940841	0.304832
	H12572	H	1.026146	0.064727	0.308377
	H12573	H	1.026104	0.940815	0.308351
	H12574	H	0.848991	0.064772	0.319771
	H12575	H	0.848965	0.941109	0.319782
	H12576	H	0.848968	0.064969	0.317384
	H12577	H	0.848977	0.941332	0.317440
	H12578	H	0.843235	0.064137	0.315680
	H12579	H	0.843249	0.941089	0.315707
	H12580	H	0.838008	0.441218	0.314672
	H12581	H	0.834459	0.441191	0.317849
	H12582	H	0.848850	0.440825	0.314767
	H12583	H	1.008272	0.441243	0.310326
	H12584	H	1.010745	0.441055	0.304835
	H12585	H	1.019060	0.440865	0.303771
	H12586	H	0.834399	0.565044	0.317871
	H12587	H	0.837988	0.564595	0.314683
	H12588	H	1.019086	0.564550	0.303682
	H12589	H	1.010757	0.563975	0.304789
	H12590	H	1.008315	0.564306	0.310334
	H12591	H	0.848813	0.564287	0.314781
	H12592	H	0.987179	0.643495	0.331264
	H12593	H	0.987160	0.862439	0.331240
	H12594	H	0.987261	0.143513	0.331252
	H12595	H	0.986797	0.362123	0.331180
	H12596	H	0.883863	0.643851	0.280498
	H12597	H	0.949962	0.644585	0.276167
	H12598	H	0.950038	0.860980	0.276133
	H12599	H	0.883803	0.862515	0.280443
	H12600	H	0.974234	0.644499	0.288507
	H12601	H	0.974293	0.860965	0.288457
	H12602	H	0.977896	0.643725	0.346717
	H12603	H	0.977855	0.862426	0.346687
	H12604	H	0.901145	0.441028	0.256021
	H12605	H	0.946010	0.441349	0.368533
	H12606	H	0.904059	0.441053	0.253631
	H12607	H	0.908377	0.441168	0.253758
	H12608	H	0.955433	0.441074	0.376250
	H12609	H	0.947361	0.441441	0.374210
	H12610	H	0.946099	0.564200	0.368456
	H12611	H	0.901108	0.564867	0.256004
	H12612	H	0.947438	0.564621	0.374231
	H12613	H	0.955506	0.564818	0.376253
	H12614	H	0.908376	0.564734	0.253768
	H12615	H	0.904088	0.564416	0.253602
	H12616	H	0.978096	0.143470	0.346710
	H12617	H	0.977618	0.362048	0.346646
	H12618	H	0.911728	0.064612	0.254690
	H12619	H	0.907532	0.064649	0.253041
	H12620	H	0.910914	0.064762	0.258001
	H12621	H	0.911688	0.861650	0.351028
	H12622	H	0.911929	0.644817	0.350911
	H12623	H	0.911707	0.361438	0.350973
	H12624	H	0.911460	0.143420	0.351072
	H12625	H	0.883629	0.142501	0.280363
	H12626	H	0.950336	0.144398	0.275971
	H12627	H	0.950019	0.361495	0.276136
	H12628	H	0.883943	0.361764	0.280482
	H12629	H	0.974453	0.144563	0.288369
	H12630	H	0.974163	0.361189	0.288500
	H12631	H	0.959055	0.064782	0.371477
	H12632	H	0.957972	0.064608	0.370087
	H12633	H	0.953714	0.064445	0.369609
	H12634	H	0.907543	0.941176	0.253054
	H12635	H	0.911678	0.941248	0.254687
	H12636	H	0.910919	0.941120	0.258030
	H12637	H	0.959099	0.941276	0.371403
	H12638	H	0.957858	0.941263	0.370089
	H12639	H	0.953782	0.941256	0.369680
	Zn12640	Zn	0.843846	0.680297	0.318427
	Zn12641	Zn	0.843843	0.825348	0.318429
	Zn12642	Zn	0.843790	0.180073	0.318409
	Zn12643	Zn	0.843989	0.325498	0.318400
	Zn12644	Zn	0.955276	0.680212	0.371213
	Zn12645	Zn	0.955386	0.825665	0.371225
	Zn12646	Zn	0.955389	0.180004	0.371215
	Zn12647	Zn	0.955285	0.325698	0.371192
	C12648	C	0.990440	0.752636	0.296609
	C12649	C	0.871342	0.753223	0.330526
	C12650	C	0.886109	0.753152	0.337859
	C12651	C	0.893023	0.691897	0.341319
	C12652	C	0.892884	0.814540	0.341386
	C12653	C	0.871358	0.252421	0.330504
	C12654	C	0.886014	0.252334	0.337897
	C12655	C	0.892702	0.190760	0.341464
	C12656	C	0.892888	0.313991	0.341374
	C12657	C	0.866806	0.753171	0.305837
	C12658	C	0.874122	0.753324	0.296876
	C12659	C	0.876767	0.815198	0.292496
	C12660	C	0.876804	0.691347	0.292525
	C12661	C	0.866731	0.252196	0.305775
	C12662	C	0.874078	0.252051	0.296802
	C12663	C	0.876865	0.314039	0.292477
	C12664	C	0.876664	0.189996	0.292419
	C12665	C	1.016574	0.043084	0.306059
	C12666	C	1.016585	0.962439	0.306075
	C12667	C	0.847556	0.043422	0.318536
	C12668	C	0.847584	0.962379	0.318560
	C12669	C	0.841765	0.042976	0.316747
	C12670	C	0.841807	0.962213	0.316761
	C12671	C	0.838184	0.462515	0.316826
	C12672	C	1.013281	0.462614	0.311032
	C12673	C	1.015736	0.462387	0.305449
	C12674	C	0.838165	0.543521	0.316840
	C12675	C	1.015756	0.543139	0.305424
	C12676	C	1.013298	0.543223	0.311040
	C12677	C	0.995157	0.752993	0.321386
	C12678	C	0.995043	0.252711	0.321364
	C12679	C	0.987734	0.752941	0.330328
	C12680	C	0.985020	0.691038	0.334682
	C12681	C	0.985041	0.814883	0.334676
	C12682	C	0.987585	0.252809	0.330309
	C12683	C	0.985045	0.190924	0.334671
	C12684	C	0.984789	0.314721	0.334632
	C12685	C	0.990349	0.252859	0.296608
	C12686	C	0.933863	0.752604	0.268036
	C12687	C	0.889712	0.753229	0.270207
	C12688	C	0.927826	0.753009	0.359128
	C12689	C	0.968820	0.691504	0.285767
	C12690	C	0.968876	0.813931	0.285741
	C12691	C	0.948544	0.752680	0.275428
	C12692	C	0.884199	0.753261	0.279524
	C12693	C	0.881842	0.691329	0.283938
	C12694	C	0.955372	0.691536	0.278915
	C12695	C	0.955428	0.813961	0.278889
	C12696	C	0.881803	0.815154	0.283907
	C12697	C	0.975682	0.752651	0.289267
	C12698	C	0.971988	0.752991	0.356917
	C12699	C	0.979909	0.691109	0.343256
	C12700	C	0.979929	0.814936	0.343250
	C12701	C	0.977545	0.753063	0.347636
	C12702	C	0.951161	0.462392	0.368345
	C12703	C	0.906177	0.462453	0.254282
	C12704	C	0.952496	0.462580	0.374200
	C12705	C	0.951161	0.543216	0.368343
	C12706	C	0.952508	0.543428	0.374189
	C12707	C	0.906186	0.543274	0.254272
	C12708	C	0.972181	0.252860	0.356961
	C12709	C	0.980031	0.190943	0.343259
	C12710	C	0.979785	0.314687	0.343228
	C12711	C	0.977635	0.252804	0.347660
	C12712	C	0.908707	0.043274	0.254375
	C12713	C	0.933893	0.252872	0.267996
	C12714	C	0.889607	0.252251	0.270162
	C12715	C	0.927845	0.252535	0.359114
	C12716	C	0.969006	0.191565	0.285637
	C12717	C	0.968826	0.314173	0.285720
	C12718	C	0.948661	0.252876	0.275326
	C12719	C	0.884144	0.252056	0.279456
	C12720	C	0.913133	0.753099	0.351727
	C12721	C	0.906318	0.814548	0.348244
	C12722	C	0.906443	0.691825	0.348179
	C12723	C	0.913031	0.252509	0.351788
	C12724	C	0.906314	0.314111	0.348238
	C12725	C	0.906124	0.190827	0.348324
	C12726	C	0.881721	0.190035	0.283831
	C12727	C	0.955598	0.191531	0.278767
	C12728	C	0.955414	0.314246	0.278859
	C12729	C	0.881932	0.314024	0.283894
	C12730	C	0.975665	0.252895	0.289214
	C12731	C	0.957760	0.043372	0.370884
	C12732	C	0.907873	0.043173	0.257766
	C12733	C	0.908707	0.962538	0.254388
	C12734	C	0.957739	0.962446	0.370889
	C12735	C	0.907895	0.962290	0.257771
	N12736	N	0.843631	0.069985	0.318403
	N12737	N	0.843680	0.935474	0.318445
	N12738	N	0.843698	0.435693	0.318357
	N12739	N	0.843664	0.570231	0.318375
	N12740	N	0.955357	0.435614	0.371210
	N12741	N	0.955394	0.570080	0.371183
	N12742	N	0.955507	0.070154	0.371253
	N12743	N	0.955549	0.935683	0.371256
	O12744	O	0.968847	0.694492	0.428133
	O12745	O	0.968874	0.811267	0.428157
	O12746	O	0.909003	0.694271	0.445127
	O12747	O	0.909175	0.811187	0.445132
	O12748	O	0.909170	0.194262	0.445052
	O12749	O	0.909072	0.310897	0.445126
	O12750	O	0.907282	0.694595	0.422991
	O12751	O	0.907221	0.810937	0.422948
	O12752	O	0.907118	0.194290	0.422953
	O12753	O	0.907301	0.310771	0.423007
	O12754	O	0.970654	0.694611	0.450175
	O12755	O	0.970798	0.810910	0.450278
	O12756	O	0.970765	0.194325	0.450225
	O12757	O	0.970753	0.310965	0.450267
	O12758	O	0.969018	0.194418	0.428072
	O12759	O	0.968853	0.311017	0.428042
	O12760	O	0.971648	0.694334	0.382609
	O12761	O	0.935971	0.694397	0.380548
	O12762	O	0.941905	0.694132	0.492683
	O12763	O	0.942098	0.810995	0.492696
	O12764	O	0.906395	0.694376	0.490647
	O12765	O	0.906367	0.811179	0.490631
	O12766	O	0.936050	0.811259	0.380520
	O12767	O	0.971746	0.811112	0.382629
	O12768	O	0.971735	0.194596	0.382497
	O12769	O	0.935904	0.194616	0.380535
	O12770	O	0.941960	0.194223	0.492692
	O12771	O	0.942053	0.310873	0.492725
	O12772	O	0.906417	0.193922	0.490631
	O12773	O	0.906223	0.310651	0.490611
	O12774	O	0.936001	0.311290	0.380560
	O12775	O	0.971571	0.311461	0.382566
	H12776	H	0.909171	0.642932	0.459784
	H12777	H	0.909061	0.862206	0.459783
	H12778	H	0.909336	0.142570	0.459773
	H12779	H	0.909120	0.361861	0.459783
	H12780	H	0.915205	0.861991	0.409091
	H12781	H	0.915493	0.643166	0.409162
	H12782	H	0.915423	0.362154	0.409168
	H12783	H	0.914851	0.143292	0.409075
	H12784	H	0.975016	0.064656	0.438305
	H12785	H	0.977163	0.065260	0.442355
	H12786	H	0.977021	0.941778	0.442401
	H12787	H	0.974928	0.941726	0.438339
	H12788	H	0.983529	0.064434	0.434617
	H12789	H	0.983519	0.941549	0.434622
	H12790	H	0.889422	0.064727	0.435900
	H12791	H	0.889420	0.941675	0.435951
	H12792	H	0.894365	0.064561	0.436515
	H12793	H	0.894353	0.941234	0.436500
	H12794	H	0.898764	0.064347	0.434113
	H12795	H	0.898753	0.940759	0.434122
	H12796	H	0.893333	0.441016	0.430309
	H12797	H	0.887780	0.441173	0.431172
	H12798	H	0.899684	0.440700	0.433008
	H12799	H	0.995307	0.441440	0.437611
	H12800	H	0.992810	0.441194	0.443580
	H12801	H	0.983862	0.441023	0.444802
	H12802	H	0.887653	0.564293	0.431145
	H12803	H	0.893321	0.564281	0.430293
	H12804	H	0.983869	0.564928	0.444851
	H12805	H	0.992939	0.564266	0.443635
	H12806	H	0.995395	0.564540	0.437651
	H12807	H	0.899639	0.564381	0.433004
	H12808	H	0.962451	0.642880	0.464024
	H12809	H	0.962923	0.861933	0.464120
	H12810	H	0.962705	0.142886	0.464076
	H12811	H	0.962756	0.362055	0.464139
	H12812	H	0.924791	0.643466	0.393740
	H12813	H	0.971695	0.642884	0.397275
	H12814	H	0.971625	0.862542	0.397297
	H12815	H	0.924573	0.862096	0.393668
	H12816	H	0.968854	0.642988	0.413475
	H12817	H	0.968784	0.862545	0.413496
	H12818	H	0.953185	0.642720	0.479494
	H12819	H	0.953725	0.862004	0.479560
	H12820	H	0.953197	0.441144	0.366169
	H12821	H	0.927336	0.441106	0.502452
	H12822	H	0.964406	0.441376	0.368914
	H12823	H	0.965259	0.441055	0.373134
	H12824	H	0.920793	0.441293	0.499796
	H12825	H	0.924862	0.441124	0.500063
	H12826	H	0.927457	0.564069	0.502487
	H12827	H	0.953250	0.564453	0.366176
	H12828	H	0.924893	0.564628	0.500094
	H12829	H	0.920861	0.564351	0.499871
	H12830	H	0.965385	0.564690	0.373130
	H12831	H	0.964325	0.564706	0.368875
	H12832	H	0.953340	0.143023	0.479535
	H12833	H	0.953437	0.361986	0.479555
	H12834	H	0.953491	0.064635	0.372592
	H12835	H	0.956466	0.064298	0.372943
	H12836	H	0.951921	0.064588	0.370726
	H12837	H	0.906318	0.862235	0.475992
	H12838	H	0.906376	0.642711	0.475983
	H12839	H	0.906285	0.362087	0.475977
	H12840	H	0.906491	0.142435	0.475953
	H12841	H	0.924168	0.143241	0.393651
	H12842	H	0.971676	0.142971	0.397164
	H12843	H	0.971706	0.362195	0.397223
	H12844	H	0.924782	0.362261	0.393748
	H12845	H	0.968894	0.142647	0.413379
	H12846	H	0.968875	0.362147	0.413393
	H12847	H	0.930920	0.064234	0.506453
	H12848	H	0.934563	0.064282	0.502020
	H12849	H	0.925714	0.064325	0.496653
	H12850	H	0.956514	0.941069	0.372914
	H12851	H	0.953577	0.941087	0.372596
	H12852	H	0.951955	0.940840	0.370791
	H12853	H	0.930993	0.941298	0.506390
	H12854	H	0.934527	0.941043	0.501987
	H12855	H	0.925816	0.941021	0.496611
	Zn12856	Zn	0.892799	0.679958	0.433696
	Zn12857	Zn	0.892781	0.825374	0.433689
	Zn12858	Zn	0.892740	0.179775	0.433664
	Zn12859	Zn	0.892823	0.325189	0.433674
	Zn12860	Zn	0.922683	0.679900	0.502066
	Zn12861	Zn	0.922650	0.825510	0.502024
	Zn12862	Zn	0.922601	0.179720	0.502049
	Zn12863	Zn	0.922633	0.325504	0.502020
	C12864	C	0.968312	0.752915	0.424308
	C12865	C	0.909613	0.752711	0.448957
	C12866	C	0.909485	0.752596	0.458816
	C12867	C	0.908623	0.690467	0.463399
	C12868	C	0.908566	0.814588	0.463411
	C12869	C	0.909651	0.252462	0.448933
	C12870	C	0.909486	0.252339	0.458785
	C12871	C	0.908609	0.190261	0.463374
	C12872	C	0.908528	0.314285	0.463385
	C12873	C	0.909498	0.752694	0.419390
	C12874	C	0.915057	0.752631	0.410123
	C12875	C	0.917317	0.814492	0.405690
	C12876	C	0.917476	0.690736	0.405736
	C12877	C	0.909438	0.252607	0.419395
	C12878	C	0.914878	0.252715	0.410100
	C12879	C	0.917349	0.314630	0.405718
	C12880	C	0.917039	0.190820	0.405664
	C12881	C	0.978431	0.043489	0.440123
	C12882	C	0.978355	0.962837	0.440147
	C12883	C	0.892182	0.043429	0.435535
	C12884	C	0.892205	0.962655	0.435551
	C12885	C	0.896646	0.042977	0.433161
	C12886	C	0.896619	0.962077	0.433159
	C12887	C	0.891196	0.462440	0.431523
	C12888	C	0.989928	0.462847	0.436912
	C12889	C	0.987409	0.462361	0.442959
	C12890	C	0.891156	0.543176	0.431508
	C12891	C	0.987452	0.543316	0.442990
	C12892	C	0.990036	0.543493	0.436916
	C12893	C	0.968460	0.752632	0.453818
	C12894	C	0.968531	0.252551	0.453833
	C12895	C	0.962954	0.752437	0.463111
	C12896	C	0.960522	0.690382	0.467491
	C12897	C	0.960807	0.814347	0.467542
	C12898	C	0.963053	0.252408	0.463130
	C12899	C	0.960689	0.190426	0.467523
	C12900	C	0.960721	0.314359	0.467554
	C12901	C	0.968430	0.252657	0.424213
	C12902	C	0.972219	0.752687	0.386454
	C12903	C	0.932585	0.752902	0.383840
	C12904	C	0.905840	0.752744	0.486808
	C12905	C	0.969390	0.690679	0.409866
	C12906	C	0.969335	0.814818	0.409884
	C12907	C	0.971988	0.752748	0.396304
	C12908	C	0.925201	0.752818	0.392808
	C12909	C	0.922559	0.690839	0.397162
	C12910	C	0.971098	0.690630	0.400877
	C12911	C	0.971028	0.814807	0.400896
	C12912	C	0.922420	0.814662	0.397116
	C12913	C	0.968411	0.752774	0.414467
	C12914	C	0.945384	0.752525	0.489384
	C12915	C	0.955457	0.690346	0.476079
	C12916	C	0.955742	0.814414	0.476122
	C12917	C	0.952843	0.752416	0.480442
	C12918	C	0.925229	0.462448	0.502927
	C12919	C	0.962376	0.462529	0.371068
	C12920	C	0.922724	0.462281	0.500509
	C12921	C	0.925293	0.543027	0.502950
	C12922	C	0.922760	0.543278	0.500516
	C12923	C	0.962377	0.543288	0.371061
	C12924	C	0.945455	0.252569	0.489395
	C12925	C	0.955619	0.190477	0.476109
	C12926	C	0.955648	0.314458	0.476130
	C12927	C	0.952920	0.252487	0.480470
	C12928	C	0.955129	0.043168	0.372364
	C12929	C	0.972190	0.252871	0.386362
	C12930	C	0.932505	0.252913	0.383857
	C12931	C	0.905826	0.252269	0.486787
	C12932	C	0.969498	0.190379	0.409778
	C12933	C	0.969462	0.314472	0.409804
	C12934	C	0.972058	0.252627	0.396211
	C12935	C	0.924981	0.252771	0.392771
	C12936	C	0.906015	0.752493	0.476970
	C12937	C	0.906884	0.814581	0.472394
	C12938	C	0.906979	0.690398	0.472391
	C12939	C	0.905983	0.252214	0.476954
	C12940	C	0.906868	0.314298	0.472371
	C12941	C	0.906995	0.190196	0.472366
	C12942	C	0.922085	0.190818	0.397082
	C12943	C	0.971159	0.190519	0.400787
	C12944	C	0.971136	0.314528	0.400821
	C12945	C	0.922406	0.314713	0.397138
	C12946	C	0.968560	0.252391	0.414379
	C12947	C	0.930002	0.043049	0.503645
	C12948	C	0.953571	0.043196	0.370456
	C12949	C	0.955222	0.962452	0.372380
	C12950	C	0.930029	0.962422	0.503631
	C12951	C	0.953593	0.962455	0.370502
	N12952	N	0.892850	0.069902	0.433710
	N12953	N	0.892854	0.935450	0.433727
	N12954	N	0.892885	0.435586	0.433719
	N12955	N	0.892852	0.570094	0.433703
	N12956	N	0.922556	0.435557	0.501978
	N12957	N	0.922628	0.570039	0.502018
	N12958	N	0.922471	0.069968	0.502044
	N12959	N	0.922503	0.935497	0.502006
	O12960	O	1.012368	0.695069	0.545582
	O12961	O	1.012453	0.811286	0.545579
	O12962	O	0.881905	0.694700	0.573819
	O12963	O	0.881829	0.811121	0.573801
	O12964	O	0.881778	0.194816	0.573775
	O12965	O	0.881786	0.310896	0.573762
	O12966	O	0.879572	0.694360	0.555194
	O12967	O	0.879435	0.811178	0.555159
	O12968	O	0.879438	0.194132	0.555208
	O12969	O	0.879459	0.310923	0.555190
	O12970	O	1.014578	0.694826	0.564113
	O12971	O	1.014757	0.811357	0.564206
	O12972	O	1.014819	0.194037	0.564195
	O12973	O	1.014680	0.310783	0.564141
	O12974	O	1.012479	0.194664	0.545511
	O12975	O	1.012280	0.310850	0.545567
	O12976	O	0.944428	0.694801	0.511359
	O12977	O	0.908008	0.694539	0.512664
	O12978	O	0.986104	0.694142	0.606656
	O12979	O	0.986175	0.810585	0.606677
	O12980	O	0.949908	0.694747	0.608009
	O12981	O	0.949879	0.810966	0.608026
	O12982	O	0.908147	0.811146	0.512690
	O12983	O	0.944442	0.811015	0.511307
	O12984	O	0.944370	0.194915	0.511342
	O12985	O	0.908201	0.194443	0.512752
	O12986	O	0.986118	0.193984	0.606691
	O12987	O	0.986075	0.310501	0.606654
	O12988	O	0.949788	0.194826	0.608035
	O12989	O	0.949913	0.311121	0.607965
	O12990	O	0.908175	0.310923	0.512769
	O12991	O	0.944221	0.311186	0.511399
	H12992	H	0.903760	0.644499	0.584705
	H12993	H	0.903814	0.861810	0.584737
	H12994	H	0.903707	0.144441	0.584693
	H12995	H	0.903804	0.361483	0.584679
	H12996	H	0.891041	0.862482	0.542038
	H12997	H	0.890524	0.643367	0.541942
	H12998	H	0.890922	0.361913	0.542085
	H12999	H	0.890715	0.143398	0.542003
	H13000	H	1.034865	0.064477	0.554456
	H13001	H	1.034031	0.064531	0.554427
	H13002	H	1.034009	0.941016	0.554351
	H13003	H	1.034942	0.940937	0.554429
	H13004	H	1.035293	0.064023	0.554983
	H13005	H	1.035314	0.941095	0.555018
	H13006	H	0.864021	0.064454	0.562101
	H13007	H	0.863944	0.941144	0.562033
	H13008	H	0.858403	0.064575	0.561325
	H13009	H	0.858333	0.940712	0.561322
	H13010	H	0.853240	0.064251	0.564054
	H13011	H	0.853224	0.940671	0.564040
	H13012	H	0.855003	0.440806	0.565601
	H13013	H	0.858746	0.440631	0.567124
	H13014	H	0.855932	0.440530	0.562514
	H13015	H	1.039650	0.440575	0.556844
	H13016	H	1.032432	0.441177	0.557780
	H13017	H	1.028346	0.441461	0.555871
	H13018	H	0.858741	0.564087	0.567101
	H13019	H	0.854975	0.563975	0.565605
	H13020	H	1.028305	0.564233	0.555884
	H13021	H	1.032481	0.564488	0.557789
	H13022	H	1.039548	0.564555	0.556828
	H13023	H	0.855986	0.564366	0.562532
	H13024	H	1.003226	0.643453	0.577317
	H13025	H	1.003419	0.862305	0.577425
	H13026	H	1.003531	0.142979	0.577379
	H13027	H	1.003162	0.361672	0.577323
	H13028	H	0.899726	0.643388	0.526491
	H13029	H	0.966057	0.645099	0.522363
	H13030	H	0.966414	0.861009	0.522177
	H13031	H	0.900272	0.862601	0.526578
	H13032	H	0.990249	0.645397	0.534759
	H13033	H	0.990595	0.861110	0.534581
	H13034	H	0.993922	0.643397	0.592759
	H13035	H	0.994215	0.861901	0.592861
	H13036	H	0.925101	0.440543	0.504017
	H13037	H	0.968675	0.440875	0.619906
	H13038	H	0.919776	0.440966	0.503670
	H13039	H	0.917841	0.441367	0.501966
	H13040	H	0.978098	0.440546	0.617423
	H13041	H	0.975966	0.440649	0.619685
	H13042	H	0.968816	0.564321	0.619927
	H13043	H	0.925255	0.564205	0.504075
	H13044	H	0.976016	0.563939	0.619726
	H13045	H	0.978026	0.564209	0.617480
	H13046	H	0.917832	0.564416	0.501994
	H13047	H	0.919703	0.565203	0.503726
	H13048	H	0.994380	0.142682	0.592842
	H13049	H	0.993970	0.361638	0.592784
	H13050	H	0.910936	0.064601	0.503073
	H13051	H	0.917280	0.064554	0.507004
	H13052	H	0.915805	0.064794	0.497072
	H13053	H	0.927974	0.861457	0.597117
	H13054	H	0.928013	0.644455	0.597083
	H13055	H	0.927902	0.361533	0.597068
	H13056	H	0.927886	0.144738	0.597094
	H13057	H	0.900018	0.143303	0.526588
	H13058	H	0.966469	0.144945	0.522141
	H13059	H	0.966063	0.361282	0.522392
	H13060	H	0.900226	0.361934	0.526641
	H13061	H	0.990625	0.144710	0.534558
	H13062	H	0.990142	0.361158	0.534793
	H13063	H	0.984309	0.064495	0.621496
	H13064	H	0.985895	0.064184	0.615649
	H13065	H	0.972057	0.064422	0.610205
	H13066	H	0.917259	0.941256	0.507015
	H13067	H	0.910936	0.940847	0.503078
	H13068	H	0.915838	0.940978	0.497024
	H13069	H	0.984280	0.940654	0.621532
	H13070	H	0.985848	0.940997	0.615650
	H13071	H	0.972181	0.940883	0.610265
	Zn13072	Zn	0.860208	0.679864	0.564520
	Zn13073	Zn	0.860043	0.825488	0.564497
	Zn13074	Zn	0.860078	0.179979	0.564566
	Zn13075	Zn	0.860029	0.325402	0.564484
	Zn13076	Zn	0.971586	0.679941	0.617351
	Zn13077	Zn	0.971564	0.825126	0.617350
	Zn13078	Zn	0.971480	0.180021	0.617330
	Zn13079	Zn	0.971523	0.325003	0.617340
	C13080	C	1.006633	0.753258	0.542783
	C13081	C	0.887681	0.753004	0.576574
	C13082	C	0.902365	0.753143	0.583955
	C13083	C	0.909139	0.691627	0.587468
	C13084	C	0.909158	0.814565	0.587480
	C13085	C	0.887558	0.252864	0.576569
	C13086	C	0.902304	0.252910	0.583947
	C13087	C	0.909117	0.191604	0.587451
	C13088	C	0.909146	0.314360	0.587442
	C13089	C	0.882927	0.752777	0.551861
	C13090	C	0.890329	0.752945	0.542921
	C13091	C	0.893153	0.814981	0.538589
	C13092	C	0.892881	0.690917	0.538548
	C13093	C	0.882841	0.252490	0.551890
	C13094	C	0.890305	0.252562	0.542959
	C13095	C	0.893096	0.314489	0.538645
	C13096	C	0.892981	0.190765	0.538609
	C13097	C	1.034469	0.043113	0.554533
	C13098	C	1.034490	0.962064	0.554527
	C13099	C	0.860839	0.043249	0.562456
	C13100	C	0.860821	0.962347	0.562427
	C13101	C	0.855686	0.042969	0.565143
	C13102	C	0.855648	0.962219	0.565142
	C13103	C	0.857667	0.462128	0.565875
	C13104	C	1.038653	0.461962	0.555407
	C13105	C	1.031513	0.462334	0.556324
	C13106	C	0.857673	0.542807	0.565885
	C13107	C	1.031466	0.542939	0.556304
	C13108	C	1.038652	0.542956	0.555385
	C13109	C	1.011237	0.753037	0.567473
	C13110	C	1.011314	0.252448	0.567486
	C13111	C	1.003901	0.753002	0.576436
	C13112	C	1.001111	0.690979	0.580753
	C13113	C	1.001258	0.814672	0.580821
	C13114	C	1.003914	0.252271	0.576451
	C13115	C	1.001299	0.190316	0.580812
	C13116	C	1.001123	0.314183	0.580784
	C13117	C	1.006608	0.252745	0.542746
	C13118	C	0.950250	0.752950	0.514111
	C13119	C	0.905792	0.752879	0.516245
	C13120	C	0.944089	0.752858	0.605224
	C13121	C	0.984981	0.692190	0.531932
	C13122	C	0.985172	0.814332	0.531834
	C13123	C	0.964937	0.753082	0.521482
	C13124	C	0.900353	0.752967	0.525562
	C13125	C	0.897892	0.690994	0.529953
	C13126	C	0.971581	0.692007	0.525059
	C13127	C	0.971776	0.814232	0.524957
	C13128	C	0.898173	0.814949	0.529999
	C13129	C	0.991945	0.753302	0.535376
	C13130	C	0.988392	0.752402	0.603080
	C13131	C	0.996068	0.690850	0.589348
	C13132	C	0.996206	0.814453	0.589407
	C13133	C	0.993838	0.752628	0.593786
	C13134	C	0.968356	0.462043	0.618446
	C13135	C	0.919738	0.462412	0.502617
	C13136	C	0.975685	0.462016	0.618250
	C13137	C	0.968398	0.542893	0.618453
	C13138	C	0.975678	0.542802	0.618268
	C13139	C	0.919720	0.543291	0.502638
	C13140	C	0.988307	0.252203	0.603084
	C13141	C	0.996248	0.190265	0.589395
	C13142	C	0.996088	0.314088	0.589374
	C13143	C	0.993835	0.252179	0.593802
	C13144	C	0.916272	0.043191	0.504250
	C13145	C	0.950084	0.253119	0.514161
	C13146	C	0.905957	0.252616	0.516350
	C13147	C	0.944086	0.253025	0.605199
	C13148	C	0.985171	0.191685	0.531817
	C13149	C	0.984925	0.314220	0.531947
	C13150	C	0.964840	0.253126	0.521506
	C13151	C	0.900467	0.252583	0.525639
	C13152	C	0.929346	0.752916	0.597857
	C13153	C	0.922548	0.814390	0.594357
	C13154	C	0.922551	0.691527	0.594338
	C13155	C	0.929348	0.253034	0.597845
	C13156	C	0.922552	0.314384	0.594319
	C13157	C	0.922542	0.191733	0.594327
	C13158	C	0.898066	0.190798	0.530034
	C13159	C	0.971750	0.191910	0.524954
	C13160	C	0.971501	0.314265	0.525077
	C13161	C	0.898193	0.314446	0.530064
	C13162	C	0.991872	0.252872	0.535383
	C13163	C	0.981600	0.042969	0.618259
	C13164	C	0.921208	0.043158	0.498203
	C13165	C	0.916287	0.962365	0.504248
	C13166	C	0.981589	0.962201	0.618271
	C13167	C	0.921229	0.962355	0.498186
	N13168	N	0.859933	0.069880	0.564571
	N13169	N	0.859898	0.935355	0.564550
	N13170	N	0.859975	0.435345	0.564528
	N13171	N	0.860013	0.569870	0.564543
	N13172	N	0.971799	0.435285	0.617325
	N13173	N	0.971806	0.569833	0.617373
	N13174	N	0.971699	0.069862	0.617359
	N13175	N	0.971711	0.935325	0.617365
	O13176	O	0.988049	0.695507	0.674461
	O13177	O	0.988448	0.812266	0.674452
	O13178	O	0.924768	0.693581	0.691434
	O13179	O	0.925099	0.810432	0.691416
	O13180	O	0.925198	0.194849	0.691339
	O13181	O	0.924890	0.311794	0.691359
	O13182	O	0.923506	0.693719	0.669196
	O13183	O	0.923548	0.810325	0.669155
	O13184	O	0.923680	0.194978	0.669187
	O13185	O	0.923408	0.311513	0.669097
	O13186	O	0.986660	0.696063	0.695216
	O13187	O	0.987254	0.812658	0.695367
	O13188	O	0.987009	0.193361	0.695310
	O13189	O	0.986749	0.310160	0.695295
	O13190	O	0.988523	0.193152	0.674446
	O13191	O	0.987830	0.309868	0.674528
	O13192	O	0.987443	0.693996	0.628876
	O13193	O	0.952049	0.693910	0.626669
	O13194	O	0.961368	0.694716	0.738531
	O13195	O	0.961518	0.811319	0.738604
	O13196	O	0.925856	0.694190	0.737092
	O13197	O	0.926291	0.810991	0.736983
	O13198	O	0.952273	0.810763	0.626736
	O13199	O	0.987733	0.810990	0.628823
	O13200	O	0.987545	0.193677	0.628855
	O13201	O	0.952163	0.194200	0.626674
	O13202	O	0.961517	0.193945	0.738603
	O13203	O	0.961460	0.310716	0.738574
	O13204	O	0.926292	0.194378	0.736933
	O13205	O	0.926013	0.311134	0.737015
	O13206	O	0.952194	0.311047	0.626654
	O13207	O	0.987352	0.310575	0.628859
	H13208	H	0.925162	0.641965	0.706115
	H13209	H	0.925793	0.861488	0.706107
	H13210	H	0.925724	0.143158	0.706022
	H13211	H	0.925362	0.362925	0.706019
	H13212	H	0.931589	0.861240	0.655319
	H13213	H	0.931468	0.642368	0.655316
	H13214	H	0.931182	0.362144	0.655196
	H13215	H	0.932016	0.143624	0.655387
	H13216	H	1.009017	0.064324	0.693790
	H13217	H	1.020589	0.064414	0.690052
	H13218	H	1.020688	0.940751	0.690041
	H13219	H	1.009045	0.940955	0.693792
	H13220	H	0.990909	0.064173	0.689482
	H13221	H	0.990927	0.940948	0.689497
	H13222	H	0.911721	0.064579	0.679698
	H13223	H	0.911903	0.941381	0.679691
	H13224	H	0.910496	0.064577	0.678809
	H13225	H	0.910510	0.941015	0.678792
	H13226	H	0.907450	0.064665	0.678822
	H13227	H	0.907458	0.941102	0.678857
	H13228	H	0.905502	0.441012	0.678702
	H13229	H	0.905223	0.440873	0.680331
	H13230	H	0.909884	0.441245	0.677909
	H13231	H	1.007900	0.440755	0.682110
	H13232	H	1.013103	0.440777	0.686018
	H13233	H	1.010052	0.440917	0.688836
	H13234	H	0.905126	0.564633	0.680335
	H13235	H	0.905548	0.564505	0.678686
	H13236	H	1.009997	0.564156	0.688848
	H13237	H	1.012992	0.564253	0.686002
	H13238	H	1.007848	0.564470	0.682141
	H13239	H	0.909857	0.564406	0.677989
	H13240	H	0.977572	0.644220	0.708903
	H13241	H	0.978491	0.863715	0.709214
	H13242	H	0.978226	0.141882	0.709168
	H13243	H	0.977810	0.361762	0.709055
	H13244	H	0.940644	0.642378	0.639842
	H13245	H	0.987469	0.643066	0.643569
	H13246	H	0.988482	0.862784	0.643465
	H13247	H	0.940847	0.861649	0.639901
	H13248	H	0.985763	0.643619	0.659827
	H13249	H	0.986849	0.863489	0.659754
	H13250	H	0.970074	0.643569	0.724635
	H13251	H	0.970869	0.863044	0.724901
	H13252	H	0.965498	0.440701	0.617760
	H13253	H	0.950912	0.441262	0.743034
	H13254	H	0.968391	0.440827	0.614663
	H13255	H	0.973628	0.440872	0.614467
	H13256	H	0.929245	0.441261	0.747242
	H13257	H	0.934882	0.441214	0.742593
	H13258	H	0.950906	0.564618	0.743058
	H13259	H	0.965517	0.564258	0.617771
	H13260	H	0.935016	0.564679	0.742593
	H13261	H	0.929134	0.564512	0.747257
	H13262	H	0.973680	0.564417	0.614536
	H13263	H	0.968346	0.564147	0.614699
	H13264	H	0.970687	0.142276	0.724897
	H13265	H	0.970328	0.362140	0.724773
	H13266	H	0.958477	0.064069	0.620276
	H13267	H	0.968493	0.064564	0.624219
	H13268	H	0.960546	0.064249	0.612219
	H13269	H	0.924234	0.861564	0.722390
	H13270	H	0.923642	0.642171	0.722404
	H13271	H	0.923950	0.362900	0.722307
	H13272	H	0.924352	0.143233	0.722326
	H13273	H	0.941216	0.143422	0.639939
	H13274	H	0.988322	0.142003	0.643516
	H13275	H	0.987409	0.361871	0.643489
	H13276	H	0.940477	0.362150	0.639733
	H13277	H	0.986782	0.141991	0.659794
	H13278	H	0.985860	0.361607	0.659783
	H13279	H	0.944408	0.064668	0.744856
	H13280	H	0.938378	0.064755	0.745391
	H13281	H	0.936171	0.065067	0.749174
	H13282	H	0.968524	0.940802	0.624251
	H13283	H	0.958511	0.941156	0.620277
	H13284	H	0.960600	0.941095	0.612242
	H13285	H	0.944369	0.941422	0.744837
	H13286	H	0.938450	0.941208	0.745370
	H13287	H	0.936148	0.940985	0.749185
	Zn13288	Zn	0.908961	0.679926	0.679898
	Zn13289	Zn	0.909232	0.825102	0.679864
	Zn13290	Zn	0.909085	0.180074	0.679857
	Zn13291	Zn	0.909018	0.325193	0.679850
	Zn13292	Zn	0.943125	0.680377	0.748241
	Zn13293	Zn	0.943111	0.825058	0.748238
	Zn13294	Zn	0.943029	0.180948	0.748206
	Zn13295	Zn	0.943072	0.325672	0.748228
	C13296	C	0.987160	0.753893	0.670638
	C13297	C	0.925563	0.752016	0.695252
	C13298	C	0.925831	0.751796	0.705119
	C13299	C	0.925019	0.689704	0.709730
	C13300	C	0.925369	0.813895	0.709726
	C13301	C	0.925688	0.253261	0.695166
	C13302	C	0.926014	0.253102	0.705026
	C13303	C	0.925444	0.190914	0.709643
	C13304	C	0.925237	0.315153	0.709637
	C13305	C	0.925735	0.751936	0.665580
	C13306	C	0.931202	0.751781	0.656272
	C13307	C	0.933573	0.813795	0.651876
	C13308	C	0.933499	0.689893	0.651866
	C13309	C	0.925791	0.253143	0.665552
	C13310	C	0.931324	0.252927	0.656254
	C13311	C	0.933415	0.314711	0.651792
	C13312	C	0.933867	0.191020	0.651901
	C13313	C	1.012360	0.043116	0.690276
	C13314	C	1.012433	0.962141	0.690277
	C13315	C	0.910636	0.043292	0.679412
	C13316	C	0.910691	0.962300	0.679412
	C13317	C	0.907645	0.043332	0.679452
	C13318	C	0.907655	0.962396	0.679465
	C13319	C	0.906363	0.462235	0.679599
	C13320	C	1.004560	0.461882	0.683056
	C13321	C	1.009781	0.462162	0.686977
	C13322	C	0.906347	0.543385	0.679609
	C13323	C	1.009760	0.543060	0.686968
	C13324	C	1.004555	0.542885	0.683058
	C13325	C	0.984186	0.754321	0.698809
	C13326	C	0.984116	0.251656	0.698812
	C13327	C	0.978375	0.753987	0.708081
	C13328	C	0.976059	0.691730	0.712470
	C13329	C	0.976515	0.815817	0.712633
	C13330	C	0.978318	0.251707	0.708120
	C13331	C	0.976406	0.189737	0.712640
	C13332	C	0.976177	0.314053	0.712568
	C13333	C	0.987090	0.251627	0.670661
	C13334	C	0.988187	0.752571	0.632677
	C13335	C	0.948736	0.752277	0.630007
	C13336	C	0.924899	0.752384	0.733223
	C13337	C	0.986385	0.691246	0.656190
	C13338	C	0.986944	0.815620	0.656150
	C13339	C	0.988388	0.752823	0.642535
	C13340	C	0.941332	0.752073	0.638949
	C13341	C	0.938575	0.689983	0.643283
	C13342	C	0.987416	0.690877	0.647163
	C13343	C	0.987965	0.815166	0.647121
	C13344	C	0.938642	0.813994	0.643301
	C13345	C	0.986160	0.753606	0.660767
	C13346	C	0.964328	0.753085	0.735073
	C13347	C	0.971986	0.691409	0.721212
	C13348	C	0.972429	0.815378	0.721373
	C13349	C	0.970185	0.753164	0.725792
	C13350	C	0.951029	0.462656	0.746241
	C13351	C	0.971233	0.462111	0.615294
	C13352	C	0.934960	0.462517	0.745790
	C13353	C	0.951048	0.543366	0.746262
	C13354	C	0.934978	0.543415	0.745798
	C13355	C	0.971259	0.542992	0.615329
	C13356	C	0.964333	0.252255	0.735106
	C13357	C	0.972332	0.189999	0.721383
	C13358	C	0.972122	0.314226	0.721317
	C13359	C	0.970276	0.252150	0.725848
	C13360	C	0.965684	0.042908	0.620975
	C13361	C	0.988031	0.252090	0.632675
	C13362	C	0.948786	0.252655	0.629972
	C13363	C	0.925062	0.252932	0.733160
	C13364	C	0.986881	0.189704	0.656159
	C13365	C	0.986356	0.313925	0.656146
	C13366	C	0.988276	0.252016	0.642524
	C13367	C	0.941389	0.252738	0.638914
	C13368	C	0.923854	0.751883	0.723365
	C13369	C	0.924445	0.813952	0.718760
	C13370	C	0.924114	0.689711	0.718766
	C13371	C	0.923920	0.253098	0.723276
	C13372	C	0.924304	0.315208	0.718673
	C13373	C	0.924525	0.190888	0.718680
	C13374	C	0.938906	0.190909	0.643317
	C13375	C	0.987868	0.189742	0.647128
	C13376	C	0.987345	0.314098	0.647109
	C13377	C	0.938473	0.314706	0.643205
	C13378	C	0.986129	0.251826	0.660772
	C13379	C	0.941828	0.043394	0.745954
	C13380	C	0.967784	0.043167	0.612845
	C13381	C	0.965675	0.962074	0.620974
	C13382	C	0.941817	0.962660	0.745941
	C13383	C	0.967805	0.962213	0.612852
	N13384	N	0.909207	0.069860	0.679874
	N13385	N	0.909255	0.935259	0.679885
	N13386	N	0.909141	0.435570	0.679837
	N13387	N	0.909075	0.570107	0.679833
	N13388	N	0.942984	0.435839	0.748243
	N13389	N	0.943044	0.570340	0.748260
	N13390	N	0.943027	0.070202	0.748225
	N13391	N	0.943053	0.935505	0.748242
	O13392	O	0.961157	0.694135	0.805049
	O13393	O	0.960879	0.810859	0.805054
	O13394	O	0.897245	0.694673	0.821902
	O13395	O	0.897418	0.811175	0.821848
	O13396	O	0.897273	0.194391	0.821870
	O13397	O	0.897454	0.311107	0.821878
	O13398	O	0.898733	0.694655	0.801076
	O13399	O	0.898494	0.811305	0.800991
	O13400	O	0.898767	0.195033	0.801108
	O13401	O	0.898442	0.311825	0.801007
	O13402	O	0.962222	0.694546	0.827217
	O13403	O	0.962415	0.811048	0.827270
	O13404	O	0.962416	0.194689	0.827300
	O13405	O	0.962358	0.311098	0.827245
	O13406	O	0.960767	0.194556	0.805082
	O13407	O	0.960894	0.311506	0.805017
	O13408	O	0.960235	0.694397	0.759394
	O13409	O	0.924582	0.694495	0.757824
	O13410	O	0.933353	0.694869	0.869593
	O13411	O	0.933360	0.811594	0.869600
	O13412	O	0.897979	0.694291	0.867467
	O13413	O	0.897992	0.811088	0.867479
	O13414	O	0.924564	0.811294	0.757834
	O13415	O	0.959887	0.811113	0.759512
	O13416	O	0.960110	0.194264	0.759420
	O13417	O	0.924682	0.194321	0.757862
	O13418	O	0.933525	0.194770	0.869671
	O13419	O	0.933499	0.311527	0.869681
	O13420	O	0.897961	0.193832	0.867469
	O13421	O	0.898009	0.310773	0.867483
	O13422	O	0.924695	0.311236	0.757854
	O13423	O	0.960032	0.311038	0.759425
	H13424	H	0.899293	0.643330	0.836551
	H13425	H	0.899185	0.863023	0.836568
	H13426	H	0.899531	0.142901	0.836548
	H13427	H	0.899141	0.362577	0.836579
	H13428	H	0.907875	0.862843	0.787270
	H13429	H	0.907619	0.643112	0.787251
	H13430	H	0.907599	0.362993	0.787247
	H13431	H	0.907686	0.143165	0.787333
	H13432	H	0.977625	0.064202	0.819052
	H13433	H	0.981255	0.064233	0.817960
	H13434	H	0.981276	0.940671	0.817919
	H13435	H	0.977689	0.941352	0.819078
	H13436	H	0.972160	0.064207	0.817670
	H13437	H	0.972193	0.940968	0.817629
	H13438	H	0.901550	0.064562	0.811787
	H13439	H	0.901738	0.941344	0.811795
	H13440	H	0.894814	0.064716	0.803652
	H13441	H	0.894763	0.940705	0.803602
	H13442	H	0.870471	0.064689	0.801261
	H13443	H	0.870369	0.941280	0.801274
	H13444	H	0.877053	0.440886	0.801948
	H13445	H	0.864303	0.441198	0.805750
	H13446	H	0.896253	0.440444	0.806817
	H13447	H	0.970856	0.441087	0.820902
	H13448	H	0.965812	0.440978	0.814990
	H13449	H	0.971580	0.441159	0.811592
	H13450	H	0.864307	0.564320	0.805734
	H13451	H	0.877041	0.564146	0.801900
	H13452	H	0.971540	0.564366	0.811641
	H13453	H	0.965874	0.564882	0.815031
	H13454	H	0.970889	0.564355	0.820923
	H13455	H	0.896362	0.564384	0.806801
	H13456	H	0.953928	0.643725	0.840985
	H13457	H	0.954547	0.862500	0.841102
	H13458	H	0.954425	0.143721	0.841126
	H13459	H	0.954016	0.362594	0.841039
	H13460	H	0.915128	0.643089	0.771538
	H13461	H	0.962048	0.642806	0.774127
	H13462	H	0.962015	0.862226	0.774149
	H13463	H	0.915493	0.862769	0.771578
	H13464	H	0.960515	0.642649	0.790402
	H13465	H	0.960404	0.862396	0.790407
	H13466	H	0.944602	0.643817	0.856407
	H13467	H	0.945093	0.862788	0.856523
	H13468	H	0.956817	0.441195	0.748039
	H13469	H	0.924633	0.440892	0.879793
	H13470	H	0.948930	0.441341	0.754406
	H13471	H	0.937230	0.441171	0.754080
	H13472	H	0.909355	0.440947	0.874106
	H13473	H	0.918525	0.441080	0.874452
	H13474	H	0.924618	0.564700	0.879760
	H13475	H	0.956872	0.564612	0.748051
	H13476	H	0.918480	0.564553	0.874462
	H13477	H	0.909510	0.564420	0.874100
	H13478	H	0.937286	0.564514	0.754103
	H13479	H	0.948945	0.564639	0.754419
	H13480	H	0.945104	0.143802	0.856547
	H13481	H	0.944739	0.362681	0.856474
	H13482	H	0.948563	0.064585	0.750674
	H13483	H	0.950137	0.064972	0.747921
	H13484	H	0.940426	0.064740	0.751361
	H13485	H	0.897560	0.862873	0.852833
	H13486	H	0.897682	0.643346	0.852833
	H13487	H	0.897367	0.362186	0.852853
	H13488	H	0.897781	0.142894	0.852839
	H13489	H	0.915447	0.142928	0.771633
	H13490	H	0.962137	0.143004	0.774106
	H13491	H	0.961788	0.362321	0.774067
	H13492	H	0.915402	0.362636	0.771581
	H13493	H	0.960716	0.143080	0.790397
	H13494	H	0.960344	0.362686	0.790346
	H13495	H	0.907505	0.064279	0.878171
	H13496	H	0.908815	0.064443	0.880698
	H13497	H	0.915842	0.064992	0.881933
	H13498	H	0.950252	0.941636	0.747914
	H13499	H	0.948634	0.941268	0.750674
	H13500	H	0.940511	0.940907	0.751440
	H13501	H	0.907659	0.941132	0.878166
	H13502	H	0.908834	0.941684	0.880682
	H13503	H	0.915829	0.941120	0.881964
	Zn13504	Zn	0.880261	0.680469	0.810674
	Zn13505	Zn	0.880250	0.825202	0.810696
	Zn13506	Zn	0.880252	0.180299	0.810688
	Zn13507	Zn	0.880225	0.325115	0.810725
	Zn13508	Zn	0.914020	0.680576	0.878968
	Zn13509	Zn	0.913963	0.825350	0.878964
	Zn13510	Zn	0.913903	0.180384	0.878962
	Zn13511	Zn	0.913889	0.325203	0.878964
	C13512	C	0.960380	0.752498	0.801223
	C13513	C	0.898429	0.753036	0.825698
	C13514	C	0.899374	0.753158	0.835562
	C13515	C	0.898950	0.691036	0.840181
	C13516	C	0.898865	0.815252	0.840181
	C13517	C	0.898466	0.252733	0.825686
	C13518	C	0.899425	0.252732	0.835565
	C13519	C	0.899062	0.190623	0.840167
	C13520	C	0.898826	0.314794	0.840185
	C13521	C	0.901501	0.752938	0.797545
	C13522	C	0.907381	0.752982	0.788260
	C13523	C	0.909514	0.815061	0.783785
	C13524	C	0.909375	0.690831	0.783776
	C13525	C	0.901443	0.253400	0.797573
	C13526	C	0.907450	0.253190	0.788317
	C13527	C	0.909442	0.315240	0.783810
	C13528	C	0.909504	0.190921	0.783848
	C13529	C	0.978690	0.042981	0.817984
	C13530	C	0.978732	0.962283	0.817991
	C13531	C	0.893467	0.043381	0.808485
	C13532	C	0.893510	0.962360	0.808472
	C13533	C	0.868955	0.042986	0.806085
	C13534	C	0.868945	0.962369	0.806090
	C13535	C	0.873208	0.462388	0.805645
	C13536	C	0.975814	0.462224	0.820061
	C13537	C	0.970775	0.462313	0.814154
	C13538	C	0.873196	0.542975	0.805628
	C13539	C	0.970813	0.543259	0.814174
	C13540	C	0.975868	0.542956	0.820095
	C13541	C	0.960076	0.752824	0.830823
	C13542	C	0.960116	0.252979	0.830851
	C13543	C	0.954500	0.753127	0.840100
	C13544	C	0.951986	0.691236	0.844445
	C13545	C	0.952311	0.815147	0.844516
	C13546	C	0.954536	0.253095	0.840123
	C13547	C	0.952257	0.191214	0.844535
	C13548	C	0.952043	0.315080	0.844482
	C13549	C	0.960215	0.252866	0.801229
	C13550	C	0.961167	0.752568	0.763259
	C13551	C	0.921667	0.752905	0.761304
	C13552	C	0.897359	0.752727	0.863647
	C13553	C	0.960843	0.690341	0.786784
	C13554	C	0.960796	0.814693	0.786792
	C13555	C	0.962192	0.752517	0.773140
	C13556	C	0.915785	0.752926	0.770578
	C13557	C	0.913588	0.690793	0.775047
	C13558	C	0.961773	0.690388	0.777749
	C13559	C	0.961727	0.814565	0.777763
	C13560	C	0.913715	0.815042	0.775057
	C13561	C	0.960153	0.752539	0.791374
	C13562	C	0.936808	0.753234	0.866293
	C13563	C	0.946875	0.691375	0.853012
	C13564	C	0.947178	0.815277	0.853080
	C13565	C	0.944255	0.753296	0.857374
	C13566	C	0.920099	0.462439	0.880893
	C13567	C	0.943057	0.462429	0.752656
	C13568	C	0.913912	0.462311	0.875506
	C13569	C	0.920090	0.543312	0.880876
	C13570	C	0.913901	0.543125	0.875503
	C13571	C	0.943093	0.543317	0.752688
	C13572	C	0.936970	0.253190	0.866381
	C13573	C	0.947130	0.191333	0.853099
	C13574	C	0.946937	0.315183	0.853055
	C13575	C	0.944344	0.253276	0.857426
	C13576	C	0.947697	0.043381	0.749019
	C13577	C	0.961130	0.252617	0.763245
	C13578	C	0.921851	0.252817	0.761347
	C13579	C	0.897389	0.252312	0.863649
	C13580	C	0.960813	0.190706	0.786771
	C13581	C	0.960602	0.314832	0.786742
	C13582	C	0.962186	0.252594	0.773119
	C13583	C	0.915764	0.252876	0.770613
	C13584	C	0.897249	0.753000	0.853800
	C13585	C	0.897876	0.815176	0.849210
	C13586	C	0.897957	0.690943	0.849209
	C13587	C	0.897261	0.252534	0.853801
	C13588	C	0.897823	0.314692	0.849213
	C13589	C	0.898077	0.190461	0.849200
	C13590	C	0.913698	0.190760	0.775110
	C13591	C	0.961804	0.190595	0.777741
	C13592	C	0.961597	0.314756	0.777708
	C13593	C	0.913643	0.315024	0.775080
	C13594	C	0.960018	0.252772	0.791360
	C13595	C	0.909612	0.043217	0.879304
	C13596	C	0.939545	0.043499	0.749752
	C13597	C	0.947753	0.962662	0.749007
	C13598	C	0.909628	0.962611	0.879310
	C13599	C	0.939556	0.962442	0.749762
	N13600	N	0.880262	0.069926	0.810661
	N13601	N	0.880263	0.935372	0.810644
	N13602	N	0.880270	0.435548	0.810712
	N13603	N	0.880292	0.570163	0.810711
	N13604	N	0.913786	0.435421	0.878959
	N13605	N	0.913807	0.570084	0.878950
	N13606	N	0.913736	0.070160	0.878956
	N13607	N	0.913770	0.935585	0.878994
	O13608	O	1.003971	0.694575	0.922378
	O13609	O	1.004104	0.810773	0.922317
	O13610	O	0.873304	0.695013	0.950824
	O13611	O	0.873261	0.811381	0.950865
	O13612	O	0.873478	0.194796	0.950765
	O13613	O	0.873334	0.311272	0.950839
	O13614	O	0.870983	0.694609	0.932191
	O13615	O	0.871166	0.811339	0.932213
	O13616	O	0.870989	0.194239	0.932185
	O13617	O	0.871109	0.311010	0.932187
	O13618	O	1.006293	0.693985	0.941012
	O13619	O	1.006380	0.810823	0.941029
	O13620	O	1.006257	0.194342	0.941035
	O13621	O	1.006333	0.311069	0.941006
	O13622	O	1.003928	0.195151	0.922347
	O13623	O	1.003904	0.311378	0.922337
	O13624	O	0.935736	0.695174	0.888271
	O13625	O	0.899510	0.694960	0.889693
	O13626	O	0.977725	0.694324	0.983541
	O13627	O	0.978009	0.810785	0.983555
	O13628	O	0.941662	0.694909	0.984913
	O13629	O	0.941606	0.811293	0.984937
	O13630	O	0.899518	0.811355	0.889716
	O13631	O	0.935771	0.811429	0.888273
	O13632	O	0.935655	0.195473	0.888245
	O13633	O	0.899618	0.194506	0.889719
	O13634	O	0.978051	0.194653	0.983613
	O13635	O	0.977849	0.310888	0.983534
	O13636	O	0.941704	0.194714	0.984891
	O13637	O	0.941522	0.310969	0.984996
	O13638	O	0.899494	0.310966	0.889703
	O13639	O	0.935802	0.311646	0.888184
	H13640	H	0.895195	0.644275	0.961775
	H13641	H	0.895486	0.861814	0.961678
	H13642	H	0.895471	0.144445	0.961645
	H13643	H	0.895350	0.361811	0.961765
	H13644	H	0.882349	0.862317	0.918985
	H13645	H	0.882167	0.643425	0.919011
	H13646	H	0.882228	0.362213	0.918979
	H13647	H	0.882735	0.143135	0.919053
	H13648	H	1.019875	0.064445	0.929097
	H13649	H	1.018255	0.064489	0.932034
	H13650	H	1.018068	0.941341	0.932061
	H13651	H	1.019775	0.941090	0.929042
	H13652	H	1.028351	0.064417	0.928349
	H13653	H	1.028358	0.940679	0.928352
	H13654	H	0.850296	0.064365	0.940632
	H13655	H	0.850333	0.941317	0.940675
	H13656	H	0.849377	0.064682	0.941303
	H13657	H	0.849419	0.941227	0.941293
	H13658	H	0.850506	0.064644	0.942374
	H13659	H	0.850456	0.941021	0.942374
	H13660	H	0.849971	0.441108	0.941150
	H13661	H	0.850034	0.440781	0.941830
	H13662	H	0.851683	0.441438	0.940645
	H13663	H	1.022012	0.441605	0.934713
	H13664	H	1.018315	0.441274	0.930818
	H13665	H	1.022022	0.441284	0.928377
	H13666	H	0.849964	0.564733	0.941831
	H13667	H	0.849892	0.564459	0.941162
	H13668	H	1.021990	0.564806	0.928397
	H13669	H	1.018355	0.564846	0.930823
	H13670	H	1.022134	0.564914	0.934715
	H13671	H	0.851655	0.564597	0.940708
	H13672	H	0.994936	0.643324	0.954200
	H13673	H	0.995201	0.861824	0.954261
	H13674	H	0.995535	0.143196	0.954356
	H13675	H	0.994684	0.362001	0.954133
	H13676	H	0.891409	0.643271	0.903571
	H13677	H	0.957658	0.644807	0.899162
	H13678	H	0.957868	0.861564	0.899135
	H13679	H	0.891587	0.862266	0.903542
	H13680	H	0.981926	0.644522	0.911503
	H13681	H	0.982169	0.861009	0.911457
	H13682	H	0.985596	0.643166	0.969629
	H13683	H	0.986016	0.861548	0.969702
	H13684	H	0.920057	0.441271	0.883426
	H13685	H	0.964702	0.441463	0.994691
	H13686	H	0.907602	0.441502	0.882954
	H13687	H	0.903086	0.441129	0.879059
	H13688	H	0.963560	0.441391	0.993533
	H13689	H	0.964674	0.441286	0.993822
	H13690	H	0.964760	0.564942	0.994708
	H13691	H	0.920044	0.564484	0.883370
	H13692	H	0.964729	0.564534	0.993869
	H13693	H	0.963636	0.564371	0.993566
	H13694	H	0.903174	0.564793	0.879053
	H13695	H	0.907695	0.564465	0.882947
	H13696	H	0.986441	0.143409	0.969810
	H13697	H	0.985560	0.362076	0.969620
	H13698	H	0.917972	0.064389	0.876873
	H13699	H	0.912913	0.064305	0.875947
	H13700	H	0.919742	0.064586	0.880286
	H13701	H	0.919809	0.861910	0.973963
	H13702	H	0.919466	0.644506	0.974085
	H13703	H	0.919587	0.361539	0.974131
	H13704	H	0.919680	0.144197	0.974007
	H13705	H	0.891952	0.143294	0.903606
	H13706	H	0.957774	0.145381	0.899065
	H13707	H	0.957674	0.361197	0.899102
	H13708	H	0.891472	0.362107	0.903519
	H13709	H	0.982045	0.145142	0.911444
	H13710	H	0.981886	0.361449	0.911467
	H13711	H	0.962193	0.064520	0.994072
	H13712	H	0.962489	0.064599	0.994572
	H13713	H	0.963919	0.064529	0.994763
	H13714	H	0.913013	0.940987	0.875979
	H13715	H	0.917993	0.940900	0.876925
	H13716	H	0.919676	0.940830	0.880283
	H13717	H	0.962227	0.941698	0.994061
	H13718	H	0.962578	0.941039	0.994597
	H13719	H	0.963904	0.941036	0.994766
	Zn13720	Zn	0.851541	0.680403	0.941511
	Zn13721	Zn	0.851555	0.825447	0.941495
	Zn13722	Zn	0.851624	0.180280	0.941528
	Zn13723	Zn	0.851696	0.325547	0.941496
	Zn13724	Zn	0.963399	0.680319	0.994279
	Zn13725	Zn	0.963418	0.825576	0.994194
	Zn13726	Zn	0.963341	0.180205	0.994258
	Zn13727	Zn	0.963338	0.325321	0.994253
	C13728	C	0.998194	0.752680	0.919585
	C13729	C	0.879126	0.753170	0.953608
	C13730	C	0.893936	0.753115	0.960933
	C13731	C	0.900641	0.691551	0.964484
	C13732	C	0.900845	0.814657	0.964414
	C13733	C	0.879178	0.253017	0.953602
	C13734	C	0.893937	0.253021	0.960966
	C13735	C	0.900813	0.191522	0.964432
	C13736	C	0.900740	0.314486	0.964499
	C13737	C	0.874467	0.752958	0.928882
	C13738	C	0.881843	0.752952	0.919937
	C13739	C	0.884582	0.814791	0.915575
	C13740	C	0.884455	0.690911	0.915594
	C13741	C	0.874477	0.252577	0.928881
	C13742	C	0.881861	0.252691	0.919927
	C13743	C	0.884498	0.314645	0.915568
	C13744	C	0.884742	0.190747	0.915612
	C13745	C	1.020844	0.043144	0.930855
	C13746	C	1.020776	0.962415	0.930856
	C13747	C	0.850228	0.043177	0.941118
	C13748	C	0.850225	0.962539	0.941124
	C13749	C	0.851327	0.043602	0.942177
	C13750	C	0.851294	0.962774	0.942168
	C13751	C	0.850364	0.462184	0.941500
	C13752	C	1.025497	0.462522	0.934116
	C13753	C	1.021731	0.462491	0.930136
	C13754	C	0.850327	0.543288	0.941503
	C13755	C	1.021715	0.543294	0.930150
	C13756	C	1.025498	0.543317	0.934104
	C13757	C	1.002926	0.752436	0.944330
	C13758	C	1.002921	0.252762	0.944348
	C13759	C	0.995521	0.752511	0.953278
	C13760	C	0.992777	0.690683	0.957623
	C13761	C	0.992961	0.814276	0.957665
	C13762	C	0.995635	0.252623	0.953323
	C13763	C	0.993194	0.190755	0.957732
	C13764	C	0.992701	0.314552	0.957607
	C13765	C	0.998121	0.253251	0.919556
	C13766	C	0.941491	0.753293	0.891085
	C13767	C	0.897260	0.753092	0.893290
	C13768	C	0.935881	0.753125	0.982114
	C13769	C	0.976543	0.691535	0.908749
	C13770	C	0.976676	0.814105	0.908733
	C13771	C	0.956253	0.753177	0.898436
	C13772	C	0.891869	0.752849	0.902597
	C13773	C	0.889478	0.690901	0.907006
	C13774	C	0.963057	0.691754	0.901916
	C13775	C	0.963189	0.814425	0.901892
	C13776	C	0.889593	0.814688	0.906987
	C13777	C	0.983387	0.752734	0.912265
	C13778	C	0.980082	0.752493	0.979954
	C13779	C	0.987708	0.690646	0.966209
	C13780	C	0.987904	0.814175	0.966248
	C13781	C	0.985501	0.752358	0.970646
	C13782	C	0.964053	0.462597	0.994672
	C13783	C	0.907578	0.462435	0.880457
	C13784	C	0.964016	0.462628	0.993830
	C13785	C	0.964059	0.543471	0.994658
	C13786	C	0.964046	0.543193	0.993834
	C13787	C	0.907637	0.543244	0.880451
	C13788	C	0.980234	0.252721	0.979983
	C13789	C	0.988226	0.190832	0.966327
	C13790	C	0.987753	0.314538	0.966210
	C13791	C	0.985702	0.252743	0.970685
	C13792	C	0.914982	0.042921	0.877066
	C13793	C	0.941517	0.253527	0.891010
	C13794	C	0.897345	0.252736	0.893304
	C13795	C	0.935801	0.252873	0.982169
	C13796	C	0.976568	0.192093	0.908715
	C13797	C	0.976495	0.314428	0.908729
	C13798	C	0.956242	0.253345	0.898374
	C13799	C	0.891924	0.252741	0.902591
	C13800	C	0.921119	0.753242	0.974755
	C13801	C	0.914328	0.814759	0.971250
	C13802	C	0.914133	0.691695	0.971318
	C13803	C	0.921012	0.252876	0.974835
	C13804	C	0.914173	0.314388	0.971367
	C13805	C	0.914234	0.191448	0.971302
	C13806	C	0.889800	0.190786	0.907026
	C13807	C	0.963124	0.192203	0.901855
	C13808	C	0.963060	0.314434	0.901871
	C13809	C	0.889530	0.314684	0.906978
	C13810	C	0.983344	0.253248	0.912219
	C13811	C	0.962679	0.043325	0.994311
	C13812	C	0.916674	0.043495	0.880541
	C13813	C	0.914974	0.962156	0.877104
	C13814	C	0.962698	0.962733	0.994303
	C13815	C	0.916662	0.962363	0.880570
	N13816	N	0.851412	0.070230	0.941491
	N13817	N	0.851390	0.935674	0.941508
	N13818	N	0.851554	0.435715	0.941470
	N13819	N	0.851466	0.570263	0.941517
	N13820	N	0.963514	0.435531	0.994248
	N13821	N	0.963536	0.570080	0.994252
	N13822	N	0.963496	0.070286	0.994211
	N13823	N	0.963533	0.935785	0.994209
