data_Molecule from HDF5

_cell_length_a		79.216143
_cell_length_b		19.183086
_cell_length_c		149.918280
_cell_angle_alpha	89.996931
_cell_angle_beta	94.192494
_cell_angle_gamma	89.997608
_symmetry_space_group_name_H-M	'P 1'
_symmetry_Int_Tables_number		1

loop_
	_symmetry_equiv_pos_as_xyz
	x,y,z

loop_
	_atom_site_label
	_atom_site_type_symbol
	_atom_site_fract_x
	_atom_site_fract_y
	_atom_site_fract_z
	O0	O	0.106140	0.694718	0.052457
	O1	O	0.106336	0.810903	0.052414
	O2	O	-0.019743	0.695000	0.079964
	O3	O	-0.019761	0.811273	0.080007
	O4	O	-0.019863	0.195449	0.080012
	O5	O	-0.019795	0.311610	0.079965
	O6	O	-0.021421	0.694741	0.061002
	O7	O	-0.021230	0.811471	0.061059
	O8	O	-0.021251	0.194674	0.061094
	O9	O	-0.021233	0.311486	0.061038
	O10	O	0.112690	0.694790	0.072325
	O11	O	0.112583	0.810550	0.072314
	O12	O	0.112578	0.194184	0.072320
	O13	O	0.112666	0.310414	0.072333
	O14	O	0.106259	0.194692	0.052382
	O15	O	0.106234	0.310678	0.052415
	O16	O	0.042873	0.694564	0.017564
	O17	O	0.009090	0.694755	0.018566
	O18	O	0.077811	0.695093	0.113415
	O19	O	0.077676	0.811167	0.113371
	O20	O	0.043509	0.694721	0.114859
	O21	O	0.043504	0.810752	0.114897
	O22	O	0.009233	0.811115	0.018592
	O23	O	0.043002	0.810618	0.017504
	O24	O	0.043080	0.194959	0.017500
	O25	O	0.009211	0.193890	0.018585
	O26	O	0.077812	0.194373	0.113393
	O27	O	0.077857	0.310466	0.113352
	O28	O	0.043470	0.195369	0.114874
	O29	O	0.043473	0.311369	0.114892
	O30	O	0.009337	0.310383	0.018621
	O31	O	0.042902	0.311193	0.017605
	H32	H	0.000543	0.644836	0.091140
	H33	H	0.000493	0.861616	0.091184
	H34	H	0.000522	0.145422	0.091086
	H35	H	0.000603	0.361969	0.091150
	H36	H	-0.009364	0.862368	0.047969
	H37	H	-0.009791	0.643808	0.047868
	H38	H	-0.009519	0.362100	0.047863
	H39	H	-0.009387	0.143028	0.048012
	H40	H	0.125770	0.064930	0.063360
	H41	H	0.128599	0.064550	0.063117
	H42	H	0.128635	0.941091	0.063142
	H43	H	0.125787	0.941340	0.063341
	H44	H	0.123056	0.064351	0.061679
	H45	H	0.123091	0.940985	0.061699
	H46	H	-0.036621	0.064652	0.070666
	H47	H	-0.036638	0.940736	0.070616
	H48	H	-0.037451	0.064723	0.069302
	H49	H	-0.037498	0.941459	0.069300
	H50	H	-0.040974	0.064871	0.068846
	H51	H	-0.040908	0.942002	0.068801
	H52	H	-0.032936	0.441456	0.071748
	H53	H	-0.033603	0.441542	0.068525
	H54	H	-0.039481	0.441187	0.074063
	H55	H	0.123950	0.441509	0.060702
	H56	H	0.127250	0.441317	0.060155
	H57	H	0.129239	0.441523	0.061058
	H58	H	-0.033553	0.564788	0.068525
	H59	H	-0.032825	0.564794	0.071747
	H60	H	0.129301	0.564614	0.061052
	H61	H	0.127333	0.564468	0.060187
	H62	H	0.124153	0.564404	0.060721
	H63	H	-0.039444	0.564962	0.074096
	H64	H	0.101338	0.645150	0.085426
	H65	H	0.101179	0.860619	0.085352
	H66	H	0.101322	0.144041	0.085388
	H67	H	0.101522	0.360438	0.085418
	H68	H	0.000310	0.643784	0.032449
	H69	H	0.063185	0.644240	0.028760
	H70	H	0.063501	0.861174	0.028621
	H71	H	0.000762	0.862101	0.032532
	H72	H	0.085765	0.644178	0.041328
	H73	H	0.086034	0.861627	0.041196
	H74	H	0.089176	0.645522	0.100348
	H75	H	0.088979	0.860639	0.100279
	H76	H	0.024951	0.440875	0.007104
	H77	H	0.066347	0.441681	0.123676
	H78	H	0.025299	0.441046	0.008620
	H79	H	0.023604	0.440837	0.009263
	H80	H	0.061769	0.441604	0.123189
	H81	H	0.063740	0.441921	0.122680
	H82	H	0.066329	0.564708	0.123677
	H83	H	0.024997	0.564477	0.007140
	H84	H	0.063735	0.564909	0.122696
	H85	H	0.061743	0.565108	0.123111
	H86	H	0.023658	0.564719	0.009270
	H87	H	0.025340	0.564373	0.008618
	H88	H	0.089001	0.144080	0.100272
	H89	H	0.089224	0.360515	0.100317
	H90	H	0.024376	0.064503	0.007979
	H91	H	0.023911	0.064585	0.007388
	H92	H	0.023516	0.064291	0.008541
	H93	H	0.023032	0.861542	0.103798
	H94	H	0.023082	0.644740	0.103729
	H95	H	0.023136	0.361745	0.103753
	H96	H	0.023054	0.144928	0.103703
	H97	H	0.000682	0.142656	0.032557
	H98	H	0.063332	0.145125	0.028652
	H99	H	0.063177	0.361002	0.028766
	H100	H	0.000553	0.361863	0.032453
	H101	H	0.085879	0.144912	0.041227
	H102	H	0.085746	0.360992	0.041343
	H103	H	0.064156	0.064715	0.122378
	H104	H	0.061593	0.064442	0.122778
	H105	H	0.060859	0.064643	0.124635
	H106	H	0.023812	0.940982	0.007391
	H107	H	0.024280	0.940773	0.007905
	H108	H	0.023538	0.940758	0.008539
	H109	H	0.064248	0.941003	0.122392
	H110	H	0.061636	0.941720	0.122728
	H111	H	0.060824	0.941477	0.124663
	Zn112	Zn	-0.039674	0.680275	0.070337
	Zn113	Zn	-0.039651	0.825715	0.070300
	Zn114	Zn	-0.039667	0.180158	0.070352
	Zn115	Zn	-0.039677	0.325731	0.070298
	Zn116	Zn	0.063824	0.680176	0.124116
	Zn117	Zn	0.063856	0.825783	0.124108
	Zn118	Zn	0.063815	0.180233	0.124070
	Zn119	Zn	0.063901	0.325656	0.124076
	C120	C	0.100908	0.752881	0.049565
	C121	C	-0.014428	0.753119	0.082857
	C122	C	-0.000779	0.753175	0.090388
	C123	C	0.005564	0.691840	0.093948
	C124	C	0.005532	0.814525	0.093978
	C125	C	-0.014471	0.253552	0.082856
	C126	C	-0.000784	0.253633	0.090372
	C127	C	0.005565	0.192314	0.093917
	C128	C	0.005604	0.314854	0.093950
	C129	C	-0.017901	0.753104	0.057738
	C130	C	-0.010263	0.753082	0.048831
	C131	C	-0.007150	0.814896	0.044526
	C132	C	-0.007400	0.691254	0.044468
	C133	C	-0.017736	0.252955	0.057794
	C134	C	-0.010027	0.252567	0.048883
	C135	C	-0.007174	0.314498	0.044482
	C136	C	-0.007100	0.190476	0.044556
	C137	C	0.127015	0.043236	0.062819
	C138	C	0.127031	0.962327	0.062814
	C139	C	-0.037811	0.043561	0.070059
	C140	C	-0.037797	0.962426	0.070043
	C141	C	-0.041299	0.043411	0.069558
	C142	C	-0.041269	0.962668	0.069537
	C143	C	-0.034980	0.462646	0.070166
	C144	C	0.124562	0.462708	0.061435
	C145	C	0.127811	0.462492	0.060885
	C146	C	-0.034947	0.543389	0.070171
	C147	C	0.127878	0.543127	0.060903
	C148	C	0.124633	0.543401	0.061432
	C149	C	0.109599	0.752690	0.075690
	C150	C	0.109595	0.252283	0.075692
	C151	C	0.101968	0.752972	0.084538
	C152	C	0.098660	0.691882	0.088742
	C153	C	0.098533	0.814030	0.088718
	C154	C	0.101941	0.252207	0.084525
	C155	C	0.098543	0.190934	0.088708
	C156	C	0.098651	0.313645	0.088713
	C157	C	0.100888	0.252714	0.049534
	C158	C	0.048316	0.752578	0.020378
	C159	C	0.006759	0.752954	0.022179
	C160	C	0.038124	0.752834	0.112022
	C161	C	0.080779	0.691346	0.038522
	C162	C	0.080939	0.814340	0.038441
	C163	C	0.062007	0.752610	0.027906
	C164	C	0.000797	0.752994	0.031483
	C165	C	-0.001869	0.691217	0.035892
	C166	C	0.068283	0.691355	0.031525
	C167	C	0.068454	0.814053	0.031441
	C168	C	-0.001616	0.814747	0.035945
	C169	C	0.087206	0.752848	0.042049
	C170	C	0.080789	0.753100	0.110034
	C171	C	0.091876	0.692014	0.097000
	C172	C	0.091762	0.813971	0.096981
	C173	C	0.088473	0.753014	0.101190
	C174	C	0.065652	0.462688	0.124221
	C175	C	0.024062	0.462467	0.008681
	C176	C	0.063015	0.462714	0.123230
	C177	C	0.065636	0.543431	0.124221
	C178	C	0.063008	0.543543	0.123218
	C179	C	0.024067	0.543239	0.008674
	C180	C	0.080889	0.252309	0.110014
	C181	C	0.091764	0.190968	0.096963
	C182	C	0.091898	0.313607	0.096979
	C183	C	0.088475	0.252255	0.101158
	C184	C	0.023813	0.043340	0.007734
	C185	C	0.048342	0.253066	0.020405
	C186	C	0.006895	0.252122	0.022198
	C187	C	0.038124	0.253379	0.112010
	C188	C	0.080880	0.191777	0.038429
	C189	C	0.080801	0.314138	0.038495
	C190	C	0.062020	0.253035	0.027903
	C191	C	0.000942	0.252153	0.031504
	C192	C	0.024400	0.753100	0.104522
	C193	C	0.018043	0.814498	0.100968
	C194	C	0.018064	0.691844	0.100933
	C195	C	0.024411	0.253329	0.104509
	C196	C	0.018086	0.314711	0.100951
	C197	C	0.018050	0.192109	0.100915
	C198	C	-0.001584	0.190290	0.035968
	C199	C	0.068378	0.191935	0.031445
	C200	C	0.068290	0.314202	0.031514
	C201	C	-0.001680	0.314229	0.035898
	C202	C	0.087182	0.252869	0.042025
	C203	C	0.063127	0.043322	0.122972
	C204	C	0.022976	0.043245	0.008348
	C205	C	0.023748	0.962232	0.007713
	C206	C	0.063176	0.962520	0.122963
	C207	C	0.022961	0.962415	0.008334
	N208	N	-0.039764	0.070243	0.070338
	N209	N	-0.039747	0.935727	0.070292
	N210	N	-0.039787	0.435797	0.070277
	N211	N	-0.039739	0.570322	0.070300
	N212	N	0.063853	0.435717	0.124088
	N213	N	0.063807	0.570242	0.124084
	N214	N	0.063867	0.070202	0.124068
	N215	N	0.063884	0.935766	0.124073
	O216	O	0.147244	0.694720	0.168280
	O217	O	0.147201	0.811128	0.168325
	O218	O	0.021512	0.695218	0.195759
	O219	O	0.021409	0.811332	0.195806
	O220	O	0.021503	0.195341	0.195726
	O221	O	0.021446	0.311550	0.195758
	O222	O	0.015073	0.695308	0.175847
	O223	O	0.015081	0.811373	0.175811
	O224	O	0.014995	0.194936	0.175816
	O225	O	0.014989	0.310970	0.175769
	O226	O	0.148741	0.694619	0.187269
	O227	O	0.148676	0.811327	0.187239
	O228	O	0.148595	0.194619	0.187278
	O229	O	0.148724	0.311452	0.187270
	O230	O	0.147122	0.195189	0.168295
	O231	O	0.147184	0.311449	0.168241
	O232	O	0.084223	0.695158	0.133270
	O233	O	0.049865	0.694484	0.134796
	O234	O	0.118222	0.695290	0.229696
	O235	O	0.118242	0.811768	0.229706
	O236	O	0.084579	0.694882	0.230741
	O237	O	0.084525	0.811164	0.230788
	O238	O	0.049898	0.810664	0.134766
	O239	O	0.084145	0.811336	0.133349
	O240	O	0.084093	0.194842	0.133364
	O241	O	0.049855	0.195336	0.134724
	O242	O	0.118384	0.194266	0.229731
	O243	O	0.118338	0.310710	0.229751
	O244	O	0.084429	0.195599	0.230797
	O245	O	0.084629	0.311689	0.230707
	O246	O	0.049895	0.311031	0.134786
	O247	O	0.084168	0.310754	0.133267
	H248	H	0.041936	0.645284	0.206841
	H249	H	0.041702	0.861499	0.206983
	H250	H	0.041641	0.145436	0.207003
	H251	H	0.041796	0.361837	0.206877
	H252	H	0.026249	0.861425	0.162716
	H253	H	0.026381	0.644551	0.162770
	H254	H	0.026485	0.360118	0.162804
	H255	H	0.025972	0.145547	0.162620
	H256	H	0.166339	0.064647	0.179833
	H257	H	0.169336	0.064955	0.179538
	H258	H	0.169402	0.940917	0.179561
	H259	H	0.166409	0.940959	0.179843
	H260	H	0.163354	0.064315	0.178178
	H261	H	0.163367	0.941152	0.178199
	H262	H	0.001768	0.065140	0.189732
	H263	H	0.001772	0.941426	0.189712
	H264	H	0.006113	0.065062	0.188623
	H265	H	0.006112	0.941499	0.188603
	H266	H	0.006252	0.065014	0.184995
	H267	H	0.006196	0.941702	0.185042
	H268	H	-0.001160	0.441475	0.184868
	H269	H	-0.002567	0.441537	0.186358
	H270	H	0.003150	0.441470	0.184906
	H271	H	0.155863	0.441275	0.181393
	H272	H	0.156369	0.441709	0.173306
	H273	H	0.166255	0.441646	0.170831
	H274	H	-0.002587	0.564752	0.186340
	H275	H	-0.001220	0.564931	0.184919
	H276	H	0.166253	0.565048	0.170886
	H277	H	0.156395	0.564920	0.173297
	H278	H	0.155916	0.564585	0.181403
	H279	H	0.003133	0.564895	0.184872
	H280	H	0.137076	0.643685	0.200420
	H281	H	0.137021	0.862641	0.200360
	H282	H	0.136918	0.143496	0.200351
	H283	H	0.136928	0.362755	0.200407
	H284	H	0.038586	0.644348	0.147832
	H285	H	0.104527	0.644437	0.144407
	H286	H	0.104257	0.861892	0.144584
	H287	H	0.038386	0.861164	0.147785
	H288	H	0.126986	0.644506	0.157059
	H289	H	0.126683	0.861947	0.157233
	H290	H	0.127129	0.644011	0.215866
	H291	H	0.127119	0.862775	0.215826
	H292	H	0.066150	0.440992	0.124846
	H293	H	0.103743	0.441912	0.240496
	H294	H	0.063485	0.440775	0.125479
	H295	H	0.061589	0.440812	0.124800
	H296	H	0.104904	0.441349	0.240697
	H297	H	0.104356	0.441706	0.240756
	H298	H	0.103755	0.565211	0.240483
	H299	H	0.066229	0.564391	0.124873
	H300	H	0.104371	0.564678	0.240710
	H301	H	0.104880	0.564184	0.240674
	H302	H	0.061452	0.564489	0.124757
	H303	H	0.063403	0.564092	0.125525
	H304	H	0.126956	0.143407	0.215825
	H305	H	0.126926	0.362455	0.215878
	H306	H	0.066479	0.065088	0.125172
	H307	H	0.066928	0.064815	0.123784
	H308	H	0.062940	0.065040	0.125703
	H309	H	0.064185	0.861367	0.219615
	H310	H	0.064471	0.645152	0.219456
	H311	H	0.064290	0.361713	0.219508
	H312	H	0.064104	0.145758	0.219636
	H313	H	0.038248	0.145512	0.147726
	H314	H	0.104257	0.145186	0.144620
	H315	H	0.104561	0.360613	0.144385
	H316	H	0.038810	0.360460	0.147915
	H317	H	0.126806	0.145349	0.157211
	H318	H	0.127099	0.360742	0.156997
	H319	H	0.098509	0.064463	0.241615
	H320	H	0.102681	0.064523	0.243626
	H321	H	0.109696	0.064782	0.242552
	H322	H	0.067040	0.941249	0.123837
	H323	H	0.066546	0.941670	0.125225
	H324	H	0.062902	0.941390	0.125707
	H325	H	0.098485	0.941091	0.241642
	H326	H	0.102709	0.941514	0.243682
	H327	H	0.109727	0.941497	0.242559
	Zn328	Zn	0.001169	0.680430	0.186566
	Zn329	Zn	0.001248	0.825810	0.186566
	Zn330	Zn	0.001157	0.180509	0.186542
	Zn331	Zn	0.001192	0.325941	0.186497
	Zn332	Zn	0.104353	0.680430	0.240396
	Zn333	Zn	0.104347	0.825414	0.240433
	Zn334	Zn	0.104282	0.180614	0.240405
	Zn335	Zn	0.104429	0.325495	0.240434
	C336	C	0.141885	0.752982	0.165432
	C337	C	0.026827	0.753290	0.198627
	C338	C	0.040537	0.753344	0.206133
	C339	C	0.046944	0.692139	0.209666
	C340	C	0.046791	0.814516	0.209756
	C341	C	0.026817	0.253446	0.198606
	C342	C	0.040409	0.253513	0.206168
	C343	C	0.046665	0.192390	0.209799
	C344	C	0.046744	0.314820	0.209723
	C345	C	0.018056	0.753242	0.172441
	C346	C	0.025624	0.753041	0.163585
	C347	C	0.028964	0.814388	0.159388
	C348	C	0.029068	0.691446	0.159429
	C349	C	0.018036	0.252893	0.172431
	C350	C	0.025635	0.252833	0.163581
	C351	C	0.029135	0.313770	0.159452
	C352	C	0.028833	0.191995	0.159345
	C353	C	0.167675	0.043319	0.179248
	C354	C	0.167700	0.962299	0.179254
	C355	C	0.003256	0.043683	0.188496
	C356	C	0.003257	0.962720	0.188485
	C357	C	0.003339	0.043642	0.184864
	C358	C	0.003348	0.962893	0.184878
	C359	C	-0.001056	0.462721	0.185852
	C360	C	0.162379	0.462529	0.181770
	C361	C	0.162885	0.462681	0.173630
	C362	C	-0.001092	0.543588	0.185859
	C363	C	0.162894	0.543571	0.173639
	C364	C	0.162378	0.543378	0.181772
	C365	C	0.145213	0.752985	0.190531
	C366	C	0.145231	0.253123	0.190573
	C367	C	0.137546	0.753154	0.199435
	C368	C	0.134690	0.691288	0.203810
	C369	C	0.134680	0.815159	0.203786
	C370	C	0.137578	0.253118	0.199489
	C371	C	0.134578	0.191022	0.203794
	C372	C	0.134585	0.315123	0.203825
	C373	C	0.141835	0.253227	0.165407
	C374	C	0.089521	0.753197	0.136169
	C375	C	0.046792	0.752637	0.138136
	C376	C	0.079241	0.753015	0.227884
	C377	C	0.121978	0.691683	0.154256
	C378	C	0.121829	0.814705	0.154350
	C379	C	0.103199	0.753209	0.143680
	C380	C	0.039112	0.752714	0.146954
	C381	C	0.035817	0.691302	0.151162
	C382	C	0.109545	0.691672	0.147230
	C383	C	0.109396	0.814700	0.147334
	C384	C	0.035725	0.814277	0.151128
	C385	C	0.128289	0.753140	0.157855
	C386	C	0.120645	0.753552	0.226109
	C387	C	0.129210	0.691537	0.212397
	C388	C	0.129211	0.815202	0.212379
	C389	C	0.126568	0.753457	0.216805
	C390	C	0.104004	0.462928	0.240341
	C391	C	0.062897	0.462304	0.124877
	C392	C	0.104621	0.462729	0.240646
	C393	C	0.104006	0.543620	0.240320
	C394	C	0.104604	0.543341	0.240619
	C395	C	0.062829	0.543191	0.124873
	C396	C	0.120748	0.252563	0.226148
	C397	C	0.129129	0.190938	0.212387
	C398	C	0.129120	0.314855	0.212417
	C399	C	0.126617	0.252784	0.216838
	C400	C	0.066011	0.043556	0.124386
	C401	C	0.089446	0.252880	0.136196
	C402	C	0.046830	0.253101	0.138130
	C403	C	0.079182	0.253678	0.227888
	C404	C	0.121760	0.192068	0.154393
	C405	C	0.121955	0.313973	0.154248
	C406	C	0.103072	0.252952	0.143745
	C407	C	0.039143	0.253004	0.146954
	C408	C	0.065640	0.753095	0.220313
	C409	C	0.059236	0.814386	0.216778
	C410	C	0.059379	0.691993	0.216692
	C411	C	0.065481	0.253665	0.220359
	C412	C	0.059217	0.314823	0.216732
	C413	C	0.059132	0.192531	0.216810
	C414	C	0.035582	0.192061	0.151079
	C415	C	0.109305	0.191958	0.147382
	C416	C	0.109479	0.314027	0.147238
	C417	C	0.035873	0.313827	0.151184
	C418	C	0.128178	0.253099	0.157885
	C419	C	0.101608	0.043395	0.242033
	C420	C	0.062435	0.043561	0.124888
	C421	C	0.066013	0.962781	0.124399
	C422	C	0.101620	0.962547	0.242070
	C423	C	0.062426	0.962581	0.124891
	N424	N	0.001304	0.070412	0.186590
	N425	N	0.001339	0.935878	0.186590
	N426	N	0.001201	0.435980	0.186530
	N427	N	0.001205	0.570438	0.186550
	N428	N	0.104513	0.435618	0.240417
	N429	N	0.104478	0.570239	0.240391
	N430	N	0.104381	0.070522	0.240411
	N431	N	0.104395	0.935898	0.240449
	O432	O	0.112453	0.694489	0.298396
	O433	O	0.112368	0.811226	0.298396
	O434	O	0.056521	0.693989	0.314763
	O435	O	0.056540	0.810687	0.314768
	O436	O	0.056469	0.194749	0.314760
	O437	O	0.056503	0.311640	0.314764
	O438	O	0.055673	0.694875	0.292177
	O439	O	0.055656	0.811247	0.292168
	O440	O	0.055710	0.195193	0.292160
	O441	O	0.055541	0.311652	0.292135
	O442	O	0.112930	0.695070	0.320962
	O443	O	0.112859	0.811489	0.320913
	O444	O	0.112838	0.194267	0.320979
	O445	O	0.112769	0.310803	0.320953
	O446	O	0.112396	0.194601	0.298375
	O447	O	0.112460	0.311366	0.298366
	O448	O	0.119071	0.694573	0.252220
	O449	O	0.086099	0.694627	0.249701
	O450	O	0.082666	0.695083	0.363460
	O451	O	0.082631	0.811889	0.363477
	O452	O	0.049675	0.694070	0.360964
	O453	O	0.049768	0.810939	0.360896
	O454	O	0.085969	0.811152	0.249718
	O455	O	0.118993	0.811374	0.252240
	O456	O	0.118931	0.194289	0.252232
	O457	O	0.086002	0.195177	0.249654
	O458	O	0.082558	0.194293	0.363492
	O459	O	0.082725	0.311047	0.363521
	O460	O	0.049689	0.195086	0.360899
	O461	O	0.049708	0.311888	0.360941
	O462	O	0.086069	0.311836	0.249697
	O463	O	0.119170	0.311012	0.252226
	H464	H	0.055233	0.642471	0.329680
	H465	H	0.055185	0.862243	0.329613
	H466	H	0.055093	0.143651	0.329634
	H467	H	0.055228	0.363404	0.329621
	H468	H	0.064274	0.862135	0.278277
	H469	H	0.064010	0.643378	0.278232
	H470	H	0.064035	0.362968	0.278199
	H471	H	0.064711	0.143973	0.278342
	H472	H	0.127426	0.064626	0.310515
	H473	H	0.127594	0.064730	0.310171
	H474	H	0.127588	0.941300	0.310245
	H475	H	0.127337	0.941504	0.310528
	H476	H	0.126505	0.064856	0.310536
	H477	H	0.126507	0.941055	0.310556
	H478	H	0.047544	0.064796	0.301859
	H479	H	0.047609	0.941189	0.301870
	H480	H	0.043756	0.064882	0.299988
	H481	H	0.043856	0.941793	0.299978
	H482	H	0.037247	0.064768	0.300883
	H483	H	0.037222	0.941036	0.300842
	H484	H	0.048909	0.441096	0.306575
	H485	H	0.051299	0.441119	0.302632
	H486	H	0.038206	0.441673	0.307464
	H487	H	0.132188	0.441194	0.315625
	H488	H	0.119371	0.440914	0.314346
	H489	H	0.115541	0.441267	0.309693
	H490	H	0.051427	0.565034	0.302630
	H491	H	0.049044	0.564867	0.306591
	H492	H	0.115573	0.564749	0.309740
	H493	H	0.119398	0.564644	0.314398
	H494	H	0.132213	0.565130	0.315633
	H495	H	0.038136	0.564654	0.307455
	H496	H	0.104461	0.643967	0.334923
	H497	H	0.104235	0.862770	0.334818
	H498	H	0.104107	0.143073	0.334862
	H499	H	0.104543	0.362174	0.334961
	H500	H	0.074003	0.643292	0.262766
	H501	H	0.117681	0.642742	0.267138
	H502	H	0.117643	0.862491	0.267100
	H503	H	0.074240	0.862166	0.262832
	H504	H	0.113629	0.642614	0.283522
	H505	H	0.113565	0.862543	0.283478
	H506	H	0.094508	0.644055	0.350400
	H507	H	0.094320	0.863082	0.350330
	H508	H	0.103858	0.441596	0.240149
	H509	H	0.070709	0.440954	0.371653
	H510	H	0.104642	0.440737	0.240081
	H511	H	0.105085	0.440872	0.240277
	H512	H	0.058805	0.441372	0.370284
	H513	H	0.063922	0.441290	0.369096
	H514	H	0.070724	0.564879	0.371663
	H515	H	0.103840	0.564876	0.240143
	H516	H	0.063946	0.564780	0.369093
	H517	H	0.058713	0.564954	0.370294
	H518	H	0.104962	0.564702	0.240252
	H519	H	0.104632	0.564649	0.240085
	H520	H	0.094159	0.143039	0.350339
	H521	H	0.094650	0.362130	0.350428
	H522	H	0.104890	0.064963	0.237011
	H523	H	0.099780	0.064555	0.237818
	H524	H	0.110612	0.064901	0.239776
	H525	H	0.051063	0.862422	0.345989
	H526	H	0.051076	0.642410	0.346042
	H527	H	0.051168	0.363661	0.345998
	H528	H	0.050995	0.143811	0.346018
	H529	H	0.074753	0.143907	0.262906
	H530	H	0.117637	0.142979	0.267117
	H531	H	0.117678	0.362709	0.267068
	H532	H	0.074067	0.363153	0.262770
	H533	H	0.113510	0.143098	0.283499
	H534	H	0.113576	0.362901	0.283444
	H535	H	0.065713	0.064900	0.371026
	H536	H	0.062603	0.065132	0.370937
	H537	H	0.060518	0.064636	0.372826
	H538	H	0.099781	0.941145	0.237848
	H539	H	0.104890	0.941200	0.237044
	H540	H	0.110635	0.941473	0.239778
	H541	H	0.065736	0.942091	0.371011
	H542	H	0.062592	0.941723	0.370920
	H543	H	0.060521	0.941147	0.372864
	Zn544	Zn	0.041850	0.680577	0.302907
	Zn545	Zn	0.041940	0.825350	0.302982
	Zn546	Zn	0.041895	0.180751	0.302911
	Zn547	Zn	0.041904	0.325553	0.302971
	Zn548	Zn	0.064311	0.680456	0.372784
	Zn549	Zn	0.064306	0.825539	0.372759
	Zn550	Zn	0.064209	0.180569	0.372747
	Zn551	Zn	0.064292	0.325652	0.372741
	C552	C	0.112225	0.752850	0.294488
	C553	C	0.056725	0.752315	0.318696
	C554	C	0.055682	0.752323	0.328687
	C555	C	0.054398	0.690202	0.333330
	C556	C	0.054368	0.814530	0.333285
	C557	C	0.056632	0.253162	0.318669
	C558	C	0.055589	0.253388	0.328660
	C559	C	0.054286	0.191332	0.333286
	C560	C	0.054361	0.315711	0.333283
	C561	C	0.057962	0.753015	0.288552
	C562	C	0.063807	0.752835	0.279239
	C563	C	0.066429	0.814660	0.274832
	C564	C	0.066288	0.690957	0.274801
	C565	C	0.058036	0.253445	0.288552
	C566	C	0.063976	0.253341	0.279255
	C567	C	0.066392	0.315385	0.274795
	C568	C	0.066743	0.191537	0.274863
	C569	C	0.127276	0.043284	0.310319
	C570	C	0.127284	0.962618	0.310335
	C571	C	0.044796	0.043593	0.301466
	C572	C	0.044808	0.962772	0.301456
	C573	C	0.038168	0.043399	0.302364
	C574	C	0.038144	0.962540	0.302361
	C575	C	0.048016	0.462594	0.304166
	C576	C	0.132756	0.462624	0.312824
	C577	C	0.119854	0.462675	0.311564
	C578	C	0.048053	0.543726	0.304161
	C579	C	0.119874	0.543432	0.311578
	C580	C	0.132779	0.543455	0.312804
	C581	C	0.110519	0.753325	0.324546
	C582	C	0.110430	0.252568	0.324565
	C583	C	0.104653	0.753352	0.333879
	C584	C	0.102192	0.691557	0.338341
	C585	C	0.102075	0.815334	0.338293
	C586	C	0.104611	0.252558	0.333902
	C587	C	0.101973	0.190624	0.338317
	C588	C	0.102267	0.314524	0.338369
	C589	C	0.112253	0.253011	0.294463
	C590	C	0.119140	0.752886	0.256144
	C591	C	0.082511	0.752771	0.252992
	C592	C	0.049560	0.752393	0.357020
	C593	C	0.114490	0.690420	0.279872
	C594	C	0.114438	0.814735	0.279850
	C595	C	0.118107	0.752616	0.266142
	C596	C	0.074775	0.752655	0.261875
	C597	C	0.071768	0.690800	0.266208
	C598	C	0.116849	0.690428	0.270783
	C599	C	0.116809	0.814736	0.270759
	C600	C	0.071903	0.814578	0.266243
	C601	C	0.113205	0.752626	0.284494
	C602	C	0.086110	0.753521	0.360181
	C603	C	0.096712	0.691567	0.346937
	C604	C	0.096606	0.815473	0.346894
	C605	C	0.093707	0.753517	0.351257
	C606	C	0.068885	0.462477	0.373083
	C607	C	0.104789	0.462124	0.240237
	C608	C	0.062099	0.462633	0.370505
	C609	C	0.068901	0.543475	0.373089
	C610	C	0.062086	0.543460	0.370508
	C611	C	0.104763	0.543238	0.240224
	C612	C	0.086086	0.252625	0.360203
	C613	C	0.096565	0.190525	0.346924
	C614	C	0.096852	0.314610	0.346977
	C615	C	0.093740	0.252531	0.351290
	C616	C	0.102913	0.043479	0.238200
	C617	C	0.119212	0.252709	0.256140
	C618	C	0.082557	0.253476	0.252967
	C619	C	0.049557	0.253564	0.357006
	C620	C	0.114420	0.190894	0.279846
	C621	C	0.114464	0.315103	0.279816
	C622	C	0.118102	0.252905	0.266114
	C623	C	0.074981	0.253413	0.261897
	C624	C	0.050682	0.752469	0.347036
	C625	C	0.051948	0.814519	0.342366
	C626	C	0.051959	0.690332	0.342410
	C627	C	0.050653	0.253678	0.347014
	C628	C	0.051989	0.315803	0.342371
	C629	C	0.051900	0.191580	0.342370
	C630	C	0.072237	0.191525	0.266278
	C631	C	0.116773	0.190795	0.270758
	C632	C	0.116823	0.315071	0.270732
	C633	C	0.071889	0.315463	0.266213
	C634	C	0.113188	0.253043	0.284462
	C635	C	0.064130	0.043494	0.371426
	C636	C	0.108648	0.043540	0.240980
	C637	C	0.102907	0.962505	0.238228
	C638	C	0.064154	0.962789	0.371424
	C639	C	0.108676	0.962766	0.240971
	N640	N	0.042085	0.070478	0.302957
	N641	N	0.042106	0.935819	0.302961
	N642	N	0.041924	0.435745	0.302942
	N643	N	0.041926	0.570302	0.302921
	N644	N	0.064233	0.435747	0.372765
	N645	N	0.064209	0.570315	0.372773
	N646	N	0.064179	0.070100	0.372743
	N647	N	0.064222	0.935539	0.372764
	O648	O	0.143600	0.694888	0.419160
	O649	O	0.143397	0.811245	0.419292
	O650	O	0.021689	0.695058	0.445168
	O651	O	0.021604	0.811402	0.445196
	O652	O	0.021643	0.195380	0.445190
	O653	O	0.021642	0.311529	0.445206
	O654	O	0.020451	0.695047	0.426122
	O655	O	0.020486	0.811773	0.426076
	O656	O	0.020453	0.194656	0.426058
	O657	O	0.020444	0.311532	0.426090
	O658	O	0.144412	0.694653	0.438235
	O659	O	0.144586	0.811542	0.438307
	O660	O	0.144588	0.195180	0.438300
	O661	O	0.144524	0.311837	0.438284
	O662	O	0.143487	0.195374	0.419287
	O663	O	0.143684	0.311598	0.419179
	O664	O	0.083817	0.695313	0.382599
	O665	O	0.050410	0.694731	0.383534
	O666	O	0.114752	0.694469	0.480873
	O667	O	0.114811	0.811053	0.480926
	O668	O	0.081233	0.695260	0.481825
	O669	O	0.081433	0.811661	0.481781
	O670	O	0.050218	0.811149	0.383431
	O671	O	0.083835	0.811733	0.382623
	O672	O	0.083651	0.194783	0.382705
	O673	O	0.050381	0.195527	0.383479
	O674	O	0.114953	0.195287	0.480957
	O675	O	0.114769	0.311658	0.480934
	O676	O	0.081377	0.194779	0.481782
	O677	O	0.081269	0.311090	0.481787
	O678	O	0.050457	0.311960	0.383517
	O679	O	0.083991	0.311262	0.382551
	H680	H	0.040879	0.644553	0.456925
	H681	H	0.040864	0.861940	0.456869
	H682	H	0.040950	0.144817	0.456825
	H683	H	0.040945	0.361682	0.456888
	H684	H	0.032174	0.862899	0.412934
	H685	H	0.032177	0.643924	0.412983
	H686	H	0.032483	0.362989	0.413046
	H687	H	0.031661	0.143548	0.412791
	H688	H	0.159515	0.064362	0.427766
	H689	H	0.159094	0.064137	0.429700
	H690	H	0.159063	0.941069	0.429664
	H691	H	0.159472	0.941670	0.427754
	H692	H	0.164055	0.065154	0.426958
	H693	H	0.164145	0.941440	0.426947
	H694	H	0.003582	0.064997	0.438142
	H695	H	0.003647	0.941570	0.438169
	H696	H	0.006995	0.064899	0.436677
	H697	H	0.006944	0.941487	0.436666
	H698	H	0.005786	0.064878	0.433497
	H699	H	0.005702	0.940887	0.433496
	H700	H	-0.005983	0.441070	0.433224
	H701	H	-0.005683	0.441025	0.437090
	H702	H	0.002517	0.441258	0.430777
	H703	H	0.168774	0.441272	0.428339
	H704	H	0.166919	0.441389	0.431689
	H705	H	0.162134	0.441769	0.432107
	H706	H	-0.005699	0.564830	0.437050
	H707	H	-0.005892	0.564392	0.433202
	H708	H	0.162063	0.564974	0.432054
	H709	H	0.166894	0.564985	0.431669
	H710	H	0.168782	0.565094	0.428312
	H711	H	0.002566	0.564771	0.430790
	H712	H	0.132565	0.643297	0.451339
	H713	H	0.133362	0.862658	0.451523
	H714	H	0.133235	0.143969	0.451567
	H715	H	0.132662	0.362843	0.451431
	H716	H	0.041897	0.643644	0.397463
	H717	H	0.103499	0.644765	0.394132
	H718	H	0.102982	0.861845	0.394328
	H719	H	0.041846	0.862834	0.397397
	H720	H	0.124650	0.644850	0.407396
	H721	H	0.124122	0.861905	0.407591
	H722	H	0.122748	0.643429	0.466846
	H723	H	0.123580	0.862647	0.467029
	H724	H	0.070429	0.441474	0.374800
	H725	H	0.107731	0.441473	0.493068
	H726	H	0.063343	0.441468	0.376329
	H727	H	0.058457	0.441084	0.374518
	H728	H	0.099366	0.441583	0.487817
	H729	H	0.105327	0.441335	0.488752
	H730	H	0.107747	0.565310	0.493054
	H731	H	0.070464	0.564387	0.374739
	H732	H	0.105349	0.564971	0.488749
	H733	H	0.099372	0.564803	0.487846
	H734	H	0.058428	0.564909	0.374537
	H735	H	0.063290	0.564160	0.376378
	H736	H	0.123601	0.144089	0.467091
	H737	H	0.123002	0.362943	0.466944
	H738	H	0.066495	0.064671	0.374422
	H739	H	0.067970	0.064459	0.372985
	H740	H	0.062160	0.064486	0.374280
	H741	H	0.062073	0.862377	0.470104
	H742	H	0.062008	0.644528	0.470137
	H743	H	0.062074	0.361021	0.470146
	H744	H	0.062130	0.144417	0.470069
	H745	H	0.041487	0.143759	0.397326
	H746	H	0.102901	0.144227	0.394427
	H747	H	0.103255	0.361878	0.394216
	H748	H	0.042314	0.363063	0.397560
	H749	H	0.124042	0.144277	0.407672
	H750	H	0.124400	0.362173	0.407474
	H751	H	0.096833	0.065386	0.490710
	H752	H	0.097182	0.064881	0.492696
	H753	H	0.101838	0.064831	0.493995
	H754	H	0.068058	0.941193	0.372999
	H755	H	0.066518	0.940918	0.374471
	H756	H	0.062189	0.941238	0.374339
	H757	H	0.096934	0.942030	0.490707
	H758	H	0.097158	0.941327	0.492684
	H759	H	0.101883	0.941675	0.494014
	Zn760	Zn	0.002041	0.680433	0.435325
	Zn761	Zn	0.002024	0.825883	0.435331
	Zn762	Zn	0.002149	0.180498	0.435358
	Zn763	Zn	0.002079	0.325720	0.435329
	Zn764	Zn	0.100834	0.680648	0.491652
	Zn765	Zn	0.101040	0.825999	0.491684
	Zn766	Zn	0.100904	0.180773	0.491659
	Zn767	Zn	0.100760	0.325950	0.491619
	C768	C	0.138423	0.753169	0.416236
	C769	C	0.026796	0.753250	0.448145
	C770	C	0.039721	0.753327	0.456036
	C771	C	0.045638	0.691885	0.459829
	C772	C	0.045639	0.814849	0.459801
	C773	C	0.026723	0.253414	0.448189
	C774	C	0.039640	0.253170	0.456077
	C775	C	0.045644	0.191769	0.459792
	C776	C	0.045624	0.314388	0.459830
	C777	C	0.023931	0.753359	0.422804
	C778	C	0.031539	0.753397	0.413869
	C779	C	0.034468	0.815288	0.409490
	C780	C	0.034466	0.691424	0.409531
	C781	C	0.023894	0.253152	0.422784
	C782	C	0.031461	0.253250	0.413847
	C783	C	0.034581	0.315375	0.409558
	C784	C	0.034121	0.191263	0.409421
	C785	C	0.160373	0.043201	0.428835
	C786	C	0.160364	0.962706	0.428811
	C787	C	0.004416	0.043537	0.436877
	C788	C	0.004399	0.962762	0.436862
	C789	C	0.003212	0.043509	0.433633
	C790	C	0.003170	0.962563	0.433628
	C791	C	-0.003821	0.462552	0.435192
	C792	C	0.166127	0.462550	0.427795
	C793	C	0.164216	0.462726	0.431156
	C794	C	-0.003802	0.543458	0.435181
	C795	C	0.164202	0.543546	0.431139
	C796	C	0.166104	0.543592	0.427777
	C797	C	0.141067	0.753053	0.441559
	C798	C	0.141085	0.253474	0.441587
	C799	C	0.133573	0.752969	0.450522
	C800	C	0.130483	0.690892	0.454826
	C801	C	0.130927	0.815039	0.454929
	C802	C	0.133588	0.253348	0.450555
	C803	C	0.130903	0.191547	0.454970
	C804	C	0.130615	0.315322	0.454900
	C805	C	0.138478	0.253438	0.416234
	C806	C	0.088946	0.753445	0.385587
	C807	C	0.047971	0.753063	0.387099
	C808	C	0.076253	0.753534	0.478805
	C809	C	0.119784	0.691906	0.404495
	C810	C	0.119501	0.814756	0.404604
	C811	C	0.101946	0.753259	0.393455
	C812	C	0.042245	0.753236	0.396445
	C813	C	0.039781	0.691323	0.400909
	C814	C	0.108086	0.691805	0.397127
	C815	C	0.107803	0.814729	0.397235
	C816	C	0.039767	0.815269	0.400862
	C817	C	0.125576	0.753328	0.408311
	C818	C	0.117090	0.752852	0.477283
	C819	C	0.125136	0.691000	0.463446
	C820	C	0.125581	0.815009	0.463544
	C821	C	0.122849	0.753009	0.467927
	C822	C	0.104464	0.462826	0.493486
	C823	C	0.061705	0.462582	0.374720
	C824	C	0.102014	0.462755	0.489163
	C825	C	0.104463	0.543893	0.493491
	C826	C	0.102008	0.543565	0.489165
	C827	C	0.061723	0.543268	0.374745
	C828	C	0.117170	0.253473	0.477327
	C829	C	0.125597	0.191585	0.463593
	C830	C	0.125313	0.315410	0.463527
	C831	C	0.122930	0.253472	0.467992
	C832	C	0.066398	0.043469	0.373449
	C833	C	0.088945	0.253026	0.385606
	C834	C	0.048059	0.253715	0.387109
	C835	C	0.076199	0.252794	0.478804
	C836	C	0.119439	0.191630	0.404666
	C837	C	0.119658	0.314801	0.404552
	C838	C	0.101884	0.253088	0.393484
	C839	C	0.042283	0.253532	0.396446
	C840	C	0.063367	0.753539	0.470902
	C841	C	0.057366	0.815031	0.467161
	C842	C	0.057350	0.691858	0.467187
	C843	C	0.063314	0.252710	0.470917
	C844	C	0.057356	0.314125	0.467185
	C845	C	0.057397	0.191523	0.467132
	C846	C	0.039512	0.191408	0.400819
	C847	C	0.107731	0.191508	0.397302
	C848	C	0.107943	0.314705	0.397188
	C849	C	0.039984	0.315444	0.400950
	C850	C	0.125574	0.253278	0.408348
	C851	C	0.098097	0.043855	0.491701
	C852	C	0.062058	0.043275	0.373356
	C853	C	0.066466	0.962370	0.373467
	C854	C	0.098130	0.962926	0.491698
	C855	C	0.062074	0.962502	0.373381
	N856	N	0.002060	0.070375	0.435381
	N857	N	0.002030	0.935855	0.435384
	N858	N	0.002005	0.435651	0.435340
	N859	N	0.001985	0.570171	0.435311
	N860	N	0.100943	0.436040	0.491642
	N861	N	0.100946	0.570563	0.491640
	N862	N	0.101062	0.070640	0.491666
	N863	N	0.101080	0.936057	0.491695
	O864	O	0.111377	0.694171	0.549945
	O865	O	0.111458	0.811024	0.549922
	O866	O	0.052494	0.694226	0.566060
	O867	O	0.052428	0.811192	0.566083
	O868	O	0.052554	0.195388	0.566048
	O869	O	0.052399	0.312314	0.566096
	O870	O	0.052333	0.695087	0.543430
	O871	O	0.052392	0.811481	0.543475
	O872	O	0.052289	0.194692	0.543385
	O873	O	0.052329	0.311267	0.543410
	O874	O	0.109384	0.694223	0.571231
	O875	O	0.108974	0.810901	0.571046
	O876	O	0.109095	0.195026	0.571155
	O877	O	0.109331	0.311792	0.571206
	O878	O	0.111217	0.195782	0.549959
	O879	O	0.111452	0.312772	0.549929
	O880	O	0.114902	0.694061	0.503609
	O881	O	0.082222	0.695013	0.500817
	O882	O	0.081746	0.695480	0.614570
	O883	O	0.081598	0.812090	0.614512
	O884	O	0.048780	0.694298	0.612432
	O885	O	0.048936	0.811017	0.612402
	O886	O	0.082317	0.811831	0.500851
	O887	O	0.115131	0.810779	0.503617
	O888	O	0.115086	0.195777	0.503613
	O889	O	0.082419	0.194494	0.500868
	O890	O	0.081559	0.194179	0.614511
	O891	O	0.081866	0.310786	0.614636
	O892	O	0.048728	0.195838	0.612412
	O893	O	0.048953	0.312619	0.612455
	O894	O	0.082358	0.311241	0.500864
	O895	O	0.115036	0.312573	0.503619
	H896	H	0.051527	0.643036	0.580950
	H897	H	0.051599	0.862682	0.580995
	H898	H	0.051450	0.143764	0.580951
	H899	H	0.051593	0.363776	0.580969
	H900	H	0.060714	0.862608	0.529472
	H901	H	0.060897	0.643789	0.529470
	H902	H	0.060937	0.362522	0.529505
	H903	H	0.060736	0.143145	0.529465
	H904	H	0.136527	0.064865	0.562913
	H905	H	0.134328	0.064946	0.558451
	H906	H	0.134324	0.941331	0.558407
	H907	H	0.136462	0.941679	0.562898
	H908	H	0.128154	0.064821	0.566958
	H909	H	0.128128	0.941716	0.566932
	H910	H	0.046195	0.064818	0.549591
	H911	H	0.046207	0.940765	0.549585
	H912	H	0.036436	0.064225	0.547836
	H913	H	0.036486	0.941986	0.547788
	H914	H	0.026635	0.065041	0.552538
	H915	H	0.026530	0.941771	0.552522
	H916	H	0.050935	0.441256	0.557205
	H917	H	0.050390	0.441166	0.551193
	H918	H	0.037812	0.441035	0.561183
	H919	H	0.127453	0.441771	0.557288
	H920	H	0.134695	0.441783	0.560773
	H921	H	0.133473	0.441639	0.564318
	H922	H	0.050447	0.564890	0.551219
	H923	H	0.051080	0.564548	0.557252
	H924	H	0.133487	0.564730	0.564356
	H925	H	0.134682	0.564813	0.560801
	H926	H	0.127488	0.565208	0.557329
	H927	H	0.037752	0.564879	0.561218
	H928	H	0.099962	0.643260	0.585065
	H929	H	0.099471	0.862967	0.584877
	H930	H	0.099632	0.143220	0.584903
	H931	H	0.099839	0.363284	0.585033
	H932	H	0.070626	0.643885	0.513950
	H933	H	0.113896	0.642164	0.518469
	H934	H	0.114281	0.862070	0.518544
	H935	H	0.070455	0.862686	0.513962
	H936	H	0.110778	0.642076	0.534964
	H937	H	0.111190	0.861879	0.535019
	H938	H	0.091454	0.643643	0.600800
	H939	H	0.090980	0.863351	0.600641
	H940	H	0.103645	0.441383	0.495239
	H941	H	0.066666	0.441450	0.627041
	H942	H	0.095491	0.441688	0.493979
	H943	H	0.093649	0.441489	0.490796
	H944	H	0.067791	0.441569	0.621740
	H945	H	0.070180	0.441283	0.624113
	H946	H	0.066657	0.564663	0.627050
	H947	H	0.103634	0.565057	0.495237
	H948	H	0.070217	0.565080	0.624095
	H949	H	0.067755	0.565001	0.621669
	H950	H	0.093730	0.564857	0.490800
	H951	H	0.095491	0.564412	0.493978
	H952	H	0.091213	0.142555	0.600653
	H953	H	0.091398	0.362935	0.600813
	H954	H	0.104419	0.065418	0.490257
	H955	H	0.100981	0.064940	0.489335
	H956	H	0.104840	0.065007	0.492994
	H957	H	0.048497	0.862584	0.597466
	H958	H	0.048531	0.642728	0.597453
	H959	H	0.048589	0.364038	0.597450
	H960	H	0.048526	0.143949	0.597437
	H961	H	0.070685	0.142999	0.514007
	H962	H	0.114042	0.144199	0.518478
	H963	H	0.113962	0.364156	0.518567
	H964	H	0.070839	0.362444	0.514015
	H965	H	0.110904	0.144066	0.534986
	H966	H	0.110828	0.363905	0.535029
	H967	H	0.070125	0.064711	0.621665
	H968	H	0.064064	0.064757	0.619901
	H969	H	0.056643	0.065214	0.622323
	H970	H	0.101082	0.941995	0.489352
	H971	H	0.104445	0.941531	0.490280
	H972	H	0.104919	0.941546	0.493017
	H973	H	0.070140	0.941828	0.621662
	H974	H	0.064108	0.941514	0.619914
	H975	H	0.056627	0.940935	0.622282
	Zn976	Zn	0.038313	0.680763	0.554173
	Zn977	Zn	0.038315	0.825807	0.554173
	Zn978	Zn	0.038422	0.180650	0.554173
	Zn979	Zn	0.038306	0.325602	0.554082
	Zn980	Zn	0.064272	0.680606	0.624080
	Zn981	Zn	0.064055	0.825794	0.624051
	Zn982	Zn	0.063965	0.180700	0.624073
	Zn983	Zn	0.064290	0.325811	0.624157
	C984	C	0.110689	0.752507	0.546027
	C985	C	0.052656	0.752691	0.569975
	C986	C	0.051989	0.752821	0.579997
	C987	C	0.050938	0.690709	0.584642
	C988	C	0.050924	0.814863	0.584664
	C989	C	0.052713	0.253771	0.569976
	C990	C	0.052066	0.253775	0.580003
	C991	C	0.050951	0.191575	0.584635
	C992	C	0.050997	0.316029	0.584654
	C993	C	0.054742	0.753351	0.539831
	C994	C	0.060511	0.753284	0.530470
	C995	C	0.062932	0.815096	0.526022
	C996	C	0.063046	0.691376	0.526021
	C997	C	0.054620	0.252993	0.539785
	C998	C	0.060502	0.252904	0.530472
	C999	C	0.063102	0.314924	0.526060
	C1000	C	0.063007	0.190865	0.526039
	C1001	C	0.133030	0.043823	0.560909
	C1002	C	0.133059	0.962849	0.560886
	C1003	C	0.040614	0.043492	0.550148
	C1004	C	0.040628	0.962800	0.550120
	C1005	C	0.030677	0.043849	0.554939
	C1006	C	0.030642	0.962740	0.554916
	C1007	C	0.047503	0.462789	0.554168
	C1008	C	0.124849	0.463019	0.558777
	C1009	C	0.132143	0.462936	0.562296
	C1010	C	0.047527	0.543464	0.554190
	C1011	C	0.132132	0.543691	0.562323
	C1012	C	0.124866	0.543970	0.558805
	C1013	C	0.106339	0.752731	0.574654
	C1014	C	0.106288	0.253428	0.574675
	C1015	C	0.100054	0.753185	0.583947
	C1016	C	0.097905	0.691262	0.588516
	C1017	C	0.097624	0.815263	0.588416
	C1018	C	0.099939	0.253332	0.583944
	C1019	C	0.097687	0.191004	0.588427
	C1020	C	0.097797	0.315385	0.588505
	C1021	C	0.110673	0.254207	0.546053
	C1022	C	0.115273	0.752376	0.507519
	C1023	C	0.078845	0.753416	0.504122
	C1024	C	0.048206	0.752591	0.608509
	C1025	C	0.111490	0.689865	0.531287
	C1026	C	0.111715	0.814277	0.531332
	C1027	C	0.114520	0.752174	0.517512
	C1028	C	0.071300	0.753383	0.513061
	C1029	C	0.068431	0.691360	0.517405
	C1030	C	0.113348	0.689961	0.522146
	C1031	C	0.113560	0.814286	0.522191
	C1032	C	0.068316	0.815219	0.517413
	C1033	C	0.110700	0.752104	0.535964
	C1034	C	0.084599	0.753745	0.611044
	C1035	C	0.093324	0.691514	0.597296
	C1036	C	0.093063	0.815465	0.597206
	C1037	C	0.090929	0.753635	0.601784
	C1038	C	0.064196	0.462823	0.626181
	C1039	C	0.096288	0.462871	0.492182
	C1040	C	0.067753	0.462550	0.623229
	C1041	C	0.064179	0.543394	0.626177
	C1042	C	0.067742	0.543737	0.623205
	C1043	C	0.096310	0.543530	0.492181
	C1044	C	0.084555	0.252585	0.611059
	C1045	C	0.093098	0.190782	0.597206
	C1046	C	0.093209	0.315101	0.597288
	C1047	C	0.090792	0.252848	0.601763
	C1048	C	0.102327	0.043915	0.490294
	C1049	C	0.115283	0.254158	0.507537
	C1050	C	0.078947	0.252832	0.504166
	C1051	C	0.048231	0.254307	0.608528
	C1052	C	0.111546	0.191772	0.531313
	C1053	C	0.111538	0.316195	0.531352
	C1054	C	0.114528	0.254121	0.517545
	C1055	C	0.071356	0.252810	0.513087
	C1056	C	0.048191	0.752613	0.598465
	C1057	C	0.049107	0.814808	0.593803
	C1058	C	0.049135	0.690505	0.593785
	C1059	C	0.048318	0.254110	0.598482
	C1060	C	0.049226	0.316216	0.593798
	C1061	C	0.049176	0.191786	0.593783
	C1062	C	0.068432	0.190749	0.517438
	C1063	C	0.113402	0.191884	0.522172
	C1064	C	0.113378	0.316286	0.522219
	C1065	C	0.068517	0.314818	0.517457
	C1066	C	0.110646	0.253923	0.535998
	C1067	C	0.066288	0.043504	0.621653
	C1068	C	0.102787	0.043731	0.493016
	C1069	C	0.102348	0.963027	0.490301
	C1070	C	0.066305	0.963018	0.621650
	C1071	C	0.102799	0.962946	0.493024
	N1072	N	0.038430	0.070436	0.554187
	N1073	N	0.038432	0.935841	0.554152
	N1074	N	0.038441	0.435880	0.554077
	N1075	N	0.038438	0.570473	0.554108
	N1076	N	0.064253	0.435798	0.624094
	N1077	N	0.064233	0.570307	0.624070
	N1078	N	0.063982	0.070438	0.624080
	N1079	N	0.064012	0.935922	0.624073
	O1080	O	0.075653	0.694197	0.682011
	O1081	O	0.075482	0.811206	0.682030
	O1082	O	0.016690	0.694767	0.698207
	O1083	O	0.016821	0.811455	0.698173
	O1084	O	0.016722	0.194439	0.698126
	O1085	O	0.016768	0.311283	0.698183
	O1086	O	0.019018	0.695592	0.676967
	O1087	O	0.018683	0.812180	0.676906
	O1088	O	0.018695	0.193827	0.676885
	O1089	O	0.019124	0.310427	0.677017
	O1090	O	0.075692	0.694477	0.704742
	O1091	O	0.075570	0.810833	0.704737
	O1092	O	0.075705	0.195027	0.704715
	O1093	O	0.075521	0.311488	0.704666
	O1094	O	0.075586	0.194693	0.682127
	O1095	O	0.075671	0.311529	0.682082
	O1096	O	0.079605	0.695391	0.635682
	O1097	O	0.046909	0.694522	0.633683
	O1098	O	0.045423	0.694104	0.747246
	O1099	O	0.045677	0.810995	0.747310
	O1100	O	0.012762	0.694556	0.744563
	O1101	O	0.012957	0.811329	0.744496
	O1102	O	0.046432	0.811116	0.633502
	O1103	O	0.079208	0.811954	0.635702
	O1104	O	0.079171	0.193750	0.635756
	O1105	O	0.046490	0.195189	0.633569
	O1106	O	0.045512	0.194705	0.747246
	O1107	O	0.045528	0.311508	0.747245
	O1108	O	0.012939	0.194016	0.744458
	O1109	O	0.012714	0.311103	0.744512
	O1110	O	0.046784	0.311836	0.633691
	O1111	O	0.079514	0.310536	0.635772
	H1112	H	0.016923	0.643426	0.713156
	H1113	H	0.017251	0.862960	0.713143
	H1114	H	0.017276	0.142380	0.713079
	H1115	H	0.016958	0.362505	0.713107
	H1116	H	0.028147	0.863857	0.663029
	H1117	H	0.028978	0.644005	0.663281
	H1118	H	0.029184	0.362355	0.663336
	H1119	H	0.027898	0.142809	0.663003
	H1120	H	0.090763	0.064651	0.690486
	H1121	H	0.085071	0.064619	0.691077
	H1122	H	0.084925	0.941248	0.691068
	H1123	H	0.090614	0.941720	0.690467
	H1124	H	0.096490	0.065004	0.693670
	H1125	H	0.096387	0.941221	0.693572
	H1126	H	-0.003172	0.065118	0.684442
	H1127	H	-0.003144	0.941474	0.684482
	H1128	H	-0.004385	0.064647	0.686885
	H1129	H	-0.004472	0.941337	0.686947
	H1130	H	0.000370	0.064696	0.689566
	H1131	H	0.000352	0.941574	0.689612
	H1132	H	0.009419	0.441153	0.687317
	H1133	H	0.007444	0.441500	0.683959
	H1134	H	0.003472	0.441173	0.690633
	H1135	H	0.090356	0.441628	0.690562
	H1136	H	0.096142	0.441231	0.693407
	H1137	H	0.095135	0.441021	0.696357
	H1138	H	0.007431	0.564970	0.683938
	H1139	H	0.009535	0.564413	0.687324
	H1140	H	0.095166	0.564329	0.696323
	H1141	H	0.096192	0.564970	0.693426
	H1142	H	0.090356	0.564961	0.690567
	H1143	H	0.003399	0.564733	0.690588
	H1144	H	0.067174	0.643085	0.718651
	H1145	H	0.067093	0.862152	0.718666
	H1146	H	0.066799	0.143611	0.718563
	H1147	H	0.067253	0.362598	0.718655
	H1148	H	0.037398	0.643691	0.647508
	H1149	H	0.079975	0.643449	0.650643
	H1150	H	0.079509	0.863479	0.650679
	H1151	H	0.036609	0.863383	0.647257
	H1152	H	0.076892	0.643328	0.667134
	H1153	H	0.076436	0.862879	0.667142
	H1154	H	0.057248	0.642630	0.734134
	H1155	H	0.057118	0.862072	0.734138
	H1156	H	0.061632	0.441290	0.626807
	H1157	H	0.026428	0.440948	0.757619
	H1158	H	0.058430	0.441318	0.623570
	H1159	H	0.060898	0.441864	0.621382
	H1160	H	0.029046	0.441499	0.756115
	H1161	H	0.028840	0.440855	0.757122
	H1162	H	0.026418	0.564585	0.757658
	H1163	H	0.061598	0.564339	0.626800
	H1164	H	0.028849	0.564985	0.757207
	H1165	H	0.029002	0.564605	0.756147
	H1166	H	0.060883	0.564831	0.621394
	H1167	H	0.058327	0.564995	0.623547
	H1168	H	0.056968	0.143582	0.734040
	H1169	H	0.057420	0.362684	0.734147
	H1170	H	0.065214	0.064758	0.628213
	H1171	H	0.070782	0.065057	0.626469
	H1172	H	0.057119	0.064341	0.625789
	H1173	H	0.014049	0.862993	0.729631
	H1174	H	0.013658	0.643269	0.729632
	H1175	H	0.013835	0.362590	0.729570
	H1176	H	0.014175	0.142381	0.729584
	H1177	H	0.036317	0.143142	0.647233
	H1178	H	0.079599	0.142660	0.650703
	H1179	H	0.079988	0.362229	0.650744
	H1180	H	0.037629	0.363093	0.647585
	H1181	H	0.076464	0.142804	0.667174
	H1182	H	0.076846	0.362371	0.667229
	H1183	H	0.028236	0.064559	0.758357
	H1184	H	0.030360	0.064470	0.757245
	H1185	H	0.029111	0.064918	0.755121
	H1186	H	0.070731	0.941391	0.626436
	H1187	H	0.065279	0.941410	0.628244
	H1188	H	0.057187	0.940936	0.625821
	H1189	H	0.028186	0.941094	0.758367
	H1190	H	0.030385	0.941520	0.757274
	H1191	H	0.029188	0.941453	0.755085
	Zn1192	Zn	0.001580	0.680510	0.686507
	Zn1193	Zn	0.001319	0.825480	0.686542
	Zn1194	Zn	0.001264	0.180290	0.686519
	Zn1195	Zn	0.001538	0.325319	0.686530
	Zn1196	Zn	0.026895	0.680303	0.756467
	Zn1197	Zn	0.027060	0.825447	0.756495
	Zn1198	Zn	0.027045	0.180267	0.756445
	Zn1199	Zn	0.026951	0.325277	0.756442
	C1200	C	0.075355	0.752764	0.678119
	C1201	C	0.017420	0.753153	0.702108
	C1202	C	0.017328	0.753135	0.712171
	C1203	C	0.016294	0.691072	0.716847
	C1204	C	0.016513	0.815330	0.716830
	C1205	C	0.017426	0.252763	0.702061
	C1206	C	0.017424	0.252462	0.712124
	C1207	C	0.016603	0.190093	0.716770
	C1208	C	0.016441	0.314703	0.716788
	C1209	C	0.021734	0.753936	0.673425
	C1210	C	0.028055	0.753944	0.664151
	C1211	C	0.030180	0.815888	0.659578
	C1212	C	0.030657	0.691769	0.659720
	C1213	C	0.021831	0.252172	0.673444
	C1214	C	0.028192	0.252467	0.664172
	C1215	C	0.030882	0.314685	0.659768
	C1216	C	0.030148	0.190614	0.659576
	C1217	C	0.088299	0.043351	0.691639
	C1218	C	0.088208	0.962603	0.691636
	C1219	C	-0.002425	0.043587	0.685919
	C1220	C	-0.002443	0.962437	0.685931
	C1221	C	0.002340	0.043514	0.688601
	C1222	C	0.002362	0.962574	0.688628
	C1223	C	0.006677	0.462751	0.685858
	C1224	C	0.088172	0.462827	0.691746
	C1225	C	0.094037	0.462399	0.694644
	C1226	C	0.006688	0.543526	0.685867
	C1227	C	0.094047	0.543395	0.694639
	C1228	C	0.088200	0.543532	0.691738
	C1229	C	0.073292	0.752659	0.708351
	C1230	C	0.073277	0.253286	0.708297
	C1231	C	0.067423	0.752610	0.717684
	C1232	C	0.064904	0.690562	0.722100
	C1233	C	0.064844	0.814585	0.722102
	C1234	C	0.067447	0.253267	0.717640
	C1235	C	0.064754	0.191227	0.722039
	C1236	C	0.065019	0.315199	0.722093
	C1237	C	0.075370	0.252995	0.678201
	C1238	C	0.080053	0.753610	0.639596
	C1239	C	0.043720	0.752960	0.637085
	C1240	C	0.012651	0.752838	0.740626
	C1241	C	0.077402	0.690947	0.663450
	C1242	C	0.077128	0.815285	0.663454
	C1243	C	0.080053	0.753445	0.649643
	C1244	C	0.037358	0.753421	0.646355
	C1245	C	0.035300	0.691565	0.650945
	C1246	C	0.079275	0.691183	0.654312
	C1247	C	0.079002	0.815486	0.654316
	C1248	C	0.034844	0.815616	0.650804
	C1249	C	0.076145	0.752979	0.668100
	C1250	C	0.049000	0.752547	0.743998
	C1251	C	0.059520	0.690396	0.730710
	C1252	C	0.059467	0.814514	0.730713
	C1253	C	0.056579	0.752432	0.735054
	C1254	C	0.025915	0.462665	0.757085
	C1255	C	0.060872	0.462625	0.622905
	C1256	C	0.028358	0.462400	0.756586
	C1257	C	0.025860	0.543217	0.757104
	C1258	C	0.028343	0.543391	0.756618
	C1259	C	0.060833	0.543492	0.622885
	C1260	C	0.048973	0.253116	0.743952
	C1261	C	0.059364	0.191192	0.730645
	C1262	C	0.059624	0.315096	0.730703
	C1263	C	0.056630	0.253168	0.735044
	C1264	C	0.066937	0.043476	0.626488
	C1265	C	0.079992	0.252142	0.639666
	C1266	C	0.043723	0.253425	0.637122
	C1267	C	0.012663	0.252669	0.740590
	C1268	C	0.077187	0.190516	0.663513
	C1269	C	0.077364	0.314678	0.663540
	C1270	C	0.080001	0.252446	0.649708
	C1271	C	0.037443	0.253114	0.646378
	C1272	C	0.013432	0.753063	0.730628
	C1273	C	0.014661	0.815254	0.725970
	C1274	C	0.014425	0.690990	0.725983
	C1275	C	0.013506	0.252511	0.730573
	C1276	C	0.014538	0.314751	0.725920
	C1277	C	0.014707	0.190209	0.725912
	C1278	C	0.034747	0.190873	0.650800
	C1279	C	0.079038	0.190421	0.654370
	C1280	C	0.079225	0.314589	0.654399
	C1281	C	0.035483	0.315040	0.650993
	C1282	C	0.076121	0.252625	0.668173
	C1283	C	0.028612	0.043195	0.757463
	C1284	C	0.058734	0.043481	0.624061
	C1285	C	0.066958	0.962556	0.626476
	C1286	C	0.028626	0.962490	0.757476
	C1287	C	0.058748	0.962444	0.624068
	N1288	N	0.001308	0.070198	0.686596
	N1289	N	0.001291	0.935696	0.686625
	N1290	N	0.001687	0.435873	0.686536
	N1291	N	0.001712	0.570431	0.686500
	N1292	N	0.026795	0.435588	0.756426
	N1293	N	0.026774	0.570213	0.756456
	N1294	N	0.026830	0.070150	0.756488
	N1295	N	0.026826	0.935535	0.756489
	O1296	O	0.105945	0.694405	0.803069
	O1297	O	0.105916	0.810677	0.803026
	O1298	O	-0.015674	0.694342	0.828978
	O1299	O	-0.015649	0.810607	0.829020
	O1300	O	-0.015621	0.194462	0.828987
	O1301	O	-0.015586	0.310799	0.829034
	O1302	O	-0.016593	0.694563	0.809877
	O1303	O	-0.016615	0.811193	0.809896
	O1304	O	-0.016469	0.194419	0.809883
	O1305	O	-0.016524	0.311159	0.809883
	O1306	O	0.106947	0.694632	0.822225
	O1307	O	0.106929	0.811326	0.822168
	O1308	O	0.107027	0.194493	0.822224
	O1309	O	0.107106	0.311163	0.822241
	O1310	O	0.105950	0.194959	0.802973
	O1311	O	0.105903	0.310850	0.803050
	O1312	O	0.046406	0.694469	0.766410
	O1313	O	0.012851	0.695264	0.767169
	O1314	O	0.077280	0.694906	0.864845
	O1315	O	0.077197	0.811265	0.864854
	O1316	O	0.043871	0.694840	0.865705
	O1317	O	0.043726	0.811067	0.865732
	O1318	O	0.012990	0.811844	0.767193
	O1319	O	0.046581	0.810890	0.766332
	O1320	O	0.046524	0.195050	0.766319
	O1321	O	0.013142	0.194481	0.767199
	O1322	O	0.077321	0.195066	0.864897
	O1323	O	0.077153	0.311575	0.864783
	O1324	O	0.043795	0.194436	0.865663
	O1325	O	0.043752	0.310488	0.865692
	O1326	O	0.012938	0.310865	0.767173
	O1327	O	0.046378	0.311216	0.766342
	H1328	H	0.003694	0.644161	0.840678
	H1329	H	0.003457	0.860409	0.840671
	H1330	H	0.003608	0.144296	0.840660
	H1331	H	0.003573	0.360446	0.840727
	H1332	H	-0.005009	0.862805	0.796712
	H1333	H	-0.005158	0.643713	0.796651
	H1334	H	-0.005260	0.362376	0.796638
	H1335	H	-0.004986	0.143331	0.796711
	H1336	H	0.124499	0.064036	0.812909
	H1337	H	0.124916	0.064468	0.813216
	H1338	H	0.124895	0.940869	0.813224
	H1339	H	0.124531	0.941211	0.812876
	H1340	H	0.124875	0.064322	0.812497
	H1341	H	0.124953	0.941297	0.812482
	H1342	H	-0.035913	0.064730	0.817292
	H1343	H	-0.035834	0.941242	0.817390
	H1344	H	-0.038119	0.064701	0.818151
	H1345	H	-0.038099	0.941318	0.818194
	H1346	H	-0.037593	0.064651	0.820227
	H1347	H	-0.037613	0.941280	0.820252
	H1348	H	-0.038430	0.441021	0.819522
	H1349	H	-0.036520	0.440720	0.820708
	H1350	H	-0.037315	0.441580	0.817528
	H1351	H	0.133449	0.440643	0.815266
	H1352	H	0.124444	0.440956	0.817664
	H1353	H	0.117932	0.441331	0.815370
	H1354	H	-0.036627	0.564813	0.820691
	H1355	H	-0.038601	0.564260	0.819504
	H1356	H	0.117953	0.564528	0.815352
	H1357	H	0.124462	0.564601	0.817661
	H1358	H	0.133526	0.564438	0.815302
	H1359	H	-0.037371	0.564300	0.817461
	H1360	H	0.095419	0.643942	0.835392
	H1361	H	0.095560	0.862790	0.835414
	H1362	H	0.095462	0.143210	0.835432
	H1363	H	0.095365	0.362196	0.835355
	H1364	H	0.004431	0.643778	0.781116
	H1365	H	0.065640	0.644132	0.778077
	H1366	H	0.065991	0.861108	0.777925
	H1367	H	0.004599	0.862974	0.781192
	H1368	H	0.086742	0.643824	0.791312
	H1369	H	0.087094	0.860795	0.791191
	H1370	H	0.085748	0.643897	0.850904
	H1371	H	0.085801	0.862609	0.850944
	H1372	H	0.024793	0.441407	0.756989
	H1373	H	0.062004	0.441438	0.874582
	H1374	H	0.025054	0.441059	0.755590
	H1375	H	0.026793	0.441198	0.755269
	H1376	H	0.062463	0.440710	0.876486
	H1377	H	0.061285	0.441510	0.875768
	H1378	H	0.062014	0.564459	0.874611
	H1379	H	0.024786	0.564184	0.757022
	H1380	H	0.061282	0.564392	0.875768
	H1381	H	0.062644	0.564537	0.876507
	H1382	H	0.026883	0.564379	0.755269
	H1383	H	0.025061	0.564640	0.755573
	H1384	H	0.085683	0.143220	0.850938
	H1385	H	0.085617	0.362587	0.850837
	H1386	H	0.023235	0.064358	0.756079
	H1387	H	0.024151	0.064504	0.757651
	H1388	H	0.026186	0.065077	0.754578
	H1389	H	0.024529	0.860650	0.853957
	H1390	H	0.024736	0.644709	0.853958
	H1391	H	0.024676	0.360408	0.854015
	H1392	H	0.024659	0.144430	0.853957
	H1393	H	0.004805	0.143214	0.781221
	H1394	H	0.065749	0.145333	0.778015
	H1395	H	0.065403	0.361257	0.778157
	H1396	H	0.004538	0.362368	0.781133
	H1397	H	0.086853	0.145185	0.791248
	H1398	H	0.086566	0.361318	0.791374
	H1399	H	0.054037	0.064496	0.874618
	H1400	H	0.056541	0.064791	0.878631
	H1401	H	0.067045	0.065005	0.880158
	H1402	H	0.024097	0.940654	0.757658
	H1403	H	0.023319	0.941027	0.756047
	H1404	H	0.026106	0.941324	0.754605
	H1405	H	0.054063	0.941398	0.874637
	H1406	H	0.056542	0.941390	0.878692
	H1407	H	0.067082	0.941526	0.880187
	Zn1408	Zn	-0.035136	0.680583	0.819043
	Zn1409	Zn	-0.035045	0.825762	0.819108
	Zn1410	Zn	-0.035091	0.180566	0.819067
	Zn1411	Zn	-0.034972	0.325540	0.819087
	Zn1412	Zn	0.063328	0.680450	0.875538
	Zn1413	Zn	0.063328	0.825320	0.875581
	Zn1414	Zn	0.063308	0.180654	0.875541
	Zn1415	Zn	0.063173	0.325432	0.875519
	C1416	C	0.100862	0.752430	0.800052
	C1417	C	-0.010604	0.752359	0.831995
	C1418	C	0.002267	0.752231	0.839893
	C1419	C	0.008290	0.691192	0.843649
	C1420	C	0.008169	0.813507	0.843640
	C1421	C	-0.010557	0.252538	0.832015
	C1422	C	0.002271	0.252374	0.839929
	C1423	C	0.008248	0.191206	0.843645
	C1424	C	0.008243	0.313624	0.843683
	C1425	C	-0.013157	0.752937	0.806581
	C1426	C	-0.005640	0.753164	0.797617
	C1427	C	-0.002828	0.815252	0.793248
	C1428	C	-0.002930	0.691228	0.793210
	C1429	C	-0.013065	0.252785	0.806589
	C1430	C	-0.005574	0.252865	0.797626
	C1431	C	-0.002852	0.314845	0.793232
	C1432	C	-0.002708	0.190910	0.793261
	C1433	C	0.124888	0.043107	0.813012
	C1434	C	0.124907	0.962429	0.813000
	C1435	C	-0.036586	0.043354	0.818099
	C1436	C	-0.036562	0.962594	0.818128
	C1437	C	-0.036034	0.043493	0.820166
	C1438	C	-0.036027	0.962535	0.820180
	C1439	C	-0.036906	0.462164	0.819840
	C1440	C	0.131405	0.462107	0.813213
	C1441	C	0.122346	0.462538	0.815587
	C1442	C	-0.036997	0.543333	0.819818
	C1443	C	0.122342	0.543228	0.815581
	C1444	C	0.131401	0.543240	0.813217
	C1445	C	0.103542	0.753067	0.825501
	C1446	C	0.103624	0.252822	0.825541
	C1447	C	0.096037	0.753392	0.834450
	C1448	C	0.093171	0.691486	0.838815
	C1449	C	0.093230	0.815220	0.838831
	C1450	C	0.096102	0.252833	0.834490
	C1451	C	0.093205	0.190872	0.838860
	C1452	C	0.093154	0.314817	0.838814
	C1453	C	0.100841	0.252977	0.800007
	C1454	C	0.051594	0.752655	0.769357
	C1455	C	0.010655	0.753538	0.770801
	C1456	C	0.038737	0.752907	0.862695
	C1457	C	0.081992	0.690997	0.788406
	C1458	C	0.082189	0.813745	0.788329
	C1459	C	0.064421	0.752619	0.777268
	C1460	C	0.004907	0.753419	0.780141
	C1461	C	0.002347	0.691417	0.784575
	C1462	C	0.070320	0.691140	0.781032
	C1463	C	0.070519	0.813966	0.780952
	C1464	C	0.002470	0.815308	0.784619
	C1465	C	0.087950	0.752315	0.792163
	C1466	C	0.079576	0.753131	0.861230
	C1467	C	0.087864	0.691437	0.847440
	C1468	C	0.087916	0.815127	0.847460
	C1469	C	0.085357	0.753289	0.851883
	C1470	C	0.062983	0.462558	0.874764
	C1471	C	0.026152	0.462289	0.755698
	C1472	C	0.062315	0.462517	0.875956
	C1473	C	0.063013	0.543268	0.874781
	C1474	C	0.062372	0.543291	0.875968
	C1475	C	0.026142	0.543266	0.755705
	C1476	C	0.079592	0.253198	0.861241
	C1477	C	0.087875	0.190942	0.847486
	C1478	C	0.087833	0.314881	0.847438
	C1479	C	0.085375	0.252981	0.851906
	C1480	C	0.024498	0.043211	0.756763
	C1481	C	0.051536	0.253183	0.769333
	C1482	C	0.010736	0.252650	0.770808
	C1483	C	0.038682	0.252496	0.862693
	C1484	C	0.082120	0.192102	0.788328
	C1485	C	0.081961	0.314328	0.788402
	C1486	C	0.064421	0.253229	0.777230
	C1487	C	0.005051	0.252805	0.780168
	C1488	C	0.025827	0.752723	0.854794
	C1489	C	0.019848	0.813667	0.851019
	C1490	C	0.019956	0.691548	0.851031
	C1491	C	0.025790	0.252509	0.854806
	C1492	C	0.019922	0.313664	0.851052
	C1493	C	0.019919	0.191308	0.851017
	C1494	C	0.002598	0.190914	0.784631
	C1495	C	0.070422	0.192203	0.780968
	C1496	C	0.070239	0.314368	0.781041
	C1497	C	0.002460	0.314732	0.784601
	C1498	C	0.087999	0.253180	0.792109
	C1499	C	0.057457	0.043415	0.876355
	C1500	C	0.027413	0.043520	0.755279
	C1501	C	0.024512	0.962395	0.756772
	C1502	C	0.057486	0.962735	0.876383
	C1503	C	0.027430	0.962612	0.755287
	N1504	N	-0.035172	0.070238	0.819054
	N1505	N	-0.035175	0.935668	0.819112
	N1506	N	-0.035215	0.435573	0.819086
	N1507	N	-0.035271	0.570178	0.819042
	N1508	N	0.063283	0.435604	0.875479
	N1509	N	0.063361	0.570200	0.875479
	N1510	N	0.063354	0.070318	0.875554
	N1511	N	0.063403	0.935675	0.875573
	O1512	O	0.071217	0.693998	0.933532
	O1513	O	0.071153	0.810735	0.933550
	O1514	O	0.015193	0.694150	0.949943
	O1515	O	0.015376	0.810969	0.949948
	O1516	O	0.015483	0.195110	0.949869
	O1517	O	0.015368	0.311976	0.949951
	O1518	O	0.014544	0.694182	0.927293
	O1519	O	0.014960	0.810735	0.927420
	O1520	O	0.014821	0.194788	0.927355
	O1521	O	0.014664	0.311424	0.927341
	O1522	O	0.072038	0.694664	0.956156
	O1523	O	0.071824	0.811256	0.956101
	O1524	O	0.071916	0.194883	0.956170
	O1525	O	0.071942	0.311519	0.956135
	O1526	O	0.071304	0.195124	0.933564
	O1527	O	0.071284	0.312009	0.933544
	O1528	O	0.077891	0.694142	0.887380
	O1529	O	0.044961	0.694683	0.884808
	O1530	O	0.041454	0.694301	0.998583
	O1531	O	0.041559	0.811000	0.998625
	O1532	O	0.008459	0.694253	0.996088
	O1533	O	0.008505	0.811133	0.996076
	O1534	O	0.044947	0.811289	0.884850
	O1535	O	0.077841	0.811069	0.887421
	O1536	O	0.077866	0.195410	0.887396
	O1537	O	0.044962	0.194249	0.884842
	O1538	O	0.041534	0.194492	0.998584
	O1539	O	0.041382	0.311292	0.998588
	O1540	O	0.008644	0.193973	0.996059
	O1541	O	0.008384	0.310910	0.996099
	O1542	O	0.044807	0.310966	0.884793
	O1543	O	0.077878	0.312065	0.887320
	H1544	H	0.013874	0.642559	0.964782
	H1545	H	0.014068	0.862318	0.964832
	H1546	H	0.014252	0.143187	0.964782
	H1547	H	0.013911	0.362972	0.964797
	H1548	H	0.023495	0.861945	0.913532
	H1549	H	0.022961	0.643333	0.913367
	H1550	H	0.023190	0.362762	0.913404
	H1551	H	0.023213	0.143344	0.913435
	H1552	H	0.081318	0.064655	0.947232
	H1553	H	0.085801	0.064535	0.948384
	H1554	H	0.085740	0.941382	0.948426
	H1555	H	0.081318	0.941300	0.947239
	H1556	H	0.080586	0.064797	0.943688
	H1557	H	0.080588	0.940782	0.943732
	H1558	H	-0.005986	0.065123	0.939170
	H1559	H	-0.005974	0.941457	0.939194
	H1560	H	-0.001658	0.064901	0.941632
	H1561	H	-0.001616	0.941592	0.941645
	H1562	H	0.006517	0.064604	0.940758
	H1563	H	0.006598	0.941379	0.940786
	H1564	H	-0.003588	0.441284	0.933480
	H1565	H	-0.008389	0.441683	0.936691
	H1566	H	0.007306	0.441462	0.934695
	H1567	H	0.089203	0.441018	0.942008
	H1568	H	0.093240	0.441186	0.946194
	H1569	H	0.089961	0.441129	0.948939
	H1570	H	-0.008452	0.564692	0.936651
	H1571	H	-0.003559	0.564998	0.933513
	H1572	H	0.089882	0.564517	0.948961
	H1573	H	0.093298	0.564195	0.946185
	H1574	H	0.089116	0.564914	0.942038
	H1575	H	0.007160	0.564331	0.934667
	H1576	H	0.063081	0.643709	0.969982
	H1577	H	0.063411	0.862206	0.970069
	H1578	H	0.063470	0.143557	0.970049
	H1579	H	0.063034	0.362864	0.969978
	H1580	H	0.032977	0.643425	0.897923
	H1581	H	0.076738	0.642477	0.902278
	H1582	H	0.076443	0.862008	0.902305
	H1583	H	0.033473	0.862367	0.898070
	H1584	H	0.072668	0.642385	0.918678
	H1585	H	0.072329	0.861979	0.918667
	H1586	H	0.053121	0.643407	0.985437
	H1587	H	0.053479	0.862175	0.985539
	H1588	H	0.063612	0.441296	0.874435
	H1589	H	0.023034	0.441077	1.006578
	H1590	H	0.065284	0.441350	0.875452
	H1591	H	0.064772	0.440917	0.876285
	H1592	H	0.020940	0.441308	1.008546
	H1593	H	0.020729	0.441720	1.007453
	H1594	H	0.022977	0.564875	1.006554
	H1595	H	0.063652	0.564548	0.874427
	H1596	H	0.020723	0.564297	1.007448
	H1597	H	0.020955	0.564846	1.008582
	H1598	H	0.064904	0.564719	0.876269
	H1599	H	0.065311	0.564703	0.875424
	H1600	H	0.053379	0.143347	0.985503
	H1601	H	0.052955	0.362927	0.985406
	H1602	H	0.068779	0.064785	0.871782
	H1603	H	0.061158	0.064601	0.870693
	H1604	H	0.072212	0.064694	0.877335
	H1605	H	0.009898	0.862394	0.981179
	H1606	H	0.009664	0.642510	0.981178
	H1607	H	0.009716	0.362624	0.981182
	H1608	H	0.010128	0.142918	0.981161
	H1609	H	0.033199	0.143036	0.897996
	H1610	H	0.076635	0.143930	0.902290
	H1611	H	0.076583	0.363808	0.902249
	H1612	H	0.033137	0.362641	0.897944
	H1613	H	0.072493	0.143849	0.918657
	H1614	H	0.072515	0.363591	0.918628
	H1615	H	0.022448	0.064534	1.007297
	H1616	H	0.021828	0.064757	1.007734
	H1617	H	0.022501	0.064936	1.008474
	H1618	H	0.061129	0.941088	0.870722
	H1619	H	0.068830	0.941240	0.871817
	H1620	H	0.072250	0.941317	0.877320
	H1621	H	0.022380	0.941475	1.007323
	H1622	H	0.021861	0.941452	1.007714
	H1623	H	0.022466	0.941218	1.008503
	Zn1624	Zn	0.000698	0.680273	0.938071
	Zn1625	Zn	0.000886	0.825613	0.938104
	Zn1626	Zn	0.000850	0.180272	0.938071
	Zn1627	Zn	0.000867	0.325617	0.938105
	Zn1628	Zn	0.023136	0.680034	1.007901
	Zn1629	Zn	0.023121	0.825387	1.007873
	Zn1630	Zn	0.023225	0.180159	1.007880
	Zn1631	Zn	0.023117	0.325481	1.007907
	C1632	C	0.071033	0.752374	0.929620
	C1633	C	0.015430	0.752550	0.953862
	C1634	C	0.014402	0.752403	0.963852
	C1635	C	0.013028	0.690217	0.968465
	C1636	C	0.013160	0.814585	0.968481
	C1637	C	0.015550	0.253339	0.953825
	C1638	C	0.014491	0.253064	0.963827
	C1639	C	0.013276	0.190856	0.968440
	C1640	C	0.013118	0.315176	0.968454
	C1641	C	0.017094	0.752496	0.923751
	C1642	C	0.022886	0.752570	0.914410
	C1643	C	0.025568	0.814507	0.910039
	C1644	C	0.025303	0.690820	0.909951
	C1645	C	0.017089	0.253129	0.923743
	C1646	C	0.022968	0.253097	0.914426
	C1647	C	0.025459	0.315102	0.909983
	C1648	C	0.025494	0.190958	0.910011
	C1649	C	0.084008	0.043218	0.947170
	C1650	C	0.084024	0.962575	0.947171
	C1651	C	-0.002552	0.043599	0.939816
	C1652	C	-0.002553	0.962590	0.939833
	C1653	C	0.005632	0.043568	0.938963
	C1654	C	0.005648	0.962794	0.938962
	C1655	C	-0.004110	0.462496	0.935887
	C1656	C	0.085880	0.462215	0.942799
	C1657	C	0.090025	0.462615	0.947026
	C1658	C	-0.004127	0.543433	0.935865
	C1659	C	0.089967	0.543229	0.947010
	C1660	C	0.085878	0.543275	0.942789
	C1661	C	0.069586	0.752969	0.959730
	C1662	C	0.069578	0.253232	0.959748
	C1663	C	0.063679	0.752961	0.969072
	C1664	C	0.061011	0.691067	0.973461
	C1665	C	0.061196	0.814867	0.973510
	C1666	C	0.063616	0.253176	0.969049
	C1667	C	0.061141	0.191130	0.973481
	C1668	C	0.060908	0.315274	0.973433
	C1669	C	0.071102	0.253539	0.929644
	C1670	C	0.078050	0.752499	0.891297
	C1671	C	0.041530	0.752917	0.888139
	C1672	C	0.008322	0.752665	0.992186
	C1673	C	0.073448	0.690022	0.915007
	C1674	C	0.073243	0.814283	0.915015
	C1675	C	0.077050	0.752263	0.901296
	C1676	C	0.033837	0.752774	0.897041
	C1677	C	0.030753	0.690937	0.901350
	C1678	C	0.075858	0.690116	0.905921
	C1679	C	0.075666	0.814257	0.905937
	C1680	C	0.030992	0.814613	0.901433
	C1681	C	0.072053	0.752146	0.919627
	C1682	C	0.044998	0.752653	0.995327
	C1683	C	0.055538	0.690979	0.982055
	C1684	C	0.055721	0.814739	0.982107
	C1685	C	0.052727	0.752789	0.986440
	C1686	C	0.023712	0.462168	1.007127
	C1687	C	0.064636	0.462392	0.875760
	C1688	C	0.021390	0.462582	1.007971
	C1689	C	0.023712	0.543312	1.007133
	C1690	C	0.021382	0.543204	1.007989
	C1691	C	0.064678	0.543429	0.875748
	C1692	C	0.044918	0.252954	0.995295
	C1693	C	0.055609	0.191058	0.982059
	C1694	C	0.055373	0.315264	0.982010
	C1695	C	0.052580	0.253088	0.986383
	C1696	C	0.064609	0.043496	0.872382
	C1697	C	0.078012	0.253894	0.891273
	C1698	C	0.041440	0.252613	0.888111
	C1699	C	0.008347	0.252551	0.992176
	C1700	C	0.073397	0.191602	0.915008
	C1701	C	0.073401	0.315890	0.914979
	C1702	C	0.077026	0.253895	0.901270
	C1703	C	0.033842	0.252747	0.897048
	C1704	C	0.009371	0.752457	0.982187
	C1705	C	0.010753	0.814556	0.977557
	C1706	C	0.010592	0.690319	0.977547
	C1707	C	0.009455	0.252802	0.982177
	C1708	C	0.010668	0.314970	0.977536
	C1709	C	0.010868	0.190759	0.977518
	C1710	C	0.030923	0.190756	0.901410
	C1711	C	0.075740	0.191737	0.905921
	C1712	C	0.075736	0.316037	0.905885
	C1713	C	0.030895	0.314931	0.901382
	C1714	C	0.072127	0.253710	0.919630
	C1715	C	0.022345	0.043265	1.007607
	C1716	C	0.068032	0.043454	0.877902
	C1717	C	0.064613	0.962356	0.872406
	C1718	C	0.022319	0.962672	1.007606
	C1719	C	0.068072	0.962740	0.877918
	N1720	N	0.000903	0.070351	0.938105
	N1721	N	0.000942	0.935829	0.938112
	N1722	N	0.000851	0.435709	0.938111
	N1723	N	0.000818	0.570210	0.938083
	N1724	N	0.023038	0.435542	1.007928
	N1725	N	0.023044	0.570052	1.007934
	N1726	N	0.023039	0.070120	1.007913
	N1727	N	0.022969	0.935607	1.007902
	O1728	O	0.272413	0.694135	0.043482
	O1729	O	0.272670	0.810559	0.043350
	O1730	O	0.146883	0.694693	0.070900
	O1731	O	0.146842	0.810631	0.070860
	O1732	O	0.146895	0.194222	0.070807
	O1733	O	0.146821	0.310250	0.070864
	O1734	O	0.140276	0.694585	0.050928
	O1735	O	0.140540	0.810351	0.050948
	O1736	O	0.140700	0.195040	0.050996
	O1737	O	0.140326	0.311111	0.050945
	O1738	O	0.274052	0.694537	0.062357
	O1739	O	0.274010	0.811410	0.062342
	O1740	O	0.274045	0.194084	0.062283
	O1741	O	0.273988	0.310917	0.062270
	O1742	O	0.272582	0.194376	0.043394
	O1743	O	0.272656	0.310720	0.043358
	O1744	O	0.209492	0.694433	0.008442
	O1745	O	0.175344	0.694872	0.009892
	O1746	O	0.243753	0.694290	0.104844
	O1747	O	0.243808	0.811012	0.104823
	O1748	O	0.209882	0.694489	0.105866
	O1749	O	0.210038	0.810639	0.105796
	O1750	O	0.175360	0.810899	0.009883
	O1751	O	0.209711	0.810333	0.008307
	O1752	O	0.209615	0.194699	0.008358
	O1753	O	0.175269	0.194943	0.009890
	O1754	O	0.243698	0.194921	0.104791
	O1755	O	0.243539	0.311334	0.104733
	O1756	O	0.210027	0.194295	0.105782
	O1757	O	0.209879	0.310520	0.105865
	O1758	O	0.175309	0.311073	0.009925
	O1759	O	0.209551	0.310497	0.008417
	H1760	H	0.167136	0.644384	0.082124
	H1761	H	0.167322	0.860744	0.081943
	H1762	H	0.167172	0.144136	0.082037
	H1763	H	0.167079	0.360638	0.082034
	H1764	H	0.151853	0.860308	0.037902
	H1765	H	0.151606	0.645237	0.037834
	H1766	H	0.151594	0.361051	0.037850
	H1767	H	0.152097	0.144857	0.037977
	H1768	H	0.299932	0.064928	0.049915
	H1769	H	0.292412	0.064158	0.047783
	H1770	H	0.292400	0.941086	0.047810
	H1771	H	0.299971	0.940939	0.049947
	H1772	H	0.301001	0.064507	0.055938
	H1773	H	0.301010	0.940983	0.056017
	H1774	H	0.129820	0.064387	0.061181
	H1775	H	0.129864	0.941074	0.061206
	H1776	H	0.127926	0.064088	0.059972
	H1777	H	0.127873	0.941215	0.059983
	H1778	H	0.123961	0.064253	0.060225
	H1779	H	0.124078	0.940992	0.060269
	H1780	H	0.126384	0.440919	0.063212
	H1781	H	0.128760	0.440883	0.062831
	H1782	H	0.123626	0.441347	0.062028
	H1783	H	0.294702	0.441278	0.052667
	H1784	H	0.294129	0.441497	0.054152
	H1785	H	0.292101	0.441293	0.054363
	H1786	H	0.128761	0.564344	0.062836
	H1787	H	0.126434	0.564953	0.063259
	H1788	H	0.292177	0.564566	0.054391
	H1789	H	0.294147	0.564832	0.054152
	H1790	H	0.294755	0.564412	0.052620
	H1791	H	0.123731	0.565075	0.062016
	H1792	H	0.262271	0.643128	0.075418
	H1793	H	0.262480	0.862499	0.075526
	H1794	H	0.262366	0.143205	0.075441
	H1795	H	0.262067	0.362225	0.075345
	H1796	H	0.163910	0.645195	0.022933
	H1797	H	0.229747	0.644032	0.019592
	H1798	H	0.230085	0.861197	0.019469
	H1799	H	0.164221	0.860502	0.022992
	H1800	H	0.252163	0.643797	0.032255
	H1801	H	0.252540	0.861046	0.032137
	H1802	H	0.252280	0.642885	0.090884
	H1803	H	0.252537	0.862139	0.090975
	H1804	H	0.189693	0.440489	-0.002357
	H1805	H	0.229767	0.440863	0.116518
	H1806	H	0.192370	0.440862	-0.001023
	H1807	H	0.191764	0.441067	0.000322
	H1808	H	0.231435	0.441213	0.115027
	H1809	H	0.231608	0.441181	0.115886
	H1810	H	0.229703	0.564449	0.116558
	H1811	H	0.189683	0.564186	-0.002385
	H1812	H	0.231526	0.564957	0.115928
	H1813	H	0.231446	0.564619	0.115101
	H1814	H	0.191786	0.564033	0.000303
	H1815	H	0.192291	0.564622	-0.001012
	H1816	H	0.252332	0.143267	0.090872
	H1817	H	0.252031	0.362368	0.090791
	H1818	H	0.188020	0.064174	-0.001463
	H1819	H	0.187535	0.063673	-0.000805
	H1820	H	0.189794	0.064949	-0.001633
	H1821	H	0.189814	0.860828	0.094564
	H1822	H	0.189601	0.644624	0.094737
	H1823	H	0.189578	0.360808	0.094660
	H1824	H	0.189667	0.144030	0.094643
	H1825	H	0.164285	0.144675	0.023045
	H1826	H	0.230127	0.144018	0.019428
	H1827	H	0.229653	0.361381	0.019700
	H1828	H	0.163799	0.361330	0.022943
	H1829	H	0.252549	0.144221	0.032096
	H1830	H	0.252104	0.361015	0.032351
	H1831	H	0.229380	0.064517	0.115229
	H1832	H	0.229306	0.063966	0.115567
	H1833	H	0.229841	0.064462	0.115726
	H1834	H	0.187515	0.940464	-0.000777
	H1835	H	0.187990	0.941376	-0.001490
	H1836	H	0.189923	0.941418	-0.001618
	H1837	H	0.229350	0.941173	0.115236
	H1838	H	0.229312	0.941157	0.115554
	H1839	H	0.229820	0.940824	0.115737
	Zn1840	Zn	0.126609	0.679961	0.061680
	Zn1841	Zn	0.126609	0.825615	0.061633
	Zn1842	Zn	0.126542	0.179798	0.061619
	Zn1843	Zn	0.126524	0.325717	0.061656
	Zn1844	Zn	0.229723	0.680091	0.115509
	Zn1845	Zn	0.229828	0.825321	0.115464
	Zn1846	Zn	0.229799	0.180214	0.115504
	Zn1847	Zn	0.229804	0.325263	0.115481
	C1848	C	0.267253	0.752303	0.040539
	C1849	C	0.152218	0.752724	0.073742
	C1850	C	0.165888	0.752620	0.081264
	C1851	C	0.172175	0.691445	0.084902
	C1852	C	0.172266	0.813746	0.084796
	C1853	C	0.152148	0.252253	0.073727
	C1854	C	0.165823	0.252348	0.081265
	C1855	C	0.172189	0.191161	0.084829
	C1856	C	0.172158	0.313635	0.084826
	C1857	C	0.143425	0.752438	0.047559
	C1858	C	0.151106	0.752721	0.038725
	C1859	C	0.154597	0.813687	0.034562
	C1860	C	0.154442	0.691854	0.034529
	C1861	C	0.143571	0.253125	0.047605
	C1862	C	0.151146	0.253069	0.038747
	C1863	C	0.154375	0.314336	0.034533
	C1864	C	0.154657	0.191710	0.034597
	C1865	C	0.295215	0.043360	0.049944
	C1866	C	0.295247	0.962457	0.049972
	C1867	C	0.128252	0.043116	0.060846
	C1868	C	0.128282	0.962443	0.060864
	C1869	C	0.124314	0.043204	0.061128
	C1870	C	0.124354	0.962395	0.061148
	C1871	C	0.127303	0.462318	0.062666
	C1872	C	0.293620	0.462212	0.052494
	C1873	C	0.293010	0.462525	0.053973
	C1874	C	0.127343	0.543451	0.062677
	C1875	C	0.293031	0.543349	0.053970
	C1876	C	0.293645	0.542990	0.052490
	C1877	C	0.270567	0.752975	0.065628
	C1878	C	0.270532	0.252523	0.065558
	C1879	C	0.262874	0.752785	0.074522
	C1880	C	0.259970	0.690587	0.078856
	C1881	C	0.260086	0.814729	0.078912
	C1882	C	0.262863	0.252742	0.074482
	C1883	C	0.260008	0.190781	0.078852
	C1884	C	0.259835	0.314701	0.078806
	C1885	C	0.267275	0.252562	0.040509
	C1886	C	0.214967	0.752445	0.011236
	C1887	C	0.172278	0.752905	0.013240
	C1888	C	0.204630	0.752623	0.102961
	C1889	C	0.247210	0.691068	0.029440
	C1890	C	0.247423	0.813903	0.029368
	C1891	C	0.228588	0.752572	0.018789
	C1892	C	0.164648	0.752863	0.022090
	C1893	C	0.161219	0.691896	0.026266
	C1894	C	0.234794	0.691189	0.022404
	C1895	C	0.235005	0.813998	0.022330
	C1896	C	0.161375	0.813894	0.026297
	C1897	C	0.253636	0.752373	0.032992
	C1898	C	0.246138	0.752564	0.101238
	C1899	C	0.254522	0.690462	0.087458
	C1900	C	0.254645	0.814598	0.087509
	C1901	C	0.252008	0.752483	0.091901
	C1902	C	0.229221	0.462368	0.116107
	C1903	C	0.191319	0.462189	-0.000470
	C1904	C	0.231079	0.462402	0.115486
	C1905	C	0.229185	0.543144	0.116127
	C1906	C	0.231041	0.543250	0.115509
	C1907	C	0.191331	0.542991	-0.000458
	C1908	C	0.245971	0.253134	0.101162
	C1909	C	0.254516	0.190905	0.087438
	C1910	C	0.254353	0.314756	0.087396
	C1911	C	0.251891	0.252940	0.091854
	C1912	C	0.188157	0.042723	-0.001072
	C1913	C	0.214897	0.252594	0.011271
	C1914	C	0.172267	0.252964	0.013279
	C1915	C	0.204557	0.252425	0.102985
	C1916	C	0.247476	0.191222	0.029307
	C1917	C	0.247220	0.313981	0.029454
	C1918	C	0.228561	0.252661	0.018777
	C1919	C	0.164601	0.253049	0.022112
	C1920	C	0.190987	0.752702	0.095433
	C1921	C	0.184742	0.813796	0.091800
	C1922	C	0.184632	0.691487	0.091909
	C1923	C	0.190932	0.252449	0.095453
	C1924	C	0.184603	0.313713	0.091845
	C1925	C	0.184652	0.191138	0.091841
	C1926	C	0.161389	0.191572	0.026327
	C1927	C	0.235036	0.191268	0.022282
	C1928	C	0.234780	0.314053	0.022431
	C1929	C	0.161111	0.314383	0.026271
	C1930	C	0.253668	0.252550	0.032949
	C1931	C	0.229492	0.043049	0.115416
	C1932	C	0.190004	0.043228	-0.001213
	C1933	C	0.188124	0.962164	-0.001073
	C1934	C	0.229516	0.962412	0.115407
	C1935	C	0.189995	0.962209	-0.001200
	N1936	N	0.126540	0.070041	0.061577
	N1937	N	0.126581	0.935600	0.061589
	N1938	N	0.126521	0.435636	0.061647
	N1939	N	0.126613	0.570110	0.061664
	N1940	N	0.229876	0.435463	0.115477
	N1941	N	0.229789	0.570000	0.115508
	N1942	N	0.229930	0.070079	0.115467
	N1943	N	0.229955	0.935552	0.115470
	O1944	O	0.237450	0.693952	0.173532
	O1945	O	0.237487	0.810787	0.173500
	O1946	O	0.181664	0.694668	0.189808
	O1947	O	0.181624	0.811630	0.189797
	O1948	O	0.181488	0.193996	0.189819
	O1949	O	0.181523	0.310869	0.189799
	O1950	O	0.180819	0.695169	0.167238
	O1951	O	0.180837	0.811698	0.167249
	O1952	O	0.180817	0.194133	0.167226
	O1953	O	0.181027	0.310628	0.167275
	O1954	O	0.237925	0.693652	0.196050
	O1955	O	0.237800	0.810241	0.196036
	O1956	O	0.237930	0.194369	0.196032
	O1957	O	0.238021	0.310836	0.196058
	O1958	O	0.237449	0.194145	0.173528
	O1959	O	0.237528	0.310964	0.173519
	O1960	O	0.244349	0.694263	0.127359
	O1961	O	0.211526	0.694743	0.124869
	O1962	O	0.208139	0.694342	0.238720
	O1963	O	0.208010	0.811102	0.238629
	O1964	O	0.175087	0.694055	0.235965
	O1965	O	0.175112	0.810765	0.235936
	O1966	O	0.211413	0.811544	0.124761
	O1967	O	0.244414	0.811183	0.127375
	O1968	O	0.244338	0.194553	0.127331
	O1969	O	0.211367	0.194107	0.124745
	O1970	O	0.207922	0.194487	0.238609
	O1971	O	0.207961	0.311213	0.238588
	O1972	O	0.175015	0.194245	0.236003
	O1973	O	0.175091	0.311119	0.235980
	O1974	O	0.211418	0.310729	0.124751
	O1975	O	0.244357	0.311294	0.127362
	H1976	H	0.180591	0.643117	0.204656
	H1977	H	0.179967	0.862542	0.204645
	H1978	H	0.180221	0.142603	0.204757
	H1979	H	0.180287	0.362626	0.204701
	H1980	H	0.189566	0.863137	0.153319
	H1981	H	0.189553	0.644165	0.153383
	H1982	H	0.189819	0.361726	0.153373
	H1983	H	0.189570	0.142958	0.153322
	H1984	H	0.251789	0.064439	0.187062
	H1985	H	0.254196	0.064490	0.186607
	H1986	H	0.254165	0.940955	0.186506
	H1987	H	0.251819	0.941172	0.187006
	H1988	H	0.249050	0.064887	0.185752
	H1989	H	0.248991	0.941256	0.185724
	H1990	H	0.170498	0.064887	0.177402
	H1991	H	0.170471	0.940915	0.177430
	H1992	H	0.168268	0.064504	0.176194
	H1993	H	0.168295	0.941514	0.176207
	H1994	H	0.164111	0.064858	0.176609
	H1995	H	0.164218	0.941488	0.176602
	H1996	H	0.178974	0.441279	0.181577
	H1997	H	0.179402	0.441497	0.175703
	H1998	H	0.165414	0.440510	0.184873
	H1999	H	0.248778	0.441163	0.182094
	H2000	H	0.256599	0.441085	0.182852
	H2001	H	0.258786	0.440398	0.185738
	H2002	H	0.179420	0.564849	0.175686
	H2003	H	0.179008	0.564751	0.181587
	H2004	H	0.258946	0.564486	0.185801
	H2005	H	0.256704	0.563788	0.182860
	H2006	H	0.248903	0.564035	0.182075
	H2007	H	0.165384	0.564521	0.184929
	H2008	H	0.229636	0.642382	0.210039
	H2009	H	0.229175	0.861422	0.209887
	H2010	H	0.229256	0.143141	0.209913
	H2011	H	0.229675	0.362093	0.209999
	H2012	H	0.199675	0.643765	0.137960
	H2013	H	0.243025	0.642750	0.142237
	H2014	H	0.242777	0.862404	0.142271
	H2015	H	0.199732	0.863129	0.137902
	H2016	H	0.238799	0.642320	0.158585
	H2017	H	0.238563	0.862286	0.158633
	H2018	H	0.219840	0.642642	0.225513
	H2019	H	0.219313	0.861630	0.225362
	H2020	H	0.228245	0.441054	0.116069
	H2021	H	0.185312	0.441057	0.252205
	H2022	H	0.228116	0.441015	0.114911
	H2023	H	0.229482	0.440907	0.114418
	H2024	H	0.199185	0.441121	0.247992
	H2025	H	0.196211	0.440589	0.251790
	H2026	H	0.185194	0.564264	0.252195
	H2027	H	0.228189	0.564105	0.116094
	H2028	H	0.196171	0.564355	0.251815
	H2029	H	0.199079	0.564389	0.247923
	H2030	H	0.229391	0.564598	0.114469
	H2031	H	0.227972	0.564394	0.114937
	H2032	H	0.219404	0.143016	0.225396
	H2033	H	0.219789	0.362202	0.225461
	H2034	H	0.230350	0.064287	0.115287
	H2035	H	0.229947	0.064664	0.115148
	H2036	H	0.230296	0.064296	0.115697
	H2037	H	0.175928	0.862477	0.221007
	H2038	H	0.176575	0.642659	0.221064
	H2039	H	0.176355	0.362576	0.221111
	H2040	H	0.176218	0.142803	0.221129
	H2041	H	0.199583	0.142873	0.137888
	H2042	H	0.243193	0.143039	0.142237
	H2043	H	0.242803	0.362647	0.142299
	H2044	H	0.199802	0.361830	0.137920
	H2045	H	0.238968	0.142676	0.158583
	H2046	H	0.238560	0.362193	0.158663
	H2047	H	0.193527	0.064525	0.248877
	H2048	H	0.193260	0.064730	0.246965
	H2049	H	0.188853	0.064629	0.245691
	H2050	H	0.230011	0.940899	0.115178
	H2051	H	0.230402	0.941048	0.115296
	H2052	H	0.230268	0.940786	0.115680
	H2053	H	0.193409	0.941040	0.248876
	H2054	H	0.193228	0.940730	0.246945
	H2055	H	0.188871	0.941011	0.245668
	Zn2056	Zn	0.167085	0.680657	0.178003
	Zn2057	Zn	0.167046	0.825430	0.177999
	Zn2058	Zn	0.166939	0.180407	0.177955
	Zn2059	Zn	0.167021	0.325460	0.177956
	Zn2060	Zn	0.189520	0.680265	0.247855
	Zn2061	Zn	0.189495	0.825380	0.247812
	Zn2062	Zn	0.189615	0.180350	0.247877
	Zn2063	Zn	0.189679	0.325439	0.247845
	C2064	C	0.237327	0.752279	0.169611
	C2065	C	0.181824	0.753123	0.193701
	C2066	C	0.180802	0.752815	0.203691
	C2067	C	0.179692	0.690645	0.208326
	C2068	C	0.179329	0.814797	0.208305
	C2069	C	0.181666	0.252487	0.193714
	C2070	C	0.180692	0.252605	0.203711
	C2071	C	0.179440	0.190508	0.208373
	C2072	C	0.179484	0.314780	0.208347
	C2073	C	0.183218	0.753472	0.163638
	C2074	C	0.189124	0.753662	0.154317
	C2075	C	0.191770	0.815551	0.149887
	C2076	C	0.191756	0.691684	0.149923
	C2077	C	0.183355	0.252372	0.163656
	C2078	C	0.189264	0.252351	0.154336
	C2079	C	0.191933	0.314182	0.149921
	C2080	C	0.191777	0.190551	0.149896
	C2081	C	0.252661	0.043253	0.186443
	C2082	C	0.252692	0.962289	0.186420
	C2083	C	0.168783	0.043298	0.177112
	C2084	C	0.168811	0.962580	0.177127
	C2085	C	0.164655	0.043318	0.177529
	C2086	C	0.164684	0.962500	0.177548
	C2087	C	0.176036	0.462639	0.178443
	C2088	C	0.248360	0.462084	0.183788
	C2089	C	0.256159	0.462103	0.184582
	C2090	C	0.176047	0.543406	0.178452
	C2091	C	0.256239	0.542909	0.184607
	C2092	C	0.248411	0.542990	0.183771
	C2093	C	0.235518	0.751904	0.199639
	C2094	C	0.235606	0.252574	0.199653
	C2095	C	0.229760	0.751875	0.208975
	C2096	C	0.227401	0.690024	0.213449
	C2097	C	0.227119	0.813936	0.213359
	C2098	C	0.229822	0.252614	0.208983
	C2099	C	0.227189	0.190669	0.213393
	C2100	C	0.227413	0.314559	0.213443
	C2101	C	0.237299	0.252497	0.169617
	C2102	C	0.244517	0.752685	0.131275
	C2103	C	0.207976	0.753251	0.128088
	C2104	C	0.174931	0.752342	0.232033
	C2105	C	0.239668	0.690249	0.154972
	C2106	C	0.239543	0.814550	0.154994
	C2107	C	0.243386	0.752628	0.141279
	C2108	C	0.200245	0.753458	0.136976
	C2109	C	0.197308	0.691523	0.141346
	C2110	C	0.242093	0.690452	0.145897
	C2111	C	0.241957	0.814717	0.145915
	C2112	C	0.197323	0.815522	0.141307
	C2113	C	0.238345	0.752355	0.159618
	C2114	C	0.211526	0.752608	0.235370
	C2115	C	0.222082	0.690153	0.222075
	C2116	C	0.221793	0.814118	0.221982
	C2117	C	0.219104	0.752235	0.226415
	C2118	C	0.184528	0.462486	0.249777
	C2119	C	0.229033	0.462211	0.114905
	C2120	C	0.195502	0.462056	0.249355
	C2121	C	0.184485	0.543220	0.249788
	C2122	C	0.195460	0.543142	0.249356
	C2123	C	0.228998	0.543176	0.114920
	C2124	C	0.211369	0.252801	0.235298
	C2125	C	0.221777	0.190651	0.221997
	C2126	C	0.222000	0.314567	0.222045
	C2127	C	0.218964	0.252596	0.226376
	C2128	C	0.230143	0.043302	0.115288
	C2129	C	0.244487	0.252900	0.131264
	C2130	C	0.207933	0.252450	0.128039
	C2131	C	0.174856	0.252659	0.232077
	C2132	C	0.239782	0.190482	0.154959
	C2133	C	0.239575	0.314567	0.155006
	C2134	C	0.243441	0.252892	0.141273
	C2135	C	0.200252	0.252430	0.136949
	C2136	C	0.175951	0.752418	0.222042
	C2137	C	0.176992	0.814632	0.217390
	C2138	C	0.177353	0.690440	0.217418
	C2139	C	0.175847	0.252721	0.222070
	C2140	C	0.177161	0.314827	0.217439
	C2141	C	0.177104	0.190524	0.217460
	C2142	C	0.197254	0.190524	0.141301
	C2143	C	0.242237	0.190720	0.145883
	C2144	C	0.242038	0.314810	0.145929
	C2145	C	0.197399	0.314306	0.141325
	C2146	C	0.238363	0.252421	0.159623
	C2147	C	0.192325	0.043337	0.247899
	C2148	C	0.230059	0.043092	0.115648
	C2149	C	0.230133	0.962354	0.115288
	C2150	C	0.192288	0.962254	0.247899
	C2151	C	0.230060	0.962034	0.115647
	N2152	N	0.167087	0.070134	0.177966
	N2153	N	0.167096	0.935586	0.177976
	N2154	N	0.167106	0.435647	0.177956
	N2155	N	0.167092	0.570322	0.177965
	N2156	N	0.189569	0.435497	0.247855
	N2157	N	0.189509	0.570059	0.247854
	N2158	N	0.189473	0.070215	0.247898
	N2159	N	0.189430	0.935637	0.247872
	O2160	O	0.268844	0.694902	0.294249
	O2161	O	0.268952	0.811329	0.294219
	O2162	O	0.146315	0.694723	0.320120
	O2163	O	0.146373	0.810993	0.320161
	O2164	O	0.146307	0.195253	0.320109
	O2165	O	0.146303	0.311507	0.320090
	O2166	O	0.145203	0.694539	0.300991
	O2167	O	0.145163	0.811291	0.300965
	O2168	O	0.145340	0.195095	0.301015
	O2169	O	0.145384	0.311832	0.301037
	O2170	O	0.269854	0.694948	0.313332
	O2171	O	0.269856	0.811680	0.313308
	O2172	O	0.269862	0.193945	0.313325
	O2173	O	0.269837	0.310425	0.313355
	O2174	O	0.268884	0.194516	0.294246
	O2175	O	0.268805	0.310740	0.294248
	O2176	O	0.208978	0.695022	0.257714
	O2177	O	0.175500	0.694304	0.258549
	O2178	O	0.239892	0.695304	0.355945
	O2179	O	0.239581	0.811838	0.355854
	O2180	O	0.206231	0.694245	0.356685
	O2181	O	0.206132	0.810620	0.356667
	O2182	O	0.175507	0.810885	0.258518
	O2183	O	0.209001	0.811333	0.257707
	O2184	O	0.209007	0.194378	0.257772
	O2185	O	0.175391	0.195053	0.258516
	O2186	O	0.239674	0.193976	0.355911
	O2187	O	0.239632	0.310412	0.355896
	O2188	O	0.205999	0.195247	0.356709
	O2189	O	0.206221	0.311622	0.356653
	O2190	O	0.175553	0.311620	0.258510
	O2191	O	0.209070	0.310772	0.257758
	H2192	H	0.165680	0.644225	0.331769
	H2193	H	0.165581	0.861094	0.331902
	H2194	H	0.165518	0.145053	0.331826
	H2195	H	0.165748	0.361734	0.331694
	H2196	H	0.156859	0.862412	0.287842
	H2197	H	0.157094	0.643484	0.287941
	H2198	H	0.157242	0.363250	0.287883
	H2199	H	0.156674	0.143866	0.287805
	H2200	H	0.284186	0.064529	0.301642
	H2201	H	0.282490	0.064342	0.304153
	H2202	H	0.282580	0.940661	0.304181
	H2203	H	0.284279	0.941301	0.301676
	H2204	H	0.291110	0.064513	0.301277
	H2205	H	0.291133	0.940954	0.301307
	H2206	H	0.127065	0.064873	0.309838
	H2207	H	0.127130	0.940859	0.309835
	H2208	H	0.126405	0.064076	0.309851
	H2209	H	0.126435	0.941158	0.309839
	H2210	H	0.126105	0.064374	0.310305
	H2211	H	0.126054	0.941096	0.310302
	H2212	H	0.132604	0.441122	0.305451
	H2213	H	0.123195	0.440858	0.304491
	H2214	H	0.137773	0.441696	0.311858
	H2215	H	0.287665	0.441143	0.303306
	H2216	H	0.289621	0.440749	0.303540
	H2217	H	0.290071	0.441185	0.304204
	H2218	H	0.123165	0.564590	0.304517
	H2219	H	0.132480	0.564613	0.305440
	H2220	H	0.290151	0.564442	0.304177
	H2221	H	0.289577	0.564426	0.303508
	H2222	H	0.287594	0.564355	0.303268
	H2223	H	0.137739	0.564805	0.311777
	H2224	H	0.258398	0.643465	0.326551
	H2225	H	0.257868	0.862911	0.326403
	H2226	H	0.258233	0.142580	0.326487
	H2227	H	0.258486	0.361468	0.326577
	H2228	H	0.167104	0.643182	0.272480
	H2229	H	0.228318	0.644066	0.269386
	H2230	H	0.228311	0.862047	0.269365
	H2231	H	0.166827	0.862195	0.272377
	H2232	H	0.249576	0.644295	0.282585
	H2233	H	0.249578	0.861998	0.282578
	H2234	H	0.248561	0.643633	0.342038
	H2235	H	0.247996	0.863021	0.341874
	H2236	H	0.180274	0.441069	0.248710
	H2237	H	0.231142	0.441237	0.366321
	H2238	H	0.184425	0.440958	0.243452
	H2239	H	0.192359	0.441439	0.243160
	H2240	H	0.222409	0.441318	0.364344
	H2241	H	0.226671	0.441908	0.363865
	H2242	H	0.231008	0.564444	0.366259
	H2243	H	0.180271	0.564383	0.248720
	H2244	H	0.226640	0.564843	0.363895
	H2245	H	0.222405	0.565108	0.364350
	H2246	H	0.192228	0.564448	0.243169
	H2247	H	0.184326	0.564935	0.243461
	H2248	H	0.248305	0.142789	0.341979
	H2249	H	0.248540	0.361484	0.342004
	H2250	H	0.186273	0.064636	0.249162
	H2251	H	0.189430	0.064380	0.250111
	H2252	H	0.185863	0.064334	0.246586
	H2253	H	0.186837	0.860735	0.345111
	H2254	H	0.186931	0.643745	0.344958
	H2255	H	0.186874	0.361982	0.344952
	H2256	H	0.186681	0.145325	0.345071
	H2257	H	0.166511	0.143842	0.272323
	H2258	H	0.228337	0.144461	0.269386
	H2259	H	0.228249	0.361233	0.269455
	H2260	H	0.167126	0.363050	0.272403
	H2261	H	0.249585	0.144095	0.282569
	H2262	H	0.249507	0.361337	0.282661
	H2263	H	0.218460	0.064764	0.365178
	H2264	H	0.219464	0.064437	0.368497
	H2265	H	0.227398	0.064787	0.370380
	H2266	H	0.189356	0.941312	0.250048
	H2267	H	0.186226	0.941124	0.249111
	H2268	H	0.185956	0.941037	0.246543
	H2269	H	0.218452	0.941377	0.365147
	H2270	H	0.219426	0.941674	0.368475
	H2271	H	0.227429	0.941095	0.370390
	Zn2272	Zn	0.126809	0.680422	0.310231
	Zn2273	Zn	0.126867	0.825349	0.310238
	Zn2274	Zn	0.126841	0.180398	0.310214
	Zn2275	Zn	0.126819	0.325461	0.310248
	Zn2276	Zn	0.225708	0.680393	0.366580
	Zn2277	Zn	0.225466	0.825857	0.366530
	Zn2278	Zn	0.225568	0.180207	0.366552
	Zn2279	Zn	0.225759	0.325637	0.366588
	C2280	C	0.263779	0.753141	0.291257
	C2281	C	0.151441	0.752803	0.323130
	C2282	C	0.164376	0.752702	0.331024
	C2283	C	0.170390	0.691293	0.334729
	C2284	C	0.170335	0.813939	0.334815
	C2285	C	0.151374	0.253398	0.323098
	C2286	C	0.164316	0.253425	0.330990
	C2287	C	0.170253	0.192152	0.334764
	C2288	C	0.170355	0.314794	0.334690
	C2289	C	0.148680	0.752899	0.297706
	C2290	C	0.156337	0.752911	0.288806
	C2291	C	0.159200	0.814798	0.284434
	C2292	C	0.159346	0.690937	0.284495
	C2293	C	0.148773	0.253514	0.297723
	C2294	C	0.156331	0.253659	0.288779
	C2295	C	0.159340	0.315586	0.284428
	C2296	C	0.159040	0.191556	0.284399
	C2297	C	0.284793	0.043160	0.303243
	C2298	C	0.284846	0.962389	0.303238
	C2299	C	0.126728	0.043159	0.309932
	C2300	C	0.126758	0.962348	0.309941
	C2301	C	0.126403	0.043397	0.310360
	C2302	C	0.126414	0.962386	0.310367
	C2303	C	0.127553	0.462342	0.306363
	C2304	C	0.287529	0.462305	0.303742
	C2305	C	0.289507	0.462252	0.303933
	C2306	C	0.127509	0.543370	0.306366
	C2307	C	0.289535	0.543196	0.303916
	C2308	C	0.287557	0.543203	0.303721
	C2309	C	0.266379	0.753353	0.316607
	C2310	C	0.266433	0.252117	0.316654
	C2311	C	0.258701	0.753291	0.325524
	C2312	C	0.255938	0.691249	0.329931
	C2313	C	0.255651	0.815252	0.329847
	C2314	C	0.258877	0.252004	0.325585
	C2315	C	0.255936	0.190114	0.329925
	C2316	C	0.256090	0.313869	0.329972
	C2317	C	0.263750	0.252580	0.291260
	C2318	C	0.214100	0.753157	0.260695
	C2319	C	0.173179	0.752663	0.262138
	C2320	C	0.201044	0.752321	0.353713
	C2321	C	0.244817	0.691604	0.279664
	C2322	C	0.244807	0.814735	0.279653
	C2323	C	0.227044	0.753070	0.268573
	C2324	C	0.167278	0.752693	0.271461
	C2325	C	0.164788	0.690767	0.275901
	C2326	C	0.233045	0.691428	0.272321
	C2327	C	0.233054	0.814695	0.272305
	C2328	C	0.164640	0.814734	0.275843
	C2329	C	0.250784	0.753218	0.283411
	C2330	C	0.242070	0.753575	0.352287
	C2331	C	0.250562	0.691281	0.338546
	C2332	C	0.250261	0.815348	0.338456
	C2333	C	0.247876	0.753411	0.342940
	C2334	C	0.229289	0.462354	0.367206
	C2335	C	0.188637	0.462445	0.244508
	C2336	C	0.224915	0.462618	0.364759
	C2337	C	0.229269	0.543431	0.367178
	C2338	C	0.224872	0.543626	0.364761
	C2339	C	0.188584	0.543110	0.244521
	C2340	C	0.242059	0.252176	0.352301
	C2341	C	0.250511	0.190216	0.338532
	C2342	C	0.250672	0.313847	0.338570
	C2343	C	0.247993	0.252026	0.342983
	C2344	C	0.188238	0.043247	0.249167
	C2345	C	0.214153	0.252613	0.260739
	C2346	C	0.173062	0.253399	0.262101
	C2347	C	0.201002	0.253562	0.353700
	C2348	C	0.244858	0.191275	0.279642
	C2349	C	0.244821	0.314180	0.279691
	C2350	C	0.227118	0.252843	0.268598
	C2351	C	0.167142	0.253535	0.271398
	C2352	C	0.188081	0.752262	0.345864
	C2353	C	0.182113	0.813720	0.342149
	C2354	C	0.182164	0.691030	0.342068
	C2355	C	0.187998	0.253746	0.345848
	C2356	C	0.182118	0.314942	0.342036
	C2357	C	0.182001	0.192328	0.342114
	C2358	C	0.164441	0.191466	0.275794
	C2359	C	0.233079	0.191475	0.272321
	C2360	C	0.233032	0.314171	0.272367
	C2361	C	0.164764	0.315576	0.275828
	C2362	C	0.250811	0.252651	0.283398
	C2363	C	0.220751	0.043307	0.366757
	C2364	C	0.187901	0.043193	0.246581
	C2365	C	0.188197	0.962438	0.249119
	C2366	C	0.220724	0.962802	0.366744
	C2367	C	0.187906	0.962452	0.246560
	N2368	N	0.126777	0.070210	0.310186
	N2369	N	0.126791	0.935596	0.310203
	N2370	N	0.126707	0.435723	0.310229
	N2371	N	0.126705	0.570287	0.310233
	N2372	N	0.225867	0.435823	0.366605
	N2373	N	0.225856	0.570381	0.366564
	N2374	N	0.225678	0.070232	0.366540
	N2375	N	0.225648	0.935782	0.366502
	O2376	O	0.236107	0.694917	0.424836
	O2377	O	0.236313	0.811727	0.424856
	O2378	O	0.177210	0.694685	0.441088
	O2379	O	0.177226	0.811711	0.441033
	O2380	O	0.177247	0.194198	0.441014
	O2381	O	0.177278	0.310926	0.441069
	O2382	O	0.177026	0.695197	0.418359
	O2383	O	0.177018	0.811525	0.418315
	O2384	O	0.176931	0.194762	0.418343
	O2385	O	0.177093	0.311224	0.418402
	O2386	O	0.233715	0.695005	0.446057
	O2387	O	0.234064	0.811449	0.446144
	O2388	O	0.233839	0.194568	0.446100
	O2389	O	0.233789	0.311257	0.446050
	O2390	O	0.236240	0.194227	0.424928
	O2391	O	0.236215	0.310896	0.424871
	O2392	O	0.239909	0.695451	0.378497
	O2393	O	0.207242	0.694083	0.375825
	O2394	O	0.206165	0.694204	0.489421
	O2395	O	0.206511	0.810712	0.489536
	O2396	O	0.173425	0.695358	0.487446
	O2397	O	0.173582	0.812058	0.487399
	O2398	O	0.206937	0.810735	0.375679
	O2399	O	0.239835	0.812302	0.378494
	O2400	O	0.239672	0.193768	0.378528
	O2401	O	0.206921	0.194951	0.375684
	O2402	O	0.206700	0.196409	0.489548
	O2403	O	0.206100	0.312937	0.489370
	O2404	O	0.173915	0.193483	0.487364
	O2405	O	0.173249	0.310317	0.487368
	O2406	O	0.207167	0.311714	0.375780
	O2407	O	0.239826	0.310637	0.378530
	H2408	H	0.176085	0.643610	0.456013
	H2409	H	0.176451	0.863745	0.455926
	H2410	H	0.176612	0.142263	0.455898
	H2411	H	0.175862	0.361956	0.455959
	H2412	H	0.185377	0.862418	0.404369
	H2413	H	0.186066	0.643598	0.404548
	H2414	H	0.185783	0.362460	0.404462
	H2415	H	0.185372	0.143803	0.404346
	H2416	H	0.245305	0.064658	0.434182
	H2417	H	0.244476	0.064585	0.437413
	H2418	H	0.244522	0.940974	0.437394
	H2419	H	0.245289	0.940956	0.434193
	H2420	H	0.253234	0.064258	0.432792
	H2421	H	0.253194	0.940842	0.432834
	H2422	H	0.163075	0.064966	0.431372
	H2423	H	0.163049	0.941356	0.431385
	H2424	H	0.166457	0.065055	0.430761
	H2425	H	0.166443	0.941361	0.430777
	H2426	H	0.166976	0.064857	0.428212
	H2427	H	0.166984	0.941653	0.428185
	H2428	H	0.158781	0.441423	0.426864
	H2429	H	0.157413	0.441325	0.429345
	H2430	H	0.165410	0.441389	0.426302
	H2431	H	0.251012	0.441140	0.431101
	H2432	H	0.261009	0.441191	0.434936
	H2433	H	0.260542	0.441607	0.439546
	H2434	H	0.157435	0.564745	0.429343
	H2435	H	0.158802	0.564522	0.426875
	H2436	H	0.260425	0.564868	0.439524
	H2437	H	0.260867	0.564907	0.434987
	H2438	H	0.250963	0.564261	0.431090
	H2439	H	0.165363	0.564826	0.426317
	H2440	H	0.224215	0.643477	0.459820
	H2441	H	0.224492	0.863024	0.459983
	H2442	H	0.224603	0.143449	0.460001
	H2443	H	0.224085	0.363494	0.459739
	H2444	H	0.195840	0.643253	0.389078
	H2445	H	0.239089	0.643855	0.393413
	H2446	H	0.238654	0.863777	0.393447
	H2447	H	0.195252	0.862317	0.388879
	H2448	H	0.236073	0.643640	0.409907
	H2449	H	0.235687	0.863639	0.409925
	H2450	H	0.215844	0.642918	0.475596
	H2451	H	0.216128	0.862563	0.475748
	H2452	H	0.229901	0.440633	0.368533
	H2453	H	0.184082	0.440958	0.498277
	H2454	H	0.224062	0.441284	0.369151
	H2455	H	0.220890	0.441800	0.367382
	H2456	H	0.189994	0.441365	0.501368
	H2457	H	0.186091	0.441312	0.500950
	H2458	H	0.184145	0.564564	0.498311
	H2459	H	0.229896	0.564673	0.368476
	H2460	H	0.186211	0.564689	0.500951
	H2461	H	0.190034	0.564584	0.501382
	H2462	H	0.220880	0.564596	0.367350
	H2463	H	0.224053	0.564382	0.369141
	H2464	H	0.216345	0.144383	0.475811
	H2465	H	0.215791	0.364397	0.475528
	H2466	H	0.230941	0.064665	0.363996
	H2467	H	0.225106	0.064800	0.362638
	H2468	H	0.232356	0.065171	0.368529
	H2469	H	0.173190	0.864011	0.472392
	H2470	H	0.172814	0.643904	0.472474
	H2471	H	0.172759	0.361631	0.472442
	H2472	H	0.173483	0.141816	0.472400
	H2473	H	0.195181	0.143916	0.388831
	H2474	H	0.238583	0.142614	0.393486
	H2475	H	0.238837	0.361950	0.393381
	H2476	H	0.195584	0.362605	0.388986
	H2477	H	0.235592	0.142932	0.409986
	H2478	H	0.235809	0.362435	0.409865
	H2479	H	0.189147	0.065071	0.493926
	H2480	H	0.181786	0.065205	0.495458
	H2481	H	0.180801	0.064700	0.501242
	H2482	H	0.225088	0.941299	0.362598
	H2483	H	0.230921	0.941665	0.364000
	H2484	H	0.232283	0.941005	0.368484
	H2485	H	0.189090	0.941526	0.493948
	H2486	H	0.181794	0.941174	0.495458
	H2487	H	0.180787	0.941552	0.501247
	Zn2488	Zn	0.163080	0.680373	0.429082
	Zn2489	Zn	0.163067	0.825707	0.429090
	Zn2490	Zn	0.163082	0.180329	0.429097
	Zn2491	Zn	0.163106	0.325719	0.429088
	Zn2492	Zn	0.188644	0.680563	0.499014
	Zn2493	Zn	0.189069	0.825726	0.499041
	Zn2494	Zn	0.189174	0.180454	0.499043
	Zn2495	Zn	0.188552	0.325483	0.498963
	C2496	C	0.235542	0.753360	0.420942
	C2497	C	0.177454	0.753280	0.444963
	C2498	C	0.176737	0.753606	0.454994
	C2499	C	0.175502	0.691523	0.459670
	C2500	C	0.175706	0.816001	0.459617
	C2501	C	0.177514	0.252444	0.444966
	C2502	C	0.176728	0.252219	0.454979
	C2503	C	0.175816	0.189883	0.459601
	C2504	C	0.175443	0.314235	0.459640
	C2505	C	0.179394	0.753278	0.414729
	C2506	C	0.185269	0.753021	0.405409
	C2507	C	0.187669	0.814798	0.400942
	C2508	C	0.188029	0.691100	0.401052
	C2509	C	0.179353	0.253025	0.414756
	C2510	C	0.185198	0.253050	0.405410
	C2511	C	0.187881	0.314944	0.401004
	C2512	C	0.187637	0.191318	0.400927
	C2513	C	0.246640	0.043016	0.435979
	C2514	C	0.246663	0.962213	0.435990
	C2515	C	0.164412	0.043569	0.430562
	C2516	C	0.164371	0.962507	0.430555
	C2517	C	0.164984	0.043735	0.427986
	C2518	C	0.164985	0.962756	0.427978
	C2519	C	0.159514	0.462806	0.428378
	C2520	C	0.248233	0.462566	0.433176
	C2521	C	0.258289	0.462361	0.437065
	C2522	C	0.159528	0.543511	0.428365
	C2523	C	0.258217	0.543206	0.437067
	C2524	C	0.248202	0.543265	0.433179
	C2525	C	0.230926	0.753257	0.449598
	C2526	C	0.230850	0.252962	0.449551
	C2527	C	0.224695	0.753227	0.458879
	C2528	C	0.222339	0.691100	0.463347
	C2529	C	0.222470	0.815055	0.463431
	C2530	C	0.224711	0.253354	0.458863
	C2531	C	0.222558	0.191437	0.463444
	C2532	C	0.222276	0.315806	0.463293
	C2533	C	0.235530	0.252488	0.420986
	C2534	C	0.240068	0.753855	0.382399
	C2535	C	0.203637	0.752520	0.379059
	C2536	C	0.172830	0.753672	0.483513
	C2537	C	0.236531	0.691375	0.406225
	C2538	C	0.236310	0.815880	0.406243
	C2539	C	0.239289	0.753870	0.392423
	C2540	C	0.196088	0.752732	0.387999
	C2541	C	0.193412	0.691027	0.392441
	C2542	C	0.238362	0.691602	0.397081
	C2543	C	0.238108	0.815908	0.397094
	C2544	C	0.193067	0.814711	0.392328
	C2545	C	0.235510	0.753572	0.410890
	C2546	C	0.209292	0.752546	0.485991
	C2547	C	0.217768	0.690897	0.472131
	C2548	C	0.217896	0.814794	0.472217
	C2549	C	0.215477	0.752736	0.476689
	C2550	C	0.186163	0.462418	0.497895
	C2551	C	0.223353	0.462967	0.367830
	C2552	C	0.188208	0.462694	0.500585
	C2553	C	0.186185	0.543274	0.497914
	C2554	C	0.188233	0.543369	0.500596
	C2555	C	0.223346	0.543231	0.367822
	C2556	C	0.209350	0.254656	0.485966
	C2557	C	0.218032	0.191970	0.472240
	C2558	C	0.217715	0.316280	0.472078
	C2559	C	0.215496	0.254370	0.476652
	C2560	C	0.227435	0.043424	0.364162
	C2561	C	0.239972	0.252175	0.382439
	C2562	C	0.203583	0.253321	0.379025
	C2563	C	0.172883	0.251882	0.483480
	C2564	C	0.236283	0.190549	0.406303
	C2565	C	0.236428	0.314638	0.406230
	C2566	C	0.239249	0.252287	0.392460
	C2567	C	0.196024	0.253214	0.387977
	C2568	C	0.172899	0.753910	0.473460
	C2569	C	0.173873	0.816114	0.468761
	C2570	C	0.173673	0.691676	0.468812
	C2571	C	0.172938	0.251809	0.473430
	C2572	C	0.173598	0.314027	0.468776
	C2573	C	0.173982	0.189741	0.468740
	C2574	C	0.193038	0.191354	0.392309
	C2575	C	0.238069	0.190445	0.397154
	C2576	C	0.238211	0.314439	0.397087
	C2577	C	0.193270	0.315047	0.392383
	C2578	C	0.235505	0.252696	0.410939
	C2579	C	0.186440	0.043485	0.495841
	C2580	C	0.228778	0.043657	0.368677
	C2581	C	0.227401	0.962721	0.364151
	C2582	C	0.186442	0.962512	0.495849
	C2583	C	0.228762	0.962436	0.368672
	N2584	N	0.163262	0.070306	0.429126
	N2585	N	0.163225	0.935789	0.429099
	N2586	N	0.163290	0.435829	0.429105
	N2587	N	0.163279	0.570331	0.429077
	N2588	N	0.188560	0.435846	0.498982
	N2589	N	0.188604	0.570411	0.498998
	N2590	N	0.189184	0.070311	0.499005
	N2591	N	0.189151	0.935819	0.499023
	O2592	O	0.200515	0.694033	0.557002
	O2593	O	0.200705	0.810943	0.556977
	O2594	O	0.142163	0.695442	0.573221
	O2595	O	0.142020	0.812138	0.573248
	O2596	O	0.141968	0.194722	0.573243
	O2597	O	0.142143	0.311506	0.573233
	O2598	O	0.144072	0.695484	0.551995
	O2599	O	0.144312	0.812145	0.552108
	O2600	O	0.144120	0.193841	0.552027
	O2601	O	0.144144	0.310644	0.551961
	O2602	O	0.200619	0.695233	0.579708
	O2603	O	0.200528	0.811811	0.579675
	O2604	O	0.200614	0.194142	0.579684
	O2605	O	0.200656	0.310552	0.579735
	O2606	O	0.200586	0.195080	0.556931
	O2607	O	0.200455	0.312036	0.557007
	O2608	O	0.204161	0.693644	0.510625
	O2609	O	0.171193	0.696438	0.508565
	O2610	O	0.170791	0.695268	0.622355
	O2611	O	0.170693	0.812023	0.622288
	O2612	O	0.138141	0.694851	0.619574
	O2613	O	0.138215	0.811943	0.619570
	O2614	O	0.171631	0.813204	0.508662
	O2615	O	0.204440	0.810408	0.510630
	O2616	O	0.204365	0.196131	0.510619
	O2617	O	0.171575	0.192977	0.508636
	O2618	O	0.170734	0.194471	0.622367
	O2619	O	0.170785	0.311218	0.622322
	O2620	O	0.138029	0.195533	0.619583
	O2621	O	0.138285	0.312343	0.619619
	O2622	O	0.171199	0.309897	0.508564
	O2623	O	0.203968	0.312921	0.510640
	H2624	H	0.142750	0.643648	0.588198
	H2625	H	0.142097	0.863753	0.588219
	H2626	H	0.142255	0.143515	0.588186
	H2627	H	0.142241	0.363576	0.588193
	H2628	H	0.154128	0.864350	0.538349
	H2629	H	0.153138	0.644104	0.538102
	H2630	H	0.153238	0.361541	0.538106
	H2631	H	0.153791	0.141478	0.538275
	H2632	H	0.215126	0.064438	0.573228
	H2633	H	0.221030	0.064557	0.571615
	H2634	H	0.221105	0.941257	0.571644
	H2635	H	0.215100	0.941088	0.573266
	H2636	H	0.206961	0.064989	0.570391
	H2637	H	0.206977	0.941132	0.570431
	H2638	H	0.123049	0.064761	0.556374
	H2639	H	0.122946	0.941650	0.556344
	H2640	H	0.116914	0.065370	0.559322
	H2641	H	0.116809	0.941850	0.559288
	H2642	H	0.119821	0.065415	0.565408
	H2643	H	0.119863	0.941579	0.565454
	H2644	H	0.119194	0.441284	0.563109
	H2645	H	0.124597	0.441479	0.565675
	H2646	H	0.120936	0.441772	0.558251
	H2647	H	0.218720	0.441258	0.566891
	H2648	H	0.220019	0.441450	0.570527
	H2649	H	0.216130	0.441787	0.572185
	H2650	H	0.124556	0.564961	0.565692
	H2651	H	0.119250	0.565115	0.563131
	H2652	H	0.216136	0.565018	0.572125
	H2653	H	0.219982	0.565197	0.570543
	H2654	H	0.218723	0.564652	0.566902
	H2655	H	0.120943	0.565515	0.558291
	H2656	H	0.192437	0.643854	0.593716
	H2657	H	0.191798	0.863135	0.593597
	H2658	H	0.192078	0.142817	0.593661
	H2659	H	0.192196	0.361832	0.593656
	H2660	H	0.161344	0.644397	0.522304
	H2661	H	0.204341	0.642150	0.525583
	H2662	H	0.205206	0.862102	0.525622
	H2663	H	0.162403	0.864754	0.522529
	H2664	H	0.201212	0.642423	0.542070
	H2665	H	0.202101	0.862309	0.542086
	H2666	H	0.182571	0.643793	0.609206
	H2667	H	0.181919	0.863177	0.609052
	H2668	H	0.186444	0.441103	0.496757
	H2669	H	0.136081	0.441052	0.632151
	H2670	H	0.191743	0.441602	0.497327
	H2671	H	0.193203	0.441456	0.499281
	H2672	H	0.162200	0.441747	0.638680
	H2673	H	0.148929	0.441570	0.639861
	H2674	H	0.136045	0.565612	0.632148
	H2675	H	0.186492	0.564638	0.496785
	H2676	H	0.148872	0.565166	0.639847
	H2677	H	0.162159	0.564629	0.638655
	H2678	H	0.193232	0.564985	0.499309
	H2679	H	0.191733	0.564964	0.497333
	H2680	H	0.182273	0.142949	0.609163
	H2681	H	0.182390	0.362159	0.609165
	H2682	H	0.197515	0.065029	0.501866
	H2683	H	0.198252	0.064899	0.497651
	H2684	H	0.187449	0.064420	0.503958
	H2685	H	0.138917	0.863310	0.604710
	H2686	H	0.139596	0.643469	0.604697
	H2687	H	0.139121	0.363876	0.604671
	H2688	H	0.139165	0.143664	0.604668
	H2689	H	0.162248	0.140992	0.522520
	H2690	H	0.205170	0.144552	0.525544
	H2691	H	0.204215	0.364869	0.525631
	H2692	H	0.161657	0.361330	0.522327
	H2693	H	0.202118	0.144009	0.542003
	H2694	H	0.201177	0.364103	0.542132
	H2695	H	0.151989	0.065007	0.629173
	H2696	H	0.148546	0.064966	0.629811
	H2697	H	0.147918	0.064731	0.632608
	H2698	H	0.198212	0.941081	0.497693
	H2699	H	0.197429	0.941105	0.501901
	H2700	H	0.187358	0.941541	0.503955
	H2701	H	0.152157	0.941313	0.629116
	H2702	H	0.148512	0.941915	0.629785
	H2703	H	0.148047	0.941620	0.632629
	Zn2704	Zn	0.126810	0.681027	0.561624
	Zn2705	Zn	0.126568	0.825844	0.561564
	Zn2706	Zn	0.126525	0.180735	0.561585
	Zn2707	Zn	0.126724	0.325519	0.561564
	Zn2708	Zn	0.152233	0.680591	0.631521
	Zn2709	Zn	0.152330	0.826105	0.631559
	Zn2710	Zn	0.152105	0.180439	0.631546
	Zn2711	Zn	0.152379	0.326027	0.631574
	C2712	C	0.200374	0.752417	0.553078
	C2713	C	0.142706	0.753760	0.577148
	C2714	C	0.142644	0.753749	0.587209
	C2715	C	0.141914	0.691406	0.591865
	C2716	C	0.141533	0.815900	0.591883
	C2717	C	0.142682	0.253159	0.577152
	C2718	C	0.142564	0.253461	0.587201
	C2719	C	0.141614	0.191351	0.591858
	C2720	C	0.141587	0.315739	0.591871
	C2721	C	0.147147	0.753930	0.548558
	C2722	C	0.153324	0.754164	0.539253
	C2723	C	0.155833	0.816517	0.534789
	C2724	C	0.155271	0.692030	0.534663
	C2725	C	0.146996	0.252104	0.548489
	C2726	C	0.153271	0.251702	0.539212
	C2727	C	0.155354	0.313759	0.534647
	C2728	C	0.155640	0.189308	0.534751
	C2729	C	0.217063	0.043373	0.571491
	C2730	C	0.217103	0.962655	0.571521
	C2731	C	0.121639	0.043796	0.558818
	C2732	C	0.121614	0.963150	0.558805
	C2733	C	0.124632	0.043739	0.564971
	C2734	C	0.124646	0.962902	0.564964
	C2735	C	0.123180	0.462753	0.563659
	C2736	C	0.215803	0.462662	0.567052
	C2737	C	0.217096	0.462614	0.570729
	C2738	C	0.123167	0.543776	0.563673
	C2739	C	0.217116	0.543570	0.570724
	C2740	C	0.215826	0.543414	0.567072
	C2741	C	0.198223	0.753585	0.583304
	C2742	C	0.198280	0.252256	0.583318
	C2743	C	0.192416	0.753480	0.592644
	C2744	C	0.190099	0.691452	0.597125
	C2745	C	0.189729	0.815467	0.597045
	C2746	C	0.192458	0.252329	0.592659
	C2747	C	0.189938	0.190467	0.597111
	C2748	C	0.190000	0.314350	0.597107
	C2749	C	0.200333	0.253716	0.553066
	C2750	C	0.204991	0.752013	0.514537
	C2751	C	0.168538	0.754858	0.512109
	C2752	C	0.137976	0.753388	0.615678
	C2753	C	0.201984	0.690042	0.538397
	C2754	C	0.202460	0.814446	0.538407
	C2755	C	0.204969	0.752079	0.524580
	C2756	C	0.162383	0.754588	0.521425
	C2757	C	0.159773	0.692245	0.525866
	C2758	C	0.203845	0.689911	0.529256
	C2759	C	0.204322	0.814349	0.529268
	C2760	C	0.160361	0.816729	0.525993
	C2761	C	0.201139	0.752338	0.543049
	C2762	C	0.174147	0.753569	0.619015
	C2763	C	0.184712	0.691428	0.605743
	C2764	C	0.184371	0.815453	0.605656
	C2765	C	0.181686	0.753470	0.610071
	C2766	C	0.141697	0.462581	0.629518
	C2767	C	0.191461	0.462758	0.498482
	C2768	C	0.154617	0.462917	0.637248
	C2769	C	0.141692	0.543837	0.629505
	C2770	C	0.154571	0.543634	0.637236
	C2771	C	0.191467	0.543669	0.498491
	C2772	C	0.174206	0.252729	0.619049
	C2773	C	0.184585	0.190533	0.605730
	C2774	C	0.184650	0.314503	0.605734
	C2775	C	0.181758	0.252559	0.610095
	C2776	C	0.195585	0.043652	0.499562
	C2777	C	0.204811	0.254553	0.514540
	C2778	C	0.168530	0.251374	0.512098
	C2779	C	0.137952	0.253986	0.615687
	C2780	C	0.202471	0.192010	0.538354
	C2781	C	0.201978	0.316445	0.538436
	C2782	C	0.204857	0.254778	0.524585
	C2783	C	0.162301	0.251250	0.521403
	C2784	C	0.138699	0.753324	0.605665
	C2785	C	0.139664	0.815682	0.601022
	C2786	C	0.140044	0.691246	0.601009
	C2787	C	0.138692	0.253781	0.605684
	C2788	C	0.139750	0.315910	0.601016
	C2789	C	0.139776	0.191563	0.601000
	C2790	C	0.160192	0.189034	0.525962
	C2791	C	0.204229	0.192246	0.529210
	C2792	C	0.203747	0.316871	0.529286
	C2793	C	0.159875	0.313526	0.525859
	C2794	C	0.201103	0.254062	0.543052
	C2795	C	0.150692	0.043616	0.630025
	C2796	C	0.185450	0.043371	0.501665
	C2797	C	0.195548	0.962544	0.499590
	C2798	C	0.150755	0.962788	0.630018
	C2799	C	0.185411	0.962913	0.501663
	N2800	N	0.126395	0.070599	0.561581
	N2801	N	0.126434	0.936068	0.561556
	N2802	N	0.126733	0.435980	0.561575
	N2803	N	0.126720	0.570640	0.561612
	N2804	N	0.152126	0.435878	0.631543
	N2805	N	0.152084	0.570416	0.631532
	N2806	N	0.151943	0.070422	0.631578
	N2807	N	0.152056	0.935980	0.631549
	O2808	O	0.231156	0.694474	0.678155
	O2809	O	0.231152	0.810753	0.678138
	O2810	O	0.109293	0.695497	0.703898
	O2811	O	0.109087	0.811712	0.703995
	O2812	O	0.109160	0.195267	0.703986
	O2813	O	0.109286	0.311523	0.703897
	O2814	O	0.108345	0.695207	0.684836
	O2815	O	0.108296	0.811955	0.684882
	O2816	O	0.108313	0.194889	0.684882
	O2817	O	0.108367	0.311576	0.684914
	O2818	O	0.232340	0.694495	0.697238
	O2819	O	0.232188	0.811225	0.697197
	O2820	O	0.232410	0.194306	0.697315
	O2821	O	0.232231	0.311212	0.697292
	O2822	O	0.231335	0.194258	0.678066
	O2823	O	0.231154	0.310480	0.678163
	O2824	O	0.171660	0.694268	0.641463
	O2825	O	0.138238	0.695004	0.642290
	O2826	O	0.201824	0.694186	0.739733
	O2827	O	0.202191	0.810593	0.739769
	O2828	O	0.168662	0.695270	0.740592
	O2829	O	0.168640	0.811488	0.740670
	O2830	O	0.138242	0.811473	0.642261
	O2831	O	0.171699	0.810651	0.641457
	O2832	O	0.171655	0.194129	0.641435
	O2833	O	0.138187	0.194996	0.642265
	O2834	O	0.202006	0.194659	0.739800
	O2835	O	0.202191	0.310974	0.739820
	O2836	O	0.168630	0.195319	0.740625
	O2837	O	0.168522	0.311562	0.740690
	O2838	O	0.138324	0.311419	0.642275
	O2839	O	0.171860	0.310218	0.641392
	H2840	H	0.128621	0.645336	0.715541
	H2841	H	0.128389	0.861927	0.715655
	H2842	H	0.128371	0.145687	0.715641
	H2843	H	0.128322	0.361265	0.715627
	H2844	H	0.119762	0.863257	0.671667
	H2845	H	0.119731	0.644251	0.671653
	H2846	H	0.119978	0.362812	0.671691
	H2847	H	0.119804	0.144244	0.671706
	H2848	H	0.252927	0.064880	0.689802
	H2849	H	0.254714	0.064832	0.688394
	H2850	H	0.254606	0.941556	0.688433
	H2851	H	0.252845	0.941324	0.689793
	H2852	H	0.248320	0.064443	0.689562
	H2853	H	0.248242	0.941154	0.689575
	H2854	H	0.083032	0.064505	0.695148
	H2855	H	0.083054	0.940902	0.695144
	H2856	H	0.087290	0.064472	0.697455
	H2857	H	0.087213	0.941621	0.697440
	H2858	H	0.095047	0.064816	0.696610
	H2859	H	0.095044	0.941326	0.696569
	H2860	H	0.083526	0.441157	0.695289
	H2861	H	0.087755	0.441383	0.697347
	H2862	H	0.085016	0.441790	0.691322
	H2863	H	0.259326	0.441196	0.684370
	H2864	H	0.260724	0.441009	0.691412
	H2865	H	0.252912	0.441807	0.694125
	H2866	H	0.087854	0.564357	0.697318
	H2867	H	0.083593	0.564625	0.695254
	H2868	H	0.253022	0.564385	0.694097
	H2869	H	0.260800	0.564861	0.691360
	H2870	H	0.259314	0.564647	0.684351
	H2871	H	0.085047	0.564766	0.691307
	H2872	H	0.220414	0.643110	0.710312
	H2873	H	0.220832	0.862202	0.710465
	H2874	H	0.220628	0.143045	0.710444
	H2875	H	0.220577	0.362124	0.710416
	H2876	H	0.129593	0.644208	0.656196
	H2877	H	0.190935	0.643870	0.653121
	H2878	H	0.190868	0.860869	0.653182
	H2879	H	0.129680	0.862997	0.656193
	H2880	H	0.212073	0.643683	0.666381
	H2881	H	0.211979	0.860750	0.666439
	H2882	H	0.210418	0.642706	0.725766
	H2883	H	0.210873	0.861665	0.725917
	H2884	H	0.139964	0.441381	0.625426
	H2885	H	0.185721	0.441052	0.749874
	H2886	H	0.158284	0.441657	0.623843
	H2887	H	0.167591	0.441388	0.629469
	H2888	H	0.188280	0.441046	0.751933
	H2889	H	0.186255	0.440761	0.751424
	H2890	H	0.185697	0.563851	0.749890
	H2891	H	0.140007	0.565135	0.625416
	H2892	H	0.186233	0.564286	0.751458
	H2893	H	0.188323	0.564880	0.751970
	H2894	H	0.167543	0.564940	0.629485
	H2895	H	0.158314	0.564212	0.623842
	H2896	H	0.210655	0.143086	0.725877
	H2897	H	0.210642	0.362046	0.725883
	H2898	H	0.156049	0.064451	0.633022
	H2899	H	0.156414	0.065147	0.630929
	H2900	H	0.151140	0.064606	0.633938
	H2901	H	0.149489	0.861838	0.728945
	H2902	H	0.149704	0.645642	0.728808
	H2903	H	0.149418	0.361821	0.728918
	H2904	H	0.149455	0.145409	0.728927
	H2905	H	0.129523	0.144138	0.656215
	H2906	H	0.191008	0.143939	0.653104
	H2907	H	0.190926	0.360338	0.653156
	H2908	H	0.129668	0.362754	0.656163
	H2909	H	0.212108	0.143988	0.666376
	H2910	H	0.212027	0.360473	0.666441
	H2911	H	0.194709	0.064550	0.754353
	H2912	H	0.197709	0.065132	0.750561
	H2913	H	0.190728	0.064579	0.745695
	H2914	H	0.156486	0.941352	0.630898
	H2915	H	0.156120	0.941191	0.632979
	H2916	H	0.151221	0.941307	0.633906
	H2917	H	0.194839	0.941550	0.754357
	H2918	H	0.197766	0.941209	0.750556
	H2919	H	0.190886	0.941270	0.745734
	Zn2920	Zn	0.089752	0.680317	0.694032
	Zn2921	Zn	0.089567	0.825739	0.694013
	Zn2922	Zn	0.089855	0.180167	0.694082
	Zn2923	Zn	0.089749	0.325658	0.694034
	Zn2924	Zn	0.188013	0.680208	0.750518
	Zn2925	Zn	0.188250	0.825529	0.750485
	Zn2926	Zn	0.188034	0.180202	0.750516
	Zn2927	Zn	0.188115	0.325615	0.750530
	C2928	C	0.226125	0.752554	0.675129
	C2929	C	0.114303	0.753617	0.706930
	C2930	C	0.127182	0.753674	0.714823
	C2931	C	0.133210	0.692455	0.718534
	C2932	C	0.133088	0.814880	0.718600
	C2933	C	0.114301	0.253442	0.706925
	C2934	C	0.127162	0.253490	0.714838
	C2935	C	0.133068	0.192380	0.718609
	C2936	C	0.133066	0.314601	0.718594
	C2937	C	0.111732	0.753700	0.681562
	C2938	C	0.119254	0.753786	0.672617
	C2939	C	0.122045	0.815639	0.668241
	C2940	C	0.122010	0.691835	0.668237
	C2941	C	0.111772	0.253313	0.681595
	C2942	C	0.119276	0.253632	0.672632
	C2943	C	0.122114	0.315379	0.668241
	C2944	C	0.122071	0.191785	0.668269
	C2945	C	0.253039	0.043662	0.688816
	C2946	C	0.252998	0.962765	0.688811
	C2947	C	0.086282	0.043312	0.695692
	C2948	C	0.086262	0.962542	0.695698
	C2949	C	0.094097	0.043661	0.694834
	C2950	C	0.094042	0.962662	0.694811
	C2951	C	0.086702	0.462542	0.695692
	C2952	C	0.253811	0.462673	0.684451
	C2953	C	0.255238	0.462690	0.691520
	C2954	C	0.086726	0.543386	0.695682
	C2955	C	0.255315	0.543383	0.691505
	C2956	C	0.253818	0.543308	0.684438
	C2957	C	0.228817	0.752823	0.700510
	C2958	C	0.228864	0.252704	0.700581
	C2959	C	0.221192	0.752693	0.709438
	C2960	C	0.218139	0.690675	0.713751
	C2961	C	0.218394	0.814482	0.713838
	C2962	C	0.221199	0.252704	0.709501
	C2963	C	0.218299	0.190698	0.713847
	C2964	C	0.218258	0.314613	0.713844
	C2965	C	0.226155	0.252349	0.675123
	C2966	C	0.176805	0.752475	0.644435
	C2967	C	0.135892	0.753309	0.645885
	C2968	C	0.163589	0.753497	0.737626
	C2969	C	0.207302	0.690809	0.663461
	C2970	C	0.207262	0.813640	0.663498
	C2971	C	0.189655	0.752485	0.652345
	C2972	C	0.130033	0.753560	0.655212
	C2973	C	0.127430	0.691742	0.659636
	C2974	C	0.195591	0.690947	0.656093
	C2975	C	0.195563	0.813720	0.656138
	C2976	C	0.127484	0.815486	0.659635
	C2977	C	0.213224	0.752255	0.667235
	C2978	C	0.204395	0.752287	0.736150
	C2979	C	0.212725	0.690377	0.722359
	C2980	C	0.212975	0.814221	0.722444
	C2981	C	0.210293	0.752229	0.726830
	C2982	C	0.187016	0.462564	0.749820
	C2983	C	0.160071	0.462869	0.627961
	C2984	C	0.187509	0.462410	0.751400
	C2985	C	0.186990	0.543206	0.749812
	C2986	C	0.187511	0.543492	0.751410
	C2987	C	0.160044	0.543391	0.627957
	C2988	C	0.204453	0.252798	0.736201
	C2989	C	0.212833	0.190696	0.722441
	C2990	C	0.212829	0.314578	0.722447
	C2991	C	0.210279	0.252701	0.726867
	C2992	C	0.155088	0.043631	0.631853
	C2993	C	0.176817	0.252093	0.644414
	C2994	C	0.135910	0.253277	0.645882
	C2995	C	0.163517	0.253501	0.737659
	C2996	C	0.207343	0.190932	0.663450
	C2997	C	0.207306	0.313469	0.663488
	C2998	C	0.189647	0.252215	0.652349
	C2999	C	0.130033	0.253468	0.655206
	C3000	C	0.150718	0.753785	0.729721
	C3001	C	0.144762	0.814979	0.725975
	C3002	C	0.144887	0.692507	0.725910
	C3003	C	0.150672	0.253647	0.729735
	C3004	C	0.144749	0.314775	0.725967
	C3005	C	0.144763	0.192387	0.725975
	C3006	C	0.127452	0.191714	0.659657
	C3007	C	0.195650	0.190968	0.656075
	C3008	C	0.195634	0.313356	0.656108
	C3009	C	0.127514	0.315320	0.659625
	C3010	C	0.213240	0.252235	0.667227
	C3011	C	0.194137	0.043560	0.751942
	C3012	C	0.150157	0.043501	0.632829
	C3013	C	0.155143	0.962703	0.631848
	C3014	C	0.194162	0.962685	0.751949
	C3015	C	0.150233	0.962678	0.632815
	N3016	N	0.089553	0.070301	0.694064
	N3017	N	0.089489	0.935767	0.694041
	N3018	N	0.089585	0.435713	0.694057
	N3019	N	0.089602	0.570246	0.694043
	N3020	N	0.188165	0.435701	0.750565
	N3021	N	0.188147	0.570204	0.750574
	N3022	N	0.188167	0.070289	0.750461
	N3023	N	0.188270	0.935779	0.750465
	O3024	O	0.195740	0.694248	0.808528
	O3025	O	0.195728	0.811021	0.808507
	O3026	O	0.139907	0.694434	0.824800
	O3027	O	0.139790	0.811245	0.824793
	O3028	O	0.139853	0.194124	0.824729
	O3029	O	0.139936	0.310898	0.824805
	O3030	O	0.139340	0.694659	0.802231
	O3031	O	0.139384	0.811010	0.802262
	O3032	O	0.139410	0.194521	0.802262
	O3033	O	0.139446	0.311120	0.802293
	O3034	O	0.196563	0.695185	0.831083
	O3035	O	0.196667	0.811695	0.831095
	O3036	O	0.196435	0.194774	0.831025
	O3037	O	0.196491	0.311238	0.831010
	O3038	O	0.195859	0.194003	0.808447
	O3039	O	0.195905	0.310734	0.808441
	O3040	O	0.202761	0.694779	0.762351
	O3041	O	0.169680	0.694898	0.759739
	O3042	O	0.166533	0.694332	0.873593
	O3043	O	0.166451	0.811027	0.873608
	O3044	O	0.133552	0.693918	0.871027
	O3045	O	0.133593	0.810892	0.870973
	O3046	O	0.169916	0.811681	0.759807
	O3047	O	0.202682	0.811588	0.762376
	O3048	O	0.202738	0.194060	0.762309
	O3049	O	0.169664	0.194536	0.759771
	O3050	O	0.166430	0.194963	0.873537
	O3051	O	0.166320	0.311669	0.873535
	O3052	O	0.133752	0.193832	0.870987
	O3053	O	0.133499	0.310650	0.870988
	O3054	O	0.169620	0.311355	0.759739
	O3055	O	0.202756	0.310992	0.762309
	H3056	H	0.138792	0.642883	0.839706
	H3057	H	0.138762	0.862522	0.839688
	H3058	H	0.138609	0.142291	0.839674
	H3059	H	0.138917	0.361989	0.839721
	H3060	H	0.147814	0.862303	0.788306
	H3061	H	0.148236	0.643870	0.788367
	H3062	H	0.148381	0.362648	0.788457
	H3063	H	0.148143	0.143290	0.788400
	H3064	H	0.206580	0.064650	0.823860
	H3065	H	0.213213	0.063943	0.824319
	H3066	H	0.213200	0.941373	0.824326
	H3067	H	0.206544	0.940662	0.823846
	H3068	H	0.202566	0.064705	0.819359
	H3069	H	0.202525	0.940745	0.819324
	H3070	H	0.125791	0.064377	0.813212
	H3071	H	0.125811	0.940631	0.813216
	H3072	H	0.126107	0.064463	0.812935
	H3073	H	0.126056	0.940884	0.812943
	H3074	H	0.125619	0.064262	0.812465
	H3075	H	0.125621	0.940737	0.812516
	H3076	H	0.124618	0.441290	0.808134
	H3077	H	0.118039	0.440952	0.809912
	H3078	H	0.133471	0.440994	0.811340
	H3079	H	0.204649	0.441478	0.821995
	H3080	H	0.205045	0.440892	0.817963
	H3081	H	0.210127	0.440593	0.816815
	H3082	H	0.118042	0.564353	0.809891
	H3083	H	0.124635	0.564505	0.808175
	H3084	H	0.210052	0.564550	0.816869
	H3085	H	0.205013	0.564128	0.817988
	H3086	H	0.204629	0.564526	0.822049
	H3087	H	0.133547	0.564407	0.811310
	H3088	H	0.187821	0.643896	0.844902
	H3089	H	0.188171	0.862806	0.845055
	H3090	H	0.187973	0.143750	0.844976
	H3091	H	0.187837	0.362683	0.844882
	H3092	H	0.158192	0.643943	0.772927
	H3093	H	0.201574	0.643256	0.777283
	H3094	H	0.201040	0.862627	0.777231
	H3095	H	0.157801	0.862487	0.772856
	H3096	H	0.197374	0.643149	0.793659
	H3097	H	0.196745	0.862570	0.793586
	H3098	H	0.177934	0.643441	0.860371
	H3099	H	0.178217	0.862606	0.860502
	H3100	H	0.187424	0.441109	0.749177
	H3101	H	0.152914	0.441625	0.886752
	H3102	H	0.190210	0.441579	0.749835
	H3103	H	0.190622	0.441853	0.751011
	H3104	H	0.151678	0.440783	0.878978
	H3105	H	0.156272	0.441467	0.882072
	H3106	H	0.152877	0.564016	0.886774
	H3107	H	0.187389	0.564675	0.749204
	H3108	H	0.156288	0.564213	0.882082
	H3109	H	0.151612	0.565132	0.878975
	H3110	H	0.190638	0.565205	0.750990
	H3111	H	0.190240	0.565424	0.749859
	H3112	H	0.177973	0.143989	0.860412
	H3113	H	0.177888	0.362814	0.860350
	H3114	H	0.178856	0.064653	0.751298
	H3115	H	0.183801	0.064491	0.754856
	H3116	H	0.182841	0.064310	0.746068
	H3117	H	0.134824	0.862499	0.856085
	H3118	H	0.134879	0.642735	0.856107
	H3119	H	0.134930	0.361833	0.856115
	H3120	H	0.134596	0.142460	0.856070
	H3121	H	0.157995	0.143219	0.772921
	H3122	H	0.201617	0.142517	0.777213
	H3123	H	0.201533	0.362109	0.777227
	H3124	H	0.158207	0.362710	0.772981
	H3125	H	0.197286	0.142367	0.793553
	H3126	H	0.197192	0.361993	0.793565
	H3127	H	0.154067	0.064345	0.884120
	H3128	H	0.153431	0.064148	0.881316
	H3129	H	0.146820	0.064228	0.879593
	H3130	H	0.183905	0.940954	0.754804
	H3131	H	0.178937	0.940979	0.751314
	H3132	H	0.182915	0.941389	0.746068
	H3133	H	0.154018	0.940662	0.884125
	H3134	H	0.153476	0.940767	0.881281
	H3135	H	0.146791	0.940807	0.879552
	Zn3136	Zn	0.125366	0.680529	0.812952
	Zn3137	Zn	0.125327	0.825072	0.812955
	Zn3138	Zn	0.125276	0.180437	0.812906
	Zn3139	Zn	0.125355	0.325075	0.812960
	Zn3140	Zn	0.148084	0.680189	0.882891
	Zn3141	Zn	0.148037	0.824960	0.882823
	Zn3142	Zn	0.148120	0.180376	0.882844
	Zn3143	Zn	0.147957	0.325216	0.882902
	C3144	C	0.195586	0.752604	0.804601
	C3145	C	0.140048	0.752807	0.828712
	C3146	C	0.139147	0.752779	0.838720
	C3147	C	0.137957	0.690592	0.843361
	C3148	C	0.137948	0.814906	0.843343
	C3149	C	0.140093	0.252387	0.828680
	C3150	C	0.139174	0.252128	0.838693
	C3151	C	0.137839	0.190049	0.843325
	C3152	C	0.138070	0.314210	0.843353
	C3153	C	0.141729	0.752906	0.798646
	C3154	C	0.147660	0.753095	0.789329
	C3155	C	0.150100	0.814871	0.784885
	C3156	C	0.150333	0.691289	0.784927
	C3157	C	0.141853	0.252870	0.798698
	C3158	C	0.147857	0.252888	0.789399
	C3159	C	0.150455	0.315020	0.784992
	C3160	C	0.150359	0.190827	0.784963
	C3161	C	0.209942	0.043088	0.823097
	C3162	C	0.209962	0.962409	0.823099
	C3163	C	0.125824	0.043204	0.813016
	C3164	C	0.125818	0.962190	0.813028
	C3165	C	0.125296	0.042853	0.812588
	C3166	C	0.125314	0.962037	0.812598
	C3167	C	0.122433	0.462346	0.810069
	C3168	C	0.207824	0.462497	0.822201
	C3169	C	0.208284	0.462176	0.818175
	C3170	C	0.122423	0.543166	0.810067
	C3171	C	0.208246	0.543095	0.818186
	C3172	C	0.207800	0.543299	0.822220
	C3173	C	0.194295	0.753454	0.834697
	C3174	C	0.194108	0.253061	0.834628
	C3175	C	0.188466	0.753302	0.844019
	C3176	C	0.185786	0.691287	0.848394
	C3177	C	0.185951	0.815189	0.848473
	C3178	C	0.188259	0.253193	0.843947
	C3179	C	0.185688	0.191306	0.848380
	C3180	C	0.185675	0.315171	0.848340
	C3181	C	0.195735	0.252363	0.804523
	C3182	C	0.202823	0.753135	0.766276
	C3183	C	0.166328	0.753297	0.763061
	C3184	C	0.133398	0.752335	0.867104
	C3185	C	0.198183	0.690846	0.790014
	C3186	C	0.197850	0.814912	0.789967
	C3187	C	0.201772	0.752997	0.776281
	C3188	C	0.158638	0.753221	0.771964
	C3189	C	0.155817	0.691318	0.776339
	C3190	C	0.200588	0.690945	0.780930
	C3191	C	0.200269	0.815032	0.780885
	C3192	C	0.155584	0.814977	0.776295
	C3193	C	0.196695	0.752800	0.794627
	C3194	C	0.169950	0.752760	0.870309
	C3195	C	0.180336	0.691052	0.856990
	C3196	C	0.180501	0.814986	0.857070
	C3197	C	0.177579	0.752892	0.861393
	C3198	C	0.148936	0.462146	0.885908
	C3199	C	0.189837	0.462790	0.750489
	C3200	C	0.152348	0.462386	0.881141
	C3201	C	0.148953	0.543025	0.885909
	C3202	C	0.152347	0.543259	0.881145
	C3203	C	0.189829	0.543593	0.750464
	C3204	C	0.169848	0.253411	0.870254
	C3205	C	0.180292	0.191443	0.856984
	C3206	C	0.180289	0.315276	0.856949
	C3207	C	0.177417	0.253451	0.861329
	C3208	C	0.183157	0.043310	0.752395
	C3209	C	0.202909	0.252528	0.766222
	C3210	C	0.166241	0.252982	0.763061
	C3211	C	0.133399	0.252244	0.867069
	C3212	C	0.198199	0.190126	0.789926
	C3213	C	0.198154	0.314310	0.789932
	C3214	C	0.201853	0.252328	0.776216
	C3215	C	0.158708	0.252989	0.772015
	C3216	C	0.134378	0.752627	0.857087
	C3217	C	0.135643	0.814780	0.852437
	C3218	C	0.135657	0.690485	0.852457
	C3219	C	0.134387	0.252170	0.857069
	C3220	C	0.135742	0.314259	0.852446
	C3221	C	0.135529	0.190060	0.852423
	C3222	C	0.155808	0.190847	0.776366
	C3223	C	0.200602	0.190173	0.780845
	C3224	C	0.200568	0.314348	0.780857
	C3225	C	0.155874	0.315047	0.776389
	C3226	C	0.196828	0.252205	0.794548
	C3227	C	0.152234	0.043014	0.882740
	C3228	C	0.187192	0.043362	0.747098
	C3229	C	0.183211	0.962328	0.752399
	C3230	C	0.152239	0.962145	0.882723
	C3231	C	0.187252	0.962657	0.747108
	N3232	N	0.125347	0.069966	0.812888
	N3233	N	0.125364	0.935316	0.812890
	N3234	N	0.125399	0.435422	0.812973
	N3235	N	0.125417	0.570060	0.812963
	N3236	N	0.147951	0.435271	0.882894
	N3237	N	0.147936	0.569896	0.882893
	N3238	N	0.148082	0.070055	0.882843
	N3239	N	0.148003	0.935429	0.882830
	O3240	O	0.231069	0.694605	0.927405
	O3241	O	0.231131	0.810721	0.927433
	O3242	O	0.105570	0.694667	0.955069
	O3243	O	0.105608	0.811004	0.955057
	O3244	O	0.105529	0.194955	0.955136
	O3245	O	0.105657	0.311255	0.955081
	O3246	O	0.104035	0.694556	0.936071
	O3247	O	0.104095	0.811271	0.936103
	O3248	O	0.104246	0.193980	0.936233
	O3249	O	0.104194	0.310673	0.936165
	O3250	O	0.237665	0.694216	0.947326
	O3251	O	0.237404	0.810174	0.947258
	O3252	O	0.237659	0.194789	0.947357
	O3253	O	0.237626	0.310836	0.947371
	O3254	O	0.231288	0.195396	0.927424
	O3255	O	0.231275	0.311513	0.927456
	O3256	O	0.167966	0.694456	0.892494
	O3257	O	0.134333	0.694507	0.893644
	O3258	O	0.203078	0.694300	0.988467
	O3259	O	0.203173	0.810294	0.988511
	O3260	O	0.168884	0.694386	0.989972
	O3261	O	0.168777	0.810694	0.990033
	O3262	O	0.134219	0.810854	0.893564
	O3263	O	0.167950	0.810698	0.892488
	O3264	O	0.168136	0.194933	0.892484
	O3265	O	0.134338	0.193392	0.893598
	O3266	O	0.203105	0.194748	0.988488
	O3267	O	0.202895	0.310672	0.988419
	O3268	O	0.168806	0.194739	0.990012
	O3269	O	0.168933	0.311066	0.989931
	O3270	O	0.134216	0.309729	0.893595
	O3271	O	0.167771	0.311032	0.892578
	H3272	H	0.125967	0.644564	0.966221
	H3273	H	0.125804	0.861271	0.966308
	H3274	H	0.125964	0.144407	0.966216
	H3275	H	0.125864	0.361925	0.966268
	H3276	H	0.115620	0.862702	0.922900
	H3277	H	0.115822	0.643323	0.922990
	H3278	H	0.115933	0.361357	0.922987
	H3279	H	0.115782	0.142644	0.923084
	H3280	H	0.247312	0.064591	0.932624
	H3281	H	0.243231	0.064496	0.935511
	H3282	H	0.243238	0.941295	0.935558
	H3283	H	0.247235	0.940964	0.932632
	H3284	H	0.256985	0.064662	0.933470
	H3285	H	0.256965	0.941233	0.933480
	H3286	H	0.091034	0.064761	0.946562
	H3287	H	0.091114	0.940798	0.946579
	H3288	H	0.090476	0.064301	0.943963
	H3289	H	0.090579	0.941255	0.943953
	H3290	H	0.084510	0.064627	0.942412
	H3291	H	0.084423	0.941050	0.942327
	H3292	H	0.078164	0.441524	0.945396
	H3293	H	0.081247	0.440735	0.948449
	H3294	H	0.082786	0.441507	0.941625
	H3295	H	0.250135	0.441146	0.934537
	H3296	H	0.254821	0.440794	0.935361
	H3297	H	0.255804	0.440696	0.937159
	H3298	H	0.081176	0.564832	0.948413
	H3299	H	0.078179	0.564450	0.945355
	H3300	H	0.255791	0.564613	0.937180
	H3301	H	0.254839	0.564452	0.935324
	H3302	H	0.250125	0.563781	0.934515
	H3303	H	0.082870	0.564897	0.941675
	H3304	H	0.226337	0.644569	0.960399
	H3305	H	0.226403	0.859967	0.960390
	H3306	H	0.226561	0.145229	0.960480
	H3307	H	0.226157	0.360183	0.960398
	H3308	H	0.125794	0.643095	0.907545
	H3309	H	0.188127	0.644113	0.903689
	H3310	H	0.188252	0.861330	0.903671
	H3311	H	0.125567	0.862474	0.907421
	H3312	H	0.210633	0.644120	0.916315
	H3313	H	0.210788	0.861378	0.916289
	H3314	H	0.214368	0.644487	0.975376
	H3315	H	0.214425	0.860141	0.975376
	H3316	H	0.145788	0.440813	0.887185
	H3317	H	0.187226	0.440971	0.997935
	H3318	H	0.139496	0.440781	0.882925
	H3319	H	0.141927	0.440790	0.879503
	H3320	H	0.188376	0.440956	1.000758
	H3321	H	0.186436	0.441145	0.999755
	H3322	H	0.187195	0.563755	0.997972
	H3323	H	0.145738	0.564467	0.887161
	H3324	H	0.186413	0.564341	0.999732
	H3325	H	0.188297	0.564372	1.000722
	H3326	H	0.141945	0.564505	0.879493
	H3327	H	0.139440	0.564576	0.882948
	H3328	H	0.214381	0.145007	0.975384
	H3329	H	0.213970	0.360307	0.975336
	H3330	H	0.143457	0.064425	0.884854
	H3331	H	0.148259	0.064580	0.886103
	H3332	H	0.142595	0.064057	0.881060
	H3333	H	0.148359	0.861284	0.978899
	H3334	H	0.148540	0.643973	0.978773
	H3335	H	0.148426	0.361481	0.978831
	H3336	H	0.148536	0.144439	0.978797
	H3337	H	0.125657	0.142166	0.907571
	H3338	H	0.188397	0.144801	0.903694
	H3339	H	0.188347	0.361629	0.903632
	H3340	H	0.125751	0.361096	0.907527
	H3341	H	0.210874	0.144810	0.916296
	H3342	H	0.210884	0.361880	0.916225
	H3343	H	0.188827	0.063960	0.999998
	H3344	H	0.190195	0.063591	0.999932
	H3345	H	0.190792	0.064308	0.998928
	H3346	H	0.148220	0.940915	0.886139
	H3347	H	0.143348	0.941183	0.884883
	H3348	H	0.142540	0.940830	0.880996
	H3349	H	0.188823	0.940282	1.000043
	H3350	H	0.190119	0.940580	0.999911
	H3351	H	0.190739	0.940777	0.998997
	Zn3352	Zn	0.085751	0.680265	0.945374
	Zn3353	Zn	0.085759	0.825240	0.945378
	Zn3354	Zn	0.085681	0.180275	0.945410
	Zn3355	Zn	0.085796	0.325197	0.945414
	Zn3356	Zn	0.189260	0.679590	0.999202
	Zn3357	Zn	0.189252	0.825440	0.999199
	Zn3358	Zn	0.189193	0.179763	0.999153
	Zn3359	Zn	0.189259	0.325662	0.999208
	C3360	C	0.225745	0.752774	0.924571
	C3361	C	0.110943	0.752877	0.957941
	C3362	C	0.124594	0.752949	0.965492
	C3363	C	0.130991	0.691509	0.969031
	C3364	C	0.130891	0.814214	0.969090
	C3365	C	0.110967	0.253104	0.957958
	C3366	C	0.124611	0.253107	0.965481
	C3367	C	0.130968	0.191583	0.969033
	C3368	C	0.130912	0.314620	0.969055
	C3369	C	0.107484	0.752931	0.932785
	C3370	C	0.115146	0.753001	0.923872
	C3371	C	0.118018	0.814994	0.919497
	C3372	C	0.118139	0.690969	0.919556
	C3373	C	0.107669	0.252209	0.932899
	C3374	C	0.115200	0.251903	0.923943
	C3375	C	0.118137	0.313746	0.919562
	C3376	C	0.118068	0.189986	0.919605
	C3377	C	0.246907	0.043264	0.934747
	C3378	C	0.246899	0.962397	0.934749
	C3379	C	0.089369	0.043232	0.945303
	C3380	C	0.089423	0.962346	0.945285
	C3381	C	0.083302	0.043450	0.943659
	C3382	C	0.083266	0.962379	0.943639
	C3383	C	0.081239	0.462357	0.946547
	C3384	C	0.249645	0.462324	0.935565
	C3385	C	0.254341	0.462162	0.936366
	C3386	C	0.081225	0.543271	0.946513
	C3387	C	0.254329	0.543299	0.936349
	C3388	C	0.249596	0.542867	0.935546
	C3389	C	0.234525	0.752159	0.950672
	C3390	C	0.234585	0.252768	0.950731
	C3391	C	0.226989	0.752210	0.959529
	C3392	C	0.223674	0.691208	0.963737
	C3393	C	0.223733	0.813310	0.963740
	C3394	C	0.226971	0.252721	0.959573
	C3395	C	0.223747	0.191742	0.963782
	C3396	C	0.223504	0.313657	0.963741
	C3397	C	0.225921	0.253512	0.924565
	C3398	C	0.173303	0.752594	0.895354
	C3399	C	0.131913	0.752741	0.897199
	C3400	C	0.163512	0.752503	0.987138
	C3401	C	0.205661	0.691337	0.913504
	C3402	C	0.205745	0.814227	0.913498
	C3403	C	0.186960	0.752705	0.902901
	C3404	C	0.126102	0.752805	0.906519
	C3405	C	0.123612	0.690830	0.910970
	C3406	C	0.193202	0.691234	0.906494
	C3407	C	0.193281	0.814193	0.906488
	C3408	C	0.123479	0.814897	0.910902
	C3409	C	0.212032	0.752791	0.917078
	C3410	C	0.206154	0.752335	0.985105
	C3411	C	0.217034	0.691247	0.972024
	C3412	C	0.217079	0.813359	0.972030
	C3413	C	0.213726	0.752311	0.976236
	C3414	C	0.188657	0.462113	0.998160
	C3415	C	0.142573	0.462348	0.881658
	C3416	C	0.187899	0.462109	0.999985
	C3417	C	0.188687	0.542936	0.998174
	C3418	C	0.187895	0.542963	0.999987
	C3419	C	0.142562	0.543207	0.881664
	C3420	C	0.206024	0.252679	0.985075
	C3421	C	0.217060	0.191670	0.972056
	C3422	C	0.216814	0.313707	0.972026
	C3423	C	0.213582	0.252646	0.976228
	C3424	C	0.146419	0.043084	0.884779
	C3425	C	0.173334	0.253046	0.895386
	C3426	C	0.131894	0.251484	0.897204
	C3427	C	0.163505	0.252879	0.987111
	C3428	C	0.205838	0.191956	0.913510
	C3429	C	0.205829	0.314714	0.913472
	C3430	C	0.186974	0.253256	0.902923
	C3431	C	0.126028	0.251497	0.906531
	C3432	C	0.149814	0.752526	0.979630
	C3433	C	0.143384	0.814038	0.976099
	C3434	C	0.143470	0.691234	0.976033
	C3435	C	0.149785	0.252905	0.979623
	C3436	C	0.143399	0.314432	0.976049
	C3437	C	0.143468	0.191546	0.976026
	C3438	C	0.123469	0.189754	0.910991
	C3439	C	0.193356	0.191952	0.906513
	C3440	C	0.193332	0.314624	0.906474
	C3441	C	0.123533	0.313519	0.910955
	C3442	C	0.212187	0.253436	0.917069
	C3443	C	0.189391	0.042610	0.999730
	C3444	C	0.145591	0.043184	0.880968
	C3445	C	0.146362	0.962243	0.884786
	C3446	C	0.189387	0.961868	0.999743
	C3447	C	0.145522	0.962207	0.880949
	N3448	N	0.085557	0.070130	0.945355
	N3449	N	0.085545	0.935515	0.945347
	N3450	N	0.085734	0.435418	0.945401
	N3451	N	0.085699	0.569955	0.945403
	N3452	N	0.189299	0.435341	0.999239
	N3453	N	0.189300	0.569702	0.999231
	N3454	N	0.189220	0.069778	0.999174
	N3455	N	0.189184	0.935300	0.999194
	O3456	O	0.362492	0.694685	0.048494
	O3457	O	0.362428	0.811337	0.048486
	O3458	O	0.306932	0.694490	0.064971
	O3459	O	0.307060	0.811434	0.064932
	O3460	O	0.306961	0.194200	0.064900
	O3461	O	0.306970	0.311091	0.064912
	O3462	O	0.306292	0.693828	0.042355
	O3463	O	0.306240	0.810295	0.042326
	O3464	O	0.306361	0.194590	0.042378
	O3465	O	0.306079	0.310913	0.042316
	O3466	O	0.363133	0.694196	0.071065
	O3467	O	0.363182	0.810718	0.071095
	O3468	O	0.362976	0.193452	0.071068
	O3469	O	0.362880	0.310107	0.071008
	O3470	O	0.362525	0.193774	0.048512
	O3471	O	0.362580	0.310655	0.048488
	O3472	O	0.369440	0.694863	0.002333
	O3473	O	0.336468	0.693728	-0.000161
	O3474	O	0.333163	0.693772	0.113638
	O3475	O	0.333335	0.810465	0.113661
	O3476	O	0.300306	0.694582	0.111094
	O3477	O	0.300276	0.811392	0.111105
	O3478	O	0.336349	0.810449	-0.000215
	O3479	O	0.369370	0.811806	0.002324
	O3480	O	0.369249	0.193327	0.002363
	O3481	O	0.336357	0.194543	-0.000164
	O3482	O	0.333355	0.193547	0.113699
	O3483	O	0.333268	0.310246	0.113651
	O3484	O	0.300358	0.193960	0.111054
	O3485	O	0.300440	0.310633	0.111072
	O3486	O	0.336462	0.311405	-0.000132
	O3487	O	0.369465	0.310153	0.002318
	H3488	H	0.305531	0.643270	0.079831
	H3489	H	0.305791	0.862847	0.079855
	H3490	H	0.305820	0.142626	0.079847
	H3491	H	0.305623	0.362160	0.079802
	H3492	H	0.314942	0.861388	0.028444
	H3493	H	0.314723	0.642463	0.028411
	H3494	H	0.314872	0.362303	0.028466
	H3495	H	0.314636	0.143506	0.028416
	H3496	H	0.387295	0.063330	0.058981
	H3497	H	0.381190	0.064388	0.055285
	H3498	H	0.381069	0.940015	0.055230
	H3499	H	0.387310	0.940892	0.058959
	H3500	H	0.383832	0.063577	0.065055
	H3501	H	0.383770	0.941076	0.065028
	H3502	H	0.283058	0.064667	0.050894
	H3503	H	0.283021	0.941293	0.050890
	H3504	H	0.283843	0.064706	0.055336
	H3505	H	0.283769	0.941004	0.055321
	H3506	H	0.294202	0.063894	0.058172
	H3507	H	0.294144	0.941039	0.058216
	H3508	H	0.290413	0.440513	0.052206
	H3509	H	0.289968	0.440926	0.053316
	H3510	H	0.293211	0.440857	0.051906
	H3511	H	0.375343	0.440759	0.063924
	H3512	H	0.370017	0.441010	0.060507
	H3513	H	0.371768	0.440989	0.057606
	H3514	H	0.289998	0.563932	0.053303
	H3515	H	0.290423	0.564184	0.052219
	H3516	H	0.371904	0.564269	0.057578
	H3517	H	0.369956	0.563922	0.060458
	H3518	H	0.375390	0.564209	0.063894
	H3519	H	0.293221	0.564494	0.051847
	H3520	H	0.354618	0.642775	0.084991
	H3521	H	0.355167	0.861576	0.085128
	H3522	H	0.354768	0.142332	0.085013
	H3523	H	0.354434	0.361403	0.084940
	H3524	H	0.324674	0.642612	0.012925
	H3525	H	0.368118	0.643571	0.017220
	H3526	H	0.368167	0.863300	0.017245
	H3527	H	0.324825	0.861596	0.012974
	H3528	H	0.363871	0.643339	0.033555
	H3529	H	0.363918	0.862913	0.033625
	H3530	H	0.344775	0.642443	0.100494
	H3531	H	0.345286	0.861654	0.100593
	H3532	H	0.359931	0.440941	-0.008467
	H3533	H	0.312145	0.440730	0.122431
	H3534	H	0.355059	0.440660	-0.006626
	H3535	H	0.350878	0.440805	-0.007684
	H3536	H	0.315696	0.440091	0.124406
	H3537	H	0.313268	0.440815	0.124145
	H3538	H	0.312051	0.564312	0.122433
	H3539	H	0.359991	0.564394	-0.008524
	H3540	H	0.313318	0.563990	0.124177
	H3541	H	0.315735	0.563395	0.124440
	H3542	H	0.350972	0.564073	-0.007666
	H3543	H	0.355218	0.564302	-0.006634
	H3544	H	0.345085	0.142196	0.100549
	H3545	H	0.344667	0.361406	0.100440
	H3546	H	0.355007	0.064099	-0.012976
	H3547	H	0.349887	0.064269	-0.012021
	H3548	H	0.361008	0.064466	-0.010215
	H3549	H	0.301727	0.862904	0.096244
	H3550	H	0.301473	0.643131	0.096191
	H3551	H	0.301463	0.362110	0.096146
	H3552	H	0.301656	0.142654	0.096209
	H3553	H	0.324623	0.143511	0.012957
	H3554	H	0.367854	0.142024	0.017221
	H3555	H	0.368065	0.361904	0.017255
	H3556	H	0.324872	0.362573	0.013032
	H3557	H	0.363668	0.142020	0.033594
	H3558	H	0.363900	0.361792	0.033629
	H3559	H	0.316240	0.063679	0.122979
	H3560	H	0.315717	0.064194	0.122408
	H3561	H	0.314042	0.063767	0.122369
	H3562	H	0.349859	0.940999	-0.012094
	H3563	H	0.355040	0.940931	-0.012985
	H3564	H	0.360969	0.940737	-0.010263
	H3565	H	0.316357	0.940622	0.123024
	H3566	H	0.315747	0.940603	0.122372
	H3567	H	0.314173	0.940299	0.122312
	Zn3568	Zn	0.292459	0.679953	0.053112
	Zn3569	Zn	0.292436	0.825577	0.053070
	Zn3570	Zn	0.292410	0.179904	0.053027
	Zn3571	Zn	0.292405	0.325418	0.053092
	Zn3572	Zn	0.314841	0.680113	0.122944
	Zn3573	Zn	0.314960	0.824678	0.122929
	Zn3574	Zn	0.314848	0.179827	0.122915
	Zn3575	Zn	0.314950	0.324584	0.122902
	C3576	C	0.362346	0.752977	0.044562
	C3577	C	0.307128	0.753052	0.068847
	C3578	C	0.306118	0.753135	0.078847
	C3579	C	0.304738	0.691003	0.083470
	C3580	C	0.304895	0.815204	0.083488
	C3581	C	0.307123	0.252591	0.068815
	C3582	C	0.306135	0.252366	0.078827
	C3583	C	0.304913	0.190290	0.083479
	C3584	C	0.304802	0.314442	0.083442
	C3585	C	0.308589	0.752026	0.038722
	C3586	C	0.314366	0.751950	0.029381
	C3587	C	0.317000	0.813928	0.024966
	C3588	C	0.316894	0.690027	0.024957
	C3589	C	0.308535	0.252737	0.038723
	C3590	C	0.314399	0.252865	0.029397
	C3591	C	0.317037	0.314827	0.025009
	C3592	C	0.316900	0.190943	0.024977
	C3593	C	0.382335	0.042676	0.057981
	C3594	C	0.382276	0.961761	0.057955
	C3595	C	0.285850	0.043252	0.053085
	C3596	C	0.285849	0.962239	0.053096
	C3597	C	0.296274	0.043010	0.056007
	C3598	C	0.296259	0.962330	0.056033
	C3599	C	0.290837	0.462080	0.052851
	C3600	C	0.377895	0.462077	0.062806
	C3601	C	0.372476	0.462088	0.059363
	C3602	C	0.290852	0.543018	0.052855
	C3603	C	0.372475	0.542762	0.059367
	C3604	C	0.377891	0.542970	0.062805
	C3605	C	0.360847	0.752362	0.074698
	C3606	C	0.360657	0.251842	0.074654
	C3607	C	0.355125	0.752149	0.084060
	C3608	C	0.352527	0.690141	0.088473
	C3609	C	0.352821	0.814124	0.088538
	C3610	C	0.354919	0.251860	0.084008
	C3611	C	0.352546	0.189825	0.088460
	C3612	C	0.352341	0.313877	0.088410
	C3613	C	0.362398	0.252117	0.044584
	C3614	C	0.369579	0.753338	0.006231
	C3615	C	0.332955	0.752075	0.003103
	C3616	C	0.300154	0.753034	0.107187
	C3617	C	0.364796	0.691108	0.029930
	C3618	C	0.364817	0.815346	0.029954
	C3619	C	0.368550	0.753391	0.016226
	C3620	C	0.325273	0.752062	0.012003
	C3621	C	0.322316	0.690082	0.016351
	C3622	C	0.367257	0.691304	0.020855
	C3623	C	0.367278	0.815474	0.020873
	C3624	C	0.322421	0.814007	0.016366
	C3625	C	0.363481	0.753133	0.034570
	C3626	C	0.336693	0.752037	0.110359
	C3627	C	0.347154	0.690079	0.097087
	C3628	C	0.347458	0.814047	0.097150
	C3629	C	0.344354	0.751959	0.101459
	C3630	C	0.313414	0.461973	0.122228
	C3631	C	0.353531	0.462052	-0.007734
	C3632	C	0.314596	0.461848	0.123907
	C3633	C	0.313405	0.543087	0.122235
	C3634	C	0.314578	0.542536	0.123927
	C3635	C	0.353553	0.543036	-0.007757
	C3636	C	0.336749	0.251813	0.110373
	C3637	C	0.347248	0.189790	0.097088
	C3638	C	0.347074	0.313777	0.097046
	C3639	C	0.344301	0.251744	0.101434
	C3640	C	0.353076	0.043020	-0.011730
	C3641	C	0.369525	0.251853	0.006254
	C3642	C	0.332938	0.252968	0.003121
	C3643	C	0.300186	0.252337	0.107145
	C3644	C	0.364606	0.189768	0.029944
	C3645	C	0.364743	0.314040	0.029968
	C3646	C	0.368454	0.251988	0.016251
	C3647	C	0.325324	0.252976	0.012030
	C3648	C	0.301160	0.753068	0.097192
	C3649	C	0.302544	0.815245	0.092574
	C3650	C	0.302373	0.690927	0.092553
	C3651	C	0.301126	0.252410	0.097162
	C3652	C	0.302409	0.314473	0.092524
	C3653	C	0.302482	0.190330	0.092552
	C3654	C	0.322363	0.191042	0.016384
	C3655	C	0.367065	0.189820	0.020870
	C3656	C	0.367186	0.314042	0.020895
	C3657	C	0.322511	0.314881	0.016419
	C3658	C	0.363408	0.251885	0.034588
	C3659	C	0.315678	0.042593	0.122762
	C3660	C	0.359048	0.043125	-0.008984
	C3661	C	0.353060	0.962187	-0.011742
	C3662	C	0.315707	0.961799	0.122778
	C3663	C	0.359032	0.962134	-0.008988
	N3664	N	0.292440	0.069989	0.053006
	N3665	N	0.292447	0.935537	0.053031
	N3666	N	0.292473	0.435381	0.053111
	N3667	N	0.292514	0.569893	0.053102
	N3668	N	0.314845	0.435029	0.122929
	N3669	N	0.314857	0.569734	0.122925
	N3670	N	0.314814	0.069662	0.122965
	N3671	N	0.314879	0.935046	0.122949
	O3672	O	0.394268	0.694441	0.169324
	O3673	O	0.394054	0.810907	0.169354
	O3674	O	0.271673	0.694315	0.195106
	O3675	O	0.271441	0.810564	0.195182
	O3676	O	0.271499	0.194218	0.195235
	O3677	O	0.271501	0.310386	0.195216
	O3678	O	0.270470	0.694477	0.176085
	O3679	O	0.270374	0.811317	0.176086
	O3680	O	0.270450	0.193987	0.176160
	O3681	O	0.270354	0.310661	0.176121
	O3682	O	0.395218	0.693876	0.188401
	O3683	O	0.395041	0.810446	0.188348
	O3684	O	0.395165	0.194285	0.188384
	O3685	O	0.395131	0.311083	0.188416
	O3686	O	0.394232	0.194452	0.169302
	O3687	O	0.394030	0.310721	0.169416
	O3688	O	0.334431	0.694053	0.132790
	O3689	O	0.300599	0.694626	0.133559
	O3690	O	0.364965	0.694263	0.230948
	O3691	O	0.364836	0.810766	0.230905
	O3692	O	0.331352	0.694615	0.231690
	O3693	O	0.331246	0.811034	0.231730
	O3694	O	0.300880	0.811190	0.133630
	O3695	O	0.334423	0.810371	0.132793
	O3696	O	0.334445	0.194134	0.132790
	O3697	O	0.300915	0.194382	0.133639
	O3698	O	0.364763	0.193953	0.230891
	O3699	O	0.364987	0.310321	0.230957
	O3700	O	0.331351	0.194924	0.231773
	O3701	O	0.331358	0.310939	0.231707
	O3702	O	0.300931	0.310746	0.133639
	O3703	O	0.334396	0.310339	0.132806
	H3704	H	0.290910	0.644540	0.206800
	H3705	H	0.290746	0.860922	0.206829
	H3706	H	0.290856	0.144191	0.206906
	H3707	H	0.290943	0.360265	0.206783
	H3708	H	0.282249	0.862321	0.162968
	H3709	H	0.281958	0.643155	0.162902
	H3710	H	0.281911	0.361896	0.162943
	H3711	H	0.282248	0.143076	0.163004
	H3712	H	0.421547	0.064212	0.180881
	H3713	H	0.420934	0.063913	0.177319
	H3714	H	0.420875	0.940765	0.177293
	H3715	H	0.421544	0.940900	0.180853
	H3716	H	0.413949	0.064145	0.183512
	H3717	H	0.413977	0.940656	0.183481
	H3718	H	0.254695	0.064127	0.184816
	H3719	H	0.254688	0.940665	0.184753
	H3720	H	0.252710	0.063634	0.183830
	H3721	H	0.252632	0.940856	0.183823
	H3722	H	0.249323	0.064518	0.184453
	H3723	H	0.249450	0.941164	0.184407
	H3724	H	0.248435	0.441030	0.188291
	H3725	H	0.254115	0.440646	0.188808
	H3726	H	0.245402	0.440610	0.184358
	H3727	H	0.408879	0.441041	0.183628
	H3728	H	0.403866	0.440978	0.177942
	H3729	H	0.408655	0.440856	0.174379
	H3730	H	0.254055	0.564718	0.188837
	H3731	H	0.248431	0.564433	0.188237
	H3732	H	0.408695	0.564472	0.174363
	H3733	H	0.403879	0.563922	0.177911
	H3734	H	0.408968	0.564367	0.183579
	H3735	H	0.245403	0.564358	0.184307
	H3736	H	0.383612	0.642464	0.201574
	H3737	H	0.383108	0.861654	0.201456
	H3738	H	0.383080	0.143132	0.201429
	H3739	H	0.383461	0.362028	0.201585
	H3740	H	0.291884	0.643151	0.147431
	H3741	H	0.353629	0.644008	0.144476
	H3742	H	0.353725	0.860746	0.144414
	H3743	H	0.292203	0.862283	0.147499
	H3744	H	0.374817	0.643965	0.157706
	H3745	H	0.374896	0.861087	0.157640
	H3746	H	0.373729	0.642646	0.217065
	H3747	H	0.373142	0.861802	0.216913
	H3748	H	0.313684	0.440981	0.121525
	H3749	H	0.348807	0.440925	0.242490
	H3750	H	0.317028	0.441079	0.121920
	H3751	H	0.317794	0.440251	0.123186
	H3752	H	0.353365	0.440486	0.242088
	H3753	H	0.351867	0.440420	0.242916
	H3754	H	0.348953	0.564329	0.242501
	H3755	H	0.313670	0.564715	0.121515
	H3756	H	0.351857	0.564337	0.242918
	H3757	H	0.353433	0.564103	0.242093
	H3758	H	0.317859	0.563907	0.123205
	H3759	H	0.316970	0.564252	0.121935
	H3760	H	0.373231	0.142791	0.216912
	H3761	H	0.373576	0.361702	0.217060
	H3762	H	0.314269	0.064200	0.123609
	H3763	H	0.315455	0.063993	0.123668
	H3764	H	0.313499	0.063552	0.122846
	H3765	H	0.312044	0.860934	0.220064
	H3766	H	0.312121	0.644697	0.219993
	H3767	H	0.312217	0.360475	0.219976
	H3768	H	0.312066	0.144795	0.220117
	H3769	H	0.292338	0.143107	0.147571
	H3770	H	0.353575	0.144230	0.144454
	H3771	H	0.353595	0.360591	0.144510
	H3772	H	0.291936	0.362054	0.147495
	H3773	H	0.374790	0.144095	0.157684
	H3774	H	0.374768	0.360894	0.157735
	H3775	H	0.356894	0.064357	0.235764
	H3776	H	0.346026	0.064466	0.235077
	H3777	H	0.337839	0.064426	0.241357
	H3778	H	0.315466	0.940297	0.123669
	H3779	H	0.314291	0.940553	0.123616
	H3780	H	0.313466	0.941015	0.122833
	H3781	H	0.356968	0.941229	0.235815
	H3782	H	0.345994	0.940915	0.235097
	H3783	H	0.337823	0.940710	0.241364
	Zn3784	Zn	0.252059	0.680077	0.185342
	Zn3785	Zn	0.251972	0.825286	0.185355
	Zn3786	Zn	0.251981	0.180241	0.185374
	Zn3787	Zn	0.251981	0.325034	0.185354
	Zn3788	Zn	0.350808	0.679842	0.241612
	Zn3789	Zn	0.350768	0.825098	0.241631
	Zn3790	Zn	0.350743	0.179952	0.241607
	Zn3791	Zn	0.350782	0.324808	0.241568
	C3792	C	0.389043	0.752580	0.166362
	C3793	C	0.276689	0.752527	0.198112
	C3794	C	0.289628	0.752713	0.205991
	C3795	C	0.295616	0.691506	0.209739
	C3796	C	0.295516	0.813978	0.209770
	C3797	C	0.276630	0.252318	0.198208
	C3798	C	0.289579	0.252313	0.206053
	C3799	C	0.295576	0.191258	0.209816
	C3800	C	0.295627	0.313504	0.209747
	C3801	C	0.273843	0.752968	0.172782
	C3802	C	0.281452	0.752817	0.163850
	C3803	C	0.284473	0.814754	0.159524
	C3804	C	0.284311	0.690736	0.159493
	C3805	C	0.273828	0.252323	0.172839
	C3806	C	0.281462	0.252477	0.163912
	C3807	C	0.284317	0.314369	0.159541
	C3808	C	0.284511	0.190613	0.159585
	C3809	C	0.419349	0.042721	0.179115
	C3810	C	0.419322	0.962120	0.179115
	C3811	C	0.253201	0.042889	0.184593
	C3812	C	0.253190	0.962246	0.184586
	C3813	C	0.249859	0.043397	0.185177
	C3814	C	0.249914	0.962353	0.185174
	C3815	C	0.251428	0.462127	0.187707
	C3816	C	0.413405	0.462198	0.182718
	C3817	C	0.408321	0.462275	0.176950
	C3818	C	0.251432	0.542971	0.187719
	C3819	C	0.408365	0.543004	0.176953
	C3820	C	0.413411	0.543105	0.182704
	C3821	C	0.391658	0.752145	0.191676
	C3822	C	0.391662	0.252651	0.191683
	C3823	C	0.384003	0.752041	0.200604
	C3824	C	0.381211	0.690071	0.204993
	C3825	C	0.380887	0.814036	0.204911
	C3826	C	0.383973	0.252640	0.200597
	C3827	C	0.380905	0.190616	0.204896
	C3828	C	0.381093	0.314411	0.204985
	C3829	C	0.389008	0.252577	0.166372
	C3830	C	0.339494	0.752228	0.135788
	C3831	C	0.298341	0.752903	0.137188
	C3832	C	0.326228	0.752817	0.228709
	C3833	C	0.370116	0.691057	0.154758
	C3834	C	0.370159	0.813940	0.154724
	C3835	C	0.352426	0.752348	0.143661
	C3836	C	0.292365	0.752811	0.146487
	C3837	C	0.289757	0.690737	0.150895
	C3838	C	0.358378	0.691006	0.147413
	C3839	C	0.358421	0.813827	0.147377
	C3840	C	0.289936	0.814763	0.150931
	C3841	C	0.376106	0.752508	0.158480
	C3842	C	0.367260	0.752498	0.227320
	C3843	C	0.375784	0.690180	0.213602
	C3844	C	0.375467	0.814139	0.213519
	C3845	C	0.373110	0.752307	0.217997
	C3846	C	0.349186	0.462032	0.241819
	C3847	C	0.316711	0.461868	0.122645
	C3848	C	0.352190	0.461934	0.242271
	C3849	C	0.349212	0.542931	0.241829
	C3850	C	0.352206	0.542968	0.242276
	C3851	C	0.316733	0.542844	0.122650
	C3852	C	0.367251	0.252149	0.227316
	C3853	C	0.375474	0.190402	0.213500
	C3854	C	0.375666	0.314285	0.213585
	C3855	C	0.373070	0.252262	0.217977
	C3856	C	0.314802	0.042883	0.123465
	C3857	C	0.339496	0.252264	0.135793
	C3858	C	0.298469	0.252566	0.137233
	C3859	C	0.326235	0.252897	0.228756
	C3860	C	0.370049	0.191179	0.154762
	C3861	C	0.370044	0.313782	0.154798
	C3862	C	0.352353	0.252414	0.143691
	C3863	C	0.292476	0.252527	0.146546
	C3864	C	0.313272	0.752835	0.220844
	C3865	C	0.307255	0.814027	0.217126
	C3866	C	0.307327	0.691624	0.217090
	C3867	C	0.313280	0.252743	0.220888
	C3868	C	0.307391	0.313671	0.217087
	C3869	C	0.307327	0.191502	0.217157
	C3870	C	0.290010	0.190633	0.150992
	C3871	C	0.358316	0.191211	0.147412
	C3872	C	0.358310	0.313671	0.147451
	C3873	C	0.289802	0.314475	0.150948
	C3874	C	0.376019	0.252521	0.158520
	C3875	C	0.351327	0.043072	0.237064
	C3876	C	0.314008	0.042585	0.122680
	C3877	C	0.314831	0.961725	0.123475
	C3878	C	0.351353	0.962273	0.237082
	C3879	C	0.314045	0.962020	0.122675
	N3880	N	0.251885	0.070179	0.185412
	N3881	N	0.251898	0.935583	0.185363
	N3882	N	0.251957	0.435121	0.185354
	N3883	N	0.252023	0.569678	0.185324
	N3884	N	0.350863	0.435134	0.241578
	N3885	N	0.350899	0.569720	0.241601
	N3886	N	0.350884	0.069908	0.241621
	N3887	N	0.350914	0.935355	0.241648
	O3888	O	0.361608	0.692812	0.299894
	O3889	O	0.360852	0.809267	0.299917
	O3890	O	0.302630	0.693472	0.316027
	O3891	O	0.302489	0.810307	0.316116
	O3892	O	0.302296	0.194788	0.316125
	O3893	O	0.302684	0.311770	0.316054
	O3894	O	0.302411	0.694207	0.293468
	O3895	O	0.302480	0.810539	0.293473
	O3896	O	0.302290	0.195284	0.293361
	O3897	O	0.302221	0.311807	0.293399
	O3898	O	0.359243	0.693374	0.321230
	O3899	O	0.358562	0.809830	0.321024
	O3900	O	0.358662	0.195650	0.321058
	O3901	O	0.359343	0.312248	0.321282
	O3902	O	0.360903	0.195645	0.299868
	O3903	O	0.361579	0.312330	0.299875
	O3904	O	0.365004	0.694468	0.253497
	O3905	O	0.332269	0.694196	0.250800
	O3906	O	0.331865	0.695778	0.364645
	O3907	O	0.331205	0.812171	0.364378
	O3908	O	0.299196	0.692036	0.362394
	O3909	O	0.298438	0.808826	0.362416
	O3910	O	0.332174	0.810910	0.250785
	O3911	O	0.364824	0.811247	0.253638
	O3912	O	0.364789	0.193875	0.253593
	O3913	O	0.332298	0.194876	0.250846
	O3914	O	0.331302	0.193293	0.364436
	O3915	O	0.331907	0.309830	0.364705
	O3916	O	0.298502	0.196753	0.362460
	O3917	O	0.299074	0.313478	0.362440
	O3918	O	0.332337	0.311484	0.250814
	O3919	O	0.365106	0.310883	0.253499
	H3920	H	0.302069	0.641128	0.330956
	H3921	H	0.300979	0.860842	0.330994
	H3922	H	0.300664	0.144041	0.331030
	H3923	H	0.302393	0.363806	0.330995
	H3924	H	0.310787	0.861832	0.279448
	H3925	H	0.311295	0.642752	0.279544
	H3926	H	0.311087	0.363200	0.279531
	H3927	H	0.310591	0.144265	0.279428
	H3928	H	0.363638	0.064350	0.319009
	H3929	H	0.379653	0.064202	0.321846
	H3930	H	0.379712	0.941238	0.321831
	H3931	H	0.363668	0.940940	0.318966
	H3932	H	0.357699	0.064630	0.307287
	H3933	H	0.357674	0.940864	0.307268
	H3934	H	0.287013	0.064803	0.307125
	H3935	H	0.287028	0.941136	0.307145
	H3936	H	0.292065	0.065063	0.306884
	H3937	H	0.292104	0.941678	0.306852
	H3938	H	0.294425	0.064494	0.303409
	H3939	H	0.294458	0.941052	0.303491
	H3940	H	0.287529	0.440814	0.304874
	H3941	H	0.288985	0.441584	0.304981
	H3942	H	0.286683	0.440654	0.303939
	H3943	H	0.376551	0.440777	0.309011
	H3944	H	0.381330	0.440800	0.310742
	H3945	H	0.381194	0.440906	0.312990
	H3946	H	0.288890	0.564189	0.305032
	H3947	H	0.287528	0.564647	0.304807
	H3948	H	0.381214	0.564390	0.312983
	H3949	H	0.381394	0.564337	0.310810
	H3950	H	0.376547	0.564705	0.308992
	H3951	H	0.286807	0.564447	0.303864
	H3952	H	0.349925	0.642294	0.335097
	H3953	H	0.348987	0.862011	0.334741
	H3954	H	0.348599	0.143708	0.334696
	H3955	H	0.350399	0.363378	0.335270
	H3956	H	0.320958	0.642890	0.264025
	H3957	H	0.364677	0.642264	0.268457
	H3958	H	0.363281	0.861632	0.268468
	H3959	H	0.320436	0.861775	0.263922
	H3960	H	0.361523	0.641674	0.284929
	H3961	H	0.360159	0.861071	0.284943
	H3962	H	0.341687	0.643379	0.350903
	H3963	H	0.340688	0.862975	0.350528
	H3964	H	0.348184	0.441101	0.241302
	H3965	H	0.304931	0.441282	0.379651
	H3966	H	0.350187	0.440814	0.240216
	H3967	H	0.352363	0.440696	0.240519
	H3968	H	0.328457	0.441026	0.376059
	H3969	H	0.321543	0.440937	0.381039
	H3970	H	0.305107	0.565023	0.379656
	H3971	H	0.348268	0.563970	0.241359
	H3972	H	0.321539	0.564314	0.381068
	H3973	H	0.328487	0.564141	0.376089
	H3974	H	0.352421	0.564062	0.240544
	H3975	H	0.350253	0.563761	0.240244
	H3976	H	0.340154	0.142687	0.350492
	H3977	H	0.342036	0.362400	0.351034
	H3978	H	0.357785	0.064384	0.247674
	H3979	H	0.363755	0.064270	0.243095
	H3980	H	0.342776	0.064316	0.246703
	H3981	H	0.297835	0.860475	0.347480
	H3982	H	0.298956	0.640378	0.347428
	H3983	H	0.299282	0.364919	0.347498
	H3984	H	0.297495	0.144882	0.347495
	H3985	H	0.320499	0.144030	0.263990
	H3986	H	0.363502	0.143300	0.268444
	H3987	H	0.364328	0.363205	0.268437
	H3988	H	0.321017	0.363042	0.264057
	H3989	H	0.360400	0.143860	0.284920
	H3990	H	0.361281	0.363520	0.284923
	H3991	H	0.315782	0.064014	0.377287
	H3992	H	0.319730	0.064297	0.375468
	H3993	H	0.317973	0.064493	0.371500
	H3994	H	0.363701	0.940858	0.243101
	H3995	H	0.357759	0.940782	0.247703
	H3996	H	0.342759	0.940837	0.246747
	H3997	H	0.315718	0.940297	0.377277
	H3998	H	0.319757	0.940704	0.375407
	H3999	H	0.317901	0.941194	0.371490
	Zn4000	Zn	0.288314	0.680134	0.304109
	Zn4001	Zn	0.288436	0.825386	0.304133
	Zn4002	Zn	0.288423	0.180281	0.304108
	Zn4003	Zn	0.288300	0.325187	0.304129
	Zn4004	Zn	0.314370	0.680174	0.374159
	Zn4005	Zn	0.313632	0.824851	0.374000
	Zn4006	Zn	0.313713	0.180388	0.374021
	Zn4007	Zn	0.314300	0.325107	0.374192
	C4008	C	0.360608	0.751070	0.295987
	C4009	C	0.302795	0.751661	0.319984
	C4010	C	0.302019	0.751071	0.330008
	C4011	C	0.301173	0.688758	0.334637
	C4012	C	0.300596	0.813043	0.334669
	C4013	C	0.302732	0.253464	0.319995
	C4014	C	0.301983	0.253897	0.330041
	C4015	C	0.300391	0.192039	0.334699
	C4016	C	0.301381	0.316325	0.334685
	C4017	C	0.304799	0.752343	0.289848
	C4018	C	0.310636	0.752278	0.280502
	C4019	C	0.313023	0.814151	0.276024
	C4020	C	0.313301	0.690415	0.276073
	C4021	C	0.304574	0.253660	0.289776
	C4022	C	0.310436	0.253816	0.280454
	C4023	C	0.313166	0.315692	0.276069
	C4024	C	0.312898	0.191885	0.276014
	C4025	C	0.372869	0.042944	0.318072
	C4026	C	0.372845	0.962303	0.318069
	C4027	C	0.289366	0.043430	0.306244
	C4028	C	0.289384	0.962574	0.306252
	C4029	C	0.291753	0.043374	0.302823
	C4030	C	0.291758	0.962440	0.302841
	C4031	C	0.288326	0.462374	0.304729
	C4032	C	0.375224	0.462059	0.310013
	C4033	C	0.380113	0.462358	0.311812
	C4034	C	0.288319	0.543070	0.304712
	C4035	C	0.380118	0.543056	0.311826
	C4036	C	0.375210	0.543139	0.310005
	C4037	C	0.355990	0.751675	0.324623
	C4038	C	0.356041	0.253896	0.324666
	C4039	C	0.349752	0.752129	0.333898
	C4040	C	0.347775	0.690348	0.338514
	C4041	C	0.347275	0.814395	0.338319
	C4042	C	0.349765	0.253533	0.333963
	C4043	C	0.347022	0.191218	0.338324
	C4044	C	0.348037	0.315319	0.338638
	C4045	C	0.360588	0.254019	0.295961
	C4046	C	0.365192	0.752540	0.257477
	C4047	C	0.328801	0.752505	0.254097
	C4048	C	0.298167	0.750424	0.358506
	C4049	C	0.361865	0.689470	0.281259
	C4050	C	0.361101	0.813536	0.281273
	C4051	C	0.364479	0.751996	0.267480
	C4052	C	0.321293	0.752377	0.263037
	C4053	C	0.318606	0.690498	0.267444
	C4054	C	0.363708	0.689790	0.272124
	C4055	C	0.362965	0.813855	0.272138
	C4056	C	0.318341	0.814268	0.267396
	C4057	C	0.360615	0.751327	0.285939
	C4058	C	0.334402	0.753797	0.360988
	C4059	C	0.343226	0.690891	0.347298
	C4060	C	0.342705	0.814948	0.347096
	C4061	C	0.340627	0.753213	0.351697
	C4062	C	0.305545	0.462132	0.376013
	C4063	C	0.351230	0.462076	0.240692
	C4064	C	0.322175	0.462372	0.377420
	C4065	C	0.305560	0.543198	0.376025
	C4066	C	0.322190	0.543112	0.377411
	C4067	C	0.351251	0.542778	0.240709
	C4068	C	0.334459	0.251785	0.361063
	C4069	C	0.342465	0.190690	0.347113
	C4070	C	0.343499	0.314774	0.347426
	C4071	C	0.340626	0.252430	0.351771
	C4072	C	0.358172	0.043062	0.244394
	C4073	C	0.365162	0.252612	0.257437
	C4074	C	0.328878	0.253263	0.254136
	C4075	C	0.298148	0.255149	0.358542
	C4076	C	0.361223	0.191421	0.281239
	C4077	C	0.361714	0.315823	0.281244
	C4078	C	0.364420	0.253199	0.267445
	C4079	C	0.321285	0.253642	0.263063
	C4080	C	0.298134	0.750437	0.348463
	C4081	C	0.298716	0.812792	0.343806
	C4082	C	0.299315	0.688366	0.343775
	C4083	C	0.298140	0.254944	0.348504
	C4084	C	0.299532	0.316927	0.343829
	C4085	C	0.298560	0.192426	0.343840
	C4086	C	0.318311	0.191750	0.267415
	C4087	C	0.363039	0.191235	0.272096
	C4088	C	0.363513	0.315485	0.272100
	C4089	C	0.318584	0.315582	0.267466
	C4090	C	0.360567	0.253752	0.285898
	C4091	C	0.316659	0.043109	0.375724
	C4092	C	0.343119	0.043037	0.243402
	C4093	C	0.358185	0.962181	0.244412
	C4094	C	0.316650	0.962085	0.375706
	C4095	C	0.343132	0.962101	0.243414
	N4096	N	0.288609	0.070139	0.304099
	N4097	N	0.288676	0.935562	0.304136
	N4098	N	0.288486	0.435407	0.304133
	N4099	N	0.288503	0.569984	0.304133
	N4100	N	0.314286	0.435448	0.374203
	N4101	N	0.314315	0.570017	0.374219
	N4102	N	0.313627	0.070039	0.373968
	N4103	N	0.313610	0.935393	0.373951
	O4104	O	0.325903	0.693653	0.432044
	O4105	O	0.325536	0.810498	0.432175
	O4106	O	0.266424	0.694311	0.448225
	O4107	O	0.266793	0.811026	0.448191
	O4108	O	0.266680	0.194363	0.448202
	O4109	O	0.266636	0.311164	0.448169
	O4110	O	0.268915	0.693877	0.427026
	O4111	O	0.268966	0.810328	0.426958
	O4112	O	0.268971	0.194822	0.426961
	O4113	O	0.268915	0.311596	0.426994
	O4114	O	0.325905	0.694137	0.454810
	O4115	O	0.325780	0.810625	0.454758
	O4116	O	0.325751	0.194849	0.454747
	O4117	O	0.325803	0.311206	0.454713
	O4118	O	0.325526	0.194969	0.432132
	O4119	O	0.325918	0.311614	0.432089
	O4120	O	0.329636	0.696468	0.385731
	O4121	O	0.296641	0.692782	0.383691
	O4122	O	0.295592	0.694517	0.497314
	O4123	O	0.295751	0.811165	0.497357
	O4124	O	0.262838	0.694988	0.494561
	O4125	O	0.262834	0.811733	0.494568
	O4126	O	0.296248	0.809246	0.383600
	O4127	O	0.328906	0.813155	0.385755
	O4128	O	0.328741	0.192660	0.385781
	O4129	O	0.296225	0.195681	0.383539
	O4130	O	0.295562	0.194684	0.497250
	O4131	O	0.295668	0.311500	0.497290
	O4132	O	0.262944	0.194027	0.494493
	O4133	O	0.263038	0.310943	0.494539
	O4134	O	0.296619	0.312329	0.383671
	O4135	O	0.329589	0.309535	0.385736
	H4136	H	0.266835	0.642909	0.463193
	H4137	H	0.267158	0.862863	0.463188
	H4138	H	0.267238	0.142539	0.463115
	H4139	H	0.267131	0.362705	0.463137
	H4140	H	0.278286	0.861408	0.413129
	H4141	H	0.278742	0.641660	0.413288
	H4142	H	0.278808	0.363381	0.413293
	H4143	H	0.278278	0.143443	0.413109
	H4144	H	0.341114	0.064241	0.446423
	H4145	H	0.343901	0.064588	0.445084
	H4146	H	0.344088	0.941181	0.445132
	H4147	H	0.341128	0.940960	0.446480
	H4148	H	0.336001	0.064341	0.445372
	H4149	H	0.336053	0.941147	0.445414
	H4150	H	0.251188	0.064446	0.440380
	H4151	H	0.251236	0.941283	0.440421
	H4152	H	0.256977	0.064082	0.439429
	H4153	H	0.257005	0.941144	0.439389
	H4154	H	0.258177	0.064504	0.435015
	H4155	H	0.258089	0.940617	0.435003
	H4156	H	0.242562	0.440821	0.439103
	H4157	H	0.249833	0.441116	0.441927
	H4158	H	0.243223	0.441023	0.432863
	H4159	H	0.344017	0.441078	0.442659
	H4160	H	0.344253	0.441077	0.445756
	H4161	H	0.340607	0.440721	0.446868
	H4162	H	0.249735	0.564348	0.441902
	H4163	H	0.242442	0.564765	0.439104
	H4164	H	0.340464	0.564408	0.446897
	H4165	H	0.344200	0.564389	0.445808
	H4166	H	0.343971	0.564737	0.442684
	H4167	H	0.243152	0.564738	0.432834
	H4168	H	0.317312	0.643315	0.468742
	H4169	H	0.316957	0.861611	0.468576
	H4170	H	0.317212	0.143888	0.468640
	H4171	H	0.317184	0.362706	0.468631
	H4172	H	0.287149	0.641237	0.397519
	H4173	H	0.330410	0.644656	0.400662
	H4174	H	0.328826	0.864288	0.400752
	H4175	H	0.286657	0.861049	0.397376
	H4176	H	0.327336	0.643495	0.417144
	H4177	H	0.325744	0.863123	0.417243
	H4178	H	0.307431	0.643544	0.484241
	H4179	H	0.307088	0.862214	0.484057
	H4180	H	0.299846	0.441013	0.373665
	H4181	H	0.284042	0.441543	0.504150
	H4182	H	0.309389	0.440756	0.366905
	H4183	H	0.321448	0.441176	0.367897
	H4184	H	0.269104	0.440392	0.504296
	H4185	H	0.274569	0.441118	0.502056
	H4186	H	0.284004	0.564260	0.504136
	H4187	H	0.299873	0.564329	0.373686
	H4188	H	0.274475	0.564322	0.502061
	H4189	H	0.269069	0.564793	0.504324
	H4190	H	0.321470	0.564377	0.367916
	H4191	H	0.309350	0.564033	0.366886
	H4192	H	0.307356	0.143683	0.484109
	H4193	H	0.307312	0.362627	0.484116
	H4194	H	0.307208	0.064593	0.373050
	H4195	H	0.308545	0.064025	0.375916
	H4196	H	0.312567	0.065081	0.370485
	H4197	H	0.264129	0.863015	0.479666
	H4198	H	0.263767	0.643249	0.479672
	H4199	H	0.263978	0.362443	0.479627
	H4200	H	0.264075	0.142423	0.479584
	H4201	H	0.286649	0.143693	0.397329
	H4202	H	0.329046	0.141519	0.400731
	H4203	H	0.330280	0.361687	0.400707
	H4204	H	0.287265	0.363813	0.397524
	H4205	H	0.326125	0.142462	0.417236
	H4206	H	0.327273	0.362389	0.417180
	H4207	H	0.273305	0.064232	0.507195
	H4208	H	0.275876	0.064131	0.508480
	H4209	H	0.280264	0.064220	0.507920
	H4210	H	0.308533	0.940967	0.375894
	H4211	H	0.307203	0.941092	0.373053
	H4212	H	0.312623	0.940926	0.370471
	H4213	H	0.273329	0.940997	0.507155
	H4214	H	0.275835	0.941341	0.508437
	H4215	H	0.280106	0.940956	0.507934
	Zn4216	Zn	0.251257	0.680207	0.436566
	Zn4217	Zn	0.251558	0.825312	0.436533
	Zn4218	Zn	0.251439	0.180359	0.436522
	Zn4219	Zn	0.251466	0.325492	0.436552
	Zn4220	Zn	0.277000	0.680298	0.506501
	Zn4221	Zn	0.277107	0.825223	0.506525
	Zn4222	Zn	0.277152	0.180251	0.506506
	Zn4223	Zn	0.277119	0.325116	0.506477
	C4224	C	0.325468	0.752364	0.428205
	C4225	C	0.267294	0.752755	0.452113
	C4226	C	0.267240	0.752927	0.462169
	C4227	C	0.266272	0.690802	0.466850
	C4228	C	0.266473	0.815084	0.466848
	C4229	C	0.267408	0.252820	0.452078
	C4230	C	0.267406	0.252690	0.462130
	C4231	C	0.266541	0.190358	0.466782
	C4232	C	0.266465	0.314907	0.466796
	C4233	C	0.271832	0.751911	0.423484
	C4234	C	0.278132	0.751591	0.414221
	C4235	C	0.280307	0.813490	0.409668
	C4236	C	0.280548	0.689401	0.409754
	C4237	C	0.271922	0.253314	0.423505
	C4238	C	0.278191	0.253431	0.414218
	C4239	C	0.280611	0.315632	0.409750
	C4240	C	0.280335	0.191400	0.409649
	C4241	C	0.341702	0.043109	0.445313
	C4242	C	0.341775	0.962254	0.445328
	C4243	C	0.253420	0.043021	0.439024
	C4244	C	0.253428	0.962487	0.439010
	C4245	C	0.254588	0.043363	0.434594
	C4246	C	0.254586	0.962269	0.434601
	C4247	C	0.247532	0.462391	0.439484
	C4248	C	0.341478	0.462213	0.442588
	C4249	C	0.341702	0.462252	0.445754
	C4250	C	0.247474	0.543294	0.439469
	C4251	C	0.341657	0.543088	0.445758
	C4252	C	0.341458	0.543200	0.442595
	C4253	C	0.323427	0.752447	0.458380
	C4254	C	0.323362	0.253109	0.458328
	C4255	C	0.317464	0.752447	0.467699
	C4256	C	0.315056	0.690840	0.472175
	C4257	C	0.314859	0.814302	0.472082
	C4258	C	0.317437	0.253352	0.467636
	C4259	C	0.314947	0.191444	0.472071
	C4260	C	0.314917	0.315171	0.472062
	C4261	C	0.325481	0.253155	0.428187
	C4262	C	0.329939	0.754796	0.389652
	C4263	C	0.293549	0.751020	0.387151
	C4264	C	0.262653	0.753411	0.490647
	C4265	C	0.327645	0.691430	0.413489
	C4266	C	0.326739	0.815634	0.413552
	C4267	C	0.329877	0.754482	0.399708
	C4268	C	0.287333	0.751141	0.396438
	C4269	C	0.285158	0.689164	0.400982
	C4270	C	0.329431	0.692068	0.404346
	C4271	C	0.328517	0.816247	0.404402
	C4272	C	0.284900	0.813264	0.400898
	C4273	C	0.326110	0.753159	0.418178
	C4274	C	0.299062	0.752869	0.494028
	C4275	C	0.309614	0.691005	0.480776
	C4276	C	0.309429	0.814591	0.480681
	C4277	C	0.306615	0.752866	0.485093
	C4278	C	0.282578	0.462436	0.506176
	C4279	C	0.315125	0.462369	0.369199
	C4280	C	0.273142	0.462154	0.504057
	C4281	C	0.282555	0.543170	0.506170
	C4282	C	0.273104	0.543396	0.504050
	C4283	C	0.315117	0.543163	0.369194
	C4284	C	0.299087	0.253128	0.493979
	C4285	C	0.309556	0.191381	0.480675
	C4286	C	0.309531	0.315131	0.480673
	C4287	C	0.306612	0.253293	0.485027
	C4288	C	0.309375	0.043046	0.374348
	C4289	C	0.329880	0.251151	0.389650
	C4290	C	0.293570	0.253963	0.387119
	C4291	C	0.262807	0.252538	0.490605
	C4292	C	0.326939	0.190047	0.413535
	C4293	C	0.327544	0.314449	0.413515
	C4294	C	0.329911	0.251511	0.399705
	C4295	C	0.287332	0.253767	0.396407
	C4296	C	0.263441	0.753254	0.480643
	C4297	C	0.264623	0.815193	0.475984
	C4298	C	0.264439	0.690983	0.475991
	C4299	C	0.263650	0.252472	0.480590
	C4300	C	0.264664	0.314798	0.475942
	C4301	C	0.264746	0.190263	0.475923
	C4302	C	0.284891	0.191527	0.400866
	C4303	C	0.328750	0.189528	0.404394
	C4304	C	0.329389	0.313981	0.404372
	C4305	C	0.285175	0.315848	0.400962
	C4306	C	0.326142	0.252485	0.418175
	C4307	C	0.275192	0.042982	0.507475
	C4308	C	0.314843	0.043226	0.371773
	C4309	C	0.309351	0.962408	0.374325
	C4310	C	0.275177	0.962338	0.507458
	C4311	C	0.314801	0.962226	0.371760
	N4312	N	0.251548	0.070150	0.436545
	N4313	N	0.251585	0.935566	0.436542
	N4314	N	0.251358	0.435485	0.436577
	N4315	N	0.251280	0.569969	0.436587
	N4316	N	0.276927	0.435281	0.506469
	N4317	N	0.276925	0.569908	0.506471
	N4318	N	0.276980	0.070065	0.506490
	N4319	N	0.276980	0.935520	0.506508
	O4320	O	0.356083	0.694416	0.553041
	O4321	O	0.356010	0.810720	0.553053
	O4322	O	0.234103	0.694834	0.578852
	O4323	O	0.234050	0.811241	0.578908
	O4324	O	0.234105	0.194900	0.578860
	O4325	O	0.234006	0.311252	0.578892
	O4326	O	0.233066	0.694336	0.559749
	O4327	O	0.233264	0.810934	0.559827
	O4328	O	0.233252	0.194683	0.559830
	O4329	O	0.233126	0.311393	0.559760
	O4330	O	0.357031	0.693898	0.572205
	O4331	O	0.357066	0.810597	0.572234
	O4332	O	0.357044	0.194176	0.572203
	O4333	O	0.356997	0.310991	0.572179
	O4334	O	0.356031	0.194176	0.553091
	O4335	O	0.356009	0.310227	0.553064
	O4336	O	0.296516	0.694632	0.516416
	O4337	O	0.263007	0.694782	0.517209
	O4338	O	0.327055	0.694100	0.614797
	O4339	O	0.326923	0.810603	0.614741
	O4340	O	0.293569	0.694408	0.615593
	O4341	O	0.293635	0.810911	0.615517
	O4342	O	0.263171	0.811395	0.517253
	O4343	O	0.296608	0.811029	0.516403
	O4344	O	0.296687	0.194635	0.516363
	O4345	O	0.263151	0.194511	0.517212
	O4346	O	0.326997	0.194308	0.614763
	O4347	O	0.327036	0.310746	0.614750
	O4348	O	0.293475	0.194862	0.615551
	O4349	O	0.293681	0.311345	0.615560
	O4350	O	0.263033	0.311039	0.517190
	O4351	O	0.296574	0.311008	0.516401
	H4352	H	0.253278	0.644279	0.590589
	H4353	H	0.253390	0.861381	0.590563
	H4354	H	0.253354	0.144282	0.590576
	H4355	H	0.253023	0.361425	0.590673
	H4356	H	0.245147	0.862297	0.546754
	H4357	H	0.244394	0.643022	0.546517
	H4358	H	0.244596	0.362414	0.546564
	H4359	H	0.244959	0.143532	0.546699
	H4360	H	0.368907	0.064170	0.563670
	H4361	H	0.372548	0.064280	0.566183
	H4362	H	0.372556	0.940658	0.566150
	H4363	H	0.368888	0.941100	0.563657
	H4364	H	0.371512	0.064237	0.559886
	H4365	H	0.371529	0.941445	0.559904
	H4366	H	0.221055	0.065094	0.566744
	H4367	H	0.221115	0.941510	0.566749
	H4368	H	0.215140	0.064718	0.564676
	H4369	H	0.215158	0.941576	0.564670
	H4370	H	0.206984	0.064851	0.566790
	H4371	H	0.207081	0.941271	0.566863
	H4372	H	0.208690	0.441083	0.568007
	H4373	H	0.209600	0.441500	0.570639
	H4374	H	0.213939	0.441136	0.565804
	H4375	H	0.375209	0.441155	0.566338
	H4376	H	0.369199	0.440953	0.563738
	H4377	H	0.369783	0.441271	0.560817
	H4378	H	0.209687	0.564628	0.570711
	H4379	H	0.208706	0.564576	0.568068
	H4380	H	0.369947	0.564328	0.560873
	H4381	H	0.369273	0.564676	0.563732
	H4382	H	0.375204	0.564478	0.566350
	H4383	H	0.213958	0.564580	0.565822
	H4384	H	0.345483	0.642509	0.585383
	H4385	H	0.345570	0.861745	0.585411
	H4386	H	0.345267	0.142885	0.585327
	H4387	H	0.345330	0.361976	0.585368
	H4388	H	0.254195	0.643212	0.531064
	H4389	H	0.315825	0.644229	0.528094
	H4390	H	0.315861	0.861140	0.528026
	H4391	H	0.254939	0.862790	0.531253
	H4392	H	0.337004	0.644066	0.541313
	H4393	H	0.337026	0.861184	0.541259
	H4394	H	0.335546	0.642468	0.600855
	H4395	H	0.335634	0.861632	0.600864
	H4396	H	0.285293	0.441151	0.507958
	H4397	H	0.314277	0.440853	0.624216
	H4398	H	0.277730	0.441369	0.511041
	H4399	H	0.270955	0.441074	0.509545
	H4400	H	0.310364	0.441308	0.625571
	H4401	H	0.311077	0.441787	0.624406
	H4402	H	0.314292	0.564924	0.624276
	H4403	H	0.285315	0.564587	0.508021
	H4404	H	0.311098	0.564700	0.624420
	H4405	H	0.310313	0.564374	0.625584
	H4406	H	0.270896	0.564514	0.509538
	H4407	H	0.277735	0.564466	0.511033
	H4408	H	0.335475	0.142931	0.600833
	H4409	H	0.335507	0.361812	0.600838
	H4410	H	0.277512	0.064867	0.504404
	H4411	H	0.274305	0.064476	0.504811
	H4412	H	0.280970	0.064484	0.506154
	H4413	H	0.274551	0.861309	0.603785
	H4414	H	0.274465	0.643932	0.603816
	H4415	H	0.274117	0.361703	0.603914
	H4416	H	0.274500	0.144635	0.603850
	H4417	H	0.254766	0.143544	0.531190
	H4418	H	0.315760	0.144589	0.528040
	H4419	H	0.315794	0.360690	0.528107
	H4420	H	0.254381	0.362441	0.531100
	H4421	H	0.336794	0.144331	0.541351
	H4422	H	0.336824	0.360371	0.541400
	H4423	H	0.317681	0.064999	0.629796
	H4424	H	0.322014	0.064859	0.626579
	H4425	H	0.317294	0.064358	0.621302
	H4426	H	0.274394	0.941114	0.504791
	H4427	H	0.277682	0.940925	0.504464
	H4428	H	0.280872	0.940416	0.506210
	H4429	H	0.317760	0.940881	0.629714
	H4430	H	0.322095	0.941246	0.626500
	H4431	H	0.317315	0.941604	0.621298
	Zn4432	Zn	0.214612	0.680582	0.568986
	Zn4433	Zn	0.214633	0.825621	0.568960
	Zn4434	Zn	0.214577	0.180477	0.568934
	Zn4435	Zn	0.214588	0.325473	0.568975
	Zn4436	Zn	0.313002	0.680392	0.625493
	Zn4437	Zn	0.313022	0.825492	0.625444
	Zn4438	Zn	0.312886	0.180529	0.625457
	Zn4439	Zn	0.313132	0.325571	0.625494
	C4440	C	0.351003	0.752546	0.550037
	C4441	C	0.239181	0.752983	0.581849
	C4442	C	0.252048	0.752792	0.589757
	C4443	C	0.257983	0.691320	0.593525
	C4444	C	0.258061	0.814165	0.593509
	C4445	C	0.239153	0.253031	0.581866
	C4446	C	0.252046	0.252873	0.589744
	C4447	C	0.258028	0.191476	0.593509
	C4448	C	0.257854	0.314329	0.593551
	C4449	C	0.236605	0.752692	0.556480
	C4450	C	0.244152	0.752722	0.547554
	C4451	C	0.247235	0.814816	0.543259
	C4452	C	0.246810	0.690723	0.543127
	C4453	C	0.236639	0.252971	0.556498
	C4454	C	0.244187	0.252944	0.547558
	C4455	C	0.246940	0.314865	0.543159
	C4456	C	0.247161	0.191066	0.543226
	C4457	C	0.372025	0.042970	0.564411
	C4458	C	0.372007	0.962093	0.564408
	C4459	C	0.217105	0.043473	0.566545
	C4460	C	0.217134	0.962719	0.566560
	C4461	C	0.208901	0.043512	0.568675
	C4462	C	0.208930	0.962464	0.568700
	C4463	C	0.210491	0.462567	0.569257
	C4464	C	0.377188	0.462277	0.565098
	C4465	C	0.371081	0.462317	0.562464
	C4466	C	0.210562	0.543443	0.569268
	C4467	C	0.371158	0.543292	0.562483
	C4468	C	0.377217	0.542768	0.565117
	C4469	C	0.353620	0.752230	0.575527
	C4470	C	0.353569	0.252560	0.575481
	C4471	C	0.346073	0.752102	0.584455
	C4472	C	0.343207	0.690057	0.588815
	C4473	C	0.343238	0.814076	0.588818
	C4474	C	0.345951	0.252444	0.584408
	C4475	C	0.343022	0.190524	0.588759
	C4476	C	0.343049	0.314367	0.588776
	C4477	C	0.350944	0.252164	0.550081
	C4478	C	0.301683	0.752776	0.519379
	C4479	C	0.260764	0.753088	0.520841
	C4480	C	0.288548	0.752601	0.612543
	C4481	C	0.332219	0.691175	0.538398
	C4482	C	0.332223	0.814119	0.538360
	C4483	C	0.314557	0.752614	0.527279
	C4484	C	0.254940	0.753057	0.530160
	C4485	C	0.252185	0.690870	0.534527
	C4486	C	0.320526	0.691223	0.531032
	C4487	C	0.320518	0.814098	0.530998
	C4488	C	0.252607	0.814975	0.534647
	C4489	C	0.338116	0.752603	0.542144
	C4490	C	0.329345	0.752274	0.611166
	C4491	C	0.337801	0.690075	0.597419
	C4492	C	0.337838	0.814035	0.597424
	C4493	C	0.335220	0.752071	0.601839
	C4494	C	0.314598	0.462449	0.624931
	C4495	C	0.274973	0.462380	0.509296
	C4496	C	0.311422	0.462567	0.625138
	C4497	C	0.314559	0.543502	0.624949
	C4498	C	0.311380	0.543188	0.625135
	C4499	C	0.274919	0.543083	0.509292
	C4500	C	0.329374	0.252433	0.611150
	C4501	C	0.337626	0.190425	0.597372
	C4502	C	0.337654	0.314248	0.597382
	C4503	C	0.335164	0.252291	0.601815
	C4504	C	0.276179	0.043203	0.505095
	C4505	C	0.301692	0.252839	0.519379
	C4506	C	0.260741	0.252810	0.520812
	C4507	C	0.288522	0.253228	0.612550
	C4508	C	0.332151	0.191250	0.538389
	C4509	C	0.332150	0.313492	0.538426
	C4510	C	0.314569	0.252689	0.527265
	C4511	C	0.254906	0.252974	0.530143
	C4512	C	0.275640	0.752606	0.604639
	C4513	C	0.269756	0.814193	0.600874
	C4514	C	0.269681	0.691102	0.600896
	C4515	C	0.275654	0.253209	0.604621
	C4516	C	0.269553	0.314503	0.600916
	C4517	C	0.269735	0.191685	0.600877
	C4518	C	0.252497	0.191089	0.534606
	C4519	C	0.320483	0.191409	0.531010
	C4520	C	0.320477	0.313739	0.531050
	C4521	C	0.252288	0.314795	0.534548
	C4522	C	0.338083	0.252261	0.542160
	C4523	C	0.318091	0.043559	0.627451
	C4524	C	0.279615	0.043242	0.506893
	C4525	C	0.276218	0.962272	0.505123
	C4526	C	0.318121	0.962448	0.627426
	C4527	C	0.279540	0.962197	0.506929
	N4528	N	0.214299	0.070335	0.568900
	N4529	N	0.214391	0.935758	0.568931
	N4530	N	0.214436	0.435691	0.569004
	N4531	N	0.214491	0.570267	0.569017
	N4532	N	0.313214	0.435562	0.625530
	N4533	N	0.313166	0.570084	0.625542
	N4534	N	0.312948	0.070207	0.625445
	N4535	N	0.313002	0.935674	0.625423
	O4536	O	0.320717	0.694752	0.683485
	O4537	O	0.320799	0.811609	0.683521
	O4538	O	0.265245	0.694899	0.699781
	O4539	O	0.265227	0.811718	0.699791
	O4540	O	0.265210	0.194977	0.699850
	O4541	O	0.265185	0.311802	0.699858
	O4542	O	0.264679	0.694815	0.677329
	O4543	O	0.264494	0.811242	0.677278
	O4544	O	0.264671	0.195812	0.677307
	O4545	O	0.264528	0.312238	0.677281
	O4546	O	0.321576	0.694789	0.706119
	O4547	O	0.321606	0.811241	0.706112
	O4548	O	0.321443	0.194597	0.706034
	O4549	O	0.321470	0.311219	0.706034
	O4550	O	0.320652	0.193897	0.683515
	O4551	O	0.320800	0.310634	0.683507
	O4552	O	0.327516	0.695213	0.637321
	O4553	O	0.294482	0.694443	0.634681
	O4554	O	0.291402	0.694858	0.748585
	O4555	O	0.291378	0.811475	0.748573
	O4556	O	0.258502	0.694284	0.745973
	O4557	O	0.258374	0.811178	0.745951
	O4558	O	0.294663	0.811174	0.634689
	O4559	O	0.327445	0.811869	0.637351
	O4560	O	0.327460	0.193755	0.637338
	O4561	O	0.294555	0.194882	0.634703
	O4562	O	0.291397	0.194645	0.748584
	O4563	O	0.291404	0.311238	0.748609
	O4564	O	0.258501	0.194606	0.745980
	O4565	O	0.258326	0.311436	0.746013
	O4566	O	0.294646	0.311576	0.634704
	O4567	O	0.327622	0.310424	0.637330
	H4568	H	0.264158	0.643179	0.714673
	H4569	H	0.263830	0.863005	0.714704
	H4570	H	0.264214	0.143447	0.714773
	H4571	H	0.263824	0.363009	0.714712
	H4572	H	0.273281	0.862497	0.663377
	H4573	H	0.272916	0.643581	0.663332
	H4574	H	0.273075	0.363648	0.663321
	H4575	H	0.273307	0.144624	0.663421
	H4576	H	0.330373	0.064584	0.693106
	H4577	H	0.329148	0.064187	0.695744
	H4578	H	0.329078	0.940860	0.695738
	H4579	H	0.330429	0.940939	0.693043
	H4580	H	0.337341	0.064534	0.692231
	H4581	H	0.337425	0.940770	0.692255
	H4582	H	0.252590	0.064886	0.686170
	H4583	H	0.252470	0.941636	0.686167
	H4584	H	0.249203	0.065171	0.685967
	H4585	H	0.249123	0.941385	0.685978
	H4586	H	0.246797	0.064403	0.687920
	H4587	H	0.246617	0.941186	0.687900
	H4588	H	0.239699	0.441148	0.685662
	H4589	H	0.240702	0.441670	0.690829
	H4590	H	0.250432	0.441402	0.681982
	H4591	H	0.328287	0.441143	0.693756
	H4592	H	0.335347	0.441354	0.691415
	H4593	H	0.341067	0.441389	0.693054
	H4594	H	0.240821	0.565036	0.690880
	H4595	H	0.239703	0.565298	0.685706
	H4596	H	0.340989	0.564517	0.693028
	H4597	H	0.335283	0.564157	0.691385
	H4598	H	0.328316	0.564338	0.693751
	H4599	H	0.250444	0.564573	0.681959
	H4600	H	0.312764	0.643623	0.719946
	H4601	H	0.313221	0.862510	0.720040
	H4602	H	0.312879	0.143541	0.719918
	H4603	H	0.313033	0.362435	0.720001
	H4604	H	0.282703	0.643508	0.647832
	H4605	H	0.326364	0.643752	0.652209
	H4606	H	0.326195	0.863559	0.652291
	H4607	H	0.283099	0.862522	0.647866
	H4608	H	0.322174	0.643447	0.668589
	H4609	H	0.322039	0.863293	0.668652
	H4610	H	0.302770	0.643480	0.735382
	H4611	H	0.303272	0.862600	0.735489
	H4612	H	0.315849	0.441286	0.625193
	H4613	H	0.271422	0.440719	0.756764
	H4614	H	0.314765	0.441383	0.626779
	H4615	H	0.312461	0.440845	0.626872
	H4616	H	0.272029	0.441383	0.758988
	H4617	H	0.270615	0.441210	0.758165
	H4618	H	0.271481	0.564625	0.756769
	H4619	H	0.315822	0.564404	0.625209
	H4620	H	0.270574	0.564350	0.758154
	H4621	H	0.272012	0.564353	0.758977
	H4622	H	0.312465	0.564931	0.626896
	H4623	H	0.314739	0.564423	0.626782
	H4624	H	0.302984	0.143445	0.735374
	H4625	H	0.303196	0.362497	0.735450
	H4626	H	0.303682	0.064187	0.625191
	H4627	H	0.307093	0.064772	0.628970
	H4628	H	0.309602	0.064540	0.620782
	H4629	H	0.259655	0.862675	0.731074
	H4630	H	0.259986	0.642853	0.731036
	H4631	H	0.259593	0.363038	0.731074
	H4632	H	0.260027	0.143491	0.731126
	H4633	H	0.282988	0.144118	0.647921
	H4634	H	0.326117	0.142485	0.652268
	H4635	H	0.326257	0.361776	0.652227
	H4636	H	0.282843	0.363199	0.647792
	H4637	H	0.322012	0.142526	0.668636
	H4638	H	0.322135	0.362034	0.668588
	H4639	H	0.277133	0.064544	0.761391
	H4640	H	0.280632	0.064578	0.758596
	H4641	H	0.276359	0.064637	0.754325
	H4642	H	0.307166	0.941229	0.629037
	H4643	H	0.303719	0.941033	0.625196
	H4644	H	0.309558	0.941452	0.620808
	H4645	H	0.277134	0.941044	0.761432
	H4646	H	0.280613	0.941017	0.758589
	H4647	H	0.276367	0.940726	0.754246
	Zn4648	Zn	0.250742	0.680186	0.688029
	Zn4649	Zn	0.250529	0.825725	0.687981
	Zn4650	Zn	0.250756	0.180150	0.688002
	Zn4651	Zn	0.250525	0.325717	0.688027
	Zn4652	Zn	0.273053	0.680029	0.757813
	Zn4653	Zn	0.272933	0.825200	0.757805
	Zn4654	Zn	0.272953	0.180267	0.757819
	Zn4655	Zn	0.272957	0.325267	0.757866
	C4656	C	0.320560	0.753260	0.679595
	C4657	C	0.265384	0.753279	0.703699
	C4658	C	0.264403	0.753141	0.713696
	C4659	C	0.263205	0.690898	0.718313
	C4660	C	0.263047	0.815186	0.718339
	C4661	C	0.265395	0.253346	0.703766
	C4662	C	0.264425	0.253258	0.713773
	C4663	C	0.263225	0.191213	0.718403
	C4664	C	0.262984	0.315338	0.718373
	C4665	C	0.266988	0.752992	0.673698
	C4666	C	0.272807	0.753012	0.664370
	C4667	C	0.275363	0.814927	0.659920
	C4668	C	0.275162	0.691168	0.659907
	C4669	C	0.266989	0.254094	0.673692
	C4670	C	0.272793	0.254161	0.664363
	C4671	C	0.275255	0.315960	0.659893
	C4672	C	0.275347	0.192169	0.659947
	C4673	C	0.331172	0.043092	0.694663
	C4674	C	0.331158	0.962306	0.694661
	C4675	C	0.250879	0.043606	0.686579
	C4676	C	0.250847	0.962753	0.686575
	C4677	C	0.248413	0.043168	0.688534
	C4678	C	0.248362	0.962511	0.688546
	C4679	C	0.243000	0.462532	0.688208
	C4680	C	0.330313	0.462225	0.695393
	C4681	C	0.337388	0.462512	0.693043
	C4682	C	0.243034	0.543720	0.688213
	C4683	C	0.337367	0.543132	0.693025
	C4684	C	0.330284	0.543182	0.695384
	C4685	C	0.319260	0.753045	0.709722
	C4686	C	0.319092	0.252916	0.709624
	C4687	C	0.313400	0.753109	0.719022
	C4688	C	0.310682	0.691111	0.723409
	C4689	C	0.310950	0.815061	0.723469
	C4690	C	0.313317	0.252974	0.718965
	C4691	C	0.310761	0.191058	0.723382
	C4692	C	0.310887	0.314834	0.723428
	C4693	C	0.320549	0.252254	0.679592
	C4694	C	0.327620	0.753526	0.641263
	C4695	C	0.291176	0.752902	0.637999
	C4696	C	0.258269	0.752669	0.742057
	C4697	C	0.322989	0.691307	0.664953
	C4698	C	0.322931	0.815546	0.664991
	C4699	C	0.326604	0.753621	0.651258
	C4700	C	0.283569	0.752994	0.646941
	C4701	C	0.280503	0.691069	0.651284
	C4702	C	0.325409	0.691446	0.655870
	C4703	C	0.325359	0.815696	0.655916
	C4704	C	0.280727	0.815016	0.651300
	C4705	C	0.321628	0.753364	0.669604
	C4706	C	0.294855	0.753178	0.745289
	C4707	C	0.305231	0.691120	0.732001
	C4708	C	0.305500	0.814990	0.732057
	C4709	C	0.302475	0.753072	0.736380
	C4710	C	0.272536	0.462227	0.756986
	C4711	C	0.313534	0.462419	0.626491
	C4712	C	0.271685	0.462552	0.758384
	C4713	C	0.272571	0.543202	0.756966
	C4714	C	0.271699	0.543161	0.758370
	C4715	C	0.313503	0.543323	0.626492
	C4716	C	0.294862	0.252949	0.745296
	C4717	C	0.305361	0.191034	0.731986
	C4718	C	0.305483	0.314809	0.732033
	C4719	C	0.302534	0.252833	0.736387
	C4720	C	0.307407	0.043076	0.626666
	C4721	C	0.327712	0.252065	0.641250
	C4722	C	0.291157	0.253302	0.638012
	C4723	C	0.258285	0.253083	0.742089
	C4724	C	0.322897	0.190226	0.664990
	C4725	C	0.322958	0.314267	0.664957
	C4726	C	0.326640	0.252022	0.651250
	C4727	C	0.283566	0.253652	0.646954
	C4728	C	0.259383	0.752789	0.732056
	C4729	C	0.260628	0.814956	0.727423
	C4730	C	0.260811	0.690761	0.727400
	C4731	C	0.259395	0.253273	0.732104
	C4732	C	0.260554	0.315311	0.727450
	C4733	C	0.260796	0.191197	0.727477
	C4734	C	0.280695	0.191803	0.651331
	C4735	C	0.325328	0.190173	0.655910
	C4736	C	0.325375	0.314105	0.655874
	C4737	C	0.280615	0.315751	0.651274
	C4738	C	0.321633	0.252234	0.669610
	C4739	C	0.277259	0.043161	0.759402
	C4740	C	0.313348	0.043379	0.622211
	C4741	C	0.307465	0.962324	0.626673
	C4742	C	0.277270	0.962365	0.759401
	C4743	C	0.313336	0.962773	0.622202
	N4744	N	0.250796	0.070381	0.687994
	N4745	N	0.250697	0.935862	0.688006
	N4746	N	0.250642	0.435708	0.688078
	N4747	N	0.250709	0.570164	0.688069
	N4748	N	0.272879	0.435573	0.757849
	N4749	N	0.272933	0.570122	0.757840
	N4750	N	0.272830	0.070111	0.757805
	N4751	N	0.272804	0.935508	0.757785
	O4752	O	0.355965	0.695467	0.802366
	O4753	O	0.355998	0.811511	0.802437
	O4754	O	0.230296	0.694457	0.829964
	O4755	O	0.230380	0.810553	0.829899
	O4756	O	0.230390	0.194688	0.829959
	O4757	O	0.230311	0.310732	0.829966
	O4758	O	0.228608	0.693565	0.810985
	O4759	O	0.228771	0.810510	0.811018
	O4760	O	0.228836	0.194092	0.811083
	O4761	O	0.228759	0.311012	0.811042
	O4762	O	0.362526	0.694927	0.822277
	O4763	O	0.362573	0.811096	0.822288
	O4764	O	0.362604	0.195101	0.822345
	O4765	O	0.362784	0.311115	0.822392
	O4766	O	0.356035	0.194811	0.802424
	O4767	O	0.356121	0.310918	0.802377
	O4768	O	0.292873	0.695237	0.767481
	O4769	O	0.259200	0.694012	0.768577
	O4770	O	0.327866	0.695121	0.863371
	O4771	O	0.327832	0.811153	0.863349
	O4772	O	0.293601	0.694855	0.864821
	O4773	O	0.293513	0.810768	0.864863
	O4774	O	0.259030	0.810501	0.768519
	O4775	O	0.292914	0.811416	0.767421
	O4776	O	0.292842	0.194814	0.767465
	O4777	O	0.259061	0.194427	0.768577
	O4778	O	0.327723	0.195009	0.863429
	O4779	O	0.327590	0.311072	0.863350
	O4780	O	0.293494	0.194896	0.864856
	O4781	O	0.293614	0.310845	0.864817
	O4782	O	0.259172	0.310976	0.768633
	O4783	O	0.292709	0.310967	0.767532
	H4784	H	0.250686	0.644548	0.841131
	H4785	H	0.250480	0.860265	0.841147
	H4786	H	0.250826	0.144155	0.841041
	H4787	H	0.250656	0.361162	0.841129
	H4788	H	0.240560	0.861491	0.797905
	H4789	H	0.240700	0.642578	0.797951
	H4790	H	0.240397	0.362180	0.797888
	H4791	H	0.240398	0.142846	0.797947
	H4792	H	0.378346	0.064188	0.811732
	H4793	H	0.377775	0.064447	0.810921
	H4794	H	0.377852	0.941033	0.810868
	H4795	H	0.378436	0.940984	0.811720
	H4796	H	0.376925	0.064106	0.812615
	H4797	H	0.377020	0.941160	0.812592
	H4798	H	0.218305	0.064426	0.820584
	H4799	H	0.218317	0.941373	0.820549
	H4800	H	0.215410	0.064776	0.817239
	H4801	H	0.215409	0.940902	0.817237
	H4802	H	0.206291	0.064178	0.816601
	H4803	H	0.206265	0.940890	0.816585
	H4804	H	0.216226	0.440748	0.822276
	H4805	H	0.216585	0.441143	0.819249
	H4806	H	0.209281	0.441176	0.823784
	H4807	H	0.379934	0.441434	0.814298
	H4808	H	0.372915	0.441280	0.814079
	H4809	H	0.370397	0.440663	0.811692
	H4810	H	0.216504	0.564460	0.819274
	H4811	H	0.216231	0.564343	0.822262
	H4812	H	0.370217	0.564473	0.811626
	H4813	H	0.372872	0.564422	0.814082
	H4814	H	0.379891	0.564506	0.814334
	H4815	H	0.209372	0.564904	0.823778
	H4816	H	0.351488	0.645034	0.835392
	H4817	H	0.351290	0.861521	0.835355
	H4818	H	0.351212	0.145200	0.835418
	H4819	H	0.351305	0.360834	0.835419
	H4820	H	0.250736	0.642737	0.782492
	H4821	H	0.313318	0.645333	0.778558
	H4822	H	0.313146	0.861909	0.778639
	H4823	H	0.250586	0.861542	0.782466
	H4824	H	0.335728	0.645355	0.791177
	H4825	H	0.335618	0.861842	0.791281
	H4826	H	0.339242	0.644854	0.850293
	H4827	H	0.339068	0.861562	0.850277
	H4828	H	0.273441	0.440936	0.756613
	H4829	H	0.311455	0.441250	0.873317
	H4830	H	0.275346	0.441031	0.757738
	H4831	H	0.274756	0.441270	0.758803
	H4832	H	0.313878	0.441072	0.875515
	H4833	H	0.311811	0.441185	0.874994
	H4834	H	0.311449	0.564040	0.873273
	H4835	H	0.273574	0.564505	0.756612
	H4836	H	0.311770	0.564628	0.874940
	H4837	H	0.313886	0.564243	0.875512
	H4838	H	0.274770	0.564774	0.758769
	H4839	H	0.275484	0.564566	0.757769
	H4840	H	0.338920	0.145084	0.850335
	H4841	H	0.339017	0.360939	0.850339
	H4842	H	0.265186	0.064694	0.757782
	H4843	H	0.268220	0.064759	0.760881
	H4844	H	0.269822	0.064609	0.753930
	H4845	H	0.273026	0.860476	0.853734
	H4846	H	0.273232	0.644823	0.853698
	H4847	H	0.273168	0.361083	0.853730
	H4848	H	0.273323	0.144436	0.853636
	H4849	H	0.250392	0.142789	0.782482
	H4850	H	0.313219	0.145210	0.778589
	H4851	H	0.313115	0.360868	0.778675
	H4852	H	0.250470	0.362011	0.782454
	H4853	H	0.335695	0.144827	0.791212
	H4854	H	0.335579	0.360981	0.791284
	H4855	H	0.308764	0.064178	0.873730
	H4856	H	0.310294	0.064587	0.875878
	H4857	H	0.316057	0.064497	0.876601
	H4858	H	0.268215	0.941192	0.760892
	H4859	H	0.265072	0.941477	0.757718
	H4860	H	0.269827	0.941239	0.753871
	H4861	H	0.308746	0.940785	0.873645
	H4862	H	0.310262	0.941513	0.875877
	H4863	H	0.316082	0.941522	0.876609
	Zn4864	Zn	0.210252	0.680163	0.820334
	Zn4865	Zn	0.210414	0.825225	0.820281
	Zn4866	Zn	0.210413	0.180396	0.820337
	Zn4867	Zn	0.210404	0.325230	0.820332
	Zn4868	Zn	0.313900	0.679925	0.874051
	Zn4869	Zn	0.313936	0.825417	0.874062
	Zn4870	Zn	0.313816	0.180117	0.874106
	Zn4871	Zn	0.313859	0.325405	0.874117
	C4872	C	0.350603	0.753564	0.799550
	C4873	C	0.235682	0.752495	0.832811
	C4874	C	0.249359	0.752422	0.840341
	C4875	C	0.255736	0.691424	0.843904
	C4876	C	0.255609	0.813501	0.843922
	C4877	C	0.235740	0.252746	0.832803
	C4878	C	0.249365	0.252783	0.840320
	C4879	C	0.255745	0.191392	0.843873
	C4880	C	0.255656	0.314082	0.843921
	C4881	C	0.232215	0.752010	0.807733
	C4882	C	0.240010	0.751963	0.798848
	C4883	C	0.242936	0.813943	0.794499
	C4884	C	0.242990	0.690082	0.794519
	C4885	C	0.232267	0.252549	0.807783
	C4886	C	0.239928	0.252576	0.798875
	C4887	C	0.242837	0.314567	0.794509
	C4888	C	0.242815	0.190447	0.794535
	C4889	C	0.377639	0.043179	0.811396
	C4890	C	0.377686	0.962363	0.811374
	C4891	C	0.215087	0.043431	0.819287
	C4892	C	0.215077	0.962285	0.819257
	C4893	C	0.205943	0.043040	0.818588
	C4894	C	0.205904	0.962383	0.818566
	C4895	C	0.214754	0.462329	0.820656
	C4896	C	0.379917	0.462544	0.812764
	C4897	C	0.372880	0.462358	0.812546
	C4898	C	0.214716	0.543038	0.820644
	C4899	C	0.372836	0.543301	0.812530
	C4900	C	0.379891	0.543353	0.812758
	C4901	C	0.359526	0.753047	0.825652
	C4902	C	0.359664	0.253065	0.825733
	C4903	C	0.351829	0.753224	0.834489
	C4904	C	0.348579	0.691842	0.838690
	C4905	C	0.348468	0.814678	0.838671
	C4906	C	0.351988	0.253046	0.834569
	C4907	C	0.348517	0.191887	0.838741
	C4908	C	0.348570	0.314136	0.838756
	C4909	C	0.350730	0.252875	0.799528
	C4910	C	0.298205	0.753398	0.770329
	C4911	C	0.256811	0.752294	0.772163
	C4912	C	0.288194	0.752802	0.861988
	C4913	C	0.330641	0.692348	0.788424
	C4914	C	0.330587	0.814849	0.788477
	C4915	C	0.311790	0.753690	0.777877
	C4916	C	0.250973	0.752131	0.781491
	C4917	C	0.248479	0.690221	0.785932
	C4918	C	0.318208	0.692431	0.781405
	C4919	C	0.318131	0.814828	0.781458
	C4920	C	0.248417	0.814021	0.785909
	C4921	C	0.336863	0.753566	0.792061
	C4922	C	0.330854	0.753096	0.859988
	C4923	C	0.341856	0.691810	0.846958
	C4924	C	0.341749	0.814734	0.846948
	C4925	C	0.338387	0.753215	0.851126
	C4926	C	0.312735	0.462307	0.873294
	C4927	C	0.274472	0.462361	0.758146
	C4928	C	0.313096	0.462264	0.874958
	C4929	C	0.312742	0.543119	0.873278
	C4930	C	0.313103	0.543166	0.874938
	C4931	C	0.274517	0.543314	0.758157
	C4932	C	0.330651	0.253019	0.860003
	C4933	C	0.341738	0.191754	0.847003
	C4934	C	0.341770	0.314205	0.847011
	C4935	C	0.338348	0.252976	0.851167
	C4936	C	0.268276	0.043399	0.758911
	C4937	C	0.298137	0.252902	0.770360
	C4938	C	0.256765	0.252639	0.772207
	C4939	C	0.288247	0.252893	0.861936
	C4940	C	0.330668	0.191875	0.788433
	C4941	C	0.330587	0.314072	0.788476
	C4942	C	0.311781	0.252983	0.777887
	C4943	C	0.250933	0.252468	0.781539
	C4944	C	0.274511	0.752680	0.854487
	C4945	C	0.268094	0.813605	0.850919
	C4946	C	0.268209	0.691559	0.850906
	C4947	C	0.274542	0.252769	0.854436
	C4948	C	0.268139	0.314088	0.850917
	C4949	C	0.268225	0.191409	0.850867
	C4950	C	0.248278	0.190395	0.785944
	C4951	C	0.318174	0.192015	0.781439
	C4952	C	0.318086	0.314024	0.781490
	C4953	C	0.248315	0.314509	0.785922
	C4954	C	0.336985	0.252932	0.792031
	C4955	C	0.310652	0.043237	0.874606
	C4956	C	0.273017	0.043346	0.755067
	C4957	C	0.268249	0.962461	0.758893
	C4958	C	0.310673	0.962370	0.874591
	C4959	C	0.273032	0.962454	0.755029
	N4960	N	0.210340	0.070204	0.820320
	N4961	N	0.210321	0.935560	0.820303
	N4962	N	0.210241	0.435398	0.820359
	N4963	N	0.210195	0.569958	0.820379
	N4964	N	0.313794	0.435528	0.874102
	N4965	N	0.313797	0.570034	0.874065
	N4966	N	0.313826	0.070130	0.874090
	N4967	N	0.313856	0.935611	0.874066
	O4968	O	0.397204	0.694584	0.918316
	O4969	O	0.397202	0.810698	0.918293
	O4970	O	0.271790	0.694890	0.945867
	O4971	O	0.271731	0.810787	0.945857
	O4972	O	0.271844	0.194250	0.945913
	O4973	O	0.271990	0.310384	0.945855
	O4974	O	0.265427	0.694906	0.925953
	O4975	O	0.265350	0.811043	0.925853
	O4976	O	0.265388	0.194282	0.925922
	O4977	O	0.265573	0.310118	0.925993
	O4978	O	0.398562	0.694855	0.937218
	O4979	O	0.398666	0.811623	0.937195
	O4980	O	0.398762	0.194332	0.937241
	O4981	O	0.398702	0.311117	0.937256
	O4982	O	0.397310	0.194433	0.918243
	O4983	O	0.397243	0.310525	0.918297
	O4984	O	0.334123	0.694908	0.883297
	O4985	O	0.300067	0.694916	0.884818
	O4986	O	0.368564	0.695027	0.979737
	O4987	O	0.368576	0.811482	0.979746
	O4988	O	0.334960	0.694078	0.980789
	O4989	O	0.334773	0.810285	0.980858
	O4990	O	0.299897	0.810986	0.884698
	O4991	O	0.334212	0.810864	0.883304
	O4992	O	0.334193	0.194613	0.883268
	O4993	O	0.299703	0.194885	0.884712
	O4994	O	0.368466	0.194056	0.979739
	O4995	O	0.368537	0.310510	0.979781
	O4996	O	0.334834	0.194543	0.980923
	O4997	O	0.334908	0.310760	0.980868
	O4998	O	0.299947	0.310813	0.884822
	O4999	O	0.334093	0.310731	0.883350
	H5000	H	0.292371	0.644656	0.956907
	H5001	H	0.291944	0.860448	0.957096
	H5002	H	0.292191	0.144603	0.957039
	H5003	H	0.292319	0.360186	0.956990
	H5004	H	0.276495	0.861199	0.912719
	H5005	H	0.276844	0.644857	0.912897
	H5006	H	0.276720	0.360012	0.912902
	H5007	H	0.276352	0.144434	0.912737
	H5008	H	0.419130	0.064681	0.928509
	H5009	H	0.419108	0.064402	0.927556
	H5010	H	0.419194	0.941207	0.927534
	H5011	H	0.419206	0.941114	0.928487
	H5012	H	0.416939	0.064604	0.929105
	H5013	H	0.416970	0.940764	0.929086
	H5014	H	0.247316	0.064344	0.940325
	H5015	H	0.247263	0.941065	0.940306
	H5016	H	0.254385	0.064429	0.940956
	H5017	H	0.254371	0.940651	0.940935
	H5018	H	0.259998	0.064349	0.936981
	H5019	H	0.259933	0.941238	0.936929
	H5020	H	0.248994	0.441118	0.938250
	H5021	H	0.252383	0.441196	0.938867
	H5022	H	0.247750	0.440989	0.935777
	H5023	H	0.415501	0.440612	0.926347
	H5024	H	0.419299	0.441109	0.926798
	H5025	H	0.420300	0.441360	0.928180
	H5026	H	0.252383	0.564462	0.938834
	H5027	H	0.248943	0.564636	0.938262
	H5028	H	0.420353	0.564993	0.928189
	H5029	H	0.419236	0.564729	0.926775
	H5030	H	0.415399	0.564527	0.926321
	H5031	H	0.247655	0.564501	0.935782
	H5032	H	0.387196	0.643626	0.950398
	H5033	H	0.387103	0.862977	0.950379
	H5034	H	0.387024	0.143094	0.950381
	H5035	H	0.387051	0.361953	0.950380
	H5036	H	0.288985	0.644819	0.897967
	H5037	H	0.354493	0.644627	0.894469
	H5038	H	0.354454	0.861042	0.894504
	H5039	H	0.288647	0.860923	0.897763
	H5040	H	0.376971	0.644587	0.907095
	H5041	H	0.376902	0.860952	0.907132
	H5042	H	0.377365	0.643618	0.965895
	H5043	H	0.377273	0.862640	0.965884
	H5044	H	0.313260	0.440722	0.872677
	H5045	H	0.359287	0.440735	0.989168
	H5046	H	0.316112	0.440870	0.873459
	H5047	H	0.316394	0.441243	0.874674
	H5048	H	0.349925	0.441097	0.989073
	H5049	H	0.353552	0.440686	0.987699
	H5050	H	0.359295	0.564629	0.989093
	H5051	H	0.313256	0.564583	0.872656
	H5052	H	0.353484	0.564339	0.987721
	H5053	H	0.350027	0.563978	0.989074
	H5054	H	0.316403	0.564146	0.874656
	H5055	H	0.316124	0.565018	0.873418
	H5056	H	0.377103	0.142991	0.965842
	H5057	H	0.377064	0.361862	0.965882
	H5058	H	0.316676	0.064241	0.871963
	H5059	H	0.312408	0.064204	0.871425
	H5060	H	0.318790	0.064933	0.874934
	H5061	H	0.314352	0.860200	0.969752
	H5062	H	0.314785	0.644768	0.969567
	H5063	H	0.314719	0.360331	0.969651
	H5064	H	0.314660	0.144639	0.969682
	H5065	H	0.288402	0.144727	0.897762
	H5066	H	0.354502	0.144784	0.894414
	H5067	H	0.354568	0.360478	0.894437
	H5068	H	0.288798	0.360294	0.897949
	H5069	H	0.376983	0.144437	0.907054
	H5070	H	0.377100	0.360691	0.907066
	H5071	H	0.348807	0.063952	0.991831
	H5072	H	0.353047	0.064096	0.993828
	H5073	H	0.360138	0.064601	0.992650
	H5074	H	0.312499	0.941073	0.871416
	H5075	H	0.316781	0.940970	0.871969
	H5076	H	0.318822	0.941312	0.874946
	H5077	H	0.348691	0.940659	0.991779
	H5078	H	0.353003	0.940915	0.993806
	H5079	H	0.360117	0.940895	0.992589
	Zn5080	Zn	0.251528	0.679664	0.936599
	Zn5081	Zn	0.251469	0.825518	0.936623
	Zn5082	Zn	0.251512	0.179735	0.936663
	Zn5083	Zn	0.251660	0.325449	0.936669
	Zn5084	Zn	0.354845	0.680082	0.990491
	Zn5085	Zn	0.354644	0.825290	0.990480
	Zn5086	Zn	0.354662	0.179954	0.990531
	Zn5087	Zn	0.354755	0.325196	0.990534
	C5088	C	0.391868	0.752636	0.915428
	C5089	C	0.277088	0.752843	0.948738
	C5090	C	0.290714	0.752599	0.956270
	C5091	C	0.297223	0.691586	0.959786
	C5092	C	0.296984	0.813605	0.959885
	C5093	C	0.277253	0.252281	0.948744
	C5094	C	0.290967	0.252229	0.956253
	C5095	C	0.297263	0.191243	0.959845
	C5096	C	0.297320	0.313438	0.959807
	C5097	C	0.268418	0.752896	0.922532
	C5098	C	0.275948	0.753122	0.913659
	C5099	C	0.279238	0.814269	0.909412
	C5100	C	0.279420	0.691737	0.909525
	C5101	C	0.268454	0.252164	0.922565
	C5102	C	0.275944	0.252249	0.913689
	C5103	C	0.279366	0.313404	0.909534
	C5104	C	0.279148	0.191164	0.909446
	C5105	C	0.418677	0.043221	0.928010
	C5106	C	0.418680	0.962569	0.927998
	C5107	C	0.250997	0.043232	0.939585
	C5108	C	0.251012	0.962220	0.939578
	C5109	C	0.256654	0.043023	0.935600
	C5110	C	0.256633	0.962477	0.935587
	C5111	C	0.250966	0.462386	0.938074
	C5112	C	0.415309	0.462231	0.927174
	C5113	C	0.419141	0.462459	0.927609
	C5114	C	0.250941	0.543138	0.938070
	C5115	C	0.419124	0.543298	0.927607
	C5116	C	0.415293	0.543111	0.927179
	C5117	C	0.395238	0.753333	0.940514
	C5118	C	0.395238	0.252686	0.940524
	C5119	C	0.387696	0.753317	0.949446
	C5120	C	0.384845	0.691276	0.953816
	C5121	C	0.384808	0.815254	0.953806
	C5122	C	0.387575	0.252579	0.949437
	C5123	C	0.384720	0.190660	0.953796
	C5124	C	0.384721	0.314421	0.953807
	C5125	C	0.391964	0.252475	0.915390
	C5126	C	0.339504	0.752811	0.886167
	C5127	C	0.296989	0.753025	0.888144
	C5128	C	0.329509	0.752185	0.977949
	C5129	C	0.371972	0.691534	0.904287
	C5130	C	0.371917	0.813948	0.904316
	C5131	C	0.353199	0.752858	0.893683
	C5132	C	0.289343	0.753026	0.896990
	C5133	C	0.286090	0.691776	0.901239
	C5134	C	0.359537	0.691616	0.897259
	C5135	C	0.359490	0.814043	0.897288
	C5136	C	0.285903	0.814222	0.901122
	C5137	C	0.378261	0.752710	0.907876
	C5138	C	0.370983	0.753257	0.976148
	C5139	C	0.379460	0.691185	0.962419
	C5140	C	0.379417	0.815160	0.962413
	C5141	C	0.376866	0.753151	0.966836
	C5142	C	0.358407	0.462093	0.990396
	C5143	C	0.315615	0.462328	0.874072
	C5144	C	0.352576	0.462274	0.988956
	C5145	C	0.358421	0.542914	0.990368
	C5146	C	0.352591	0.542963	0.988956
	C5147	C	0.315618	0.543261	0.874049
	C5148	C	0.370832	0.252341	0.976143
	C5149	C	0.379277	0.190602	0.962394
	C5150	C	0.379269	0.314408	0.962409
	C5151	C	0.376648	0.252501	0.966806
	C5152	C	0.314376	0.043062	0.872319
	C5153	C	0.339507	0.252650	0.886165
	C5154	C	0.296747	0.252742	0.888124
	C5155	C	0.329544	0.252660	0.978028
	C5156	C	0.371985	0.191466	0.904264
	C5157	C	0.372044	0.313655	0.904272
	C5158	C	0.353192	0.252583	0.893694
	C5159	C	0.289195	0.252547	0.896992
	C5160	C	0.315866	0.752442	0.970425
	C5161	C	0.309427	0.813473	0.966903
	C5162	C	0.309668	0.691539	0.966799
	C5163	C	0.315995	0.252554	0.970448
	C5164	C	0.309721	0.313539	0.966851
	C5165	C	0.309688	0.191476	0.966871
	C5166	C	0.285781	0.191395	0.901146
	C5167	C	0.359526	0.191480	0.897249
	C5168	C	0.359570	0.313688	0.897260
	C5169	C	0.285996	0.313549	0.901242
	C5170	C	0.378357	0.252534	0.907841
	C5171	C	0.351923	0.042865	0.992219
	C5172	C	0.316487	0.043446	0.875341
	C5173	C	0.314445	0.962403	0.872314
	C5174	C	0.351907	0.962158	0.992198
	C5175	C	0.316518	0.962556	0.875337
	N5176	N	0.251550	0.069941	0.936649
	N5177	N	0.251529	0.935481	0.936647
	N5178	N	0.251688	0.435471	0.936664
	N5179	N	0.251615	0.569907	0.936640
	N5180	N	0.354835	0.435331	0.990540
	N5181	N	0.354881	0.569922	0.990525
	N5182	N	0.354693	0.069815	0.990511
	N5183	N	0.354677	0.935301	0.990489
	O5184	O	0.518696	0.694415	0.044247
	O5185	O	0.518831	0.810706	0.044190
	O5186	O	0.396534	0.694907	0.070221
	O5187	O	0.396518	0.811264	0.070192
	O5188	O	0.396625	0.194779	0.070192
	O5189	O	0.396609	0.311219	0.070226
	O5190	O	0.395521	0.694252	0.051134
	O5191	O	0.395425	0.810983	0.051113
	O5192	O	0.395460	0.194491	0.051126
	O5193	O	0.395490	0.311242	0.051118
	O5194	O	0.519748	0.694415	0.063260
	O5195	O	0.519696	0.811293	0.063234
	O5196	O	0.519818	0.194203	0.063307
	O5197	O	0.519893	0.310973	0.063303
	O5198	O	0.518912	0.194206	0.044179
	O5199	O	0.518798	0.310641	0.044257
	O5200	O	0.458948	0.694266	0.007693
	O5201	O	0.425457	0.694565	0.008562
	O5202	O	0.490025	0.694236	0.105944
	O5203	O	0.490098	0.810734	0.105957
	O5204	O	0.456387	0.694633	0.106776
	O5205	O	0.456567	0.810833	0.106789
	O5206	O	0.425402	0.810979	0.008513
	O5207	O	0.459064	0.810547	0.007654
	O5208	O	0.458978	0.194492	0.007662
	O5209	O	0.425323	0.194592	0.008520
	O5210	O	0.489694	0.194207	0.105860
	O5211	O	0.489910	0.310780	0.105917
	O5212	O	0.456403	0.194168	0.106765
	O5213	O	0.456316	0.310456	0.106832
	O5214	O	0.425508	0.311081	0.008579
	O5215	O	0.458896	0.310557	0.007688
	H5216	H	0.415759	0.644684	0.081903
	H5217	H	0.415895	0.861809	0.081922
	H5218	H	0.415943	0.143992	0.081809
	H5219	H	0.415933	0.361741	0.081907
	H5220	H	0.407003	0.862266	0.037963
	H5221	H	0.407239	0.643277	0.037980
	H5222	H	0.407356	0.362489	0.038030
	H5223	H	0.406920	0.143341	0.037969
	H5224	H	0.537178	0.064423	0.052415
	H5225	H	0.535244	0.064100	0.053443
	H5226	H	0.535217	0.941037	0.053416
	H5227	H	0.537132	0.940786	0.052391
	H5228	H	0.540823	0.064336	0.053036
	H5229	H	0.540890	0.940730	0.053032
	H5230	H	0.369171	0.064077	0.056311
	H5231	H	0.368949	0.940970	0.056298
	H5232	H	0.366517	0.064147	0.060726
	H5233	H	0.366409	0.940955	0.060761
	H5234	H	0.375022	0.064810	0.065831
	H5235	H	0.374972	0.939812	0.065871
	H5236	H	0.383757	0.440558	0.059586
	H5237	H	0.379862	0.440619	0.057015
	H5238	H	0.381232	0.440835	0.063497
	H5239	H	0.530940	0.440984	0.055606
	H5240	H	0.532536	0.441501	0.050747
	H5241	H	0.539123	0.441115	0.049746
	H5242	H	0.379777	0.564238	0.057069
	H5243	H	0.383758	0.564210	0.059561
	H5244	H	0.538960	0.564663	0.049702
	H5245	H	0.532549	0.564374	0.050782
	H5246	H	0.530860	0.564145	0.055606
	H5247	H	0.381168	0.564241	0.063450
	H5248	H	0.508157	0.643259	0.076431
	H5249	H	0.508257	0.862597	0.076479
	H5250	H	0.508239	0.143348	0.076438
	H5251	H	0.508133	0.361907	0.076465
	H5252	H	0.417028	0.643391	0.022510
	H5253	H	0.478171	0.644283	0.019375
	H5254	H	0.478332	0.860307	0.019306
	H5255	H	0.416771	0.862647	0.022475
	H5256	H	0.499408	0.644540	0.032580
	H5257	H	0.499595	0.860664	0.032517
	H5258	H	0.498392	0.643117	0.091918
	H5259	H	0.498518	0.862291	0.091992
	H5260	H	0.435400	0.440751	0.001895
	H5261	H	0.483969	0.440654	0.115439
	H5262	H	0.430631	0.440776	-0.003082
	H5263	H	0.434564	0.440871	-0.006247
	H5264	H	0.469794	0.441060	0.113496
	H5265	H	0.476127	0.440873	0.112166
	H5266	H	0.483938	0.564105	0.115411
	H5267	H	0.435394	0.563852	0.001897
	H5268	H	0.476012	0.564491	0.112158
	H5269	H	0.469666	0.564076	0.113489
	H5270	H	0.434611	0.564239	-0.006255
	H5271	H	0.430585	0.564226	-0.003087
	H5272	H	0.498296	0.143111	0.091923
	H5273	H	0.498300	0.361895	0.091944
	H5274	H	0.429077	0.064039	-0.005310
	H5275	H	0.428774	0.064307	-0.000213
	H5276	H	0.440761	0.064681	-0.008195
	H5277	H	0.437013	0.861509	0.095159
	H5278	H	0.436973	0.644862	0.095146
	H5279	H	0.437128	0.361394	0.095108
	H5280	H	0.437144	0.143762	0.095040
	H5281	H	0.416720	0.143201	0.022484
	H5282	H	0.478493	0.143860	0.019250
	H5283	H	0.478208	0.361371	0.019398
	H5284	H	0.417212	0.362408	0.022546
	H5285	H	0.499717	0.143961	0.032461
	H5286	H	0.499351	0.361206	0.032603
	H5287	H	0.470818	0.064548	0.120306
	H5288	H	0.478240	0.064020	0.121430
	H5289	H	0.485199	0.064380	0.117561
	H5290	H	0.428723	0.940622	-0.000286
	H5291	H	0.429132	0.940711	-0.005343
	H5292	H	0.440821	0.940444	-0.008220
	H5293	H	0.470831	0.940615	0.120339
	H5294	H	0.478314	0.940668	0.121422
	H5295	H	0.485243	0.940931	0.117528
	Zn5296	Zn	0.377048	0.679975	0.060334
	Zn5297	Zn	0.376922	0.824986	0.060325
	Zn5298	Zn	0.377183	0.179719	0.060387
	Zn5299	Zn	0.376983	0.324917	0.060347
	Zn5300	Zn	0.475913	0.680144	0.116581
	Zn5301	Zn	0.476107	0.824918	0.116641
	Zn5302	Zn	0.475974	0.180198	0.116650
	Zn5303	Zn	0.475959	0.324838	0.116621
	C5304	C	0.513651	0.752579	0.041241
	C5305	C	0.401622	0.753148	0.073211
	C5306	C	0.414569	0.753201	0.081084
	C5307	C	0.420521	0.691811	0.084837
	C5308	C	0.420585	0.814529	0.084842
	C5309	C	0.401742	0.252989	0.073174
	C5310	C	0.414718	0.252894	0.081044
	C5311	C	0.420656	0.191133	0.084780
	C5312	C	0.420655	0.314416	0.084824
	C5313	C	0.398921	0.752641	0.047830
	C5314	C	0.406509	0.752750	0.038902
	C5315	C	0.409331	0.814773	0.034531
	C5316	C	0.409493	0.690869	0.034548
	C5317	C	0.398964	0.252845	0.047841
	C5318	C	0.406566	0.252932	0.038924
	C5319	C	0.409547	0.314926	0.034576
	C5320	C	0.409261	0.190896	0.034538
	C5321	C	0.536798	0.042866	0.053237
	C5322	C	0.536803	0.962149	0.053225
	C5323	C	0.370225	0.042482	0.059008
	C5324	C	0.370134	0.962234	0.059008
	C5325	C	0.378760	0.043048	0.064106
	C5326	C	0.378727	0.961775	0.064119
	C5327	C	0.380498	0.461914	0.058821
	C5328	C	0.534859	0.462181	0.056162
	C5329	C	0.536550	0.462335	0.051242
	C5330	C	0.380468	0.542941	0.058837
	C5331	C	0.536518	0.543077	0.051249
	C5332	C	0.534863	0.543074	0.056144
	C5333	C	0.516238	0.752896	0.066523
	C5334	C	0.516400	0.252664	0.066607
	C5335	C	0.508733	0.752972	0.075494
	C5336	C	0.505883	0.690904	0.079867
	C5337	C	0.505968	0.814953	0.079901
	C5338	C	0.508755	0.252650	0.075534
	C5339	C	0.505889	0.190759	0.079883
	C5340	C	0.505832	0.314484	0.079900
	C5341	C	0.513760	0.252488	0.041219
	C5342	C	0.464116	0.752371	0.010641
	C5343	C	0.423068	0.752859	0.012151
	C5344	C	0.451320	0.752911	0.103814
	C5345	C	0.494712	0.691338	0.029622
	C5346	C	0.494799	0.813696	0.029590
	C5347	C	0.477055	0.752324	0.018505
	C5348	C	0.417260	0.752958	0.021483
	C5349	C	0.414839	0.691014	0.025935
	C5350	C	0.482971	0.691223	0.022277
	C5351	C	0.483048	0.813516	0.022247
	C5352	C	0.414681	0.814913	0.025912
	C5353	C	0.500709	0.752567	0.033344
	C5354	C	0.492339	0.752483	0.102319
	C5355	C	0.500579	0.690849	0.088498
	C5356	C	0.500645	0.814742	0.088530
	C5357	C	0.498095	0.752725	0.092959
	C5358	C	0.481701	0.461943	0.117096
	C5359	C	0.434346	0.462142	-0.004004
	C5360	C	0.473807	0.462190	0.113825
	C5361	C	0.481679	0.542883	0.117088
	C5362	C	0.473747	0.543030	0.113823
	C5363	C	0.434352	0.542960	-0.004019
	C5364	C	0.492124	0.252499	0.102276
	C5365	C	0.500444	0.190692	0.088489
	C5366	C	0.500426	0.314370	0.088510
	C5367	C	0.497902	0.252466	0.092944
	C5368	C	0.431632	0.042816	-0.002621
	C5369	C	0.464088	0.252522	0.010646
	C5370	C	0.423099	0.252792	0.012170
	C5371	C	0.451273	0.252334	0.103798
	C5372	C	0.494922	0.191126	0.029539
	C5373	C	0.494718	0.314030	0.029631
	C5374	C	0.477071	0.252578	0.018488
	C5375	C	0.417344	0.252819	0.021519
	C5376	C	0.438337	0.753163	0.095935
	C5377	C	0.432354	0.814442	0.092183
	C5378	C	0.432294	0.691873	0.092180
	C5379	C	0.438320	0.252580	0.095917
	C5380	C	0.432390	0.314228	0.092179
	C5381	C	0.432397	0.191086	0.092130
	C5382	C	0.414640	0.190902	0.025929
	C5383	C	0.483140	0.191118	0.022210
	C5384	C	0.482956	0.314086	0.022290
	C5385	C	0.414942	0.314801	0.025968
	C5386	C	0.500824	0.252540	0.033323
	C5387	C	0.474994	0.043168	0.119780
	C5388	C	0.443417	0.043162	-0.005523
	C5389	C	0.431625	0.962269	-0.002641
	C5390	C	0.475027	0.962249	0.119790
	C5391	C	0.443450	0.962239	-0.005530
	N5392	N	0.377116	0.069530	0.060353
	N5393	N	0.377030	0.935019	0.060344
	N5394	N	0.376956	0.435076	0.060338
	N5395	N	0.376935	0.569691	0.060313
	N5396	N	0.476144	0.435234	0.116601
	N5397	N	0.476092	0.569862	0.116602
	N5398	N	0.476238	0.069822	0.116699
	N5399	N	0.476294	0.935230	0.116704
	O5400	O	0.486077	0.692942	0.174939
	O5401	O	0.485751	0.809868	0.174927
	O5402	O	0.427767	0.694651	0.191214
	O5403	O	0.427838	0.811558	0.191186
	O5404	O	0.427899	0.194137	0.191178
	O5405	O	0.427708	0.311209	0.191169
	O5406	O	0.427643	0.694784	0.168435
	O5407	O	0.427455	0.811225	0.168383
	O5408	O	0.427636	0.194265	0.168435
	O5409	O	0.427777	0.310622	0.168509
	O5410	O	0.484073	0.693393	0.196186
	O5411	O	0.483711	0.809972	0.196109
	O5412	O	0.483762	0.195031	0.196092
	O5413	O	0.484119	0.311688	0.196161
	O5414	O	0.485914	0.194706	0.174935
	O5415	O	0.486181	0.311597	0.174918
	O5416	O	0.490060	0.693198	0.128582
	O5417	O	0.457375	0.694221	0.125785
	O5418	O	0.456611	0.693869	0.239580
	O5419	O	0.456626	0.810758	0.239541
	O5420	O	0.423769	0.694903	0.237492
	O5421	O	0.423707	0.811655	0.237543
	O5422	O	0.457563	0.810928	0.125828
	O5423	O	0.490018	0.809834	0.128605
	O5424	O	0.489979	0.193991	0.128607
	O5425	O	0.457256	0.194032	0.125793
	O5426	O	0.456607	0.194042	0.239519
	O5427	O	0.456735	0.310827	0.239592
	O5428	O	0.423873	0.194233	0.237455
	O5429	O	0.423923	0.311059	0.237492
	O5430	O	0.457422	0.310857	0.125814
	O5431	O	0.489988	0.310792	0.128605
	H5432	H	0.426526	0.643064	0.206079
	H5433	H	0.426656	0.863179	0.206071
	H5434	H	0.426454	0.142801	0.206043
	H5435	H	0.426927	0.362682	0.206053
	H5436	H	0.435846	0.862417	0.154448
	H5437	H	0.436133	0.643274	0.154533
	H5438	H	0.436155	0.362366	0.154468
	H5439	H	0.436154	0.143155	0.154488
	H5440	H	0.511137	0.064294	0.184282
	H5441	H	0.503773	0.064213	0.181022
	H5442	H	0.503716	0.940971	0.181006
	H5443	H	0.511027	0.940527	0.184304
	H5444	H	0.509344	0.064441	0.190820
	H5445	H	0.509323	0.941126	0.190816
	H5446	H	0.412326	0.064394	0.174868
	H5447	H	0.412315	0.940673	0.174914
	H5448	H	0.406793	0.064581	0.176868
	H5449	H	0.406759	0.940937	0.176818
	H5450	H	0.407708	0.063960	0.181728
	H5451	H	0.407727	0.941007	0.181721
	H5452	H	0.424072	0.440946	0.179499
	H5453	H	0.420340	0.440940	0.175317
	H5454	H	0.417438	0.440759	0.184344
	H5455	H	0.505824	0.440979	0.188278
	H5456	H	0.500196	0.440813	0.189115
	H5457	H	0.497000	0.440699	0.187487
	H5458	H	0.420399	0.564558	0.175346
	H5459	H	0.424005	0.564647	0.179501
	H5460	H	0.496938	0.564073	0.187491
	H5461	H	0.500261	0.564179	0.189108
	H5462	H	0.505841	0.564471	0.188286
	H5463	H	0.417465	0.564776	0.184295
	H5464	H	0.474520	0.641563	0.210053
	H5465	H	0.474533	0.861862	0.209970
	H5466	H	0.474060	0.143269	0.209815
	H5467	H	0.474585	0.363256	0.209987
	H5468	H	0.445828	0.643115	0.139012
	H5469	H	0.489168	0.641144	0.143494
	H5470	H	0.488976	0.861158	0.143482
	H5471	H	0.445597	0.862083	0.138926
	H5472	H	0.485830	0.641168	0.159966
	H5473	H	0.485676	0.861182	0.159921
	H5474	H	0.466123	0.642070	0.225838
	H5475	H	0.466173	0.861958	0.225746
	H5476	H	0.483337	0.440557	0.119109
	H5477	H	0.438770	0.441036	0.251136
	H5478	H	0.474517	0.440391	0.120882
	H5479	H	0.468841	0.440906	0.118456
	H5480	H	0.442742	0.440701	0.248322
	H5481	H	0.442740	0.441414	0.250110
	H5482	H	0.438702	0.564354	0.251152
	H5483	H	0.483300	0.564580	0.119060
	H5484	H	0.442612	0.565099	0.250046
	H5485	H	0.442576	0.564184	0.248349
	H5486	H	0.468805	0.563839	0.118469
	H5487	H	0.474483	0.563972	0.120843
	H5488	H	0.465738	0.142699	0.225588
	H5489	H	0.466335	0.362863	0.225795
	H5490	H	0.472508	0.064304	0.112157
	H5491	H	0.467439	0.064461	0.115030
	H5492	H	0.482796	0.064458	0.113661
	H5493	H	0.423404	0.863360	0.222567
	H5494	H	0.423356	0.643171	0.222557
	H5495	H	0.423795	0.363182	0.222509
	H5496	H	0.423298	0.142911	0.222533
	H5497	H	0.445819	0.142915	0.138983
	H5498	H	0.488577	0.142746	0.143430
	H5499	H	0.489130	0.362635	0.143483
	H5500	H	0.445874	0.362132	0.138945
	H5501	H	0.485375	0.142783	0.159915
	H5502	H	0.485978	0.363002	0.159964
	H5503	H	0.423968	0.064732	0.250335
	H5504	H	0.431898	0.064545	0.256079
	H5505	H	0.449633	0.064344	0.255516
	H5506	H	0.467432	0.941175	0.114980
	H5507	H	0.472479	0.941271	0.112152
	H5508	H	0.482812	0.940748	0.113659
	H5509	H	0.423988	0.941008	0.250350
	H5510	H	0.432008	0.941082	0.256125
	H5511	H	0.449666	0.941235	0.255605
	Zn5512	Zn	0.413806	0.680131	0.179221
	Zn5513	Zn	0.413691	0.825013	0.179179
	Zn5514	Zn	0.413728	0.179822	0.179226
	Zn5515	Zn	0.413722	0.325026	0.179198
	Zn5516	Zn	0.439098	0.680370	0.249128
	Zn5517	Zn	0.439221	0.824846	0.249166
	Zn5518	Zn	0.439175	0.180274	0.249092
	Zn5519	Zn	0.439247	0.324760	0.249124
	C5520	C	0.485244	0.751335	0.171035
	C5521	C	0.427986	0.753188	0.195105
	C5522	C	0.427124	0.753224	0.205113
	C5523	C	0.425939	0.690939	0.209749
	C5524	C	0.426018	0.815496	0.209762
	C5525	C	0.428001	0.252688	0.195076
	C5526	C	0.427118	0.252693	0.205087
	C5527	C	0.425896	0.190503	0.209731
	C5528	C	0.426139	0.314998	0.209731
	C5529	C	0.429876	0.752994	0.164795
	C5530	C	0.435615	0.752867	0.155459
	C5531	C	0.438062	0.814747	0.151009
	C5532	C	0.438180	0.690861	0.151056
	C5533	C	0.430019	0.252545	0.164845
	C5534	C	0.435782	0.252795	0.155490
	C5535	C	0.438286	0.314673	0.151029
	C5536	C	0.438266	0.190796	0.151050
	C5537	C	0.505802	0.043136	0.183701
	C5538	C	0.505788	0.962167	0.183687
	C5539	C	0.410735	0.043228	0.176745
	C5540	C	0.410725	0.962039	0.176755
	C5541	C	0.411677	0.042883	0.181719
	C5542	C	0.411677	0.962085	0.181727
	C5543	C	0.420052	0.462262	0.177878
	C5544	C	0.505050	0.462177	0.187018
	C5545	C	0.499413	0.462187	0.187852
	C5546	C	0.420065	0.543265	0.177891
	C5547	C	0.499432	0.543027	0.187848
	C5548	C	0.505057	0.543081	0.187020
	C5549	C	0.481017	0.751667	0.199658
	C5550	C	0.481011	0.253444	0.199619
	C5551	C	0.474801	0.751686	0.208963
	C5552	C	0.472552	0.689560	0.213513
	C5553	C	0.472550	0.813967	0.213455
	C5554	C	0.474845	0.253292	0.208927
	C5555	C	0.472374	0.191012	0.213375
	C5556	C	0.472681	0.315344	0.213482
	C5557	C	0.485383	0.253125	0.171029
	C5558	C	0.490277	0.751403	0.132519
	C5559	C	0.453991	0.752573	0.129099
	C5560	C	0.423116	0.753359	0.233607
	C5561	C	0.486458	0.688933	0.156308
	C5562	C	0.486361	0.813207	0.156285
	C5563	C	0.489476	0.751115	0.142520
	C5564	C	0.446381	0.752564	0.138042
	C5565	C	0.443543	0.690714	0.142438
	C5566	C	0.488384	0.688862	0.147168
	C5567	C	0.488306	0.813319	0.147153
	C5568	C	0.443430	0.814547	0.142391
	C5569	C	0.485455	0.751082	0.160979
	C5570	C	0.459485	0.752270	0.236072
	C5571	C	0.468006	0.689723	0.222302
	C5572	C	0.468007	0.814099	0.222246
	C5573	C	0.465734	0.752057	0.226776
	C5574	C	0.437767	0.462301	0.250259
	C5575	C	0.472887	0.461974	0.118867
	C5576	C	0.441728	0.462325	0.249185
	C5577	C	0.437743	0.542990	0.250239
	C5578	C	0.441674	0.543231	0.249173
	C5579	C	0.472852	0.542775	0.118871
	C5580	C	0.459618	0.252519	0.236076
	C5581	C	0.467867	0.190754	0.222171
	C5582	C	0.468162	0.315035	0.222281
	C5583	C	0.465781	0.252747	0.226765
	C5584	C	0.471654	0.042918	0.114403
	C5585	C	0.490171	0.252410	0.132520
	C5586	C	0.453867	0.252504	0.129083
	C5587	C	0.423181	0.252776	0.233576
	C5588	C	0.486207	0.190618	0.156279
	C5589	C	0.486559	0.315082	0.156313
	C5590	C	0.489364	0.252611	0.142521
	C5591	C	0.446359	0.252565	0.138031
	C5592	C	0.423160	0.753243	0.223555
	C5593	C	0.424123	0.815480	0.218900
	C5594	C	0.424057	0.691015	0.218886
	C5595	C	0.423194	0.252985	0.223535
	C5596	C	0.424259	0.315159	0.218867
	C5597	C	0.423996	0.190675	0.218870
	C5598	C	0.443557	0.190581	0.142422
	C5599	C	0.488069	0.190449	0.147138
	C5600	C	0.488404	0.314941	0.147174
	C5601	C	0.443585	0.314646	0.142400
	C5602	C	0.485459	0.252869	0.160976
	C5603	C	0.430891	0.043146	0.252136
	C5604	C	0.481979	0.043059	0.115895
	C5605	C	0.471658	0.962185	0.114406
	C5606	C	0.430896	0.962263	0.252161
	C5607	C	0.482009	0.962129	0.115881
	N5608	N	0.413944	0.069779	0.179198
	N5609	N	0.413949	0.935260	0.179189
	N5610	N	0.413914	0.435392	0.179181
	N5611	N	0.413955	0.569985	0.179180
	N5612	N	0.439098	0.435259	0.249063
	N5613	N	0.439018	0.569916	0.249068
	N5614	N	0.439105	0.070061	0.249136
	N5615	N	0.439134	0.935430	0.249175
	O5616	O	0.450611	0.694313	0.307084
	O5617	O	0.450667	0.811430	0.307089
	O5618	O	0.391911	0.696059	0.323275
	O5619	O	0.391457	0.812760	0.323230
	O5620	O	0.391446	0.192692	0.323225
	O5621	O	0.391997	0.309293	0.323246
	O5622	O	0.394252	0.695552	0.302093
	O5623	O	0.393862	0.812251	0.301961
	O5624	O	0.393819	0.193091	0.301967
	O5625	O	0.394151	0.309779	0.302018
	O5626	O	0.450729	0.694786	0.329748
	O5627	O	0.450642	0.811277	0.329740
	O5628	O	0.450658	0.195100	0.329767
	O5629	O	0.450864	0.311725	0.329783
	O5630	O	0.450633	0.193455	0.307068
	O5631	O	0.450695	0.310561	0.307033
	O5632	O	0.454382	0.694111	0.260782
	O5633	O	0.421718	0.694051	0.258728
	O5634	O	0.420948	0.694453	0.372409
	O5635	O	0.420702	0.811111	0.372340
	O5636	O	0.388168	0.694565	0.369552
	O5637	O	0.388024	0.811518	0.369616
	O5638	O	0.421589	0.810624	0.258644
	O5639	O	0.454589	0.810975	0.260745
	O5640	O	0.454422	0.194221	0.260705
	O5641	O	0.421601	0.194267	0.258620
	O5642	O	0.420802	0.194846	0.372379
	O5643	O	0.420625	0.311598	0.372343
	O5644	O	0.387926	0.193370	0.369601
	O5645	O	0.388181	0.310122	0.369556
	O5646	O	0.421697	0.310822	0.258714
	O5647	O	0.454429	0.311003	0.260750
	H5648	H	0.392454	0.643939	0.338157
	H5649	H	0.391421	0.864097	0.338153
	H5650	H	0.391493	0.141206	0.338167
	H5651	H	0.392621	0.361004	0.338219
	H5652	H	0.402971	0.863529	0.288051
	H5653	H	0.404305	0.643594	0.288478
	H5654	H	0.403814	0.361458	0.288300
	H5655	H	0.403325	0.141455	0.288102
	H5656	H	0.465511	0.064444	0.317034
	H5657	H	0.462139	0.064436	0.317295
	H5658	H	0.462105	0.940804	0.317296
	H5659	H	0.465554	0.941423	0.317043
	H5660	H	0.468914	0.064594	0.318970
	H5661	H	0.468877	0.941182	0.318983
	H5662	H	0.395600	0.064568	0.313958
	H5663	H	0.395568	0.940655	0.313951
	H5664	H	0.391252	0.064458	0.305409
	H5665	H	0.391213	0.940546	0.305386
	H5666	H	0.369304	0.064042	0.301518
	H5667	H	0.369331	0.941064	0.301525
	H5668	H	0.372612	0.441277	0.312859
	H5669	H	0.376085	0.440847	0.314165
	H5670	H	0.372844	0.440989	0.309889
	H5671	H	0.469997	0.441156	0.318183
	H5672	H	0.468274	0.441204	0.321494
	H5673	H	0.463508	0.440807	0.322010
	H5674	H	0.376161	0.564393	0.314221
	H5675	H	0.372438	0.564260	0.312886
	H5676	H	0.463577	0.564558	0.322016
	H5677	H	0.468233	0.564166	0.321479
	H5678	H	0.469969	0.564397	0.318141
	H5679	H	0.372790	0.564346	0.309855
	H5680	H	0.442402	0.643285	0.343706
	H5681	H	0.441632	0.862365	0.343546
	H5682	H	0.442011	0.143835	0.343629
	H5683	H	0.442390	0.363177	0.343750
	H5684	H	0.412715	0.642816	0.272685
	H5685	H	0.455027	0.642508	0.275741
	H5686	H	0.454716	0.862726	0.275673
	H5687	H	0.411450	0.862799	0.272283
	H5688	H	0.451899	0.642689	0.292245
	H5689	H	0.451579	0.863036	0.292143
	H5690	H	0.432688	0.643319	0.359209
	H5691	H	0.431881	0.862355	0.359062
	H5692	H	0.435919	0.440694	0.250175
	H5693	H	0.404484	0.441067	0.384687
	H5694	H	0.435816	0.440728	0.247769
	H5695	H	0.438775	0.440790	0.246986
	H5696	H	0.405805	0.440772	0.379011
	H5697	H	0.408320	0.441517	0.381650
	H5698	H	0.404445	0.564031	0.384719
	H5699	H	0.435764	0.563798	0.250181
	H5700	H	0.408354	0.564151	0.381635
	H5701	H	0.405877	0.564560	0.379034
	H5702	H	0.438656	0.564374	0.247030
	H5703	H	0.435904	0.564238	0.247748
	H5704	H	0.432124	0.143638	0.359118
	H5705	H	0.432476	0.363068	0.359226
	H5706	H	0.443765	0.064435	0.241506
	H5707	H	0.430780	0.064310	0.241902
	H5708	H	0.454625	0.064381	0.249407
	H5709	H	0.388438	0.863480	0.354657
	H5710	H	0.389476	0.643498	0.354682
	H5711	H	0.389522	0.361291	0.354718
	H5712	H	0.388484	0.141412	0.354650
	H5713	H	0.411846	0.142080	0.272380
	H5714	H	0.454902	0.141924	0.275676
	H5715	H	0.454704	0.362261	0.275743
	H5716	H	0.412352	0.361961	0.272546
	H5717	H	0.451808	0.141433	0.292153
	H5718	H	0.451570	0.361695	0.292215
	H5719	H	0.405869	0.064683	0.385079
	H5720	H	0.409259	0.064413	0.382462
	H5721	H	0.405617	0.064103	0.378414
	H5722	H	0.430825	0.940730	0.241958
	H5723	H	0.443725	0.940653	0.241545
	H5724	H	0.454618	0.940794	0.249395
	H5725	H	0.405802	0.940964	0.385034
	H5726	H	0.409233	0.940641	0.382467
	H5727	H	0.405554	0.941435	0.378412
	Zn5728	Zn	0.376740	0.680481	0.311599
	Zn5729	Zn	0.376233	0.825084	0.311519
	Zn5730	Zn	0.376177	0.179980	0.311529
	Zn5731	Zn	0.376729	0.324753	0.311599
	Zn5732	Zn	0.402201	0.680356	0.381528
	Zn5733	Zn	0.402133	0.825411	0.381591
	Zn5734	Zn	0.402268	0.180264	0.381566
	Zn5735	Zn	0.402096	0.325301	0.381537
	C5736	C	0.450413	0.752899	0.303188
	C5737	C	0.392331	0.754460	0.327145
	C5738	C	0.392281	0.754043	0.337188
	C5739	C	0.391643	0.691596	0.341842
	C5740	C	0.391111	0.816215	0.341832
	C5741	C	0.392379	0.250941	0.327150
	C5742	C	0.392381	0.251074	0.337208
	C5743	C	0.391139	0.188960	0.341853
	C5744	C	0.391752	0.313330	0.341889
	C5745	C	0.396965	0.753817	0.298530
	C5746	C	0.403255	0.753588	0.289254
	C5747	C	0.405195	0.815552	0.284637
	C5748	C	0.405923	0.691223	0.284871
	C5749	C	0.396949	0.251367	0.298513
	C5750	C	0.403262	0.251516	0.289244
	C5751	C	0.405673	0.313757	0.284771
	C5752	C	0.405377	0.189532	0.284670
	C5753	C	0.464016	0.043201	0.317673
	C5754	C	0.464020	0.962472	0.317683
	C5755	C	0.388889	0.043138	0.310158
	C5756	C	0.388880	0.962040	0.310152
	C5757	C	0.366840	0.042971	0.306268
	C5758	C	0.366823	0.962237	0.306267
	C5759	C	0.374981	0.462198	0.313017
	C5760	C	0.467212	0.462449	0.317652
	C5761	C	0.465474	0.462273	0.321037
	C5762	C	0.374963	0.543127	0.313040
	C5763	C	0.465496	0.543029	0.321033
	C5764	C	0.467218	0.543334	0.317648
	C5765	C	0.448263	0.753011	0.333340
	C5766	C	0.448393	0.253502	0.333379
	C5767	C	0.442403	0.752938	0.342659
	C5768	C	0.440075	0.690922	0.347130
	C5769	C	0.439677	0.814915	0.347047
	C5770	C	0.442491	0.253611	0.342695
	C5771	C	0.439876	0.191487	0.347096
	C5772	C	0.440077	0.315504	0.347163
	C5773	C	0.450462	0.251907	0.303153
	C5774	C	0.455092	0.752628	0.264670
	C5775	C	0.418750	0.752389	0.262187
	C5776	C	0.387829	0.753168	0.365673
	C5777	C	0.452450	0.690511	0.288554
	C5778	C	0.452268	0.815043	0.288497
	C5779	C	0.455104	0.752664	0.274717
	C5780	C	0.412471	0.752719	0.271464
	C5781	C	0.410517	0.690827	0.276094
	C5782	C	0.454304	0.690374	0.279407
	C5783	C	0.454123	0.814993	0.279355
	C5784	C	0.409801	0.815113	0.275860
	C5785	C	0.451208	0.752862	0.293166
	C5786	C	0.424232	0.752817	0.369069
	C5787	C	0.434746	0.690949	0.355751
	C5788	C	0.434344	0.814849	0.355675
	C5789	C	0.431663	0.752883	0.360083
	C5790	C	0.401809	0.462060	0.383758
	C5791	C	0.437749	0.461900	0.247832
	C5792	C	0.405704	0.462300	0.380639
	C5793	C	0.401791	0.543163	0.383756
	C5794	C	0.405743	0.543139	0.380640
	C5795	C	0.437745	0.543000	0.247834
	C5796	C	0.424105	0.253245	0.369047
	C5797	C	0.434472	0.191333	0.355709
	C5798	C	0.434669	0.315367	0.355773
	C5799	C	0.431653	0.253344	0.360097
	C5800	C	0.437750	0.043027	0.243660
	C5801	C	0.455102	0.252510	0.264638
	C5802	C	0.418776	0.252422	0.262174
	C5803	C	0.387834	0.251625	0.365674
	C5804	C	0.452359	0.189383	0.288481
	C5805	C	0.452244	0.313985	0.288520
	C5806	C	0.455081	0.252104	0.274689
	C5807	C	0.412487	0.252038	0.271439
	C5808	C	0.388547	0.753449	0.355642
	C5809	C	0.389315	0.815845	0.350972
	C5810	C	0.389845	0.691330	0.350986
	C5811	C	0.388575	0.251386	0.355666
	C5812	C	0.389939	0.313468	0.351035
	C5813	C	0.389363	0.189224	0.350997
	C5814	C	0.410041	0.189841	0.275908
	C5815	C	0.454213	0.189632	0.279342
	C5816	C	0.454102	0.314229	0.279385
	C5817	C	0.410321	0.313988	0.276004
	C5818	C	0.451181	0.251630	0.293139
	C5819	C	0.406063	0.043291	0.383199
	C5820	C	0.448702	0.043122	0.251586
	C5821	C	0.437753	0.962226	0.243682
	C5822	C	0.406048	0.961992	0.383190
	C5823	C	0.448703	0.962247	0.251600
	N5824	N	0.376219	0.069873	0.311484
	N5825	N	0.376202	0.935342	0.311466
	N5826	N	0.376793	0.435247	0.311597
	N5827	N	0.376761	0.569947	0.311617
	N5828	N	0.401920	0.435466	0.381553
	N5829	N	0.401919	0.570054	0.381549
	N5830	N	0.402078	0.069950	0.381574
	N5831	N	0.402040	0.935404	0.381578
	O5832	O	0.481009	0.694836	0.428171
	O5833	O	0.480936	0.811018	0.428176
	O5834	O	0.359280	0.695004	0.454002
	O5835	O	0.359232	0.811148	0.453992
	O5836	O	0.359226	0.194174	0.454010
	O5837	O	0.359423	0.310331	0.453968
	O5838	O	0.358433	0.694318	0.434913
	O5839	O	0.358287	0.811055	0.434804
	O5840	O	0.358374	0.193893	0.434926
	O5841	O	0.358581	0.310779	0.434901
	O5842	O	0.482136	0.694496	0.447255
	O5843	O	0.482017	0.811178	0.447211
	O5844	O	0.482237	0.194050	0.447342
	O5845	O	0.482045	0.310946	0.447251
	O5846	O	0.481040	0.194971	0.428125
	O5847	O	0.481041	0.311300	0.428105
	O5848	O	0.421651	0.694229	0.391443
	O5849	O	0.388226	0.694023	0.392247
	O5850	O	0.452178	0.694207	0.489828
	O5851	O	0.452188	0.810738	0.489858
	O5852	O	0.418784	0.694487	0.490665
	O5853	O	0.418702	0.810914	0.490694
	O5854	O	0.388169	0.810399	0.392249
	O5855	O	0.421597	0.810467	0.391445
	O5856	O	0.421700	0.194661	0.391447
	O5857	O	0.388153	0.193814	0.392262
	O5858	O	0.452106	0.194035	0.489820
	O5859	O	0.452098	0.310568	0.489861
	O5860	O	0.418711	0.194651	0.490665
	O5861	O	0.418621	0.310715	0.490701
	O5862	O	0.388216	0.310406	0.392310
	O5863	O	0.421459	0.310984	0.391500
	H5864	H	0.378462	0.644807	0.465673
	H5865	H	0.378482	0.861244	0.465727
	H5866	H	0.378671	0.144098	0.465638
	H5867	H	0.378503	0.360413	0.465645
	H5868	H	0.369808	0.861880	0.421624
	H5869	H	0.370161	0.643074	0.421735
	H5870	H	0.370252	0.361399	0.421755
	H5871	H	0.369612	0.142179	0.421639
	H5872	H	0.503374	0.064634	0.433548
	H5873	H	0.495778	0.064214	0.433749
	H5874	H	0.495816	0.940938	0.433784
	H5875	H	0.503391	0.940819	0.433524
	H5876	H	0.509724	0.064124	0.438188
	H5877	H	0.509657	0.940533	0.438214
	H5878	H	0.342696	0.064573	0.442346
	H5879	H	0.342779	0.941003	0.442357
	H5880	H	0.339010	0.064300	0.441565
	H5881	H	0.339010	0.940873	0.441610
	H5882	H	0.335070	0.064316	0.443367
	H5883	H	0.335142	0.940953	0.443399
	H5884	H	0.335138	0.440989	0.442882
	H5885	H	0.335250	0.440652	0.445160
	H5886	H	0.340191	0.441204	0.441403
	H5887	H	0.495529	0.441114	0.438210
	H5888	H	0.498256	0.440776	0.435609
	H5889	H	0.502446	0.440681	0.435618
	H5890	H	0.335220	0.564394	0.445171
	H5891	H	0.335102	0.563697	0.442885
	H5892	H	0.502477	0.564085	0.435592
	H5893	H	0.498293	0.564158	0.435598
	H5894	H	0.495566	0.564066	0.438184
	H5895	H	0.340141	0.564366	0.441407
	H5896	H	0.470682	0.643354	0.460460
	H5897	H	0.470579	0.862167	0.460440
	H5898	H	0.470625	0.142750	0.460466
	H5899	H	0.470419	0.362185	0.460458
	H5900	H	0.380020	0.643285	0.406233
	H5901	H	0.440739	0.644267	0.403183
	H5902	H	0.440709	0.860570	0.403110
	H5903	H	0.379658	0.861732	0.406161
	H5904	H	0.461906	0.644625	0.416454
	H5905	H	0.461835	0.861053	0.416358
	H5906	H	0.460830	0.643262	0.475928
	H5907	H	0.460708	0.862251	0.475936
	H5908	H	0.399140	0.440440	0.384422
	H5909	H	0.437234	0.440754	0.500726
	H5910	H	0.395624	0.440993	0.380892
	H5911	H	0.398535	0.440856	0.378627
	H5912	H	0.439076	0.440813	0.500966
	H5913	H	0.438252	0.441267	0.501157
	H5914	H	0.437156	0.563966	0.500743
	H5915	H	0.399113	0.564616	0.384413
	H5916	H	0.438243	0.564396	0.501101
	H5917	H	0.439154	0.564593	0.500970
	H5918	H	0.398559	0.564604	0.378604
	H5919	H	0.395706	0.564459	0.380828
	H5920	H	0.460800	0.142837	0.475959
	H5921	H	0.460624	0.361851	0.475939
	H5922	H	0.394934	0.064795	0.381426
	H5923	H	0.397542	0.064160	0.384363
	H5924	H	0.399502	0.065065	0.377922
	H5925	H	0.399671	0.860936	0.478973
	H5926	H	0.399571	0.644465	0.478942
	H5927	H	0.399534	0.360504	0.478949
	H5928	H	0.399658	0.144612	0.478938
	H5929	H	0.379410	0.142305	0.406135
	H5930	H	0.440633	0.144245	0.403232
	H5931	H	0.440783	0.361858	0.403089
	H5932	H	0.380084	0.361471	0.406256
	H5933	H	0.461718	0.144483	0.416473
	H5934	H	0.461933	0.361863	0.416344
	H5935	H	0.444294	0.064319	0.499266
	H5936	H	0.439963	0.064515	0.497095
	H5937	H	0.432446	0.064145	0.498086
	H5938	H	0.397543	0.941388	0.384394
	H5939	H	0.394917	0.940916	0.381391
	H5940	H	0.399569	0.941134	0.377908
	H5941	H	0.444467	0.940953	0.499280
	H5942	H	0.440060	0.940639	0.497089
	H5943	H	0.432481	0.940829	0.498068
	Zn5944	Zn	0.339883	0.680137	0.444130
	Zn5945	Zn	0.339869	0.825193	0.444082
	Zn5946	Zn	0.339751	0.180214	0.444050
	Zn5947	Zn	0.340026	0.325135	0.444094
	Zn5948	Zn	0.438180	0.680073	0.500565
	Zn5949	Zn	0.438203	0.825209	0.500529
	Zn5950	Zn	0.438093	0.180058	0.500540
	Zn5951	Zn	0.438170	0.324965	0.500549
	C5952	C	0.475930	0.752914	0.425160
	C5953	C	0.364325	0.753118	0.456999
	C5954	C	0.377167	0.753041	0.464912
	C5955	C	0.383103	0.691732	0.468658
	C5956	C	0.383135	0.814153	0.468683
	C5957	C	0.364367	0.252181	0.456999
	C5958	C	0.377214	0.252221	0.464906
	C5959	C	0.383238	0.191131	0.468637
	C5960	C	0.383132	0.313494	0.468636
	C5961	C	0.361798	0.752559	0.431571
	C5962	C	0.369343	0.752395	0.422634
	C5963	C	0.372114	0.814237	0.418237
	C5964	C	0.372303	0.690559	0.418283
	C5965	C	0.361831	0.252144	0.431597
	C5966	C	0.369315	0.251824	0.422631
	C5967	C	0.372354	0.313823	0.418298
	C5968	C	0.372015	0.189797	0.418237
	C5969	C	0.499906	0.042945	0.434793
	C5970	C	0.499908	0.962158	0.434802
	C5971	C	0.340503	0.043288	0.442511
	C5972	C	0.340544	0.962345	0.442506
	C5973	C	0.336571	0.043064	0.444280
	C5974	C	0.336622	0.962350	0.444301
	C5975	C	0.336372	0.462187	0.444054
	C5976	C	0.497790	0.462298	0.438921
	C5977	C	0.500472	0.462200	0.436263
	C5978	C	0.336359	0.542993	0.444047
	C5979	C	0.500466	0.543202	0.436259
	C5980	C	0.497759	0.542911	0.438910
	C5981	C	0.478688	0.752871	0.450555
	C5982	C	0.478762	0.252552	0.450602
	C5983	C	0.471105	0.752791	0.459494
	C5984	C	0.468296	0.690858	0.463876
	C5985	C	0.468213	0.814667	0.463863
	C5986	C	0.471211	0.252588	0.459540
	C5987	C	0.468372	0.190435	0.463888
	C5988	C	0.468247	0.314598	0.463885
	C5989	C	0.475983	0.253138	0.425104
	C5990	C	0.426716	0.752339	0.394424
	C5991	C	0.385885	0.752198	0.395866
	C5992	C	0.413671	0.752698	0.487687
	C5993	C	0.457150	0.691481	0.413497
	C5994	C	0.457125	0.813981	0.413443
	C5995	C	0.439586	0.752338	0.402323
	C5996	C	0.380059	0.752367	0.405204
	C5997	C	0.377675	0.690548	0.409666
	C5998	C	0.445504	0.691250	0.406109
	C5999	C	0.445463	0.813691	0.406057
	C6000	C	0.377481	0.814226	0.409621
	C6001	C	0.463078	0.752852	0.417237
	C6002	C	0.454545	0.752568	0.486246
	C6003	C	0.462936	0.690828	0.472487
	C6004	C	0.462862	0.814656	0.472484
	C6005	C	0.460384	0.752753	0.476926
	C6006	C	0.437524	0.462119	0.500522
	C6007	C	0.398356	0.462370	0.380209
	C6008	C	0.438584	0.462169	0.500929
	C6009	C	0.437516	0.542898	0.500511
	C6010	C	0.438605	0.543163	0.500931
	C6011	C	0.398385	0.543109	0.380194
	C6012	C	0.454490	0.252381	0.486239
	C6013	C	0.462931	0.190356	0.472481
	C6014	C	0.462804	0.314471	0.472477
	C6015	C	0.460371	0.252407	0.476908
	C6016	C	0.397727	0.043239	0.382567
	C6017	C	0.426687	0.252928	0.394457
	C6018	C	0.385805	0.252065	0.395880
	C6019	C	0.413561	0.252694	0.487696
	C6020	C	0.457118	0.191649	0.413486
	C6021	C	0.457216	0.314711	0.413413
	C6022	C	0.439587	0.253145	0.402325
	C6023	C	0.380001	0.251920	0.405219
	C6024	C	0.400727	0.752680	0.479804
	C6025	C	0.394838	0.814033	0.476042
	C6026	C	0.394816	0.691459	0.476021
	C6027	C	0.400701	0.252716	0.479804
	C6028	C	0.394790	0.313641	0.476011
	C6029	C	0.394890	0.191476	0.476008
	C6030	C	0.377369	0.189843	0.409619
	C6031	C	0.445430	0.191563	0.406130
	C6032	C	0.445499	0.314780	0.406059
	C6033	C	0.377723	0.313913	0.409682
	C6034	C	0.463142	0.253199	0.417202
	C6035	C	0.441129	0.043098	0.498779
	C6036	C	0.402382	0.043178	0.379083
	C6037	C	0.397715	0.962584	0.382566
	C6038	C	0.441162	0.962068	0.498787
	C6039	C	0.402356	0.962496	0.379084
	N6040	N	0.339567	0.070088	0.444018
	N6041	N	0.339650	0.935453	0.444032
	N6042	N	0.339909	0.435369	0.444118
	N6043	N	0.339852	0.569948	0.444127
	N6044	N	0.438277	0.435247	0.500573
	N6045	N	0.438230	0.569841	0.500550
	N6046	N	0.438106	0.070019	0.500506
	N6047	N	0.438128	0.935476	0.500513
	O6048	O	0.446061	0.694008	0.558584
	O6049	O	0.445967	0.810885	0.558572
	O6050	O	0.390054	0.694144	0.574832
	O6051	O	0.390043	0.811025	0.574836
	O6052	O	0.389977	0.194604	0.574813
	O6053	O	0.389897	0.311238	0.574803
	O6054	O	0.389377	0.694740	0.552238
	O6055	O	0.389565	0.811232	0.552305
	O6056	O	0.389697	0.194634	0.552346
	O6057	O	0.389659	0.310854	0.552340
	O6058	O	0.446875	0.694314	0.581206
	O6059	O	0.446756	0.810693	0.581131
	O6060	O	0.446613	0.194705	0.581108
	O6061	O	0.446891	0.311077	0.581194
	O6062	O	0.446139	0.193905	0.558566
	O6063	O	0.446156	0.310675	0.558577
	O6064	O	0.452494	0.694638	0.512409
	O6065	O	0.419845	0.694551	0.509814
	O6066	O	0.416299	0.694303	0.623577
	O6067	O	0.416181	0.811266	0.623539
	O6068	O	0.383191	0.694565	0.620988
	O6069	O	0.383385	0.811231	0.620966
	O6070	O	0.419856	0.811269	0.509796
	O6071	O	0.452676	0.811412	0.512411
	O6072	O	0.452657	0.193808	0.512364
	O6073	O	0.419654	0.194592	0.509762
	O6074	O	0.416178	0.194331	0.623556
	O6075	O	0.416175	0.311080	0.623556
	O6076	O	0.383395	0.194415	0.620971
	O6077	O	0.383136	0.311073	0.620995
	O6078	O	0.419627	0.311186	0.509743
	O6079	O	0.452605	0.310621	0.512415
	H6080	H	0.388457	0.642951	0.589715
	H6081	H	0.388849	0.862318	0.589754
	H6082	H	0.388675	0.143294	0.589718
	H6083	H	0.388645	0.362741	0.589723
	H6084	H	0.398249	0.862666	0.538416
	H6085	H	0.398042	0.643599	0.538359
	H6086	H	0.398489	0.362255	0.538449
	H6087	H	0.398272	0.143392	0.538435
	H6088	H	0.468439	0.064413	0.569408
	H6089	H	0.463647	0.064483	0.566522
	H6090	H	0.463585	0.940705	0.566440
	H6091	H	0.468380	0.940871	0.569352
	H6092	H	0.465624	0.064355	0.574098
	H6093	H	0.465642	0.941240	0.574060
	H6094	H	0.380348	0.063965	0.565690
	H6095	H	0.380314	0.940550	0.565671
	H6096	H	0.382302	0.064033	0.562925
	H6097	H	0.382256	0.940638	0.562949
	H6098	H	0.377233	0.063992	0.559528
	H6099	H	0.377211	0.940989	0.559591
	H6100	H	0.381191	0.440924	0.561479
	H6101	H	0.376765	0.440888	0.559559
	H6102	H	0.380253	0.440830	0.565415
	H6103	H	0.461432	0.441548	0.572963
	H6104	H	0.456486	0.441104	0.571510
	H6105	H	0.456136	0.440686	0.569471
	H6106	H	0.376845	0.564693	0.559634
	H6107	H	0.381302	0.564525	0.561539
	H6108	H	0.456145	0.564463	0.569424
	H6109	H	0.456458	0.564437	0.571489
	H6110	H	0.461381	0.564258	0.572916
	H6111	H	0.380323	0.564058	0.565437
	H6112	H	0.438236	0.643005	0.595123
	H6113	H	0.437999	0.862323	0.594997
	H6114	H	0.437612	0.143233	0.594946
	H6115	H	0.438286	0.362216	0.595099
	H6116	H	0.408124	0.643745	0.522904
	H6117	H	0.451341	0.642914	0.527318
	H6118	H	0.451396	0.862667	0.527340
	H6119	H	0.408300	0.862715	0.522981
	H6120	H	0.447283	0.642798	0.543672
	H6121	H	0.447301	0.862474	0.543699
	H6122	H	0.428110	0.642999	0.610537
	H6123	H	0.427879	0.862519	0.610422
	H6124	H	0.437279	0.440722	0.500262
	H6125	H	0.391905	0.440886	0.631966
	H6126	H	0.438414	0.441019	0.499957
	H6127	H	0.439241	0.441051	0.500313
	H6128	H	0.399832	0.440754	0.635796
	H6129	H	0.394823	0.440910	0.635422
	H6130	H	0.391943	0.564566	0.631933
	H6131	H	0.437235	0.564123	0.500206
	H6132	H	0.394801	0.564735	0.635363
	H6133	H	0.399780	0.564412	0.635775
	H6134	H	0.439182	0.564499	0.500248
	H6135	H	0.438403	0.564437	0.500003
	H6136	H	0.427634	0.143112	0.610387
	H6137	H	0.428278	0.362099	0.610567
	H6138	H	0.437198	0.064347	0.504076
	H6139	H	0.442731	0.064551	0.503313
	H6140	H	0.431289	0.064132	0.501065
	H6141	H	0.384806	0.862444	0.606122
	H6142	H	0.384413	0.642875	0.606107
	H6143	H	0.384615	0.362548	0.606114
	H6144	H	0.384690	0.143395	0.606079
	H6145	H	0.407992	0.143366	0.522912
	H6146	H	0.451422	0.142149	0.527273
	H6147	H	0.451481	0.361824	0.527308
	H6148	H	0.408198	0.362134	0.522944
	H6149	H	0.447349	0.142127	0.543662
	H6150	H	0.447419	0.361990	0.543683
	H6151	H	0.400800	0.063791	0.630550
	H6152	H	0.396212	0.064625	0.630067
	H6153	H	0.392434	0.064222	0.632562
	H6154	H	0.442704	0.941202	0.503352
	H6155	H	0.437253	0.941227	0.504059
	H6156	H	0.431343	0.941184	0.501104
	H6157	H	0.400729	0.940998	0.630527
	H6158	H	0.396210	0.940951	0.630067
	H6159	H	0.392353	0.941314	0.632513
	Zn6160	Zn	0.375524	0.680206	0.562952
	Zn6161	Zn	0.375415	0.824901	0.562974
	Zn6162	Zn	0.375504	0.180132	0.562948
	Zn6163	Zn	0.375337	0.325180	0.562912
	Zn6164	Zn	0.397831	0.679961	0.632786
	Zn6165	Zn	0.397827	0.825222	0.632809
	Zn6166	Zn	0.397870	0.180230	0.632815
	Zn6167	Zn	0.397786	0.325384	0.632802
	C6168	C	0.445842	0.752449	0.554671
	C6169	C	0.390182	0.752613	0.578738
	C6170	C	0.389140	0.752623	0.588747
	C6171	C	0.387735	0.690609	0.593371
	C6172	C	0.387963	0.814663	0.593390
	C6173	C	0.390119	0.252952	0.578723
	C6174	C	0.389104	0.253088	0.588715
	C6175	C	0.387854	0.191117	0.593356
	C6176	C	0.387835	0.315109	0.593363
	C6177	C	0.391856	0.753039	0.548678
	C6178	C	0.397790	0.753044	0.539383
	C6179	C	0.400430	0.815078	0.534974
	C6180	C	0.400306	0.691202	0.534941
	C6181	C	0.392091	0.252795	0.548744
	C6182	C	0.397969	0.252781	0.539433
	C6183	C	0.400552	0.314594	0.534997
	C6184	C	0.400453	0.190925	0.534987
	C6185	C	0.464518	0.043225	0.568597
	C6186	C	0.464506	0.962274	0.568550
	C6187	C	0.379831	0.042975	0.563979
	C6188	C	0.379787	0.961988	0.563977
	C6189	C	0.374705	0.042907	0.560583
	C6190	C	0.374707	0.962247	0.560607
	C6191	C	0.378102	0.462284	0.561145
	C6192	C	0.462335	0.462419	0.571875
	C6193	C	0.457404	0.462302	0.570458
	C6194	C	0.378136	0.543345	0.561192
	C6195	C	0.457410	0.543389	0.570444
	C6196	C	0.462327	0.542954	0.571858
	C6197	C	0.444447	0.752599	0.584779
	C6198	C	0.444340	0.252837	0.584750
	C6199	C	0.438485	0.752654	0.594084
	C6200	C	0.435962	0.690590	0.598530
	C6201	C	0.435836	0.814699	0.598463
	C6202	C	0.438358	0.252800	0.594033
	C6203	C	0.435572	0.190896	0.598412
	C6204	C	0.435938	0.314599	0.598501
	C6205	C	0.445939	0.252291	0.554657
	C6206	C	0.452757	0.752994	0.516319
	C6207	C	0.416357	0.752961	0.513087
	C6208	C	0.383137	0.752824	0.617064
	C6209	C	0.448148	0.690513	0.540037
	C6210	C	0.448158	0.814752	0.540045
	C6211	C	0.451813	0.752754	0.526328
	C6212	C	0.408736	0.753132	0.522019
	C6213	C	0.405800	0.691214	0.526354
	C6214	C	0.450517	0.690609	0.530956
	C6215	C	0.450545	0.814881	0.530962
	C6216	C	0.405903	0.815080	0.526383
	C6217	C	0.446853	0.752576	0.544672
	C6218	C	0.419705	0.752827	0.620293
	C6219	C	0.430427	0.690635	0.607107
	C6220	C	0.430310	0.814785	0.607040
	C6221	C	0.427454	0.752803	0.611417
	C6222	C	0.394518	0.462276	0.631451
	C6223	C	0.438687	0.462324	0.500266
	C6224	C	0.397404	0.462005	0.634860
	C6225	C	0.394515	0.543144	0.631429
	C6226	C	0.397385	0.543075	0.634855
	C6227	C	0.438680	0.543096	0.500249
	C6228	C	0.419672	0.252692	0.620288
	C6229	C	0.430102	0.190739	0.606998
	C6230	C	0.430461	0.314628	0.607090
	C6231	C	0.427355	0.252668	0.611381
	C6232	C	0.439486	0.043168	0.502847
	C6233	C	0.452821	0.252100	0.516303
	C6234	C	0.416224	0.252897	0.513057
	C6235	C	0.383108	0.252844	0.617069
	C6236	C	0.448228	0.189948	0.540018
	C6237	C	0.448252	0.314192	0.540033
	C6238	C	0.451813	0.252036	0.526303
	C6239	C	0.408719	0.252798	0.522011
	C6240	C	0.384179	0.752686	0.607081
	C6241	C	0.385587	0.814723	0.602475
	C6242	C	0.385331	0.690559	0.602453
	C6243	C	0.384204	0.253015	0.607082
	C6244	C	0.385472	0.315026	0.602452
	C6245	C	0.385489	0.191076	0.602436
	C6246	C	0.405818	0.190900	0.526372
	C6247	C	0.450579	0.189877	0.530930
	C6248	C	0.450590	0.314082	0.530951
	C6249	C	0.405923	0.314617	0.526387
	C6250	C	0.446961	0.252118	0.544662
	C6251	C	0.398254	0.043229	0.630987
	C6252	C	0.433545	0.043032	0.499826
	C6253	C	0.439513	0.962389	0.502847
	C6254	C	0.398252	0.962301	0.630969
	C6255	C	0.433564	0.962291	0.499822
	N6256	N	0.375523	0.069922	0.563001
	N6257	N	0.375493	0.935315	0.563015
	N6258	N	0.375478	0.435334	0.562871
	N6259	N	0.375544	0.569902	0.562919
	N6260	N	0.397774	0.435219	0.632786
	N6261	N	0.397764	0.569754	0.632763
	N6262	N	0.397851	0.069971	0.632873
	N6263	N	0.397838	0.935382	0.632862
	O6264	O	0.480899	0.694495	0.677448
	O6265	O	0.480899	0.810667	0.677420
	O6266	O	0.355101	0.694585	0.705042
	O6267	O	0.355316	0.810865	0.704965
	O6268	O	0.355182	0.194349	0.705045
	O6269	O	0.355206	0.310711	0.705034
	O6270	O	0.353660	0.693651	0.686031
	O6271	O	0.353697	0.810618	0.686021
	O6272	O	0.353752	0.194348	0.686054
	O6273	O	0.353604	0.311128	0.686000
	O6274	O	0.487528	0.694564	0.697326
	O6275	O	0.487514	0.810626	0.697294
	O6276	O	0.487188	0.194716	0.697261
	O6277	O	0.487470	0.310647	0.697298
	O6278	O	0.480827	0.194677	0.677440
	O6279	O	0.480989	0.310705	0.677307
	O6280	O	0.417773	0.694429	0.642459
	O6281	O	0.384117	0.693685	0.643593
	O6282	O	0.452476	0.694919	0.738337
	O6283	O	0.452707	0.810953	0.738373
	O6284	O	0.418458	0.695002	0.739850
	O6285	O	0.418301	0.811064	0.739964
	O6286	O	0.384101	0.810300	0.643586
	O6287	O	0.417710	0.810771	0.642522
	O6288	O	0.417710	0.194929	0.642477
	O6289	O	0.384091	0.194297	0.643593
	O6290	O	0.452589	0.195217	0.738329
	O6291	O	0.452602	0.311062	0.738326
	O6292	O	0.418539	0.194331	0.739892
	O6293	O	0.418400	0.310323	0.739903
	O6294	O	0.384007	0.310641	0.643554
	O6295	O	0.417691	0.311038	0.642463
	H6296	H	0.375591	0.644280	0.716110
	H6297	H	0.375533	0.860847	0.716118
	H6298	H	0.375481	0.143896	0.716206
	H6299	H	0.375481	0.360763	0.716179
	H6300	H	0.365244	0.861781	0.672868
	H6301	H	0.365530	0.642285	0.672936
	H6302	H	0.365130	0.362028	0.672844
	H6303	H	0.365712	0.143413	0.673003
	H6304	H	0.504609	0.064620	0.684066
	H6305	H	0.499588	0.064590	0.683528
	H6306	H	0.499564	0.941064	0.683457
	H6307	H	0.504629	0.941462	0.684038
	H6308	H	0.507197	0.064257	0.687616
	H6309	H	0.507198	0.940893	0.687522
	H6310	H	0.334368	0.064457	0.698602
	H6311	H	0.334425	0.941092	0.698653
	H6312	H	0.339477	0.064751	0.697993
	H6313	H	0.339556	0.941551	0.697994
	H6314	H	0.341186	0.064310	0.694343
	H6315	H	0.341251	0.941087	0.694367
	H6316	H	0.336722	0.440619	0.699317
	H6317	H	0.341890	0.441462	0.697573
	H6318	H	0.328867	0.440689	0.697069
	H6319	H	0.501253	0.441286	0.688109
	H6320	H	0.498651	0.441178	0.686964
	H6321	H	0.498881	0.441180	0.685807
	H6322	H	0.341805	0.564560	0.697549
	H6323	H	0.336711	0.564699	0.699334
	H6324	H	0.498863	0.564792	0.685777
	H6325	H	0.498639	0.564232	0.687003
	H6326	H	0.501283	0.564182	0.688091
	H6327	H	0.328823	0.564860	0.697060
	H6328	H	0.476192	0.644612	0.710383
	H6329	H	0.476046	0.860957	0.710296
	H6330	H	0.476077	0.145217	0.710370
	H6331	H	0.476216	0.360683	0.710339
	H6332	H	0.375575	0.642277	0.657480
	H6333	H	0.438023	0.644139	0.653649
	H6334	H	0.438084	0.860915	0.653624
	H6335	H	0.375297	0.861705	0.657414
	H6336	H	0.460555	0.644420	0.666245
	H6337	H	0.460538	0.860592	0.666238
	H6338	H	0.464032	0.644807	0.725313
	H6339	H	0.463933	0.861131	0.725252
	H6340	H	0.394866	0.441180	0.629940
	H6341	H	0.439332	0.441078	0.749514
	H6342	H	0.401727	0.441243	0.630598
	H6343	H	0.403749	0.440744	0.633080
	H6344	H	0.439142	0.441272	0.748658
	H6345	H	0.439652	0.440817	0.748988
	H6346	H	0.439209	0.564514	0.749536
	H6347	H	0.394898	0.564255	0.629936
	H6348	H	0.439737	0.564638	0.748996
	H6349	H	0.439201	0.564258	0.748678
	H6350	H	0.403832	0.563860	0.633047
	H6351	H	0.401735	0.564084	0.630546
	H6352	H	0.463837	0.145251	0.725281
	H6353	H	0.463961	0.361008	0.725259
	H6354	H	0.400410	0.064852	0.635464
	H6355	H	0.403155	0.064144	0.633669
	H6356	H	0.394141	0.064454	0.634819
	H6357	H	0.398025	0.861036	0.728743
	H6358	H	0.398043	0.644451	0.728761
	H6359	H	0.398094	0.360731	0.728765
	H6360	H	0.398087	0.143775	0.728792
	H6361	H	0.375779	0.143212	0.657564
	H6362	H	0.437965	0.144942	0.653633
	H6363	H	0.437984	0.361045	0.653628
	H6364	H	0.375212	0.361919	0.657415
	H6365	H	0.460537	0.144852	0.666265
	H6366	H	0.460472	0.360981	0.666250
	H6367	H	0.439998	0.064678	0.749029
	H6368	H	0.439421	0.064469	0.748586
	H6369	H	0.438080	0.063949	0.748638
	H6370	H	0.403266	0.941015	0.633657
	H6371	H	0.400409	0.940768	0.635521
	H6372	H	0.394144	0.940821	0.634809
	H6373	H	0.440015	0.940812	0.748977
	H6374	H	0.439461	0.941027	0.748567
	H6375	H	0.438097	0.940635	0.748575
	Zn6376	Zn	0.335237	0.680183	0.695353
	Zn6377	Zn	0.335399	0.825417	0.695341
	Zn6378	Zn	0.335358	0.180180	0.695322
	Zn6379	Zn	0.335407	0.325511	0.695343
	Zn6380	Zn	0.438798	0.679759	0.749098
	Zn6381	Zn	0.438772	0.825398	0.749069
	Zn6382	Zn	0.438867	0.179738	0.749099
	Zn6383	Zn	0.438766	0.325405	0.749057
	C6384	C	0.475554	0.752542	0.674557
	C6385	C	0.360595	0.752624	0.707832
	C6386	C	0.374241	0.752578	0.715361
	C6387	C	0.380571	0.691303	0.718924
	C6388	C	0.380544	0.813916	0.718938
	C6389	C	0.360531	0.252531	0.707899
	C6390	C	0.374202	0.252423	0.715422
	C6391	C	0.380555	0.190986	0.718996
	C6392	C	0.380554	0.313735	0.718982
	C6393	C	0.357162	0.752117	0.682752
	C6394	C	0.364900	0.752116	0.673845
	C6395	C	0.367743	0.814165	0.669480
	C6396	C	0.367885	0.689917	0.669518
	C6397	C	0.357143	0.252724	0.682749
	C6398	C	0.364793	0.252686	0.673843
	C6399	C	0.367582	0.314563	0.669459
	C6400	C	0.367921	0.190802	0.669548
	C6401	C	0.501900	0.043173	0.684544
	C6402	C	0.501895	0.962393	0.684515
	C6403	C	0.336477	0.043225	0.697520
	C6404	C	0.336489	0.962391	0.697549
	C6405	C	0.338183	0.043086	0.693830
	C6406	C	0.338221	0.962258	0.693847
	C6407	C	0.338174	0.462463	0.697630
	C6408	C	0.502097	0.462155	0.687523
	C6409	C	0.499416	0.462438	0.686435
	C6410	C	0.338169	0.543333	0.697602
	C6411	C	0.499414	0.543300	0.686438
	C6412	C	0.502113	0.542928	0.687517
	C6413	C	0.484484	0.752647	0.700684
	C6414	C	0.484282	0.252756	0.700639
	C6415	C	0.476787	0.752730	0.709514
	C6416	C	0.473440	0.691475	0.713711
	C6417	C	0.473372	0.814179	0.713667
	C6418	C	0.476676	0.252970	0.709479
	C6419	C	0.473311	0.191924	0.713673
	C6420	C	0.473372	0.314131	0.713661
	C6421	C	0.475532	0.252687	0.674531
	C6422	C	0.423128	0.752602	0.645326
	C6423	C	0.381778	0.751997	0.647189
	C6424	C	0.413075	0.753027	0.737024
	C6425	C	0.455505	0.691281	0.663467
	C6426	C	0.455540	0.813690	0.663440
	C6427	C	0.436767	0.752569	0.652862
	C6428	C	0.375943	0.752074	0.656513
	C6429	C	0.373394	0.689926	0.660930
	C6430	C	0.443021	0.691108	0.656461
	C6431	C	0.443070	0.813933	0.656437
	C6432	C	0.373239	0.814113	0.660897
	C6433	C	0.461871	0.752481	0.667039
	C6434	C	0.455601	0.752857	0.734982
	C6435	C	0.466687	0.691610	0.721975
	C6436	C	0.466611	0.814171	0.721934
	C6437	C	0.463237	0.752917	0.726141
	C6438	C	0.438859	0.462342	0.749410
	C6439	C	0.401414	0.462313	0.632074
	C6440	C	0.439217	0.462338	0.748883
	C6441	C	0.438862	0.542920	0.749413
	C6442	C	0.439269	0.543146	0.748901
	C6443	C	0.401408	0.542833	0.632066
	C6444	C	0.455636	0.253162	0.734955
	C6445	C	0.466552	0.191946	0.721935
	C6446	C	0.466631	0.314237	0.721927
	C6447	C	0.463205	0.253122	0.726101
	C6448	C	0.400705	0.043026	0.634126
	C6449	C	0.423046	0.252969	0.645330
	C6450	C	0.381660	0.252446	0.647175
	C6451	C	0.413112	0.252253	0.737041
	C6452	C	0.455512	0.191746	0.663449
	C6453	C	0.455495	0.314003	0.663443
	C6454	C	0.436727	0.252891	0.652860
	C6455	C	0.375794	0.252519	0.656493
	C6456	C	0.399389	0.752806	0.729502
	C6457	C	0.393023	0.813980	0.725938
	C6458	C	0.393040	0.691456	0.725934
	C6459	C	0.399401	0.252241	0.729537
	C6460	C	0.393062	0.313651	0.725963
	C6461	C	0.393075	0.190870	0.725976
	C6462	C	0.373422	0.190738	0.660967
	C6463	C	0.443039	0.191798	0.656439
	C6464	C	0.443032	0.314060	0.656431
	C6465	C	0.373085	0.314443	0.660875
	C6466	C	0.461845	0.252808	0.667025
	C6467	C	0.439479	0.043114	0.748873
	C6468	C	0.394437	0.042994	0.633468
	C6469	C	0.400703	0.962080	0.634121
	C6470	C	0.439511	0.962135	0.748862
	C6471	C	0.394403	0.962309	0.633452
	N6472	N	0.335290	0.069937	0.695307
	N6473	N	0.335304	0.935425	0.695324
	N6474	N	0.335269	0.435483	0.695364
	N6475	N	0.335235	0.570021	0.695338
	N6476	N	0.438770	0.435375	0.749109
	N6477	N	0.438800	0.569845	0.749085
	N6478	N	0.438852	0.069963	0.749117
	N6479	N	0.438835	0.935472	0.749083
	O6480	O	0.522276	0.694571	0.793245
	O6481	O	0.522227	0.810938	0.793262
	O6482	O	0.396682	0.694533	0.820791
	O6483	O	0.396748	0.810278	0.820781
	O6484	O	0.396783	0.194723	0.820757
	O6485	O	0.396796	0.310668	0.820795
	O6486	O	0.390275	0.694441	0.800869
	O6487	O	0.390329	0.810490	0.800857
	O6488	O	0.390262	0.194842	0.800893
	O6489	O	0.390297	0.310872	0.800869
	O6490	O	0.523745	0.694146	0.812254
	O6491	O	0.523773	0.810898	0.812238
	O6492	O	0.523680	0.194779	0.812255
	O6493	O	0.523787	0.311691	0.812291
	O6494	O	0.522136	0.194461	0.793298
	O6495	O	0.522213	0.310794	0.793257
	O6496	O	0.459126	0.694861	0.758321
	O6497	O	0.425007	0.694307	0.759804
	O6498	O	0.493517	0.694555	0.854733
	O6499	O	0.493338	0.811238	0.854704
	O6500	O	0.459745	0.694124	0.855827
	O6501	O	0.459755	0.810248	0.855802
	O6502	O	0.424927	0.810369	0.759810
	O6503	O	0.459140	0.811006	0.758260
	O6504	O	0.459203	0.194914	0.758250
	O6505	O	0.424995	0.194644	0.759817
	O6506	O	0.493400	0.194642	0.854708
	O6507	O	0.493407	0.311224	0.854710
	O6508	O	0.459808	0.194304	0.855818
	O6509	O	0.459726	0.310573	0.855820
	O6510	O	0.424918	0.310650	0.759775
	O6511	O	0.459169	0.310867	0.758302
	H6512	H	0.416974	0.644213	0.832011
	H6513	H	0.417086	0.860203	0.831933
	H6514	H	0.417024	0.143879	0.832032
	H6515	H	0.417143	0.360856	0.831958
	H6516	H	0.401632	0.860736	0.787838
	H6517	H	0.401495	0.644506	0.787759
	H6518	H	0.401459	0.360049	0.787736
	H6519	H	0.401510	0.145447	0.787806
	H6520	H	0.546296	0.064639	0.799930
	H6521	H	0.540132	0.064505	0.799110
	H6522	H	0.540270	0.941442	0.799106
	H6523	H	0.546468	0.941014	0.799914
	H6524	H	0.549269	0.064648	0.804288
	H6525	H	0.549257	0.940739	0.804335
	H6526	H	0.375593	0.064459	0.810619
	H6527	H	0.375612	0.941285	0.810597
	H6528	H	0.374489	0.064885	0.811251
	H6529	H	0.374579	0.941478	0.811242
	H6530	H	0.375322	0.064400	0.812419
	H6531	H	0.375342	0.941079	0.812393
	H6532	H	0.378850	0.441054	0.808770
	H6533	H	0.373754	0.441115	0.808579
	H6534	H	0.382403	0.441139	0.812056
	H6535	H	0.545198	0.440865	0.800646
	H6536	H	0.547306	0.441036	0.803879
	H6537	H	0.544330	0.441294	0.805575
	H6538	H	0.373693	0.564664	0.808597
	H6539	H	0.378838	0.564346	0.808739
	H6540	H	0.544331	0.564178	0.805607
	H6541	H	0.547360	0.564323	0.803897
	H6542	H	0.545251	0.564684	0.800668
	H6543	H	0.382375	0.564739	0.812040
	H6544	H	0.511989	0.643141	0.825404
	H6545	H	0.512021	0.862482	0.825345
	H6546	H	0.512101	0.143778	0.825390
	H6547	H	0.511885	0.362830	0.825364
	H6548	H	0.413670	0.644450	0.772846
	H6549	H	0.479618	0.644044	0.769394
	H6550	H	0.479338	0.861709	0.769508
	H6551	H	0.413797	0.860744	0.772932
	H6552	H	0.502152	0.644016	0.782000
	H6553	H	0.501843	0.861649	0.782109
	H6554	H	0.501972	0.643373	0.840829
	H6555	H	0.501988	0.862665	0.840787
	H6556	H	0.438493	0.441072	0.749581
	H6557	H	0.481684	0.441244	0.865818
	H6558	H	0.437837	0.440850	0.749093
	H6559	H	0.438087	0.440859	0.748701
	H6560	H	0.479082	0.440695	0.864423
	H6561	H	0.480799	0.440939	0.864564
	H6562	H	0.481731	0.564286	0.865809
	H6563	H	0.438537	0.564145	0.749552
	H6564	H	0.480846	0.564092	0.864541
	H6565	H	0.479145	0.564175	0.864401
	H6566	H	0.438121	0.564445	0.748684
	H6567	H	0.437793	0.564458	0.749066
	H6568	H	0.502087	0.143572	0.840840
	H6569	H	0.501912	0.362521	0.840798
	H6570	H	0.438529	0.064591	0.749689
	H6571	H	0.439493	0.064253	0.749603
	H6572	H	0.437749	0.064250	0.749102
	H6573	H	0.439522	0.860229	0.844580
	H6574	H	0.439422	0.644204	0.844654
	H6575	H	0.439517	0.360771	0.844604
	H6576	H	0.439409	0.144170	0.844674
	H6577	H	0.413752	0.145144	0.772903
	H6578	H	0.479436	0.144737	0.769429
	H6579	H	0.479538	0.360864	0.769405
	H6580	H	0.413640	0.360005	0.772833
	H6581	H	0.501810	0.144437	0.782114
	H6582	H	0.501966	0.360883	0.782065
	H6583	H	0.479922	0.064762	0.866038
	H6584	H	0.480653	0.064823	0.865818
	H6585	H	0.480556	0.064041	0.865120
	H6586	H	0.439427	0.941175	0.749658
	H6587	H	0.438394	0.941315	0.749643
	H6588	H	0.437620	0.940627	0.749024
	H6589	H	0.479929	0.941110	0.866050
	H6590	H	0.480616	0.941052	0.865800
	H6591	H	0.480486	0.941264	0.865101
	Zn6592	Zn	0.376350	0.680037	0.811573
	Zn6593	Zn	0.376475	0.825538	0.811575
	Zn6594	Zn	0.376378	0.180135	0.811593
	Zn6595	Zn	0.376461	0.325544	0.811580
	Zn6596	Zn	0.479696	0.680052	0.865479
	Zn6597	Zn	0.479576	0.825236	0.865529
	Zn6598	Zn	0.479666	0.180231	0.865462
	Zn6599	Zn	0.479577	0.325335	0.865458
	C6600	C	0.516913	0.752749	0.790387
	C6601	C	0.402077	0.752343	0.823643
	C6602	C	0.415735	0.752219	0.831161
	C6603	C	0.422011	0.691075	0.834783
	C6604	C	0.422058	0.813311	0.834741
	C6605	C	0.402117	0.252641	0.823662
	C6606	C	0.415709	0.252419	0.831209
	C6607	C	0.422009	0.191034	0.834817
	C6608	C	0.422063	0.313745	0.834788
	C6609	C	0.393356	0.752428	0.797504
	C6610	C	0.400937	0.752536	0.788657
	C6611	C	0.404295	0.813933	0.784492
	C6612	C	0.404229	0.691331	0.784451
	C6613	C	0.393260	0.252772	0.797495
	C6614	C	0.400848	0.252708	0.788635
	C6615	C	0.404190	0.313562	0.784437
	C6616	C	0.404243	0.191787	0.784468
	C6617	C	0.542993	0.043115	0.800437
	C6618	C	0.543072	0.962368	0.800437
	C6619	C	0.375406	0.043358	0.811094
	C6620	C	0.375447	0.962412	0.811092
	C6621	C	0.376186	0.043131	0.812261
	C6622	C	0.376216	0.962292	0.812257
	C6623	C	0.376295	0.462372	0.809442
	C6624	C	0.542768	0.462192	0.801047
	C6625	C	0.544888	0.462250	0.804249
	C6626	C	0.376315	0.543019	0.809427
	C6627	C	0.544894	0.542839	0.804266
	C6628	C	0.542800	0.543185	0.801052
	C6629	C	0.520269	0.752575	0.815533
	C6630	C	0.520273	0.253264	0.815542
	C6631	C	0.512551	0.752799	0.824425
	C6632	C	0.509649	0.690853	0.828801
	C6633	C	0.509668	0.814927	0.828764
	C6634	C	0.512613	0.253230	0.824443
	C6635	C	0.509731	0.191253	0.828801
	C6636	C	0.509628	0.315123	0.828783
	C6637	C	0.516884	0.252646	0.790385
	C6638	C	0.464439	0.753007	0.761175
	C6639	C	0.421959	0.752362	0.763181
	C6640	C	0.454447	0.752163	0.852922
	C6641	C	0.497043	0.691248	0.779222
	C6642	C	0.496868	0.814358	0.779286
	C6643	C	0.478126	0.752933	0.768681
	C6644	C	0.414320	0.752552	0.772023
	C6645	C	0.410957	0.691295	0.776185
	C6646	C	0.484563	0.691310	0.772220
	C6647	C	0.484386	0.814446	0.772284
	C6648	C	0.411013	0.813933	0.776226
	C6649	C	0.503270	0.752802	0.782843
	C6650	C	0.495738	0.752936	0.851109
	C6651	C	0.504179	0.690972	0.837389
	C6652	C	0.504184	0.815001	0.837355
	C6653	C	0.501601	0.753021	0.841788
	C6654	C	0.480773	0.462113	0.865944
	C6655	C	0.438145	0.462181	0.748947
	C6656	C	0.479910	0.462278	0.864738
	C6657	C	0.480833	0.543115	0.865955
	C6658	C	0.479963	0.543162	0.864727
	C6659	C	0.438187	0.543295	0.748933
	C6660	C	0.495758	0.252920	0.851102
	C6661	C	0.504251	0.191111	0.837388
	C6662	C	0.504143	0.315009	0.837362
	C6663	C	0.501633	0.253006	0.841783
	C6664	C	0.438973	0.042942	0.749506
	C6665	C	0.464545	0.252869	0.761134
	C6666	C	0.421899	0.252645	0.763152
	C6667	C	0.454425	0.252388	0.852951
	C6668	C	0.496895	0.191502	0.779272
	C6669	C	0.496948	0.314011	0.779267
	C6670	C	0.478221	0.252823	0.768658
	C6671	C	0.414288	0.252543	0.771998
	C6672	C	0.440825	0.752297	0.845362
	C6673	C	0.434498	0.813323	0.841771
	C6674	C	0.434450	0.691103	0.841819
	C6675	C	0.440756	0.252413	0.845424
	C6676	C	0.434484	0.313683	0.841817
	C6677	C	0.434428	0.191123	0.841851
	C6678	C	0.410978	0.191687	0.776208
	C6679	C	0.484464	0.191578	0.772249
	C6680	C	0.484511	0.313981	0.772247
	C6681	C	0.410900	0.313479	0.776167
	C6682	C	0.503272	0.252731	0.782841
	C6683	C	0.480210	0.043344	0.865819
	C6684	C	0.438151	0.043142	0.748925
	C6685	C	0.438938	0.962321	0.749513
	C6686	C	0.480180	0.962280	0.865818
	C6687	C	0.438130	0.962226	0.748899
	N6688	N	0.376441	0.070000	0.811596
	N6689	N	0.376495	0.935556	0.811578
	N6690	N	0.376378	0.435573	0.811570
	N6691	N	0.376293	0.570044	0.811561
	N6692	N	0.479770	0.435357	0.865465
	N6693	N	0.479826	0.569874	0.865448
	N6694	N	0.479798	0.070107	0.865467
	N6695	N	0.479739	0.935510	0.865469
	O6696	O	0.487449	0.694275	0.923512
	O6697	O	0.487320	0.811167	0.923548
	O6698	O	0.431552	0.694014	0.939827
	O6699	O	0.431525	0.810887	0.939814
	O6700	O	0.431647	0.194610	0.939833
	O6701	O	0.431572	0.311531	0.939809
	O6702	O	0.430918	0.694302	0.917260
	O6703	O	0.431029	0.810740	0.917274
	O6704	O	0.430821	0.194819	0.917212
	O6705	O	0.430865	0.311290	0.917210
	O6706	O	0.487823	0.694142	0.945966
	O6707	O	0.487806	0.810623	0.946022
	O6708	O	0.488069	0.193982	0.946035
	O6709	O	0.487984	0.310594	0.946043
	O6710	O	0.487516	0.194598	0.923424
	O6711	O	0.487524	0.311204	0.923499
	O6712	O	0.494197	0.694471	0.877346
	O6713	O	0.461351	0.694152	0.874773
	O6714	O	0.457754	0.693731	0.988540
	O6715	O	0.457825	0.810567	0.988543
	O6716	O	0.424905	0.694142	0.985982
	O6717	O	0.424927	0.810993	0.985964
	O6718	O	0.461284	0.810976	0.874759
	O6719	O	0.494032	0.811183	0.877365
	O6720	O	0.494332	0.194470	0.877288
	O6721	O	0.461301	0.194676	0.874752
	O6722	O	0.457783	0.193973	0.988567
	O6723	O	0.457745	0.310907	0.988522
	O6724	O	0.424806	0.194614	0.985993
	O6725	O	0.424835	0.311653	0.985988
	O6726	O	0.461329	0.311358	0.874751
	O6727	O	0.494193	0.311417	0.877320
	H6728	H	0.430381	0.642648	0.954699
	H6729	H	0.430054	0.862419	0.954699
	H6730	H	0.430130	0.143384	0.954699
	H6731	H	0.430386	0.363193	0.954703
	H6732	H	0.439486	0.861805	0.903330
	H6733	H	0.439721	0.642599	0.903382
	H6734	H	0.439703	0.362612	0.903338
	H6735	H	0.439441	0.143619	0.903315
	H6736	H	0.507697	0.064338	0.933529
	H6737	H	0.502731	0.064262	0.931708
	H6738	H	0.502718	0.940939	0.931730
	H6739	H	0.507692	0.941057	0.933568
	H6740	H	0.507536	0.064416	0.937694
	H6741	H	0.507525	0.940948	0.937715
	H6742	H	0.416888	0.064661	0.926793
	H6743	H	0.416901	0.940734	0.926767
	H6744	H	0.415386	0.064469	0.927289
	H6745	H	0.415290	0.941236	0.927201
	H6746	H	0.415417	0.064236	0.928546
	H6747	H	0.415299	0.941086	0.928573
	H6748	H	0.415201	0.441545	0.929320
	H6749	H	0.417920	0.441050	0.929699
	H6750	H	0.413745	0.441338	0.927463
	H6751	H	0.493277	0.440895	0.929841
	H6752	H	0.508336	0.440912	0.929535
	H6753	H	0.514833	0.440875	0.934532
	H6754	H	0.417970	0.564837	0.929691
	H6755	H	0.415250	0.564326	0.929344
	H6756	H	0.514926	0.564392	0.934515
	H6757	H	0.508422	0.564448	0.929528
	H6758	H	0.493273	0.564410	0.929818
	H6759	H	0.413763	0.564139	0.927448
	H6760	H	0.479202	0.642362	0.959886
	H6761	H	0.479252	0.861550	0.959887
	H6762	H	0.479597	0.142634	0.959982
	H6763	H	0.479344	0.361899	0.959918
	H6764	H	0.449717	0.642723	0.887933
	H6765	H	0.492724	0.642987	0.892285
	H6766	H	0.492965	0.862461	0.892266
	H6767	H	0.449521	0.861817	0.887904
	H6768	H	0.488656	0.643002	0.908647
	H6769	H	0.488765	0.862696	0.908627
	H6770	H	0.469320	0.642561	0.975398
	H6771	H	0.469383	0.861675	0.975366
	H6772	H	0.480585	0.440833	0.866429
	H6773	H	0.442859	0.440911	1.002291
	H6774	H	0.478326	0.441063	0.866203
	H6775	H	0.477640	0.441013	0.865311
	H6776	H	0.444858	0.440868	0.994335
	H6777	H	0.448349	0.440899	0.997995
	H6778	H	0.442874	0.563986	1.002264
	H6779	H	0.480655	0.564587	0.866451
	H6780	H	0.448271	0.564395	0.997990
	H6781	H	0.444787	0.564437	0.994297
	H6782	H	0.477652	0.564254	0.865283
	H6783	H	0.478261	0.564698	0.866201
	H6784	H	0.469638	0.142738	0.975471
	H6785	H	0.469455	0.362028	0.975414
	H6786	H	0.478632	0.064291	0.865202
	H6787	H	0.478751	0.063725	0.865742
	H6788	H	0.479701	0.064577	0.864912
	H6789	H	0.425998	0.862174	0.971078
	H6790	H	0.426225	0.642605	0.971094
	H6791	H	0.426235	0.363321	0.971092
	H6792	H	0.425947	0.143294	0.971072
	H6793	H	0.449411	0.143332	0.887858
	H6794	H	0.492907	0.143348	0.892177
	H6795	H	0.492781	0.362708	0.892153
	H6796	H	0.449728	0.362646	0.887894
	H6797	H	0.488878	0.143324	0.908539
	H6798	H	0.488670	0.363118	0.908551
	H6799	H	0.440157	0.064427	1.003916
	H6800	H	0.448710	0.064120	1.001769
	H6801	H	0.449031	0.064091	0.994834
	H6802	H	0.478689	0.941025	0.865779
	H6803	H	0.478573	0.940405	0.865252
	H6804	H	0.479663	0.940667	0.864924
	H6805	H	0.440129	0.940387	1.003913
	H6806	H	0.448765	0.941326	1.001798
	H6807	H	0.449141	0.941564	0.994787
	Zn6808	Zn	0.416938	0.680471	0.927967
	Zn6809	Zn	0.417064	0.825276	0.927934
	Zn6810	Zn	0.417130	0.180504	0.927983
	Zn6811	Zn	0.417042	0.325460	0.927972
	Zn6812	Zn	0.439378	0.679966	0.997823
	Zn6813	Zn	0.439455	0.825169	0.997791
	Zn6814	Zn	0.439367	0.180123	0.997857
	Zn6815	Zn	0.439442	0.325151	0.997861
	C6816	C	0.487231	0.752815	0.919623
	C6817	C	0.431683	0.752457	0.943725
	C6818	C	0.430610	0.752519	0.953707
	C6819	C	0.429400	0.690398	0.958340
	C6820	C	0.429262	0.814589	0.958336
	C6821	C	0.431800	0.253097	0.943735
	C6822	C	0.430737	0.253244	0.953738
	C6823	C	0.429292	0.191086	0.958351
	C6824	C	0.429444	0.315491	0.958360
	C6825	C	0.433368	0.752466	0.913677
	C6826	C	0.439286	0.752297	0.904367
	C6827	C	0.441760	0.814266	0.899919
	C6828	C	0.441855	0.690286	0.899941
	C6829	C	0.433203	0.253018	0.913612
	C6830	C	0.439105	0.252990	0.904295
	C6831	C	0.441798	0.314939	0.899880
	C6832	C	0.441661	0.191063	0.899876
	C6833	C	0.504324	0.042919	0.933328
	C6834	C	0.504318	0.962220	0.933363
	C6835	C	0.416458	0.043230	0.927288
	C6836	C	0.416429	0.962230	0.927251
	C6837	C	0.416517	0.043124	0.928598
	C6838	C	0.416451	0.962231	0.928600
	C6839	C	0.416742	0.462585	0.929105
	C6840	C	0.493875	0.462091	0.933200
	C6841	C	0.509042	0.462244	0.932897
	C6842	C	0.416774	0.543413	0.929119
	C6843	C	0.509068	0.543018	0.932898
	C6844	C	0.493867	0.543062	0.933170
	C6845	C	0.485451	0.752264	0.949599
	C6846	C	0.485646	0.252223	0.949631
	C6847	C	0.479699	0.751955	0.958931
	C6848	C	0.477119	0.689941	0.963359
	C6849	C	0.477163	0.813957	0.963351
	C6850	C	0.479691	0.252238	0.958942
	C6851	C	0.477270	0.190243	0.963397
	C6852	C	0.477136	0.314341	0.963358
	C6853	C	0.487354	0.253069	0.919538
	C6854	C	0.494289	0.752773	0.881275
	C6855	C	0.457865	0.752503	0.878059
	C6856	C	0.424710	0.752494	0.982059
	C6857	C	0.489489	0.690765	0.904995
	C6858	C	0.489588	0.814920	0.904989
	C6859	C	0.493250	0.752728	0.891271
	C6860	C	0.450191	0.752285	0.886982
	C6861	C	0.447305	0.690238	0.891339
	C6862	C	0.491916	0.690713	0.895917
	C6863	C	0.492017	0.814785	0.895910
	C6864	C	0.447187	0.814259	0.891314
	C6865	C	0.488218	0.752910	0.909623
	C6866	C	0.461223	0.752099	0.985250
	C6867	C	0.471728	0.690011	0.971972
	C6868	C	0.471770	0.813982	0.971960
	C6869	C	0.468900	0.752024	0.976333
	C6870	C	0.439165	0.462170	1.000982
	C6871	C	0.478463	0.462284	0.865677
	C6872	C	0.444648	0.462038	0.996597
	C6873	C	0.439157	0.542832	1.000960
	C6874	C	0.444640	0.543048	0.996583
	C6875	C	0.478460	0.543030	0.865664
	C6876	C	0.461209	0.252369	0.985254
	C6877	C	0.471782	0.190236	0.971990
	C6878	C	0.471646	0.314436	0.971951
	C6879	C	0.468773	0.252338	0.976307
	C6880	C	0.479000	0.042980	0.865493
	C6881	C	0.494419	0.252910	0.881201
	C6882	C	0.457816	0.253035	0.878033
	C6883	C	0.424668	0.253137	0.982094
	C6884	C	0.489724	0.191160	0.904910
	C6885	C	0.489621	0.315357	0.904918
	C6886	C	0.493340	0.253043	0.891196
	C6887	C	0.450131	0.253014	0.886940
	C6888	C	0.425656	0.752390	0.972053
	C6889	C	0.426872	0.814517	0.967421
	C6890	C	0.426993	0.690326	0.967425
	C6891	C	0.425682	0.253239	0.972085
	C6892	C	0.427012	0.315483	0.967447
	C6893	C	0.426866	0.191089	0.967434
	C6894	C	0.447148	0.190994	0.891288
	C6895	C	0.492092	0.191049	0.895826
	C6896	C	0.492002	0.315142	0.895832
	C6897	C	0.447316	0.315010	0.891299
	C6898	C	0.488424	0.253286	0.909556
	C6899	C	0.443082	0.043073	1.001512
	C6900	C	0.480052	0.043067	0.865136
	C6901	C	0.478970	0.962225	0.865513
	C6902	C	0.443093	0.962080	1.001513
	C6903	C	0.480015	0.962365	0.865137
	N6904	N	0.417190	0.070201	0.927964
	N6905	N	0.417157	0.935536	0.927955
	N6906	N	0.417056	0.435515	0.927981
	N6907	N	0.417052	0.570091	0.927983
	N6908	N	0.439384	0.435266	0.997851
	N6909	N	0.439385	0.569821	0.997824
	N6910	N	0.439358	0.069959	0.997802
	N6911	N	0.439381	0.935370	0.997796
	O6912	O	0.611185	0.693457	0.049886
	O6913	O	0.610900	0.810266	0.049926
	O6914	O	0.552365	0.693665	0.066065
	O6915	O	0.552508	0.810566	0.066038
	O6916	O	0.552651	0.194596	0.066008
	O6917	O	0.552509	0.311511	0.066097
	O6918	O	0.552299	0.694119	0.043380
	O6919	O	0.552422	0.810510	0.043432
	O6920	O	0.552336	0.194501	0.043390
	O6921	O	0.552325	0.311114	0.043393
	O6922	O	0.609000	0.693994	0.071134
	O6923	O	0.608894	0.810781	0.071113
	O6924	O	0.608752	0.194445	0.071099
	O6925	O	0.608869	0.311166	0.071104
	O6926	O	0.611034	0.195032	0.049839
	O6927	O	0.611300	0.311945	0.049846
	O6928	O	0.615153	0.694105	0.003531
	O6929	O	0.582405	0.694257	0.000847
	O6930	O	0.581311	0.694630	0.114450
	O6931	O	0.581428	0.811379	0.114466
	O6932	O	0.548712	0.694072	0.112407
	O6933	O	0.548804	0.810964	0.112354
	O6934	O	0.582197	0.810977	0.000787
	O6935	O	0.614929	0.811120	0.003606
	O6936	O	0.614896	0.194288	0.003550
	O6937	O	0.582301	0.194424	0.000770
	O6938	O	0.581314	0.193882	0.114421
	O6939	O	0.581479	0.310660	0.114471
	O6940	O	0.548555	0.194760	0.112379
	O6941	O	0.548645	0.311511	0.112411
	O6942	O	0.582401	0.311211	0.000782
	O6943	O	0.615134	0.311076	0.003505
	H6944	H	0.551416	0.642360	0.080945
	H6945	H	0.551507	0.862302	0.080979
	H6946	H	0.551494	0.143022	0.080954
	H6947	H	0.551547	0.362952	0.080959
	H6948	H	0.560775	0.861786	0.029451
	H6949	H	0.560896	0.642759	0.029456
	H6950	H	0.561006	0.362322	0.029494
	H6951	H	0.560827	0.143488	0.029491
	H6952	H	0.639766	0.064612	0.062293
	H6953	H	0.635350	0.064985	0.056530
	H6954	H	0.635520	0.941423	0.056508
	H6955	H	0.639827	0.941466	0.062265
	H6956	H	0.630264	0.064426	0.068470
	H6957	H	0.630356	0.941477	0.068451
	H6958	H	0.536313	0.064169	0.055359
	H6959	H	0.536370	0.940823	0.055365
	H6960	H	0.539030	0.064513	0.055821
	H6961	H	0.539024	0.940702	0.055840
	H6962	H	0.541608	0.064222	0.054464
	H6963	H	0.541655	0.941045	0.054445
	H6964	H	0.545208	0.441108	0.056818
	H6965	H	0.546464	0.440277	0.053304
	H6966	H	0.536201	0.440802	0.058204
	H6967	H	0.616389	0.441199	0.055716
	H6968	H	0.632727	0.441481	0.054984
	H6969	H	0.640401	0.441106	0.060241
	H6970	H	0.546415	0.564484	0.053232
	H6971	H	0.545222	0.564059	0.056823
	H6972	H	0.640396	0.564657	0.060228
	H6973	H	0.632796	0.564299	0.054989
	H6974	H	0.616420	0.564663	0.055748
	H6975	H	0.536228	0.564175	0.058235
	H6976	H	0.599334	0.642423	0.084925
	H6977	H	0.599252	0.862506	0.084870
	H6978	H	0.599475	0.142828	0.084908
	H6979	H	0.599234	0.362909	0.084914
	H6980	H	0.570705	0.642797	0.013968
	H6981	H	0.614349	0.642407	0.018423
	H6982	H	0.613581	0.862552	0.018518
	H6983	H	0.570644	0.861850	0.013964
	H6984	H	0.611055	0.641984	0.034915
	H6985	H	0.610338	0.862038	0.034960
	H6986	H	0.591020	0.642760	0.100728
	H6987	H	0.590865	0.862637	0.100646
	H6988	H	0.596909	0.441013	-0.005932
	H6989	H	0.561294	0.440997	0.124095
	H6990	H	0.594847	0.441117	-0.009844
	H6991	H	0.598803	0.440676	-0.011715
	H6992	H	0.565652	0.441021	0.125267
	H6993	H	0.563367	0.441210	0.125430
	H6994	H	0.561223	0.564235	0.124083
	H6995	H	0.596938	0.563998	-0.005998
	H6996	H	0.563347	0.564603	0.125425
	H6997	H	0.565588	0.564512	0.125259
	H6998	H	0.598753	0.563719	-0.011719
	H6999	H	0.594999	0.564234	-0.009788
	H7000	H	0.591108	0.142468	0.100677
	H7001	H	0.590865	0.362672	0.100692
	H7002	H	0.604261	0.064471	-0.010845
	H7003	H	0.599384	0.064030	-0.011423
	H7004	H	0.606577	0.064197	-0.007440
	H7005	H	0.548385	0.862225	0.097456
	H7006	H	0.548338	0.642147	0.097429
	H7007	H	0.548200	0.363497	0.097396
	H7008	H	0.548126	0.143193	0.097425
	H7009	H	0.570604	0.143208	0.013988
	H7010	H	0.613721	0.142862	0.018409
	H7011	H	0.614341	0.362892	0.018415
	H7012	H	0.570803	0.362478	0.013983
	H7013	H	0.610536	0.143258	0.034882
	H7014	H	0.611213	0.363275	0.034919
	H7015	H	0.554166	0.064118	0.123865
	H7016	H	0.557977	0.064314	0.127819
	H7017	H	0.569060	0.064594	0.128509
	H7018	H	0.599307	0.941013	-0.011404
	H7019	H	0.604132	0.940350	-0.010818
	H7020	H	0.606589	0.941003	-0.007433
	H7021	H	0.554276	0.940818	0.123838
	H7022	H	0.557987	0.941225	0.127819
	H7023	H	0.569160	0.940881	0.128543
	Zn7024	Zn	0.538308	0.680170	0.054085
	Zn7025	Zn	0.538326	0.825218	0.054065
	Zn7026	Zn	0.538301	0.179953	0.054111
	Zn7027	Zn	0.538322	0.325055	0.054117
	Zn7028	Zn	0.563998	0.680240	0.124061
	Zn7029	Zn	0.563889	0.825052	0.123998
	Zn7030	Zn	0.563784	0.180296	0.124012
	Zn7031	Zn	0.563984	0.325301	0.124042
	C7032	C	0.610399	0.751910	0.045995
	C7033	C	0.552692	0.752168	0.069967
	C7034	C	0.551915	0.752278	0.079975
	C7035	C	0.550790	0.690112	0.084622
	C7036	C	0.550840	0.814503	0.084637
	C7037	C	0.552765	0.252893	0.069964
	C7038	C	0.551943	0.252940	0.079977
	C7039	C	0.550770	0.190785	0.084623
	C7040	C	0.550803	0.315262	0.084624
	C7041	C	0.554685	0.752342	0.039787
	C7042	C	0.560486	0.752328	0.030434
	C7043	C	0.562962	0.814290	0.025993
	C7044	C	0.563047	0.690312	0.026009
	C7045	C	0.554745	0.252811	0.039799
	C7046	C	0.560545	0.252892	0.030456
	C7047	C	0.563121	0.314834	0.026025
	C7048	C	0.563035	0.190983	0.026028
	C7049	C	0.634592	0.043369	0.059948
	C7050	C	0.634598	0.962488	0.059951
	C7051	C	0.537884	0.043187	0.055208
	C7052	C	0.537890	0.962079	0.055213
	C7053	C	0.540508	0.042987	0.053842
	C7054	C	0.540514	0.962264	0.053826
	C7055	C	0.543903	0.461969	0.054796
	C7056	C	0.617429	0.462194	0.059421
	C7057	C	0.633924	0.462505	0.058664
	C7058	C	0.543915	0.542967	0.054776
	C7059	C	0.633901	0.543306	0.058662
	C7060	C	0.617418	0.543336	0.059437
	C7061	C	0.605992	0.752365	0.074601
	C7062	C	0.605908	0.252861	0.074601
	C7063	C	0.599723	0.752421	0.083879
	C7064	C	0.597408	0.690295	0.088401
	C7065	C	0.597353	0.814641	0.088368
	C7066	C	0.599763	0.252905	0.083915
	C7067	C	0.597537	0.190607	0.088418
	C7068	C	0.597412	0.315034	0.088420
	C7069	C	0.610462	0.253497	0.045947
	C7070	C	0.615232	0.752482	0.007473
	C7071	C	0.578832	0.752575	0.004096
	C7072	C	0.548077	0.752353	0.108482
	C7073	C	0.611602	0.689866	0.031250
	C7074	C	0.611190	0.814403	0.031299
	C7075	C	0.614365	0.752441	0.017486
	C7076	C	0.571239	0.752321	0.013027
	C7077	C	0.568455	0.690280	0.017403
	C7078	C	0.613471	0.690109	0.022106
	C7079	C	0.613052	0.814588	0.022159
	C7080	C	0.568351	0.814298	0.017384
	C7081	C	0.610474	0.751982	0.035943
	C7082	C	0.584315	0.752973	0.110976
	C7083	C	0.592813	0.690450	0.097184
	C7084	C	0.592775	0.814831	0.097147
	C7085	C	0.590479	0.752776	0.101664
	C7086	C	0.562252	0.462253	0.123657
	C7087	C	0.597977	0.462163	-0.010149
	C7088	C	0.564383	0.462390	0.124996
	C7089	C	0.562275	0.543070	0.123656
	C7090	C	0.564387	0.543316	0.125003
	C7091	C	0.598014	0.542802	-0.010143
	C7092	C	0.584371	0.252302	0.110976
	C7093	C	0.592961	0.190416	0.097196
	C7094	C	0.592837	0.314828	0.097200
	C7095	C	0.590590	0.252553	0.101695
	C7096	C	0.601621	0.042871	-0.010406
	C7097	C	0.615214	0.252782	0.007440
	C7098	C	0.578918	0.252847	0.004075
	C7099	C	0.547901	0.253238	0.108486
	C7100	C	0.611356	0.191004	0.031218
	C7101	C	0.611711	0.315502	0.031240
	C7102	C	0.614410	0.252998	0.017440
	C7103	C	0.571318	0.252809	0.013028
	C7104	C	0.548073	0.752141	0.098437
	C7105	C	0.549006	0.814439	0.093784
	C7106	C	0.548943	0.689961	0.093763
	C7107	C	0.547992	0.253332	0.098442
	C7108	C	0.548937	0.315532	0.093763
	C7109	C	0.548922	0.190965	0.093767
	C7110	C	0.568367	0.190854	0.017404
	C7111	C	0.613200	0.190798	0.022077
	C7112	C	0.613544	0.315344	0.022097
	C7113	C	0.568466	0.314827	0.017398
	C7114	C	0.610618	0.253362	0.035898
	C7115	C	0.558128	0.042857	0.125359
	C7116	C	0.604009	0.042870	-0.007016
	C7117	C	0.601576	0.962003	-0.010394
	C7118	C	0.558160	0.962228	0.125359
	C7119	C	0.603996	0.962401	-0.007001
	N7120	N	0.538437	0.069837	0.054103
	N7121	N	0.538446	0.935281	0.054096
	N7122	N	0.538466	0.435262	0.054084
	N7123	N	0.538453	0.569880	0.054085
	N7124	N	0.563983	0.435423	0.124031
	N7125	N	0.563997	0.569969	0.124038
	N7126	N	0.563887	0.069903	0.124012
	N7127	N	0.563967	0.935327	0.123998
	O7128	O	0.575370	0.694468	0.182021
	O7129	O	0.575376	0.811245	0.182054
	O7130	O	0.516929	0.695379	0.198193
	O7131	O	0.516631	0.812197	0.198160
	O7132	O	0.516741	0.193527	0.198172
	O7133	O	0.516942	0.310525	0.198194
	O7134	O	0.518886	0.695232	0.176957
	O7135	O	0.518661	0.811781	0.176915
	O7136	O	0.518700	0.193417	0.176920
	O7137	O	0.519070	0.310233	0.177010
	O7138	O	0.575504	0.694555	0.204725
	O7139	O	0.575423	0.811094	0.204692
	O7140	O	0.575311	0.194913	0.204706
	O7141	O	0.575300	0.311289	0.204658
	O7142	O	0.575358	0.194399	0.182045
	O7143	O	0.575399	0.311307	0.181953
	O7144	O	0.579270	0.694555	0.135682
	O7145	O	0.546514	0.694076	0.133654
	O7146	O	0.545421	0.694355	0.247275
	O7147	O	0.545533	0.811058	0.247346
	O7148	O	0.512925	0.695103	0.244520
	O7149	O	0.512855	0.812155	0.244519
	O7150	O	0.546300	0.810879	0.133518
	O7151	O	0.578976	0.811412	0.135719
	O7152	O	0.579233	0.193905	0.135679
	O7153	O	0.546389	0.194567	0.133565
	O7154	O	0.545492	0.194836	0.247315
	O7155	O	0.545532	0.311663	0.247295
	O7156	O	0.513083	0.193958	0.244517
	O7157	O	0.512942	0.310931	0.244513
	O7158	O	0.546530	0.311261	0.133679
	O7159	O	0.579324	0.310770	0.135634
	H7160	H	0.517155	0.643904	0.213154
	H7161	H	0.516975	0.864079	0.213134
	H7162	H	0.516908	0.142124	0.213129
	H7163	H	0.517298	0.362044	0.213182
	H7164	H	0.528001	0.863414	0.163003
	H7165	H	0.528729	0.643496	0.163280
	H7166	H	0.528876	0.362110	0.163307
	H7167	H	0.528028	0.141931	0.163046
	H7168	H	0.587351	0.064286	0.194286
	H7169	H	0.588560	0.064530	0.194982
	H7170	H	0.588492	0.940474	0.195006
	H7171	H	0.587323	0.940974	0.194218
	H7172	H	0.588153	0.064437	0.193040
	H7173	H	0.588183	0.940802	0.193026
	H7174	H	0.492028	0.064511	0.183141
	H7175	H	0.491990	0.941260	0.183040
	H7176	H	0.490771	0.064240	0.187896
	H7177	H	0.490766	0.940542	0.187869
	H7178	H	0.500838	0.064056	0.192328
	H7179	H	0.500746	0.940994	0.192322
	H7180	H	0.502103	0.441071	0.183854
	H7181	H	0.498043	0.441034	0.184474
	H7182	H	0.506616	0.440860	0.186086
	H7183	H	0.590931	0.440884	0.199178
	H7184	H	0.580722	0.441039	0.196125
	H7185	H	0.580210	0.441416	0.191818
	H7186	H	0.498059	0.564348	0.184458
	H7187	H	0.502157	0.564754	0.183889
	H7188	H	0.580248	0.564506	0.191797
	H7189	H	0.580850	0.564571	0.196136
	H7190	H	0.590905	0.564551	0.199189
	H7191	H	0.506654	0.564549	0.186058
	H7192	H	0.566927	0.643367	0.218628
	H7193	H	0.566691	0.862500	0.218640
	H7194	H	0.566921	0.143513	0.218660
	H7195	H	0.567025	0.363055	0.218672
	H7196	H	0.537111	0.643028	0.147483
	H7197	H	0.579628	0.643172	0.150642
	H7198	H	0.579098	0.862968	0.150661
	H7199	H	0.536321	0.862992	0.147209
	H7200	H	0.576565	0.642983	0.167108
	H7201	H	0.576008	0.862816	0.167166
	H7202	H	0.557118	0.643172	0.234126
	H7203	H	0.556856	0.862508	0.234116
	H7204	H	0.561993	0.440823	0.122955
	H7205	H	0.522919	0.440915	0.256145
	H7206	H	0.565087	0.441031	0.122720
	H7207	H	0.566619	0.440935	0.123689
	H7208	H	0.528414	0.441340	0.258371
	H7209	H	0.525116	0.440878	0.258292
	H7210	H	0.522881	0.564146	0.256229
	H7211	H	0.562016	0.564129	0.122941
	H7212	H	0.525215	0.564181	0.258325
	H7213	H	0.528417	0.564864	0.258365
	H7214	H	0.566630	0.564478	0.123735
	H7215	H	0.565075	0.564353	0.122752
	H7216	H	0.557141	0.143541	0.234183
	H7217	H	0.557303	0.362752	0.234182
	H7218	H	0.568357	0.064553	0.119628
	H7219	H	0.560212	0.064447	0.119167
	H7220	H	0.573511	0.064337	0.125097
	H7221	H	0.513833	0.864068	0.229627
	H7222	H	0.513998	0.643870	0.229650
	H7223	H	0.514152	0.362295	0.229652
	H7224	H	0.513806	0.142214	0.229619
	H7225	H	0.536502	0.142569	0.147272
	H7226	H	0.579320	0.142295	0.150665
	H7227	H	0.579974	0.362208	0.150550
	H7228	H	0.537327	0.362511	0.147541
	H7229	H	0.576095	0.142780	0.167131
	H7230	H	0.576722	0.362515	0.167044
	H7231	H	0.527143	0.064715	0.256018
	H7232	H	0.526315	0.064165	0.256061
	H7233	H	0.525932	0.064148	0.256697
	H7234	H	0.560266	0.940883	0.119154
	H7235	H	0.568438	0.941006	0.119657
	H7236	H	0.573536	0.941083	0.125059
	H7237	H	0.527057	0.940775	0.255989
	H7238	H	0.526203	0.940767	0.256052
	H7239	H	0.525874	0.940648	0.256684
	Zn7240	Zn	0.501604	0.680438	0.186571
	Zn7241	Zn	0.501158	0.825028	0.186532
	Zn7242	Zn	0.501320	0.180282	0.186580
	Zn7243	Zn	0.501509	0.324916	0.186546
	Zn7244	Zn	0.526924	0.680239	0.256499
	Zn7245	Zn	0.526971	0.825112	0.256528
	Zn7246	Zn	0.527092	0.180101	0.256509
	Zn7247	Zn	0.526919	0.325016	0.256477
	C7248	C	0.575144	0.752921	0.178124
	C7249	C	0.517430	0.753872	0.202086
	C7250	C	0.517390	0.754033	0.212154
	C7251	C	0.516523	0.691807	0.216831
	C7252	C	0.516392	0.816286	0.216814
	C7253	C	0.517469	0.251990	0.202087
	C7254	C	0.517394	0.252083	0.212145
	C7255	C	0.516385	0.189909	0.216806
	C7256	C	0.516594	0.314334	0.216842
	C7257	C	0.521738	0.753548	0.173446
	C7258	C	0.527940	0.753489	0.164147
	C7259	C	0.530047	0.815495	0.159561
	C7260	C	0.530474	0.691244	0.159721
	C7261	C	0.521829	0.251823	0.173484
	C7262	C	0.528052	0.252008	0.164196
	C7263	C	0.530548	0.314271	0.159753
	C7264	C	0.530097	0.189939	0.159604
	C7265	C	0.588273	0.043257	0.194470
	C7266	C	0.588298	0.962284	0.194481
	C7267	C	0.493997	0.043046	0.185794
	C7268	C	0.493980	0.962117	0.185763
	C7269	C	0.504090	0.042917	0.190272
	C7270	C	0.504020	0.962215	0.190251
	C7271	C	0.500517	0.462301	0.184807
	C7272	C	0.592986	0.462536	0.197026
	C7273	C	0.582778	0.462480	0.193987
	C7274	C	0.500545	0.543109	0.184805
	C7275	C	0.582790	0.543103	0.193974
	C7276	C	0.592979	0.543452	0.197002
	C7277	C	0.573090	0.752851	0.208315
	C7278	C	0.572978	0.253210	0.208297
	C7279	C	0.567250	0.752887	0.217656
	C7280	C	0.564736	0.690921	0.222084
	C7281	C	0.564595	0.814832	0.222084
	C7282	C	0.567214	0.253276	0.217631
	C7283	C	0.564733	0.191185	0.222085
	C7284	C	0.564795	0.315262	0.222081
	C7285	C	0.575150	0.252707	0.178095
	C7286	C	0.579813	0.752949	0.139605
	C7287	C	0.543419	0.752648	0.137054
	C7288	C	0.512702	0.753708	0.240621
	C7289	C	0.577075	0.690825	0.163452
	C7290	C	0.576784	0.815172	0.163490
	C7291	C	0.579744	0.753132	0.149667
	C7292	C	0.537183	0.752945	0.146354
	C7293	C	0.535088	0.690962	0.150940
	C7294	C	0.578950	0.690876	0.154317
	C7295	C	0.578647	0.815256	0.154348
	C7296	C	0.534661	0.815215	0.150782
	C7297	C	0.575922	0.752919	0.168127
	C7298	C	0.548875	0.752762	0.243996
	C7299	C	0.559354	0.690839	0.230692
	C7300	C	0.559212	0.814811	0.230695
	C7301	C	0.556450	0.752781	0.235068
	C7302	C	0.524461	0.462230	0.255719
	C7303	C	0.565385	0.462241	0.123421
	C7304	C	0.526721	0.462397	0.257842
	C7305	C	0.524466	0.543029	0.255754
	C7306	C	0.526774	0.543084	0.257841
	C7307	C	0.565396	0.543041	0.123445
	C7308	C	0.548982	0.253187	0.244021
	C7309	C	0.559396	0.191078	0.230710
	C7310	C	0.559479	0.315185	0.230711
	C7311	C	0.556531	0.253141	0.235052
	C7312	C	0.564186	0.043330	0.120615
	C7313	C	0.579967	0.252379	0.139558
	C7314	C	0.543517	0.252804	0.137109
	C7315	C	0.512743	0.252433	0.240612
	C7316	C	0.576915	0.190413	0.163456
	C7317	C	0.577314	0.314666	0.163401
	C7318	C	0.579841	0.252316	0.149627
	C7319	C	0.537267	0.252501	0.146407
	C7320	C	0.513494	0.753997	0.230612
	C7321	C	0.514544	0.816309	0.225960
	C7322	C	0.514658	0.691713	0.225974
	C7323	C	0.513528	0.252285	0.230604
	C7324	C	0.514736	0.314483	0.225981
	C7325	C	0.514547	0.189966	0.225952
	C7326	C	0.534717	0.190179	0.150830
	C7327	C	0.578755	0.190170	0.154314
	C7328	C	0.579163	0.314677	0.154255
	C7329	C	0.535168	0.314529	0.150982
	C7330	C	0.575980	0.252614	0.168084
	C7331	C	0.526730	0.043054	0.256158
	C7332	C	0.569341	0.043148	0.126067
	C7333	C	0.564218	0.962287	0.120621
	C7334	C	0.526694	0.961985	0.256160
	C7335	C	0.569384	0.962215	0.126065
	N7336	N	0.501315	0.069979	0.186573
	N7337	N	0.501244	0.935343	0.186553
	N7338	N	0.501619	0.435298	0.186538
	N7339	N	0.501678	0.569907	0.186547
	N7340	N	0.526676	0.435347	0.256457
	N7341	N	0.526667	0.569981	0.256463
	N7342	N	0.526906	0.069974	0.256524
	N7343	N	0.526831	0.935379	0.256495
	O7344	O	0.605808	0.694704	0.303189
	O7345	O	0.606128	0.810780	0.303065
	O7346	O	0.484243	0.694319	0.328940
	O7347	O	0.484297	0.810692	0.328944
	O7348	O	0.484171	0.194947	0.328943
	O7349	O	0.484264	0.311306	0.328907
	O7350	O	0.483370	0.694063	0.309895
	O7351	O	0.483234	0.810858	0.309879
	O7352	O	0.483365	0.193678	0.309933
	O7353	O	0.483351	0.310607	0.309896
	O7354	O	0.606788	0.694889	0.322200
	O7355	O	0.607073	0.811667	0.322260
	O7356	O	0.607219	0.193920	0.322328
	O7357	O	0.606890	0.310444	0.322230
	O7358	O	0.605990	0.194183	0.303072
	O7359	O	0.605914	0.310600	0.303074
	O7360	O	0.546406	0.694267	0.266432
	O7361	O	0.513017	0.694938	0.267197
	O7362	O	0.577096	0.694867	0.364840
	O7363	O	0.577004	0.811407	0.364830
	O7364	O	0.543669	0.694522	0.365633
	O7365	O	0.543576	0.810899	0.365685
	O7366	O	0.512992	0.811506	0.267234
	O7367	O	0.546554	0.810576	0.266365
	O7368	O	0.546577	0.195084	0.266360
	O7369	O	0.512959	0.193716	0.267199
	O7370	O	0.577263	0.194255	0.364912
	O7371	O	0.576876	0.310764	0.364773
	O7372	O	0.543536	0.194931	0.365708
	O7373	O	0.543675	0.311299	0.365636
	O7374	O	0.513074	0.310190	0.267255
	O7375	O	0.546388	0.311371	0.266425
	H7376	H	0.503677	0.643719	0.340555
	H7377	H	0.503199	0.861174	0.340712
	H7378	H	0.503109	0.144481	0.340777
	H7379	H	0.503510	0.361899	0.340620
	H7380	H	0.494716	0.862333	0.296695
	H7381	H	0.494984	0.642775	0.296663
	H7382	H	0.495033	0.361740	0.296767
	H7383	H	0.494407	0.142318	0.296636
	H7384	H	0.626711	0.064045	0.312791
	H7385	H	0.625858	0.064651	0.312386
	H7386	H	0.625834	0.941152	0.312348
	H7387	H	0.626730	0.940848	0.312748
	H7388	H	0.626407	0.064349	0.313581
	H7389	H	0.626388	0.941080	0.313566
	H7390	H	0.460657	0.064731	0.319724
	H7391	H	0.460683	0.940989	0.319683
	H7392	H	0.463129	0.064441	0.321119
	H7393	H	0.463093	0.941528	0.321144
	H7394	H	0.467866	0.064707	0.320748
	H7395	H	0.467864	0.941472	0.320754
	H7396	H	0.460067	0.441063	0.316899
	H7397	H	0.458772	0.440452	0.319299
	H7398	H	0.466493	0.441229	0.316157
	H7399	H	0.624117	0.441131	0.316127
	H7400	H	0.619207	0.441278	0.313220
	H7401	H	0.620653	0.441165	0.310666
	H7402	H	0.458768	0.564546	0.319331
	H7403	H	0.459960	0.564580	0.316887
	H7404	H	0.620674	0.564351	0.310598
	H7405	H	0.619159	0.564103	0.313246
	H7406	H	0.624151	0.564382	0.316107
	H7407	H	0.466504	0.564569	0.316188
	H7408	H	0.595248	0.643673	0.335384
	H7409	H	0.595560	0.862800	0.335424
	H7410	H	0.595609	0.142504	0.335525
	H7411	H	0.595086	0.361526	0.335350
	H7412	H	0.504734	0.643280	0.281160
	H7413	H	0.565640	0.644005	0.278163
	H7414	H	0.566031	0.861180	0.277946
	H7415	H	0.504470	0.862650	0.281180
	H7416	H	0.586697	0.643799	0.291459
	H7417	H	0.587047	0.861527	0.291244
	H7418	H	0.585394	0.643686	0.350836
	H7419	H	0.585747	0.862721	0.350937
	H7420	H	0.524447	0.440749	0.254771
	H7421	H	0.559170	0.441365	0.372280
	H7422	H	0.528957	0.440996	0.254877
	H7423	H	0.530641	0.440869	0.256462
	H7424	H	0.559937	0.440715	0.378732
	H7425	H	0.556225	0.440855	0.376112
	H7426	H	0.559163	0.564282	0.372258
	H7427	H	0.524435	0.564279	0.254780
	H7428	H	0.556214	0.564353	0.376105
	H7429	H	0.559860	0.564631	0.378721
	H7430	H	0.530569	0.564615	0.256455
	H7431	H	0.528943	0.564431	0.254867
	H7432	H	0.585631	0.142809	0.350970
	H7433	H	0.585125	0.361715	0.350810
	H7434	H	0.527696	0.064206	0.256981
	H7435	H	0.527936	0.064255	0.256482
	H7436	H	0.526543	0.064238	0.257014
	H7437	H	0.524253	0.861414	0.354027
	H7438	H	0.524699	0.643642	0.353852
	H7439	H	0.524591	0.361585	0.353880
	H7440	H	0.524171	0.144402	0.354054
	H7441	H	0.503976	0.142204	0.281099
	H7442	H	0.565802	0.144310	0.277965
	H7443	H	0.565306	0.361930	0.278311
	H7444	H	0.504655	0.361694	0.281250
	H7445	H	0.586930	0.144032	0.291229
	H7446	H	0.586417	0.361144	0.291581
	H7447	H	0.570969	0.064332	0.376056
	H7448	H	0.568462	0.064229	0.372790
	H7449	H	0.559562	0.064436	0.371790
	H7450	H	0.527899	0.940889	0.256475
	H7451	H	0.527695	0.940925	0.256908
	H7452	H	0.526513	0.940996	0.257025
	H7453	H	0.570865	0.940851	0.376101
	H7454	H	0.568508	0.940610	0.372840
	H7455	H	0.559618	0.940869	0.371809
	Zn7456	Zn	0.464713	0.680298	0.319033
	Zn7457	Zn	0.464738	0.825457	0.319089
	Zn7458	Zn	0.464758	0.180305	0.319077
	Zn7459	Zn	0.464731	0.325123	0.319000
	Zn7460	Zn	0.563021	0.680156	0.375507
	Zn7461	Zn	0.563092	0.825260	0.375596
	Zn7462	Zn	0.563074	0.180330	0.375553
	Zn7463	Zn	0.563087	0.325569	0.375549
	C7464	C	0.600885	0.752737	0.300126
	C7465	C	0.489373	0.752441	0.331918
	C7466	C	0.502199	0.752466	0.339835
	C7467	C	0.508242	0.690945	0.343564
	C7468	C	0.507995	0.813987	0.343647
	C7469	C	0.489305	0.253104	0.331921
	C7470	C	0.502148	0.253107	0.339845
	C7471	C	0.507928	0.191652	0.343676
	C7472	C	0.508144	0.314559	0.343590
	C7473	C	0.486774	0.752504	0.306595
	C7474	C	0.494323	0.752591	0.297642
	C7475	C	0.497063	0.814769	0.293255
	C7476	C	0.497208	0.690587	0.293247
	C7477	C	0.486715	0.252077	0.306600
	C7478	C	0.494235	0.251976	0.297642
	C7479	C	0.497196	0.314073	0.293299
	C7480	C	0.496842	0.189886	0.293230
	C7481	C	0.626119	0.043272	0.312688
	C7482	C	0.626125	0.962305	0.312688
	C7483	C	0.462588	0.043319	0.320070
	C7484	C	0.462578	0.962399	0.320089
	C7485	C	0.467349	0.043382	0.319674
	C7486	C	0.467371	0.962482	0.319685
	C7487	C	0.460684	0.462241	0.318326
	C7488	C	0.626347	0.462429	0.315132
	C7489	C	0.621419	0.462397	0.312223
	C7490	C	0.460685	0.543242	0.318343
	C7491	C	0.621387	0.542952	0.312187
	C7492	C	0.626358	0.543239	0.315114
	C7493	C	0.603513	0.753325	0.325512
	C7494	C	0.603596	0.252124	0.325577
	C7495	C	0.595967	0.753221	0.334438
	C7496	C	0.593005	0.691231	0.338795
	C7497	C	0.593184	0.815185	0.338835
	C7498	C	0.595983	0.252035	0.334509
	C7499	C	0.593185	0.190165	0.338901
	C7500	C	0.592907	0.314026	0.338809
	C7501	C	0.600844	0.252346	0.300086
	C7502	C	0.551558	0.752447	0.269412
	C7503	C	0.510721	0.753145	0.270834
	C7504	C	0.538545	0.752688	0.362663
	C7505	C	0.582013	0.691130	0.288501
	C7506	C	0.582199	0.814221	0.288387
	C7507	C	0.564412	0.752576	0.277334
	C7508	C	0.504978	0.752921	0.280188
	C7509	C	0.502512	0.690829	0.284614
	C7510	C	0.570347	0.691203	0.281117
	C7511	C	0.570522	0.814020	0.281010
	C7512	C	0.502367	0.814896	0.284619
	C7513	C	0.587993	0.752703	0.292235
	C7514	C	0.579428	0.753168	0.361220
	C7515	C	0.587628	0.691199	0.347408
	C7516	C	0.587795	0.815130	0.347446
	C7517	C	0.585205	0.753145	0.351855
	C7518	C	0.562445	0.462260	0.373035
	C7519	C	0.528942	0.462241	0.255873
	C7520	C	0.559423	0.462185	0.376927
	C7521	C	0.562403	0.543146	0.373020
	C7522	C	0.559437	0.543253	0.376919
	C7523	C	0.528933	0.543261	0.255874
	C7524	C	0.579370	0.252403	0.361230
	C7525	C	0.587798	0.190267	0.347513
	C7526	C	0.587524	0.314095	0.347425
	C7527	C	0.585194	0.252241	0.351908
	C7528	C	0.527523	0.043033	0.256670
	C7529	C	0.551540	0.253310	0.269396
	C7530	C	0.510626	0.251903	0.270831
	C7531	C	0.538538	0.253080	0.362668
	C7532	C	0.582162	0.191200	0.288326
	C7533	C	0.581885	0.314117	0.288518
	C7534	C	0.564420	0.253205	0.277286
	C7535	C	0.504836	0.251839	0.280180
	C7536	C	0.525697	0.752620	0.354739
	C7537	C	0.519658	0.814137	0.351027
	C7538	C	0.519920	0.690959	0.350934
	C7539	C	0.525644	0.253033	0.354776
	C7540	C	0.519823	0.314546	0.350964
	C7541	C	0.519599	0.191576	0.351054
	C7542	C	0.502136	0.189891	0.284594
	C7543	C	0.570471	0.191508	0.280955
	C7544	C	0.570166	0.314586	0.281160
	C7545	C	0.502513	0.313909	0.284670
	C7546	C	0.587981	0.252491	0.292171
	C7547	C	0.568026	0.043062	0.374744
	C7548	C	0.526375	0.042940	0.256758
	C7549	C	0.527530	0.962293	0.256648
	C7550	C	0.568032	0.962184	0.374763
	C7551	C	0.526335	0.962138	0.256762
	N7552	N	0.464651	0.070071	0.319132
	N7553	N	0.464641	0.935504	0.319149
	N7554	N	0.464446	0.435414	0.318980
	N7555	N	0.464456	0.570035	0.318990
	N7556	N	0.563139	0.435642	0.375550
	N7557	N	0.563096	0.570128	0.375533
	N7558	N	0.563245	0.069986	0.375612
	N7559	N	0.563241	0.935369	0.375620
	O7560	O	0.571069	0.693367	0.433578
	O7561	O	0.571013	0.810190	0.433570
	O7562	O	0.515014	0.694339	0.449847
	O7563	O	0.515028	0.811241	0.449864
	O7564	O	0.514912	0.194142	0.449909
	O7565	O	0.515183	0.311018	0.449866
	O7566	O	0.514586	0.694359	0.427373
	O7567	O	0.514560	0.810926	0.427368
	O7568	O	0.514328	0.194528	0.427305
	O7569	O	0.514450	0.310994	0.427337
	O7570	O	0.571787	0.694160	0.456137
	O7571	O	0.571612	0.810708	0.456123
	O7572	O	0.571863	0.194950	0.456127
	O7573	O	0.571725	0.311455	0.456113
	O7574	O	0.570985	0.195131	0.433581
	O7575	O	0.571080	0.312039	0.433509
	O7576	O	0.577612	0.693513	0.387380
	O7577	O	0.544644	0.693878	0.384816
	O7578	O	0.541271	0.694268	0.498570
	O7579	O	0.541327	0.810972	0.498592
	O7580	O	0.508491	0.694220	0.496013
	O7581	O	0.508403	0.810991	0.495994
	O7582	O	0.544708	0.810686	0.384832
	O7583	O	0.577530	0.810372	0.387414
	O7584	O	0.577437	0.194430	0.387414
	O7585	O	0.544726	0.194490	0.384824
	O7586	O	0.541277	0.194425	0.498565
	O7587	O	0.541246	0.311204	0.498564
	O7588	O	0.508276	0.194139	0.496059
	O7589	O	0.508451	0.311103	0.496043
	O7590	O	0.544673	0.311139	0.384814
	O7591	O	0.577761	0.311236	0.387329
	H7592	H	0.513786	0.643006	0.464731
	H7593	H	0.513618	0.862613	0.464743
	H7594	H	0.513790	0.142705	0.464795
	H7595	H	0.513876	0.362622	0.464780
	H7596	H	0.523006	0.862274	0.413402
	H7597	H	0.523358	0.642812	0.413534
	H7598	H	0.523286	0.362346	0.413477
	H7599	H	0.522649	0.143281	0.413330
	H7600	H	0.587153	0.064553	0.444356
	H7601	H	0.585053	0.064457	0.443971
	H7602	H	0.584936	0.941180	0.443994
	H7603	H	0.587163	0.941091	0.444369
	H7604	H	0.588060	0.064619	0.445866
	H7605	H	0.587962	0.940849	0.445903
	H7606	H	0.491710	0.064146	0.438646
	H7607	H	0.491717	0.941049	0.438641
	H7608	H	0.496254	0.064083	0.442063
	H7609	H	0.496277	0.940556	0.442063
	H7610	H	0.506691	0.064261	0.441764
	H7611	H	0.506702	0.940882	0.441761
	H7612	H	0.503703	0.440777	0.440288
	H7613	H	0.505626	0.441036	0.438389
	H7614	H	0.497912	0.441221	0.440200
	H7615	H	0.583619	0.440921	0.445017
	H7616	H	0.585648	0.441294	0.444262
	H7617	H	0.587308	0.441193	0.444719
	H7618	H	0.505589	0.564570	0.438358
	H7619	H	0.503697	0.564402	0.440282
	H7620	H	0.587443	0.564569	0.444719
	H7621	H	0.585620	0.564471	0.444218
	H7622	H	0.583584	0.564663	0.445001
	H7623	H	0.497851	0.564323	0.440237
	H7624	H	0.562992	0.642884	0.470004
	H7625	H	0.562973	0.861915	0.469985
	H7626	H	0.563004	0.143247	0.469980
	H7627	H	0.563074	0.362600	0.469999
	H7628	H	0.533327	0.642587	0.398037
	H7629	H	0.576745	0.642161	0.402289
	H7630	H	0.576003	0.861704	0.402312
	H7631	H	0.532967	0.861895	0.397911
	H7632	H	0.572685	0.641706	0.418663
	H7633	H	0.571973	0.861477	0.418693
	H7634	H	0.552942	0.642995	0.485415
	H7635	H	0.552842	0.861935	0.485417
	H7636	H	0.565087	0.440868	0.371996
	H7637	H	0.518964	0.440910	0.509204
	H7638	H	0.570131	0.440988	0.375616
	H7639	H	0.567989	0.441316	0.378411
	H7640	H	0.527411	0.441570	0.509148
	H7641	H	0.524263	0.441243	0.510468
	H7642	H	0.518918	0.564388	0.509197
	H7643	H	0.565000	0.564739	0.371981
	H7644	H	0.524210	0.564509	0.510458
	H7645	H	0.527350	0.564659	0.509190
	H7646	H	0.567942	0.564347	0.378382
	H7647	H	0.570144	0.564260	0.375581
	H7648	H	0.552968	0.143270	0.485418
	H7649	H	0.552970	0.362532	0.485443
	H7650	H	0.558896	0.064951	0.378895
	H7651	H	0.565453	0.064498	0.379632
	H7652	H	0.555580	0.064785	0.374412
	H7653	H	0.509593	0.862674	0.481116
	H7654	H	0.509681	0.642763	0.481099
	H7655	H	0.509785	0.362586	0.481160
	H7656	H	0.509673	0.142740	0.481173
	H7657	H	0.532683	0.143208	0.397878
	H7658	H	0.576153	0.143178	0.402293
	H7659	H	0.576619	0.362976	0.402243
	H7660	H	0.533301	0.362383	0.398021
	H7661	H	0.572102	0.143644	0.418677
	H7662	H	0.572622	0.363147	0.418651
	H7663	H	0.517430	0.064090	0.506104
	H7664	H	0.517185	0.064298	0.508808
	H7665	H	0.523137	0.064176	0.511142
	H7666	H	0.565354	0.941297	0.379628
	H7667	H	0.558943	0.941554	0.378869
	H7668	H	0.555580	0.941346	0.374436
	H7669	H	0.517389	0.940565	0.506074
	H7670	H	0.517140	0.940966	0.508803
	H7671	H	0.523072	0.941253	0.511115
	Zn7672	Zn	0.500466	0.679872	0.438024
	Zn7673	Zn	0.500486	0.824916	0.438030
	Zn7674	Zn	0.500479	0.179943	0.438014
	Zn7675	Zn	0.500511	0.325100	0.438087
	Zn7676	Zn	0.522924	0.680384	0.507867
	Zn7677	Zn	0.522956	0.825126	0.507857
	Zn7678	Zn	0.522924	0.180151	0.507864
	Zn7679	Zn	0.522923	0.325120	0.507887
	C7680	C	0.570887	0.751736	0.429667
	C7681	C	0.515170	0.752733	0.453757
	C7682	C	0.514232	0.752775	0.463757
	C7683	C	0.512975	0.690702	0.468387
	C7684	C	0.512875	0.814910	0.468388
	C7685	C	0.515205	0.252639	0.453797
	C7686	C	0.514211	0.252713	0.463803
	C7687	C	0.512955	0.190495	0.468439
	C7688	C	0.512998	0.314847	0.468424
	C7689	C	0.516962	0.752625	0.423774
	C7690	C	0.522810	0.752481	0.414446
	C7691	C	0.525260	0.814522	0.409980
	C7692	C	0.525455	0.690371	0.410050
	C7693	C	0.516798	0.252775	0.423725
	C7694	C	0.522739	0.252743	0.414421
	C7695	C	0.525414	0.314733	0.410025
	C7696	C	0.525073	0.190871	0.409938
	C7697	C	0.585899	0.043216	0.444472
	C7698	C	0.585878	0.962427	0.444499
	C7699	C	0.495765	0.042930	0.439737
	C7700	C	0.495772	0.962116	0.439734
	C7701	C	0.506227	0.042906	0.439466
	C7702	C	0.506219	0.961907	0.439472
	C7703	C	0.503637	0.462219	0.439001
	C7704	C	0.584172	0.462169	0.445451
	C7705	C	0.586241	0.462487	0.444725
	C7706	C	0.503631	0.543202	0.438995
	C7707	C	0.586277	0.543214	0.444729
	C7708	C	0.584159	0.543274	0.445470
	C7709	C	0.569274	0.752380	0.459709
	C7710	C	0.569407	0.253184	0.459713
	C7711	C	0.563284	0.752431	0.468995
	C7712	C	0.560743	0.690521	0.473422
	C7713	C	0.560708	0.814330	0.473419
	C7714	C	0.563451	0.253027	0.469015
	C7715	C	0.560826	0.190896	0.473420
	C7716	C	0.560826	0.315040	0.473423
	C7717	C	0.570887	0.253448	0.429638
	C7718	C	0.577768	0.751885	0.391301
	C7719	C	0.541272	0.752266	0.388124
	C7720	C	0.508291	0.752565	0.492092
	C7721	C	0.573357	0.689545	0.415028
	C7722	C	0.572980	0.813806	0.415048
	C7723	C	0.576806	0.751968	0.401320
	C7724	C	0.533670	0.752192	0.397064
	C7725	C	0.530870	0.690211	0.401447
	C7726	C	0.575743	0.689719	0.405936
	C7727	C	0.575348	0.813949	0.405963
	C7728	C	0.530673	0.814355	0.401375
	C7729	C	0.571890	0.751593	0.419676
	C7730	C	0.544716	0.752655	0.495277
	C7731	C	0.555262	0.690537	0.482002
	C7732	C	0.555226	0.814432	0.482001
	C7733	C	0.552338	0.752533	0.486359
	C7734	C	0.519725	0.462268	0.508069
	C7735	C	0.567536	0.462624	0.376612
	C7736	C	0.525025	0.462510	0.509289
	C7737	C	0.519718	0.543099	0.508075
	C7738	C	0.525025	0.543177	0.509306
	C7739	C	0.567525	0.543128	0.376597
	C7740	C	0.544714	0.252844	0.495279
	C7741	C	0.555318	0.190862	0.482007
	C7742	C	0.555329	0.315001	0.482014
	C7743	C	0.552397	0.252935	0.486360
	C7744	C	0.562491	0.043335	0.378297
	C7745	C	0.577775	0.252970	0.391282
	C7746	C	0.541283	0.252797	0.388122
	C7747	C	0.508222	0.252584	0.492148
	C7748	C	0.573052	0.191219	0.415009
	C7749	C	0.573297	0.315374	0.414980
	C7750	C	0.576820	0.253127	0.401285
	C7751	C	0.533659	0.252816	0.397044
	C7752	C	0.509272	0.752651	0.482094
	C7753	C	0.510496	0.814910	0.477471
	C7754	C	0.510587	0.690567	0.477469
	C7755	C	0.509271	0.252690	0.482137
	C7756	C	0.510601	0.314847	0.477512
	C7757	C	0.510557	0.190442	0.477526
	C7758	C	0.530532	0.190777	0.401342
	C7759	C	0.575412	0.191089	0.405923
	C7760	C	0.575679	0.315299	0.405895
	C7761	C	0.530851	0.314804	0.401425
	C7762	C	0.571913	0.253382	0.419632
	C7763	C	0.518744	0.043003	0.507560
	C7764	C	0.559095	0.043179	0.373769
	C7765	C	0.562456	0.962464	0.378304
	C7766	C	0.518722	0.962081	0.507557
	C7767	C	0.559123	0.962338	0.373769
	N7768	N	0.500660	0.069779	0.438010
	N7769	N	0.500661	0.935226	0.438003
	N7770	N	0.500661	0.435322	0.438043
	N7771	N	0.500626	0.569857	0.438029
	N7772	N	0.522881	0.435300	0.507889
	N7773	N	0.522878	0.569966	0.507915
	N7774	N	0.522868	0.069962	0.507836
	N7775	N	0.522859	0.935360	0.507808
	O7776	O	0.606062	0.694620	0.552345
	O7777	O	0.605908	0.810581	0.552444
	O7778	O	0.480620	0.694631	0.580025
	O7779	O	0.480431	0.810907	0.580059
	O7780	O	0.480540	0.193751	0.580049
	O7781	O	0.480417	0.310001	0.580066
	O7782	O	0.478944	0.694414	0.561110
	O7783	O	0.478990	0.811142	0.561094
	O7784	O	0.479021	0.193814	0.561165
	O7785	O	0.478932	0.310559	0.561130
	O7786	O	0.612454	0.694452	0.572286
	O7787	O	0.612437	0.810468	0.572313
	O7788	O	0.612409	0.193901	0.572316
	O7789	O	0.612576	0.309779	0.572357
	O7790	O	0.606047	0.194285	0.552406
	O7791	O	0.606070	0.310448	0.552406
	O7792	O	0.542675	0.694552	0.517548
	O7793	O	0.509107	0.695060	0.518577
	O7794	O	0.577913	0.694828	0.613388
	O7795	O	0.578163	0.810772	0.613529
	O7796	O	0.543928	0.694957	0.614906
	O7797	O	0.543638	0.810935	0.615011
	O7798	O	0.509174	0.811261	0.518582
	O7799	O	0.542951	0.810561	0.517459
	O7800	O	0.542900	0.194617	0.517497
	O7801	O	0.509208	0.194501	0.518635
	O7802	O	0.577926	0.193944	0.613489
	O7803	O	0.578055	0.310179	0.613462
	O7804	O	0.543785	0.194281	0.615009
	O7805	O	0.543865	0.310606	0.614884
	O7806	O	0.509164	0.310998	0.518646
	O7807	O	0.542714	0.310823	0.517605
	H7808	H	0.500917	0.644768	0.591218
	H7809	H	0.500921	0.861140	0.591163
	H7810	H	0.500916	0.143461	0.591211
	H7811	H	0.500978	0.360538	0.591126
	H7812	H	0.490752	0.861932	0.548017
	H7813	H	0.490503	0.643537	0.547956
	H7814	H	0.490584	0.361912	0.547988
	H7815	H	0.491016	0.142849	0.548065
	H7816	H	0.630780	0.064308	0.561816
	H7817	H	0.629272	0.063850	0.559866
	H7818	H	0.629179	0.941474	0.559884
	H7819	H	0.630826	0.940887	0.561771
	H7820	H	0.627722	0.064609	0.563881
	H7821	H	0.627705	0.940899	0.563888
	H7822	H	0.454297	0.064144	0.567309
	H7823	H	0.454222	0.940428	0.567255
	H7824	H	0.452193	0.063791	0.570748
	H7825	H	0.452259	0.940421	0.570711
	H7826	H	0.458840	0.064179	0.574725
	H7827	H	0.458768	0.941026	0.574680
	H7828	H	0.464244	0.440811	0.569025
	H7829	H	0.460667	0.440864	0.567955
	H7830	H	0.464646	0.441134	0.571846
	H7831	H	0.632862	0.441026	0.561701
	H7832	H	0.628917	0.441118	0.564902
	H7833	H	0.623383	0.441055	0.564566
	H7834	H	0.460619	0.564522	0.567940
	H7835	H	0.464159	0.564544	0.569028
	H7836	H	0.623475	0.564443	0.564566
	H7837	H	0.628872	0.564413	0.564895
	H7838	H	0.632873	0.564390	0.561686
	H7839	H	0.464652	0.564195	0.571834
	H7840	H	0.601234	0.644992	0.585371
	H7841	H	0.601433	0.860152	0.585464
	H7842	H	0.601132	0.144419	0.585407
	H7843	H	0.601375	0.358973	0.585423
	H7844	H	0.500462	0.643757	0.532497
	H7845	H	0.563007	0.644554	0.528711
	H7846	H	0.563363	0.860265	0.528536
	H7847	H	0.500792	0.862180	0.532565
	H7848	H	0.585498	0.644588	0.541317
	H7849	H	0.585850	0.860527	0.541156
	H7850	H	0.589165	0.645045	0.600315
	H7851	H	0.589311	0.860315	0.600402
	H7852	H	0.518242	0.440863	0.507110
	H7853	H	0.567354	0.440911	0.624801
	H7854	H	0.522590	0.441027	0.505291
	H7855	H	0.526456	0.441096	0.506217
	H7856	H	0.563344	0.441067	0.622352
	H7857	H	0.566144	0.440722	0.622765
	H7858	H	0.567478	0.564192	0.624826
	H7859	H	0.518264	0.564019	0.507058
	H7860	H	0.566224	0.564740	0.622756
	H7861	H	0.563378	0.564295	0.622283
	H7862	H	0.526440	0.564788	0.506243
	H7863	H	0.522565	0.564540	0.505312
	H7864	H	0.589040	0.144376	0.600366
	H7865	H	0.589347	0.359167	0.600395
	H7866	H	0.528170	0.064608	0.506365
	H7867	H	0.523900	0.064067	0.504660
	H7868	H	0.527752	0.064255	0.510050
	H7869	H	0.523530	0.861005	0.603730
	H7870	H	0.523504	0.644952	0.603785
	H7871	H	0.523480	0.360552	0.603752
	H7872	H	0.523429	0.143824	0.603832
	H7873	H	0.500857	0.143039	0.532584
	H7874	H	0.563331	0.143837	0.528576
	H7875	H	0.562982	0.361086	0.528756
	H7876	H	0.500387	0.362052	0.532490
	H7877	H	0.585888	0.143822	0.541195
	H7878	H	0.585543	0.360917	0.541356
	H7879	H	0.564175	0.063781	0.623715
	H7880	H	0.563428	0.064298	0.623874
	H7881	H	0.563349	0.064302	0.624445
	H7882	H	0.523878	0.940953	0.504607
	H7883	H	0.528291	0.940864	0.506365
	H7884	H	0.527749	0.940940	0.510062
	H7885	H	0.564196	0.940896	0.623668
	H7886	H	0.563339	0.940896	0.623832
	H7887	H	0.563228	0.941178	0.624443
	Zn7888	Zn	0.460657	0.680057	0.570426
	Zn7889	Zn	0.460559	0.824898	0.570380
	Zn7890	Zn	0.460618	0.180137	0.570439
	Zn7891	Zn	0.460673	0.325084	0.570444
	Zn7892	Zn	0.564158	0.679598	0.624152
	Zn7893	Zn	0.564039	0.825414	0.624157
	Zn7894	Zn	0.564161	0.179830	0.624245
	Zn7895	Zn	0.564101	0.325434	0.624157
	C7896	C	0.600639	0.752646	0.549534
	C7897	C	0.485876	0.752858	0.582906
	C7898	C	0.499492	0.752976	0.590465
	C7899	C	0.505880	0.691780	0.594035
	C7900	C	0.505907	0.814147	0.593989
	C7901	C	0.485824	0.251913	0.582919
	C7902	C	0.499508	0.251904	0.590446
	C7903	C	0.505920	0.190649	0.594013
	C7904	C	0.505937	0.313427	0.593960
	C7905	C	0.482436	0.752706	0.557816
	C7906	C	0.490107	0.752662	0.548913
	C7907	C	0.493037	0.814553	0.544571
	C7908	C	0.492883	0.690897	0.544544
	C7909	C	0.482445	0.252165	0.557863
	C7910	C	0.490029	0.252379	0.548915
	C7911	C	0.492868	0.314386	0.544552
	C7912	C	0.493106	0.190449	0.544604
	C7913	C	0.629046	0.043098	0.561018
	C7914	C	0.629022	0.962490	0.561020
	C7915	C	0.455102	0.042775	0.569393
	C7916	C	0.455075	0.961997	0.569364
	C7917	C	0.461727	0.043001	0.573362
	C7918	C	0.461726	0.962231	0.573328
	C7919	C	0.461942	0.462128	0.569003
	C7920	C	0.630218	0.462190	0.560713
	C7921	C	0.626224	0.462352	0.563920
	C7922	C	0.461900	0.543088	0.568999
	C7923	C	0.626241	0.543222	0.563920
	C7924	C	0.630203	0.543203	0.560696
	C7925	C	0.609439	0.752440	0.575675
	C7926	C	0.609520	0.251765	0.575722
	C7927	C	0.601915	0.752521	0.584549
	C7928	C	0.598573	0.691539	0.588724
	C7929	C	0.598671	0.813514	0.588778
	C7930	C	0.601912	0.251662	0.584574
	C7931	C	0.598437	0.190818	0.588746
	C7932	C	0.598595	0.312642	0.588759
	C7933	C	0.600717	0.252368	0.549537
	C7934	C	0.548186	0.752467	0.520357
	C7935	C	0.506846	0.753151	0.522204
	C7936	C	0.538436	0.752925	0.612096
	C7937	C	0.580498	0.691431	0.538520
	C7938	C	0.580699	0.813632	0.538430
	C7939	C	0.561781	0.752410	0.527905
	C7940	C	0.501002	0.752969	0.531530
	C7941	C	0.498352	0.691159	0.535951
	C7942	C	0.568024	0.691362	0.531519
	C7943	C	0.568226	0.813465	0.531431
	C7944	C	0.498512	0.814679	0.535983
	C7945	C	0.586887	0.752616	0.542068
	C7946	C	0.581029	0.752912	0.610082
	C7947	C	0.591902	0.691704	0.597006
	C7948	C	0.591987	0.813724	0.597058
	C7949	C	0.588589	0.752787	0.601223
	C7950	C	0.565819	0.462273	0.625010
	C7951	C	0.524060	0.462228	0.506313
	C7952	C	0.564597	0.461998	0.622979
	C7953	C	0.565861	0.543020	0.625021
	C7954	C	0.564614	0.543057	0.622962
	C7955	C	0.524066	0.543258	0.506342
	C7956	C	0.581016	0.251930	0.610113
	C7957	C	0.591762	0.190874	0.597030
	C7958	C	0.591910	0.312642	0.597039
	C7959	C	0.588539	0.251758	0.601231
	C7960	C	0.525169	0.042998	0.506121
	C7961	C	0.548218	0.252681	0.520379
	C7962	C	0.506814	0.252692	0.522235
	C7963	C	0.538457	0.252365	0.612090
	C7964	C	0.580782	0.190981	0.538416
	C7965	C	0.580583	0.313782	0.538509
	C7966	C	0.561907	0.252509	0.527883
	C7967	C	0.500942	0.252547	0.531552
	C7968	C	0.524666	0.753023	0.604623
	C7969	C	0.518389	0.814087	0.600996
	C7970	C	0.518372	0.691863	0.601035
	C7971	C	0.524729	0.252109	0.604580
	C7972	C	0.518438	0.313462	0.600958
	C7973	C	0.518407	0.190765	0.601012
	C7974	C	0.498544	0.190526	0.536003
	C7975	C	0.568294	0.190970	0.531417
	C7976	C	0.568102	0.313888	0.531514
	C7977	C	0.498303	0.314519	0.535949
	C7978	C	0.587063	0.252424	0.542008
	C7979	C	0.563892	0.042861	0.623900
	C7980	C	0.524730	0.043061	0.509867
	C7981	C	0.525192	0.962083	0.506100
	C7982	C	0.563867	0.962077	0.623875
	C7983	C	0.524735	0.962321	0.509878
	N7984	N	0.460370	0.070109	0.570464
	N7985	N	0.460355	0.935478	0.570422
	N7986	N	0.460527	0.435273	0.570452
	N7987	N	0.460473	0.569883	0.570441
	N7988	N	0.564103	0.435322	0.624128
	N7989	N	0.564129	0.569819	0.624118
	N7990	N	0.564204	0.069904	0.624236
	N7991	N	0.564160	0.935442	0.624197
	O7992	O	0.647415	0.694964	0.668326
	O7993	O	0.647443	0.810998	0.668437
	O7994	O	0.521740	0.693921	0.695753
	O7995	O	0.521708	0.810160	0.695758
	O7996	O	0.521674	0.194654	0.695800
	O7997	O	0.521597	0.310392	0.695848
	O7998	O	0.515083	0.694164	0.675816
	O7999	O	0.515136	0.810333	0.675827
	O8000	O	0.515163	0.194795	0.675874
	O8001	O	0.515193	0.310750	0.675900
	O8002	O	0.648992	0.694771	0.687324
	O8003	O	0.649044	0.811655	0.687302
	O8004	O	0.648905	0.193934	0.687274
	O8005	O	0.649013	0.310763	0.687279
	O8006	O	0.647595	0.194456	0.668359
	O8007	O	0.647594	0.310656	0.668364
	O8008	O	0.584259	0.694938	0.633462
	O8009	O	0.550432	0.694230	0.634916
	O8010	O	0.618474	0.695148	0.729757
	O8011	O	0.618221	0.811656	0.729697
	O8012	O	0.584782	0.693997	0.730827
	O8013	O	0.584612	0.810148	0.730860
	O8014	O	0.550042	0.810418	0.634792
	O8015	O	0.584508	0.811217	0.633329
	O8016	O	0.584550	0.194604	0.633392
	O8017	O	0.550125	0.195154	0.634842
	O8018	O	0.618311	0.194133	0.729680
	O8019	O	0.618305	0.310597	0.729685
	O8020	O	0.584712	0.194716	0.730802
	O8021	O	0.584760	0.311102	0.730808
	O8022	O	0.550498	0.310926	0.634979
	O8023	O	0.584371	0.310812	0.633394
	H8024	H	0.542101	0.643311	0.706919
	H8025	H	0.541987	0.860526	0.706973
	H8026	H	0.541942	0.144478	0.707059
	H8027	H	0.542237	0.360568	0.706886
	H8028	H	0.526596	0.860511	0.662792
	H8029	H	0.526672	0.644186	0.662820
	H8030	H	0.526678	0.360845	0.662906
	H8031	H	0.526626	0.144661	0.662812
	H8032	H	0.667471	0.064137	0.681811
	H8033	H	0.673020	0.064077	0.680701
	H8034	H	0.673071	0.940500	0.680679
	H8035	H	0.667572	0.940517	0.681804
	H8036	H	0.660609	0.064129	0.679039
	H8037	H	0.660641	0.940722	0.679006
	H8038	H	0.495175	0.064279	0.686218
	H8039	H	0.495228	0.940990	0.686187
	H8040	H	0.497072	0.064340	0.688809
	H8041	H	0.497235	0.941025	0.688755
	H8042	H	0.504083	0.064364	0.689606
	H8043	H	0.504016	0.940586	0.689525
	H8044	H	0.503786	0.440997	0.685988
	H8045	H	0.501793	0.440960	0.685132
	H8046	H	0.503450	0.440928	0.687640
	H8047	H	0.660102	0.440729	0.677861
	H8048	H	0.664506	0.441048	0.674362
	H8049	H	0.670586	0.440588	0.674741
	H8050	H	0.501804	0.564635	0.685142
	H8051	H	0.503776	0.564523	0.685925
	H8052	H	0.670495	0.564664	0.674716
	H8053	H	0.664508	0.564391	0.674404
	H8054	H	0.660060	0.564106	0.677843
	H8055	H	0.503481	0.564039	0.687601
	H8056	H	0.637502	0.644117	0.700470
	H8057	H	0.637003	0.863121	0.700375
	H8058	H	0.636991	0.142884	0.700378
	H8059	H	0.637519	0.361891	0.700465
	H8060	H	0.539111	0.644040	0.647966
	H8061	H	0.604711	0.645067	0.644519
	H8062	H	0.604586	0.861529	0.644661
	H8063	H	0.538963	0.860500	0.647919
	H8064	H	0.627225	0.645257	0.657150
	H8065	H	0.627061	0.861643	0.657246
	H8066	H	0.627359	0.643981	0.715873
	H8067	H	0.626787	0.863094	0.715782
	H8068	H	0.565414	0.440925	0.625843
	H8069	H	0.607918	0.441062	0.740948
	H8070	H	0.561581	0.440853	0.625251
	H8071	H	0.560691	0.440982	0.623769
	H8072	H	0.603553	0.440999	0.738847
	H8073	H	0.606306	0.441158	0.739078
	H8074	H	0.607918	0.564536	0.741010
	H8075	H	0.565481	0.564474	0.625878
	H8076	H	0.606385	0.564541	0.739097
	H8077	H	0.603593	0.564160	0.738833
	H8078	H	0.560648	0.563574	0.623782
	H8079	H	0.561574	0.564246	0.625283
	H8080	H	0.626877	0.142965	0.715788
	H8081	H	0.627420	0.361973	0.715895
	H8082	H	0.565036	0.064699	0.624544
	H8083	H	0.565134	0.064076	0.624116
	H8084	H	0.563959	0.064393	0.624736
	H8085	H	0.564332	0.860238	0.719663
	H8086	H	0.564487	0.643458	0.719597
	H8087	H	0.564704	0.361036	0.719516
	H8088	H	0.564388	0.144862	0.719723
	H8089	H	0.538931	0.145226	0.647938
	H8090	H	0.604666	0.144711	0.644671
	H8091	H	0.604874	0.360803	0.644516
	H8092	H	0.539015	0.360883	0.648041
	H8093	H	0.627148	0.144604	0.657289
	H8094	H	0.627398	0.360761	0.657149
	H8095	H	0.599573	0.064032	0.743498
	H8096	H	0.605996	0.063926	0.744636
	H8097	H	0.612372	0.064059	0.741421
	H8098	H	0.565041	0.940806	0.624099
	H8099	H	0.565035	0.940947	0.624505
	H8100	H	0.564016	0.940939	0.624751
	H8101	H	0.599458	0.940846	0.743487
	H8102	H	0.605988	0.940748	0.744648
	H8103	H	0.612366	0.940861	0.741437
	Zn8104	Zn	0.501290	0.679890	0.686583
	Zn8105	Zn	0.501362	0.825540	0.686559
	Zn8106	Zn	0.501256	0.180032	0.686591
	Zn8107	Zn	0.501288	0.325700	0.686574
	Zn8108	Zn	0.604722	0.680085	0.740499
	Zn8109	Zn	0.604498	0.825384	0.740465
	Zn8110	Zn	0.604610	0.179903	0.740494
	Zn8111	Zn	0.604570	0.325268	0.740486
	C8112	C	0.642100	0.753158	0.665498
	C8113	C	0.527015	0.752005	0.698643
	C8114	C	0.540665	0.751882	0.706186
	C8115	C	0.547064	0.690507	0.709740
	C8116	C	0.546980	0.813269	0.709771
	C8117	C	0.526996	0.252494	0.698698
	C8118	C	0.540674	0.252511	0.706211
	C8119	C	0.546957	0.191454	0.709838
	C8120	C	0.547144	0.313685	0.709725
	C8121	C	0.518189	0.752223	0.672471
	C8122	C	0.525932	0.752253	0.663659
	C8123	C	0.529379	0.813595	0.659491
	C8124	C	0.529428	0.691053	0.659499
	C8125	C	0.518269	0.252805	0.672537
	C8126	C	0.525891	0.252704	0.663708
	C8127	C	0.529334	0.313962	0.659562
	C8128	C	0.529331	0.191708	0.659505
	C8129	C	0.669584	0.043029	0.680408
	C8130	C	0.669616	0.961995	0.680402
	C8131	C	0.497540	0.043110	0.687286
	C8132	C	0.497543	0.962407	0.687258
	C8133	C	0.504506	0.042988	0.688085
	C8134	C	0.504495	0.962095	0.688040
	C8135	C	0.502391	0.462363	0.685821
	C8136	C	0.663008	0.461954	0.678966
	C8137	C	0.667482	0.462171	0.675456
	C8138	C	0.502401	0.543191	0.685814
	C8139	C	0.667457	0.543059	0.675448
	C8140	C	0.663009	0.542709	0.678953
	C8141	C	0.645570	0.753363	0.690594
	C8142	C	0.645511	0.252393	0.690563
	C8143	C	0.637804	0.753612	0.699484
	C8144	C	0.635025	0.691583	0.703860
	C8145	C	0.634691	0.815581	0.703803
	C8146	C	0.637815	0.252455	0.699475
	C8147	C	0.634732	0.190484	0.703801
	C8148	C	0.635033	0.314382	0.703854
	C8149	C	0.642234	0.252560	0.665522
	C8150	C	0.589734	0.753077	0.636251
	C8151	C	0.547202	0.752344	0.638219
	C8152	C	0.579327	0.751985	0.727974
	C8153	C	0.622203	0.692269	0.654340
	C8154	C	0.622124	0.814513	0.654414
	C8155	C	0.603415	0.753286	0.643768
	C8156	C	0.539587	0.752349	0.647061
	C8157	C	0.536279	0.691016	0.651259
	C8158	C	0.609745	0.692061	0.647331
	C8159	C	0.609661	0.814582	0.647411
	C8160	C	0.536189	0.813616	0.651242
	C8161	C	0.628508	0.753370	0.657941
	C8162	C	0.620727	0.753445	0.726125
	C8163	C	0.629451	0.691597	0.712429
	C8164	C	0.629120	0.815458	0.712371
	C8165	C	0.626648	0.753528	0.716807
	C8166	C	0.606495	0.462281	0.741276
	C8167	C	0.561915	0.462178	0.624425
	C8168	C	0.604933	0.462412	0.739367
	C8169	C	0.606499	0.542902	0.741274
	C8170	C	0.604971	0.543093	0.739361
	C8171	C	0.561917	0.542821	0.624415
	C8172	C	0.620740	0.252355	0.726096
	C8173	C	0.629212	0.190477	0.712379
	C8174	C	0.629500	0.314363	0.712429
	C8175	C	0.626737	0.252438	0.716811
	C8176	C	0.564832	0.043022	0.624299
	C8177	C	0.589774	0.252822	0.636282
	C8178	C	0.547246	0.252978	0.638287
	C8179	C	0.579417	0.252936	0.727939
	C8180	C	0.622191	0.191549	0.654444
	C8181	C	0.622319	0.313869	0.654362
	C8182	C	0.603432	0.252794	0.643825
	C8183	C	0.539513	0.252964	0.647102
	C8184	C	0.565719	0.751876	0.720413
	C8185	C	0.559372	0.813233	0.716825
	C8186	C	0.559466	0.690530	0.716788
	C8187	C	0.565808	0.252892	0.720370
	C8188	C	0.559594	0.313989	0.716744
	C8189	C	0.559416	0.191601	0.716857
	C8190	C	0.536126	0.191885	0.651253
	C8191	C	0.609742	0.191623	0.647430
	C8192	C	0.609848	0.313949	0.647350
	C8193	C	0.536158	0.314033	0.651321
	C8194	C	0.628572	0.252681	0.657996
	C8195	C	0.603277	0.042992	0.743136
	C8196	C	0.563773	0.043162	0.624492
	C8197	C	0.564815	0.962082	0.624279
	C8198	C	0.603224	0.962175	0.743125
	C8199	C	0.563762	0.962385	0.624483
	N8200	N	0.501306	0.070030	0.686617
	N8201	N	0.501315	0.935512	0.686564
	N8202	N	0.501275	0.435453	0.686607
	N8203	N	0.501247	0.569880	0.686588
	N8204	N	0.604702	0.435255	0.740548
	N8205	N	0.604736	0.569847	0.740524
	N8206	N	0.604614	0.069870	0.740476
	N8207	N	0.604555	0.935349	0.740447
	O8208	O	0.612489	0.694425	0.798429
	O8209	O	0.612444	0.811361	0.798481
	O8210	O	0.556805	0.693939	0.814750
	O8211	O	0.556612	0.810974	0.814755
	O8212	O	0.556685	0.194729	0.814737
	O8213	O	0.556722	0.311711	0.814777
	O8214	O	0.555920	0.694328	0.792221
	O8215	O	0.556014	0.810726	0.792259
	O8216	O	0.555874	0.193734	0.792261
	O8217	O	0.555977	0.310310	0.792254
	O8218	O	0.612949	0.694388	0.821006
	O8219	O	0.613056	0.810843	0.821020
	O8220	O	0.612906	0.193442	0.820951
	O8221	O	0.612940	0.309877	0.821002
	O8222	O	0.612560	0.194341	0.798518
	O8223	O	0.612416	0.311143	0.798518
	O8224	O	0.619245	0.694818	0.752312
	O8225	O	0.586214	0.693833	0.749756
	O8226	O	0.583017	0.693858	0.863574
	O8227	O	0.582894	0.810560	0.863566
	O8228	O	0.550043	0.693814	0.860915
	O8229	O	0.549960	0.810620	0.860939
	O8230	O	0.586252	0.810577	0.749771
	O8231	O	0.619110	0.811509	0.752310
	O8232	O	0.619139	0.193814	0.752354
	O8233	O	0.586215	0.193840	0.749742
	O8234	O	0.582832	0.193548	0.863552
	O8235	O	0.582946	0.310394	0.863529
	O8236	O	0.549969	0.194305	0.860919
	O8237	O	0.549923	0.311240	0.860915
	O8238	O	0.586219	0.310741	0.749788
	O8239	O	0.619141	0.310608	0.752312
	H8240	H	0.555463	0.642643	0.829689
	H8241	H	0.555195	0.862074	0.829628
	H8242	H	0.555345	0.143221	0.829635
	H8243	H	0.555282	0.362813	0.829644
	H8244	H	0.564725	0.862129	0.778322
	H8245	H	0.564281	0.642959	0.778311
	H8246	H	0.564380	0.361552	0.778307
	H8247	H	0.564764	0.142158	0.778365
	H8248	H	0.631861	0.063954	0.814205
	H8249	H	0.635459	0.063740	0.811062
	H8250	H	0.635398	0.940891	0.810979
	H8251	H	0.631800	0.940338	0.814091
	H8252	H	0.622102	0.064188	0.813747
	H8253	H	0.622107	0.940546	0.813757
	H8254	H	0.534633	0.064365	0.802337
	H8255	H	0.534668	0.940744	0.802260
	H8256	H	0.536666	0.063815	0.805527
	H8257	H	0.536794	0.940348	0.805487
	H8258	H	0.545184	0.063808	0.806620
	H8259	H	0.545249	0.940801	0.806662
	H8260	H	0.536665	0.440907	0.802410
	H8261	H	0.538183	0.441268	0.804755
	H8262	H	0.540699	0.440876	0.800093
	H8263	H	0.634716	0.441156	0.808092
	H8264	H	0.634190	0.441339	0.813604
	H8265	H	0.627349	0.441434	0.815218
	H8266	H	0.538150	0.564657	0.804789
	H8267	H	0.536619	0.564503	0.802432
	H8268	H	0.627286	0.564671	0.815193
	H8269	H	0.634162	0.564551	0.813540
	H8270	H	0.634710	0.564684	0.808050
	H8271	H	0.540740	0.564272	0.800073
	H8272	H	0.604506	0.642976	0.834974
	H8273	H	0.604301	0.862077	0.834916
	H8274	H	0.604211	0.141963	0.834859
	H8275	H	0.604496	0.360689	0.834879
	H8276	H	0.574218	0.642789	0.762846
	H8277	H	0.617809	0.643366	0.767190
	H8278	H	0.617956	0.862969	0.767224
	H8279	H	0.574763	0.861784	0.762917
	H8280	H	0.613724	0.643218	0.783532
	H8281	H	0.613903	0.863015	0.783617
	H8282	H	0.594619	0.642993	0.850441
	H8283	H	0.594415	0.861904	0.850400
	H8284	H	0.606309	0.441247	0.742080
	H8285	H	0.564040	0.441091	0.871069
	H8286	H	0.602470	0.440635	0.741802
	H8287	H	0.601293	0.440829	0.740366
	H8288	H	0.561853	0.441202	0.873672
	H8289	H	0.561346	0.441092	0.872315
	H8290	H	0.564068	0.564834	0.871082
	H8291	H	0.606246	0.564075	0.742108
	H8292	H	0.561242	0.564761	0.872355
	H8293	H	0.561924	0.564624	0.873737
	H8294	H	0.601367	0.564482	0.740317
	H8295	H	0.602452	0.564025	0.741736
	H8296	H	0.594409	0.142153	0.850375
	H8297	H	0.594726	0.360818	0.850405
	H8298	H	0.601745	0.064829	0.736443
	H8299	H	0.597086	0.064341	0.738813
	H8300	H	0.610570	0.064680	0.738007
	H8301	H	0.551087	0.862367	0.846014
	H8302	H	0.551375	0.642707	0.846067
	H8303	H	0.551147	0.362642	0.846024
	H8304	H	0.551212	0.143020	0.846015
	H8305	H	0.574788	0.142423	0.762907
	H8306	H	0.617754	0.142412	0.767240
	H8307	H	0.617995	0.362125	0.767238
	H8308	H	0.574356	0.361500	0.762874
	H8309	H	0.613589	0.142537	0.783609
	H8310	H	0.613811	0.362310	0.783613
	H8311	H	0.570121	0.064700	0.876106
	H8312	H	0.572561	0.064688	0.872765
	H8313	H	0.566598	0.064012	0.868747
	H8314	H	0.596983	0.941435	0.738794
	H8315	H	0.601621	0.941153	0.736407
	H8316	H	0.610551	0.940424	0.737980
	H8317	H	0.570170	0.940962	0.876101
	H8318	H	0.572568	0.940634	0.872789
	H8319	H	0.566552	0.940917	0.868790
	Zn8320	Zn	0.542062	0.679920	0.802956
	Zn8321	Zn	0.542115	0.825176	0.802956
	Zn8322	Zn	0.541956	0.179825	0.802991
	Zn8323	Zn	0.542053	0.325161	0.802922
	Zn8324	Zn	0.564526	0.680046	0.872810
	Zn8325	Zn	0.564517	0.825527	0.872796
	Zn8326	Zn	0.564425	0.179967	0.872806
	Zn8327	Zn	0.564577	0.325419	0.872764
	C8328	C	0.612340	0.753010	0.794552
	C8329	C	0.556855	0.752440	0.818655
	C8330	C	0.555869	0.752354	0.828670
	C8331	C	0.554620	0.690324	0.833328
	C8332	C	0.554494	0.814425	0.833297
	C8333	C	0.556847	0.253145	0.818649
	C8334	C	0.555799	0.252974	0.828644
	C8335	C	0.554503	0.190884	0.833276
	C8336	C	0.554487	0.315095	0.833288
	C8337	C	0.558336	0.752554	0.788633
	C8338	C	0.564210	0.752503	0.779334
	C8339	C	0.566852	0.814401	0.774904
	C8340	C	0.566617	0.690572	0.774889
	C8341	C	0.558298	0.251982	0.788669
	C8342	C	0.564130	0.251770	0.779329
	C8343	C	0.566583	0.313825	0.774887
	C8344	C	0.566833	0.189751	0.774921
	C8345	C	0.631873	0.042804	0.812009
	C8346	C	0.631822	0.962161	0.811980
	C8347	C	0.537403	0.042903	0.803678
	C8348	C	0.537432	0.962037	0.803654
	C8349	C	0.545901	0.042983	0.804830
	C8350	C	0.545919	0.962141	0.804833
	C8351	C	0.538684	0.462328	0.803412
	C8352	C	0.630231	0.462359	0.807755
	C8353	C	0.629705	0.462529	0.813339
	C8354	C	0.538682	0.543313	0.803421
	C8355	C	0.629688	0.543223	0.813308
	C8356	C	0.630203	0.543069	0.807744
	C8357	C	0.610651	0.752616	0.824634
	C8358	C	0.610525	0.251544	0.824571
	C8359	C	0.604706	0.752569	0.833929
	C8360	C	0.602239	0.690677	0.838388
	C8361	C	0.602145	0.814512	0.838361
	C8362	C	0.604696	0.251409	0.833889
	C8363	C	0.602106	0.189528	0.838310
	C8364	C	0.602271	0.313257	0.838326
	C8365	C	0.612273	0.252748	0.794615
	C8366	C	0.619332	0.753168	0.756229
	C8367	C	0.582787	0.752201	0.753054
	C8368	C	0.549857	0.752299	0.857016
	C8369	C	0.614680	0.691070	0.779920
	C8370	C	0.614714	0.815295	0.779948
	C8371	C	0.618328	0.753258	0.766219
	C8372	C	0.575134	0.752299	0.761968
	C8373	C	0.572054	0.690442	0.766289
	C8374	C	0.617029	0.691155	0.770838
	C8375	C	0.617052	0.815315	0.770863
	C8376	C	0.572312	0.814302	0.766318
	C8377	C	0.613388	0.753211	0.784561
	C8378	C	0.586347	0.752249	0.860262
	C8379	C	0.596840	0.690553	0.846988
	C8380	C	0.596730	0.814437	0.846959
	C8381	C	0.593906	0.752430	0.851333
	C8382	C	0.565092	0.462455	0.871733
	C8383	C	0.602676	0.461987	0.740920
	C8384	C	0.562311	0.462295	0.872942
	C8385	C	0.565088	0.543302	0.871743
	C8386	C	0.562341	0.543304	0.872957
	C8387	C	0.602665	0.543074	0.740895
	C8388	C	0.586344	0.251853	0.860254
	C8389	C	0.596711	0.189603	0.846924
	C8390	C	0.596888	0.313330	0.846938
	C8391	C	0.593886	0.251603	0.851285
	C8392	C	0.600783	0.042971	0.738390
	C8393	C	0.619263	0.252267	0.756256
	C8394	C	0.582754	0.252210	0.753039
	C8395	C	0.549732	0.252793	0.857003
	C8396	C	0.614519	0.190298	0.779979
	C8397	C	0.614614	0.314490	0.779981
	C8398	C	0.618220	0.252289	0.766262
	C8399	C	0.575061	0.251933	0.761958
	C8400	C	0.550860	0.752473	0.847018
	C8401	C	0.552090	0.814569	0.842378
	C8402	C	0.552224	0.690301	0.842411
	C8403	C	0.550795	0.252812	0.846996
	C8404	C	0.552070	0.314997	0.842371
	C8405	C	0.552096	0.190772	0.842361
	C8406	C	0.572269	0.189855	0.766315
	C8407	C	0.616898	0.190172	0.770895
	C8408	C	0.617018	0.314458	0.770898
	C8409	C	0.572034	0.313932	0.766296
	C8410	C	0.613269	0.252483	0.784617
	C8411	C	0.569487	0.043312	0.874012
	C8412	C	0.609677	0.043030	0.739926
	C8413	C	0.600732	0.962289	0.738363
	C8414	C	0.569489	0.962195	0.874006
	C8415	C	0.609686	0.962056	0.739904
	N8416	N	0.542078	0.069916	0.802978
	N8417	N	0.542126	0.935362	0.802964
	N8418	N	0.542114	0.435245	0.802880
	N8419	N	0.542159	0.569780	0.802897
	N8420	N	0.564385	0.435270	0.872755
	N8421	N	0.564376	0.569765	0.872791
	N8422	N	0.564392	0.070085	0.872806
	N8423	N	0.564413	0.935550	0.872810
	O8424	O	0.643882	0.694652	0.919217
	O8425	O	0.643860	0.810913	0.919208
	O8426	O	0.521488	0.694269	0.945196
	O8427	O	0.521513	0.810633	0.945189
	O8428	O	0.521593	0.194631	0.945182
	O8429	O	0.521574	0.310836	0.945205
	O8430	O	0.520340	0.694525	0.926064
	O8431	O	0.520359	0.811175	0.926095
	O8432	O	0.520405	0.194697	0.926061
	O8433	O	0.520436	0.311411	0.926074
	O8434	O	0.644782	0.694349	0.938292
	O8435	O	0.644666	0.811159	0.938220
	O8436	O	0.644857	0.194585	0.938287
	O8437	O	0.644805	0.311289	0.938297
	O8438	O	0.643881	0.194948	0.919188
	O8439	O	0.643747	0.311091	0.919252
	O8440	O	0.584025	0.694266	0.882696
	O8441	O	0.550496	0.694422	0.883485
	O8442	O	0.614838	0.694637	0.980839
	O8443	O	0.614835	0.810958	0.980924
	O8444	O	0.581424	0.694461	0.981710
	O8445	O	0.581273	0.810484	0.981727
	O8446	O	0.550585	0.811093	0.883517
	O8447	O	0.583945	0.810490	0.882671
	O8448	O	0.583998	0.194365	0.882675
	O8449	O	0.550374	0.194764	0.883510
	O8450	O	0.614781	0.194293	0.980865
	O8451	O	0.614895	0.310821	0.980897
	O8452	O	0.581381	0.194481	0.981751
	O8453	O	0.581399	0.310682	0.981722
	O8454	O	0.550563	0.311406	0.883523
	O8455	O	0.583911	0.310760	0.882697
	H8456	H	0.540902	0.644481	0.956779
	H8457	H	0.540996	0.860221	0.956726
	H8458	H	0.540769	0.144002	0.956945
	H8459	H	0.540820	0.360948	0.956865
	H8460	H	0.532076	0.862526	0.912892
	H8461	H	0.531906	0.643404	0.912876
	H8462	H	0.532111	0.363107	0.912878
	H8463	H	0.532307	0.143632	0.912967
	H8464	H	0.654470	0.064109	0.929386
	H8465	H	0.658632	0.064233	0.932901
	H8466	H	0.658638	0.940678	0.932987
	H8467	H	0.654392	0.940890	0.929395
	H8468	H	0.659129	0.063936	0.924720
	H8469	H	0.659122	0.940792	0.924682
	H8470	H	0.495598	0.064177	0.933448
	H8471	H	0.495685	0.940278	0.933509
	H8472	H	0.495570	0.063967	0.936532
	H8473	H	0.495580	0.940731	0.936584
	H8474	H	0.502394	0.064312	0.939024
	H8475	H	0.502476	0.941154	0.939040
	H8476	H	0.497821	0.441229	0.941794
	H8477	H	0.508775	0.441053	0.941562
	H8478	H	0.488762	0.440963	0.934979
	H8479	H	0.669493	0.440486	0.929398
	H8480	H	0.665273	0.441245	0.932171
	H8481	H	0.660205	0.441078	0.931561
	H8482	H	0.508766	0.564424	0.941566
	H8483	H	0.497775	0.564564	0.941807
	H8484	H	0.660349	0.564318	0.931564
	H8485	H	0.665305	0.564460	0.932147
	H8486	H	0.669529	0.564376	0.929436
	H8487	H	0.488809	0.564729	0.934959
	H8488	H	0.633240	0.643551	0.951427
	H8489	H	0.633124	0.862468	0.951400
	H8490	H	0.633026	0.143353	0.951390
	H8491	H	0.633308	0.362521	0.951508
	H8492	H	0.541901	0.643119	0.897421
	H8493	H	0.603325	0.643751	0.894387
	H8494	H	0.603234	0.861095	0.894355
	H8495	H	0.542121	0.862530	0.897447
	H8496	H	0.624613	0.644059	0.907582
	H8497	H	0.624488	0.861167	0.907547
	H8498	H	0.623381	0.643519	0.966897
	H8499	H	0.623348	0.862590	0.966892
	H8500	H	0.566644	0.441038	0.871627
	H8501	H	0.602164	0.441088	0.994994
	H8502	H	0.567447	0.440840	0.873560
	H8503	H	0.565486	0.440924	0.874492
	H8504	H	0.605993	0.440667	0.989553
	H8505	H	0.607479	0.440572	0.992360
	H8506	H	0.602145	0.564612	0.994962
	H8507	H	0.566642	0.564663	0.871661
	H8508	H	0.607370	0.564628	0.992385
	H8509	H	0.605923	0.564327	0.989591
	H8510	H	0.565428	0.564278	0.874455
	H8511	H	0.567434	0.564301	0.873555
	H8512	H	0.623236	0.143104	0.966890
	H8513	H	0.623591	0.362212	0.967009
	H8514	H	0.556558	0.064093	0.873586
	H8515	H	0.560974	0.064304	0.876525
	H8516	H	0.559801	0.063848	0.869073
	H8517	H	0.562249	0.860281	0.969943
	H8518	H	0.562173	0.644372	0.969984
	H8519	H	0.562002	0.361136	0.970091
	H8520	H	0.561913	0.144163	0.970180
	H8521	H	0.542144	0.143649	0.897443
	H8522	H	0.603286	0.144292	0.894360
	H8523	H	0.603121	0.360983	0.894372
	H8524	H	0.541929	0.363097	0.897387
	H8525	H	0.624531	0.144636	0.907571
	H8526	H	0.624335	0.361369	0.907572
	H8527	H	0.595119	0.064395	0.991117
	H8528	H	0.596827	0.064241	0.993608
	H8529	H	0.603583	0.064002	0.994407
	H8530	H	0.560912	0.941076	0.876544
	H8531	H	0.556573	0.940579	0.873597
	H8532	H	0.559819	0.940759	0.869079
	H8533	H	0.595134	0.940806	0.991147
	H8534	H	0.596889	0.940611	0.993641
	H8535	H	0.603450	0.941095	0.994437
	Zn8536	Zn	0.502048	0.680156	0.935310
	Zn8537	Zn	0.502002	0.825331	0.935386
	Zn8538	Zn	0.501991	0.180046	0.935296
	Zn8539	Zn	0.501983	0.325370	0.935361
	Zn8540	Zn	0.600905	0.679936	0.991602
	Zn8541	Zn	0.600810	0.825159	0.991600
	Zn8542	Zn	0.600879	0.179965	0.991590
	Zn8543	Zn	0.600937	0.325156	0.991587
	C8544	C	0.638716	0.752731	0.916243
	C8545	C	0.526588	0.752428	0.948181
	C8546	C	0.539578	0.752418	0.956037
	C8547	C	0.545620	0.691361	0.959748
	C8548	C	0.545676	0.813439	0.959707
	C8549	C	0.526657	0.252702	0.948201
	C8550	C	0.539554	0.252500	0.956090
	C8551	C	0.545541	0.191165	0.959843
	C8552	C	0.545554	0.313872	0.959799
	C8553	C	0.523722	0.752919	0.922747
	C8554	C	0.531357	0.752957	0.913808
	C8555	C	0.534387	0.814918	0.909466
	C8556	C	0.534282	0.690927	0.909459
	C8557	C	0.523890	0.253072	0.922777
	C8558	C	0.531457	0.253311	0.913838
	C8559	C	0.534348	0.315378	0.909451
	C8560	C	0.534509	0.191323	0.909510
	C8561	C	0.658392	0.042871	0.930632
	C8562	C	0.658413	0.962038	0.930641
	C8563	C	0.497227	0.043072	0.935077
	C8564	C	0.497232	0.962069	0.935110
	C8565	C	0.504128	0.042930	0.937571
	C8566	C	0.504128	0.962115	0.937581
	C8567	C	0.502904	0.462465	0.940017
	C8568	C	0.667287	0.462014	0.928404
	C8569	C	0.662998	0.462216	0.931127
	C8570	C	0.502900	0.543254	0.940008
	C8571	C	0.663042	0.542943	0.931124
	C8572	C	0.667309	0.543047	0.928410
	C8573	C	0.641255	0.752841	0.941537
	C8574	C	0.641353	0.252924	0.941575
	C8575	C	0.633672	0.752960	0.950482
	C8576	C	0.630878	0.691036	0.954856
	C8577	C	0.630847	0.814952	0.954845
	C8578	C	0.633814	0.252920	0.950510
	C8579	C	0.630863	0.190937	0.954847
	C8580	C	0.631023	0.314836	0.954915
	C8581	C	0.638665	0.253037	0.916255
	C8582	C	0.589069	0.752417	0.885682
	C8583	C	0.548175	0.752733	0.887096
	C8584	C	0.576236	0.752383	0.978729
	C8585	C	0.619824	0.691139	0.904631
	C8586	C	0.619746	0.814009	0.904617
	C8587	C	0.602021	0.752420	0.893538
	C8588	C	0.542303	0.752761	0.896421
	C8589	C	0.539742	0.690828	0.900860
	C8590	C	0.608054	0.691041	0.897296
	C8591	C	0.607990	0.813935	0.897272
	C8592	C	0.539846	0.814842	0.900869
	C8593	C	0.625718	0.752645	0.908382
	C8594	C	0.617165	0.752931	0.977255
	C8595	C	0.625520	0.691179	0.963471
	C8596	C	0.625497	0.814948	0.963460
	C8597	C	0.622960	0.753075	0.967912
	C8598	C	0.599985	0.462208	0.993747
	C8599	C	0.565879	0.462172	0.873687
	C8600	C	0.605272	0.461957	0.991133
	C8601	C	0.599996	0.542990	0.993716
	C8602	C	0.605245	0.543091	0.991126
	C8603	C	0.565876	0.542852	0.873689
	C8604	C	0.617174	0.252573	0.977264
	C8605	C	0.625489	0.190789	0.963459
	C8606	C	0.625670	0.314727	0.963530
	C8607	C	0.622995	0.252660	0.967916
	C8608	C	0.560198	0.042909	0.874471
	C8609	C	0.589063	0.252551	0.885680
	C8610	C	0.548082	0.253157	0.887110
	C8611	C	0.576208	0.252612	0.978782
	C8612	C	0.619788	0.191622	0.904634
	C8613	C	0.619697	0.314187	0.904630
	C8614	C	0.601992	0.252531	0.893557
	C8615	C	0.542282	0.253304	0.896448
	C8616	C	0.563290	0.752327	0.970856
	C8617	C	0.557434	0.813414	0.967046
	C8618	C	0.557390	0.691211	0.967086
	C8619	C	0.563273	0.252654	0.970910
	C8620	C	0.557309	0.314014	0.967142
	C8621	C	0.557298	0.191212	0.967188
	C8622	C	0.539910	0.191262	0.900903
	C8623	C	0.608006	0.191320	0.897300
	C8624	C	0.607926	0.314018	0.897297
	C8625	C	0.539758	0.315463	0.900849
	C8626	C	0.625728	0.252982	0.908384
	C8627	C	0.597346	0.043143	0.992172
	C8628	C	0.563467	0.042875	0.869935
	C8629	C	0.560196	0.962076	0.874483
	C8630	C	0.597324	0.962111	0.992177
	C8631	C	0.563484	0.962332	0.869956
	N8632	N	0.501864	0.069903	0.935318
	N8633	N	0.501873	0.935355	0.935359
	N8634	N	0.501922	0.435353	0.935374
	N8635	N	0.501920	0.569865	0.935357
	N8636	N	0.601082	0.435214	0.991577
	N8637	N	0.601076	0.569754	0.991586
	N8638	N	0.601021	0.070000	0.991588
	N8639	N	0.600963	0.935426	0.991619
	O8640	O	0.700363	0.694974	0.056940
	O8641	O	0.700194	0.811822	0.057041
	O8642	O	0.641945	0.694788	0.073156
	O8643	O	0.641521	0.811529	0.073176
	O8644	O	0.641506	0.193863	0.073161
	O8645	O	0.641829	0.310668	0.073201
	O8646	O	0.644028	0.694539	0.052030
	O8647	O	0.643702	0.811403	0.051885
	O8648	O	0.643797	0.194316	0.051936
	O8649	O	0.644078	0.310904	0.052074
	O8650	O	0.700262	0.694534	0.079640
	O8651	O	0.700403	0.811095	0.079677
	O8652	O	0.700072	0.194992	0.079592
	O8653	O	0.700419	0.311297	0.079703
	O8654	O	0.700177	0.194539	0.057023
	O8655	O	0.700420	0.311391	0.056979
	O8656	O	0.704418	0.696074	0.010660
	O8657	O	0.671713	0.693425	0.008700
	O8658	O	0.670658	0.694569	0.122362
	O8659	O	0.670465	0.811298	0.122329
	O8660	O	0.638052	0.694199	0.119505
	O8661	O	0.637823	0.811045	0.119566
	O8662	O	0.671276	0.809965	0.008587
	O8663	O	0.703948	0.813057	0.010623
	O8664	O	0.703873	0.193198	0.010681
	O8665	O	0.671118	0.196068	0.008517
	O8666	O	0.670490	0.194403	0.122373
	O8667	O	0.670463	0.311127	0.122320
	O8668	O	0.637774	0.194702	0.119552
	O8669	O	0.637965	0.311563	0.119508
	O8670	O	0.671750	0.312739	0.008709
	O8671	O	0.704413	0.309907	0.010655
	H8672	H	0.642209	0.643140	0.088119
	H8673	H	0.641917	0.862905	0.088139
	H8674	H	0.642072	0.142305	0.088173
	H8675	H	0.642082	0.362292	0.088164
	H8676	H	0.653081	0.862706	0.038057
	H8677	H	0.653767	0.642278	0.038293
	H8678	H	0.654019	0.363054	0.038346
	H8679	H	0.653119	0.142846	0.038023
	H8680	H	0.718540	0.064797	0.067258
	H8681	H	0.714211	0.065087	0.066017
	H8682	H	0.714281	0.941321	0.066051
	H8683	H	0.718453	0.941478	0.067298
	H8684	H	0.719078	0.064470	0.070689
	H8685	H	0.719054	0.941339	0.070643
	H8686	H	0.619834	0.064165	0.054861
	H8687	H	0.619920	0.940566	0.054875
	H8688	H	0.612908	0.064444	0.059404
	H8689	H	0.612963	0.940560	0.059393
	H8690	H	0.618917	0.064829	0.067230
	H8691	H	0.618981	0.941318	0.067274
	H8692	H	0.622404	0.441053	0.068727
	H8693	H	0.634556	0.441064	0.068235
	H8694	H	0.612062	0.440343	0.061541
	H8695	H	0.707404	0.441303	0.067802
	H8696	H	0.713697	0.441168	0.065225
	H8697	H	0.719299	0.441251	0.066529
	H8698	H	0.634536	0.564499	0.068193
	H8699	H	0.622615	0.564486	0.068781
	H8700	H	0.719326	0.564940	0.066485
	H8701	H	0.713679	0.564739	0.065161
	H8702	H	0.707279	0.564595	0.067769
	H8703	H	0.612034	0.564538	0.061558
	H8704	H	0.691670	0.643110	0.093623
	H8705	H	0.691957	0.862312	0.093655
	H8706	H	0.691492	0.143241	0.093531
	H8707	H	0.691772	0.362266	0.093597
	H8708	H	0.662263	0.641739	0.022534
	H8709	H	0.704814	0.644616	0.025575
	H8710	H	0.704197	0.864505	0.025636
	H8711	H	0.661515	0.862156	0.022289
	H8712	H	0.701583	0.644134	0.042043
	H8713	H	0.700961	0.863841	0.042125
	H8714	H	0.681942	0.643279	0.109138
	H8715	H	0.682210	0.862525	0.109143
	H8716	H	0.684577	0.441288	-0.002751
	H8717	H	0.650874	0.441448	0.128513
	H8718	H	0.690671	0.441493	-0.003737
	H8719	H	0.694359	0.440742	-0.002015
	H8720	H	0.647594	0.441294	0.133293
	H8721	H	0.646276	0.441447	0.130877
	H8722	H	0.650935	0.564422	0.128502
	H8723	H	0.684568	0.564509	-0.002746
	H8724	H	0.646386	0.564306	0.130859
	H8725	H	0.647659	0.564868	0.133297
	H8726	H	0.694282	0.564535	-0.002007
	H8727	H	0.690594	0.564368	-0.003710
	H8728	H	0.681751	0.142988	0.109051
	H8729	H	0.682043	0.362238	0.109096
	H8730	H	0.671825	0.064662	0.005794
	H8731	H	0.688640	0.064959	0.010476
	H8732	H	0.669441	0.064638	-0.007560
	H8733	H	0.638805	0.862902	0.104621
	H8734	H	0.639082	0.642896	0.104602
	H8735	H	0.638883	0.362448	0.104649
	H8736	H	0.638902	0.142522	0.104650
	H8737	H	0.661367	0.143944	0.022228
	H8738	H	0.703982	0.141625	0.025655
	H8739	H	0.705190	0.361439	0.025605
	H8740	H	0.662342	0.363691	0.022544
	H8741	H	0.700763	0.142263	0.042116
	H8742	H	0.702016	0.362248	0.042067
	H8743	H	0.651494	0.064531	0.132735
	H8744	H	0.653311	0.064623	0.132469
	H8745	H	0.653909	0.065031	0.131191
	H8746	H	0.688608	0.941203	0.010493
	H8747	H	0.671766	0.941276	0.005753
	H8748	H	0.669494	0.941370	-0.007555
	H8749	H	0.651506	0.941093	0.132727
	H8750	H	0.653235	0.941451	0.132437
	H8751	H	0.653772	0.941283	0.131157
	Zn8752	Zn	0.626497	0.680525	0.061580
	Zn8753	Zn	0.626319	0.824961	0.061523
	Zn8754	Zn	0.626261	0.180590	0.061515
	Zn8755	Zn	0.626431	0.324980	0.061545
	Zn8756	Zn	0.652062	0.680572	0.131503
	Zn8757	Zn	0.651879	0.825697	0.131522
	Zn8758	Zn	0.651899	0.180440	0.131537
	Zn8759	Zn	0.651894	0.325624	0.131515
	C8760	C	0.700065	0.753608	0.053067
	C8761	C	0.642415	0.753131	0.077080
	C8762	C	0.642330	0.753088	0.087139
	C8763	C	0.641481	0.690833	0.091793
	C8764	C	0.641369	0.815214	0.091812
	C8765	C	0.642376	0.252177	0.077095
	C8766	C	0.642310	0.252215	0.087157
	C8767	C	0.641381	0.190110	0.091826
	C8768	C	0.641399	0.314521	0.091828
	C8769	C	0.646786	0.752855	0.048471
	C8770	C	0.653007	0.752600	0.039161
	C8771	C	0.655159	0.814807	0.034607
	C8772	C	0.655549	0.690068	0.034738
	C8773	C	0.646868	0.252702	0.048500
	C8774	C	0.653091	0.252997	0.039203
	C8775	C	0.655684	0.315375	0.034786
	C8776	C	0.655169	0.191055	0.034604
	C8777	C	0.715759	0.043572	0.067257
	C8778	C	0.715752	0.962714	0.067261
	C8779	C	0.618965	0.043274	0.058273
	C8780	C	0.618989	0.962230	0.058267
	C8781	C	0.625004	0.043191	0.066187
	C8782	C	0.625041	0.962543	0.066183
	C8783	C	0.627954	0.462309	0.066663
	C8784	C	0.709552	0.462546	0.069263
	C8785	C	0.715879	0.462657	0.066695
	C8786	C	0.627986	0.543102	0.066669
	C8787	C	0.715863	0.543637	0.066666
	C8788	C	0.709513	0.543332	0.069247
	C8789	C	0.697960	0.752756	0.083267
	C8790	C	0.697841	0.253046	0.083253
	C8791	C	0.692165	0.752663	0.092633
	C8792	C	0.689545	0.690788	0.097065
	C8793	C	0.689705	0.814655	0.097077
	C8794	C	0.692008	0.252710	0.092589
	C8795	C	0.689434	0.190775	0.097019
	C8796	C	0.689581	0.314604	0.097051
	C8797	C	0.700094	0.252879	0.053088
	C8798	C	0.704852	0.754673	0.014531
	C8799	C	0.668546	0.751675	0.012127
	C8800	C	0.637701	0.752745	0.115626
	C8801	C	0.702146	0.691917	0.038371
	C8802	C	0.701782	0.816382	0.038426
	C8803	C	0.704730	0.754617	0.024572
	C8804	C	0.662286	0.751972	0.021402
	C8805	C	0.660139	0.689818	0.025958
	C8806	C	0.703987	0.692284	0.029231
	C8807	C	0.703618	0.816631	0.029278
	C8808	C	0.659744	0.814359	0.025832
	C8809	C	0.700853	0.753932	0.043040
	C8810	C	0.674010	0.752957	0.119043
	C8811	C	0.684250	0.690844	0.105704
	C8812	C	0.684391	0.814835	0.105710
	C8813	C	0.681501	0.752880	0.110093
	C8814	C	0.652812	0.462510	0.129617
	C8815	C	0.691651	0.462470	-0.002346
	C8816	C	0.648219	0.462672	0.131937
	C8817	C	0.652858	0.543433	0.129616
	C8818	C	0.648268	0.543454	0.131919
	C8819	C	0.691600	0.543206	-0.002328
	C8820	C	0.673897	0.252677	0.119032
	C8821	C	0.684106	0.190647	0.105651
	C8822	C	0.684265	0.314538	0.105680
	C8823	C	0.681339	0.252551	0.110056
	C8824	C	0.682405	0.043408	0.005727
	C8825	C	0.704870	0.251545	0.014573
	C8826	C	0.668456	0.254345	0.012085
	C8827	C	0.637665	0.252983	0.115624
	C8828	C	0.701719	0.189976	0.038448
	C8829	C	0.702339	0.314280	0.038416
	C8830	C	0.704854	0.251567	0.024624
	C8831	C	0.662289	0.253876	0.021401
	C8832	C	0.638500	0.752899	0.105617
	C8833	C	0.639529	0.815130	0.100957
	C8834	C	0.639615	0.690771	0.100937
	C8835	C	0.638476	0.252503	0.105619
	C8836	C	0.639557	0.314713	0.100969
	C8837	C	0.639538	0.190211	0.100967
	C8838	C	0.659722	0.191536	0.025819
	C8839	C	0.703599	0.189569	0.029311
	C8840	C	0.704259	0.313869	0.029280
	C8841	C	0.660247	0.315775	0.025999
	C8842	C	0.700926	0.252349	0.043081
	C8843	C	0.652188	0.043143	0.132330
	C8844	C	0.680055	0.043317	-0.007695
	C8845	C	0.682350	0.962476	0.005719
	C8846	C	0.652186	0.962406	0.132294
	C8847	C	0.680025	0.962448	-0.007694
	N8848	N	0.626180	0.070104	0.061452
	N8849	N	0.626253	0.935442	0.061450
	N8850	N	0.626434	0.435489	0.061567
	N8851	N	0.626451	0.570106	0.061572
	N8852	N	0.651870	0.435785	0.131510
	N8853	N	0.651942	0.570321	0.131497
	N8854	N	0.651671	0.070294	0.131527
	N8855	N	0.651670	0.935740	0.131496
	O8856	O	0.730853	0.695559	0.178057
	O8857	O	0.730799	0.811691	0.178155
	O8858	O	0.609030	0.694508	0.203891
	O8859	O	0.609039	0.810530	0.203880
	O8860	O	0.608872	0.194771	0.203912
	O8861	O	0.608853	0.310776	0.203929
	O8862	O	0.608093	0.694344	0.184828
	O8863	O	0.608011	0.811012	0.184787
	O8864	O	0.607906	0.194698	0.184823
	O8865	O	0.608012	0.311552	0.184871
	O8866	O	0.732007	0.694968	0.197229
	O8867	O	0.732000	0.811603	0.197235
	O8868	O	0.732016	0.194665	0.197218
	O8869	O	0.731889	0.311344	0.197202
	O8870	O	0.730887	0.195335	0.178106
	O8871	O	0.730971	0.311596	0.178093
	O8872	O	0.671528	0.695260	0.141389
	O8873	O	0.637875	0.694325	0.142170
	O8874	O	0.701851	0.694915	0.239747
	O8875	O	0.701669	0.811394	0.239702
	O8876	O	0.668358	0.694437	0.240594
	O8877	O	0.668311	0.810831	0.240623
	O8878	O	0.637753	0.810547	0.142156
	O8879	O	0.671356	0.811678	0.141404
	O8880	O	0.671433	0.194752	0.141403
	O8881	O	0.637768	0.194969	0.142179
	O8882	O	0.701790	0.194275	0.239745
	O8883	O	0.701674	0.310660	0.239743
	O8884	O	0.668362	0.194603	0.240630
	O8885	O	0.668301	0.311037	0.240627
	O8886	O	0.637789	0.311461	0.142193
	O8887	O	0.671375	0.311034	0.141357
	H8888	H	0.628156	0.644644	0.215606
	H8889	H	0.628093	0.860204	0.215598
	H8890	H	0.628067	0.144586	0.215659
	H8891	H	0.628141	0.361017	0.215585
	H8892	H	0.619523	0.862023	0.171611
	H8893	H	0.619680	0.643208	0.171654
	H8894	H	0.619563	0.362805	0.171669
	H8895	H	0.619350	0.143530	0.171569
	H8896	H	0.753599	0.064575	0.190844
	H8897	H	0.756577	0.064684	0.188666
	H8898	H	0.756512	0.941395	0.188650
	H8899	H	0.753746	0.941265	0.190844
	H8900	H	0.746446	0.064646	0.190403
	H8901	H	0.746523	0.941482	0.190434
	H8902	H	0.590930	0.064639	0.194847
	H8903	H	0.591030	0.941231	0.194878
	H8904	H	0.591516	0.064201	0.193997
	H8905	H	0.591616	0.941306	0.193966
	H8906	H	0.589955	0.064061	0.192927
	H8907	H	0.589981	0.940501	0.192976
	H8908	H	0.596960	0.441332	0.191090
	H8909	H	0.589607	0.440896	0.188873
	H8910	H	0.597753	0.441369	0.197003
	H8911	H	0.752863	0.441888	0.187117
	H8912	H	0.752948	0.441374	0.188979
	H8913	H	0.750750	0.440934	0.189545
	H8914	H	0.589635	0.564607	0.188832
	H8915	H	0.597010	0.564588	0.191105
	H8916	H	0.750573	0.564634	0.189522
	H8917	H	0.752824	0.564997	0.188954
	H8918	H	0.752841	0.564750	0.187097
	H8919	H	0.597755	0.564561	0.196981
	H8920	H	0.720572	0.643894	0.210410
	H8921	H	0.720358	0.862552	0.210411
	H8922	H	0.720406	0.143087	0.210372
	H8923	H	0.719905	0.362432	0.210325
	H8924	H	0.629442	0.643006	0.156150
	H8925	H	0.690601	0.645468	0.153098
	H8926	H	0.690638	0.862297	0.153077
	H8927	H	0.629286	0.861897	0.156112
	H8928	H	0.711649	0.645600	0.166381
	H8929	H	0.711739	0.862354	0.166374
	H8930	H	0.710635	0.643505	0.225854
	H8931	H	0.710368	0.862293	0.225869
	H8932	H	0.655488	0.441071	0.129329
	H8933	H	0.693505	0.440671	0.252974
	H8934	H	0.657321	0.441040	0.132704
	H8935	H	0.653979	0.441292	0.134410
	H8936	H	0.688816	0.441257	0.246880
	H8937	H	0.693796	0.441177	0.248717
	H8938	H	0.693485	0.564473	0.252939
	H8939	H	0.655535	0.565007	0.129348
	H8940	H	0.693730	0.564568	0.248686
	H8941	H	0.688822	0.564517	0.246895
	H8942	H	0.654072	0.564736	0.134430
	H8943	H	0.657349	0.564741	0.132696
	H8944	H	0.710526	0.142795	0.225855
	H8945	H	0.710028	0.361979	0.225802
	H8946	H	0.650019	0.064370	0.130802
	H8947	H	0.649505	0.064442	0.131664
	H8948	H	0.652472	0.064950	0.130417
	H8949	H	0.649172	0.860374	0.228896
	H8950	H	0.649258	0.644701	0.228886
	H8951	H	0.649226	0.360783	0.228856
	H8952	H	0.649137	0.144687	0.228939
	H8953	H	0.629005	0.143773	0.156060
	H8954	H	0.690744	0.145399	0.153078
	H8955	H	0.690582	0.361253	0.153023
	H8956	H	0.629272	0.362878	0.156138
	H8957	H	0.711861	0.145506	0.166347
	H8958	H	0.711709	0.361869	0.166303
	H8959	H	0.688136	0.064352	0.246549
	H8960	H	0.682247	0.064406	0.247646
	H8961	H	0.681242	0.064335	0.252105
	H8962	H	0.649557	0.940914	0.131712
	H8963	H	0.649933	0.941255	0.130718
	H8964	H	0.652454	0.941469	0.130422
	H8965	H	0.687991	0.940892	0.246539
	H8966	H	0.682222	0.940762	0.247662
	H8967	H	0.681110	0.941214	0.252152
	Zn8968	Zn	0.589499	0.680346	0.194002
	Zn8969	Zn	0.589501	0.825323	0.193982
	Zn8970	Zn	0.589403	0.180348	0.194037
	Zn8971	Zn	0.589445	0.325479	0.194014
	Zn8972	Zn	0.687883	0.680260	0.250462
	Zn8973	Zn	0.687734	0.825210	0.250482
	Zn8974	Zn	0.687908	0.180254	0.250487
	Zn8975	Zn	0.687885	0.325144	0.250501
	C8976	C	0.725760	0.753780	0.175101
	C8977	C	0.614139	0.752493	0.206878
	C8978	C	0.627019	0.752513	0.214777
	C8979	C	0.632890	0.691439	0.218550
	C8980	C	0.632850	0.813498	0.218561
	C8981	C	0.614003	0.252807	0.206880
	C8982	C	0.626840	0.252818	0.214785
	C8983	C	0.632791	0.191553	0.218564
	C8984	C	0.632795	0.313975	0.218537
	C8985	C	0.611476	0.752650	0.181510
	C8986	C	0.618914	0.752673	0.172547
	C8987	C	0.621736	0.814469	0.168165
	C8988	C	0.621825	0.690738	0.168192
	C8989	C	0.611388	0.253136	0.181552
	C8990	C	0.618863	0.253189	0.172578
	C8991	C	0.621771	0.315217	0.168223
	C8992	C	0.621642	0.191244	0.168169
	C8993	C	0.753881	0.043404	0.189284
	C8994	C	0.753894	0.962496	0.189271
	C8995	C	0.590736	0.042985	0.194313
	C8996	C	0.590755	0.962416	0.194309
	C8997	C	0.589095	0.043177	0.193262
	C8998	C	0.589133	0.962146	0.193262
	C8999	C	0.592222	0.462178	0.191036
	C9000	C	0.751466	0.462809	0.187082
	C9001	C	0.751503	0.462390	0.188938
	C9002	C	0.592237	0.543269	0.191026
	C9003	C	0.751382	0.543506	0.188913
	C9004	C	0.751398	0.543418	0.187058
	C9005	C	0.728565	0.753314	0.200544
	C9006	C	0.728453	0.252944	0.200497
	C9007	C	0.720935	0.753312	0.209461
	C9008	C	0.718142	0.691320	0.213816
	C9009	C	0.717981	0.815086	0.213819
	C9010	C	0.720806	0.252702	0.209414
	C9011	C	0.718009	0.190645	0.213789
	C9012	C	0.717715	0.314614	0.213750
	C9013	C	0.725832	0.253507	0.175091
	C9014	C	0.676542	0.753580	0.144378
	C9015	C	0.635444	0.752437	0.145777
	C9016	C	0.663298	0.752624	0.237606
	C9017	C	0.706949	0.692589	0.163431
	C9018	C	0.706989	0.815301	0.163423
	C9019	C	0.689409	0.753845	0.152274
	C9020	C	0.629560	0.752433	0.155103
	C9021	C	0.627160	0.690642	0.159568
	C9022	C	0.695303	0.692538	0.156053
	C9023	C	0.695334	0.815211	0.156042
	C9024	C	0.627077	0.814353	0.159543
	C9025	C	0.712893	0.753926	0.167186
	C9026	C	0.704142	0.753130	0.236128
	C9027	C	0.712703	0.691169	0.222409
	C9028	C	0.712554	0.814908	0.222417
	C9029	C	0.710031	0.753016	0.226827
	C9030	C	0.690140	0.462248	0.252769
	C9031	C	0.654620	0.462499	0.133036
	C9032	C	0.690466	0.462309	0.248498
	C9033	C	0.690142	0.543334	0.252746
	C9034	C	0.690448	0.543090	0.248502
	C9035	C	0.654666	0.543370	0.133029
	C9036	C	0.704095	0.252464	0.236137
	C9037	C	0.712569	0.190492	0.222392
	C9038	C	0.712276	0.314515	0.222351
	C9039	C	0.709861	0.252463	0.226792
	C9040	C	0.650252	0.043277	0.131314
	C9041	C	0.676524	0.252995	0.144348
	C9042	C	0.635372	0.253208	0.145786
	C9043	C	0.663250	0.252781	0.237614
	C9044	C	0.707070	0.192414	0.163404
	C9045	C	0.706977	0.314764	0.163382
	C9046	C	0.689381	0.253264	0.152260
	C9047	C	0.629549	0.253311	0.155133
	C9048	C	0.650486	0.752612	0.229690
	C9049	C	0.644503	0.813558	0.225942
	C9050	C	0.644558	0.691523	0.225928
	C9051	C	0.650400	0.252763	0.229677
	C9052	C	0.644452	0.313980	0.225930
	C9053	C	0.644425	0.191533	0.225958
	C9054	C	0.626949	0.191273	0.159537
	C9055	C	0.695389	0.192318	0.156029
	C9056	C	0.695276	0.314486	0.156007
	C9057	C	0.627085	0.315315	0.159589
	C9058	C	0.712962	0.253620	0.167168
	C9059	C	0.685915	0.043355	0.248017
	C9060	C	0.652766	0.043696	0.131003
	C9061	C	0.650273	0.962486	0.131301
	C9062	C	0.685877	0.962165	0.248006
	C9063	C	0.652752	0.962680	0.130989
	N9064	N	0.589343	0.070244	0.194004
	N9065	N	0.589410	0.935667	0.194001
	N9066	N	0.589305	0.435449	0.194017
	N9067	N	0.589332	0.569984	0.193992
	N9068	N	0.687959	0.435404	0.250500
	N9069	N	0.687959	0.569987	0.250479
	N9070	N	0.687935	0.070178	0.250490
	N9071	N	0.687892	0.935575	0.250517
	O9072	O	0.695613	0.695066	0.308477
	O9073	O	0.695765	0.812016	0.308442
	O9074	O	0.639859	0.693517	0.324828
	O9075	O	0.639957	0.810427	0.324859
	O9076	O	0.640098	0.195056	0.324841
	O9077	O	0.639982	0.311891	0.324820
	O9078	O	0.639251	0.693551	0.302263
	O9079	O	0.639408	0.810073	0.302303
	O9080	O	0.639403	0.194567	0.302279
	O9081	O	0.639226	0.311149	0.302238
	O9082	O	0.696426	0.694832	0.331055
	O9083	O	0.696523	0.811224	0.331070
	O9084	O	0.696398	0.194649	0.331041
	O9085	O	0.696402	0.311150	0.331034
	O9086	O	0.695699	0.194714	0.308495
	O9087	O	0.695629	0.311534	0.308505
	O9088	O	0.702257	0.694604	0.262310
	O9089	O	0.669385	0.693963	0.259723
	O9090	O	0.666195	0.694106	0.373569
	O9091	O	0.666352	0.810821	0.373614
	O9092	O	0.633316	0.694660	0.371053
	O9093	O	0.633387	0.811503	0.371003
	O9094	O	0.669426	0.810655	0.259753
	O9095	O	0.702552	0.811553	0.262309
	O9096	O	0.702505	0.194275	0.262327
	O9097	O	0.669562	0.194542	0.259789
	O9098	O	0.666210	0.194992	0.373540
	O9099	O	0.666329	0.311736	0.373570
	O9100	O	0.633443	0.194776	0.370970
	O9101	O	0.633372	0.311668	0.370998
	O9102	O	0.669522	0.311339	0.259765
	O9103	O	0.702489	0.311342	0.262348
	H9104	H	0.638660	0.642150	0.339758
	H9105	H	0.639049	0.862056	0.339738
	H9106	H	0.638853	0.143682	0.339723
	H9107	H	0.638595	0.363113	0.339727
	H9108	H	0.647635	0.861502	0.288317
	H9109	H	0.647463	0.642333	0.288274
	H9110	H	0.648078	0.362235	0.288409
	H9111	H	0.647878	0.143540	0.288376
	H9112	H	0.709063	0.064938	0.321602
	H9113	H	0.711453	0.065175	0.321654
	H9114	H	0.711442	0.941095	0.321645
	H9115	H	0.709063	0.941562	0.321581
	H9116	H	0.707388	0.064955	0.320097
	H9117	H	0.707344	0.941570	0.320037
	H9118	H	0.624384	0.064792	0.312546
	H9119	H	0.624459	0.941359	0.312528
	H9120	H	0.624202	0.064552	0.313125
	H9121	H	0.624147	0.941358	0.313130
	H9122	H	0.625304	0.064352	0.313649
	H9123	H	0.625352	0.941247	0.313680
	H9124	H	0.631248	0.440757	0.312167
	H9125	H	0.627537	0.440808	0.310046
	H9126	H	0.629135	0.440986	0.315715
	H9127	H	0.712930	0.441104	0.319977
	H9128	H	0.711941	0.441415	0.321622
	H9129	H	0.709536	0.441445	0.321832
	H9130	H	0.627650	0.564465	0.310037
	H9131	H	0.631147	0.564713	0.312141
	H9132	H	0.709561	0.564575	0.321815
	H9133	H	0.711967	0.564793	0.321591
	H9134	H	0.712934	0.564990	0.320016
	H9135	H	0.629219	0.564743	0.315674
	H9136	H	0.687662	0.643140	0.344950
	H9137	H	0.687914	0.862276	0.344994
	H9138	H	0.687975	0.143453	0.345010
	H9139	H	0.687858	0.362531	0.344916
	H9140	H	0.657383	0.642563	0.272787
	H9141	H	0.700994	0.643252	0.277174
	H9142	H	0.701249	0.863033	0.277202
	H9143	H	0.657536	0.861603	0.272854
	H9144	H	0.696947	0.643161	0.293546
	H9145	H	0.697204	0.862990	0.293588
	H9146	H	0.677735	0.643235	0.360431
	H9147	H	0.678032	0.862174	0.360471
	H9148	H	0.688317	0.441125	0.254190
	H9149	H	0.651373	0.441462	0.381377
	H9150	H	0.681446	0.441310	0.251686
	H9151	H	0.681608	0.441283	0.248535
	H9152	H	0.643407	0.441335	0.381922
	H9153	H	0.646068	0.441400	0.380531
	H9154	H	0.651294	0.564452	0.381377
	H9155	H	0.688263	0.564508	0.254141
	H9156	H	0.646043	0.564647	0.380549
	H9157	H	0.643355	0.564579	0.381922
	H9158	H	0.681700	0.564645	0.248550
	H9159	H	0.681422	0.564599	0.251675
	H9160	H	0.677982	0.143633	0.360470
	H9161	H	0.677885	0.362789	0.360370
	H9162	H	0.694334	0.064672	0.252812
	H9163	H	0.695033	0.064412	0.249562
	H9164	H	0.686321	0.064616	0.254327
	H9165	H	0.634934	0.862514	0.356108
	H9166	H	0.634517	0.642640	0.356151
	H9167	H	0.634556	0.363074	0.356105
	H9168	H	0.634749	0.143589	0.356088
	H9169	H	0.657798	0.143664	0.272898
	H9170	H	0.701143	0.143099	0.277241
	H9171	H	0.701373	0.362663	0.277209
	H9172	H	0.658048	0.362277	0.272936
	H9173	H	0.696921	0.143131	0.293586
	H9174	H	0.697162	0.362896	0.293604
	H9175	H	0.644135	0.064962	0.380072
	H9176	H	0.641554	0.064273	0.382457
	H9177	H	0.645551	0.064212	0.385837
	H9178	H	0.695035	0.941673	0.249549
	H9179	H	0.694244	0.940785	0.252819
	H9180	H	0.686228	0.940724	0.254357
	H9181	H	0.644004	0.941213	0.380081
	H9182	H	0.641674	0.941090	0.382453
	H9183	H	0.645521	0.941226	0.385806
	Zn9184	Zn	0.625311	0.680059	0.313008
	Zn9185	Zn	0.625479	0.825237	0.313022
	Zn9186	Zn	0.625504	0.180396	0.313018
	Zn9187	Zn	0.625301	0.325493	0.313012
	Zn9188	Zn	0.647812	0.680100	0.382859
	Zn9189	Zn	0.647972	0.825166	0.382872
	Zn9190	Zn	0.647890	0.180123	0.382828
	Zn9191	Zn	0.647874	0.325302	0.382867
	C9192	C	0.695527	0.753447	0.304563
	C9193	C	0.640086	0.751927	0.328749
	C9194	C	0.639133	0.752099	0.338752
	C9195	C	0.637803	0.689975	0.343395
	C9196	C	0.638061	0.814353	0.343384
	C9197	C	0.640180	0.253511	0.328738
	C9198	C	0.639180	0.253500	0.338727
	C9199	C	0.637926	0.191378	0.343359
	C9200	C	0.637803	0.315444	0.343369
	C9201	C	0.641622	0.751832	0.298673
	C9202	C	0.647424	0.751943	0.289331
	C9203	C	0.649889	0.813962	0.284894
	C9204	C	0.649811	0.690003	0.284864
	C9205	C	0.641709	0.252883	0.298674
	C9206	C	0.647557	0.252961	0.289358
	C9207	C	0.650189	0.314858	0.284949
	C9208	C	0.650082	0.191023	0.284936
	C9209	C	0.710205	0.043690	0.321278
	C9210	C	0.710176	0.962656	0.321274
	C9211	C	0.624662	0.043449	0.312882
	C9212	C	0.624655	0.962582	0.312867
	C9213	C	0.625800	0.043040	0.313460
	C9214	C	0.625820	0.962217	0.313467
	C9215	C	0.628375	0.462305	0.311610
	C9216	C	0.711574	0.462744	0.319680
	C9217	C	0.710554	0.462897	0.321352
	C9218	C	0.628382	0.543391	0.311592
	C9219	C	0.710519	0.543524	0.321349
	C9220	C	0.711577	0.543872	0.319684
	C9221	C	0.694135	0.753014	0.334671
	C9222	C	0.694093	0.252917	0.334651
	C9223	C	0.688329	0.752791	0.344009
	C9224	C	0.685614	0.690760	0.348408
	C9225	C	0.685760	0.814712	0.348433
	C9226	C	0.688267	0.253003	0.343977
	C9227	C	0.685712	0.191090	0.348422
	C9228	C	0.685675	0.315016	0.348373
	C9229	C	0.695508	0.253100	0.304588
	C9230	C	0.702520	0.753110	0.266209
	C9231	C	0.665933	0.752260	0.263023
	C9232	C	0.633189	0.752968	0.367112
	C9233	C	0.697834	0.691013	0.289923
	C9234	C	0.697978	0.815318	0.289947
	C9235	C	0.701525	0.753216	0.276217
	C9236	C	0.658262	0.752136	0.271946
	C9237	C	0.655229	0.690081	0.276257
	C9238	C	0.700217	0.690959	0.280836
	C9239	C	0.700350	0.815382	0.280858
	C9240	C	0.655288	0.814085	0.276287
	C9241	C	0.696558	0.753169	0.294565
	C9242	C	0.669722	0.752500	0.370299
	C9243	C	0.680180	0.690723	0.357014
	C9244	C	0.680341	0.814696	0.357037
	C9245	C	0.677405	0.752729	0.361388
	C9246	C	0.650786	0.462446	0.382537
	C9247	C	0.683243	0.462556	0.250214
	C9248	C	0.645518	0.462428	0.381656
	C9249	C	0.650781	0.543211	0.382522
	C9250	C	0.645475	0.543263	0.381649
	C9251	C	0.683301	0.543260	0.250201
	C9252	C	0.669757	0.253347	0.370276
	C9253	C	0.680313	0.191158	0.357030
	C9254	C	0.680257	0.315197	0.356981
	C9255	C	0.677428	0.253231	0.361367
	C9256	C	0.692908	0.043116	0.251014
	C9257	C	0.702686	0.252762	0.266241
	C9258	C	0.666075	0.252973	0.263062
	C9259	C	0.633246	0.253290	0.367074
	C9260	C	0.697836	0.190872	0.289959
	C9261	C	0.697951	0.315180	0.289962
	C9262	C	0.701650	0.252844	0.276261
	C9263	C	0.658448	0.252980	0.271996
	C9264	C	0.634238	0.752604	0.357109
	C9265	C	0.635688	0.814638	0.352470
	C9266	C	0.635445	0.690244	0.352487
	C9267	C	0.634219	0.253289	0.357073
	C9268	C	0.635448	0.315398	0.352454
	C9269	C	0.635585	0.191255	0.352446
	C9270	C	0.655505	0.191029	0.276332
	C9271	C	0.700283	0.190804	0.280884
	C9272	C	0.700384	0.315063	0.280879
	C9273	C	0.655650	0.314892	0.276356
	C9274	C	0.696604	0.253054	0.294600
	C9275	C	0.644123	0.043281	0.381669
	C9276	C	0.684865	0.043198	0.252525
	C9277	C	0.692889	0.962468	0.251010
	C9278	C	0.644144	0.962252	0.381669
	C9279	C	0.684838	0.962421	0.252522
	N9280	N	0.625525	0.070049	0.313022
	N9281	N	0.625526	0.935436	0.313010
	N9282	N	0.625376	0.435599	0.313014
	N9283	N	0.625361	0.570125	0.312986
	N9284	N	0.647764	0.435615	0.382873
	N9285	N	0.647729	0.570179	0.382873
	N9286	N	0.647882	0.069785	0.382819
	N9287	N	0.647879	0.935192	0.382817
	O9288	O	0.731036	0.694590	0.427430
	O9289	O	0.730973	0.810648	0.427413
	O9290	O	0.605468	0.695038	0.455100
	O9291	O	0.605346	0.811407	0.455135
	O9292	O	0.605341	0.195012	0.455158
	O9293	O	0.605489	0.311133	0.455035
	O9294	O	0.604004	0.694966	0.436164
	O9295	O	0.603880	0.811524	0.436137
	O9296	O	0.604048	0.194039	0.436129
	O9297	O	0.604049	0.310758	0.436145
	O9298	O	0.737476	0.694745	0.447326
	O9299	O	0.737402	0.810590	0.447292
	O9300	O	0.737298	0.195010	0.447267
	O9301	O	0.737271	0.310893	0.447273
	O9302	O	0.730944	0.194970	0.427347
	O9303	O	0.730946	0.310888	0.427406
	O9304	O	0.667603	0.694477	0.392572
	O9305	O	0.634222	0.695000	0.393669
	O9306	O	0.702819	0.694426	0.488429
	O9307	O	0.702977	0.810350	0.488486
	O9308	O	0.668691	0.694432	0.489980
	O9309	O	0.668740	0.810707	0.489958
	O9310	O	0.634019	0.811608	0.393571
	O9311	O	0.667777	0.810658	0.392489
	O9312	O	0.667745	0.194769	0.392495
	O9313	O	0.634142	0.194076	0.393593
	O9314	O	0.703047	0.194359	0.488442
	O9315	O	0.702933	0.310296	0.488453
	O9316	O	0.668572	0.195341	0.490056
	O9317	O	0.668889	0.311333	0.489875
	O9318	O	0.634007	0.310657	0.393571
	O9319	O	0.667717	0.310805	0.392485
	H9320	H	0.625831	0.644657	0.466229
	H9321	H	0.625727	0.861124	0.466314
	H9322	H	0.625611	0.144891	0.466309
	H9323	H	0.625801	0.361469	0.466195
	H9324	H	0.615240	0.863069	0.422896
	H9325	H	0.615970	0.644290	0.423094
	H9326	H	0.615901	0.361869	0.423039
	H9327	H	0.615586	0.142848	0.422954
	H9328	H	0.754087	0.064364	0.431924
	H9329	H	0.746156	0.064515	0.432157
	H9330	H	0.746179	0.941025	0.432160
	H9331	H	0.754133	0.941089	0.431905
	H9332	H	0.760823	0.064190	0.436782
	H9333	H	0.760801	0.941172	0.436779
	H9334	H	0.582980	0.064251	0.445109
	H9335	H	0.582937	0.940776	0.445101
	H9336	H	0.583566	0.064229	0.446167
	H9337	H	0.583494	0.940930	0.446224
	H9338	H	0.586459	0.064520	0.446693
	H9339	H	0.586517	0.941072	0.446761
	H9340	H	0.586108	0.441237	0.446599
	H9341	H	0.587628	0.440766	0.446003
	H9342	H	0.583807	0.441200	0.445947
	H9343	H	0.748635	0.441531	0.438838
	H9344	H	0.746321	0.440998	0.435894
	H9345	H	0.748981	0.441222	0.434194
	H9346	H	0.587680	0.564134	0.446060
	H9347	H	0.586171	0.564287	0.446593
	H9348	H	0.748996	0.564473	0.434167
	H9349	H	0.746470	0.564787	0.435879
	H9350	H	0.748702	0.564541	0.438794
	H9351	H	0.583763	0.565012	0.445928
	H9352	H	0.726168	0.645032	0.460420
	H9353	H	0.726258	0.860073	0.460394
	H9354	H	0.726261	0.144942	0.460383
	H9355	H	0.726147	0.360528	0.460390
	H9356	H	0.625911	0.644344	0.407650
	H9357	H	0.688086	0.644246	0.403681
	H9358	H	0.688012	0.860833	0.403673
	H9359	H	0.625126	0.863130	0.407439
	H9360	H	0.710707	0.644188	0.416263
	H9361	H	0.710592	0.861041	0.416251
	H9362	H	0.714063	0.645188	0.475371
	H9363	H	0.714131	0.860113	0.475331
	H9364	H	0.652449	0.440891	0.383453
	H9365	H	0.688743	0.441106	0.496121
	H9366	H	0.648728	0.440071	0.385334
	H9367	H	0.644924	0.440907	0.384721
	H9368	H	0.684378	0.441382	0.500766
	H9369	H	0.683511	0.441013	0.498166
	H9370	H	0.688664	0.564185	0.496071
	H9371	H	0.652433	0.564698	0.383471
	H9372	H	0.683516	0.564548	0.498211
	H9373	H	0.684259	0.564313	0.500808
	H9374	H	0.644849	0.564054	0.384747
	H9375	H	0.648748	0.564221	0.385349
	H9376	H	0.714233	0.144657	0.475360
	H9377	H	0.714093	0.360335	0.475361
	H9378	H	0.654153	0.064715	0.382622
	H9379	H	0.651358	0.064360	0.380123
	H9380	H	0.650822	0.064952	0.385874
	H9381	H	0.648367	0.861221	0.478908
	H9382	H	0.648423	0.643989	0.478788
	H9383	H	0.648372	0.361485	0.478767
	H9384	H	0.648187	0.144882	0.478877
	H9385	H	0.625438	0.142837	0.407485
	H9386	H	0.688188	0.145006	0.403581
	H9387	H	0.687902	0.361146	0.403689
	H9388	H	0.625769	0.361830	0.407567
	H9389	H	0.710767	0.145100	0.416170
	H9390	H	0.710406	0.361249	0.416301
	H9391	H	0.692806	0.064021	0.500601
	H9392	H	0.693348	0.064190	0.498669
	H9393	H	0.689415	0.064113	0.496798
	H9394	H	0.651295	0.941645	0.380145
	H9395	H	0.654201	0.941394	0.382621
	H9396	H	0.650813	0.940646	0.385869
	H9397	H	0.692700	0.940802	0.500638
	H9398	H	0.693375	0.940803	0.498637
	H9399	H	0.689305	0.940967	0.496737
	Zn9400	Zn	0.585739	0.680128	0.445451
	Zn9401	Zn	0.585505	0.825191	0.445408
	Zn9402	Zn	0.585609	0.180266	0.445389
	Zn9403	Zn	0.585649	0.325245	0.445388
	Zn9404	Zn	0.689070	0.679885	0.499195
	Zn9405	Zn	0.688942	0.825376	0.499154
	Zn9406	Zn	0.689095	0.180037	0.499119
	Zn9407	Zn	0.689138	0.325641	0.499148
	C9408	C	0.725681	0.752562	0.424553
	C9409	C	0.610786	0.753226	0.457964
	C9410	C	0.624460	0.752962	0.465506
	C9411	C	0.630821	0.691550	0.469054
	C9412	C	0.630778	0.814198	0.469110
	C9413	C	0.610761	0.253125	0.457964
	C9414	C	0.624408	0.253216	0.465498
	C9415	C	0.630691	0.191900	0.469091
	C9416	C	0.630808	0.314513	0.469024
	C9417	C	0.607421	0.753279	0.432861
	C9418	C	0.615142	0.753600	0.423963
	C9419	C	0.617785	0.815575	0.419540
	C9420	C	0.618192	0.691774	0.419648
	C9421	C	0.607463	0.252424	0.432840
	C9422	C	0.615080	0.252405	0.423919
	C9423	C	0.618071	0.314360	0.419593
	C9424	C	0.617901	0.190425	0.419540
	C9425	C	0.750428	0.043218	0.433240
	C9426	C	0.750444	0.962151	0.433247
	C9427	C	0.583812	0.043029	0.445544
	C9428	C	0.583804	0.962215	0.445585
	C9429	C	0.586750	0.043305	0.446036
	C9430	C	0.586743	0.962336	0.446055
	C9431	C	0.586521	0.462385	0.446071
	C9432	C	0.750970	0.462608	0.438440
	C9433	C	0.748678	0.462318	0.435461
	C9434	C	0.586530	0.543125	0.446109
	C9435	C	0.748715	0.543296	0.435452
	C9436	C	0.750962	0.543159	0.438415
	C9437	C	0.734433	0.752652	0.450692
	C9438	C	0.734335	0.252951	0.450664
	C9439	C	0.726845	0.752478	0.459530
	C9440	C	0.723476	0.691614	0.463746
	C9441	C	0.723516	0.813490	0.463721
	C9442	C	0.726825	0.252750	0.459551
	C9443	C	0.723545	0.191544	0.463739
	C9444	C	0.723453	0.313807	0.463740
	C9445	C	0.725596	0.253011	0.424501
	C9446	C	0.673057	0.752551	0.395396
	C9447	C	0.631821	0.753445	0.397236
	C9448	C	0.663416	0.752533	0.487106
	C9449	C	0.705662	0.691290	0.413471
	C9450	C	0.705596	0.813836	0.413463
	C9451	C	0.686770	0.752515	0.402906
	C9452	C	0.626035	0.753694	0.406575
	C9453	C	0.623647	0.691842	0.411055
	C9454	C	0.693125	0.691218	0.406490
	C9455	C	0.693072	0.813863	0.406481
	C9456	C	0.623234	0.815608	0.410944
	C9457	C	0.711978	0.752561	0.417050
	C9458	C	0.705887	0.752417	0.485067
	C9459	C	0.716779	0.691648	0.472023
	C9460	C	0.716807	0.813480	0.471995
	C9461	C	0.713417	0.752525	0.476193
	C9462	C	0.690570	0.462301	0.497331
	C9463	C	0.647033	0.462159	0.384470
	C9464	C	0.685326	0.462363	0.499399
	C9465	C	0.690580	0.543143	0.497327
	C9466	C	0.685285	0.543189	0.499416
	C9467	C	0.647011	0.543181	0.384470
	C9468	C	0.706008	0.252371	0.485073
	C9469	C	0.716892	0.191401	0.472026
	C9470	C	0.716810	0.313627	0.472029
	C9471	C	0.713530	0.252436	0.476225
	C9472	C	0.651448	0.043155	0.381757
	C9473	C	0.673105	0.252826	0.395336
	C9474	C	0.631721	0.252356	0.397188
	C9475	C	0.663362	0.253311	0.487107
	C9476	C	0.705660	0.192006	0.413393
	C9477	C	0.705497	0.314268	0.413456
	C9478	C	0.686790	0.253031	0.402830
	C9479	C	0.625881	0.252403	0.406526
	C9480	C	0.649653	0.752599	0.479625
	C9481	C	0.643294	0.814146	0.476096
	C9482	C	0.643320	0.691225	0.476044
	C9483	C	0.649615	0.253210	0.479618
	C9484	C	0.643316	0.314391	0.476014
	C9485	C	0.643198	0.191962	0.476076
	C9486	C	0.623347	0.190408	0.410942
	C9487	C	0.693175	0.191961	0.406395
	C9488	C	0.693031	0.314194	0.406449
	C9489	C	0.623496	0.314301	0.410988
	C9490	C	0.711936	0.253131	0.416977
	C9491	C	0.692025	0.042862	0.499509
	C9492	C	0.648075	0.043163	0.385062
	C9493	C	0.651444	0.962714	0.381751
	C9494	C	0.692011	0.962122	0.499508
	C9495	C	0.648062	0.962128	0.385052
	N9496	N	0.585460	0.070091	0.445374
	N9497	N	0.585398	0.935471	0.445391
	N9498	N	0.585608	0.435520	0.445403
	N9499	N	0.585631	0.570060	0.445432
	N9500	N	0.689181	0.435567	0.499226
	N9501	N	0.689159	0.569994	0.499234
	N9502	N	0.689055	0.069995	0.499137
	N9503	N	0.688966	0.935442	0.499145
	O9504	O	0.772578	0.693957	0.543317
	O9505	O	0.772527	0.810316	0.543303
	O9506	O	0.646642	0.694341	0.570830
	O9507	O	0.646703	0.810399	0.570757
	O9508	O	0.646781	0.194758	0.570777
	O9509	O	0.646581	0.310765	0.570900
	O9510	O	0.640169	0.694817	0.550890
	O9511	O	0.640343	0.810751	0.550953
	O9512	O	0.640423	0.195438	0.550971
	O9513	O	0.640053	0.311249	0.550856
	O9514	O	0.774058	0.694228	0.562336
	O9515	O	0.773873	0.810920	0.562299
	O9516	O	0.773894	0.194683	0.562309
	O9517	O	0.773989	0.311619	0.562301
	O9518	O	0.772480	0.194489	0.543312
	O9519	O	0.772472	0.310664	0.543347
	O9520	O	0.709426	0.694292	0.508359
	O9521	O	0.675044	0.695164	0.509853
	O9522	O	0.743335	0.694264	0.604738
	O9523	O	0.743498	0.810761	0.604775
	O9524	O	0.709866	0.694361	0.605741
	O9525	O	0.709714	0.810839	0.605769
	O9526	O	0.675186	0.811019	0.509898
	O9527	O	0.709369	0.810261	0.508355
	O9528	O	0.709549	0.193924	0.508278
	O9529	O	0.675092	0.194961	0.509833
	O9530	O	0.743507	0.194641	0.604761
	O9531	O	0.743470	0.311289	0.604767
	O9532	O	0.709782	0.194793	0.605752
	O9533	O	0.709686	0.310893	0.605842
	O9534	O	0.675374	0.310941	0.509946
	O9535	O	0.709286	0.309840	0.508392
	H9536	H	0.666983	0.643723	0.581982
	H9537	H	0.667231	0.860961	0.581895
	H9538	H	0.666886	0.144769	0.582075
	H9539	H	0.667031	0.360709	0.581962
	H9540	H	0.651657	0.860341	0.537868
	H9541	H	0.651459	0.645490	0.537809
	H9542	H	0.651327	0.361061	0.537768
	H9543	H	0.651957	0.145831	0.537953
	H9544	H	0.784725	0.064107	0.553718
	H9545	H	0.788866	0.064004	0.556525
	H9546	H	0.788897	0.940799	0.556485
	H9547	H	0.784735	0.941117	0.553698
	H9548	H	0.787784	0.064716	0.549545
	H9549	H	0.787813	0.941457	0.549486
	H9550	H	0.624080	0.064445	0.559374
	H9551	H	0.624067	0.941170	0.559382
	H9552	H	0.621857	0.064575	0.560906
	H9553	H	0.621729	0.940735	0.560904
	H9554	H	0.623910	0.064105	0.563522
	H9555	H	0.623899	0.940899	0.563543
	H9556	H	0.622869	0.441176	0.558623
	H9557	H	0.619925	0.440991	0.560946
	H9558	H	0.630265	0.440838	0.559081
	H9559	H	0.800101	0.440910	0.551124
	H9560	H	0.799053	0.441129	0.556382
	H9561	H	0.792280	0.441336	0.557687
	H9562	H	0.619955	0.564287	0.560952
	H9563	H	0.622838	0.564127	0.558623
	H9564	H	0.792220	0.564151	0.557680
	H9565	H	0.798998	0.564353	0.556409
	H9566	H	0.800145	0.564159	0.551132
	H9567	H	0.630263	0.564308	0.559018
	H9568	H	0.762053	0.643011	0.575406
	H9569	H	0.762263	0.862239	0.575456
	H9570	H	0.762034	0.143949	0.575375
	H9571	H	0.762409	0.362856	0.575470
	H9572	H	0.663675	0.645644	0.522878
	H9573	H	0.729711	0.644151	0.519539
	H9574	H	0.729919	0.860348	0.519496
	H9575	H	0.663874	0.860486	0.522974
	H9576	H	0.752222	0.643922	0.532185
	H9577	H	0.752361	0.860352	0.532127
	H9578	H	0.751902	0.643020	0.590816
	H9579	H	0.752165	0.862152	0.590889
	H9580	H	0.693375	0.441299	0.497206
	H9581	H	0.730567	0.440851	0.611412
	H9582	H	0.694533	0.440624	0.500757
	H9583	H	0.690678	0.441496	0.502265
	H9584	H	0.722398	0.440514	0.616877
	H9585	H	0.722537	0.441240	0.613349
	H9586	H	0.730545	0.564351	0.611421
	H9587	H	0.693401	0.564562	0.497186
	H9588	H	0.722597	0.563883	0.613370
	H9589	H	0.722425	0.564244	0.616893
	H9590	H	0.690641	0.564292	0.502286
	H9591	H	0.694541	0.564459	0.500817
	H9592	H	0.751961	0.143830	0.590810
	H9593	H	0.752340	0.362781	0.590913
	H9594	H	0.684997	0.064626	0.500014
	H9595	H	0.687922	0.064813	0.501412
	H9596	H	0.685851	0.064205	0.497356
	H9597	H	0.689735	0.861015	0.594496
	H9598	H	0.689484	0.643797	0.594599
	H9599	H	0.689396	0.361147	0.594626
	H9600	H	0.689337	0.145079	0.594746
	H9601	H	0.664300	0.145656	0.523041
	H9602	H	0.729735	0.144404	0.519544
	H9603	H	0.729569	0.360023	0.519526
	H9604	H	0.663639	0.360931	0.522860
	H9605	H	0.752178	0.144732	0.532186
	H9606	H	0.752077	0.360307	0.532170
	H9607	H	0.734945	0.064424	0.620379
	H9608	H	0.739999	0.064437	0.616773
	H9609	H	0.734899	0.064549	0.610783
	H9610	H	0.687848	0.940992	0.501461
	H9611	H	0.684877	0.941273	0.500050
	H9612	H	0.685653	0.941255	0.497348
	H9613	H	0.734917	0.941167	0.620409
	H9614	H	0.739984	0.940709	0.616778
	H9615	H	0.734793	0.940751	0.610789
	Zn9616	Zn	0.626347	0.679828	0.561627
	Zn9617	Zn	0.626296	0.825389	0.561590
	Zn9618	Zn	0.626431	0.179880	0.561602
	Zn9619	Zn	0.626364	0.325489	0.561639
	Zn9620	Zn	0.729659	0.680139	0.615508
	Zn9621	Zn	0.729551	0.825101	0.615472
	Zn9622	Zn	0.729630	0.180266	0.615450
	Zn9623	Zn	0.729602	0.325214	0.615492
	C9624	C	0.767235	0.752065	0.540439
	C9625	C	0.652039	0.752422	0.573652
	C9626	C	0.665719	0.752429	0.581180
	C9627	C	0.672001	0.690991	0.584786
	C9628	C	0.672121	0.813843	0.584738
	C9629	C	0.651994	0.252689	0.573720
	C9630	C	0.665719	0.252666	0.581218
	C9631	C	0.671992	0.191656	0.584833
	C9632	C	0.672063	0.313888	0.584767
	C9633	C	0.643284	0.752791	0.547539
	C9634	C	0.650982	0.752843	0.538716
	C9635	C	0.654403	0.813858	0.534558
	C9636	C	0.654316	0.692001	0.534513
	C9637	C	0.643289	0.253425	0.547542
	C9638	C	0.650946	0.253483	0.538700
	C9639	C	0.654207	0.314427	0.534478
	C9640	C	0.654582	0.192449	0.534591
	C9641	C	0.788275	0.042919	0.554544
	C9642	C	0.788262	0.962323	0.554532
	C9643	C	0.623830	0.043167	0.560514
	C9644	C	0.623805	0.962109	0.560525
	C9645	C	0.625945	0.042969	0.563132
	C9646	C	0.625952	0.962197	0.563152
	C9647	C	0.622714	0.462226	0.560274
	C9648	C	0.795918	0.462274	0.550710
	C9649	C	0.794833	0.462375	0.556008
	C9650	C	0.622703	0.542814	0.560269
	C9651	C	0.794821	0.543064	0.556006
	C9652	C	0.795945	0.542984	0.550721
	C9653	C	0.770460	0.752531	0.565595
	C9654	C	0.770503	0.253229	0.565596
	C9655	C	0.762765	0.752561	0.574486
	C9656	C	0.759750	0.690631	0.578823
	C9657	C	0.759881	0.814580	0.578857
	C9658	C	0.762846	0.253428	0.574504
	C9659	C	0.759821	0.191415	0.578823
	C9660	C	0.760049	0.315400	0.578883
	C9661	C	0.767119	0.252630	0.540471
	C9662	C	0.714780	0.752309	0.511216
	C9663	C	0.672058	0.753025	0.513240
	C9664	C	0.704460	0.752538	0.602893
	C9665	C	0.747232	0.690814	0.529360
	C9666	C	0.747314	0.813319	0.529338
	C9667	C	0.728461	0.752202	0.518758
	C9668	C	0.664464	0.753015	0.522086
	C9669	C	0.661025	0.692097	0.526239
	C9670	C	0.734729	0.690957	0.522362
	C9671	C	0.734845	0.813358	0.522332
	C9672	C	0.661143	0.813894	0.526291
	C9673	C	0.753587	0.752039	0.532928
	C9674	C	0.745796	0.752502	0.601156
	C9675	C	0.754215	0.690588	0.587400
	C9676	C	0.754371	0.814559	0.587441
	C9677	C	0.751726	0.752527	0.591841
	C9678	C	0.732459	0.462065	0.613232
	C9679	C	0.691712	0.462327	0.500914
	C9680	C	0.724391	0.462168	0.615223
	C9681	C	0.732456	0.543103	0.613256
	C9682	C	0.724425	0.543009	0.615254
	C9683	C	0.691717	0.543224	0.500936
	C9684	C	0.745842	0.253032	0.601170
	C9685	C	0.754298	0.191379	0.587403
	C9686	C	0.754527	0.315251	0.587462
	C9687	C	0.751817	0.253288	0.591849
	C9688	C	0.687124	0.043432	0.500306
	C9689	C	0.714732	0.251949	0.511215
	C9690	C	0.672199	0.252965	0.513252
	C9691	C	0.704361	0.252938	0.602942
	C9692	C	0.747204	0.191456	0.529351
	C9693	C	0.747130	0.313499	0.529338
	C9694	C	0.728411	0.252178	0.518737
	C9695	C	0.664543	0.253217	0.522088
	C9696	C	0.690801	0.752437	0.595373
	C9697	C	0.684583	0.813876	0.591757
	C9698	C	0.684461	0.690936	0.591806
	C9699	C	0.690801	0.253054	0.595389
	C9700	C	0.684502	0.314144	0.591790
	C9701	C	0.684445	0.191878	0.591849
	C9702	C	0.661360	0.192245	0.526322
	C9703	C	0.734753	0.191291	0.522339
	C9704	C	0.734672	0.313279	0.522325
	C9705	C	0.660993	0.314350	0.526219
	C9706	C	0.753502	0.252617	0.532919
	C9707	C	0.735424	0.043053	0.617744
	C9708	C	0.688006	0.042928	0.497619
	C9709	C	0.687085	0.962410	0.500322
	C9710	C	0.735400	0.962188	0.617746
	C9711	C	0.687915	0.962271	0.497601
	N9712	N	0.626240	0.069938	0.561572
	N9713	N	0.626224	0.935431	0.561572
	N9714	N	0.626374	0.435332	0.561640
	N9715	N	0.626384	0.569786	0.561625
	N9716	N	0.729719	0.435248	0.615492
	N9717	N	0.729730	0.569814	0.615514
	N9718	N	0.729644	0.069872	0.615404
	N9719	N	0.729616	0.935257	0.615422
	O9720	O	0.737268	0.694640	0.673501
	O9721	O	0.737177	0.811384	0.673480
	O9722	O	0.681907	0.693692	0.689842
	O9723	O	0.682136	0.810495	0.689839
	O9724	O	0.681986	0.193957	0.689805
	O9725	O	0.681965	0.310635	0.689868
	O9726	O	0.681151	0.693829	0.667300
	O9727	O	0.681429	0.810163	0.667337
	O9728	O	0.681296	0.194199	0.667294
	O9729	O	0.681231	0.310881	0.667301
	O9730	O	0.737867	0.694559	0.696029
	O9731	O	0.737683	0.811039	0.695951
	O9732	O	0.737813	0.194743	0.696003
	O9733	O	0.737868	0.311132	0.695996
	O9734	O	0.737207	0.194358	0.673478
	O9735	O	0.737308	0.311269	0.673437
	O9736	O	0.744186	0.694646	0.627342
	O9737	O	0.711168	0.693985	0.624740
	O9738	O	0.708073	0.694491	0.738635
	O9739	O	0.708062	0.811169	0.738610
	O9740	O	0.675098	0.694512	0.735984
	O9741	O	0.675314	0.811304	0.735973
	O9742	O	0.711130	0.810809	0.624744
	O9743	O	0.743985	0.811572	0.627333
	O9744	O	0.744129	0.193578	0.627317
	O9745	O	0.711328	0.194096	0.624767
	O9746	O	0.707945	0.194363	0.738594
	O9747	O	0.708004	0.311047	0.738597
	O9748	O	0.675033	0.194051	0.735958
	O9749	O	0.675015	0.310909	0.736005
	O9750	O	0.711434	0.310975	0.624821
	O9751	O	0.744214	0.310384	0.627305
	H9752	H	0.680639	0.642530	0.704742
	H9753	H	0.680489	0.862070	0.704709
	H9754	H	0.680348	0.142556	0.704673
	H9755	H	0.680621	0.362328	0.704749
	H9756	H	0.689732	0.861323	0.653402
	H9757	H	0.690015	0.642282	0.653397
	H9758	H	0.690012	0.362160	0.653441
	H9759	H	0.689657	0.142965	0.653377
	H9760	H	0.748765	0.064571	0.686917
	H9761	H	0.752340	0.064765	0.687630
	H9762	H	0.752412	0.941190	0.687624
	H9763	H	0.748911	0.941449	0.686960
	H9764	H	0.747765	0.064857	0.684273
	H9765	H	0.747791	0.941304	0.684283
	H9766	H	0.673777	0.064127	0.676296
	H9767	H	0.673839	0.941000	0.676309
	H9768	H	0.668809	0.064170	0.674284
	H9769	H	0.668762	0.940713	0.674269
	H9770	H	0.661189	0.064367	0.675790
	H9771	H	0.661225	0.940668	0.675826
	H9772	H	0.671139	0.440676	0.681283
	H9773	H	0.674276	0.440639	0.678776
	H9774	H	0.662855	0.440769	0.680813
	H9775	H	0.756289	0.441011	0.689674
	H9776	H	0.745893	0.441252	0.688746
	H9777	H	0.742652	0.441289	0.684985
	H9778	H	0.674262	0.564092	0.678790
	H9779	H	0.671024	0.563994	0.681287
	H9780	H	0.742573	0.564875	0.684967
	H9781	H	0.745833	0.564769	0.688782
	H9782	H	0.756362	0.564554	0.689721
	H9783	H	0.662860	0.563643	0.680807
	H9784	H	0.729426	0.643121	0.709967
	H9785	H	0.729279	0.862166	0.709900
	H9786	H	0.729186	0.143227	0.709915
	H9787	H	0.729297	0.362434	0.709928
	H9788	H	0.699761	0.642513	0.637878
	H9789	H	0.743066	0.643248	0.642275
	H9790	H	0.742567	0.863006	0.642188
	H9791	H	0.699456	0.861797	0.637900
	H9792	H	0.738970	0.643357	0.658628
	H9793	H	0.738518	0.863106	0.658569
	H9794	H	0.719654	0.643212	0.725465
	H9795	H	0.719517	0.862312	0.725402
	H9796	H	0.736301	0.440731	0.613411
	H9797	H	0.688808	0.441541	0.748280
	H9798	H	0.736022	0.441080	0.618255
	H9799	H	0.730120	0.440818	0.619646
	H9800	H	0.690594	0.441082	0.747913
	H9801	H	0.690063	0.441367	0.748350
	H9802	H	0.688869	0.564206	0.748235
	H9803	H	0.736192	0.564686	0.613465
	H9804	H	0.690075	0.564132	0.748315
	H9805	H	0.690564	0.564862	0.747942
	H9806	H	0.730252	0.564199	0.619660
	H9807	H	0.736030	0.564296	0.618248
	H9808	H	0.719331	0.143394	0.725390
	H9809	H	0.719522	0.362258	0.725440
	H9810	H	0.719105	0.063999	0.614970
	H9811	H	0.722798	0.064097	0.619370
	H9812	H	0.726007	0.063888	0.610093
	H9813	H	0.676319	0.862337	0.721079
	H9814	H	0.676514	0.642589	0.721096
	H9815	H	0.676419	0.362386	0.721100
	H9816	H	0.676141	0.142571	0.721044
	H9817	H	0.699639	0.142883	0.637921
	H9818	H	0.742528	0.142324	0.642209
	H9819	H	0.743006	0.362149	0.642190
	H9820	H	0.700020	0.362101	0.637999
	H9821	H	0.738327	0.142758	0.658563
	H9822	H	0.738783	0.362370	0.658555
	H9823	H	0.690481	0.064165	0.747089
	H9824	H	0.689043	0.065158	0.746964
	H9825	H	0.687930	0.064470	0.747765
	H9826	H	0.722746	0.941083	0.619388
	H9827	H	0.719100	0.940638	0.614976
	H9828	H	0.726117	0.940654	0.610057
	H9829	H	0.690572	0.941172	0.747097
	H9830	H	0.689047	0.940872	0.746957
	H9831	H	0.687895	0.941099	0.747766
	Zn9832	Zn	0.667179	0.679844	0.678011
	Zn9833	Zn	0.667471	0.825095	0.677967
	Zn9834	Zn	0.667389	0.180005	0.678012
	Zn9835	Zn	0.667375	0.325064	0.678013
	Zn9836	Zn	0.689626	0.680032	0.747833
	Zn9837	Zn	0.689683	0.825234	0.747836
	Zn9838	Zn	0.689611	0.180218	0.747852
	Zn9839	Zn	0.689549	0.325266	0.747829
	C9840	C	0.737082	0.753000	0.669572
	C9841	C	0.682163	0.752131	0.693748
	C9842	C	0.681087	0.752376	0.703744
	C9843	C	0.679772	0.690299	0.708375
	C9844	C	0.679676	0.814447	0.708362
	C9845	C	0.682076	0.252203	0.693753
	C9846	C	0.680949	0.252450	0.703740
	C9847	C	0.679533	0.190293	0.708335
	C9848	C	0.679674	0.314590	0.708385
	C9849	C	0.683698	0.751906	0.663722
	C9850	C	0.689553	0.751828	0.654397
	C9851	C	0.691934	0.813802	0.649946
	C9852	C	0.692104	0.689892	0.649947
	C9853	C	0.683618	0.252606	0.663704
	C9854	C	0.689477	0.252574	0.654378
	C9855	C	0.692123	0.314630	0.649984
	C9856	C	0.691936	0.190509	0.649939
	C9857	C	0.750864	0.043315	0.686755
	C9858	C	0.750885	0.962467	0.686771
	C9859	C	0.670347	0.042896	0.676005
	C9860	C	0.670346	0.962255	0.676010
	C9861	C	0.662685	0.042801	0.677562
	C9862	C	0.662709	0.961985	0.677586
	C9863	C	0.671285	0.461999	0.679489
	C9864	C	0.756730	0.462507	0.687372
	C9865	C	0.746182	0.462499	0.686464
	C9866	C	0.671264	0.542899	0.679482
	C9867	C	0.746148	0.543376	0.686477
	C9868	C	0.756765	0.543249	0.687385
	C9869	C	0.735409	0.752841	0.699590
	C9870	C	0.735483	0.252903	0.699600
	C9871	C	0.729612	0.752771	0.708923
	C9872	C	0.727196	0.690842	0.713389
	C9873	C	0.727103	0.814630	0.713351
	C9874	C	0.729659	0.252860	0.708923
	C9875	C	0.727080	0.190912	0.713356
	C9876	C	0.727173	0.314822	0.713368
	C9877	C	0.737103	0.252727	0.669551
	C9878	C	0.744255	0.753142	0.631239
	C9879	C	0.707759	0.752376	0.628046
	C9880	C	0.675048	0.752865	0.732071
	C9881	C	0.739683	0.691067	0.654982
	C9882	C	0.739430	0.815278	0.654930
	C9883	C	0.743254	0.753194	0.641243
	C9884	C	0.700211	0.752219	0.636975
	C9885	C	0.697469	0.690033	0.641332
	C9886	C	0.742118	0.691042	0.645906
	C9887	C	0.741867	0.815322	0.645853
	C9888	C	0.697288	0.814128	0.641336
	C9889	C	0.738201	0.753183	0.659582
	C9890	C	0.711454	0.752784	0.735311
	C9891	C	0.721891	0.690820	0.722018
	C9892	C	0.721773	0.814667	0.721970
	C9893	C	0.718989	0.752790	0.726362
	C9894	C	0.688777	0.462462	0.747973
	C9895	C	0.732240	0.462263	0.618057
	C9896	C	0.690036	0.462194	0.748038
	C9897	C	0.688836	0.543393	0.747985
	C9898	C	0.690055	0.543080	0.748049
	C9899	C	0.732257	0.542823	0.618055
	C9900	C	0.711391	0.252671	0.735291
	C9901	C	0.721686	0.190807	0.721960
	C9902	C	0.721792	0.314789	0.721980
	C9903	C	0.718919	0.252798	0.726335
	C9904	C	0.723276	0.042853	0.616712
	C9905	C	0.744305	0.251999	0.631226
	C9906	C	0.707929	0.252486	0.628083
	C9907	C	0.674829	0.252572	0.732081
	C9908	C	0.739307	0.190418	0.654922
	C9909	C	0.739549	0.314623	0.654914
	C9910	C	0.743243	0.252226	0.641218
	C9911	C	0.700329	0.252483	0.637005
	C9912	C	0.676036	0.752565	0.722068
	C9913	C	0.677239	0.814631	0.717438
	C9914	C	0.677334	0.690331	0.717450
	C9915	C	0.675884	0.252594	0.722074
	C9916	C	0.677236	0.314661	0.717461
	C9917	C	0.677104	0.190419	0.717413
	C9918	C	0.697351	0.190422	0.641338
	C9919	C	0.741798	0.190214	0.645849
	C9920	C	0.742024	0.314474	0.645836
	C9921	C	0.697544	0.314486	0.641382
	C9922	C	0.738138	0.252584	0.659552
	C9923	C	0.689700	0.043248	0.747229
	C9924	C	0.730273	0.043036	0.611726
	C9925	C	0.723239	0.962020	0.616710
	C9926	C	0.689746	0.962306	0.747238
	C9927	C	0.730269	0.962120	0.611736
	N9928	N	0.667533	0.069869	0.678010
	N9929	N	0.667601	0.935293	0.678010
	N9930	N	0.667286	0.435168	0.678014
	N9931	N	0.667232	0.569722	0.678027
	N9932	N	0.689432	0.435393	0.747827
	N9933	N	0.689479	0.569933	0.747857
	N9934	N	0.689580	0.070187	0.747846
	N9935	N	0.689617	0.935662	0.747856
	O9936	O	0.769029	0.694440	0.794239
	O9937	O	0.768939	0.810738	0.794267
	O9938	O	0.646508	0.694454	0.820206
	O9939	O	0.646506	0.810580	0.820223
	O9940	O	0.646645	0.194940	0.820166
	O9941	O	0.646491	0.311010	0.820224
	O9942	O	0.645436	0.693792	0.801048
	O9943	O	0.645509	0.810680	0.801108
	O9944	O	0.645553	0.194640	0.801101
	O9945	O	0.645361	0.311336	0.801051
	O9946	O	0.769812	0.694773	0.813272
	O9947	O	0.769923	0.811604	0.813296
	O9948	O	0.769876	0.194426	0.813276
	O9949	O	0.769849	0.311088	0.813322
	O9950	O	0.768950	0.195106	0.794245
	O9951	O	0.768928	0.311199	0.794233
	O9952	O	0.709056	0.694555	0.757732
	O9953	O	0.675754	0.694474	0.758587
	O9954	O	0.739878	0.694469	0.855819
	O9955	O	0.739949	0.811056	0.855893
	O9956	O	0.706320	0.694394	0.856728
	O9957	O	0.706469	0.810659	0.856641
	O9958	O	0.675733	0.811068	0.758578
	O9959	O	0.709175	0.810667	0.757695
	O9960	O	0.709190	0.194988	0.757706
	O9961	O	0.675784	0.195010	0.758580
	O9962	O	0.739824	0.194250	0.855853
	O9963	O	0.739868	0.310851	0.855861
	O9964	O	0.706375	0.195062	0.856701
	O9965	O	0.706320	0.311285	0.856731
	O9966	O	0.675680	0.311498	0.758591
	O9967	O	0.709107	0.311166	0.757704
	H9968	H	0.665764	0.645065	0.831868
	H9969	H	0.665960	0.860145	0.831822
	H9970	H	0.665947	0.145070	0.831785
	H9971	H	0.665694	0.360910	0.831883
	H9972	H	0.657161	0.862173	0.787997
	H9973	H	0.656950	0.642961	0.787865
	H9974	H	0.657176	0.362530	0.787940
	H9975	H	0.657294	0.143917	0.787968
	H9976	H	0.790965	0.064992	0.802560
	H9977	H	0.787818	0.064567	0.802113
	H9978	H	0.787661	0.941195	0.802118
	H9979	H	0.790783	0.941053	0.802537
	H9980	H	0.792404	0.064191	0.804903
	H9981	H	0.792327	0.940722	0.804873
	H9982	H	0.630618	0.064374	0.806468
	H9983	H	0.630509	0.940856	0.806490
	H9984	H	0.623433	0.064664	0.806145
	H9985	H	0.623494	0.940888	0.806173
	H9986	H	0.618640	0.064485	0.810374
	H9987	H	0.618601	0.941288	0.810394
	H9988	H	0.618764	0.440551	0.807769
	H9989	H	0.618384	0.440878	0.811822
	H9990	H	0.628237	0.440784	0.805617
	H9991	H	0.790127	0.441466	0.805010
	H9992	H	0.787695	0.441385	0.805161
	H9993	H	0.786429	0.440828	0.804370
	H9994	H	0.618369	0.564581	0.811800
	H9995	H	0.618755	0.564408	0.807790
	H9996	H	0.786508	0.564742	0.804328
	H9997	H	0.787584	0.564944	0.805145
	H9998	H	0.790076	0.564111	0.805057
	H9999	H	0.628224	0.564393	0.805556
	H10000	H	0.758105	0.643984	0.826401
	H10001	H	0.758393	0.862894	0.826499
	H10002	H	0.757942	0.142951	0.826375
	H10003	H	0.758482	0.361880	0.826532
	H10004	H	0.666942	0.643350	0.772406
	H10005	H	0.728600	0.644567	0.769345
	H10006	H	0.728321	0.860685	0.769427
	H10007	H	0.667149	0.862553	0.772544
	H10008	H	0.749846	0.644655	0.782585
	H10009	H	0.749553	0.860494	0.782643
	H10010	H	0.748274	0.643698	0.841890
	H10011	H	0.748577	0.862629	0.841996
	H10012	H	0.688376	0.440780	0.747841
	H10013	H	0.727864	0.441107	0.867600
	H10014	H	0.688993	0.441293	0.747251
	H10015	H	0.689920	0.441272	0.747342
	H10016	H	0.726796	0.441039	0.865344
	H10017	H	0.728415	0.441510	0.866069
	H10018	H	0.727846	0.564719	0.867601
	H10019	H	0.688417	0.564790	0.747872
	H10020	H	0.728367	0.564521	0.866086
	H10021	H	0.726664	0.564666	0.865334
	H10022	H	0.690024	0.564517	0.747356
	H10023	H	0.689052	0.564582	0.747301
	H10024	H	0.748115	0.142925	0.841864
	H10025	H	0.748652	0.361733	0.842027
	H10026	H	0.690500	0.064531	0.748715
	H10027	H	0.691401	0.064213	0.748074
	H10028	H	0.688425	0.064142	0.748474
	H10029	H	0.687219	0.860281	0.845017
	H10030	H	0.687054	0.645092	0.845058
	H10031	H	0.686932	0.361064	0.845096
	H10032	H	0.687208	0.145145	0.844992
	H10033	H	0.667268	0.143976	0.772509
	H10034	H	0.728382	0.144819	0.769357
	H10035	H	0.728340	0.361569	0.769403
	H10036	H	0.667148	0.362553	0.772499
	H10037	H	0.749665	0.144756	0.782550
	H10038	H	0.749640	0.361243	0.782608
	H10039	H	0.724704	0.064534	0.869396
	H10040	H	0.729482	0.064508	0.869022
	H10041	H	0.731360	0.064789	0.865758
	H10042	H	0.691414	0.941108	0.748090
	H10043	H	0.690560	0.940587	0.748708
	H10044	H	0.688442	0.941085	0.748476
	H10045	H	0.724809	0.941023	0.869350
	H10046	H	0.729402	0.940584	0.869005
	H10047	H	0.731464	0.940635	0.865826
	Zn10048	Zn	0.627019	0.680113	0.810288
	Zn10049	Zn	0.627047	0.825327	0.810322
	Zn10050	Zn	0.627146	0.179921	0.810322
	Zn10051	Zn	0.626994	0.325289	0.810357
	Zn10052	Zn	0.725886	0.680300	0.866593
	Zn10053	Zn	0.725875	0.825622	0.866568
	Zn10054	Zn	0.725804	0.179937	0.866547
	Zn10055	Zn	0.725925	0.325510	0.866600
	C10056	C	0.763864	0.752549	0.791277
	C10057	C	0.651650	0.752463	0.823193
	C10058	C	0.664638	0.752471	0.831033
	C10059	C	0.670547	0.691667	0.834796
	C10060	C	0.670642	0.813428	0.834766
	C10061	C	0.651700	0.253008	0.823160
	C10062	C	0.664625	0.252973	0.831024
	C10063	C	0.670652	0.191893	0.834747
	C10064	C	0.670511	0.314115	0.834798
	C10065	C	0.648903	0.752281	0.797784
	C10066	C	0.656561	0.752475	0.788871
	C10067	C	0.659471	0.814674	0.784547
	C10068	C	0.659345	0.690573	0.784471
	C10069	C	0.648875	0.252995	0.797772
	C10070	C	0.656543	0.253178	0.788873
	C10071	C	0.659520	0.315056	0.784535
	C10072	C	0.659570	0.191381	0.784539
	C10073	C	0.789220	0.043383	0.802815
	C10074	C	0.789168	0.962392	0.802810
	C10075	C	0.626998	0.043316	0.807345
	C10076	C	0.626956	0.962269	0.807355
	C10077	C	0.622056	0.042983	0.811606
	C10078	C	0.622077	0.962278	0.811599
	C10079	C	0.620728	0.462128	0.809940
	C10080	C	0.790000	0.462485	0.804471
	C10081	C	0.787472	0.462242	0.804600
	C10082	C	0.620743	0.543184	0.809924
	C10083	C	0.787468	0.543447	0.804594
	C10084	C	0.789977	0.543091	0.804477
	C10085	C	0.766455	0.753220	0.816588
	C10086	C	0.766365	0.252674	0.816577
	C10087	C	0.758852	0.753447	0.825520
	C10088	C	0.755869	0.691437	0.829849
	C10089	C	0.756051	0.815314	0.829916
	C10090	C	0.758791	0.252483	0.825523
	C10091	C	0.755826	0.190429	0.829843
	C10092	C	0.756127	0.314294	0.829939
	C10093	C	0.763851	0.253104	0.791244
	C10094	C	0.714191	0.752577	0.760712
	C10095	C	0.673413	0.752794	0.762193
	C10096	C	0.701319	0.752514	0.853695
	C10097	C	0.744941	0.691398	0.779677
	C10098	C	0.744794	0.813664	0.779709
	C10099	C	0.727077	0.752575	0.768614
	C10100	C	0.667492	0.752889	0.771502
	C10101	C	0.664827	0.690869	0.775885
	C10102	C	0.733169	0.691487	0.772337
	C10103	C	0.733025	0.813673	0.772374
	C10104	C	0.664958	0.814808	0.775959
	C10105	C	0.750791	0.752483	0.783450
	C10106	C	0.742249	0.752859	0.852251
	C10107	C	0.750482	0.691288	0.838456
	C10108	C	0.750660	0.815216	0.838528
	C10109	C	0.748064	0.753148	0.842920
	C10110	C	0.726744	0.462463	0.867451
	C10111	C	0.689444	0.462476	0.747427
	C10112	C	0.727233	0.462535	0.865938
	C10113	C	0.726748	0.543312	0.867444
	C10114	C	0.727212	0.543246	0.865942
	C10115	C	0.689473	0.543222	0.747462
	C10116	C	0.742143	0.252522	0.852246
	C10117	C	0.750428	0.190395	0.838452
	C10118	C	0.750722	0.314246	0.838545
	C10119	C	0.748016	0.252318	0.842921
	C10120	C	0.690582	0.043201	0.748225
	C10121	C	0.714321	0.253156	0.760664
	C10122	C	0.673340	0.253177	0.762189
	C10123	C	0.701272	0.253171	0.853709
	C10124	C	0.744900	0.191770	0.779629
	C10125	C	0.744910	0.314280	0.779655
	C10126	C	0.727241	0.253206	0.768530
	C10127	C	0.667517	0.253163	0.771518
	C10128	C	0.688346	0.752587	0.845853
	C10129	C	0.682418	0.813468	0.842099
	C10130	C	0.682327	0.691736	0.842126
	C10131	C	0.688348	0.253119	0.845841
	C10132	C	0.682260	0.314128	0.842136
	C10133	C	0.682414	0.191978	0.842085
	C10134	C	0.665036	0.191348	0.775952
	C10135	C	0.733133	0.191867	0.772297
	C10136	C	0.733123	0.314473	0.772323
	C10137	C	0.664996	0.315065	0.775948
	C10138	C	0.750905	0.252962	0.783371
	C10139	C	0.726831	0.043178	0.868507
	C10140	C	0.688529	0.043085	0.748043
	C10141	C	0.690588	0.962084	0.748238
	C10142	C	0.726830	0.962319	0.868493
	C10143	C	0.688561	0.962656	0.748057
	N10144	N	0.627001	0.070037	0.810323
	N10145	N	0.626932	0.935511	0.810321
	N10146	N	0.626890	0.435266	0.810376
	N10147	N	0.626882	0.569808	0.810339
	N10148	N	0.726166	0.435548	0.866607
	N10149	N	0.726119	0.570112	0.866599
	N10150	N	0.725996	0.070037	0.866510
	N10151	N	0.726032	0.935589	0.866496
	O10152	O	0.735782	0.696016	0.924908
	O10153	O	0.736288	0.812807	0.924919
	O10154	O	0.677677	0.693682	0.941012
	O10155	O	0.677332	0.810448	0.941108
	O10156	O	0.677317	0.194851	0.941078
	O10157	O	0.677494	0.311668	0.941011
	O10158	O	0.677210	0.694687	0.918320
	O10159	O	0.677366	0.811316	0.918371
	O10160	O	0.677526	0.194382	0.918465
	O10161	O	0.677242	0.310898	0.918344
	O10162	O	0.733567	0.696501	0.946046
	O10163	O	0.733981	0.812994	0.946090
	O10164	O	0.734130	0.192916	0.946132
	O10165	O	0.733681	0.309449	0.946051
	O10166	O	0.736279	0.193262	0.924901
	O10167	O	0.735866	0.310030	0.924882
	O10168	O	0.739908	0.694651	0.878614
	O10169	O	0.707311	0.694306	0.875760
	O10170	O	0.706476	0.696069	0.989463
	O10171	O	0.706138	0.812711	0.989437
	O10172	O	0.673905	0.692374	0.987337
	O10173	O	0.673283	0.808985	0.987408
	O10174	O	0.707283	0.811123	0.875723
	O10175	O	0.739961	0.811575	0.878553
	O10176	O	0.740040	0.193870	0.878515
	O10177	O	0.707202	0.194174	0.875727
	O10178	O	0.706129	0.192777	0.989382
	O10179	O	0.706483	0.309461	0.989439
	O10180	O	0.673280	0.196064	0.987417
	O10181	O	0.673719	0.312738	0.987380
	O10182	O	0.707205	0.310856	0.875722
	O10183	O	0.739884	0.310859	0.878608
	H10184	H	0.676555	0.641956	0.955856
	H10185	H	0.676052	0.861335	0.955968
	H10186	H	0.676211	0.143672	0.956053
	H10187	H	0.676655	0.363685	0.955904
	H10188	H	0.686282	0.862471	0.904522
	H10189	H	0.685544	0.643314	0.904383
	H10190	H	0.685376	0.362022	0.904350
	H10191	H	0.686352	0.142868	0.904537
	H10192	H	0.754677	0.064943	0.938261
	H10193	H	0.755918	0.064682	0.936580
	H10194	H	0.756028	0.941576	0.936571
	H10195	H	0.754720	0.941493	0.938267
	H10196	H	0.749840	0.064797	0.938477
	H10197	H	0.749835	0.940886	0.938495
	H10198	H	0.669106	0.064229	0.933044
	H10199	H	0.669103	0.940787	0.933044
	H10200	H	0.672473	0.064555	0.929581
	H10201	H	0.672587	0.940879	0.929567
	H10202	H	0.666739	0.064239	0.924746
	H10203	H	0.666800	0.940584	0.924704
	H10204	H	0.660745	0.440919	0.926110
	H10205	H	0.657660	0.440874	0.928123
	H10206	H	0.667582	0.440522	0.926922
	H10207	H	0.762202	0.441424	0.935975
	H10208	H	0.756459	0.440504	0.941911
	H10209	H	0.747009	0.441080	0.941909
	H10210	H	0.657726	0.564150	0.928124
	H10211	H	0.660810	0.564237	0.926104
	H10212	H	0.746988	0.564762	0.941929
	H10213	H	0.756559	0.564664	0.941906
	H10214	H	0.762148	0.564521	0.936000
	H10215	H	0.667659	0.564167	0.926934
	H10216	H	0.724311	0.645237	0.959843
	H10217	H	0.724297	0.864816	0.959913
	H10218	H	0.724501	0.140696	0.959909
	H10219	H	0.724068	0.360913	0.959836
	H10220	H	0.695423	0.643032	0.888912
	H10221	H	0.738446	0.643690	0.893507
	H10222	H	0.739401	0.863778	0.893476
	H10223	H	0.696144	0.862325	0.889019
	H10224	H	0.735160	0.644280	0.909959
	H10225	H	0.736148	0.864246	0.909941
	H10226	H	0.715892	0.644785	0.975610
	H10227	H	0.715897	0.864724	0.975693
	H10228	H	0.725933	0.441377	0.867939
	H10229	H	0.683835	0.440905	0.999678
	H10230	H	0.723684	0.440882	0.866873
	H10231	H	0.723992	0.440755	0.865763
	H10232	H	0.693309	0.440804	1.001295
	H10233	H	0.688841	0.441223	1.002022
	H10234	H	0.683788	0.564739	0.999713
	H10235	H	0.725976	0.564682	0.867857
	H10236	H	0.688808	0.564861	1.002045
	H10237	H	0.693238	0.564533	1.001325
	H10238	H	0.723997	0.564723	0.865746
	H10239	H	0.723621	0.564082	0.866877
	H10240	H	0.716078	0.140743	0.975701
	H10241	H	0.715694	0.360816	0.975601
	H10242	H	0.721754	0.064212	0.864329
	H10243	H	0.720340	0.064931	0.866687
	H10244	H	0.728121	0.063887	0.863795
	H10245	H	0.672966	0.860960	0.972442
	H10246	H	0.673485	0.641119	0.972315
	H10247	H	0.673436	0.364366	0.972374
	H10248	H	0.672957	0.144358	0.972514
	H10249	H	0.696045	0.142902	0.889033
	H10250	H	0.739221	0.141710	0.893428
	H10251	H	0.738444	0.361697	0.893469
	H10252	H	0.695100	0.362106	0.888826
	H10253	H	0.736147	0.141195	0.909924
	H10254	H	0.735299	0.361447	0.909940
	H10255	H	0.709223	0.064556	1.003598
	H10256	H	0.707529	0.064348	0.993858
	H10257	H	0.684636	0.064576	0.987426
	H10258	H	0.720390	0.941480	0.866694
	H10259	H	0.721787	0.941601	0.864300
	H10260	H	0.728205	0.941227	0.863812
	H10261	H	0.709148	0.940979	1.003651
	H10262	H	0.707481	0.941031	0.993869
	H10263	H	0.684545	0.941349	0.987424
	Zn10264	Zn	0.663376	0.679984	0.929052
	Zn10265	Zn	0.663379	0.825162	0.929093
	Zn10266	Zn	0.663330	0.179968	0.929073
	Zn10267	Zn	0.663312	0.325225	0.929062
	Zn10268	Zn	0.689174	0.680735	0.999104
	Zn10269	Zn	0.688523	0.825503	0.998951
	Zn10270	Zn	0.688582	0.180331	0.998964
	Zn10271	Zn	0.689218	0.325042	0.999027
	C10272	C	0.735357	0.754423	0.921003
	C10273	C	0.677687	0.751831	0.944967
	C10274	C	0.676819	0.751660	0.954956
	C10275	C	0.675851	0.689383	0.959553
	C10276	C	0.675590	0.813554	0.959633
	C10277	C	0.677640	0.253405	0.944952
	C10278	C	0.676818	0.253614	0.954970
	C10279	C	0.675611	0.191633	0.959686
	C10280	C	0.675856	0.316044	0.959589
	C10281	C	0.679661	0.753025	0.914749
	C10282	C	0.685581	0.752906	0.905426
	C10283	C	0.688337	0.814866	0.901046
	C10284	C	0.687913	0.690839	0.900961
	C10285	C	0.679712	0.252509	0.914791
	C10286	C	0.685567	0.252454	0.905452
	C10287	C	0.687793	0.314385	0.900943
	C10288	C	0.688325	0.190503	0.901063
	C10289	C	0.754392	0.043458	0.937190
	C10290	C	0.754402	0.962772	0.937199
	C10291	C	0.668907	0.042993	0.930709
	C10292	C	0.668979	0.962212	0.930720
	C10293	C	0.663101	0.043061	0.925868
	C10294	C	0.663141	0.962152	0.925853
	C10295	C	0.660384	0.462199	0.927627
	C10296	C	0.757261	0.462520	0.934528
	C10297	C	0.751545	0.462213	0.940504
	C10298	C	0.660439	0.542913	0.927619
	C10299	C	0.751573	0.543400	0.940500
	C10300	C	0.757285	0.543220	0.934529
	C10301	C	0.730887	0.754958	0.949565
	C10302	C	0.730964	0.251079	0.949587
	C10303	C	0.724694	0.755158	0.958868
	C10304	C	0.722395	0.692927	0.963361
	C10305	C	0.722420	0.817062	0.963407
	C10306	C	0.724755	0.250841	0.958857
	C10307	C	0.722527	0.188670	0.963393
	C10308	C	0.722278	0.312970	0.963343
	C10309	C	0.735425	0.251556	0.920978
	C10310	C	0.740181	0.753276	0.882487
	C10311	C	0.703904	0.752718	0.879047
	C10312	C	0.672898	0.750760	0.983458
	C10313	C	0.736057	0.691993	0.906282
	C10314	C	0.736602	0.816422	0.906273
	C10315	C	0.739411	0.753699	0.892495
	C10316	C	0.696399	0.752741	0.888023
	C10317	C	0.693325	0.690758	0.892355
	C10318	C	0.737993	0.691633	0.897152
	C10319	C	0.738537	0.816099	0.897138
	C10320	C	0.693736	0.814757	0.892435
	C10321	C	0.735416	0.754347	0.910944
	C10322	C	0.709237	0.754515	0.985960
	C10323	C	0.717828	0.692735	0.972145
	C10324	C	0.717820	0.816986	0.972187
	C10325	C	0.715535	0.754839	0.976682
	C10326	C	0.685544	0.462370	0.998640
	C10327	C	0.724473	0.462260	0.866381
	C10328	C	0.690568	0.462446	1.000999
	C10329	C	0.685511	0.543311	0.998649
	C10330	C	0.690567	0.543417	1.001010
	C10331	C	0.724486	0.543230	0.866400
	C10332	C	0.709238	0.251059	0.985925
	C10333	C	0.717946	0.188603	0.972170
	C10334	C	0.717722	0.313019	0.972123
	C10335	C	0.715548	0.250868	0.976643
	C10336	C	0.722378	0.043203	0.865778
	C10337	C	0.740162	0.252160	0.882453
	C10338	C	0.703776	0.252477	0.879031
	C10339	C	0.672841	0.254398	0.983488
	C10340	C	0.736595	0.189120	0.906255
	C10341	C	0.736136	0.313659	0.906274
	C10342	C	0.739374	0.251742	0.892473
	C10343	C	0.696276	0.252411	0.888009
	C10344	C	0.672924	0.751056	0.973411
	C10345	C	0.673692	0.813272	0.968762
	C10346	C	0.673956	0.689080	0.968684
	C10347	C	0.672902	0.254354	0.973435
	C10348	C	0.673961	0.316399	0.968727
	C10349	C	0.673695	0.191936	0.968822
	C10350	C	0.693647	0.190471	0.892438
	C10351	C	0.738460	0.189373	0.897112
	C10352	C	0.738026	0.313795	0.897140
	C10353	C	0.693127	0.314418	0.892313
	C10354	C	0.735465	0.251336	0.910925
	C10355	C	0.703130	0.043298	0.998784
	C10356	C	0.728790	0.043179	0.865262
	C10357	C	0.722399	0.962537	0.865785
	C10358	C	0.703119	0.962427	0.998799
	C10359	C	0.728819	0.962238	0.865271
	N10360	N	0.663482	0.069919	0.929069
	N10361	N	0.663554	0.935350	0.929090
	N10362	N	0.663537	0.435331	0.929055
	N10363	N	0.663631	0.569855	0.929054
	N10364	N	0.689273	0.435554	0.999083
	N10365	N	0.689226	0.570200	0.999094
	N10366	N	0.688526	0.070188	0.998931
	N10367	N	0.688460	0.935682	0.998934
	O10368	O	0.855842	0.694330	0.053042
	O10369	O	0.855806	0.810632	0.053064
	O10370	O	0.733747	0.694470	0.078856
	O10371	O	0.733863	0.810782	0.078879
	O10372	O	0.733903	0.194698	0.078824
	O10373	O	0.733821	0.310931	0.078932
	O10374	O	0.732988	0.694569	0.059782
	O10375	O	0.732891	0.811387	0.059767
	O10376	O	0.732925	0.194137	0.059761
	O10377	O	0.732964	0.311083	0.059804
	O10378	O	0.856806	0.694533	0.072107
	O10379	O	0.856915	0.811321	0.072167
	O10380	O	0.856875	0.194545	0.072225
	O10381	O	0.856887	0.311176	0.072171
	O10382	O	0.855754	0.193794	0.053086
	O10383	O	0.855860	0.309941	0.053008
	O10384	O	0.796395	0.695303	0.016324
	O10385	O	0.762792	0.694911	0.017132
	O10386	O	0.826869	0.694864	0.114740
	O10387	O	0.826856	0.811303	0.114725
	O10388	O	0.793250	0.694710	0.115557
	O10389	O	0.793266	0.811036	0.115547
	O10390	O	0.762677	0.811373	0.017121
	O10391	O	0.796376	0.811453	0.016342
	O10392	O	0.796409	0.194639	0.016329
	O10393	O	0.762743	0.195348	0.017125
	O10394	O	0.826880	0.195141	0.114732
	O10395	O	0.826821	0.311596	0.114719
	O10396	O	0.793416	0.194957	0.115562
	O10397	O	0.793408	0.311207	0.115501
	O10398	O	0.762774	0.311842	0.017152
	O10399	O	0.796502	0.310854	0.016359
	H10400	H	0.753108	0.644218	0.090500
	H10401	H	0.753002	0.860545	0.090554
	H10402	H	0.752974	0.144211	0.090597
	H10403	H	0.753074	0.361110	0.090574
	H10404	H	0.744402	0.862826	0.046568
	H10405	H	0.744620	0.643488	0.046559
	H10406	H	0.744171	0.362420	0.046560
	H10407	H	0.744626	0.143294	0.046581
	H10408	H	0.874004	0.064864	0.066988
	H10409	H	0.880461	0.064614	0.066369
	H10410	H	0.880415	0.941279	0.066327
	H10411	H	0.873991	0.941054	0.066983
	H10412	H	0.867527	0.064582	0.063440
	H10413	H	0.867585	0.941539	0.063420
	H10414	H	0.708863	0.065054	0.067763
	H10415	H	0.708921	0.941297	0.067787
	H10416	H	0.709298	0.064947	0.070266
	H10417	H	0.709315	0.941587	0.070275
	H10418	H	0.715248	0.065132	0.071995
	H10419	H	0.715245	0.941490	0.071952
	H10420	H	0.716260	0.441276	0.072747
	H10421	H	0.720820	0.441639	0.070847
	H10422	H	0.708461	0.441066	0.070934
	H10423	H	0.878980	0.441272	0.060244
	H10424	H	0.881548	0.441244	0.064014
	H10425	H	0.878079	0.441115	0.066041
	H10426	H	0.720906	0.564806	0.070832
	H10427	H	0.716253	0.564806	0.072710
	H10428	H	0.878120	0.564673	0.066051
	H10429	H	0.881495	0.564836	0.064039
	H10430	H	0.879016	0.564761	0.060280
	H10431	H	0.708409	0.564581	0.070925
	H10432	H	0.845241	0.643406	0.085306
	H10433	H	0.845508	0.862229	0.085326
	H10434	H	0.845233	0.143819	0.085377
	H10435	H	0.845069	0.362547	0.085272
	H10436	H	0.754359	0.643453	0.031060
	H10437	H	0.815561	0.644618	0.028026
	H10438	H	0.815592	0.861352	0.028118
	H10439	H	0.754125	0.862958	0.031039
	H10440	H	0.836622	0.644197	0.041316
	H10441	H	0.836641	0.861171	0.041381
	H10442	H	0.835449	0.643322	0.100795
	H10443	H	0.835711	0.862342	0.100822
	H10444	H	0.774301	0.440827	0.005735
	H10445	H	0.805464	0.441335	0.122162
	H10446	H	0.777141	0.441199	0.005021
	H10447	H	0.779107	0.441574	0.005777
	H10448	H	0.811667	0.441371	0.130198
	H10449	H	0.805080	0.441144	0.127745
	H10450	H	0.805493	0.564361	0.122181
	H10451	H	0.774251	0.564886	0.005741
	H10452	H	0.805071	0.564740	0.127739
	H10453	H	0.811599	0.564629	0.130231
	H10454	H	0.779085	0.564607	0.005740
	H10455	H	0.777092	0.564441	0.005010
	H10456	H	0.835352	0.144001	0.100849
	H10457	H	0.835142	0.362795	0.100761
	H10458	H	0.777370	0.064878	0.005347
	H10459	H	0.775400	0.064739	0.005365
	H10460	H	0.778867	0.064581	0.006486
	H10461	H	0.774109	0.860853	0.103814
	H10462	H	0.774174	0.644348	0.103786
	H10463	H	0.774226	0.360932	0.103830
	H10464	H	0.774132	0.144380	0.103859
	H10465	H	0.754398	0.143854	0.031063
	H10466	H	0.815678	0.143949	0.027980
	H10467	H	0.815588	0.360567	0.028074
	H10468	H	0.753884	0.362986	0.031060
	H10469	H	0.836752	0.143942	0.041263
	H10470	H	0.836701	0.360021	0.041333
	H10471	H	0.814136	0.064644	0.123983
	H10472	H	0.811566	0.064511	0.123827
	H10473	H	0.809758	0.064906	0.125394
	H10474	H	0.775409	0.941693	0.005364
	H10475	H	0.777262	0.941062	0.005299
	H10476	H	0.778917	0.941007	0.006483
	H10477	H	0.814123	0.941040	0.123923
	H10478	H	0.811469	0.941056	0.123849
	H10479	H	0.809742	0.941419	0.125413
	Zn10480	Zn	0.714366	0.680595	0.068969
	Zn10481	Zn	0.714357	0.825526	0.069005
	Zn10482	Zn	0.714293	0.180578	0.068970
	Zn10483	Zn	0.714431	0.325573	0.068988
	Zn10484	Zn	0.812815	0.680490	0.125418
	Zn10485	Zn	0.812654	0.825591	0.125388
	Zn10486	Zn	0.812789	0.180389	0.125406
	Zn10487	Zn	0.812828	0.325579	0.125429
	C10488	C	0.850725	0.752463	0.050072
	C10489	C	0.738951	0.752520	0.081841
	C10490	C	0.751847	0.752447	0.089732
	C10491	C	0.757783	0.691231	0.093469
	C10492	C	0.757748	0.813647	0.093506
	C10493	C	0.738936	0.252719	0.081866
	C10494	C	0.751864	0.252679	0.089735
	C10495	C	0.757736	0.191330	0.093510
	C10496	C	0.757788	0.313958	0.093504
	C10497	C	0.736391	0.753018	0.056473
	C10498	C	0.743963	0.753140	0.047510
	C10499	C	0.746756	0.815210	0.043136
	C10500	C	0.746890	0.691132	0.043140
	C10501	C	0.736379	0.252637	0.056491
	C10502	C	0.743895	0.252844	0.047530
	C10503	C	0.746565	0.314975	0.043148
	C10504	C	0.746835	0.190955	0.043152
	C10505	C	0.876728	0.043544	0.065713
	C10506	C	0.876761	0.962523	0.065683
	C10507	C	0.710391	0.043598	0.069004
	C10508	C	0.710410	0.962739	0.069007
	C10509	C	0.716329	0.043560	0.070705
	C10510	C	0.716318	0.962667	0.070688
	C10511	C	0.717384	0.462760	0.071053
	C10512	C	0.876093	0.462729	0.060700
	C10513	C	0.878674	0.462646	0.064469
	C10514	C	0.717392	0.543455	0.071041
	C10515	C	0.878695	0.543493	0.064483
	C10516	C	0.876126	0.543624	0.060720
	C10517	C	0.853464	0.752885	0.075432
	C10518	C	0.853453	0.252975	0.075500
	C10519	C	0.845903	0.752855	0.084384
	C10520	C	0.842975	0.690915	0.088730
	C10521	C	0.843120	0.814790	0.088750
	C10522	C	0.845785	0.253086	0.084411
	C10523	C	0.842907	0.191329	0.088785
	C10524	C	0.842792	0.315078	0.088723
	C10525	C	0.850705	0.251834	0.050041
	C10526	C	0.801457	0.753333	0.019344
	C10527	C	0.760400	0.753148	0.020735
	C10528	C	0.788221	0.752816	0.112547
	C10529	C	0.831969	0.691306	0.038367
	C10530	C	0.831979	0.814075	0.038409
	C10531	C	0.814329	0.753030	0.027255
	C10532	C	0.754677	0.753182	0.030077
	C10533	C	0.752191	0.691161	0.034510
	C10534	C	0.820301	0.691573	0.030988
	C10535	C	0.820314	0.814247	0.031024
	C10536	C	0.752067	0.815290	0.034502
	C10537	C	0.837908	0.752557	0.042145
	C10538	C	0.829295	0.753070	0.111142
	C10539	C	0.837612	0.690930	0.097351
	C10540	C	0.837764	0.814767	0.097370
	C10541	C	0.835147	0.752898	0.101802
	C10542	C	0.810003	0.462650	0.122425
	C10543	C	0.777732	0.462584	0.005660
	C10544	C	0.809581	0.462546	0.128052
	C10545	C	0.810010	0.543194	0.122417
	C10546	C	0.809562	0.543395	0.128053
	C10547	C	0.777681	0.543327	0.005650
	C10548	C	0.829176	0.253366	0.111124
	C10549	C	0.837494	0.191462	0.097384
	C10550	C	0.837361	0.315261	0.097324
	C10551	C	0.834949	0.253404	0.101791
	C10552	C	0.776381	0.043444	0.005638
	C10553	C	0.801548	0.252663	0.019322
	C10554	C	0.760405	0.253562	0.020751
	C10555	C	0.788333	0.252982	0.112521
	C10556	C	0.832009	0.190827	0.038330
	C10557	C	0.832006	0.313170	0.038358
	C10558	C	0.814431	0.252329	0.027210
	C10559	C	0.754559	0.253399	0.030091
	C10560	C	0.775417	0.752607	0.104612
	C10561	C	0.769454	0.813760	0.100865
	C10562	C	0.769470	0.691372	0.100840
	C10563	C	0.775462	0.252720	0.104609
	C10564	C	0.769499	0.313935	0.100865
	C10565	C	0.769442	0.191381	0.100878
	C10566	C	0.752141	0.191277	0.034524
	C10567	C	0.820341	0.190987	0.030952
	C10568	C	0.820335	0.313471	0.030981
	C10569	C	0.751876	0.315220	0.034523
	C10570	C	0.837927	0.251928	0.042103
	C10571	C	0.812901	0.043374	0.124299
	C10572	C	0.777965	0.043234	0.006822
	C10573	C	0.776391	0.962655	0.005636
	C10574	C	0.812845	0.962436	0.124289
	C10575	C	0.777991	0.962587	0.006817
	N10576	N	0.714152	0.070334	0.069000
	N10577	N	0.714166	0.935751	0.068989
	N10578	N	0.714250	0.435981	0.068984
	N10579	N	0.714207	0.570594	0.068954
	N10580	N	0.812888	0.435815	0.125426
	N10581	N	0.812891	0.570355	0.125436
	N10582	N	0.812909	0.070199	0.125395
	N10583	N	0.812838	0.935650	0.125359
	O10584	O	0.820466	0.695448	0.183450
	O10585	O	0.820652	0.812228	0.183436
	O10586	O	0.764820	0.694279	0.199773
	O10587	O	0.764927	0.811164	0.199830
	O10588	O	0.764835	0.194051	0.199797
	O10589	O	0.764953	0.310821	0.199827
	O10590	O	0.764276	0.694328	0.177227
	O10591	O	0.764417	0.810831	0.177318
	O10592	O	0.764359	0.194909	0.177232
	O10593	O	0.764437	0.311415	0.177264
	O10594	O	0.821415	0.695457	0.206050
	O10595	O	0.821462	0.811940	0.206072
	O10596	O	0.821369	0.195033	0.206006
	O10597	O	0.821627	0.311379	0.206096
	O10598	O	0.820672	0.193977	0.183384
	O10599	O	0.820602	0.310922	0.183424
	O10600	O	0.827292	0.694940	0.137273
	O10601	O	0.794515	0.694499	0.134751
	O10602	O	0.791236	0.695220	0.248555
	O10603	O	0.791115	0.811934	0.248526
	O10604	O	0.758458	0.693988	0.245974
	O10605	O	0.758212	0.810873	0.245983
	O10606	O	0.794268	0.811060	0.134654
	O10607	O	0.827298	0.811694	0.137203
	O10608	O	0.827531	0.194263	0.137205
	O10609	O	0.794392	0.194609	0.134667
	O10610	O	0.791122	0.194520	0.248504
	O10611	O	0.791308	0.311212	0.248558
	O10612	O	0.758266	0.194621	0.245983
	O10613	O	0.758275	0.311522	0.245960
	O10614	O	0.794493	0.311256	0.134678
	O10615	O	0.827488	0.311174	0.137281
	H10616	H	0.763702	0.642358	0.214660
	H10617	H	0.763458	0.862196	0.214680
	H10618	H	0.763515	0.142621	0.214703
	H10619	H	0.763818	0.362257	0.214702
	H10620	H	0.772860	0.862617	0.163389
	H10621	H	0.772861	0.643416	0.163342
	H10622	H	0.773334	0.362498	0.163393
	H10623	H	0.772662	0.143800	0.163261
	H10624	H	0.837320	0.064465	0.191707
	H10625	H	0.831273	0.064739	0.191897
	H10626	H	0.831144	0.941260	0.191916
	H10627	H	0.837258	0.941417	0.191747
	H10628	H	0.842519	0.065132	0.195387
	H10629	H	0.842515	0.941792	0.195381
	H10630	H	0.753258	0.064559	0.185096
	H10631	H	0.753158	0.941004	0.185170
	H10632	H	0.748006	0.064527	0.184798
	H10633	H	0.747945	0.940924	0.184851
	H10634	H	0.744081	0.064215	0.187798
	H10635	H	0.744134	0.940989	0.187869
	H10636	H	0.747629	0.440686	0.187179
	H10637	H	0.747627	0.441379	0.188614
	H10638	H	0.750755	0.441234	0.186433
	H10639	H	0.838288	0.441036	0.193792
	H10640	H	0.839072	0.441570	0.196456
	H10641	H	0.836168	0.441286	0.197601
	H10642	H	0.747561	0.564395	0.188508
	H10643	H	0.747512	0.564801	0.187148
	H10644	H	0.836100	0.564835	0.197601
	H10645	H	0.839035	0.564198	0.196431
	H10646	H	0.838300	0.564591	0.193789
	H10647	H	0.750552	0.564787	0.186336
	H10648	H	0.812897	0.644186	0.219960
	H10649	H	0.812981	0.863287	0.219968
	H10650	H	0.812456	0.143658	0.219863
	H10651	H	0.813250	0.362340	0.220031
	H10652	H	0.782814	0.643392	0.147875
	H10653	H	0.826062	0.644136	0.152148
	H10654	H	0.826161	0.863866	0.152172
	H10655	H	0.782756	0.862685	0.147895
	H10656	H	0.821869	0.644091	0.168523
	H10657	H	0.821963	0.863880	0.168549
	H10658	H	0.802842	0.644189	0.235379
	H10659	H	0.802930	0.863250	0.235416
	H10660	H	0.812320	0.441099	0.120508
	H10661	H	0.773412	0.441754	0.257611
	H10662	H	0.821421	0.441030	0.123913
	H10663	H	0.821044	0.441487	0.127959
	H10664	H	0.772173	0.441568	0.257703
	H10665	H	0.772607	0.441174	0.257503
	H10666	H	0.773462	0.564770	0.257623
	H10667	H	0.812310	0.564570	0.120505
	H10668	H	0.772633	0.565245	0.257511
	H10669	H	0.772202	0.564934	0.257696
	H10670	H	0.821126	0.564726	0.128007
	H10671	H	0.821425	0.565126	0.123917
	H10672	H	0.802432	0.143649	0.235270
	H10673	H	0.803140	0.362434	0.235463
	H10674	H	0.814528	0.064822	0.126742
	H10675	H	0.815950	0.064855	0.125659
	H10676	H	0.811077	0.064707	0.126646
	H10677	H	0.759363	0.862141	0.231059
	H10678	H	0.759637	0.642177	0.231071
	H10679	H	0.759776	0.362519	0.231086
	H10680	H	0.759461	0.142940	0.231078
	H10681	H	0.782572	0.143743	0.147772
	H10682	H	0.826165	0.142627	0.152087
	H10683	H	0.825898	0.362367	0.152126
	H10684	H	0.783143	0.362704	0.147907
	H10685	H	0.822103	0.142548	0.168513
	H10686	H	0.821758	0.362461	0.168471
	H10687	H	0.777107	0.064975	0.258701
	H10688	H	0.776517	0.064661	0.256626
	H10689	H	0.771672	0.065012	0.255465
	H10690	H	0.815878	0.941426	0.125623
	H10691	H	0.814636	0.941451	0.126734
	H10692	H	0.810946	0.941532	0.126653
	H10693	H	0.777056	0.941878	0.258654
	H10694	H	0.776454	0.941940	0.256648
	H10695	H	0.771684	0.941225	0.255488
	Zn10696	Zn	0.750228	0.680210	0.187947
	Zn10697	Zn	0.750399	0.825216	0.187981
	Zn10698	Zn	0.750350	0.180074	0.187944
	Zn10699	Zn	0.750449	0.325273	0.188022
	Zn10700	Zn	0.773019	0.680518	0.257829
	Zn10701	Zn	0.772747	0.825643	0.257805
	Zn10702	Zn	0.772855	0.180743	0.257809
	Zn10703	Zn	0.772902	0.325796	0.257816
	C10704	C	0.820438	0.753802	0.179532
	C10705	C	0.765041	0.752613	0.203710
	C10706	C	0.764066	0.752282	0.213712
	C10707	C	0.762838	0.690090	0.218328
	C10708	C	0.762691	0.814430	0.218339
	C10709	C	0.765063	0.252379	0.203727
	C10710	C	0.764062	0.252381	0.213716
	C10711	C	0.762733	0.190411	0.218349
	C10712	C	0.762890	0.314579	0.218354
	C10713	C	0.766669	0.752714	0.173665
	C10714	C	0.772396	0.753006	0.164310
	C10715	C	0.774993	0.815054	0.159910
	C10716	C	0.774999	0.691031	0.159884
	C10717	C	0.766718	0.253225	0.173632
	C10718	C	0.772519	0.253149	0.164294
	C10719	C	0.775242	0.315039	0.159893
	C10720	C	0.774920	0.191370	0.159824
	C10721	C	0.834475	0.043447	0.192728
	C10722	C	0.834452	0.962698	0.192737
	C10723	C	0.750584	0.043243	0.185746
	C10724	C	0.750562	0.962219	0.185764
	C10725	C	0.746628	0.043073	0.188792
	C10726	C	0.746693	0.962405	0.188832
	C10727	C	0.748395	0.462385	0.187927
	C10728	C	0.836156	0.462410	0.193842
	C10729	C	0.836914	0.462752	0.196557
	C10730	C	0.748287	0.543204	0.187886
	C10731	C	0.836896	0.543366	0.196560
	C10732	C	0.836136	0.543688	0.193844
	C10733	C	0.819076	0.753727	0.209664
	C10734	C	0.819138	0.253158	0.209659
	C10735	C	0.813199	0.753757	0.218967
	C10736	C	0.810629	0.691778	0.223383
	C10737	C	0.810704	0.815730	0.223401
	C10738	C	0.813268	0.253103	0.218980
	C10739	C	0.810457	0.191200	0.223340
	C10740	C	0.810863	0.314922	0.223430
	C10741	C	0.820475	0.252503	0.179499
	C10742	C	0.827502	0.753450	0.141152
	C10743	C	0.790937	0.752801	0.138007
	C10744	C	0.758174	0.752452	0.242070
	C10745	C	0.822824	0.691795	0.164883
	C10746	C	0.822881	0.816079	0.164906
	C10747	C	0.826562	0.753912	0.151169
	C10748	C	0.783295	0.752974	0.146926
	C10749	C	0.780412	0.691025	0.151281
	C10750	C	0.825231	0.691849	0.155796
	C10751	C	0.825274	0.816098	0.155815
	C10752	C	0.780403	0.815012	0.151300
	C10753	C	0.821563	0.753854	0.169539
	C10754	C	0.794604	0.753616	0.245239
	C10755	C	0.805166	0.691805	0.231972
	C10756	C	0.805233	0.815677	0.231988
	C10757	C	0.802235	0.753781	0.236328
	C10758	C	0.773280	0.463182	0.257788
	C10759	C	0.819085	0.462510	0.125810
	C10760	C	0.772449	0.462834	0.257666
	C10761	C	0.773310	0.543665	0.257801
	C10762	C	0.772495	0.543835	0.257661
	C10763	C	0.819090	0.543623	0.125820
	C10764	C	0.794692	0.252863	0.245251
	C10765	C	0.805010	0.191159	0.231931
	C10766	C	0.805402	0.314893	0.232025
	C10767	C	0.802325	0.253028	0.236338
	C10768	C	0.814629	0.043420	0.125999
	C10769	C	0.827624	0.252580	0.141147
	C10770	C	0.790983	0.253011	0.137963
	C10771	C	0.758076	0.253007	0.242062
	C10772	C	0.822937	0.190304	0.164865
	C10773	C	0.822711	0.314609	0.164861
	C10774	C	0.826572	0.252459	0.151151
	C10775	C	0.783340	0.253162	0.146878
	C10776	C	0.759194	0.752221	0.232071
	C10777	C	0.760342	0.814407	0.227429
	C10778	C	0.760495	0.690026	0.227426
	C10779	C	0.759155	0.252722	0.232067
	C10780	C	0.760525	0.314731	0.227439
	C10781	C	0.760368	0.190571	0.227434
	C10782	C	0.780356	0.191264	0.151224
	C10783	C	0.825337	0.190264	0.155768
	C10784	C	0.825130	0.314597	0.155778
	C10785	C	0.780666	0.315113	0.151292
	C10786	C	0.821550	0.252486	0.169502
	C10787	C	0.775700	0.043744	0.257701
	C10788	C	0.811075	0.043438	0.125840
	C10789	C	0.814635	0.962649	0.125991
	C10790	C	0.775678	0.963093	0.257683
	C10791	C	0.811037	0.962577	0.125860
	N10792	N	0.750376	0.069974	0.187940
	N10793	N	0.750414	0.935458	0.187964
	N10794	N	0.750520	0.435590	0.187978
	N10795	N	0.750374	0.570150	0.187926
	N10796	N	0.772808	0.435970	0.257853
	N10797	N	0.772886	0.570525	0.257864
	N10798	N	0.772652	0.070528	0.257832
	N10799	N	0.772640	0.935965	0.257819
	O10800	O	0.856065	0.696457	0.302376
	O10801	O	0.855972	0.812781	0.302420
	O10802	O	0.730065	0.694835	0.329982
	O10803	O	0.730138	0.811069	0.329940
	O10804	O	0.730134	0.194890	0.329943
	O10805	O	0.729963	0.311171	0.330078
	O10806	O	0.728701	0.694431	0.311065
	O10807	O	0.728634	0.811213	0.311026
	O10808	O	0.728623	0.195034	0.311026
	O10809	O	0.728590	0.311824	0.311064
	O10810	O	0.862429	0.695594	0.322321
	O10811	O	0.862687	0.811723	0.322405
	O10812	O	0.862381	0.195421	0.322308
	O10813	O	0.862185	0.311515	0.322223
	O10814	O	0.856075	0.195347	0.302317
	O10815	O	0.856059	0.311583	0.302360
	O10816	O	0.792928	0.696021	0.267453
	O10817	O	0.759179	0.694572	0.268591
	O10818	O	0.827619	0.694856	0.363329
	O10819	O	0.827745	0.811049	0.363445
	O10820	O	0.793448	0.695015	0.364813
	O10821	O	0.793386	0.811318	0.364786
	O10822	O	0.758972	0.811042	0.268566
	O10823	O	0.792618	0.812318	0.267526
	O10824	O	0.792730	0.194897	0.267532
	O10825	O	0.759221	0.195583	0.268597
	O10826	O	0.827714	0.195327	0.363407
	O10827	O	0.827569	0.311399	0.363353
	O10828	O	0.793516	0.194853	0.364804
	O10829	O	0.793348	0.310923	0.364901
	O10830	O	0.759100	0.312030	0.268593
	O10831	O	0.792745	0.311152	0.267467
	H10832	H	0.750271	0.644555	0.341212
	H10833	H	0.750492	0.861533	0.341025
	H10834	H	0.750760	0.144345	0.340960
	H10835	H	0.750325	0.361223	0.341218
	H10836	H	0.740359	0.862195	0.297904
	H10837	H	0.740362	0.642822	0.297929
	H10838	H	0.740369	0.363305	0.297948
	H10839	H	0.740435	0.144059	0.297891
	H10840	H	0.872810	0.064513	0.311590
	H10841	H	0.874292	0.064926	0.313015
	H10842	H	0.874329	0.941406	0.313032
	H10843	H	0.872908	0.941336	0.311631
	H10844	H	0.874960	0.064803	0.309915
	H10845	H	0.875032	0.941234	0.309885
	H10846	H	0.713013	0.065386	0.320259
	H10847	H	0.713032	0.941837	0.320239
	H10848	H	0.711835	0.065045	0.319141
	H10849	H	0.711778	0.941626	0.319095
	H10850	H	0.708559	0.065092	0.319037
	H10851	H	0.708488	0.941666	0.318995
	H10852	H	0.707913	0.442030	0.319163
	H10853	H	0.707178	0.441691	0.320394
	H10854	H	0.711354	0.441403	0.318931
	H10855	H	0.878296	0.441371	0.308530
	H10856	H	0.882620	0.442027	0.311694
	H10857	H	0.880591	0.442093	0.314175
	H10858	H	0.707178	0.565105	0.320352
	H10859	H	0.707990	0.565334	0.319179
	H10860	H	0.880520	0.565095	0.314198
	H10861	H	0.882591	0.565114	0.311691
	H10862	H	0.878208	0.565155	0.308542
	H10863	H	0.711321	0.565205	0.318937
	H10864	H	0.851070	0.645681	0.335330
	H10865	H	0.851485	0.861470	0.335545
	H10866	H	0.851438	0.145769	0.335457
	H10867	H	0.850879	0.361438	0.335310
	H10868	H	0.750351	0.642784	0.282459
	H10869	H	0.813312	0.645792	0.278604
	H10870	H	0.812932	0.863510	0.278699
	H10871	H	0.750343	0.862216	0.282470
	H10872	H	0.835838	0.646011	0.291186
	H10873	H	0.835554	0.863683	0.291267
	H10874	H	0.838772	0.645485	0.350250
	H10875	H	0.839135	0.860823	0.350409
	H10876	H	0.773583	0.441671	0.257949
	H10877	H	0.811043	0.441279	0.376501
	H10878	H	0.773000	0.441420	0.258257
	H10879	H	0.772456	0.441596	0.258118
	H10880	H	0.819234	0.441662	0.374190
	H10881	H	0.817363	0.441562	0.376370
	H10882	H	0.811039	0.565176	0.376525
	H10883	H	0.773601	0.564814	0.257950
	H10884	H	0.817428	0.565149	0.376408
	H10885	H	0.819367	0.564930	0.374209
	H10886	H	0.772432	0.564957	0.258156
	H10887	H	0.773051	0.565113	0.258225
	H10888	H	0.839274	0.145704	0.350390
	H10889	H	0.838711	0.361284	0.350242
	H10890	H	0.769418	0.064939	0.259361
	H10891	H	0.772875	0.065401	0.260189
	H10892	H	0.768739	0.064846	0.256574
	H10893	H	0.773016	0.861834	0.353621
	H10894	H	0.772834	0.644559	0.353802
	H10895	H	0.772916	0.361061	0.353808
	H10896	H	0.773354	0.144405	0.353544
	H10897	H	0.750441	0.144342	0.282419
	H10898	H	0.812944	0.144550	0.278737
	H10899	H	0.813242	0.362041	0.278572
	H10900	H	0.750416	0.363259	0.282502
	H10901	H	0.835538	0.145054	0.291308
	H10902	H	0.835876	0.361999	0.291138
	H10903	H	0.812166	0.064695	0.373422
	H10904	H	0.811868	0.064810	0.374271
	H10905	H	0.813542	0.064769	0.375053
	H10906	H	0.772992	0.941417	0.260209
	H10907	H	0.769432	0.941505	0.259360
	H10908	H	0.768670	0.941269	0.256559
	H10909	H	0.812136	0.941595	0.373425
	H10910	H	0.811881	0.941403	0.374233
	H10911	H	0.813581	0.941403	0.375030
	Zn10912	Zn	0.710187	0.680743	0.320293
	Zn10913	Zn	0.710261	0.825643	0.320284
	Zn10914	Zn	0.710296	0.180948	0.320326
	Zn10915	Zn	0.710283	0.325827	0.320344
	Zn10916	Zn	0.813754	0.680396	0.374079
	Zn10917	Zn	0.813658	0.825818	0.374058
	Zn10918	Zn	0.813788	0.180390	0.374072
	Zn10919	Zn	0.813657	0.325874	0.374064
	C10920	C	0.850694	0.754678	0.299518
	C10921	C	0.735431	0.752931	0.332839
	C10922	C	0.749079	0.753006	0.340366
	C10923	C	0.755347	0.691680	0.343988
	C10924	C	0.755465	0.814535	0.343878
	C10925	C	0.735419	0.252954	0.332865
	C10926	C	0.749122	0.252789	0.340376
	C10927	C	0.755644	0.191477	0.343847
	C10928	C	0.755412	0.314044	0.343988
	C10929	C	0.732178	0.752773	0.307773
	C10930	C	0.739836	0.752623	0.298860
	C10931	C	0.742692	0.814554	0.294489
	C10932	C	0.742684	0.690525	0.294497
	C10933	C	0.732092	0.253534	0.307766
	C10934	C	0.739794	0.253651	0.298858
	C10935	C	0.742723	0.315635	0.294532
	C10936	C	0.742754	0.191735	0.294491
	C10937	C	0.874333	0.043556	0.312134
	C10938	C	0.874352	0.962689	0.312145
	C10939	C	0.711809	0.043773	0.319857
	C10940	C	0.711804	0.962961	0.319829
	C10941	C	0.708518	0.043762	0.319742
	C10942	C	0.708491	0.963005	0.319721
	C10943	C	0.708235	0.462846	0.319921
	C10944	C	0.875857	0.462543	0.309393
	C10945	C	0.880237	0.463025	0.312578
	C10946	C	0.708222	0.543713	0.319918
	C10947	C	0.880205	0.543727	0.312582
	C10948	C	0.875824	0.543529	0.309381
	C10949	C	0.859549	0.753676	0.325733
	C10950	C	0.859246	0.253524	0.325638
	C10951	C	0.851894	0.753551	0.334558
	C10952	C	0.848368	0.692243	0.338676
	C10953	C	0.848606	0.814527	0.338788
	C10954	C	0.851696	0.253611	0.334500
	C10955	C	0.848559	0.192432	0.338750
	C10956	C	0.848260	0.314729	0.338661
	C10957	C	0.850686	0.253528	0.299500
	C10958	C	0.798157	0.754303	0.270342
	C10959	C	0.756734	0.752741	0.272188
	C10960	C	0.788039	0.753098	0.361952
	C10961	C	0.830666	0.693265	0.288452
	C10962	C	0.830505	0.816338	0.288493
	C10963	C	0.811750	0.754603	0.277894
	C10964	C	0.750789	0.752558	0.281486
	C10965	C	0.748165	0.690478	0.285900
	C10966	C	0.818171	0.693141	0.281463
	C10967	C	0.817987	0.816255	0.281505
	C10968	C	0.748165	0.814502	0.285901
	C10969	C	0.836926	0.754820	0.292039
	C10970	C	0.830726	0.753049	0.360018
	C10971	C	0.841605	0.692074	0.346942
	C10972	C	0.841809	0.814288	0.347045
	C10973	C	0.838326	0.753120	0.351167
	C10974	C	0.810748	0.462587	0.375088
	C10975	C	0.772695	0.462633	0.258084
	C10976	C	0.817132	0.462931	0.374966
	C10977	C	0.810738	0.543574	0.375100
	C10978	C	0.817168	0.543639	0.374982
	C10979	C	0.772729	0.543554	0.258096
	C10980	C	0.830680	0.253331	0.360015
	C10981	C	0.841896	0.192384	0.347036
	C10982	C	0.841584	0.314595	0.346949
	C10983	C	0.838363	0.253482	0.351181
	C10984	C	0.771564	0.043737	0.259250
	C10985	C	0.798090	0.253086	0.270370
	C10986	C	0.756791	0.253778	0.272200
	C10987	C	0.788106	0.252896	0.361978
	C10988	C	0.830539	0.192052	0.288481
	C10989	C	0.830730	0.314912	0.288379
	C10990	C	0.811737	0.253272	0.277894
	C10991	C	0.750896	0.253769	0.281520
	C10992	C	0.774276	0.753157	0.354490
	C10993	C	0.767971	0.814602	0.350869
	C10994	C	0.767859	0.691769	0.350973
	C10995	C	0.774383	0.252766	0.354482
	C10996	C	0.767930	0.314055	0.350976
	C10997	C	0.768166	0.191463	0.350827
	C10998	C	0.748271	0.191760	0.285902
	C10999	C	0.818013	0.191883	0.281501
	C11000	C	0.818196	0.314802	0.281405
	C11001	C	0.748260	0.315660	0.285950
	C11002	C	0.836956	0.253544	0.292008
	C11003	C	0.812491	0.043538	0.373895
	C11004	C	0.770827	0.043712	0.256482
	C11005	C	0.771558	0.962836	0.259253
	C11006	C	0.812454	0.962713	0.373902
	C11007	C	0.770814	0.962663	0.256480
	N11008	N	0.710190	0.070683	0.320289
	N11009	N	0.710149	0.936027	0.320251
	N11010	N	0.710091	0.435979	0.320322
	N11011	N	0.710100	0.570566	0.320305
	N11012	N	0.813712	0.435878	0.374025
	N11013	N	0.813744	0.570367	0.374046
	N11014	N	0.813768	0.070370	0.374069
	N11015	N	0.813710	0.935887	0.374065
	O11016	O	0.897146	0.694932	0.418293
	O11017	O	0.897124	0.811137	0.418288
	O11018	O	0.771695	0.695563	0.445825
	O11019	O	0.771638	0.811688	0.445864
	O11020	O	0.771659	0.194774	0.445814
	O11021	O	0.771666	0.310923	0.445879
	O11022	O	0.765251	0.695063	0.425902
	O11023	O	0.765072	0.811162	0.425872
	O11024	O	0.765166	0.194635	0.425893
	O11025	O	0.765286	0.310749	0.425938
	O11026	O	0.898707	0.694694	0.437211
	O11027	O	0.898664	0.811352	0.437188
	O11028	O	0.898572	0.194737	0.437239
	O11029	O	0.898688	0.311484	0.437265
	O11030	O	0.897169	0.194772	0.418252
	O11031	O	0.897306	0.311062	0.418185
	O11032	O	0.834079	0.694503	0.383291
	O11033	O	0.799764	0.695120	0.384760
	O11034	O	0.868329	0.694580	0.479675
	O11035	O	0.868409	0.810953	0.479712
	O11036	O	0.834752	0.695273	0.480808
	O11037	O	0.834755	0.811659	0.480778
	O11038	O	0.799772	0.811325	0.384764
	O11039	O	0.834055	0.810761	0.383272
	O11040	O	0.834122	0.195051	0.383280
	O11041	O	0.799854	0.194618	0.384781
	O11042	O	0.868509	0.195136	0.479773
	O11043	O	0.868370	0.311725	0.479707
	O11044	O	0.834823	0.194654	0.480791
	O11045	O	0.834755	0.310907	0.480805
	O11046	O	0.799809	0.310757	0.384781
	O11047	O	0.834030	0.310995	0.383239
	H11048	H	0.791807	0.645181	0.457055
	H11049	H	0.792133	0.862240	0.456976
	H11050	H	0.792183	0.144182	0.456922
	H11051	H	0.791938	0.361267	0.457041
	H11052	H	0.776387	0.861615	0.412798
	H11053	H	0.776382	0.644562	0.412822
	H11054	H	0.776550	0.360903	0.412838
	H11055	H	0.776481	0.144814	0.412823
	H11056	H	0.919566	0.064608	0.429178
	H11057	H	0.920302	0.065228	0.427782
	H11058	H	0.920288	0.941565	0.427767
	H11059	H	0.919638	0.941337	0.429181
	H11060	H	0.915842	0.064031	0.429593
	H11061	H	0.915822	0.940841	0.429594
	H11062	H	0.741895	0.063994	0.437331
	H11063	H	0.741915	0.940885	0.437356
	H11064	H	0.746767	0.064146	0.440903
	H11065	H	0.746832	0.940759	0.440919
	H11066	H	0.757677	0.065235	0.440565
	H11067	H	0.757786	0.941353	0.440563
	H11068	H	0.756537	0.440725	0.436925
	H11069	H	0.754892	0.441012	0.434792
	H11070	H	0.753017	0.441573	0.439306
	H11071	H	0.912212	0.441420	0.429421
	H11072	H	0.912237	0.441660	0.425959
	H11073	H	0.916571	0.441580	0.424839
	H11074	H	0.754844	0.564234	0.434782
	H11075	H	0.756499	0.564406	0.436938
	H11076	H	0.916615	0.564766	0.424853
	H11077	H	0.912396	0.564744	0.425952
	H11078	H	0.912275	0.564757	0.429410
	H11079	H	0.752920	0.564427	0.439283
	H11080	H	0.887060	0.643269	0.450363
	H11081	H	0.886959	0.862506	0.450375
	H11082	H	0.886767	0.143765	0.450328
	H11083	H	0.886705	0.362812	0.450286
	H11084	H	0.788563	0.644445	0.397898
	H11085	H	0.854341	0.644567	0.394465
	H11086	H	0.854393	0.861353	0.394477
	H11087	H	0.788614	0.861560	0.397864
	H11088	H	0.876766	0.644484	0.407117
	H11089	H	0.876824	0.861251	0.407118
	H11090	H	0.877036	0.643230	0.465799
	H11091	H	0.876923	0.862250	0.465823
	H11092	H	0.808269	0.441277	0.374405
	H11093	H	0.846727	0.441011	0.496261
	H11094	H	0.810902	0.441399	0.371403
	H11095	H	0.815485	0.441661	0.371335
	H11096	H	0.868550	0.441103	0.491591
	H11097	H	0.862791	0.440771	0.496739
	H11098	H	0.846765	0.564397	0.496286
	H11099	H	0.808289	0.564723	0.374401
	H11100	H	0.862856	0.564348	0.496767
	H11101	H	0.868545	0.564685	0.491569
	H11102	H	0.815577	0.564784	0.371300
	H11103	H	0.810885	0.564820	0.371398
	H11104	H	0.876906	0.143861	0.465824
	H11105	H	0.876787	0.362689	0.465783
	H11106	H	0.815461	0.064943	0.373707
	H11107	H	0.814210	0.064889	0.373102
	H11108	H	0.815080	0.064790	0.374815
	H11109	H	0.814596	0.861912	0.469620
	H11110	H	0.814274	0.644913	0.469696
	H11111	H	0.814424	0.361307	0.469658
	H11112	H	0.814667	0.144154	0.469557
	H11113	H	0.788544	0.144783	0.397867
	H11114	H	0.854480	0.144584	0.394408
	H11115	H	0.854357	0.361595	0.394446
	H11116	H	0.788638	0.360844	0.397898
	H11117	H	0.876992	0.144451	0.406999
	H11118	H	0.876871	0.361536	0.407054
	H11119	H	0.856849	0.065014	0.489443
	H11120	H	0.854464	0.065068	0.488870
	H11121	H	0.851657	0.065107	0.489921
	H11122	H	0.814242	0.941700	0.373139
	H11123	H	0.815462	0.941250	0.373721
	H11124	H	0.814976	0.941537	0.374827
	H11125	H	0.856922	0.940916	0.489427
	H11126	H	0.854435	0.941165	0.488875
	H11127	H	0.851663	0.941645	0.489900
	Zn11128	Zn	0.751386	0.680015	0.436620
	Zn11129	Zn	0.751297	0.825569	0.436616
	Zn11130	Zn	0.751225	0.180014	0.436604
	Zn11131	Zn	0.751321	0.325605	0.436622
	Zn11132	Zn	0.854547	0.680258	0.490486
	Zn11133	Zn	0.854636	0.825651	0.490477
	Zn11134	Zn	0.854611	0.180348	0.490475
	Zn11135	Zn	0.854600	0.325622	0.490498
	C11136	C	0.891793	0.753001	0.415426
	C11137	C	0.776991	0.753655	0.448727
	C11138	C	0.790662	0.753756	0.456230
	C11139	C	0.796888	0.692331	0.459835
	C11140	C	0.797078	0.815015	0.459791
	C11141	C	0.777004	0.252715	0.448711
	C11142	C	0.790718	0.252602	0.456228
	C11143	C	0.797135	0.191251	0.459757
	C11144	C	0.796992	0.314113	0.459820
	C11145	C	0.768142	0.753172	0.422513
	C11146	C	0.775760	0.753180	0.413663
	C11147	C	0.779148	0.814635	0.409482
	C11148	C	0.779122	0.691518	0.409494
	C11149	C	0.768231	0.252717	0.422536
	C11150	C	0.775853	0.252763	0.413688
	C11151	C	0.779231	0.314082	0.409517
	C11152	C	0.779193	0.191616	0.409488
	C11153	C	0.919242	0.043639	0.428348
	C11154	C	0.919247	0.962661	0.428344
	C11155	C	0.746164	0.043064	0.438465
	C11156	C	0.746175	0.962385	0.438472
	C11157	C	0.757164	0.043204	0.438137
	C11158	C	0.757161	0.962437	0.438138
	C11159	C	0.754572	0.462260	0.436083
	C11160	C	0.915056	0.462757	0.429577
	C11161	C	0.915164	0.462791	0.426060
	C11162	C	0.754566	0.543198	0.436073
	C11163	C	0.915176	0.543496	0.426073
	C11164	C	0.915096	0.543511	0.429589
	C11165	C	0.895218	0.753035	0.440489
	C11166	C	0.895093	0.253118	0.440515
	C11167	C	0.887566	0.752965	0.449411
	C11168	C	0.884697	0.690942	0.453769
	C11169	C	0.884653	0.814860	0.453786
	C11170	C	0.887356	0.253189	0.449401
	C11171	C	0.884481	0.191264	0.453758
	C11172	C	0.884440	0.315177	0.453734
	C11173	C	0.891906	0.252945	0.415342
	C11174	C	0.839410	0.752752	0.386145
	C11175	C	0.796759	0.753217	0.388135
	C11176	C	0.829429	0.753410	0.477921
	C11177	C	0.871817	0.691581	0.404296
	C11178	C	0.871846	0.814177	0.404299
	C11179	C	0.853113	0.752972	0.393668
	C11180	C	0.789186	0.753047	0.397013
	C11181	C	0.785842	0.691470	0.401215
	C11182	C	0.859375	0.691606	0.397270
	C11183	C	0.859393	0.814284	0.397278
	C11184	C	0.785864	0.814565	0.401201
	C11185	C	0.878172	0.752869	0.407879
	C11186	C	0.870706	0.752749	0.476084
	C11187	C	0.879218	0.690859	0.462363
	C11188	C	0.879178	0.814694	0.462381
	C11189	C	0.876630	0.752720	0.466786
	C11190	C	0.846659	0.462307	0.492705
	C11191	C	0.813351	0.462790	0.372070
	C11192	C	0.862811	0.462586	0.493214
	C11193	C	0.846640	0.543056	0.492698
	C11194	C	0.862809	0.543431	0.493199
	C11195	C	0.813372	0.543567	0.372065
	C11196	C	0.870703	0.253352	0.476118
	C11197	C	0.879050	0.191344	0.462360
	C11198	C	0.879019	0.315137	0.462337
	C11199	C	0.876475	0.253230	0.466773
	C11200	C	0.814526	0.043594	0.373588
	C11201	C	0.839424	0.253131	0.386128
	C11202	C	0.796825	0.252682	0.388157
	C11203	C	0.829459	0.252772	0.477922
	C11204	C	0.871947	0.191558	0.404225
	C11205	C	0.871880	0.314411	0.404236
	C11206	C	0.853102	0.253101	0.393646
	C11207	C	0.789252	0.252782	0.397026
	C11208	C	0.815798	0.753417	0.470385
	C11209	C	0.809542	0.814829	0.466801
	C11210	C	0.809348	0.692091	0.466848
	C11211	C	0.815852	0.252721	0.470376
	C11212	C	0.809456	0.314231	0.466831
	C11213	C	0.809579	0.191266	0.466775
	C11214	C	0.785893	0.191560	0.401206
	C11215	C	0.859474	0.191707	0.397214
	C11216	C	0.859402	0.314405	0.397233
	C11217	C	0.785921	0.314122	0.401227
	C11218	C	0.878263	0.253010	0.407802
	C11219	C	0.855447	0.043510	0.489501
	C11220	C	0.814155	0.043576	0.374707
	C11221	C	0.814504	0.962643	0.373595
	C11222	C	0.855452	0.962393	0.489512
	C11223	C	0.814138	0.962844	0.374702
	N11224	N	0.751249	0.070067	0.436598
	N11225	N	0.751274	0.935580	0.436585
	N11226	N	0.751426	0.435592	0.436651
	N11227	N	0.751427	0.570045	0.436621
	N11228	N	0.854697	0.435680	0.490499
	N11229	N	0.854669	0.570253	0.490478
	N11230	N	0.854706	0.070271	0.490514
	N11231	N	0.854718	0.935694	0.490509
	O11232	O	0.862252	0.695405	0.548500
	O11233	O	0.862434	0.812363	0.548446
	O11234	O	0.806914	0.695531	0.564884
	O11235	O	0.806914	0.812519	0.564825
	O11236	O	0.806796	0.193636	0.564839
	O11237	O	0.807005	0.310619	0.564822
	O11238	O	0.806148	0.694450	0.542289
	O11239	O	0.806254	0.811015	0.542298
	O11240	O	0.806176	0.194425	0.542323
	O11241	O	0.806203	0.311083	0.542314
	O11242	O	0.862922	0.695356	0.570959
	O11243	O	0.863018	0.811705	0.571034
	O11244	O	0.863129	0.195226	0.571048
	O11245	O	0.862831	0.311535	0.570977
	O11246	O	0.862350	0.193935	0.548507
	O11247	O	0.862339	0.311004	0.548518
	O11248	O	0.869096	0.694373	0.502343
	O11249	O	0.836236	0.694561	0.499768
	O11250	O	0.833192	0.694370	0.613639
	O11251	O	0.833172	0.811115	0.613627
	O11252	O	0.800235	0.695829	0.611053
	O11253	O	0.800310	0.812487	0.611064
	O11254	O	0.836325	0.811409	0.499750
	O11255	O	0.869394	0.811156	0.502305
	O11256	O	0.869255	0.194369	0.502326
	O11257	O	0.836254	0.194186	0.499789
	O11258	O	0.833198	0.195230	0.613640
	O11259	O	0.833134	0.312003	0.613603
	O11260	O	0.800214	0.194380	0.611042
	O11261	O	0.800437	0.311212	0.611007
	O11262	O	0.836189	0.311195	0.499769
	O11263	O	0.869163	0.310951	0.502357
	H11264	H	0.805399	0.644486	0.579748
	H11265	H	0.805613	0.863895	0.579753
	H11266	H	0.805323	0.142506	0.579702
	H11267	H	0.805813	0.362034	0.579736
	H11268	H	0.814819	0.862470	0.528417
	H11269	H	0.814566	0.643026	0.528323
	H11270	H	0.814717	0.362326	0.528430
	H11271	H	0.814754	0.143171	0.528443
	H11272	H	0.877893	0.065393	0.564114
	H11273	H	0.883012	0.064696	0.562663
	H11274	H	0.882889	0.941587	0.562606
	H11275	H	0.877832	0.941427	0.564157
	H11276	H	0.870754	0.065312	0.561805
	H11277	H	0.870563	0.941697	0.561791
	H11278	H	0.797553	0.064578	0.556017
	H11279	H	0.797604	0.940872	0.556004
	H11280	H	0.799827	0.064190	0.552923
	H11281	H	0.799757	0.940871	0.552917
	H11282	H	0.794123	0.064743	0.549093
	H11283	H	0.794166	0.941109	0.549129
	H11284	H	0.784862	0.441071	0.550367
	H11285	H	0.784050	0.440864	0.554241
	H11286	H	0.794143	0.440932	0.548644
	H11287	H	0.867903	0.441899	0.560587
	H11288	H	0.872754	0.441458	0.555901
	H11289	H	0.880297	0.441435	0.556051
	H11290	H	0.784044	0.564377	0.554211
	H11291	H	0.784928	0.564920	0.550345
	H11292	H	0.880365	0.564183	0.556022
	H11293	H	0.872723	0.564807	0.555887
	H11294	H	0.867828	0.565388	0.560584
	H11295	H	0.794142	0.564015	0.548609
	H11296	H	0.854456	0.643783	0.584910
	H11297	H	0.854517	0.862351	0.584976
	H11298	H	0.854800	0.144048	0.585005
	H11299	H	0.854208	0.362949	0.584876
	H11300	H	0.824439	0.643381	0.512842
	H11301	H	0.867657	0.643251	0.517222
	H11302	H	0.868178	0.863054	0.517192
	H11303	H	0.824658	0.862797	0.512932
	H11304	H	0.863475	0.643462	0.533568
	H11305	H	0.863916	0.863550	0.533559
	H11306	H	0.844720	0.643311	0.600407
	H11307	H	0.844788	0.862357	0.600479
	H11308	H	0.840761	0.441068	0.490657
	H11309	H	0.817313	0.441926	0.623680
	H11310	H	0.848541	0.441614	0.483632
	H11311	H	0.860286	0.441295	0.483988
	H11312	H	0.814524	0.441518	0.621301
	H11313	H	0.816843	0.441821	0.621921
	H11314	H	0.817279	0.565494	0.623725
	H11315	H	0.840743	0.564311	0.490690
	H11316	H	0.816878	0.564783	0.621913
	H11317	H	0.814536	0.565025	0.621275
	H11318	H	0.860211	0.564812	0.483931
	H11319	H	0.848554	0.564841	0.483661
	H11320	H	0.845056	0.144026	0.600503
	H11321	H	0.844452	0.363087	0.600356
	H11322	H	0.855447	0.064315	0.492085
	H11323	H	0.857442	0.064261	0.491327
	H11324	H	0.852048	0.064894	0.491349
	H11325	H	0.801540	0.863885	0.596105
	H11326	H	0.801317	0.644544	0.596125
	H11327	H	0.801712	0.362443	0.596103
	H11328	H	0.801343	0.142538	0.596097
	H11329	H	0.824708	0.142849	0.512997
	H11330	H	0.868145	0.142750	0.517250
	H11331	H	0.867715	0.362330	0.517253
	H11332	H	0.824648	0.362241	0.512953
	H11333	H	0.863940	0.142602	0.533610
	H11334	H	0.863554	0.362200	0.533614
	H11335	H	0.819215	0.064951	0.618764
	H11336	H	0.811418	0.065201	0.618174
	H11337	H	0.805509	0.065253	0.622673
	H11338	H	0.857406	0.941019	0.491360
	H11339	H	0.855424	0.941477	0.492101
	H11340	H	0.852046	0.941772	0.491277
	H11341	H	0.819201	0.941623	0.618785
	H11342	H	0.811412	0.941572	0.618248
	H11343	H	0.805623	0.941868	0.622707
	Zn11344	Zn	0.792376	0.679909	0.553055
	Zn11345	Zn	0.792226	0.825270	0.552982
	Zn11346	Zn	0.792238	0.179933	0.553014
	Zn11347	Zn	0.792355	0.325242	0.553034
	Zn11348	Zn	0.814728	0.680849	0.622858
	Zn11349	Zn	0.814889	0.826050	0.622899
	Zn11350	Zn	0.814834	0.180801	0.622889
	Zn11351	Zn	0.814832	0.325964	0.622900
	C11352	C	0.862172	0.753796	0.544572
	C11353	C	0.807056	0.754127	0.568760
	C11354	C	0.805973	0.754160	0.578758
	C11355	C	0.804598	0.692162	0.583395
	C11356	C	0.804751	0.816218	0.583393
	C11357	C	0.807079	0.252188	0.568730
	C11358	C	0.806070	0.252316	0.578734
	C11359	C	0.804628	0.190276	0.583366
	C11360	C	0.804862	0.314450	0.583382
	C11361	C	0.808553	0.752717	0.538697
	C11362	C	0.814317	0.752754	0.529364
	C11363	C	0.816920	0.814915	0.524954
	C11364	C	0.816761	0.690779	0.524905
	C11365	C	0.808524	0.252744	0.538718
	C11366	C	0.814382	0.252780	0.529384
	C11367	C	0.816914	0.314763	0.524966
	C11368	C	0.816905	0.190638	0.524981
	C11369	C	0.879483	0.043779	0.562598
	C11370	C	0.879473	0.962707	0.562595
	C11371	C	0.797022	0.043104	0.554065
	C11372	C	0.797002	0.962222	0.554076
	C11373	C	0.791316	0.043337	0.550264
	C11374	C	0.791320	0.962375	0.550276
	C11375	C	0.786589	0.462163	0.552519
	C11376	C	0.871706	0.463072	0.561798
	C11377	C	0.876566	0.462684	0.557091
	C11378	C	0.786621	0.543275	0.552504
	C11379	C	0.876568	0.543437	0.557082
	C11380	C	0.871665	0.543870	0.561806
	C11381	C	0.860622	0.753406	0.574608
	C11382	C	0.860665	0.253399	0.574632
	C11383	C	0.854810	0.753056	0.583962
	C11384	C	0.852282	0.691163	0.588373
	C11385	C	0.852335	0.814857	0.588415
	C11386	C	0.854814	0.253423	0.583952
	C11387	C	0.852472	0.191537	0.588419
	C11388	C	0.852172	0.315407	0.588343
	C11389	C	0.862243	0.252487	0.544616
	C11390	C	0.869401	0.752901	0.506238
	C11391	C	0.832817	0.753066	0.503046
	C11392	C	0.800088	0.754184	0.607138
	C11393	C	0.864432	0.691247	0.529932
	C11394	C	0.864711	0.815653	0.529926
	C11395	C	0.868326	0.753170	0.516228
	C11396	C	0.825163	0.753095	0.511979
	C11397	C	0.822160	0.690916	0.516295
	C11398	C	0.866882	0.691070	0.520856
	C11399	C	0.867186	0.815507	0.520846
	C11400	C	0.822306	0.815135	0.516343
	C11401	C	0.863266	0.753569	0.534564
	C11402	C	0.836607	0.752712	0.610341
	C11403	C	0.846955	0.690978	0.597000
	C11404	C	0.847003	0.814688	0.597039
	C11405	C	0.844125	0.752782	0.601397
	C11406	C	0.815836	0.463106	0.623766
	C11407	C	0.854532	0.462633	0.485569
	C11408	C	0.815401	0.463128	0.621929
	C11409	C	0.815824	0.543808	0.623790
	C11410	C	0.815413	0.543558	0.621932
	C11411	C	0.854500	0.543463	0.485563
	C11412	C	0.836579	0.253595	0.610316
	C11413	C	0.847118	0.191574	0.597035
	C11414	C	0.846830	0.315469	0.596963
	C11415	C	0.844124	0.253555	0.601380
	C11416	C	0.856023	0.043164	0.491401
	C11417	C	0.869369	0.252603	0.506262
	C11418	C	0.832801	0.252671	0.503065
	C11419	C	0.800165	0.252718	0.607108
	C11420	C	0.864718	0.190349	0.529963
	C11421	C	0.864515	0.314564	0.529972
	C11422	C	0.868359	0.252568	0.516261
	C11423	C	0.825190	0.252639	0.511994
	C11424	C	0.801039	0.754201	0.597129
	C11425	C	0.802392	0.816155	0.592482
	C11426	C	0.802228	0.692187	0.592486
	C11427	C	0.801099	0.252512	0.597093
	C11428	C	0.802463	0.314585	0.592462
	C11429	C	0.802213	0.190258	0.592452
	C11430	C	0.822332	0.190603	0.516379
	C11431	C	0.867148	0.190380	0.520882
	C11432	C	0.866943	0.314578	0.520892
	C11433	C	0.822327	0.314687	0.516360
	C11434	C	0.863312	0.252435	0.534604
	C11435	C	0.815140	0.043857	0.619628
	C11436	C	0.852652	0.043695	0.490590
	C11437	C	0.856019	0.962658	0.491414
	C11438	C	0.815152	0.962876	0.619635
	C11439	C	0.852644	0.962862	0.490593
	N11440	N	0.792231	0.070025	0.552965
	N11441	N	0.792243	0.935492	0.552968
	N11442	N	0.792444	0.435364	0.553083
	N11443	N	0.792471	0.569936	0.553076
	N11444	N	0.814606	0.436271	0.622877
	N11445	N	0.814580	0.570852	0.622872
	N11446	N	0.814759	0.070602	0.622858
	N11447	N	0.814796	0.936035	0.622859
	O11448	O	0.894105	0.694492	0.669320
	O11449	O	0.894072	0.810968	0.669292
	O11450	O	0.771275	0.695365	0.695187
	O11451	O	0.771382	0.811541	0.695116
	O11452	O	0.771303	0.195028	0.695164
	O11453	O	0.771378	0.311143	0.695150
	O11454	O	0.770217	0.694755	0.676072
	O11455	O	0.770097	0.811469	0.676029
	O11456	O	0.770207	0.194670	0.676023
	O11457	O	0.770191	0.311502	0.676007
	O11458	O	0.894922	0.694577	0.688347
	O11459	O	0.895015	0.811424	0.688409
	O11460	O	0.895066	0.194757	0.688402
	O11461	O	0.895000	0.311527	0.688354
	O11462	O	0.894127	0.194761	0.669332
	O11463	O	0.894093	0.310906	0.669317
	O11464	O	0.834272	0.694181	0.632762
	O11465	O	0.800798	0.695318	0.633587
	O11466	O	0.864530	0.694518	0.730851
	O11467	O	0.864756	0.810804	0.730902
	O11468	O	0.831094	0.695555	0.731677
	O11469	O	0.831204	0.811864	0.731685
	O11470	O	0.801000	0.811794	0.633640
	O11471	O	0.834329	0.810506	0.632752
	O11472	O	0.834449	0.194636	0.632700
	O11473	O	0.800655	0.194430	0.633535
	O11474	O	0.864606	0.195015	0.730843
	O11475	O	0.864720	0.311584	0.730909
	O11476	O	0.831225	0.194706	0.731655
	O11477	O	0.831127	0.311054	0.731672
	O11478	O	0.800798	0.310954	0.633547
	O11479	O	0.834199	0.310819	0.632854
	H11480	H	0.790667	0.645288	0.706773
	H11481	H	0.790806	0.862010	0.706730
	H11482	H	0.790869	0.144527	0.706749
	H11483	H	0.790627	0.361255	0.706788
	H11484	H	0.782005	0.862764	0.662936
	H11485	H	0.781815	0.643442	0.662868
	H11486	H	0.781883	0.362604	0.662838
	H11487	H	0.781779	0.143327	0.662838
	H11488	H	0.913813	0.064579	0.678952
	H11489	H	0.913482	0.064578	0.678991
	H11490	H	0.913441	0.941273	0.678994
	H11491	H	0.913764	0.941005	0.678919
	H11492	H	0.914171	0.064335	0.679144
	H11493	H	0.914084	0.941013	0.679125
	H11494	H	0.756066	0.064944	0.685996
	H11495	H	0.756077	0.941219	0.685966
	H11496	H	0.755288	0.064617	0.684008
	H11497	H	0.755258	0.941534	0.684017
	H11498	H	0.750473	0.064385	0.683063
	H11499	H	0.750451	0.941311	0.683121
	H11500	H	0.756319	0.441311	0.681348
	H11501	H	0.748736	0.441314	0.680653
	H11502	H	0.760711	0.441001	0.686525
	H11503	H	0.917413	0.440987	0.677716
	H11504	H	0.917860	0.440644	0.680602
	H11505	H	0.914579	0.441444	0.681633
	H11506	H	0.748697	0.564611	0.680642
	H11507	H	0.756377	0.564488	0.681321
	H11508	H	0.914657	0.563874	0.681700
	H11509	H	0.917941	0.565004	0.680610
	H11510	H	0.917505	0.564459	0.677699
	H11511	H	0.760875	0.564141	0.686556
	H11512	H	0.883279	0.643365	0.701520
	H11513	H	0.883548	0.862302	0.701569
	H11514	H	0.883073	0.144183	0.701448
	H11515	H	0.883864	0.362894	0.701663
	H11516	H	0.791940	0.643697	0.647438
	H11517	H	0.853510	0.643881	0.644528
	H11518	H	0.853494	0.860539	0.644416
	H11519	H	0.792147	0.863051	0.647514
	H11520	H	0.874726	0.644514	0.657745
	H11521	H	0.874721	0.860760	0.657645
	H11522	H	0.873262	0.643257	0.716961
	H11523	H	0.873443	0.862358	0.716993
	H11524	H	0.815293	0.442020	0.624461
	H11525	H	0.846799	0.441297	0.746253
	H11526	H	0.812137	0.441636	0.623640
	H11527	H	0.811853	0.440868	0.622326
	H11528	H	0.860430	0.441263	0.741288
	H11529	H	0.857906	0.441597	0.745364
	H11530	H	0.846807	0.564669	0.746166
	H11531	H	0.815244	0.564688	0.624467
	H11532	H	0.857827	0.564678	0.745315
	H11533	H	0.860388	0.564531	0.741326
	H11534	H	0.811828	0.565265	0.622264
	H11535	H	0.812092	0.564814	0.623592
	H11536	H	0.873011	0.143962	0.716882
	H11537	H	0.873787	0.362729	0.717080
	H11538	H	0.819675	0.064864	0.627236
	H11539	H	0.823962	0.065076	0.623956
	H11540	H	0.808980	0.065038	0.626462
	H11541	H	0.812004	0.862038	0.719981
	H11542	H	0.811810	0.645427	0.720005
	H11543	H	0.811860	0.361469	0.719992
	H11544	H	0.812094	0.144183	0.719940
	H11545	H	0.791841	0.143170	0.647413
	H11546	H	0.853499	0.145113	0.644460
	H11547	H	0.853512	0.360319	0.644496
	H11548	H	0.791967	0.362312	0.647398
	H11549	H	0.874737	0.144920	0.657666
	H11550	H	0.874733	0.360133	0.657685
	H11551	H	0.860281	0.064582	0.740212
	H11552	H	0.854338	0.064637	0.736816
	H11553	H	0.843241	0.064856	0.737858
	H11554	H	0.823974	0.941965	0.623927
	H11555	H	0.819691	0.942008	0.627217
	H11556	H	0.809136	0.942030	0.626463
	H11557	H	0.860183	0.941168	0.740254
	H11558	H	0.854374	0.940694	0.736888
	H11559	H	0.843207	0.941219	0.737865
	Zn11560	Zn	0.751861	0.680304	0.685339
	Zn11561	Zn	0.751796	0.825666	0.685330
	Zn11562	Zn	0.751804	0.180511	0.685292
	Zn11563	Zn	0.751835	0.325719	0.685300
	Zn11564	Zn	0.850434	0.680064	0.741577
	Zn11565	Zn	0.850696	0.825521	0.741606
	Zn11566	Zn	0.850666	0.180249	0.741566
	Zn11567	Zn	0.850568	0.325636	0.741554
	C11568	C	0.888964	0.752713	0.666336
	C11569	C	0.776480	0.753520	0.698116
	C11570	C	0.789518	0.753795	0.705941
	C11571	C	0.795442	0.692437	0.709693
	C11572	C	0.795529	0.815032	0.709683
	C11573	C	0.776468	0.253043	0.698130
	C11574	C	0.789418	0.252961	0.705995
	C11575	C	0.795518	0.191551	0.709706
	C11576	C	0.795370	0.314257	0.709734
	C11577	C	0.773650	0.753119	0.672761
	C11578	C	0.781342	0.753060	0.663841
	C11579	C	0.784317	0.815181	0.659500
	C11580	C	0.784239	0.691115	0.659467
	C11581	C	0.773628	0.253070	0.672709
	C11582	C	0.781307	0.253000	0.663785
	C11583	C	0.784247	0.314909	0.659425
	C11584	C	0.784176	0.190902	0.659432
	C11585	C	0.913720	0.043487	0.679027
	C11586	C	0.913671	0.962667	0.679002
	C11587	C	0.754628	0.043499	0.685096
	C11588	C	0.754630	0.962602	0.685099
	C11589	C	0.749806	0.043381	0.684087
	C11590	C	0.749767	0.962669	0.684113
	C11591	C	0.752289	0.462409	0.682145
	C11592	C	0.915193	0.462607	0.677712
	C11593	C	0.915634	0.462412	0.680601
	C11594	C	0.752282	0.543187	0.682123
	C11595	C	0.915675	0.543252	0.680616
	C11596	C	0.915207	0.543264	0.677698
	C11597	C	0.891479	0.752912	0.691648
	C11598	C	0.891589	0.253234	0.691675
	C11599	C	0.883846	0.752733	0.700572
	C11600	C	0.880947	0.690839	0.704934
	C11601	C	0.881085	0.814695	0.704951
	C11602	C	0.884047	0.253530	0.700624
	C11603	C	0.880933	0.191564	0.704920
	C11604	C	0.881342	0.315440	0.705034
	C11605	C	0.888983	0.252787	0.666337
	C11606	C	0.839386	0.752255	0.635744
	C11607	C	0.798470	0.753502	0.637206
	C11608	C	0.826090	0.753767	0.728681
	C11609	C	0.869990	0.691248	0.654769
	C11610	C	0.870004	0.813830	0.654705
	C11611	C	0.852287	0.752228	0.643637
	C11612	C	0.792471	0.753361	0.646487
	C11613	C	0.789771	0.691308	0.650888
	C11614	C	0.858230	0.691087	0.647431
	C11615	C	0.858227	0.813593	0.647365
	C11616	C	0.789884	0.815267	0.650927
	C11617	C	0.875983	0.752590	0.658465
	C11618	C	0.866989	0.752656	0.727262
	C11619	C	0.875493	0.690802	0.713531
	C11620	C	0.875615	0.814755	0.713547
	C11621	C	0.872883	0.752742	0.717943
	C11622	C	0.845788	0.462568	0.743716
	C11623	C	0.812667	0.462679	0.622947
	C11624	C	0.856964	0.462707	0.742874
	C11625	C	0.845776	0.543343	0.743686
	C11626	C	0.856921	0.543397	0.742850
	C11627	C	0.812613	0.543961	0.622925
	C11628	C	0.867048	0.253356	0.727280
	C11629	C	0.875453	0.191460	0.713511
	C11630	C	0.875888	0.315306	0.713630
	C11631	C	0.873046	0.253322	0.717978
	C11632	C	0.819929	0.043780	0.624889
	C11633	C	0.839390	0.252665	0.635783
	C11634	C	0.798334	0.252732	0.637135
	C11635	C	0.826067	0.252833	0.728676
	C11636	C	0.870004	0.191638	0.654742
	C11637	C	0.870006	0.313413	0.654757
	C11638	C	0.852306	0.252551	0.643656
	C11639	C	0.792340	0.252787	0.646423
	C11640	C	0.813232	0.753746	0.720768
	C11641	C	0.807316	0.815046	0.717017
	C11642	C	0.807220	0.692432	0.717023
	C11643	C	0.813123	0.252898	0.720816
	C11644	C	0.807113	0.314308	0.717076
	C11645	C	0.807260	0.191457	0.717042
	C11646	C	0.789706	0.190819	0.650852
	C11647	C	0.858261	0.191664	0.647399
	C11648	C	0.858256	0.313505	0.647421
	C11649	C	0.789766	0.314809	0.650839
	C11650	C	0.875999	0.252493	0.658485
	C11651	C	0.855640	0.043400	0.739326
	C11652	C	0.809187	0.043807	0.624129
	C11653	C	0.819943	0.962972	0.624858
	C11654	C	0.855640	0.962454	0.739352
	C11655	C	0.809234	0.963051	0.624128
	N11656	N	0.751729	0.070207	0.685294
	N11657	N	0.751756	0.935684	0.685300
	N11658	N	0.751701	0.435649	0.685332
	N11659	N	0.751679	0.570194	0.685334
	N11660	N	0.850701	0.435719	0.741565
	N11661	N	0.850662	0.570245	0.741532
	N11662	N	0.850854	0.070275	0.741592
	N11663	N	0.850831	0.935760	0.741633
	O11664	O	0.861386	0.693860	0.799927
	O11665	O	0.861349	0.810801	0.799891
	O11666	O	0.802612	0.694278	0.816127
	O11667	O	0.802630	0.811039	0.816043
	O11668	O	0.802645	0.194532	0.816118
	O11669	O	0.802610	0.311371	0.816096
	O11670	O	0.802384	0.694561	0.793410
	O11671	O	0.802489	0.811003	0.793446
	O11672	O	0.802447	0.194710	0.793446
	O11673	O	0.802288	0.311085	0.793364
	O11674	O	0.859217	0.693788	0.821198
	O11675	O	0.858736	0.810528	0.821063
	O11676	O	0.858976	0.195210	0.821132
	O11677	O	0.859134	0.311863	0.821125
	O11678	O	0.861324	0.195149	0.799873
	O11679	O	0.861347	0.311963	0.799902
	O11680	O	0.864707	0.694357	0.753499
	O11681	O	0.831943	0.694902	0.750731
	O11682	O	0.831483	0.694625	0.864522
	O11683	O	0.831470	0.811317	0.864488
	O11684	O	0.798593	0.694893	0.862391
	O11685	O	0.798607	0.811675	0.862435
	O11686	O	0.832201	0.811654	0.750820
	O11687	O	0.864813	0.811137	0.753556
	O11688	O	0.864764	0.194911	0.753485
	O11689	O	0.832175	0.194273	0.750808
	O11690	O	0.831515	0.195791	0.864516
	O11691	O	0.831252	0.312524	0.864444
	O11692	O	0.798732	0.194838	0.862447
	O11693	O	0.798367	0.311585	0.862442
	O11694	O	0.832001	0.310920	0.750740
	O11695	O	0.864733	0.311807	0.753517
	H11696	H	0.801673	0.643207	0.831047
	H11697	H	0.801529	0.863051	0.830922
	H11698	H	0.801530	0.143019	0.831039
	H11699	H	0.801397	0.362603	0.831020
	H11700	H	0.810754	0.862228	0.779494
	H11701	H	0.811001	0.643444	0.779508
	H11702	H	0.810678	0.362210	0.779417
	H11703	H	0.811102	0.143188	0.779554
	H11704	H	0.888401	0.065379	0.818080
	H11705	H	0.892927	0.064907	0.811336
	H11706	H	0.892973	0.941283	0.811337
	H11707	H	0.888464	0.941725	0.818101
	H11708	H	0.869727	0.065380	0.819238
	H11709	H	0.869741	0.941828	0.819293
	H11710	H	0.784712	0.064498	0.803722
	H11711	H	0.784737	0.941330	0.803718
	H11712	H	0.785738	0.064761	0.805433
	H11713	H	0.785735	0.941314	0.805424
	H11714	H	0.790110	0.064182	0.806099
	H11715	H	0.790151	0.941265	0.806039
	H11716	H	0.789152	0.440901	0.803024
	H11717	H	0.787282	0.441322	0.803148
	H11718	H	0.790761	0.440893	0.804162
	H11719	H	0.878379	0.441585	0.812148
	H11720	H	0.876257	0.441680	0.812556
	H11721	H	0.874997	0.441605	0.812002
	H11722	H	0.787284	0.564053	0.803147
	H11723	H	0.789122	0.564483	0.803046
	H11724	H	0.875033	0.564802	0.811997
	H11725	H	0.876355	0.564868	0.812562
	H11726	H	0.878415	0.564965	0.812189
	H11727	H	0.790696	0.564491	0.804181
	H11728	H	0.849797	0.642343	0.835014
	H11729	H	0.849219	0.862046	0.834816
	H11730	H	0.849658	0.144045	0.834992
	H11731	H	0.849377	0.363763	0.834875
	H11732	H	0.820676	0.643276	0.763991
	H11733	H	0.863948	0.642322	0.768471
	H11734	H	0.863864	0.862131	0.768497
	H11735	H	0.820489	0.862699	0.763982
	H11736	H	0.860927	0.642218	0.784992
	H11737	H	0.860872	0.861915	0.784967
	H11738	H	0.841324	0.642528	0.850762
	H11739	H	0.840790	0.862620	0.850600
	H11740	H	0.841215	0.441359	0.742724
	H11741	H	0.810810	0.440838	0.871131
	H11742	H	0.844665	0.441165	0.737203
	H11743	H	0.852796	0.441023	0.736550
	H11744	H	0.810964	0.441695	0.876778
	H11745	H	0.807780	0.441637	0.874454
	H11746	H	0.810750	0.564570	0.871134
	H11747	H	0.841175	0.564511	0.742702
	H11748	H	0.807876	0.564974	0.874438
	H11749	H	0.810905	0.564739	0.876774
	H11750	H	0.852736	0.564455	0.736539
	H11751	H	0.844688	0.564374	0.737173
	H11752	H	0.841089	0.144337	0.850733
	H11753	H	0.840789	0.364307	0.850598
	H11754	H	0.848959	0.065000	0.746640
	H11755	H	0.857098	0.065159	0.745891
	H11756	H	0.840985	0.064430	0.742016
	H11757	H	0.798260	0.863482	0.847387
	H11758	H	0.798423	0.643662	0.847476
	H11759	H	0.798120	0.362818	0.847472
	H11760	H	0.798316	0.143088	0.847483
	H11761	H	0.820804	0.142845	0.764058
	H11762	H	0.863580	0.143374	0.768387
	H11763	H	0.863962	0.363132	0.768430
	H11764	H	0.820389	0.362149	0.763909
	H11765	H	0.860623	0.143437	0.784883
	H11766	H	0.860999	0.363275	0.784936
	H11767	H	0.810642	0.064661	0.878644
	H11768	H	0.818804	0.064398	0.878671
	H11769	H	0.823615	0.064942	0.873525
	H11770	H	0.857060	0.941442	0.745919
	H11771	H	0.848971	0.941521	0.746646
	H11772	H	0.840975	0.941473	0.742081
	H11773	H	0.810651	0.941485	0.878650
	H11774	H	0.818707	0.940894	0.878635
	H11775	H	0.823563	0.941297	0.873556
	Zn11776	Zn	0.788437	0.680128	0.804154
	Zn11777	Zn	0.788399	0.825606	0.804105
	Zn11778	Zn	0.788540	0.180092	0.804133
	Zn11779	Zn	0.788438	0.325301	0.804115
	Zn11780	Zn	0.813894	0.680260	0.874021
	Zn11781	Zn	0.813954	0.825404	0.874068
	Zn11782	Zn	0.814026	0.180327	0.874031
	Zn11783	Zn	0.813826	0.325611	0.874058
	C11784	C	0.860647	0.752239	0.796008
	C11785	C	0.802840	0.752797	0.820000
	C11786	C	0.802082	0.753158	0.830007
	C11787	C	0.800951	0.691047	0.834684
	C11788	C	0.800881	0.815384	0.834613
	C11789	C	0.802807	0.252992	0.820012
	C11790	C	0.801980	0.252913	0.830036
	C11791	C	0.800859	0.190757	0.834692
	C11792	C	0.800762	0.314959	0.834692
	C11793	C	0.804782	0.752798	0.789825
	C11794	C	0.810583	0.752842	0.780471
	C11795	C	0.812998	0.814830	0.776035
	C11796	C	0.813120	0.690951	0.776036
	C11797	C	0.804714	0.252832	0.789794
	C11798	C	0.810493	0.252776	0.780448
	C11799	C	0.812896	0.314660	0.775973
	C11800	C	0.813135	0.190712	0.776066
	C11801	C	0.886948	0.043746	0.813878
	C11802	C	0.886970	0.962784	0.813896
	C11803	C	0.786164	0.043247	0.804457
	C11804	C	0.786165	0.962356	0.804462
	C11805	C	0.790603	0.043156	0.805133
	C11806	C	0.790582	0.962443	0.805122
	C11807	C	0.788324	0.462406	0.803369
	C11808	C	0.878026	0.462971	0.811679
	C11809	C	0.875903	0.462879	0.812087
	C11810	C	0.788333	0.543079	0.803377
	C11811	C	0.875927	0.543484	0.812095
	C11812	C	0.878015	0.543824	0.811686
	C11813	C	0.856056	0.752194	0.824616
	C11814	C	0.856158	0.253626	0.824625
	C11815	C	0.849774	0.752294	0.833909
	C11816	C	0.847717	0.690189	0.838475
	C11817	C	0.847376	0.814450	0.838370
	C11818	C	0.849826	0.253935	0.833899
	C11819	C	0.847586	0.191991	0.838449
	C11820	C	0.847418	0.316135	0.838375
	C11821	C	0.860654	0.253602	0.795985
	C11822	C	0.864962	0.752601	0.757440
	C11823	C	0.828685	0.753250	0.754089
	C11824	C	0.797963	0.753417	0.858514
	C11825	C	0.861553	0.689855	0.781284
	C11826	C	0.861502	0.814261	0.781279
	C11827	C	0.864340	0.752185	0.767462
	C11828	C	0.821233	0.753036	0.763032
	C11829	C	0.818419	0.690971	0.767411
	C11830	C	0.863309	0.690051	0.772130
	C11831	C	0.863270	0.814249	0.772133
	C11832	C	0.818327	0.814959	0.767414
	C11833	C	0.860615	0.751998	0.785942
	C11834	C	0.834337	0.752948	0.860998
	C11835	C	0.843116	0.690426	0.847256
	C11836	C	0.842793	0.814636	0.847153
	C11837	C	0.840622	0.752720	0.851720
	C11838	C	0.813512	0.462579	0.871874
	C11839	C	0.849255	0.462396	0.738122
	C11840	C	0.810569	0.462610	0.875198
	C11841	C	0.813502	0.543490	0.871870
	C11842	C	0.810592	0.543358	0.875208
	C11843	C	0.849254	0.543256	0.738098
	C11844	C	0.834330	0.254154	0.860993
	C11845	C	0.843011	0.192113	0.847231
	C11846	C	0.842819	0.316351	0.847154
	C11847	C	0.840622	0.254279	0.851708
	C11848	C	0.852499	0.043583	0.745036
	C11849	C	0.864993	0.253282	0.757407
	C11850	C	0.828651	0.252577	0.754062
	C11851	C	0.797932	0.253187	0.858533
	C11852	C	0.861357	0.191171	0.781223
	C11853	C	0.861567	0.315531	0.781260
	C11854	C	0.864311	0.253256	0.767428
	C11855	C	0.821176	0.252509	0.763022
	C11856	C	0.798068	0.753640	0.848461
	C11857	C	0.798970	0.815623	0.843748
	C11858	C	0.799059	0.691381	0.843815
	C11859	C	0.797991	0.252909	0.848493
	C11860	C	0.798880	0.315043	0.843824
	C11861	C	0.798983	0.190720	0.843830
	C11862	C	0.818477	0.190611	0.767444
	C11863	C	0.863107	0.191149	0.772065
	C11864	C	0.863317	0.315403	0.772106
	C11865	C	0.818254	0.314553	0.767358
	C11866	C	0.860633	0.253365	0.785921
	C11867	C	0.814542	0.043386	0.877433
	C11868	C	0.844463	0.043329	0.740387
	C11869	C	0.852502	0.962701	0.745048
	C11870	C	0.814524	0.962603	0.877431
	C11871	C	0.844451	0.962574	0.740400
	N11872	N	0.788692	0.070131	0.804138
	N11873	N	0.788640	0.935618	0.804132
	N11874	N	0.788626	0.435481	0.804150
	N11875	N	0.788616	0.570065	0.804148
	N11876	N	0.813962	0.435962	0.874027
	N11877	N	0.813980	0.570441	0.874009
	N11878	N	0.814073	0.070184	0.874010
	N11879	N	0.814067	0.935594	0.874006
	O11880	O	0.825478	0.694555	0.931981
	O11881	O	0.825430	0.811419	0.931992
	O11882	O	0.766253	0.693223	0.948227
	O11883	O	0.766927	0.810004	0.948182
	O11884	O	0.767029	0.196141	0.948145
	O11885	O	0.766315	0.312914	0.948172
	O11886	O	0.768433	0.692734	0.926863
	O11887	O	0.769201	0.809399	0.927105
	O11888	O	0.769036	0.195930	0.927004
	O11889	O	0.768597	0.312635	0.926881
	O11890	O	0.825864	0.695197	0.954826
	O11891	O	0.825508	0.811581	0.954704
	O11892	O	0.825546	0.194462	0.954710
	O11893	O	0.825386	0.310781	0.954635
	O11894	O	0.825426	0.194454	0.932026
	O11895	O	0.825387	0.311341	0.932017
	O11896	O	0.829121	0.694127	0.885658
	O11897	O	0.796301	0.694930	0.883540
	O11898	O	0.795318	0.694952	0.997236
	O11899	O	0.795429	0.811860	0.997300
	O11900	O	0.762637	0.694700	0.994526
	O11901	O	0.762757	0.811524	0.994489
	O11902	O	0.796570	0.811669	0.883695
	O11903	O	0.829343	0.811016	0.885675
	O11904	O	0.829223	0.194911	0.885714
	O11905	O	0.796561	0.194579	0.883664
	O11906	O	0.795269	0.194189	0.997202
	O11907	O	0.795402	0.310933	0.997248
	O11908	O	0.762793	0.195817	0.994474
	O11909	O	0.762679	0.312555	0.994505
	O11910	O	0.796214	0.311215	0.883535
	O11911	O	0.829209	0.311646	0.885654
	H11912	H	0.766670	0.642114	0.963234
	H11913	H	0.767289	0.861727	0.963148
	H11914	H	0.767115	0.144708	0.963143
	H11915	H	0.766603	0.364714	0.963083
	H11916	H	0.779114	0.861711	0.913373
	H11917	H	0.777934	0.641604	0.912991
	H11918	H	0.778105	0.364072	0.913031
	H11919	H	0.778642	0.144130	0.913256
	H11920	H	0.836157	0.065002	0.939389
	H11921	H	0.830828	0.065009	0.942015
	H11922	H	0.830836	0.941313	0.942023
	H11923	H	0.836230	0.941125	0.939367
	H11924	H	0.846353	0.064637	0.941136
	H11925	H	0.846389	0.941438	0.941158
	H11926	H	0.752851	0.064264	0.934433
	H11927	H	0.752914	0.941034	0.934409
	H11928	H	0.749349	0.064680	0.934575
	H11929	H	0.749317	0.940851	0.934562
	H11930	H	0.747656	0.064757	0.936909
	H11931	H	0.747587	0.941132	0.936964
	H11932	H	0.743884	0.441335	0.931637
	H11933	H	0.739716	0.441490	0.935997
	H11934	H	0.756793	0.441359	0.931622
	H11935	H	0.836758	0.441186	0.941428
	H11936	H	0.843028	0.440939	0.941968
	H11937	H	0.844901	0.441187	0.944282
	H11938	H	0.739755	0.564531	0.935990
	H11939	H	0.743848	0.564583	0.931645
	H11940	H	0.844817	0.564584	0.944308
	H11941	H	0.843023	0.564589	0.942031
	H11942	H	0.836772	0.564679	0.941403
	H11943	H	0.756851	0.564551	0.931667
	H11944	H	0.817262	0.644097	0.968733
	H11945	H	0.816763	0.862635	0.968561
	H11946	H	0.816835	0.143224	0.968602
	H11947	H	0.816834	0.362316	0.968575
	H11948	H	0.786341	0.642491	0.897202
	H11949	H	0.829399	0.642548	0.900601
	H11950	H	0.829819	0.862680	0.900611
	H11951	H	0.787448	0.862491	0.897604
	H11952	H	0.826219	0.642850	0.917065
	H11953	H	0.826633	0.862798	0.917099
	H11954	H	0.807221	0.644221	0.984189
	H11955	H	0.806833	0.862834	0.984042
	H11956	H	0.815997	0.441062	0.871076
	H11957	H	0.774303	0.441498	1.006933
	H11958	H	0.820086	0.441077	0.874255
	H11959	H	0.817932	0.441225	0.876622
	H11960	H	0.778996	0.441026	1.007426
	H11961	H	0.776999	0.441496	1.007933
	H11962	H	0.774193	0.564613	1.006957
	H11963	H	0.815886	0.564457	0.871036
	H11964	H	0.776909	0.564954	1.007943
	H11965	H	0.778990	0.564625	1.007391
	H11966	H	0.818034	0.564372	0.876617
	H11967	H	0.820159	0.564493	0.874194
	H11968	H	0.807001	0.143163	0.984059
	H11969	H	0.806946	0.362204	0.984057
	H11970	H	0.807923	0.064749	0.869856
	H11971	H	0.804409	0.064963	0.873577
	H11972	H	0.819010	0.064730	0.869823
	H11973	H	0.764058	0.862347	0.979613
	H11974	H	0.763443	0.642769	0.979680
	H11975	H	0.763538	0.364476	0.979590
	H11976	H	0.763946	0.144787	0.979594
	H11977	H	0.787170	0.143337	0.897523
	H11978	H	0.829665	0.143656	0.900628
	H11979	H	0.829402	0.363377	0.900631
	H11980	H	0.786651	0.363387	0.897296
	H11981	H	0.826561	0.143214	0.917110
	H11982	H	0.826354	0.363060	0.917105
	H11983	H	0.774414	0.064936	1.006644
	H11984	H	0.775539	0.064592	1.007442
	H11985	H	0.778176	0.064360	1.007428
	H11986	H	0.804438	0.941616	0.873586
	H11987	H	0.807953	0.941360	0.869886
	H11988	H	0.818969	0.941332	0.869872
	H11989	H	0.774319	0.941480	1.006637
	H11990	H	0.775606	0.941080	1.007495
	H11991	H	0.778153	0.941292	1.007417
	Zn11992	Zn	0.751038	0.680933	0.936512
	Zn11993	Zn	0.751655	0.825590	0.936545
	Zn11994	Zn	0.751696	0.180340	0.936569
	Zn11995	Zn	0.751004	0.324951	0.936468
	Zn11996	Zn	0.776841	0.680481	1.006451
	Zn11997	Zn	0.776816	0.825526	1.006458
	Zn11998	Zn	0.776840	0.180342	1.006468
	Zn11999	Zn	0.776999	0.325321	1.006490
	C12000	C	0.825231	0.752974	0.928083
	C12001	C	0.767239	0.751698	0.952107
	C12002	C	0.767168	0.751869	0.962155
	C12003	C	0.766114	0.689936	0.966858
	C12004	C	0.766451	0.814170	0.966803
	C12005	C	0.767289	0.254518	0.952062
	C12006	C	0.767206	0.254693	0.962102
	C12007	C	0.766424	0.192571	0.966785
	C12008	C	0.766149	0.316880	0.966765
	C12009	C	0.771755	0.751127	0.923490
	C12010	C	0.777979	0.751537	0.914181
	C12011	C	0.780696	0.813941	0.909791
	C12012	C	0.780055	0.689622	0.909571
	C12013	C	0.771662	0.254307	0.923426
	C12014	C	0.777948	0.254200	0.914159
	C12015	C	0.780121	0.316109	0.909582
	C12016	C	0.780423	0.191806	0.909716
	C12017	C	0.835048	0.043628	0.941556
	C12018	C	0.835043	0.962437	0.941541
	C12019	C	0.751314	0.043367	0.935054
	C12020	C	0.751275	0.962427	0.935036
	C12021	C	0.749546	0.043377	0.937408
	C12022	C	0.749508	0.962387	0.937426
	C12023	C	0.744217	0.462615	0.934521
	C12024	C	0.836408	0.462553	0.942772
	C12025	C	0.842687	0.462505	0.943370
	C12026	C	0.744241	0.543386	0.934527
	C12027	C	0.842656	0.543380	0.943377
	C12028	C	0.836426	0.543287	0.942782
	C12029	C	0.823307	0.753419	0.958360
	C12030	C	0.823100	0.252692	0.958287
	C12031	C	0.817427	0.753348	0.967675
	C12032	C	0.814974	0.691544	0.972142
	C12033	C	0.814741	0.815252	0.972053
	C12034	C	0.817202	0.252794	0.967592
	C12035	C	0.814663	0.190886	0.972030
	C12036	C	0.814638	0.314690	0.972009
	C12037	C	0.825233	0.252885	0.928122
	C12038	C	0.829932	0.752526	0.889571
	C12039	C	0.793484	0.753119	0.887095
	C12040	C	0.762503	0.752997	0.990599
	C12041	C	0.826965	0.690564	0.913399
	C12042	C	0.827171	0.815023	0.913418
	C12043	C	0.829886	0.752644	0.899618
	C12044	C	0.787219	0.752494	0.896382
	C12045	C	0.784645	0.690115	0.900788
	C12046	C	0.828845	0.690389	0.904269
	C12047	C	0.829074	0.814942	0.904287
	C12048	C	0.785263	0.814427	0.901001
	C12049	C	0.826000	0.752856	0.918065
	C12050	C	0.798819	0.753469	0.993978
	C12051	C	0.809491	0.691627	0.980728
	C12052	C	0.809264	0.815393	0.980650
	C12053	C	0.806452	0.753545	0.985037
	C12054	C	0.774896	0.462550	1.006354
	C12055	C	0.817679	0.462511	0.875079
	C12056	C	0.777615	0.462459	1.007340
	C12057	C	0.774864	0.543474	1.006350
	C12058	C	0.777586	0.543454	1.007348
	C12059	C	0.817720	0.543396	0.875065
	C12060	C	0.798803	0.252549	0.993940
	C12061	C	0.809233	0.190797	0.980628
	C12062	C	0.809213	0.314642	0.980614
	C12063	C	0.806356	0.252723	0.984987
	C12064	C	0.808243	0.043445	0.872325
	C12065	C	0.829860	0.253419	0.889592
	C12066	C	0.793491	0.252969	0.887097
	C12067	C	0.762508	0.254295	0.990569
	C12068	C	0.827122	0.191062	0.913448
	C12069	C	0.827022	0.315298	0.913444
	C12070	C	0.829898	0.253455	0.899655
	C12071	C	0.787130	0.253371	0.896355
	C12072	C	0.763272	0.752615	0.980598
	C12073	C	0.764571	0.814530	0.975939
	C12074	C	0.764264	0.690293	0.975994
	C12075	C	0.763335	0.254634	0.980561
	C12076	C	0.764315	0.316858	0.975909
	C12077	C	0.764559	0.192525	0.975916
	C12078	C	0.785033	0.191408	0.900942
	C12079	C	0.829012	0.191285	0.904314
	C12080	C	0.828873	0.315550	0.904308
	C12081	C	0.784745	0.315681	0.900809
	C12082	C	0.825960	0.253075	0.918115
	C12083	C	0.775375	0.043521	1.006895
	C12084	C	0.819387	0.043313	0.872304
	C12085	C	0.808263	0.962663	0.872334
	C12086	C	0.775363	0.962437	1.006891
	C12087	C	0.819371	0.962455	0.872314
	N12088	N	0.751732	0.070272	0.936533
	N12089	N	0.751715	0.935794	0.936545
	N12090	N	0.750979	0.435510	0.936500
	N12091	N	0.751003	0.570238	0.936521
	N12092	N	0.776773	0.435677	1.006477
	N12093	N	0.776713	0.570283	1.006473
	N12094	N	0.776606	0.070309	1.006418
	N12095	N	0.776592	0.935740	1.006437
	O12096	O	0.945695	0.694728	0.058454
	O12097	O	0.945814	0.811482	0.058450
	O12098	O	0.890153	0.694711	0.074757
	O12099	O	0.889777	0.811680	0.074741
	O12100	O	0.889992	0.194854	0.074753
	O12101	O	0.889821	0.311656	0.074736
	O12102	O	0.889253	0.694319	0.052164
	O12103	O	0.889198	0.810889	0.052186
	O12104	O	0.889366	0.195074	0.052285
	O12105	O	0.889237	0.311410	0.052197
	O12106	O	0.946634	0.695124	0.081123
	O12107	O	0.946472	0.811473	0.081054
	O12108	O	0.946492	0.194959	0.081048
	O12109	O	0.946434	0.311323	0.081010
	O12110	O	0.945872	0.194326	0.058498
	O12111	O	0.945721	0.311394	0.058468
	O12112	O	0.952546	0.694147	0.012262
	O12113	O	0.919671	0.694498	0.009721
	O12114	O	0.916009	0.694766	0.123491
	O12115	O	0.916075	0.811453	0.123580
	O12116	O	0.883143	0.695740	0.120896
	O12117	O	0.883183	0.812627	0.120935
	O12118	O	0.919611	0.811431	0.009711
	O12119	O	0.952557	0.810918	0.012234
	O12120	O	0.952472	0.194507	0.012293
	O12121	O	0.919409	0.194750	0.009654
	O12122	O	0.916068	0.194547	0.123491
	O12123	O	0.916070	0.311457	0.123525
	O12124	O	0.883132	0.194553	0.120924
	O12125	O	0.883108	0.311478	0.120894
	O12126	O	0.919604	0.311465	0.009757
	O12127	O	0.952545	0.311172	0.012282
	H12128	H	0.888308	0.643759	0.089684
	H12129	H	0.888858	0.863539	0.089637
	H12130	H	0.888695	0.143538	0.089673
	H12131	H	0.888625	0.363190	0.089685
	H12132	H	0.897913	0.862353	0.038271
	H12133	H	0.897906	0.643020	0.038267
	H12134	H	0.897521	0.362394	0.038240
	H12135	H	0.898044	0.143488	0.038355
	H12136	H	0.958481	0.064483	0.071522
	H12137	H	0.961013	0.064328	0.071901
	H12138	H	0.960999	0.941257	0.071837
	H12139	H	0.958489	0.941245	0.071484
	H12140	H	0.957390	0.064870	0.069744
	H12141	H	0.957419	0.940958	0.069698
	H12142	H	0.882713	0.064423	0.061806
	H12143	H	0.882755	0.941721	0.061753
	H12144	H	0.878040	0.065034	0.059181
	H12145	H	0.877994	0.941399	0.059159
	H12146	H	0.869222	0.064849	0.060056
	H12147	H	0.869186	0.941257	0.060022
	H12148	H	0.868871	0.441717	0.062352
	H12149	H	0.870749	0.441582	0.065135
	H12150	H	0.873664	0.441468	0.059589
	H12151	H	0.954979	0.441048	0.072605
	H12152	H	0.954019	0.441070	0.068249
	H12153	H	0.958896	0.441413	0.066540
	H12154	H	0.870792	0.564925	0.065154
	H12155	H	0.868942	0.565051	0.062369
	H12156	H	0.958776	0.564760	0.066576
	H12157	H	0.953961	0.564214	0.068266
	H12158	H	0.955005	0.564705	0.072655
	H12159	H	0.873678	0.564971	0.059631
	H12160	H	0.937980	0.644189	0.095028
	H12161	H	0.937565	0.863197	0.094927
	H12162	H	0.937851	0.143699	0.094956
	H12163	H	0.937787	0.362641	0.094957
	H12164	H	0.907913	0.643234	0.022793
	H12165	H	0.951242	0.642682	0.027157
	H12166	H	0.951507	0.862336	0.027162
	H12167	H	0.907862	0.862355	0.022826
	H12168	H	0.947010	0.642875	0.043518
	H12169	H	0.947342	0.862495	0.043534
	H12170	H	0.927910	0.644131	0.110443
	H12171	H	0.927519	0.862949	0.110385
	H12172	H	0.942805	0.441374	0.003482
	H12173	H	0.892361	0.441316	0.132940
	H12174	H	0.934437	0.441399	0.003678
	H12175	H	0.930885	0.441759	0.000915
	H12176	H	0.900847	0.441269	0.135069
	H12177	H	0.896558	0.441551	0.135479
	H12178	H	0.892304	0.564742	0.132932
	H12179	H	0.942762	0.565180	0.003472
	H12180	H	0.896467	0.565069	0.135434
	H12181	H	0.900877	0.564688	0.135053
	H12182	H	0.930877	0.564571	0.000872
	H12183	H	0.934488	0.564648	0.003642
	H12184	H	0.927914	0.143921	0.110426
	H12185	H	0.927764	0.362566	0.110400
	H12186	H	0.941943	0.064341	-0.000110
	H12187	H	0.939468	0.064939	-0.001534
	H12188	H	0.940548	0.064699	0.002321
	H12189	H	0.884661	0.864049	0.105995
	H12190	H	0.884111	0.644509	0.106076
	H12191	H	0.884504	0.362859	0.106041
	H12192	H	0.884494	0.143415	0.106065
	H12193	H	0.907887	0.143460	0.022857
	H12194	H	0.951216	0.142709	0.027216
	H12195	H	0.951226	0.362568	0.027176
	H12196	H	0.907408	0.362529	0.022795
	H12197	H	0.947181	0.142938	0.043603
	H12198	H	0.947167	0.362639	0.043558
	H12199	H	0.898348	0.064947	0.130269
	H12200	H	0.894298	0.064434	0.130716
	H12201	H	0.893081	0.064697	0.133629
	H12202	H	0.939394	0.940917	-0.001519
	H12203	H	0.941864	0.941629	-0.000159
	H12204	H	0.940589	0.941633	0.002306
	H12205	H	0.898357	0.941132	0.130265
	H12206	H	0.894330	0.940984	0.130752
	H12207	H	0.893109	0.941332	0.133668
	Zn12208	Zn	0.875366	0.680427	0.062931
	Zn12209	Zn	0.875346	0.825878	0.062915
	Zn12210	Zn	0.875287	0.180590	0.062987
	Zn12211	Zn	0.875231	0.326110	0.062905
	Zn12212	Zn	0.897536	0.680710	0.132748
	Zn12213	Zn	0.897650	0.825846	0.132835
	Zn12214	Zn	0.897693	0.180394	0.132768
	Zn12215	Zn	0.897666	0.325691	0.132766
	C12216	C	0.945599	0.753064	0.054533
	C12217	C	0.890102	0.753212	0.078652
	C12218	C	0.889026	0.753487	0.088663
	C12219	C	0.887601	0.691613	0.093316
	C12220	C	0.887860	0.815839	0.093279
	C12221	C	0.890069	0.253300	0.078655
	C12222	C	0.889069	0.253313	0.088663
	C12223	C	0.887819	0.191202	0.093305
	C12224	C	0.887805	0.315287	0.093307
	C12225	C	0.891558	0.752673	0.048565
	C12226	C	0.897403	0.752682	0.039231
	C12227	C	0.900026	0.814737	0.034821
	C12228	C	0.900026	0.690669	0.034816
	C12229	C	0.891647	0.253133	0.048622
	C12230	C	0.897480	0.252908	0.039289
	C12231	C	0.899844	0.314853	0.034825
	C12232	C	0.900116	0.191009	0.034881
	C12233	C	0.959855	0.043143	0.071338
	C12234	C	0.959860	0.962654	0.071322
	C12235	C	0.879076	0.043480	0.061144
	C12236	C	0.879079	0.962741	0.061120
	C12237	C	0.870220	0.043443	0.062067
	C12238	C	0.870252	0.962635	0.062058
	C12239	C	0.871333	0.462827	0.063521
	C12240	C	0.958386	0.462497	0.072531
	C12241	C	0.957407	0.462698	0.068143
	C12242	C	0.871358	0.543517	0.063534
	C12243	C	0.957408	0.543279	0.068164
	C12244	C	0.958416	0.543627	0.072547
	C12245	C	0.944112	0.753386	0.084679
	C12246	C	0.944119	0.253173	0.084640
	C12247	C	0.938203	0.753690	0.093989
	C12248	C	0.935716	0.691798	0.098436
	C12249	C	0.935486	0.815575	0.098389
	C12250	C	0.938292	0.253169	0.093972
	C12251	C	0.935724	0.191319	0.098404
	C12252	C	0.935683	0.315065	0.098395
	C12253	C	0.945665	0.252800	0.054583
	C12254	C	0.952745	0.752578	0.016164
	C12255	C	0.916145	0.752933	0.012982
	C12256	C	0.882969	0.754285	0.117008
	C12257	C	0.947903	0.690608	0.039879
	C12258	C	0.948064	0.814706	0.039892
	C12259	C	0.951716	0.752555	0.026167
	C12260	C	0.908423	0.752756	0.021879
	C12261	C	0.905526	0.690676	0.026227
	C12262	C	0.950360	0.690460	0.030797
	C12263	C	0.950511	0.814647	0.030810
	C12264	C	0.905522	0.814725	0.026239
	C12265	C	0.946641	0.752789	0.044525
	C12266	C	0.919481	0.753255	0.120243
	C12267	C	0.930216	0.691709	0.107015
	C12268	C	0.929999	0.815508	0.106977
	C12269	C	0.927172	0.753599	0.111342
	C12270	C	0.894147	0.462718	0.132090
	C12271	C	0.934112	0.462926	0.001816
	C12272	C	0.898394	0.462628	0.134592
	C12273	C	0.894102	0.543311	0.132068
	C12274	C	0.898345	0.543481	0.134573
	C12275	C	0.934098	0.543408	0.001785
	C12276	C	0.919557	0.253082	0.120239
	C12277	C	0.930261	0.191321	0.106997
	C12278	C	0.930199	0.315095	0.106987
	C12279	C	0.927325	0.253211	0.111344
	C12280	C	0.940014	0.043577	-0.000492
	C12281	C	0.952680	0.252810	0.016211
	C12282	C	0.916005	0.253053	0.012982
	C12283	C	0.882967	0.252967	0.117006
	C12284	C	0.948010	0.190612	0.039946
	C12285	C	0.947990	0.314775	0.039912
	C12286	C	0.951664	0.252548	0.026204
	C12287	C	0.908336	0.252946	0.021889
	C12288	C	0.884024	0.754224	0.107008
	C12289	C	0.885459	0.816245	0.102361
	C12290	C	0.885184	0.691956	0.102401
	C12291	C	0.884035	0.253115	0.107006
	C12292	C	0.885370	0.315207	0.102389
	C12293	C	0.885387	0.191040	0.102393
	C12294	C	0.905534	0.191049	0.026268
	C12295	C	0.950381	0.190527	0.030858
	C12296	C	0.950366	0.314765	0.030822
	C12297	C	0.905275	0.314816	0.026227
	C12298	C	0.946722	0.252714	0.044573
	C12299	C	0.896667	0.043325	0.131091
	C12300	C	0.938653	0.043642	0.001928
	C12301	C	0.939960	0.962580	-0.000497
	C12302	C	0.896670	0.962397	0.131112
	C12303	C	0.938633	0.962531	0.001923
	N12304	N	0.875392	0.070302	0.062974
	N12305	N	0.875403	0.935798	0.062947
	N12306	N	0.875341	0.435882	0.062933
	N12307	N	0.875415	0.570397	0.062946
	N12308	N	0.897571	0.435835	0.132767
	N12309	N	0.897476	0.570439	0.132739
	N12310	N	0.897575	0.070214	0.132818
	N12311	N	0.897570	0.935718	0.132841
	O12312	O	0.980964	0.694418	0.177310
	O12313	O	0.980831	0.810437	0.177407
	O12314	O	0.855075	0.694751	0.204984
	O12315	O	0.855046	0.810867	0.204916
	O12316	O	0.854990	0.195112	0.204935
	O12317	O	0.855144	0.311412	0.204906
	O12318	O	0.853563	0.694672	0.186096
	O12319	O	0.853556	0.811254	0.186001
	O12320	O	0.853572	0.194925	0.186022
	O12321	O	0.853593	0.311663	0.185988
	O12322	O	0.987323	0.695107	0.197274
	O12323	O	0.987091	0.811290	0.197228
	O12324	O	0.987322	0.195566	0.197244
	O12325	O	0.987310	0.311377	0.197232
	O12326	O	0.980663	0.194682	0.177379
	O12327	O	0.980831	0.310643	0.177304
	O12328	O	0.917474	0.694309	0.142466
	O12329	O	0.883683	0.694682	0.143477
	O12330	O	0.952529	0.695242	0.238382
	O12331	O	0.952321	0.811208	0.238305
	O12332	O	0.918295	0.695127	0.239921
	O12333	O	0.918360	0.811180	0.239849
	O12334	O	0.883727	0.811165	0.143520
	O12335	O	0.917572	0.810444	0.142515
	O12336	O	0.917423	0.194850	0.142427
	O12337	O	0.883992	0.194606	0.143573
	O12338	O	0.952623	0.195359	0.238376
	O12339	O	0.952492	0.311322	0.238350
	O12340	O	0.918394	0.194874	0.239800
	O12341	O	0.918244	0.310923	0.239840
	O12342	O	0.883718	0.311081	0.143456
	O12343	O	0.917531	0.311005	0.142386
	H12344	H	0.875454	0.644628	0.216116
	H12345	H	0.875605	0.861872	0.216031
	H12346	H	0.875288	0.144514	0.216106
	H12347	H	0.875377	0.361400	0.216130
	H12348	H	0.865464	0.862174	0.172928
	H12349	H	0.864879	0.643373	0.172817
	H12350	H	0.864969	0.362753	0.172774
	H12351	H	0.865629	0.143628	0.172947
	H12352	H	0.995901	0.064989	0.185013
	H12353	H	0.995871	0.064670	0.187646
	H12354	H	0.995867	0.941422	0.187645
	H12355	H	0.995960	0.941662	0.185011
	H12356	H	1.001887	0.064781	0.183480
	H12357	H	1.001945	0.941482	0.183533
	H12358	H	0.827998	0.064846	0.195913
	H12359	H	0.828055	0.941319	0.195899
	H12360	H	0.831811	0.064880	0.198589
	H12361	H	0.831843	0.941479	0.198606
	H12362	H	0.840196	0.065238	0.198370
	H12363	H	0.840237	0.941503	0.198349
	H12364	H	0.830836	0.441788	0.194473
	H12365	H	0.831375	0.441356	0.196388
	H12366	H	0.834878	0.440953	0.192891
	H12367	H	1.005017	0.441466	0.186343
	H12368	H	1.002986	0.441285	0.188316
	H12369	H	0.999883	0.441566	0.188307
	H12370	H	0.831357	0.564900	0.196414
	H12371	H	0.830768	0.564809	0.194463
	H12372	H	0.999819	0.564859	0.188350
	H12373	H	1.003049	0.564859	0.188340
	H12374	H	1.004928	0.564738	0.186351
	H12375	H	0.834803	0.564744	0.192894
	H12376	H	0.975955	0.645733	0.210336
	H12377	H	0.975876	0.861008	0.210316
	H12378	H	0.975784	0.145652	0.210279
	H12379	H	0.976086	0.361367	0.210376
	H12380	H	0.874753	0.643552	0.157335
	H12381	H	0.937821	0.643720	0.153699
	H12382	H	0.937842	0.860183	0.153638
	H12383	H	0.875337	0.862238	0.157457
	H12384	H	0.960418	0.643944	0.166250
	H12385	H	0.960478	0.860636	0.166208
	H12386	H	0.963722	0.645661	0.225231
	H12387	H	0.963650	0.860809	0.225254
	H12388	H	0.893609	0.441475	0.130765
	H12389	H	0.941709	0.441723	0.248144
	H12390	H	0.899531	0.441182	0.130228
	H12391	H	0.902683	0.441186	0.132063
	H12392	H	0.935501	0.441494	0.248027
	H12393	H	0.937882	0.441224	0.247168
	H12394	H	0.941677	0.564431	0.248210
	H12395	H	0.893592	0.564652	0.130761
	H12396	H	0.937861	0.565124	0.247184
	H12397	H	0.935412	0.564957	0.248106
	H12398	H	0.902541	0.564967	0.132040
	H12399	H	0.899461	0.564817	0.130204
	H12400	H	0.963575	0.145634	0.225187
	H12401	H	0.963965	0.361058	0.225323
	H12402	H	0.901598	0.064542	0.134654
	H12403	H	0.902615	0.064628	0.132453
	H12404	H	0.896131	0.064924	0.135233
	H12405	H	0.898097	0.861602	0.228648
	H12406	H	0.897961	0.644580	0.228747
	H12407	H	0.897897	0.361412	0.228707
	H12408	H	0.897853	0.144444	0.228733
	H12409	H	0.875633	0.143696	0.157481
	H12410	H	0.937775	0.144642	0.153573
	H12411	H	0.937797	0.360454	0.153604
	H12412	H	0.874924	0.362649	0.157305
	H12413	H	0.960285	0.144859	0.166204
	H12414	H	0.960284	0.360422	0.166244
	H12415	H	0.933306	0.064534	0.250618
	H12416	H	0.937738	0.064670	0.252366
	H12417	H	0.944303	0.064759	0.250930
	H12418	H	0.902537	0.941507	0.132493
	H12419	H	0.901599	0.941549	0.134654
	H12420	H	0.896076	0.941269	0.135230
	H12421	H	0.933308	0.941354	0.250638
	H12422	H	0.937774	0.941625	0.252377
	H12423	H	0.944359	0.941507	0.250923
	Zn12424	Zn	0.835119	0.680541	0.195331
	Zn12425	Zn	0.835164	0.825635	0.195291
	Zn12426	Zn	0.835191	0.180521	0.195258
	Zn12427	Zn	0.835213	0.325695	0.195251
	Zn12428	Zn	0.938640	0.680453	0.249102
	Zn12429	Zn	0.938670	0.825871	0.249091
	Zn12430	Zn	0.938705	0.180384	0.249060
	Zn12431	Zn	0.938660	0.325823	0.249027
	C12432	C	0.975539	0.752480	0.174481
	C12433	C	0.860477	0.752952	0.207782
	C12434	C	0.874148	0.753162	0.215303
	C12435	C	0.880455	0.691798	0.218920
	C12436	C	0.880529	0.814558	0.218869
	C12437	C	0.860386	0.253174	0.207802
	C12438	C	0.873999	0.252946	0.215347
	C12439	C	0.880328	0.191566	0.218918
	C12440	C	0.880379	0.314212	0.218919
	C12441	C	0.857012	0.752813	0.182756
	C12442	C	0.864642	0.752669	0.173826
	C12443	C	0.867648	0.814584	0.169485
	C12444	C	0.867354	0.690879	0.169426
	C12445	C	0.857016	0.253226	0.182708
	C12446	C	0.864641	0.253126	0.173797
	C12447	C	0.867420	0.315066	0.169396
	C12448	C	0.867785	0.191275	0.169494
	C12449	C	0.997306	0.043527	0.186393
	C12450	C	0.997344	0.962744	0.186388
	C12451	C	0.831269	0.043518	0.196751
	C12452	C	0.831273	0.962663	0.196759
	C12453	C	0.839718	0.043610	0.196469
	C12454	C	0.839701	0.962658	0.196467
	C12455	C	0.832114	0.462765	0.195381
	C12456	C	1.003317	0.462799	0.185864
	C12457	C	1.001363	0.462735	0.187848
	C12458	C	0.832091	0.543412	0.195385
	C12459	C	1.001363	0.543559	0.187863
	C12460	C	1.003299	0.543638	0.185857
	C12461	C	0.984160	0.753221	0.200617
	C12462	C	0.984272	0.253495	0.200617
	C12463	C	0.976571	0.753305	0.209477
	C12464	C	0.973194	0.692305	0.213659
	C12465	C	0.973172	0.814326	0.213661
	C12466	C	0.976595	0.253557	0.209448
	C12467	C	0.973114	0.192394	0.213609
	C12468	C	0.973315	0.314540	0.213680
	C12469	C	0.975369	0.252702	0.174482
	C12470	C	0.922912	0.752234	0.145333
	C12471	C	0.881349	0.752849	0.147097
	C12472	C	0.913017	0.753115	0.236995
	C12473	C	0.955403	0.690954	0.163441
	C12474	C	0.955407	0.813561	0.163419
	C12475	C	0.936567	0.752033	0.152861
	C12476	C	0.875509	0.752794	0.156426
	C12477	C	0.872774	0.690952	0.160818
	C12478	C	0.942882	0.690785	0.156460
	C12479	C	0.942887	0.813280	0.156438
	C12480	C	0.873103	0.814657	0.160885
	C12481	C	0.961801	0.752409	0.166985
	C12482	C	0.955476	0.753207	0.234971
	C12483	C	0.966449	0.692294	0.221925
	C12484	C	0.966443	0.814350	0.221930
	C12485	C	0.963094	0.753353	0.226121
	C12486	C	0.941031	0.462966	0.248983
	C12487	C	0.900137	0.462559	0.131567
	C12488	C	0.937194	0.462549	0.247993
	C12489	C	0.941021	0.543558	0.249015
	C12490	C	0.937202	0.543673	0.248015
	C12491	C	0.900079	0.543758	0.131532
	C12492	C	0.955572	0.253315	0.234983
	C12493	C	0.966388	0.192236	0.221886
	C12494	C	0.966611	0.314509	0.221963
	C12495	C	0.963146	0.253363	0.226119
	C12496	C	0.900900	0.043349	0.133337
	C12497	C	0.922845	0.252828	0.145261
	C12498	C	0.881474	0.252946	0.147112
	C12499	C	0.912952	0.252857	0.236961
	C12500	C	0.955271	0.191612	0.163392
	C12501	C	0.955276	0.313597	0.163418
	C12502	C	0.936483	0.252555	0.152791
	C12503	C	0.875588	0.253115	0.156434
	C12504	C	0.899309	0.753042	0.229481
	C12505	C	0.893016	0.814474	0.225878
	C12506	C	0.892934	0.691748	0.225922
	C12507	C	0.899210	0.252843	0.229473
	C12508	C	0.892871	0.314237	0.225914
	C12509	C	0.892849	0.191491	0.225916
	C12510	C	0.873252	0.191216	0.160902
	C12511	C	0.942795	0.191406	0.156382
	C12512	C	0.942809	0.313615	0.156407
	C12513	C	0.872870	0.315112	0.160800
	C12514	C	0.961632	0.252665	0.166975
	C12515	C	0.936352	0.043468	0.250879
	C12516	C	0.895374	0.043597	0.134004
	C12517	C	0.900901	0.962771	0.133370
	C12518	C	0.936374	0.962722	0.250886
	C12519	C	0.895368	0.962529	0.134012
	N12520	N	0.835120	0.070276	0.195305
	N12521	N	0.835108	0.935714	0.195292
	N12522	N	0.835005	0.435886	0.195256
	N12523	N	0.834970	0.570485	0.195265
	N12524	N	0.938656	0.435921	0.249018
	N12525	N	0.938632	0.570444	0.249068
	N12526	N	0.938744	0.070445	0.249074
	N12527	N	0.938749	0.935936	0.249071
	O12528	O	1.021942	0.695335	0.293275
	O12529	O	1.022063	0.811530	0.293244
	O12530	O	0.896670	0.694709	0.320801
	O12531	O	0.896834	0.810768	0.320741
	O12532	O	0.896599	0.195389	0.320868
	O12533	O	0.896710	0.311568	0.320825
	O12534	O	0.890112	0.694787	0.300887
	O12535	O	0.890277	0.810912	0.300889
	O12536	O	0.890189	0.195398	0.300933
	O12537	O	0.890316	0.311224	0.300888
	O12538	O	1.023568	0.694679	0.312224
	O12539	O	1.023522	0.811571	0.312212
	O12540	O	1.023524	0.194643	0.312195
	O12541	O	1.023635	0.311399	0.312262
	O12542	O	1.022054	0.194918	0.293266
	O12543	O	1.022081	0.311324	0.293299
	O12544	O	0.959184	0.695307	0.258193
	O12545	O	0.924868	0.694622	0.259832
	O12546	O	0.993456	0.695211	0.354722
	O12547	O	0.993208	0.811531	0.354680
	O12548	O	0.959674	0.694703	0.355851
	O12549	O	0.959629	0.811063	0.355787
	O12550	O	0.924992	0.810696	0.259854
	O12551	O	0.959092	0.811320	0.258225
	O12552	O	0.959050	0.195485	0.258268
	O12553	O	0.924859	0.194455	0.259820
	O12554	O	0.993327	0.194413	0.354708
	O12555	O	0.993451	0.310929	0.354733
	O12556	O	0.959727	0.194885	0.355823
	O12557	O	0.959771	0.311037	0.355796
	O12558	O	0.924830	0.310647	0.259761
	O12559	O	0.959032	0.311561	0.258278
	H12560	H	0.917028	0.644105	0.331958
	H12561	H	0.917020	0.860990	0.331953
	H12562	H	0.917011	0.145041	0.332003
	H12563	H	0.916924	0.361333	0.332055
	H12564	H	0.901390	0.860593	0.287800
	H12565	H	0.901167	0.644828	0.287749
	H12566	H	0.901228	0.361178	0.287694
	H12567	H	0.901696	0.145169	0.287932
	H12568	H	1.041334	0.064801	0.306045
	H12569	H	1.046160	0.064897	0.305437
	H12570	H	1.046280	0.940758	0.305456
	H12571	H	1.041438	0.941788	0.306111
	H12572	H	1.036174	0.064591	0.303457
	H12573	H	1.036132	0.941560	0.303465
	H12574	H	0.878310	0.065199	0.313243
	H12575	H	0.878452	0.941590	0.313221
	H12576	H	0.879806	0.064890	0.311924
	H12577	H	0.879981	0.941926	0.311956
	H12578	H	0.877855	0.064983	0.310026
	H12579	H	0.877931	0.941421	0.310037
	H12580	H	0.870213	0.441357	0.312046
	H12581	H	0.873438	0.441387	0.314390
	H12582	H	0.872986	0.440891	0.308656
	H12583	H	1.032766	0.441117	0.304083
	H12584	H	1.036086	0.441121	0.298729
	H12585	H	1.043909	0.441583	0.298087
	H12586	H	0.873427	0.564900	0.314392
	H12587	H	0.870221	0.564455	0.312117
	H12588	H	1.043856	0.564716	0.298026
	H12589	H	1.036038	0.564587	0.298713
	H12590	H	1.032723	0.564989	0.304067
	H12591	H	0.873089	0.564513	0.308690
	H12592	H	1.011853	0.643539	0.325331
	H12593	H	1.011697	0.862759	0.325286
	H12594	H	1.011545	0.143109	0.325285
	H12595	H	1.012056	0.362558	0.325435
	H12596	H	0.913439	0.644870	0.272833
	H12597	H	0.979466	0.644937	0.269394
	H12598	H	0.979400	0.861655	0.269325
	H12599	H	0.913619	0.860678	0.272883
	H12600	H	1.001840	0.645143	0.282075
	H12601	H	1.001783	0.861910	0.282029
	H12602	H	1.001877	0.643645	0.340796
	H12603	H	1.001705	0.862894	0.340729
	H12604	H	0.942063	0.441468	0.249758
	H12605	H	0.977336	0.440988	0.364947
	H12606	H	0.938728	0.441151	0.250942
	H12607	H	0.935998	0.441919	0.250210
	H12608	H	0.980105	0.441072	0.366717
	H12609	H	0.978073	0.441714	0.366368
	H12610	H	0.977338	0.564641	0.364989
	H12611	H	0.942046	0.565071	0.249778
	H12612	H	0.978194	0.564379	0.366420
	H12613	H	0.980178	0.565173	0.366745
	H12614	H	0.935943	0.564511	0.250246
	H12615	H	0.938739	0.565249	0.250964
	H12616	H	1.001585	0.143262	0.340750
	H12617	H	1.002122	0.362299	0.340880
	H12618	H	0.938580	0.065130	0.245731
	H12619	H	0.933774	0.065020	0.246799
	H12620	H	0.944687	0.064577	0.248119
	H12621	H	0.939405	0.861039	0.344615
	H12622	H	0.939465	0.644255	0.344645
	H12623	H	0.939401	0.361291	0.344685
	H12624	H	0.939489	0.144884	0.344634
	H12625	H	0.913894	0.144771	0.273005
	H12626	H	0.979402	0.145470	0.269396
	H12627	H	0.979443	0.361713	0.269449
	H12628	H	0.913334	0.360734	0.272756
	H12629	H	1.001786	0.145194	0.282066
	H12630	H	1.001823	0.361454	0.282116
	H12631	H	0.973245	0.064761	0.369550
	H12632	H	0.981758	0.064718	0.370938
	H12633	H	0.989932	0.064767	0.366643
	H12634	H	0.933716	0.941366	0.246834
	H12635	H	0.938574	0.941707	0.245716
	H12636	H	0.944670	0.941430	0.248113
	H12637	H	0.973280	0.941507	0.369523
	H12638	H	0.981727	0.941255	0.370911
	H12639	H	0.989913	0.941428	0.366622
	Zn12640	Zn	0.876275	0.680402	0.311639
	Zn12641	Zn	0.876479	0.825926	0.311614
	Zn12642	Zn	0.876322	0.180506	0.311632
	Zn12643	Zn	0.876391	0.325925	0.311592
	Zn12644	Zn	0.979615	0.680777	0.365480
	Zn12645	Zn	0.979571	0.825693	0.365467
	Zn12646	Zn	0.979612	0.180782	0.365471
	Zn12647	Zn	0.979597	0.325545	0.365454
	C12648	C	1.016673	0.753500	0.290384
	C12649	C	0.902087	0.752702	0.323637
	C12650	C	0.915722	0.752552	0.331172
	C12651	C	0.922045	0.691246	0.334760
	C12652	C	0.922030	0.813950	0.334752
	C12653	C	0.901984	0.253411	0.323719
	C12654	C	0.915667	0.253211	0.331258
	C12655	C	0.922007	0.191979	0.334818
	C12656	C	0.921962	0.314384	0.334843
	C12657	C	0.893140	0.752776	0.297498
	C12658	C	0.900682	0.752686	0.288629
	C12659	C	0.904091	0.813905	0.284462
	C12660	C	0.903972	0.691503	0.284432
	C12661	C	0.893274	0.253203	0.297530
	C12662	C	0.900867	0.253086	0.288677
	C12663	C	0.904093	0.314258	0.284423
	C12664	C	0.904333	0.191777	0.284554
	C12665	C	1.043368	0.043581	0.305012
	C12666	C	1.043399	0.962600	0.305037
	C12667	C	0.878376	0.043611	0.312327
	C12668	C	0.878430	0.962894	0.312330
	C12669	C	0.876414	0.043693	0.310400
	C12670	C	0.876434	0.962757	0.310385
	C12671	C	0.873058	0.462697	0.312794
	C12672	C	1.037226	0.462588	0.305027
	C12673	C	1.040543	0.462686	0.299590
	C12674	C	0.873024	0.543474	0.312794
	C12675	C	1.040533	0.543329	0.299569
	C12676	C	1.037187	0.543412	0.305025
	C12677	C	1.020001	0.753112	0.315470
	C12678	C	1.020131	0.252989	0.315522
	C12679	C	1.012310	0.753063	0.324384
	C12680	C	1.009496	0.691113	0.328750
	C12681	C	1.009383	0.815140	0.328725
	C12682	C	1.012447	0.252871	0.324439
	C12683	C	1.009341	0.190764	0.328732
	C12684	C	1.009616	0.314869	0.328813
	C12685	C	1.016727	0.253125	0.290413
	C12686	C	0.964466	0.753306	0.261074
	C12687	C	0.921861	0.752679	0.263201
	C12688	C	0.954315	0.752775	0.352952
	C12689	C	0.996835	0.692116	0.279244
	C12690	C	0.996812	0.814865	0.279208
	C12691	C	0.978114	0.753355	0.268604
	C12692	C	0.914180	0.752753	0.272011
	C12693	C	0.910715	0.691595	0.276167
	C12694	C	0.984424	0.692060	0.272210
	C12695	C	0.984407	0.814711	0.272172
	C12696	C	0.910824	0.813884	0.276194
	C12697	C	1.003067	0.753532	0.282829
	C12698	C	0.995619	0.753362	0.351077
	C12699	C	1.004014	0.691208	0.337339
	C12700	C	1.003887	0.815167	0.337310
	C12701	C	1.001372	0.753191	0.341744
	C12702	C	0.978486	0.462479	0.364806
	C12703	C	0.937709	0.462797	0.250183
	C12704	C	0.979286	0.462798	0.366255
	C12705	C	0.978468	0.543642	0.364828
	C12706	C	0.979335	0.543627	0.366279
	C12707	C	0.937734	0.543568	0.250211
	C12708	C	0.995754	0.252699	0.351123
	C12709	C	1.003921	0.190751	0.337337
	C12710	C	1.004228	0.314781	0.337416
	C12711	C	1.001562	0.252722	0.341807
	C12712	C	0.936847	0.043767	0.247001
	C12713	C	0.964399	0.253540	0.261134
	C12714	C	0.921848	0.252665	0.263169
	C12715	C	0.954400	0.252947	0.352939
	C12716	C	0.996834	0.192186	0.279240
	C12717	C	0.996838	0.314577	0.279279
	C12718	C	0.978055	0.253605	0.268660
	C12719	C	0.914282	0.252775	0.272025
	C12720	C	0.940752	0.752603	0.345382
	C12721	C	0.934426	0.813928	0.341787
	C12722	C	0.934454	0.691265	0.341802
	C12723	C	0.940768	0.253043	0.345419
	C12724	C	0.934397	0.314337	0.341867
	C12725	C	0.934448	0.191846	0.341838
	C12726	C	0.911026	0.191618	0.276273
	C12727	C	0.984403	0.192383	0.272213
	C12728	C	0.984382	0.314768	0.272265
	C12729	C	0.910762	0.314043	0.276139
	C12730	C	1.003151	0.253278	0.282843
	C12731	C	0.978095	0.043580	0.368994
	C12732	C	0.942988	0.043461	0.249414
	C12733	C	0.936828	0.962735	0.247008
	C12734	C	0.978068	0.962698	0.368979
	C12735	C	0.943007	0.962727	0.249413
	N12736	N	0.876370	0.070447	0.311618
	N12737	N	0.876436	0.935965	0.311620
	N12738	N	0.876349	0.435848	0.311586
	N12739	N	0.876323	0.570378	0.311596
	N12740	N	0.979704	0.435982	0.365447
	N12741	N	0.979721	0.570591	0.365450
	N12742	N	0.979726	0.070398	0.365499
	N12743	N	0.979705	0.935828	0.365468
	O12744	O	0.987470	0.695275	0.423480
	O12745	O	0.987662	0.811976	0.423495
	O12746	O	0.931658	0.694575	0.439781
	O12747	O	0.931587	0.811347	0.439781
	O12748	O	0.931502	0.194686	0.439801
	O12749	O	0.931553	0.311837	0.439782
	O12750	O	0.930886	0.695036	0.417225
	O12751	O	0.930817	0.811492	0.417197
	O12752	O	0.930791	0.194893	0.417204
	O12753	O	0.930985	0.311322	0.417257
	O12754	O	0.988130	0.694471	0.446059
	O12755	O	0.988029	0.810876	0.446027
	O12756	O	0.988036	0.194907	0.446001
	O12757	O	0.988065	0.311288	0.446024
	O12758	O	0.987550	0.194751	0.423511
	O12759	O	0.987520	0.311587	0.423507
	O12760	O	0.994195	0.695160	0.377282
	O12761	O	0.961347	0.694645	0.374767
	O12762	O	0.957811	0.695080	0.488572
	O12763	O	0.957846	0.811638	0.488554
	O12764	O	0.924889	0.694999	0.486002
	O12765	O	0.924956	0.811745	0.485981
	O12766	O	0.961143	0.811401	0.374688
	O12767	O	0.994241	0.812017	0.377283
	O12768	O	0.994208	0.194657	0.377342
	O12769	O	0.961201	0.195067	0.374725
	O12770	O	0.957731	0.194484	0.488507
	O12771	O	0.958006	0.311281	0.488580
	O12772	O	0.924847	0.194940	0.486012
	O12773	O	0.924927	0.311756	0.485993
	O12774	O	0.961209	0.311781	0.374731
	O12775	O	0.994102	0.311523	0.377288
	H12776	H	0.930182	0.643143	0.454699
	H12777	H	0.930384	0.862907	0.454653
	H12778	H	0.930104	0.143588	0.454721
	H12779	H	0.930160	0.363470	0.454673
	H12780	H	0.939324	0.862486	0.403243
	H12781	H	0.939622	0.643826	0.403333
	H12782	H	0.939936	0.362692	0.403428
	H12783	H	0.939303	0.143609	0.403243
	H12784	H	0.996916	0.064391	0.434486
	H12785	H	0.997702	0.064746	0.436842
	H12786	H	0.997716	0.941340	0.436843
	H12787	H	0.996864	0.941629	0.434526
	H12788	H	1.001512	0.064685	0.432571
	H12789	H	1.001466	0.941257	0.432544
	H12790	H	0.917557	0.065020	0.426239
	H12791	H	0.917597	0.941878	0.426234
	H12792	H	0.914901	0.064544	0.426568
	H12793	H	0.914913	0.941287	0.426527
	H12794	H	0.913902	0.064440	0.428459
	H12795	H	0.913874	0.940765	0.428415
	H12796	H	0.922169	0.441565	0.429443
	H12797	H	0.922284	0.441348	0.426903
	H12798	H	0.916372	0.441206	0.430894
	H12799	H	1.009055	0.441127	0.432898
	H12800	H	1.009370	0.441738	0.438160
	H12801	H	1.003108	0.441319	0.439962
	H12802	H	0.922373	0.565073	0.426881
	H12803	H	0.922268	0.565143	0.429447
	H12804	H	1.003121	0.565025	0.439912
	H12805	H	1.009295	0.564543	0.438084
	H12806	H	1.008951	0.564624	0.432883
	H12807	H	0.916421	0.564789	0.430936
	H12808	H	0.979582	0.643433	0.459970
	H12809	H	0.979445	0.862243	0.459877
	H12810	H	0.979498	0.143799	0.459897
	H12811	H	0.979538	0.362195	0.459968
	H12812	H	0.949682	0.643796	0.387897
	H12813	H	0.993053	0.643922	0.392186
	H12814	H	0.992751	0.863681	0.392246
	H12815	H	0.949257	0.862318	0.387781
	H12816	H	0.988939	0.643745	0.408553
	H12817	H	0.988681	0.863450	0.408622
	H12818	H	0.969613	0.643593	0.475409
	H12819	H	0.969443	0.862683	0.475349
	H12820	H	0.978726	0.440923	0.364201
	H12821	H	0.946407	0.441650	0.496910
	H12822	H	0.981428	0.441548	0.364676
	H12823	H	0.981983	0.441621	0.365705
	H12824	H	0.934278	0.441603	0.494992
	H12825	H	0.939799	0.441865	0.494033
	H12826	H	0.946389	0.565028	0.496932
	H12827	H	0.978657	0.564861	0.364222
	H12828	H	0.939831	0.565381	0.494043
	H12829	H	0.934225	0.565404	0.494990
	H12830	H	0.982048	0.564935	0.365685
	H12831	H	0.981353	0.564392	0.364643
	H12832	H	0.969611	0.143510	0.475396
	H12833	H	0.969689	0.362133	0.475445
	H12834	H	0.975797	0.065268	0.360282
	H12835	H	0.969845	0.065029	0.363451
	H12836	H	0.987396	0.065058	0.362171
	H12837	H	0.926386	0.863089	0.471034
	H12838	H	0.926133	0.643657	0.471082
	H12839	H	0.926182	0.363632	0.471088
	H12840	H	0.926141	0.143759	0.471103
	H12841	H	0.949264	0.143723	0.387806
	H12842	H	0.992746	0.143641	0.392207
	H12843	H	0.992895	0.362985	0.392219
	H12844	H	0.949928	0.363109	0.387994
	H12845	H	0.988679	0.143465	0.408591
	H12846	H	0.988789	0.363052	0.408603
	H12847	H	0.939303	0.065016	0.499228
	H12848	H	0.941359	0.065047	0.498822
	H12849	H	0.941720	0.064929	0.497281
	H12850	H	0.969749	0.941659	0.363377
	H12851	H	0.975785	0.941759	0.360232
	H12852	H	0.987387	0.941701	0.362137
	H12853	H	0.939311	0.941671	0.499199
	H12854	H	0.941336	0.941555	0.498848
	H12855	H	0.941769	0.941627	0.497316
	Zn12856	Zn	0.917068	0.680409	0.427930
	Zn12857	Zn	0.916993	0.825869	0.427947
	Zn12858	Zn	0.916984	0.180396	0.427952
	Zn12859	Zn	0.917016	0.325918	0.427938
	Zn12860	Zn	0.939532	0.680631	0.497844
	Zn12861	Zn	0.939540	0.825791	0.497846
	Zn12862	Zn	0.939395	0.180579	0.497847
	Zn12863	Zn	0.939608	0.325976	0.497813
	C12864	C	0.987379	0.753650	0.419567
	C12865	C	0.931775	0.752970	0.443690
	C12866	C	0.930782	0.753058	0.453689
	C12867	C	0.929418	0.691066	0.458337
	C12868	C	0.929554	0.815226	0.458310
	C12869	C	0.931660	0.253321	0.443686
	C12870	C	0.930628	0.253521	0.453700
	C12871	C	0.929306	0.191438	0.458359
	C12872	C	0.929371	0.315768	0.458332
	C12873	C	0.933243	0.753223	0.413615
	C12874	C	0.939134	0.753129	0.404304
	C12875	C	0.941565	0.814934	0.399831
	C12876	C	0.941801	0.691301	0.399903
	C12877	C	0.933262	0.253139	0.413622
	C12878	C	0.939187	0.253178	0.404313
	C12879	C	0.941988	0.315135	0.399945
	C12880	C	0.941648	0.191231	0.399852
	C12881	C	0.998543	0.043358	0.435573
	C12882	C	0.998501	0.962641	0.435597
	C12883	C	0.916487	0.043465	0.426813
	C12884	C	0.916488	0.962808	0.426802
	C12885	C	0.915495	0.043213	0.428746
	C12886	C	0.915486	0.962329	0.428745
	C12887	C	0.920912	0.462615	0.428098
	C12888	C	1.004781	0.462377	0.432748
	C12889	C	1.005069	0.462685	0.438080
	C12890	C	0.920959	0.543604	0.428099
	C12891	C	1.005051	0.543374	0.438063
	C12892	C	1.004762	0.543394	0.432753
	C12893	C	0.985700	0.752676	0.449639
	C12894	C	0.985695	0.253064	0.449617
	C12895	C	0.979791	0.752826	0.458941
	C12896	C	0.977280	0.690966	0.463381
	C12897	C	0.977208	0.814771	0.463339
	C12898	C	0.979853	0.252976	0.458960
	C12899	C	0.977308	0.191163	0.463368
	C12900	C	0.977341	0.314779	0.463405
	C12901	C	0.987342	0.253146	0.419592
	C12902	C	0.994390	0.753607	0.381198
	C12903	C	0.957754	0.753049	0.378005
	C12904	C	0.924777	0.753362	0.482070
	C12905	C	0.989752	0.691567	0.404922
	C12906	C	0.989579	0.815756	0.404963
	C12907	C	0.993326	0.753842	0.391205
	C12908	C	0.950066	0.753005	0.386926
	C12909	C	0.947233	0.691170	0.391298
	C12910	C	0.992148	0.691680	0.395835
	C12911	C	0.991961	0.815823	0.395872
	C12912	C	0.947018	0.814939	0.391233
	C12913	C	0.988404	0.753594	0.409578
	C12914	C	0.961267	0.753318	0.485251
	C12915	C	0.971857	0.691100	0.471978
	C12916	C	0.971768	0.814986	0.471935
	C12917	C	0.968869	0.753165	0.476313
	C12918	C	0.944252	0.462853	0.498310
	C12919	C	0.981200	0.462729	0.365256
	C12920	C	0.937674	0.462910	0.495363
	C12921	C	0.944245	0.543788	0.498328
	C12922	C	0.937636	0.543876	0.495373
	C12923	C	0.981210	0.543282	0.365251
	C12924	C	0.961364	0.252839	0.485269
	C12925	C	0.971900	0.191037	0.471972
	C12926	C	0.971946	0.314700	0.472011
	C12927	C	0.969017	0.252784	0.476346
	C12928	C	0.974639	0.043828	0.362817
	C12929	C	0.994335	0.253173	0.381227
	C12930	C	0.957749	0.253414	0.378015
	C12931	C	0.924738	0.253328	0.482081
	C12932	C	0.989586	0.191227	0.404955
	C12933	C	0.989635	0.315335	0.404961
	C12934	C	0.993317	0.253327	0.391232
	C12935	C	0.950148	0.253388	0.386940
	C12936	C	0.925826	0.753384	0.472064
	C12937	C	0.927166	0.815298	0.467396
	C12938	C	0.927022	0.691311	0.467428
	C12939	C	0.925802	0.253574	0.472075
	C12940	C	0.927062	0.315859	0.467433
	C12941	C	0.926982	0.191409	0.467450
	C12942	C	0.947134	0.191320	0.391261
	C12943	C	0.991990	0.191306	0.395870
	C12944	C	0.992013	0.315393	0.395869
	C12945	C	0.947441	0.315293	0.391354
	C12946	C	0.988351	0.253207	0.409595
	C12947	C	0.940028	0.043692	0.498717
	C12948	C	0.986312	0.043553	0.364694
	C12949	C	0.974611	0.962928	0.362790
	C12950	C	0.940041	0.962798	0.498716
	C12951	C	0.986317	0.962805	0.364675
	N12952	N	0.917060	0.070399	0.427984
	N12953	N	0.917057	0.935919	0.427954
	N12954	N	0.917027	0.435766	0.427905
	N12955	N	0.917092	0.570255	0.427927
	N12956	N	0.939489	0.436028	0.497756
	N12957	N	0.939460	0.570538	0.497779
	N12958	N	0.939369	0.070437	0.497812
	N12959	N	0.939424	0.935895	0.497830
	O12960	O	1.018867	0.694907	0.544254
	O12961	O	1.018749	0.811161	0.544254
	O12962	O	0.896444	0.694783	0.570137
	O12963	O	0.896493	0.811252	0.570100
	O12964	O	0.896632	0.195328	0.570095
	O12965	O	0.896426	0.311368	0.570188
	O12966	O	0.895346	0.694570	0.551056
	O12967	O	0.895336	0.811294	0.551069
	O12968	O	0.895490	0.195195	0.551112
	O12969	O	0.895398	0.311948	0.551126
	O12970	O	1.019791	0.694581	0.563358
	O12971	O	1.019873	0.811464	0.563334
	O12972	O	1.019710	0.194671	0.563312
	O12973	O	1.019710	0.311435	0.563299
	O12974	O	1.018936	0.194638	0.544254
	O12975	O	1.018753	0.310711	0.544259
	O12976	O	0.959094	0.695051	0.507673
	O12977	O	0.925501	0.694869	0.508541
	O12978	O	0.989764	0.694701	0.605884
	O12979	O	0.989779	0.811402	0.605915
	O12980	O	0.956217	0.695313	0.606660
	O12981	O	0.956282	0.811667	0.606657
	O12982	O	0.925573	0.811479	0.508565
	O12983	O	0.959043	0.811393	0.507704
	O12984	O	0.959049	0.194737	0.507657
	O12985	O	0.925490	0.195886	0.508548
	O12986	O	0.989753	0.194962	0.605932
	O12987	O	0.989907	0.311340	0.605938
	O12988	O	0.956190	0.194847	0.606675
	O12989	O	0.956179	0.311113	0.606697
	O12990	O	0.925664	0.312405	0.508579
	O12991	O	0.959120	0.311145	0.507655
	H12992	H	0.915477	0.644769	0.581905
	H12993	H	0.915902	0.861769	0.581666
	H12994	H	0.915735	0.145119	0.581736
	H12995	H	0.915723	0.361192	0.581847
	H12996	H	0.907147	0.862796	0.537963
	H12997	H	0.906886	0.643336	0.537905
	H12998	H	0.907019	0.363606	0.537951
	H12999	H	0.907076	0.144429	0.537929
	H13000	H	1.042495	0.064723	0.560320
	H13001	H	1.049736	0.065031	0.556847
	H13002	H	1.049700	0.940826	0.556849
	H13003	H	1.042526	0.941965	0.560299
	H13004	H	1.029037	0.064937	0.557869
	H13005	H	1.029077	0.941386	0.557812
	H13006	H	0.882735	0.064362	0.558420
	H13007	H	0.882663	0.941765	0.558340
	H13008	H	0.877487	0.064879	0.556651
	H13009	H	0.877477	0.941497	0.556630
	H13010	H	0.870539	0.065374	0.558704
	H13011	H	0.870471	0.941596	0.558653
	H13012	H	0.882372	0.441197	0.564307
	H13013	H	0.885926	0.441225	0.560870
	H13014	H	0.872033	0.441796	0.564126
	H13015	H	1.027647	0.441548	0.558001
	H13016	H	1.026905	0.442013	0.549788
	H13017	H	1.036500	0.441149	0.546867
	H13018	H	0.885939	0.564454	0.560862
	H13019	H	0.882382	0.564983	0.564365
	H13020	H	1.036464	0.565377	0.546926
	H13021	H	1.026837	0.564632	0.549851
	H13022	H	1.027661	0.564354	0.558050
	H13023	H	0.871888	0.565349	0.564125
	H13024	H	1.007983	0.643669	0.576442
	H13025	H	1.008339	0.862933	0.576510
	H13026	H	1.008142	0.143650	0.576503
	H13027	H	1.008331	0.362473	0.576532
	H13028	H	0.916761	0.643367	0.522432
	H13029	H	0.978355	0.644382	0.519359
	H13030	H	0.978343	0.861795	0.519377
	H13031	H	0.917037	0.862807	0.522498
	H13032	H	0.999544	0.644104	0.532576
	H13033	H	0.999527	0.861740	0.532602
	H13034	H	0.998188	0.643693	0.591926
	H13035	H	0.998576	0.862863	0.592011
	H13036	H	0.945521	0.441449	0.500058
	H13037	H	0.973288	0.441736	0.618198
	H13038	H	0.937929	0.441866	0.501403
	H13039	H	0.933189	0.441242	0.499270
	H13040	H	0.979735	0.441304	0.616909
	H13041	H	0.978043	0.441883	0.618338
	H13042	H	0.973413	0.564902	0.618162
	H13043	H	0.945549	0.564925	0.500101
	H13044	H	0.978005	0.564640	0.618320
	H13045	H	0.979778	0.565375	0.616896
	H13046	H	0.933169	0.564965	0.499297
	H13047	H	0.937917	0.564579	0.501405
	H13048	H	0.998283	0.143613	0.591972
	H13049	H	0.998565	0.362636	0.592002
	H13050	H	0.937238	0.064648	0.497056
	H13051	H	0.936951	0.064778	0.498132
	H13052	H	0.939981	0.064581	0.496490
	H13053	H	0.937187	0.862080	0.594874
	H13054	H	0.936769	0.645000	0.595084
	H13055	H	0.936925	0.360857	0.595081
	H13056	H	0.936950	0.144989	0.594967
	H13057	H	0.917008	0.144568	0.522453
	H13058	H	0.978364	0.144218	0.519332
	H13059	H	0.978353	0.360989	0.519333
	H13060	H	0.916973	0.363824	0.522492
	H13061	H	0.999533	0.144102	0.532555
	H13062	H	0.999544	0.360746	0.532578
	H13063	H	0.973271	0.064798	0.614836
	H13064	H	0.971728	0.064847	0.616395
	H13065	H	0.974198	0.064347	0.618570
	H13066	H	0.937035	0.941397	0.498115
	H13067	H	0.937377	0.941123	0.497058
	H13068	H	0.940055	0.941569	0.496516
	H13069	H	0.973349	0.941606	0.614857
	H13070	H	0.971767	0.941093	0.616404
	H13071	H	0.974241	0.941396	0.618553
	Zn13072	Zn	0.876894	0.680640	0.560305
	Zn13073	Zn	0.876937	0.825959	0.560320
	Zn13074	Zn	0.877056	0.180504	0.560320
	Zn13075	Zn	0.876893	0.325797	0.560314
	Zn13076	Zn	0.975600	0.680548	0.616572
	Zn13077	Zn	0.975710	0.825326	0.616624
	Zn13078	Zn	0.975585	0.180483	0.616611
	Zn13079	Zn	0.975585	0.325726	0.616534
	C13080	C	1.013707	0.752955	0.541267
	C13081	C	0.901552	0.753047	0.573100
	C13082	C	0.914472	0.753325	0.580985
	C13083	C	0.920346	0.691936	0.584778
	C13084	C	0.920589	0.814824	0.584650
	C13085	C	0.901633	0.253369	0.573114
	C13086	C	0.914544	0.253205	0.580984
	C13087	C	0.920490	0.191953	0.584698
	C13088	C	0.920475	0.314292	0.584761
	C13089	C	0.898774	0.752954	0.547765
	C13090	C	0.906421	0.753074	0.538853
	C13091	C	0.909401	0.815135	0.534525
	C13092	C	0.909256	0.691045	0.534494
	C13093	C	0.898890	0.253672	0.547824
	C13094	C	0.906513	0.253922	0.538902
	C13095	C	0.909386	0.315973	0.534543
	C13096	C	0.909401	0.192049	0.534525
	C13097	C	1.044142	0.043409	0.557428
	C13098	C	1.044146	0.962686	0.557409
	C13099	C	0.879275	0.043574	0.558261
	C13100	C	0.879228	0.962970	0.558256
	C13101	C	0.872251	0.043676	0.560268
	C13102	C	0.872201	0.962906	0.560259
	C13103	C	0.882204	0.462606	0.561972
	C13104	C	1.034258	0.462597	0.558129
	C13105	C	1.033518	0.462703	0.549853
	C13106	C	0.882205	0.543615	0.561994
	C13107	C	1.033481	0.543609	0.549870
	C13108	C	1.034258	0.543552	0.558172
	C13109	C	1.016391	0.753125	0.566631
	C13110	C	1.016290	0.253070	0.566605
	C13111	C	1.008746	0.753414	0.575557
	C13112	C	1.005790	0.691316	0.579890
	C13113	C	1.006003	0.815415	0.579933
	C13114	C	1.008772	0.253087	0.575555
	C13115	C	1.005864	0.191187	0.579922
	C13116	C	1.005999	0.315039	0.579940
	C13117	C	1.013703	0.252569	0.541278
	C13118	C	0.964180	0.753239	0.510674
	C13119	C	0.923120	0.753145	0.512143
	C13120	C	0.951111	0.753557	0.603681
	C13121	C	0.994825	0.691439	0.529639
	C13122	C	0.994805	0.814507	0.529655
	C13123	C	0.977116	0.753155	0.518551
	C13124	C	0.917286	0.753122	0.521471
	C13125	C	0.914667	0.691047	0.525888
	C13126	C	0.983075	0.691600	0.522292
	C13127	C	0.983077	0.814579	0.522305
	C13128	C	0.914810	0.815115	0.525923
	C13129	C	1.000816	0.752953	0.533375
	C13130	C	0.992107	0.753096	0.602289
	C13131	C	1.000423	0.691242	0.588504
	C13132	C	1.000641	0.815328	0.588545
	C13133	C	0.997964	0.753303	0.592949
	C13134	C	0.973405	0.462736	0.617123
	C13135	C	0.936551	0.462930	0.499667
	C13136	C	0.978121	0.462763	0.617342
	C13137	C	0.973433	0.543660	0.617111
	C13138	C	0.978094	0.543579	0.617322
	C13139	C	0.936507	0.543620	0.499681
	C13140	C	0.992195	0.253077	0.602320
	C13141	C	1.000535	0.191189	0.588543
	C13142	C	1.000669	0.315040	0.588562
	C13143	C	0.998065	0.253048	0.592989
	C13144	C	0.937677	0.043496	0.497642
	C13145	C	0.964144	0.252904	0.510670
	C13146	C	0.923184	0.254204	0.512157
	C13147	C	0.951115	0.253001	0.603685
	C13148	C	0.994840	0.191215	0.529629
	C13149	C	0.994835	0.313749	0.529638
	C13150	C	0.977101	0.252666	0.518549
	C13151	C	0.917314	0.254190	0.521489
	C13152	C	0.938169	0.753624	0.595811
	C13153	C	0.932319	0.814946	0.592001
	C13154	C	0.932088	0.692136	0.592126
	C13155	C	0.938202	0.252986	0.595807
	C13156	C	0.932209	0.314103	0.592107
	C13157	C	0.932218	0.191928	0.592046
	C13158	C	0.914764	0.192126	0.525906
	C13159	C	0.983106	0.191248	0.522277
	C13160	C	0.983117	0.313934	0.522278
	C13161	C	0.914748	0.316134	0.525928
	C13162	C	1.000794	0.252491	0.533403
	C13163	C	0.973411	0.043585	0.615885
	C13164	C	0.940429	0.043592	0.497139
	C13165	C	0.937722	0.962553	0.497648
	C13166	C	0.973438	0.962622	0.615896
	C13167	C	0.940474	0.962847	0.497161
	N13168	N	0.876989	0.070539	0.560384
	N13169	N	0.876925	0.936025	0.560369
	N13170	N	0.876844	0.435960	0.560309
	N13171	N	0.876832	0.570523	0.560303
	N13172	N	0.975777	0.435961	0.616537
	N13173	N	0.975810	0.570505	0.616534
	N13174	N	0.975823	0.070293	0.616649
	N13175	N	0.975839	0.935686	0.616655
	O13176	O	0.986161	0.693964	0.674922
	O13177	O	0.985999	0.810767	0.674902
	O13178	O	0.927697	0.695140	0.691187
	O13179	O	0.927721	0.812121	0.691144
	O13180	O	0.927809	0.194400	0.691154
	O13181	O	0.927531	0.311355	0.691199
	O13182	O	0.927668	0.694719	0.668471
	O13183	O	0.927656	0.811261	0.668492
	O13184	O	0.927560	0.195050	0.668474
	O13185	O	0.927565	0.311494	0.668456
	O13186	O	0.984028	0.693759	0.696130
	O13187	O	0.983935	0.810427	0.696139
	O13188	O	0.983954	0.195644	0.696137
	O13189	O	0.983962	0.312159	0.696104
	O13190	O	0.985986	0.195530	0.674910
	O13191	O	0.986244	0.312325	0.674891
	O13192	O	0.989719	0.693950	0.628558
	O13193	O	0.957154	0.694786	0.625803
	O13194	O	0.956549	0.693351	0.739499
	O13195	O	0.956878	0.809946	0.739607
	O13196	O	0.923810	0.695923	0.737414
	O13197	O	0.924034	0.812838	0.737498
	O13198	O	0.957162	0.811363	0.625807
	O13199	O	0.989804	0.810695	0.628585
	O13200	O	0.989707	0.195509	0.628571
	O13201	O	0.957096	0.194892	0.625811
	O13202	O	0.956933	0.195884	0.739635
	O13203	O	0.956445	0.312493	0.739472
	O13204	O	0.924226	0.192902	0.737506
	O13205	O	0.923692	0.309690	0.737522
	O13206	O	0.957010	0.311669	0.625772
	O13207	O	0.989779	0.312414	0.628549
	H13208	H	0.926178	0.644139	0.706021
	H13209	H	0.926830	0.864444	0.706029
	H13210	H	0.927024	0.142284	0.706067
	H13211	H	0.925979	0.362252	0.706095
	H13212	H	0.936095	0.862336	0.654558
	H13213	H	0.936056	0.643439	0.654543
	H13214	H	0.935901	0.362939	0.654486
	H13215	H	0.935763	0.143722	0.654489
	H13216	H	1.006808	0.064948	0.685766
	H13217	H	1.003278	0.064690	0.683769
	H13218	H	1.003304	0.941974	0.683800
	H13219	H	1.006779	0.941254	0.685746
	H13220	H	1.005040	0.064806	0.689071
	H13221	H	1.005060	0.940687	0.689105
	H13222	H	0.913413	0.065221	0.679238
	H13223	H	0.913320	0.941843	0.679185
	H13224	H	0.913649	0.065018	0.679386
	H13225	H	0.913574	0.941573	0.679367
	H13226	H	0.914080	0.064974	0.679293
	H13227	H	0.914115	0.941541	0.679263
	H13228	H	0.909352	0.441154	0.678109
	H13229	H	0.909631	0.441460	0.680216
	H13230	H	0.913809	0.441526	0.676666
	H13231	H	0.996915	0.441564	0.689636
	H13232	H	0.994171	0.441293	0.685032
	H13233	H	0.998541	0.441203	0.682603
	H13234	H	0.909620	0.564415	0.680243
	H13235	H	0.909310	0.565139	0.678108
	H13236	H	0.998635	0.564769	0.682573
	H13237	H	0.994206	0.564304	0.684990
	H13238	H	0.996981	0.564603	0.689642
	H13239	H	0.913827	0.565067	0.676667
	H13240	H	0.974221	0.641807	0.709872
	H13241	H	0.974830	0.861952	0.710055
	H13242	H	0.974862	0.144165	0.710029
	H13243	H	0.974123	0.364176	0.709863
	H13244	H	0.945749	0.643514	0.639040
	H13245	H	0.988891	0.642368	0.643486
	H13246	H	0.988576	0.862246	0.643466
	H13247	H	0.945773	0.862593	0.639058
	H13248	H	0.985728	0.642356	0.659977
	H13249	H	0.985404	0.862431	0.659918
	H13250	H	0.965914	0.641633	0.725683
	H13251	H	0.966508	0.861696	0.725822
	H13252	H	0.971740	0.441414	0.616496
	H13253	H	0.937779	0.441270	0.743309
	H13254	H	0.974044	0.441673	0.614504
	H13255	H	0.977519	0.441001	0.614635
	H13256	H	0.930038	0.441367	0.752042
	H13257	H	0.928380	0.441399	0.747272
	H13258	H	0.937855	0.564752	0.743282
	H13259	H	0.971726	0.565012	0.616514
	H13260	H	0.928347	0.564645	0.747212
	H13261	H	0.930061	0.565174	0.752017
	H13262	H	0.977460	0.564811	0.614638
	H13263	H	0.974113	0.564618	0.614509
	H13264	H	0.966622	0.144039	0.725804
	H13265	H	0.965759	0.364134	0.725656
	H13266	H	0.979884	0.065156	0.616512
	H13267	H	0.977977	0.064792	0.614930
	H13268	H	0.977674	0.064741	0.618645
	H13269	H	0.923850	0.864734	0.722506
	H13270	H	0.923118	0.644549	0.722517
	H13271	H	0.922915	0.361727	0.722555
	H13272	H	0.923982	0.141634	0.722582
	H13273	H	0.945403	0.143766	0.638964
	H13274	H	0.988588	0.144172	0.643445
	H13275	H	0.988962	0.364236	0.643519
	H13276	H	0.945602	0.362854	0.638986
	H13277	H	0.985579	0.143826	0.659926
	H13278	H	0.985914	0.363866	0.660026
	H13279	H	0.952929	0.064682	0.749817
	H13280	H	0.948295	0.064859	0.744163
	H13281	H	0.932720	0.064609	0.742705
	H13282	H	0.977984	0.941483	0.614929
	H13283	H	0.979828	0.941202	0.616498
	H13284	H	0.977647	0.941272	0.618624
	H13285	H	0.952952	0.941035	0.749801
	H13286	H	0.948254	0.941449	0.744154
	H13287	H	0.932652	0.941271	0.742711
	Zn13288	Zn	0.913633	0.680362	0.679182
	Zn13289	Zn	0.913542	0.825566	0.679191
	Zn13290	Zn	0.913651	0.180609	0.679200
	Zn13291	Zn	0.913532	0.325577	0.679173
	Zn13292	Zn	0.939002	0.680806	0.749080
	Zn13293	Zn	0.939472	0.825456	0.749186
	Zn13294	Zn	0.939502	0.180520	0.749217
	Zn13295	Zn	0.938964	0.325332	0.749112
	C13296	C	0.985370	0.752312	0.671010
	C13297	C	0.927920	0.753733	0.695071
	C13298	C	0.927161	0.754117	0.705076
	C13299	C	0.925820	0.691991	0.709704
	C13300	C	0.926189	0.816596	0.709709
	C13301	C	0.927844	0.252753	0.695079
	C13302	C	0.927022	0.252287	0.705094
	C13303	C	0.926188	0.189872	0.709755
	C13304	C	0.925634	0.314259	0.709760
	C13305	C	0.930010	0.753029	0.664867
	C13306	C	0.935763	0.752987	0.655517
	C13307	C	0.938241	0.814923	0.651094
	C13308	C	0.938214	0.691038	0.651087
	C13309	C	0.929852	0.253258	0.664849
	C13310	C	0.935511	0.253312	0.655491
	C13311	C	0.937995	0.315329	0.651037
	C13312	C	0.937919	0.191335	0.651039
	C13313	C	1.004056	0.043359	0.685239
	C13314	C	1.004072	0.962851	0.685237
	C13315	C	0.913605	0.043659	0.679268
	C13316	C	0.913600	0.962743	0.679256
	C13317	C	0.914061	0.043382	0.679202
	C13318	C	0.914067	0.962567	0.679181
	C13319	C	0.910666	0.462614	0.679162
	C13320	C	1.000596	0.462555	0.689173
	C13321	C	0.997770	0.462489	0.684517
	C13322	C	0.910670	0.543553	0.679171
	C13323	C	0.997822	0.543417	0.684508
	C13324	C	1.000580	0.543413	0.689162
	C13325	C	0.981036	0.752026	0.699628
	C13326	C	0.981060	0.254003	0.699626
	C13327	C	0.974808	0.751858	0.708933
	C13328	C	0.972404	0.689564	0.713400
	C13329	C	0.972723	0.814004	0.713487
	C13330	C	0.974819	0.254144	0.708926
	C13331	C	0.972789	0.191997	0.713485
	C13332	C	0.972330	0.316323	0.713395
	C13333	C	0.985442	0.253892	0.670992
	C13334	C	0.990002	0.752281	0.632490
	C13335	C	0.953759	0.753053	0.629119
	C13336	C	0.923268	0.754557	0.733556
	C13337	C	0.986318	0.690103	0.656290
	C13338	C	0.986155	0.814514	0.656272
	C13339	C	0.989278	0.752212	0.642498
	C13340	C	0.946350	0.752996	0.638082
	C13341	C	0.943503	0.691092	0.642458
	C13342	C	0.988211	0.690049	0.647154
	C13343	C	0.988042	0.814420	0.647140
	C13344	C	0.943516	0.814951	0.642471
	C13345	C	0.985354	0.752298	0.660946
	C13346	C	0.959552	0.751669	0.736048
	C13347	C	0.967869	0.689502	0.722192
	C13348	C	0.968207	0.813886	0.722283
	C13349	C	0.965726	0.751651	0.726750
	C13350	C	0.941266	0.462547	0.745526
	C13351	C	0.975828	0.462789	0.615095
	C13352	C	0.931751	0.462694	0.749505
	C13353	C	0.941274	0.543463	0.745512
	C13354	C	0.931735	0.543572	0.749477
	C13355	C	0.975814	0.543570	0.615086
	C13356	C	0.959589	0.254127	0.736052
	C13357	C	0.968309	0.191959	0.722279
	C13358	C	0.967827	0.316270	0.722193
	C13359	C	0.965777	0.254099	0.726761
	C13360	C	0.978139	0.043506	0.615960
	C13361	C	0.989940	0.254041	0.632459
	C13362	C	0.953677	0.253336	0.629109
	C13363	C	0.923242	0.251325	0.733611
	C13364	C	0.986252	0.191655	0.656257
	C13365	C	0.986484	0.316286	0.656308
	C13366	C	0.989252	0.254187	0.642479
	C13367	C	0.946107	0.253314	0.638049
	C13368	C	0.923317	0.754608	0.723508
	C13369	C	0.924345	0.816850	0.718843
	C13370	C	0.923937	0.692241	0.718839
	C13371	C	0.923196	0.251615	0.723559
	C13372	C	0.923785	0.313979	0.718897
	C13373	C	0.924362	0.189497	0.718897
	C13374	C	0.943218	0.191286	0.642411
	C13375	C	0.988074	0.191931	0.647119
	C13376	C	0.988316	0.316354	0.647165
	C13377	C	0.943263	0.315375	0.642405
	C13378	C	0.985467	0.253927	0.660937
	C13379	C	0.947667	0.043327	0.747579
	C13380	C	0.975949	0.043347	0.618090
	C13381	C	0.978129	0.962573	0.615960
	C13382	C	0.947656	0.962509	0.747553
	C13383	C	0.975974	0.962640	0.618070
	N13384	N	0.913789	0.070376	0.679192
	N13385	N	0.913754	0.935804	0.679154
	N13386	N	0.913773	0.435722	0.679195
	N13387	N	0.913813	0.570297	0.679185
	N13388	N	0.938914	0.435821	0.749043
	N13389	N	0.938896	0.570444	0.749036
	N13390	N	0.939394	0.070331	0.749191
	N13391	N	0.939367	0.935753	0.749177
	O13392	O	0.950755	0.695091	0.807093
	O13393	O	0.950919	0.811880	0.807108
	O13394	O	0.891954	0.695297	0.823251
	O13395	O	0.891573	0.812022	0.823315
	O13396	O	0.891781	0.194449	0.823192
	O13397	O	0.891861	0.311172	0.823212
	O13398	O	0.894088	0.694911	0.802014
	O13399	O	0.894003	0.811713	0.802047
	O13400	O	0.894088	0.194025	0.802075
	O13401	O	0.894174	0.310645	0.802048
	O13402	O	0.950882	0.694523	0.829771
	O13403	O	0.950876	0.811037	0.829808
	O13404	O	0.950692	0.194795	0.829726
	O13405	O	0.951001	0.311217	0.829810
	O13406	O	0.950940	0.194619	0.807091
	O13407	O	0.950744	0.311563	0.807169
	O13408	O	0.954355	0.693404	0.760752
	O13409	O	0.921654	0.695628	0.758690
	O13410	O	0.921011	0.694455	0.872455
	O13411	O	0.920949	0.811136	0.872407
	O13412	O	0.888333	0.694830	0.869639
	O13413	O	0.888144	0.811577	0.869615
	O13414	O	0.921932	0.812172	0.758751
	O13415	O	0.954794	0.810053	0.760766
	O13416	O	0.954791	0.196140	0.760816
	O13417	O	0.921815	0.193840	0.758680
	O13418	O	0.920976	0.194439	0.872384
	O13419	O	0.921003	0.311144	0.872354
	O13420	O	0.888189	0.194703	0.869575
	O13421	O	0.888374	0.311474	0.869597
	O13422	O	0.921658	0.310680	0.758719
	O13423	O	0.954240	0.313016	0.760787
	H13424	H	0.892404	0.643106	0.838232
	H13425	H	0.891917	0.863066	0.838203
	H13426	H	0.892485	0.143113	0.838182
	H13427	H	0.892253	0.362932	0.838196
	H13428	H	0.903729	0.863507	0.788296
	H13429	H	0.903460	0.643685	0.788232
	H13430	H	0.903888	0.361918	0.788283
	H13431	H	0.903552	0.141945	0.788242
	H13432	H	0.968112	0.064749	0.819788
	H13433	H	0.967728	0.064666	0.818219
	H13434	H	0.967673	0.941282	0.818244
	H13435	H	0.968103	0.941608	0.819771
	H13436	H	0.965041	0.064605	0.820833
	H13437	H	0.965046	0.941059	0.820908
	H13438	H	0.880465	0.064584	0.803237
	H13439	H	0.880483	0.941233	0.803273
	H13440	H	0.866819	0.064776	0.804131
	H13441	H	0.866772	0.941443	0.804162
	H13442	H	0.860513	0.064859	0.813395
	H13443	H	0.860600	0.941789	0.813362
	H13444	H	0.876687	0.441761	0.810463
	H13445	H	0.875105	0.441405	0.810811
	H13446	H	0.878604	0.441522	0.811297
	H13447	H	0.965586	0.441567	0.817335
	H13448	H	0.968302	0.441383	0.818972
	H13449	H	0.967448	0.441114	0.820438
	H13450	H	0.875217	0.565287	0.810839
	H13451	H	0.876713	0.565255	0.810527
	H13452	H	0.967486	0.564528	0.820451
	H13453	H	0.968327	0.564851	0.818934
	H13454	H	0.965609	0.564993	0.817280
	H13455	H	0.878616	0.565014	0.811320
	H13456	H	0.942165	0.642996	0.843685
	H13457	H	0.942404	0.862047	0.843763
	H13458	H	0.941876	0.143367	0.843573
	H13459	H	0.942434	0.362419	0.843731
	H13460	H	0.911966	0.643586	0.772480
	H13461	H	0.954543	0.642340	0.775749
	H13462	H	0.955407	0.862178	0.775724
	H13463	H	0.912292	0.863944	0.772552
	H13464	H	0.951397	0.643240	0.792206
	H13465	H	0.952182	0.862953	0.792184
	H13466	H	0.932345	0.642828	0.859209
	H13467	H	0.932571	0.862064	0.859244
	H13468	H	0.946479	0.441324	0.745206
	H13469	H	0.903359	0.441542	0.883039
	H13470	H	0.948760	0.441225	0.751776
	H13471	H	0.941902	0.441255	0.754690
	H13472	H	0.904208	0.441377	0.880503
	H13473	H	0.905267	0.441491	0.881705
	H13474	H	0.903254	0.564942	0.883078
	H13475	H	0.946418	0.564946	0.745222
	H13476	H	0.905237	0.565046	0.881734
	H13477	H	0.904239	0.564577	0.880523
	H13478	H	0.941878	0.564787	0.754666
	H13479	H	0.948841	0.564505	0.751793
	H13480	H	0.932073	0.143090	0.859074
	H13481	H	0.932632	0.362231	0.859210
	H13482	H	0.932482	0.064748	0.755082
	H13483	H	0.943857	0.064750	0.756106
	H13484	H	0.926041	0.064810	0.747353
	H13485	H	0.888866	0.863052	0.854695
	H13486	H	0.889323	0.643080	0.854728
	H13487	H	0.889243	0.362817	0.854675
	H13488	H	0.889434	0.143275	0.854676
	H13489	H	0.911971	0.141937	0.772444
	H13490	H	0.955311	0.144356	0.775730
	H13491	H	0.954661	0.364483	0.775781
	H13492	H	0.912269	0.362009	0.772530
	H13493	H	0.952114	0.143691	0.792196
	H13494	H	0.951487	0.363725	0.792256
	H13495	H	0.907609	0.065398	0.882432
	H13496	H	0.906599	0.064602	0.880047
	H13497	H	0.900649	0.064512	0.878845
	H13498	H	0.943866	0.941243	0.756103
	H13499	H	0.932428	0.941220	0.755057
	H13500	H	0.926074	0.941374	0.747319
	H13501	H	0.907548	0.941485	0.882391
	H13502	H	0.906542	0.941147	0.880059
	H13503	H	0.900611	0.941519	0.878851
	Zn13504	Zn	0.876677	0.680717	0.811597
	Zn13505	Zn	0.876426	0.825703	0.811604
	Zn13506	Zn	0.876422	0.180712	0.811555
	Zn13507	Zn	0.876659	0.325823	0.811569
	Zn13508	Zn	0.902410	0.680603	0.881581
	Zn13509	Zn	0.902378	0.825695	0.881583
	Zn13510	Zn	0.902429	0.180621	0.881621
	Zn13511	Zn	0.902457	0.325607	0.881600
	C13512	C	0.950575	0.753521	0.803189
	C13513	C	0.892412	0.753541	0.827194
	C13514	C	0.892462	0.753209	0.837237
	C13515	C	0.891710	0.690894	0.841909
	C13516	C	0.891405	0.815365	0.841887
	C13517	C	0.892499	0.252814	0.827108
	C13518	C	0.892545	0.253011	0.837170
	C13519	C	0.891764	0.190885	0.841854
	C13520	C	0.891607	0.315181	0.841850
	C13521	C	0.896973	0.753409	0.798540
	C13522	C	0.903305	0.753613	0.789262
	C13523	C	0.905663	0.815833	0.784776
	C13524	C	0.905502	0.691451	0.784739
	C13525	C	0.897045	0.252208	0.798569
	C13526	C	0.903257	0.251987	0.789267
	C13527	C	0.905700	0.314048	0.784778
	C13528	C	0.905533	0.189789	0.784753
	C13529	C	0.967070	0.043367	0.819014
	C13530	C	0.967057	0.962624	0.819051
	C13531	C	0.874363	0.043530	0.805775
	C13532	C	0.874391	0.962600	0.805786
	C13533	C	0.868119	0.043755	0.815075
	C13534	C	0.868125	0.963174	0.815098
	C13535	C	0.876134	0.462820	0.810880
	C13536	C	0.964283	0.462711	0.817861
	C13537	C	0.967036	0.462655	0.819552
	C13538	C	0.876142	0.543961	0.810909
	C13539	C	0.967015	0.543370	0.819531
	C13540	C	0.964259	0.543416	0.817818
	C13541	C	0.948550	0.752695	0.833400
	C13542	C	0.948467	0.252965	0.833373
	C13543	C	0.942638	0.752433	0.842732
	C13544	C	0.940040	0.690405	0.847154
	C13545	C	0.940176	0.814413	0.847185
	C13546	C	0.942632	0.252769	0.842696
	C13547	C	0.939899	0.190827	0.847084
	C13548	C	0.940195	0.314739	0.847155
	C13549	C	0.950619	0.253295	0.803229
	C13550	C	0.955224	0.751689	0.764667
	C13551	C	0.918851	0.753908	0.762206
	C13552	C	0.888005	0.753182	0.865720
	C13553	C	0.952177	0.690824	0.788525
	C13554	C	0.952662	0.815053	0.788523
	C13555	C	0.955207	0.752208	0.774707
	C13556	C	0.912561	0.753815	0.771469
	C13557	C	0.910131	0.691618	0.775960
	C13558	C	0.954039	0.690282	0.779388
	C13559	C	0.954543	0.814572	0.779385
	C13560	C	0.910291	0.815870	0.775997
	C13561	C	0.951295	0.753154	0.793169
	C13562	C	0.924387	0.752754	0.869126
	C13563	C	0.934672	0.690409	0.855776
	C13564	C	0.934781	0.814450	0.855798
	C13565	C	0.931888	0.752467	0.860159
	C13566	C	0.902139	0.462673	0.882594
	C13567	C	0.943645	0.462704	0.752142
	C13568	C	0.904089	0.462721	0.881233
	C13569	C	0.902132	0.543363	0.882593
	C13570	C	0.904071	0.543555	0.881243
	C13571	C	0.943621	0.543526	0.752127
	C13572	C	0.924420	0.252700	0.869070
	C13573	C	0.934516	0.190755	0.855693
	C13574	C	0.934815	0.314639	0.855770
	C13575	C	0.931902	0.252627	0.860114
	C13576	C	0.938501	0.043454	0.753921
	C13577	C	0.955205	0.254669	0.764702
	C13578	C	0.918755	0.252122	0.762172
	C13579	C	0.888044	0.253113	0.865672
	C13580	C	0.952624	0.191651	0.788541
	C13581	C	0.952281	0.316105	0.788580
	C13582	C	0.955219	0.254476	0.774750
	C13583	C	0.912417	0.251965	0.771443
	C13584	C	0.888680	0.753121	0.855701
	C13585	C	0.889595	0.815270	0.851029
	C13586	C	0.889904	0.690889	0.851054
	C13587	C	0.888797	0.253087	0.855653
	C13588	C	0.889817	0.315234	0.850998
	C13589	C	0.889987	0.190949	0.851003
	C13590	C	0.910113	0.189815	0.775963
	C13591	C	0.954444	0.192048	0.779399
	C13592	C	0.954087	0.316543	0.779433
	C13593	C	0.910249	0.314041	0.775990
	C13594	C	0.951359	0.253679	0.793208
	C13595	C	0.905785	0.043575	0.881324
	C13596	C	0.932030	0.043455	0.746131
	C13597	C	0.938469	0.962575	0.753906
	C13598	C	0.905768	0.962682	0.881316
	C13599	C	0.932007	0.962686	0.746122
	N13600	N	0.876488	0.070565	0.811566
	N13601	N	0.876489	0.936011	0.811576
	N13602	N	0.876713	0.436068	0.811557
	N13603	N	0.876754	0.570598	0.811581
	N13604	N	0.902339	0.435813	0.881600
	N13605	N	0.902299	0.570393	0.881601
	N13606	N	0.902313	0.070512	0.881579
	N13607	N	0.902244	0.935954	0.881566
	O13608	O	0.981161	0.695201	0.928241
	O13609	O	0.981351	0.811485	0.928188
	O13610	O	0.858927	0.695289	0.953953
	O13611	O	0.859159	0.811538	0.953843
	O13612	O	0.859014	0.195371	0.953860
	O13613	O	0.858962	0.311652	0.953889
	O13614	O	0.858021	0.694731	0.934767
	O13615	O	0.858035	0.811638	0.934750
	O13616	O	0.858212	0.195280	0.934851
	O13617	O	0.858080	0.311928	0.934807
	O13618	O	0.982346	0.695408	0.947270
	O13619	O	0.982468	0.812086	0.947304
	O13620	O	0.982580	0.194620	0.947330
	O13621	O	0.982390	0.311285	0.947287
	O13622	O	0.981375	0.194967	0.928150
	O13623	O	0.981303	0.311355	0.928168
	O13624	O	0.921853	0.694815	0.891508
	O13625	O	0.888206	0.694836	0.892226
	O13626	O	0.951971	0.694895	0.989740
	O13627	O	0.952136	0.811350	0.989839
	O13628	O	0.918449	0.695005	0.990617
	O13629	O	0.918590	0.811118	0.990541
	O13630	O	0.888353	0.811297	0.892254
	O13631	O	0.921996	0.811030	0.891431
	O13632	O	0.921990	0.194749	0.891485
	O13633	O	0.888483	0.194740	0.892321
	O13634	O	0.951916	0.195000	0.989774
	O13635	O	0.951749	0.311377	0.989718
	O13636	O	0.918473	0.195200	0.990600
	O13637	O	0.918439	0.311326	0.990639
	O13638	O	0.888385	0.311392	0.892285
	O13639	O	0.921892	0.311024	0.891492
	H13640	H	0.878125	0.645166	0.965641
	H13641	H	0.878369	0.861919	0.965586
	H13642	H	0.878421	0.145388	0.965505
	H13643	H	0.878086	0.361627	0.965596
	H13644	H	0.869846	0.862769	0.921613
	H13645	H	0.869480	0.643484	0.921605
	H13646	H	0.869715	0.363219	0.921588
	H13647	H	0.869838	0.143931	0.921688
	H13648	H	1.002016	0.064409	0.934343
	H13649	H	0.996116	0.064788	0.935043
	H13650	H	0.996118	0.941240	0.935033
	H13651	H	1.002012	0.941002	0.934349
	H13652	H	1.008101	0.064872	0.937722
	H13653	H	1.008051	0.941388	0.937687
	H13654	H	0.833695	0.065007	0.947441
	H13655	H	0.833619	0.941539	0.947429
	H13656	H	0.841083	0.064736	0.948725
	H13657	H	0.841030	0.941465	0.948702
	H13658	H	0.848375	0.064545	0.945116
	H13659	H	0.848367	0.941651	0.945150
	H13660	H	0.836570	0.441230	0.946387
	H13661	H	0.841133	0.441393	0.946830
	H13662	H	0.834112	0.441379	0.943248
	H13663	H	1.010238	0.440914	0.938629
	H13664	H	1.003669	0.441050	0.942962
	H13665	H	0.995810	0.441689	0.942112
	H13666	H	0.841114	0.564902	0.946738
	H13667	H	0.836667	0.564903	0.946359
	H13668	H	0.995723	0.564444	0.942057
	H13669	H	1.003593	0.565031	0.942944
	H13670	H	1.010257	0.564759	0.938609
	H13671	H	0.834058	0.564874	0.943227
	H13672	H	0.970526	0.644207	0.960388
	H13673	H	0.970922	0.863402	0.960492
	H13674	H	0.970841	0.143518	0.960474
	H13675	H	0.970424	0.362304	0.960328
	H13676	H	0.879403	0.643290	0.906120
	H13677	H	0.941084	0.644789	0.903228
	H13678	H	0.941177	0.861647	0.903116
	H13679	H	0.879792	0.862702	0.906183
	H13680	H	0.962127	0.644945	0.916505
	H13681	H	0.962245	0.861971	0.916419
	H13682	H	0.960527	0.644078	0.975832
	H13683	H	0.960921	0.863211	0.975942
	H13684	H	0.900926	0.441160	0.882847
	H13685	H	0.945222	0.441780	1.000644
	H13686	H	0.899593	0.441394	0.881170
	H13687	H	0.900997	0.441543	0.880241
	H13688	H	0.934219	0.441269	0.997072
	H13689	H	0.940306	0.441283	0.996892
	H13690	H	0.945252	0.564848	1.000667
	H13691	H	0.900880	0.564457	0.882875
	H13692	H	0.940281	0.564687	0.996850
	H13693	H	0.934228	0.565164	0.997051
	H13694	H	0.901013	0.565230	0.880244
	H13695	H	0.899551	0.565304	0.881183
	H13696	H	0.960791	0.143626	0.975897
	H13697	H	0.960315	0.362613	0.975776
	H13698	H	0.898787	0.064491	0.883586
	H13699	H	0.903071	0.065362	0.884373
	H13700	H	0.897355	0.064664	0.880335
	H13701	H	0.899446	0.861396	0.978863
	H13702	H	0.899170	0.644947	0.978932
	H13703	H	0.899231	0.361690	0.978869
	H13704	H	0.899514	0.145367	0.978761
	H13705	H	0.879762	0.143866	0.906227
	H13706	H	0.941361	0.144464	0.903062
	H13707	H	0.940800	0.361458	0.903269
	H13708	H	0.879701	0.362778	0.906134
	H13709	H	0.962462	0.144479	0.916340
	H13710	H	0.961908	0.361547	0.916538
	H13711	H	0.934753	0.064734	0.998869
	H13712	H	0.933738	0.064524	1.000664
	H13713	H	0.937161	0.065222	1.002600
	H13714	H	0.903010	0.941540	0.884411
	H13715	H	0.898669	0.941285	0.883543
	H13716	H	0.897378	0.941473	0.880308
	H13717	H	0.934728	0.941379	0.998895
	H13718	H	0.933759	0.941583	1.000682
	H13719	H	0.937087	0.941123	1.002603
	Zn13720	Zn	0.839538	0.680702	0.943988
	Zn13721	Zn	0.839565	0.825574	0.943996
	Zn13722	Zn	0.839561	0.180594	0.943996
	Zn13723	Zn	0.839492	0.325268	0.944019
	Zn13724	Zn	0.937973	0.680385	1.000416
	Zn13725	Zn	0.937872	0.825877	1.000458
	Zn13726	Zn	0.937944	0.180465	1.000486
	Zn13727	Zn	0.937966	0.325874	1.000507
	C13728	C	0.976191	0.753392	0.925199
	C13729	C	0.864111	0.753443	0.956910
	C13730	C	0.876981	0.753500	0.964816
	C13731	C	0.882857	0.692176	0.968595
	C13732	C	0.882978	0.814762	0.968567
	C13733	C	0.864119	0.253490	0.956845
	C13734	C	0.876991	0.253507	0.964750
	C13735	C	0.883034	0.192300	0.968476
	C13736	C	0.882865	0.314778	0.968532
	C13737	C	0.861454	0.753147	0.931467
	C13738	C	0.869037	0.753088	0.922532
	C13739	C	0.872049	0.815066	0.918183
	C13740	C	0.871851	0.691016	0.918173
	C13741	C	0.861572	0.253634	0.931533
	C13742	C	0.869178	0.253590	0.922605
	C13743	C	0.872036	0.315463	0.918208
	C13744	C	0.872057	0.191559	0.918256
	C13745	C	0.999594	0.043257	0.935588
	C13746	C	0.999582	0.962544	0.935609
	C13747	C	0.837889	0.043579	0.947001
	C13748	C	0.837854	0.962723	0.946997
	C13749	C	0.845255	0.043420	0.943347
	C13750	C	0.845240	0.962825	0.943358
	C13751	C	0.838968	0.462639	0.945911
	C13752	C	1.006749	0.462674	0.937024
	C13753	C	1.000080	0.462626	0.941357
	C13754	C	0.838961	0.543690	0.945894
	C13755	C	1.000052	0.543377	0.941348
	C13756	C	1.006686	0.543436	0.937023
	C13757	C	0.978957	0.753748	0.950586
	C13758	C	0.978974	0.252947	0.950580
	C13759	C	0.971254	0.753744	0.959500
	C13760	C	0.968235	0.691730	0.963822
	C13761	C	0.968456	0.815757	0.963884
	C13762	C	0.971258	0.252974	0.959484
	C13763	C	0.968430	0.191111	0.963869
	C13764	C	0.968177	0.314930	0.963791
	C13765	C	0.976281	0.253142	0.925149
	C13766	C	0.927015	0.752963	0.894459
	C13767	C	0.885880	0.753060	0.895839
	C13768	C	0.913423	0.753040	0.987594
	C13769	C	0.957431	0.691989	0.913527
	C13770	C	0.957505	0.814867	0.913465
	C13771	C	0.939891	0.753164	0.902340
	C13772	C	0.879974	0.752998	0.905152
	C13773	C	0.877305	0.690971	0.909567
	C13774	C	0.945786	0.691949	0.906150
	C13775	C	0.945856	0.814577	0.906081
	C13776	C	0.877529	0.815034	0.909588
	C13777	C	0.963373	0.753450	0.917262
	C13778	C	0.954439	0.753284	0.986199
	C13779	C	0.962792	0.691775	0.972422
	C13780	C	0.963017	0.815628	0.972485
	C13781	C	0.960324	0.753644	0.976879
	C13782	C	0.942462	0.462744	1.001658
	C13783	C	0.900789	0.462751	0.880945
	C13784	C	0.937501	0.462544	0.997894
	C13785	C	0.942444	0.543595	1.001627
	C13786	C	0.937498	0.543693	0.997872
	C13787	C	0.900781	0.543705	0.880943
	C13788	C	0.954222	0.253150	0.986141
	C13789	C	0.962893	0.191234	0.972449
	C13790	C	0.962668	0.314990	0.972379
	C13791	C	0.960161	0.253168	0.976833
	C13792	C	0.901226	0.043631	0.883352
	C13793	C	0.927026	0.252912	0.894469
	C13794	C	0.886076	0.253092	0.895906
	C13795	C	0.913424	0.253338	0.987588
	C13796	C	0.957600	0.191609	0.913448
	C13797	C	0.957292	0.314453	0.913550
	C13798	C	0.939881	0.252985	0.902367
	C13799	C	0.880076	0.253261	0.905215
	C13800	C	0.900537	0.753173	0.979711
	C13801	C	0.894675	0.814527	0.975931
	C13802	C	0.894560	0.692013	0.975956
	C13803	C	0.900567	0.253496	0.979656
	C13804	C	0.894523	0.314665	0.975917
	C13805	C	0.894700	0.192371	0.975854
	C13806	C	0.877539	0.191330	0.909661
	C13807	C	0.945916	0.191527	0.906076
	C13808	C	0.945609	0.314418	0.906184
	C13809	C	0.877498	0.315358	0.909612
	C13810	C	0.963395	0.253071	0.917248
	C13811	C	0.935259	0.043333	0.999970
	C13812	C	0.899857	0.043503	0.880119
	C13813	C	0.901196	0.962793	0.883343
	C13814	C	0.935247	0.962914	0.999968
	C13815	C	0.899842	0.962720	0.880108
	N13816	N	0.839373	0.070431	0.943962
	N13817	N	0.839351	0.935849	0.943964
	N13818	N	0.839369	0.435676	0.943994
	N13819	N	0.839360	0.570348	0.943992
	N13820	N	0.938065	0.435928	1.000457
	N13821	N	0.938047	0.570396	1.000427
	N13822	N	0.938007	0.070471	1.000486
	N13823	N	0.937972	0.935971	1.000491
