data_Molecule from HDF5

_cell_length_a		87.235041
_cell_length_b		19.186554
_cell_length_c		145.710881
_cell_angle_alpha	89.999209
_cell_angle_beta	94.264974
_cell_angle_gamma	89.993873
_symmetry_space_group_name_H-M	'P 1'
_symmetry_Int_Tables_number		1

loop_
	_symmetry_equiv_pos_as_xyz
	x,y,z

loop_
	_atom_site_label
	_atom_site_type_symbol
	_atom_site_fract_x
	_atom_site_fract_y
	_atom_site_fract_z
	O0	O	0.102016	0.694037	0.053604
	O1	O	0.102058	0.810290	0.053609
	O2	O	-0.016752	0.694576	0.079529
	O3	O	-0.016807	0.811019	0.079530
	O4	O	-0.016770	0.194449	0.079542
	O5	O	-0.016820	0.310698	0.079577
	O6	O	-0.017183	0.694379	0.060146
	O7	O	-0.017067	0.811133	0.060186
	O8	O	-0.017025	0.194367	0.060166
	O9	O	-0.017227	0.311071	0.060065
	O10	O	0.106914	0.694725	0.074167
	O11	O	0.106986	0.810633	0.074225
	O12	O	0.106933	0.194754	0.074126
	O13	O	0.106952	0.310946	0.074151
	O14	O	0.101950	0.195075	0.053618
	O15	O	0.102006	0.311040	0.053603
	O16	O	0.045750	0.694456	0.016989
	O17	O	0.014995	0.694443	0.017648
	O18	O	0.070720	0.695187	0.114997
	O19	O	0.070804	0.811051	0.115015
	O20	O	0.039562	0.694771	0.116053
	O21	O	0.039409	0.810960	0.116127
	O22	O	0.014944	0.810888	0.017659
	O23	O	0.045729	0.810772	0.017043
	O24	O	0.045800	0.194507	0.017045
	O25	O	0.014931	0.194407	0.017602
	O26	O	0.070741	0.194966	0.114988
	O27	O	0.070861	0.310881	0.115046
	O28	O	0.039554	0.194827	0.116099
	O29	O	0.039451	0.310810	0.116128
	O30	O	0.014949	0.310829	0.017642
	O31	O	0.045746	0.310812	0.017016
	H32	H	0.001265	0.644291	0.091233
	H33	H	0.001412	0.861136	0.091146
	H34	H	0.001353	0.143919	0.091250
	H35	H	0.001171	0.361181	0.091323
	H36	H	-0.005032	0.861935	0.047107
	H37	H	-0.005156	0.643210	0.047063
	H38	H	-0.005384	0.362280	0.046955
	H39	H	-0.004999	0.143107	0.047089
	H40	H	0.121363	0.064165	0.061625
	H41	H	0.118744	0.064175	0.061501
	H42	H	0.118737	0.940881	0.061501
	H43	H	0.121399	0.940644	0.061681
	H44	H	0.123189	0.064256	0.063592
	H45	H	0.123165	0.941030	0.063611
	H46	H	-0.025514	0.064387	0.066752
	H47	H	-0.025596	0.941261	0.066745
	H48	H	-0.032588	0.064566	0.063384
	H49	H	-0.032597	0.940993	0.063398
	H50	H	-0.043359	0.065197	0.065875
	H51	H	-0.043502	0.941439	0.065914
	H52	H	-0.040507	0.441565	0.070337
	H53	H	-0.036753	0.441482	0.072804
	H54	H	-0.038368	0.441586	0.066121
	H55	H	0.118677	0.441248	0.062309
	H56	H	0.121140	0.441092	0.062162
	H57	H	0.122399	0.440496	0.063130
	H58	H	-0.036730	0.564807	0.072806
	H59	H	-0.040516	0.564725	0.070317
	H60	H	0.122329	0.564389	0.063123
	H61	H	0.121134	0.564180	0.062156
	H62	H	0.118562	0.564191	0.062328
	H63	H	-0.038488	0.564782	0.066162
	H64	H	0.095375	0.645451	0.087263
	H65	H	0.095151	0.860388	0.087122
	H66	H	0.095071	0.144365	0.087103
	H67	H	0.095340	0.361443	0.087191
	H68	H	0.005577	0.642975	0.031608
	H69	H	0.063988	0.643640	0.028641
	H70	H	0.063908	0.860958	0.028721
	H71	H	0.005707	0.861962	0.031652
	H72	H	0.083988	0.643553	0.041854
	H73	H	0.083897	0.860995	0.041948
	H74	H	0.082545	0.645690	0.102059
	H75	H	0.082317	0.860902	0.101935
	H76	H	0.022551	0.440607	0.005383
	H77	H	0.058344	0.440842	0.124969
	H78	H	0.028096	0.440978	0.003247
	H79	H	0.032659	0.441320	0.004719
	H80	H	0.056014	0.441408	0.125803
	H81	H	0.056435	0.441091	0.125069
	H82	H	0.058312	0.564280	0.124970
	H83	H	0.022479	0.564435	0.005373
	H84	H	0.056517	0.564484	0.125102
	H85	H	0.056068	0.564878	0.125882
	H86	H	0.032599	0.564390	0.004758
	H87	H	0.028071	0.564520	0.003238
	H88	H	0.082346	0.144336	0.101932
	H89	H	0.082650	0.361658	0.102034
	H90	H	0.024235	0.064378	0.004181
	H91	H	0.022465	0.064413	0.006680
	H92	H	0.030621	0.064668	0.003943
	H93	H	0.021506	0.861153	0.104334
	H94	H	0.021366	0.644239	0.104408
	H95	H	0.021202	0.361128	0.104532
	H96	H	0.021406	0.144166	0.104443
	H97	H	0.005763	0.143063	0.031626
	H98	H	0.063754	0.144791	0.028761
	H99	H	0.063844	0.361673	0.028736
	H100	H	0.005446	0.362163	0.031516
	H101	H	0.083843	0.144911	0.041934
	H102	H	0.083920	0.361796	0.041902
	H103	H	0.061165	0.064796	0.124859
	H104	H	0.058448	0.064833	0.123524
	H105	H	0.054197	0.064397	0.124442
	H106	H	0.022428	0.941013	0.006656
	H107	H	0.024262	0.941485	0.004187
	H108	H	0.030570	0.941239	0.003991
	H109	H	0.061190	0.941029	0.124813
	H110	H	0.058430	0.941059	0.123479
	H111	H	0.054126	0.940961	0.124417
	Zn112	Zn	-0.034509	0.680420	0.069353
	Zn113	Zn	-0.034486	0.825585	0.069358
	Zn114	Zn	-0.034432	0.180324	0.069316
	Zn115	Zn	-0.034393	0.325631	0.069305
	Zn116	Zn	0.057660	0.680077	0.125839
	Zn117	Zn	0.057583	0.825325	0.125836
	Zn118	Zn	0.057571	0.179940	0.125796
	Zn119	Zn	0.057546	0.325233	0.125820
	C120	C	0.097276	0.752200	0.050602
	C121	C	-0.011997	0.752808	0.082508
	C122	C	0.000148	0.752770	0.090366
	C123	C	0.005753	0.691374	0.094145
	C124	C	0.005836	0.814083	0.094096
	C125	C	-0.012037	0.252555	0.082573
	C126	C	0.000122	0.252598	0.090452
	C127	C	0.005790	0.191171	0.094179
	C128	C	0.005684	0.314077	0.094234
	C129	C	-0.013697	0.752722	0.056892
	C130	C	-0.005816	0.752589	0.048006
	C131	C	-0.002612	0.814364	0.043667
	C132	C	-0.002681	0.690671	0.043638
	C133	C	-0.013648	0.252662	0.056854
	C134	C	-0.005762	0.252665	0.047983
	C135	C	-0.002789	0.314679	0.043583
	C136	C	-0.002570	0.190676	0.043646
	C137	C	0.120072	0.043012	0.061997
	C138	C	0.120064	0.962103	0.062034
	C139	C	-0.030555	0.043348	0.066194
	C140	C	-0.030555	0.962446	0.066177
	C141	C	-0.041404	0.043577	0.068664
	C142	C	-0.041406	0.962640	0.068678
	C143	C	-0.037553	0.462567	0.070962
	C144	C	0.118790	0.462322	0.062948
	C145	C	0.121371	0.462127	0.062824
	C146	C	-0.037540	0.543329	0.070977
	C147	C	0.121339	0.543043	0.062827
	C148	C	0.118752	0.543214	0.062953
	C149	C	0.103835	0.752694	0.077552
	C150	C	0.103838	0.252864	0.077500
	C151	C	0.095993	0.752903	0.086357
	C152	C	0.092501	0.692074	0.090551
	C153	C	0.092359	0.813899	0.090477
	C154	C	0.095912	0.252937	0.086289
	C155	C	0.092286	0.191464	0.090428
	C156	C	0.092430	0.314424	0.090482
	C157	C	0.097263	0.253107	0.050577
	C158	C	0.050482	0.752541	0.020026
	C159	C	0.012424	0.752629	0.021271
	C160	C	0.034738	0.752836	0.113077
	C161	C	0.079475	0.690760	0.038950
	C162	C	0.079447	0.813827	0.038992
	C163	C	0.062633	0.752317	0.027927
	C164	C	0.006041	0.752530	0.030603
	C165	C	0.003249	0.690595	0.035047
	C166	C	0.068341	0.690758	0.031629
	C167	C	0.068308	0.813828	0.031675
	C168	C	0.003290	0.814388	0.035066
	C169	C	0.085064	0.752324	0.042731
	C170	C	0.073872	0.753150	0.111647
	C171	C	0.085410	0.692218	0.098750
	C172	C	0.085273	0.814129	0.098681
	C173	C	0.081783	0.753230	0.102872
	C174	C	0.058462	0.461995	0.125426
	C175	C	0.029742	0.462329	0.004723
	C176	C	0.056610	0.462483	0.125556
	C177	C	0.058482	0.542931	0.125443
	C178	C	0.056662	0.543307	0.125575
	C179	C	0.029722	0.543077	0.004713
	C180	C	0.073918	0.252991	0.111652
	C181	C	0.085238	0.191463	0.098649
	C182	C	0.085372	0.314534	0.098701
	C183	C	0.081754	0.253011	0.102851
	C184	C	0.024536	0.043038	0.005790
	C185	C	0.050552	0.252754	0.020003
	C186	C	0.012437	0.252553	0.021240
	C187	C	0.034730	0.252796	0.113115
	C188	C	0.079345	0.191823	0.039005
	C189	C	0.079405	0.314707	0.038980
	C190	C	0.062679	0.253042	0.027893
	C191	C	0.006073	0.252606	0.030578
	C192	C	0.022530	0.752731	0.105187
	C193	C	0.016938	0.814096	0.101429
	C194	C	0.016869	0.691302	0.101470
	C195	C	0.022516	0.252698	0.105256
	C196	C	0.016810	0.314075	0.101552
	C197	C	0.016916	0.191253	0.101499
	C198	C	0.003338	0.190705	0.035047
	C199	C	0.068249	0.191770	0.031673
	C200	C	0.068312	0.314563	0.031644
	C201	C	0.003127	0.314622	0.034984
	C202	C	0.085077	0.253227	0.042693
	C203	C	0.059229	0.043463	0.124618
	C204	C	0.030940	0.043299	0.005576
	C205	C	0.024504	0.962412	0.005782
	C206	C	0.059236	0.962301	0.124609
	C207	C	0.030891	0.962422	0.005594
	N208	N	-0.034519	0.070148	0.069351
	N209	N	-0.034549	0.935635	0.069369
	N210	N	-0.034435	0.435711	0.069292
	N211	N	-0.034495	0.570229	0.069316
	N212	N	0.057634	0.435361	0.125804
	N213	N	0.057669	0.569907	0.125831
	N214	N	0.057640	0.069935	0.125850
	N215	N	0.057613	0.935401	0.125855
	O216	O	0.132194	0.694648	0.172000
	O217	O	0.132321	0.810806	0.171962
	O218	O	0.013317	0.695223	0.198036
	O219	O	0.013388	0.811332	0.197984
	O220	O	0.013242	0.195452	0.197991
	O221	O	0.013263	0.311524	0.197983
	O222	O	0.008158	0.694861	0.177460
	O223	O	0.008250	0.810901	0.177497
	O224	O	0.008308	0.194513	0.177514
	O225	O	0.008404	0.310509	0.177543
	O226	O	0.132763	0.694715	0.191404
	O227	O	0.132734	0.811389	0.191376
	O228	O	0.132663	0.194084	0.191341
	O229	O	0.132722	0.310675	0.191357
	O230	O	0.132268	0.194131	0.171933
	O231	O	0.132335	0.310425	0.171910
	O232	O	0.075770	0.694994	0.135514
	O233	O	0.044552	0.694468	0.136706
	O234	O	0.100583	0.695181	0.233879
	O235	O	0.100590	0.811413	0.233876
	O236	O	0.069764	0.694924	0.234462
	O237	O	0.069863	0.811026	0.234467
	O238	O	0.044521	0.810271	0.136684
	O239	O	0.075859	0.810856	0.135460
	O240	O	0.075639	0.194437	0.135558
	O241	O	0.044500	0.194457	0.136663
	O242	O	0.100682	0.194275	0.233902
	O243	O	0.100663	0.310634	0.233830
	O244	O	0.069721	0.194915	0.234423
	O245	O	0.069884	0.311211	0.234409
	O246	O	0.044417	0.310437	0.136641
	O247	O	0.075814	0.310624	0.135467
	H248	H	0.031532	0.644988	0.209649
	H249	H	0.031572	0.862003	0.209663
	H250	H	0.031454	0.145082	0.209585
	H251	H	0.031485	0.362038	0.209606
	H252	H	0.019926	0.860809	0.164471
	H253	H	0.019848	0.645087	0.164505
	H254	H	0.020129	0.360518	0.164538
	H255	H	0.019996	0.144312	0.164516
	H256	H	0.154476	0.064332	0.181380
	H257	H	0.151708	0.064425	0.179574
	H258	H	0.151695	0.940888	0.179637
	H259	H	0.154445	0.940516	0.181399
	H260	H	0.153017	0.064863	0.184403
	H261	H	0.153011	0.940875	0.184408
	H262	H	-0.004530	0.064676	0.191087
	H263	H	-0.004554	0.941057	0.191068
	H264	H	-0.001181	0.064375	0.190055
	H265	H	-0.001182	0.941785	0.190035
	H266	H	-0.001197	0.064385	0.186890
	H267	H	-0.001192	0.941224	0.186911
	H268	H	-0.007329	0.440796	0.189896
	H269	H	-0.004256	0.441272	0.190530
	H270	H	-0.008460	0.441248	0.187397
	H271	H	0.143423	0.441609	0.183200
	H272	H	0.145545	0.441396	0.178726
	H273	H	0.151155	0.440774	0.178066
	H274	H	-0.004182	0.564506	0.190510
	H275	H	-0.007177	0.564597	0.189928
	H276	H	0.151259	0.565279	0.178111
	H277	H	0.145501	0.563948	0.178708
	H278	H	0.143409	0.564488	0.183218
	H279	H	-0.008408	0.564629	0.187430
	H280	H	0.120710	0.643486	0.204470
	H281	H	0.120685	0.862582	0.204456
	H282	H	0.120735	0.142757	0.204443
	H283	H	0.120806	0.361961	0.204470
	H284	H	0.032783	0.644572	0.149736
	H285	H	0.093943	0.644440	0.147219
	H286	H	0.094109	0.861152	0.147085
	H287	H	0.032837	0.860608	0.149683
	H288	H	0.113969	0.644723	0.160404
	H289	H	0.114171	0.860974	0.160286
	H290	H	0.109957	0.643588	0.219917
	H291	H	0.109934	0.862710	0.219898
	H292	H	0.059246	0.440535	0.125619
	H293	H	0.088119	0.441408	0.242721
	H294	H	0.058588	0.441027	0.126605
	H295	H	0.057261	0.441215	0.126722
	H296	H	0.084402	0.441290	0.245116
	H297	H	0.084618	0.441073	0.243535
	H298	H	0.088063	0.564548	0.242710
	H299	H	0.059191	0.564231	0.125632
	H300	H	0.084624	0.564835	0.243448
	H301	H	0.084233	0.564649	0.245102
	H302	H	0.057245	0.564489	0.126701
	H303	H	0.058591	0.564194	0.126640
	H304	H	0.110008	0.142612	0.219926
	H305	H	0.110073	0.361815	0.219912
	H306	H	0.057565	0.063474	0.128258
	H307	H	0.060675	0.064368	0.127543
	H308	H	0.053824	0.063575	0.126441
	H309	H	0.051721	0.862075	0.222798
	H310	H	0.051708	0.644850	0.222783
	H311	H	0.051600	0.361762	0.222762
	H312	H	0.051642	0.145078	0.222738
	H313	H	0.032747	0.144243	0.149693
	H314	H	0.094057	0.144633	0.147040
	H315	H	0.093933	0.360456	0.147162
	H316	H	0.032882	0.360297	0.149706
	H317	H	0.114211	0.144540	0.160204
	H318	H	0.114095	0.360465	0.160313
	H319	H	0.095753	0.064016	0.248514
	H320	H	0.097247	0.064280	0.243585
	H321	H	0.088365	0.064814	0.238661
	H322	H	0.060711	0.940657	0.127568
	H323	H	0.057614	0.941063	0.128267
	H324	H	0.053719	0.941196	0.126461
	H325	H	0.095726	0.940602	0.248483
	H326	H	0.097317	0.940893	0.243591
	H327	H	0.088415	0.941102	0.238646
	Zn328	Zn	-0.004837	0.680049	0.188356
	Zn329	Zn	-0.004915	0.825749	0.188314
	Zn330	Zn	-0.004881	0.180166	0.188340
	Zn331	Zn	-0.004929	0.325486	0.188271
	Zn332	Zn	0.087378	0.680255	0.244643
	Zn333	Zn	0.087429	0.825393	0.244665
	Zn334	Zn	0.087322	0.180160	0.244647
	Zn335	Zn	0.087530	0.325400	0.244657
	C336	C	0.127465	0.752705	0.169002
	C337	C	0.018147	0.753328	0.200997
	C338	C	0.030416	0.753441	0.208813
	C339	C	0.036063	0.692059	0.212556
	C340	C	0.036067	0.814873	0.212563
	C341	C	0.018014	0.253473	0.200982
	C342	C	0.030235	0.253486	0.208828
	C343	C	0.035940	0.192120	0.212528
	C344	C	0.035955	0.314873	0.212538
	C345	C	0.011310	0.752865	0.174126
	C346	C	0.019255	0.752843	0.165350
	C347	C	0.022829	0.813984	0.161190
	C348	C	0.022783	0.691688	0.161204
	C349	C	0.011517	0.252465	0.174188
	C350	C	0.019403	0.252406	0.165393
	C351	C	0.022958	0.313622	0.161222
	C352	C	0.022900	0.191121	0.161200
	C353	C	0.152330	0.043172	0.180919
	C354	C	0.152311	0.962288	0.180924
	C355	C	-0.003441	0.043256	0.189975
	C356	C	-0.003429	0.962568	0.189969
	C357	C	-0.003471	0.043473	0.186779
	C358	C	-0.003449	0.962459	0.186785
	C359	C	-0.005564	0.462414	0.189713
	C360	C	0.146701	0.462419	0.183892
	C361	C	0.148808	0.462398	0.179369
	C362	C	-0.005519	0.543331	0.189713
	C363	C	0.148831	0.543192	0.179372
	C364	C	0.146713	0.543255	0.183897
	C365	C	0.129254	0.753085	0.194650
	C366	C	0.129232	0.252386	0.194625
	C367	C	0.121345	0.753075	0.203510
	C368	C	0.118216	0.691139	0.207877
	C369	C	0.118215	0.814991	0.207873
	C370	C	0.121413	0.252282	0.203520
	C371	C	0.118242	0.190317	0.207868
	C372	C	0.118293	0.314285	0.207877
	C373	C	0.127520	0.252272	0.168933
	C374	C	0.080566	0.752924	0.138503
	C375	C	0.041425	0.752398	0.140057
	C376	C	0.065053	0.753065	0.231453
	C377	C	0.109567	0.691664	0.157433
	C378	C	0.109652	0.814034	0.157373
	C379	C	0.092793	0.752846	0.146360
	C380	C	0.033529	0.752624	0.148847
	C381	C	0.029913	0.691525	0.153011
	C382	C	0.098425	0.691602	0.150120
	C383	C	0.098510	0.814156	0.150054
	C384	C	0.029951	0.813844	0.152994
	C385	C	0.115242	0.752817	0.161150
	C386	C	0.103097	0.753293	0.230249
	C387	C	0.112295	0.691183	0.216470
	C388	C	0.112285	0.815056	0.216464
	C389	C	0.109447	0.753174	0.220910
	C390	C	0.088843	0.462628	0.243609
	C391	C	0.057834	0.462353	0.126449
	C392	C	0.085364	0.462359	0.244387
	C393	C	0.088813	0.542986	0.243625
	C394	C	0.085297	0.543350	0.244376
	C395	C	0.057878	0.543067	0.126451
	C396	C	0.103208	0.252349	0.230247
	C397	C	0.112344	0.190230	0.216474
	C398	C	0.112404	0.314163	0.216475
	C399	C	0.109530	0.252198	0.220909
	C400	C	0.058722	0.042946	0.127363
	C401	C	0.080491	0.252539	0.138506
	C402	C	0.041401	0.252397	0.140032
	C403	C	0.064985	0.253175	0.231438
	C404	C	0.109672	0.191400	0.157294
	C405	C	0.109606	0.313577	0.157366
	C406	C	0.092745	0.252530	0.146343
	C407	C	0.033542	0.252328	0.148836
	C408	C	0.052911	0.753415	0.223565
	C409	C	0.047234	0.814916	0.219860
	C410	C	0.047226	0.692042	0.219850
	C411	C	0.052762	0.253383	0.223572
	C412	C	0.047132	0.314812	0.219837
	C413	C	0.047119	0.192078	0.219827
	C414	C	0.029934	0.191098	0.152977
	C415	C	0.098501	0.191405	0.149996
	C416	C	0.098439	0.313639	0.150067
	C417	C	0.029992	0.313518	0.152997
	C418	C	0.115294	0.252418	0.161067
	C419	C	0.094161	0.042984	0.245683
	C420	C	0.054944	0.042812	0.125548
	C421	C	0.058732	0.962212	0.127387
	C422	C	0.094151	0.962278	0.245671
	C423	C	0.054934	0.962231	0.125556
	N424	N	-0.004977	0.070185	0.188330
	N425	N	-0.004963	0.935739	0.188327
	N426	N	-0.004961	0.435512	0.188264
	N427	N	-0.004884	0.569997	0.188307
	N428	N	0.087530	0.435393	0.244638
	N429	N	0.087450	0.570016	0.244628
	N430	N	0.087498	0.070121	0.244633
	N431	N	0.087525	0.935601	0.244634
	O432	O	0.089412	0.694674	0.304122
	O433	O	0.089579	0.811551	0.304077
	O434	O	0.037491	0.695000	0.319567
	O435	O	0.037576	0.811752	0.319558
	O436	O	0.037700	0.193920	0.319625
	O437	O	0.037477	0.310939	0.319619
	O438	O	0.038180	0.694835	0.296376
	O439	O	0.038206	0.811417	0.296364
	O440	O	0.038226	0.195025	0.296427
	O441	O	0.038126	0.311360	0.296394
	O442	O	0.088908	0.694746	0.327350
	O443	O	0.088778	0.811160	0.327310
	O444	O	0.088955	0.194726	0.327362
	O445	O	0.088945	0.311094	0.327316
	O446	O	0.089460	0.193495	0.304125
	O447	O	0.089561	0.310541	0.304074
	O448	O	0.099989	0.694035	0.257070
	O449	O	0.070282	0.694338	0.253942
	O450	O	0.056673	0.694423	0.369770
	O451	O	0.056809	0.810996	0.369832
	O452	O	0.026866	0.694850	0.366573
	O453	O	0.026909	0.811868	0.366601
	O454	O	0.070226	0.811006	0.253872
	O455	O	0.100038	0.810863	0.257092
	O456	O	0.099866	0.193542	0.257071
	O457	O	0.070084	0.194554	0.253891
	O458	O	0.056815	0.195186	0.369796
	O459	O	0.056787	0.311988	0.369778
	O460	O	0.026905	0.193717	0.366632
	O461	O	0.026879	0.310479	0.366661
	O462	O	0.070218	0.311327	0.253891
	O463	O	0.100131	0.310479	0.257068
	H464	H	0.034892	0.643333	0.334764
	H465	H	0.035121	0.863339	0.334756
	H466	H	0.034876	0.142459	0.334861
	H467	H	0.035016	0.362240	0.334823
	H468	H	0.047562	0.862854	0.282417
	H469	H	0.047565	0.643476	0.282481
	H470	H	0.047533	0.363037	0.282442
	H471	H	0.047551	0.143415	0.282495
	H472	H	0.099722	0.065018	0.317674
	H473	H	0.102041	0.064848	0.318368
	H474	H	0.102003	0.941336	0.318426
	H475	H	0.099652	0.941479	0.317641
	H476	H	0.099494	0.064439	0.315532
	H477	H	0.099488	0.941346	0.315479
	H478	H	0.026278	0.064554	0.306535
	H479	H	0.026270	0.941134	0.306432
	H480	H	0.024973	0.064490	0.306190
	H481	H	0.024827	0.941354	0.306124
	H482	H	0.023362	0.064597	0.306818
	H483	H	0.023373	0.940987	0.306824
	H484	H	0.016796	0.440854	0.310393
	H485	H	0.024268	0.440989	0.313249
	H486	H	0.016646	0.441328	0.303363
	H487	H	0.102546	0.440933	0.317339
	H488	H	0.100978	0.441327	0.317054
	H489	H	0.100517	0.441575	0.316459
	H490	H	0.024247	0.564308	0.313212
	H491	H	0.016802	0.563969	0.310349
	H492	H	0.100617	0.564523	0.316438
	H493	H	0.100982	0.564672	0.317098
	H494	H	0.102550	0.564420	0.317345
	H495	H	0.016677	0.564382	0.303384
	H496	H	0.079363	0.643523	0.341221
	H497	H	0.079535	0.862444	0.341330
	H498	H	0.079631	0.143696	0.341292
	H499	H	0.079605	0.363045	0.341256
	H500	H	0.058301	0.643203	0.267044
	H501	H	0.097502	0.642573	0.272297
	H502	H	0.097288	0.862723	0.272280
	H503	H	0.058323	0.862634	0.266957
	H504	H	0.092162	0.642797	0.288907
	H505	H	0.091969	0.862764	0.288919
	H506	H	0.068628	0.643297	0.356681
	H507	H	0.068826	0.862260	0.356788
	H508	H	0.090321	0.441235	0.243758
	H509	H	0.029134	0.440780	0.380251
	H510	H	0.089952	0.440891	0.246025
	H511	H	0.087463	0.441064	0.246545
	H512	H	0.046939	0.441791	0.383815
	H513	H	0.038563	0.441196	0.385368
	H514	H	0.029024	0.564688	0.380201
	H515	H	0.090288	0.564158	0.243798
	H516	H	0.038554	0.564638	0.385342
	H517	H	0.046847	0.564639	0.383778
	H518	H	0.087417	0.564457	0.246570
	H519	H	0.089898	0.564538	0.246040
	H520	H	0.068829	0.143932	0.356742
	H521	H	0.068821	0.363050	0.356714
	H522	H	0.078213	0.064287	0.246713
	H523	H	0.084644	0.064521	0.250331
	H524	H	0.080384	0.064360	0.240006
	H525	H	0.029779	0.863445	0.351385
	H526	H	0.029628	0.643623	0.351432
	H527	H	0.029561	0.362281	0.351446
	H528	H	0.029419	0.142428	0.351481
	H529	H	0.058291	0.143346	0.267045
	H530	H	0.097452	0.142021	0.272250
	H531	H	0.097515	0.362002	0.272323
	H532	H	0.058286	0.362661	0.266989
	H533	H	0.092131	0.141684	0.288883
	H534	H	0.092187	0.361663	0.288929
	H535	H	0.033096	0.064926	0.378985
	H536	H	0.035538	0.064712	0.381939
	H537	H	0.042988	0.064712	0.382519
	H538	H	0.084746	0.940741	0.250292
	H539	H	0.078280	0.940960	0.246710
	H540	H	0.080444	0.941078	0.240020
	H541	H	0.033103	0.940997	0.378993
	H542	H	0.035612	0.941163	0.381935
	H543	H	0.043000	0.941245	0.382490
	Zn544	Zn	0.024948	0.680294	0.307158
	Zn545	Zn	0.024994	0.825510	0.307150
	Zn546	Zn	0.025009	0.180274	0.307175
	Zn547	Zn	0.024961	0.325547	0.307201
	Zn548	Zn	0.039459	0.680475	0.378999
	Zn549	Zn	0.039585	0.825501	0.379056
	Zn550	Zn	0.039637	0.180461	0.379032
	Zn551	Zn	0.039513	0.325553	0.379023
	C552	C	0.089709	0.753006	0.300094
	C553	C	0.037328	0.753395	0.323575
	C554	C	0.035427	0.753349	0.333773
	C555	C	0.033789	0.691162	0.338482
	C556	C	0.033884	0.815592	0.338458
	C557	C	0.037372	0.252397	0.323625
	C558	C	0.035410	0.252256	0.333827
	C559	C	0.033732	0.190193	0.338548
	C560	C	0.033824	0.314398	0.338529
	C561	C	0.040738	0.753126	0.292770
	C562	C	0.047139	0.753096	0.283458
	C563	C	0.049958	0.815124	0.279000
	C564	C	0.049950	0.691067	0.279046
	C565	C	0.040727	0.253190	0.292803
	C566	C	0.046992	0.253281	0.283456
	C567	C	0.049883	0.315193	0.279019
	C568	C	0.049867	0.191127	0.279050
	C569	C	0.101185	0.043576	0.317643
	C570	C	0.101142	0.962514	0.317641
	C571	C	0.025494	0.043214	0.306568
	C572	C	0.025453	0.962540	0.306527
	C573	C	0.023941	0.043191	0.307230
	C574	C	0.023939	0.962380	0.307234
	C575	C	0.021742	0.462325	0.310604
	C576	C	0.102648	0.462501	0.316930
	C577	C	0.101029	0.462650	0.316684
	C578	C	0.021755	0.542977	0.310578
	C579	C	0.101068	0.543363	0.316698
	C580	C	0.102642	0.543378	0.316929
	C581	C	0.086363	0.752974	0.330966
	C582	C	0.086383	0.252993	0.330942
	C583	C	0.080048	0.752968	0.340306
	C584	C	0.077078	0.691089	0.344685
	C585	C	0.077170	0.814735	0.344754
	C586	C	0.080027	0.253313	0.340263
	C587	C	0.077218	0.191369	0.344717
	C588	C	0.077218	0.315394	0.344698
	C589	C	0.089726	0.251883	0.300107
	C590	C	0.099795	0.752441	0.261088
	C591	C	0.066824	0.752756	0.257189
	C592	C	0.027141	0.753449	0.362588
	C593	C	0.093217	0.690573	0.285192
	C594	C	0.093116	0.815009	0.285199
	C595	C	0.097899	0.752718	0.271284
	C596	C	0.058999	0.752841	0.266084
	C597	C	0.055834	0.690918	0.270440
	C598	C	0.096306	0.690516	0.275982
	C599	C	0.096195	0.814935	0.275983
	C600	C	0.055858	0.814982	0.270397
	C601	C	0.091536	0.752805	0.289887
	C602	C	0.060252	0.752719	0.366544
	C603	C	0.071162	0.690864	0.353280
	C604	C	0.071268	0.814664	0.353349
	C605	C	0.068135	0.752713	0.357675
	C606	C	0.032301	0.462381	0.377994
	C607	C	0.088457	0.462284	0.245854
	C608	C	0.041792	0.462580	0.383104
	C609	C	0.032270	0.543367	0.377988
	C610	C	0.041768	0.543275	0.383109
	C611	C	0.088410	0.543339	0.245865
	C612	C	0.060273	0.253562	0.366532
	C613	C	0.071300	0.191484	0.353308
	C614	C	0.071298	0.315451	0.353292
	C615	C	0.068120	0.253459	0.357638
	C616	C	0.083061	0.043184	0.247512
	C617	C	0.099799	0.252040	0.261076
	C618	C	0.066704	0.252995	0.257167
	C619	C	0.027086	0.252156	0.362631
	C620	C	0.093245	0.189443	0.285184
	C621	C	0.093269	0.313916	0.285214
	C622	C	0.097908	0.252053	0.271291
	C623	C	0.058853	0.253066	0.266074
	C624	C	0.029099	0.753577	0.352385
	C625	C	0.030778	0.815644	0.347671
	C626	C	0.030710	0.691328	0.347702
	C627	C	0.029016	0.252331	0.352441
	C628	C	0.030709	0.314496	0.347746
	C629	C	0.030602	0.190160	0.347757
	C630	C	0.055744	0.191045	0.270439
	C631	C	0.096287	0.189670	0.275957
	C632	C	0.096323	0.314168	0.275997
	C633	C	0.055762	0.315133	0.270412
	C634	C	0.091625	0.251608	0.289905
	C635	C	0.035664	0.043585	0.380089
	C636	C	0.085232	0.043237	0.240729
	C637	C	0.083112	0.962273	0.247488
	C638	C	0.035674	0.962448	0.380098
	C639	C	0.085275	0.962341	0.240738
	N640	N	0.025074	0.070094	0.307203
	N641	N	0.025094	0.935583	0.307139
	N642	N	0.025133	0.435533	0.307192
	N643	N	0.025131	0.570063	0.307182
	N644	N	0.039314	0.435632	0.379004
	N645	N	0.039280	0.570212	0.378988
	N646	N	0.039406	0.070249	0.379098
	N647	N	0.039415	0.935689	0.379107
	O648	O	0.114318	0.694931	0.425350
	O649	O	0.114259	0.810992	0.425304
	O650	O	-0.005380	0.695037	0.451698
	O651	O	-0.005290	0.811204	0.451677
	O652	O	-0.005423	0.194910	0.451644
	O653	O	-0.005324	0.311123	0.451631
	O654	O	-0.005658	0.694705	0.432290
	O655	O	-0.005793	0.811550	0.432296
	O656	O	-0.005705	0.194309	0.432270
	O657	O	-0.005654	0.311089	0.432297
	O658	O	0.119325	0.695035	0.445767
	O659	O	0.119261	0.810966	0.445742
	O660	O	0.119295	0.195204	0.445746
	O661	O	0.119304	0.311157	0.445741
	O662	O	0.114193	0.194674	0.425328
	O663	O	0.114176	0.310680	0.425305
	O664	O	0.057194	0.694449	0.389198
	O665	O	0.026356	0.695098	0.389826
	O666	O	0.083142	0.695073	0.486600
	O667	O	0.082927	0.811159	0.486584
	O668	O	0.051780	0.694804	0.487810
	O669	O	0.051704	0.810752	0.487787
	O670	O	0.026350	0.811356	0.389831
	O671	O	0.057402	0.810856	0.389137
	O672	O	0.057340	0.195016	0.389085
	O673	O	0.026449	0.194293	0.389857
	O674	O	0.083077	0.195056	0.486605
	O675	O	0.083121	0.310959	0.486646
	O676	O	0.051583	0.195228	0.487797
	O677	O	0.051715	0.311339	0.487720
	O678	O	0.026324	0.310867	0.389805
	O679	O	0.057324	0.311114	0.389103
	H680	H	0.013107	0.644859	0.463140
	H681	H	0.012949	0.861162	0.463289
	H682	H	0.012933	0.144544	0.463227
	H683	H	0.012934	0.361312	0.463197
	H684	H	0.006133	0.862683	0.419228
	H685	H	0.006337	0.643789	0.419230
	H686	H	0.006404	0.362390	0.419207
	H687	H	0.006292	0.142976	0.419209
	H688	H	0.132305	0.064515	0.436418
	H689	H	0.134260	0.064277	0.435987
	H690	H	0.134254	0.940806	0.436017
	H691	H	0.132397	0.940935	0.436454
	H692	H	0.130079	0.064175	0.435346
	H693	H	0.130002	0.941013	0.435355
	H694	H	-0.024202	0.064510	0.436835
	H695	H	-0.024177	0.941393	0.436883
	H696	H	-0.029734	0.064929	0.438657
	H697	H	-0.029698	0.941086	0.438698
	H698	H	-0.029380	0.064772	0.444076
	H699	H	-0.029381	0.941028	0.444053
	H700	H	-0.018477	0.441450	0.438224
	H701	H	-0.024643	0.441064	0.437100
	H702	H	-0.015942	0.441379	0.443213
	H703	H	0.131590	0.440812	0.435891
	H704	H	0.130543	0.440999	0.434721
	H705	H	0.131346	0.441190	0.433990
	H706	H	-0.024677	0.564742	0.437054
	H707	H	-0.018478	0.564249	0.438198
	H708	H	0.131368	0.564936	0.434031
	H709	H	0.130612	0.564380	0.434782
	H710	H	0.131667	0.564444	0.435901
	H711	H	-0.015928	0.564229	0.443236
	H712	H	0.107567	0.645131	0.458814
	H713	H	0.107610	0.860833	0.458807
	H714	H	0.107530	0.145282	0.458755
	H715	H	0.107673	0.361098	0.458827
	H716	H	0.017047	0.643930	0.403766
	H717	H	0.075580	0.643789	0.400780
	H718	H	0.075782	0.861209	0.400647
	H719	H	0.016843	0.862746	0.403764
	H720	H	0.095869	0.643831	0.413834
	H721	H	0.096103	0.861338	0.413689
	H722	H	0.094795	0.645359	0.473600
	H723	H	0.094806	0.861135	0.473600
	H724	H	0.030540	0.441032	0.375029
	H725	H	0.072029	0.441371	0.495801
	H726	H	0.042097	0.441011	0.373006
	H727	H	0.048938	0.441107	0.376739
	H728	H	0.066528	0.441634	0.497046
	H729	H	0.068097	0.441563	0.495596
	H730	H	0.072139	0.565018	0.495826
	H731	H	0.030562	0.564777	0.375040
	H732	H	0.068052	0.564607	0.495624
	H733	H	0.066545	0.564881	0.497032
	H734	H	0.048906	0.564544	0.376719
	H735	H	0.042070	0.564623	0.373004
	H736	H	0.094748	0.145337	0.473582
	H737	H	0.094893	0.360984	0.473650
	H738	H	0.042411	0.064596	0.375862
	H739	H	0.037105	0.064022	0.375435
	H740	H	0.045885	0.065015	0.379916
	H741	H	0.033273	0.861106	0.476350
	H742	H	0.033424	0.644433	0.476194
	H743	H	0.033297	0.361498	0.476204
	H744	H	0.033266	0.144915	0.476258
	H745	H	0.017026	0.142907	0.403733
	H746	H	0.075582	0.145021	0.400621
	H747	H	0.075459	0.361106	0.400782
	H748	H	0.017121	0.362220	0.403763
	H749	H	0.095874	0.144733	0.413695
	H750	H	0.095688	0.361004	0.413845
	H751	H	0.075537	0.064466	0.498242
	H752	H	0.074392	0.064679	0.495448
	H753	H	0.068098	0.064497	0.494116
	H754	H	0.037031	0.941506	0.375437
	H755	H	0.042392	0.941249	0.375875
	H756	H	0.045819	0.940859	0.379855
	H757	H	0.075462	0.941468	0.498308
	H758	H	0.074324	0.941234	0.495499
	H759	H	0.068053	0.941189	0.494118
	Zn760	Zn	-0.022989	0.680422	0.441518
	Zn761	Zn	-0.023049	0.825351	0.441529
	Zn762	Zn	-0.023031	0.180467	0.441489
	Zn763	Zn	-0.023002	0.325366	0.441499
	Zn764	Zn	0.070007	0.680079	0.497427
	Zn765	Zn	0.069891	0.825730	0.497445
	Zn766	Zn	0.069910	0.180088	0.497383
	Zn767	Zn	0.069909	0.325720	0.497438
	C768	C	0.109495	0.752834	0.422346
	C769	C	-0.000523	0.753063	0.454662
	C770	C	0.011785	0.753039	0.462468
	C771	C	0.017581	0.691726	0.466098
	C772	C	0.017508	0.814199	0.466182
	C773	C	-0.000583	0.252947	0.454631
	C774	C	0.011680	0.252854	0.462438
	C775	C	0.017411	0.191628	0.466141
	C776	C	0.017428	0.314259	0.466107
	C777	C	-0.002224	0.753224	0.429052
	C778	C	0.005609	0.753228	0.420170
	C779	C	0.008645	0.815185	0.415811
	C780	C	0.008753	0.691303	0.415806
	C781	C	-0.002219	0.252732	0.429012
	C782	C	0.005670	0.252754	0.420135
	C783	C	0.008823	0.314708	0.415784
	C784	C	0.008743	0.190592	0.415779
	C785	C	0.133051	0.043252	0.435901
	C786	C	0.133077	0.962152	0.435922
	C787	C	-0.026007	0.043358	0.438752
	C788	C	-0.025985	0.962545	0.438766
	C789	C	-0.025641	0.043326	0.444166
	C790	C	-0.025667	0.962581	0.444168
	C791	C	-0.022014	0.462467	0.438671
	C792	C	0.132383	0.462130	0.435673
	C793	C	0.131326	0.462449	0.434526
	C794	C	-0.022001	0.543382	0.438646
	C795	C	0.131343	0.543253	0.434560
	C796	C	0.132403	0.543092	0.435696
	C797	C	0.116177	0.752946	0.449118
	C798	C	0.116198	0.253226	0.449106
	C799	C	0.108289	0.753001	0.457939
	C800	C	0.104753	0.691915	0.462112
	C801	C	0.104705	0.814228	0.462091
	C802	C	0.108365	0.253237	0.457926
	C803	C	0.104750	0.192171	0.462081
	C804	C	0.104834	0.314255	0.462122
	C805	C	0.109355	0.252686	0.422359
	C806	C	0.062126	0.752548	0.392122
	C807	C	0.023845	0.753257	0.393459
	C808	C	0.046889	0.752693	0.484844
	C809	C	0.091384	0.691021	0.410918
	C810	C	0.091507	0.814069	0.410841
	C811	C	0.074448	0.752463	0.399941
	C812	C	0.017519	0.753333	0.402807
	C813	C	0.014694	0.691378	0.407219
	C814	C	0.080111	0.690976	0.403682
	C815	C	0.080231	0.813996	0.403597
	C816	C	0.014576	0.815203	0.407219
	C817	C	0.097151	0.752588	0.414578
	C818	C	0.086137	0.753246	0.483241
	C819	C	0.097679	0.692073	0.470327
	C820	C	0.097633	0.814331	0.470305
	C821	C	0.094039	0.753255	0.474467
	C822	C	0.072049	0.462377	0.496838
	C823	C	0.043842	0.462448	0.375959
	C824	C	0.068015	0.462673	0.496617
	C825	C	0.072092	0.543384	0.496834
	C826	C	0.068025	0.543407	0.496607
	C827	C	0.043818	0.543356	0.375959
	C828	C	0.086251	0.253022	0.483271
	C829	C	0.097687	0.192073	0.470300
	C830	C	0.097771	0.314238	0.470342
	C831	C	0.094207	0.253121	0.474496
	C832	C	0.039685	0.043022	0.376544
	C833	C	0.062119	0.253085	0.392076
	C834	C	0.023880	0.252593	0.393434
	C835	C	0.046815	0.253326	0.484798
	C836	C	0.091322	0.191759	0.410840
	C837	C	0.091214	0.314087	0.410930
	C838	C	0.074376	0.253046	0.399911
	C839	C	0.017531	0.252600	0.402759
	C840	C	0.034551	0.752820	0.477072
	C841	C	0.028802	0.814123	0.473414
	C842	C	0.028875	0.691589	0.473329
	C843	C	0.034424	0.253189	0.477050
	C844	C	0.028738	0.314380	0.473327
	C845	C	0.028710	0.191885	0.473361
	C846	C	0.014681	0.190539	0.407191
	C847	C	0.080109	0.191785	0.403560
	C848	C	0.080018	0.314236	0.403653
	C849	C	0.014736	0.314619	0.407193
	C850	C	0.096998	0.252858	0.414589
	C851	C	0.073598	0.043493	0.496991
	C852	C	0.043103	0.043433	0.380643
	C853	C	0.039663	0.962594	0.376551
	C854	C	0.073570	0.962664	0.497012
	C855	C	0.043085	0.962421	0.380634
	N856	N	-0.023216	0.070173	0.441495
	N857	N	-0.023222	0.935538	0.441529
	N858	N	-0.023114	0.435662	0.441539
	N859	N	-0.023122	0.570271	0.441526
	N860	N	0.070034	0.435643	0.497417
	N861	N	0.070079	0.570106	0.497439
	N862	N	0.069949	0.070093	0.497406
	N863	N	0.069909	0.935625	0.497422
	O864	O	0.144800	0.694904	0.543434
	O865	O	0.144913	0.811316	0.543425
	O866	O	0.025492	0.694370	0.569631
	O867	O	0.025681	0.810663	0.569617
	O868	O	0.025701	0.194454	0.569557
	O869	O	0.025594	0.310501	0.569666
	O870	O	0.020532	0.694646	0.549123
	O871	O	0.020639	0.810780	0.549133
	O872	O	0.020653	0.195129	0.549158
	O873	O	0.020536	0.311077	0.549085
	O874	O	0.145113	0.694799	0.562791
	O875	O	0.145258	0.811623	0.562871
	O876	O	0.145171	0.194810	0.562850
	O877	O	0.145204	0.311488	0.562885
	O878	O	0.144921	0.194294	0.543391
	O879	O	0.144820	0.310717	0.543415
	O880	O	0.088150	0.695347	0.507070
	O881	O	0.056806	0.694341	0.508263
	O882	O	0.113256	0.694820	0.605369
	O883	O	0.113138	0.811260	0.605315
	O884	O	0.082369	0.694534	0.605905
	O885	O	0.082307	0.810757	0.605931
	O886	O	0.056872	0.810509	0.508275
	O887	O	0.088109	0.811470	0.507131
	O888	O	0.088100	0.194349	0.507084
	O889	O	0.056772	0.195123	0.508230
	O890	O	0.113273	0.194961	0.605403
	O891	O	0.113100	0.311575	0.605324
	O892	O	0.082358	0.193853	0.605981
	O893	O	0.082335	0.310312	0.605885
	O894	O	0.056739	0.311208	0.508249
	O895	O	0.088034	0.310550	0.507155
	H896	H	0.043873	0.643653	0.581185
	H897	H	0.043907	0.861023	0.581197
	H898	H	0.043876	0.143591	0.581233
	H899	H	0.043908	0.360265	0.581226
	H900	H	0.032292	0.860775	0.536055
	H901	H	0.032336	0.643994	0.536122
	H902	H	0.032218	0.360917	0.536081
	H903	H	0.032403	0.144998	0.536142
	H904	H	0.166695	0.064658	0.548947
	H905	H	0.159030	0.064465	0.548404
	H906	H	0.158977	0.941412	0.548437
	H907	H	0.166684	0.940838	0.548945
	H908	H	0.171519	0.064357	0.554772
	H909	H	0.171568	0.940989	0.554764
	H910	H	0.003912	0.064493	0.559635
	H911	H	0.003983	0.941141	0.559621
	H912	H	0.005000	0.064673	0.561333
	H913	H	0.005019	0.941218	0.561298
	H914	H	0.008987	0.065014	0.561846
	H915	H	0.008969	0.941270	0.561869
	H916	H	0.006287	0.441243	0.561741
	H917	H	0.009048	0.441243	0.561779
	H918	H	0.004087	0.440977	0.559779
	H919	H	0.159959	0.441459	0.551400
	H920	H	0.164881	0.440558	0.551687
	H921	H	0.166660	0.440741	0.553529
	H922	H	0.008964	0.564656	0.561767
	H923	H	0.006167	0.564580	0.561745
	H924	H	0.166725	0.563977	0.553519
	H925	H	0.164921	0.564639	0.551619
	H926	H	0.160100	0.564782	0.551351
	H927	H	0.004061	0.564227	0.559766
	H928	H	0.133077	0.643462	0.575836
	H929	H	0.133256	0.862518	0.575937
	H930	H	0.133233	0.143519	0.575946
	H931	H	0.133206	0.362564	0.575920
	H932	H	0.045209	0.643896	0.521336
	H933	H	0.106207	0.644527	0.518803
	H934	H	0.106634	0.861961	0.518620
	H935	H	0.045123	0.860700	0.521275
	H936	H	0.126422	0.644777	0.531894
	H937	H	0.126921	0.861651	0.531706
	H938	H	0.122342	0.643154	0.591306
	H939	H	0.122500	0.862477	0.591382
	H940	H	0.073510	0.441130	0.497428
	H941	H	0.099450	0.441235	0.609016
	H942	H	0.071422	0.440970	0.499363
	H943	H	0.068549	0.440957	0.499205
	H944	H	0.090038	0.441695	0.619455
	H945	H	0.088693	0.441826	0.613470
	H946	H	0.099445	0.565254	0.609045
	H947	H	0.073556	0.564437	0.497426
	H948	H	0.088714	0.565187	0.613542
	H949	H	0.090079	0.564704	0.619545
	H950	H	0.068483	0.564320	0.499232
	H951	H	0.071493	0.564064	0.499411
	H952	H	0.122488	0.143559	0.591436
	H953	H	0.122526	0.362651	0.591389
	H954	H	0.066220	0.064699	0.499790
	H955	H	0.070758	0.064883	0.500744
	H956	H	0.064650	0.064318	0.495912
	H957	H	0.064122	0.861073	0.594290
	H958	H	0.064119	0.643770	0.594288
	H959	H	0.064120	0.360360	0.594318
	H960	H	0.064114	0.143269	0.594348
	H961	H	0.045190	0.144976	0.521334
	H962	H	0.106435	0.143545	0.518703
	H963	H	0.106264	0.361261	0.518757
	H964	H	0.045001	0.361001	0.521263
	H965	H	0.126643	0.143743	0.531812
	H966	H	0.126473	0.361231	0.531849
	H967	H	0.102437	0.065056	0.615287
	H968	H	0.100368	0.064753	0.614495
	H969	H	0.097485	0.065067	0.615261
	H970	H	0.070688	0.941238	0.500778
	H971	H	0.066188	0.940964	0.499750
	H972	H	0.064675	0.941401	0.495934
	H973	H	0.102438	0.941045	0.615302
	H974	H	0.100387	0.941480	0.614461
	H975	H	0.097438	0.941445	0.615243
	Zn976	Zn	0.007305	0.680002	0.559944
	Zn977	Zn	0.007515	0.825637	0.559971
	Zn978	Zn	0.007368	0.180094	0.559917
	Zn979	Zn	0.007514	0.325463	0.559949
	Zn980	Zn	0.100041	0.680703	0.616150
	Zn981	Zn	0.099951	0.825667	0.616133
	Zn982	Zn	0.100022	0.180789	0.616180
	Zn983	Zn	0.099842	0.325566	0.616113
	C984	C	0.140012	0.753175	0.540479
	C985	C	0.030341	0.752382	0.572624
	C986	C	0.042625	0.752320	0.580445
	C987	C	0.048354	0.690842	0.584120
	C988	C	0.048369	0.813777	0.584129
	C989	C	0.030395	0.252366	0.572620
	C990	C	0.042665	0.251971	0.580448
	C991	C	0.048405	0.190564	0.584142
	C992	C	0.048404	0.313226	0.584137
	C993	C	0.023724	0.752639	0.545772
	C994	C	0.031616	0.752428	0.536981
	C995	C	0.035166	0.813678	0.532783
	C996	C	0.035205	0.691054	0.532832
	C997	C	0.023699	0.253052	0.545747
	C998	C	0.031603	0.252997	0.536950
	C999	C	0.035130	0.314207	0.532778
	C1000	C	0.035225	0.191802	0.532806
	C1001	C	0.162818	0.043232	0.549979
	C1002	C	0.162795	0.962408	0.549973
	C1003	C	0.005254	0.043132	0.560321
	C1004	C	0.005282	0.962337	0.560329
	C1005	C	0.009244	0.043599	0.560861
	C1006	C	0.009262	0.962563	0.560865
	C1007	C	0.007565	0.462364	0.561279
	C1008	C	0.160026	0.462647	0.552644
	C1009	C	0.164937	0.462199	0.552856
	C1010	C	0.007517	0.543325	0.561264
	C1011	C	0.164971	0.543197	0.552853
	C1012	C	0.160071	0.543236	0.552619
	C1013	C	0.141706	0.753172	0.566085
	C1014	C	0.141709	0.253108	0.566130
	C1015	C	0.133784	0.753049	0.574959
	C1016	C	0.130612	0.690915	0.579273
	C1017	C	0.130700	0.814965	0.579327
	C1018	C	0.133864	0.252966	0.575015
	C1019	C	0.130754	0.191050	0.579381
	C1020	C	0.130742	0.314968	0.579354
	C1021	C	0.140066	0.252459	0.540437
	C1022	C	0.092877	0.753376	0.510109
	C1023	C	0.053726	0.752447	0.511631
	C1024	C	0.077502	0.752599	0.602961
	C1025	C	0.121996	0.691881	0.528936
	C1026	C	0.122266	0.814711	0.528842
	C1027	C	0.105169	0.753410	0.517932
	C1028	C	0.045861	0.752370	0.520439
	C1029	C	0.042315	0.691002	0.524625
	C1030	C	0.110794	0.691836	0.521659
	C1031	C	0.111069	0.814762	0.521562
	C1032	C	0.042269	0.813632	0.524580
	C1033	C	0.127782	0.753288	0.532639
	C1034	C	0.115678	0.752981	0.601722
	C1035	C	0.124728	0.690876	0.587887
	C1036	C	0.124822	0.814870	0.587931
	C1037	C	0.121953	0.752911	0.592356
	C1038	C	0.103046	0.462426	0.611855
	C1039	C	0.069975	0.462470	0.498804
	C1040	C	0.092196	0.462781	0.616377
	C1041	C	0.103063	0.543668	0.611852
	C1042	C	0.092239	0.543646	0.616418
	C1043	C	0.069995	0.543118	0.498808
	C1044	C	0.115699	0.253212	0.601749
	C1045	C	0.124856	0.191133	0.587980
	C1046	C	0.124851	0.315043	0.587951
	C1047	C	0.122050	0.253086	0.592410
	C1048	C	0.068879	0.043379	0.499504
	C1049	C	0.092846	0.252422	0.510120
	C1050	C	0.053674	0.253090	0.511603
	C1051	C	0.077494	0.251924	0.602981
	C1052	C	0.122104	0.190889	0.528905
	C1053	C	0.122020	0.313938	0.528931
	C1054	C	0.105150	0.252460	0.517939
	C1055	C	0.045812	0.252966	0.520405
	C1056	C	0.065223	0.752466	0.595138
	C1057	C	0.059581	0.813872	0.591399
	C1058	C	0.059575	0.690946	0.591393
	C1059	C	0.065229	0.251757	0.595159
	C1060	C	0.059606	0.313166	0.591412
	C1061	C	0.059603	0.190353	0.591429
	C1062	C	0.042300	0.191807	0.524599
	C1063	C	0.110903	0.190837	0.521629
	C1064	C	0.110811	0.314028	0.521660
	C1065	C	0.042204	0.314102	0.524568
	C1066	C	0.127773	0.252452	0.532626
	C1067	C	0.101077	0.043730	0.615229
	C1068	C	0.067301	0.043105	0.495633
	C1069	C	0.068848	0.962403	0.499497
	C1070	C	0.101066	0.962523	0.615204
	C1071	C	0.067308	0.962504	0.495651
	N1072	N	0.007373	0.070149	0.559922
	N1073	N	0.007440	0.935695	0.559940
	N1074	N	0.007424	0.435604	0.559953
	N1075	N	0.007354	0.570071	0.559942
	N1076	N	0.100072	0.435679	0.616085
	N1077	N	0.100140	0.570265	0.616108
	N1078	N	0.100100	0.070602	0.616165
	N1079	N	0.100126	0.935987	0.616142
	O1080	O	0.101767	0.695298	0.675594
	O1081	O	0.101919	0.812266	0.675565
	O1082	O	0.049988	0.693728	0.691069
	O1083	O	0.049937	0.810684	0.691039
	O1084	O	0.049999	0.194879	0.691012
	O1085	O	0.050054	0.311718	0.691036
	O1086	O	0.050504	0.694226	0.667795
	O1087	O	0.050690	0.810585	0.667834
	O1088	O	0.050529	0.194936	0.667845
	O1089	O	0.050668	0.311361	0.667851
	O1090	O	0.100978	0.694648	0.698753
	O1091	O	0.101109	0.811223	0.698792
	O1092	O	0.100955	0.194280	0.698725
	O1093	O	0.100897	0.310661	0.698718
	O1094	O	0.101941	0.194189	0.675583
	O1095	O	0.101769	0.311195	0.675584
	O1096	O	0.112421	0.694512	0.628617
	O1097	O	0.082557	0.694067	0.625302
	O1098	O	0.069225	0.694276	0.741329
	O1099	O	0.069191	0.811000	0.741350
	O1100	O	0.039381	0.693790	0.738094
	O1101	O	0.039523	0.810664	0.738098
	O1102	O	0.082668	0.810797	0.625359
	O1103	O	0.112603	0.811253	0.628552
	O1104	O	0.112547	0.194888	0.628605
	O1105	O	0.082720	0.194371	0.625403
	O1106	O	0.069239	0.194433	0.741333
	O1107	O	0.069309	0.311068	0.741346
	O1108	O	0.039495	0.194858	0.738075
	O1109	O	0.039509	0.311661	0.738047
	O1110	O	0.082603	0.311115	0.625347
	O1111	O	0.112325	0.311679	0.628565
	H1112	H	0.047271	0.642502	0.706265
	H1113	H	0.047420	0.862274	0.706262
	H1114	H	0.047410	0.143166	0.706262
	H1115	H	0.047311	0.363134	0.706206
	H1116	H	0.059924	0.862021	0.653859
	H1117	H	0.059892	0.642989	0.653864
	H1118	H	0.060062	0.362276	0.653923
	H1119	H	0.059927	0.143790	0.653952
	H1120	H	0.116868	0.063853	0.687794
	H1121	H	0.115490	0.063826	0.686733
	H1122	H	0.115547	0.941211	0.686757
	H1123	H	0.116889	0.941002	0.687799
	H1124	H	0.115982	0.065032	0.689307
	H1125	H	0.115920	0.941030	0.689341
	H1126	H	0.037504	0.064579	0.681940
	H1127	H	0.037452	0.941224	0.681907
	H1128	H	0.041744	0.064212	0.680976
	H1129	H	0.041753	0.941255	0.680990
	H1130	H	0.042318	0.064733	0.677182
	H1131	H	0.042392	0.940653	0.677139
	H1132	H	0.035605	0.440777	0.676967
	H1133	H	0.034320	0.440702	0.678328
	H1134	H	0.039193	0.441170	0.677158
	H1135	H	0.116784	0.441084	0.689275
	H1136	H	0.113384	0.441667	0.689727
	H1137	H	0.111434	0.441346	0.688596
	H1138	H	0.034293	0.564470	0.678302
	H1139	H	0.035544	0.564417	0.676988
	H1140	H	0.111455	0.564619	0.688634
	H1141	H	0.113380	0.565074	0.689766
	H1142	H	0.116841	0.564418	0.689301
	H1143	H	0.039179	0.564746	0.677149
	H1144	H	0.091799	0.643546	0.712699
	H1145	H	0.091735	0.862314	0.712700
	H1146	H	0.091906	0.143009	0.712749
	H1147	H	0.091594	0.362269	0.712666
	H1148	H	0.070636	0.642888	0.638402
	H1149	H	0.109768	0.643356	0.643785
	H1150	H	0.109940	0.863349	0.643771
	H1151	H	0.070649	0.861955	0.638401
	H1152	H	0.104377	0.643453	0.660404
	H1153	H	0.104630	0.863530	0.660411
	H1154	H	0.081239	0.643396	0.728207
	H1155	H	0.081072	0.862270	0.728197
	H1156	H	0.108677	0.441083	0.611674
	H1157	H	0.049582	0.441118	0.749974
	H1158	H	0.110501	0.441187	0.619809
	H1159	H	0.102592	0.441345	0.623067
	H1160	H	0.052496	0.440984	0.752036
	H1161	H	0.050425	0.441135	0.751671
	H1162	H	0.049487	0.564047	0.749933
	H1163	H	0.108715	0.564798	0.611626
	H1164	H	0.050379	0.564313	0.751702
	H1165	H	0.052454	0.564477	0.752067
	H1166	H	0.102785	0.564676	0.623090
	H1167	H	0.110644	0.564315	0.619796
	H1168	H	0.081274	0.143025	0.728231
	H1169	H	0.080983	0.362454	0.728157
	H1170	H	0.100237	0.064353	0.617837
	H1171	H	0.102352	0.064748	0.617319
	H1172	H	0.097408	0.064713	0.616724
	H1173	H	0.042054	0.862393	0.722915
	H1174	H	0.041899	0.642531	0.722887
	H1175	H	0.041933	0.363323	0.722814
	H1176	H	0.042082	0.143267	0.722896
	H1177	H	0.070668	0.143491	0.638503
	H1178	H	0.110077	0.143130	0.643792
	H1179	H	0.109615	0.362884	0.643790
	H1180	H	0.070781	0.362246	0.638451
	H1181	H	0.104627	0.142824	0.660430
	H1182	H	0.104173	0.362437	0.660390
	H1183	H	0.045946	0.064008	0.748337
	H1184	H	0.045638	0.064445	0.751717
	H1185	H	0.052171	0.064837	0.754551
	H1186	H	0.102351	0.941458	0.617240
	H1187	H	0.100256	0.941755	0.617856
	H1188	H	0.097480	0.941280	0.616752
	H1189	H	0.045907	0.941010	0.748315
	H1190	H	0.045502	0.940866	0.751678
	H1191	H	0.052169	0.940793	0.754631
	Zn1192	Zn	0.037324	0.680406	0.678622
	Zn1193	Zn	0.037465	0.825072	0.678596
	Zn1194	Zn	0.037399	0.180318	0.678635
	Zn1195	Zn	0.037405	0.325304	0.678587
	Zn1196	Zn	0.051988	0.680321	0.750544
	Zn1197	Zn	0.051895	0.825023	0.750496
	Zn1198	Zn	0.051928	0.180352	0.750479
	Zn1199	Zn	0.051981	0.325027	0.750502
	C1200	C	0.102084	0.753726	0.671587
	C1201	C	0.049760	0.752236	0.695062
	C1202	C	0.047842	0.752436	0.705270
	C1203	C	0.046178	0.690300	0.709975
	C1204	C	0.046272	0.814650	0.709975
	C1205	C	0.049784	0.253240	0.695038
	C1206	C	0.047857	0.253182	0.705244
	C1207	C	0.046225	0.191006	0.709952
	C1208	C	0.046211	0.315394	0.709924
	C1209	C	0.053100	0.752402	0.664193
	C1210	C	0.059431	0.752436	0.654853
	C1211	C	0.062265	0.814368	0.650416
	C1212	C	0.062246	0.690524	0.650415
	C1213	C	0.053125	0.253138	0.664236
	C1214	C	0.059414	0.253140	0.654885
	C1215	C	0.062362	0.314905	0.650462
	C1216	C	0.062259	0.191219	0.650480
	C1217	C	0.115705	0.042871	0.687474
	C1218	C	0.115708	0.962491	0.687475
	C1219	C	0.039071	0.043101	0.680710
	C1220	C	0.039071	0.962533	0.680704
	C1221	C	0.039702	0.043249	0.676887
	C1222	C	0.039724	0.961977	0.676883
	C1223	C	0.035630	0.462227	0.677903
	C1224	C	0.116375	0.462265	0.688379
	C1225	C	0.112889	0.462620	0.688847
	C1226	C	0.035608	0.543156	0.677904
	C1227	C	0.112889	0.543348	0.688885
	C1228	C	0.116395	0.543202	0.688399
	C1229	C	0.098457	0.752945	0.702368
	C1230	C	0.098424	0.252495	0.702344
	C1231	C	0.092191	0.752956	0.711720
	C1232	C	0.089465	0.691027	0.716164
	C1233	C	0.089393	0.814866	0.716160
	C1234	C	0.092174	0.252592	0.711701
	C1235	C	0.089500	0.190679	0.716179
	C1236	C	0.089332	0.314620	0.716142
	C1237	C	0.102026	0.252682	0.671580
	C1238	C	0.112258	0.753068	0.632595
	C1239	C	0.079146	0.752402	0.628592
	C1240	C	0.039644	0.752215	0.734084
	C1241	C	0.105572	0.691311	0.656703
	C1242	C	0.105716	0.815688	0.656702
	C1243	C	0.110339	0.753393	0.642787
	C1244	C	0.071287	0.752432	0.637468
	C1245	C	0.068137	0.690456	0.641817
	C1246	C	0.108660	0.691182	0.647492
	C1247	C	0.108777	0.815591	0.647488
	C1248	C	0.068151	0.814366	0.641820
	C1249	C	0.104001	0.753590	0.661387
	C1250	C	0.072614	0.752686	0.738044
	C1251	C	0.083624	0.691003	0.724774
	C1252	C	0.083536	0.814753	0.724777
	C1253	C	0.080385	0.752828	0.729124
	C1254	C	0.050667	0.462287	0.749787
	C1255	C	0.104896	0.462601	0.620025
	C1256	C	0.051545	0.462351	0.751514
	C1257	C	0.050671	0.543026	0.749789
	C1258	C	0.051540	0.543213	0.751525
	C1259	C	0.104968	0.543271	0.620035
	C1260	C	0.072708	0.252716	0.738051
	C1261	C	0.083678	0.190718	0.724802
	C1262	C	0.083522	0.314707	0.724768
	C1263	C	0.080504	0.252681	0.729150
	C1264	C	0.101037	0.043444	0.617209
	C1265	C	0.112208	0.253324	0.632598
	C1266	C	0.079157	0.252750	0.628623
	C1267	C	0.039649	0.253245	0.734052
	C1268	C	0.105730	0.190567	0.656707
	C1269	C	0.105455	0.314844	0.656689
	C1270	C	0.110298	0.253096	0.642791
	C1271	C	0.071331	0.252892	0.637513
	C1272	C	0.041514	0.752432	0.723888
	C1273	C	0.043180	0.814674	0.719200
	C1274	C	0.043075	0.690270	0.719191
	C1275	C	0.041506	0.253270	0.723854
	C1276	C	0.043099	0.315456	0.719136
	C1277	C	0.043139	0.191032	0.719170
	C1278	C	0.068177	0.191095	0.641887
	C1279	C	0.108822	0.190806	0.647489
	C1280	C	0.108521	0.315068	0.647478
	C1281	C	0.068256	0.314791	0.641861
	C1282	C	0.103974	0.252648	0.661387
	C1283	C	0.047351	0.043043	0.750140
	C1284	C	0.098189	0.043582	0.616054
	C1285	C	0.101050	0.962941	0.617184
	C1286	C	0.047316	0.962387	0.750135
	C1287	C	0.098156	0.962627	0.616053
	N1288	N	0.037525	0.070113	0.678621
	N1289	N	0.037549	0.935415	0.678592
	N1290	N	0.037481	0.435547	0.678592
	N1291	N	0.037462	0.570135	0.678622
	N1292	N	0.051901	0.435480	0.750547
	N1293	N	0.051925	0.570076	0.750547
	N1294	N	0.051823	0.069993	0.750475
	N1295	N	0.051815	0.935381	0.750478
	O1296	O	0.121418	0.694550	0.799545
	O1297	O	0.121603	0.810496	0.799484
	O1298	O	0.006644	0.695135	0.823498
	O1299	O	0.006558	0.811181	0.823493
	O1300	O	0.006500	0.194559	0.823481
	O1301	O	0.006556	0.310805	0.823461
	O1302	O	0.006765	0.694499	0.803850
	O1303	O	0.006602	0.811218	0.803794
	O1304	O	0.006826	0.194662	0.803875
	O1305	O	0.006806	0.311387	0.803878
	O1306	O	0.121404	0.694312	0.819190
	O1307	O	0.121353	0.811027	0.819148
	O1308	O	0.121312	0.194251	0.819107
	O1309	O	0.121405	0.310941	0.819105
	O1310	O	0.121463	0.194473	0.799522
	O1311	O	0.121539	0.310602	0.799452
	O1312	O	0.069169	0.694751	0.760959
	O1313	O	0.038569	0.694707	0.761235
	O1314	O	0.089693	0.694792	0.861762
	O1315	O	0.089682	0.811204	0.861783
	O1316	O	0.059008	0.694577	0.861939
	O1317	O	0.058972	0.810956	0.861967
	O1318	O	0.038613	0.811141	0.761230
	O1319	O	0.069092	0.810772	0.760989
	O1320	O	0.069176	0.194334	0.760977
	O1321	O	0.038530	0.194959	0.761198
	O1322	O	0.089796	0.194495	0.861785
	O1323	O	0.089788	0.310856	0.861784
	O1324	O	0.058953	0.194834	0.861966
	O1325	O	0.059044	0.311067	0.861949
	O1326	O	0.038672	0.311466	0.761274
	O1327	O	0.069026	0.310618	0.761041
	H1328	H	0.023504	0.644807	0.835781
	H1329	H	0.023361	0.861393	0.835791
	H1330	H	0.023334	0.144449	0.835828
	H1331	H	0.023471	0.361282	0.835709
	H1332	H	0.018547	0.862560	0.790671
	H1333	H	0.018606	0.643358	0.790707
	H1334	H	0.018740	0.362637	0.790725
	H1335	H	0.018604	0.143710	0.790682
	H1336	H	0.145470	0.064691	0.813534
	H1337	H	0.147426	0.065046	0.809358
	H1338	H	0.147368	0.940852	0.809358
	H1339	H	0.145541	0.941407	0.813555
	H1340	H	0.135712	0.064383	0.814755
	H1341	H	0.135688	0.941148	0.814797
	H1342	H	0.002048	0.064483	0.811214
	H1343	H	0.002061	0.941298	0.811214
	H1344	H	-0.005335	0.064326	0.805849
	H1345	H	-0.005348	0.941415	0.805913
	H1346	H	-0.020368	0.064558	0.807091
	H1347	H	-0.020327	0.941571	0.807071
	H1348	H	-0.004508	0.441196	0.812188
	H1349	H	-0.008129	0.441168	0.809661
	H1350	H	-0.006677	0.441324	0.816278
	H1351	H	0.137813	0.440926	0.810651
	H1352	H	0.137177	0.441062	0.809609
	H1353	H	0.138054	0.441120	0.808977
	H1354	H	-0.008119	0.565016	0.809615
	H1355	H	-0.004458	0.564466	0.812228
	H1356	H	0.137978	0.564673	0.808995
	H1357	H	0.137171	0.564492	0.809658
	H1358	H	0.137880	0.564403	0.810691
	H1359	H	-0.006677	0.564448	0.816224
	H1360	H	0.109499	0.643151	0.832328
	H1361	H	0.109638	0.862350	0.832355
	H1362	H	0.109533	0.143025	0.832317
	H1363	H	0.109577	0.362276	0.832257
	H1364	H	0.029300	0.643184	0.775219
	H1365	H	0.086091	0.644925	0.773207
	H1366	H	0.086108	0.860908	0.773271
	H1367	H	0.029248	0.862613	0.775196
	H1368	H	0.104615	0.644514	0.787167
	H1369	H	0.104665	0.860743	0.787220
	H1370	H	0.098902	0.643208	0.847821
	H1371	H	0.099056	0.862540	0.847851
	H1372	H	0.051034	0.440991	0.749089
	H1373	H	0.072887	0.440625	0.866608
	H1374	H	0.053907	0.440603	0.749605
	H1375	H	0.054485	0.440969	0.750891
	H1376	H	0.069660	0.440953	0.876683
	H1377	H	0.066160	0.441017	0.871909
	H1378	H	0.072855	0.563824	0.866597
	H1379	H	0.050970	0.564239	0.749097
	H1380	H	0.066108	0.564049	0.871892
	H1381	H	0.069633	0.564865	0.876725
	H1382	H	0.054508	0.564617	0.750908
	H1383	H	0.053908	0.564475	0.749604
	H1384	H	0.099044	0.143335	0.847834
	H1385	H	0.099085	0.362386	0.847790
	H1386	H	0.057591	0.064403	0.748589
	H1387	H	0.052915	0.064318	0.746529
	H1388	H	0.057186	0.064699	0.753168
	H1389	H	0.041958	0.861470	0.849717
	H1390	H	0.042108	0.644635	0.849669
	H1391	H	0.042054	0.361555	0.849646
	H1392	H	0.041900	0.144434	0.849749
	H1393	H	0.029276	0.143505	0.775212
	H1394	H	0.086051	0.144227	0.773305
	H1395	H	0.085926	0.360691	0.773317
	H1396	H	0.029402	0.362509	0.775274
	H1397	H	0.104642	0.143912	0.787192
	H1398	H	0.104504	0.360788	0.787216
	H1399	H	0.075342	0.063901	0.871664
	H1400	H	0.074807	0.064559	0.872229
	H1401	H	0.075446	0.064981	0.873072
	H1402	H	0.052889	0.940743	0.746517
	H1403	H	0.057619	0.940991	0.748647
	H1404	H	0.057195	0.941468	0.753255
	H1405	H	0.075346	0.940769	0.871694
	H1406	H	0.074784	0.940704	0.872278
	H1407	H	0.075482	0.940985	0.873099
	Zn1408	Zn	-0.010515	0.680561	0.813033
	Zn1409	Zn	-0.010602	0.825245	0.813000
	Zn1410	Zn	-0.010601	0.180667	0.812970
	Zn1411	Zn	-0.010510	0.325287	0.813030
	Zn1412	Zn	0.076126	0.680161	0.872433
	Zn1413	Zn	0.076071	0.825244	0.872464
	Zn1414	Zn	0.076108	0.180066	0.872393
	Zn1415	Zn	0.076193	0.325152	0.872479
	C1416	C	0.117021	0.752548	0.796363
	C1417	C	0.011078	0.753226	0.826642
	C1418	C	0.022427	0.753192	0.834920
	C1419	C	0.027651	0.691881	0.838862
	C1420	C	0.027578	0.814431	0.838875
	C1421	C	0.011004	0.252680	0.826621
	C1422	C	0.022302	0.252824	0.834938
	C1423	C	0.027490	0.191595	0.838905
	C1424	C	0.027565	0.314243	0.838853
	C1425	C	0.010140	0.752858	0.800550
	C1426	C	0.017971	0.752888	0.791647
	C1427	C	0.021058	0.814897	0.787261
	C1428	C	0.021085	0.690933	0.787283
	C1429	C	0.010284	0.253066	0.800605
	C1430	C	0.018060	0.253144	0.791676
	C1431	C	0.021163	0.314972	0.787301
	C1432	C	0.021162	0.191215	0.787304
	C1433	C	0.144455	0.043393	0.811044
	C1434	C	0.144461	0.962460	0.811049
	C1435	C	-0.004054	0.043284	0.809685
	C1436	C	-0.004061	0.962630	0.809708
	C1437	C	-0.019144	0.043458	0.810883
	C1438	C	-0.019100	0.962395	0.810891
	C1439	C	-0.007466	0.462685	0.811480
	C1440	C	0.138585	0.462149	0.810536
	C1441	C	0.137958	0.462462	0.809457
	C1442	C	-0.007440	0.543628	0.811478
	C1443	C	0.137910	0.543283	0.809487
	C1444	C	0.138615	0.543087	0.810564
	C1445	C	0.117941	0.752739	0.822451
	C1446	C	0.117936	0.252618	0.822390
	C1447	C	0.110160	0.752888	0.831364
	C1448	C	0.107068	0.690895	0.835745
	C1449	C	0.107147	0.814816	0.835761
	C1450	C	0.110218	0.252645	0.831325
	C1451	C	0.107123	0.190747	0.835725
	C1452	C	0.107137	0.314686	0.835689
	C1453	C	0.116980	0.252503	0.796351
	C1454	C	0.073577	0.752808	0.764143
	C1455	C	0.036065	0.752951	0.764849
	C1456	C	0.054520	0.752815	0.858797
	C1457	C	0.100440	0.691590	0.784097
	C1458	C	0.100466	0.813864	0.784133
	C1459	C	0.084869	0.752914	0.772463
	C1460	C	0.029709	0.752910	0.774193
	C1461	C	0.026940	0.690877	0.778662
	C1462	C	0.090149	0.691768	0.776362
	C1463	C	0.090174	0.813974	0.776400
	C1464	C	0.026915	0.814978	0.778649
	C1465	C	0.105648	0.752632	0.788074
	C1466	C	0.092214	0.753076	0.858149
	C1467	C	0.101252	0.690918	0.844372
	C1468	C	0.101354	0.814908	0.844387
	C1469	C	0.098516	0.753010	0.848820
	C1470	C	0.076923	0.462145	0.868466
	C1471	C	0.053563	0.462214	0.750310
	C1472	C	0.070133	0.462128	0.873827
	C1473	C	0.076911	0.542981	0.868465
	C1474	C	0.070107	0.542978	0.873830
	C1475	C	0.053584	0.543202	0.750315
	C1476	C	0.092343	0.252723	0.858177
	C1477	C	0.101329	0.190922	0.844358
	C1478	C	0.101357	0.314766	0.844328
	C1479	C	0.098608	0.252879	0.848805
	C1480	C	0.054334	0.043181	0.748332
	C1481	C	0.073589	0.252516	0.764157
	C1482	C	0.036053	0.253157	0.764849
	C1483	C	0.054489	0.252972	0.858814
	C1484	C	0.100399	0.191049	0.784151
	C1485	C	0.100329	0.313717	0.784154
	C1486	C	0.084849	0.252484	0.772482
	C1487	C	0.029807	0.253081	0.774222
	C1488	C	0.043178	0.753039	0.850504
	C1489	C	0.037877	0.814402	0.846598
	C1490	C	0.037962	0.691781	0.846576
	C1491	C	0.043073	0.252917	0.850543
	C1492	C	0.037859	0.314353	0.846587
	C1493	C	0.037776	0.191567	0.846638
	C1494	C	0.026950	0.191165	0.778661
	C1495	C	0.090114	0.191138	0.776422
	C1496	C	0.090035	0.313708	0.776434
	C1497	C	0.026967	0.314955	0.778673
	C1498	C	0.105583	0.252413	0.788092
	C1499	C	0.075398	0.042929	0.872075
	C1500	C	0.053908	0.043184	0.752981
	C1501	C	0.054367	0.962290	0.748324
	C1502	C	0.075380	0.962217	0.872099
	C1503	C	0.053901	0.962177	0.753007
	N1504	N	-0.010704	0.070433	0.812909
	N1505	N	-0.010690	0.935788	0.812910
	N1506	N	-0.010650	0.435542	0.813079
	N1507	N	-0.010636	0.570154	0.813065
	N1508	N	0.076292	0.435343	0.872424
	N1509	N	0.076248	0.569944	0.872409
	N1510	N	0.076151	0.069857	0.872403
	N1511	N	0.076156	0.935292	0.872429
	O1512	O	0.078373	0.694424	0.931953
	O1513	O	0.078291	0.811368	0.931950
	O1514	O	0.026263	0.693980	0.947344
	O1515	O	0.026373	0.810850	0.947303
	O1516	O	0.026056	0.194995	0.947391
	O1517	O	0.026238	0.312009	0.947403
	O1518	O	0.027078	0.693998	0.924212
	O1519	O	0.027280	0.810612	0.924259
	O1520	O	0.027238	0.194716	0.924293
	O1521	O	0.027106	0.311265	0.924263
	O1522	O	0.077674	0.694934	0.955153
	O1523	O	0.077579	0.811280	0.955095
	O1524	O	0.077518	0.194665	0.955119
	O1525	O	0.077546	0.311224	0.955129
	O1526	O	0.078167	0.194076	0.931987
	O1527	O	0.078279	0.311102	0.931975
	O1528	O	0.088621	0.694428	0.884873
	O1529	O	0.058776	0.694085	0.881607
	O1530	O	0.045322	0.694631	0.997538
	O1531	O	0.045349	0.811254	0.997614
	O1532	O	0.015458	0.693915	0.994366
	O1533	O	0.015639	0.810886	0.994350
	O1534	O	0.058782	0.810742	0.881601
	O1535	O	0.088714	0.811417	0.884915
	O1536	O	0.088573	0.193866	0.884934
	O1537	O	0.058833	0.194322	0.881607
	O1538	O	0.045404	0.194197	0.997577
	O1539	O	0.045297	0.311051	0.997514
	O1540	O	0.015571	0.194817	0.994403
	O1541	O	0.015493	0.311626	0.994397
	O1542	O	0.058839	0.310911	0.881599
	O1543	O	0.088606	0.310871	0.884927
	H1544	H	0.023721	0.642358	0.962562
	H1545	H	0.023774	0.862400	0.962534
	H1546	H	0.023592	0.143612	0.962534
	H1547	H	0.023504	0.363397	0.962640
	H1548	H	0.036656	0.861907	0.910350
	H1549	H	0.036316	0.642731	0.910231
	H1550	H	0.036452	0.362471	0.910296
	H1551	H	0.036597	0.143403	0.910337
	H1552	H	0.082750	0.064411	0.947457
	H1553	H	0.089927	0.064587	0.950210
	H1554	H	0.090011	0.941098	0.950216
	H1555	H	0.082793	0.940852	0.947488
	H1556	H	0.082673	0.064706	0.940671
	H1557	H	0.082768	0.940540	0.940697
	H1558	H	0.020183	0.064558	0.939476
	H1559	H	0.020101	0.940794	0.939421
	H1560	H	0.023324	0.064714	0.935223
	H1561	H	0.023344	0.940701	0.935186
	H1562	H	0.016716	0.064364	0.929547
	H1563	H	0.016648	0.941330	0.929552
	H1564	H	0.011374	0.441238	0.935875
	H1565	H	0.013521	0.441284	0.936615
	H1566	H	0.011210	0.441101	0.933935
	H1567	H	0.107715	0.441114	0.942216
	H1568	H	0.101195	0.441225	0.953307
	H1569	H	0.086819	0.441131	0.954499
	H1570	H	0.013477	0.564705	0.936603
	H1571	H	0.011380	0.564374	0.935848
	H1572	H	0.086852	0.564951	0.954434
	H1573	H	0.101260	0.564151	0.953311
	H1574	H	0.107687	0.564125	0.942228
	H1575	H	0.011196	0.564353	0.933891
	H1576	H	0.068286	0.643720	0.969081
	H1577	H	0.068138	0.862567	0.969018
	H1578	H	0.068128	0.143158	0.969057
	H1579	H	0.068213	0.362275	0.969053
	H1580	H	0.046878	0.642769	0.894719
	H1581	H	0.086314	0.642836	0.900132
	H1582	H	0.085933	0.863000	0.900097
	H1583	H	0.047185	0.861866	0.894836
	H1584	H	0.081119	0.642908	0.916779
	H1585	H	0.080742	0.862905	0.916761
	H1586	H	0.057465	0.643688	0.984505
	H1587	H	0.057300	0.862870	0.984453
	H1588	H	0.081325	0.440585	0.867446
	H1589	H	0.022945	0.441058	1.008326
	H1590	H	0.086176	0.441195	0.873998
	H1591	H	0.081175	0.440880	0.877898
	H1592	H	0.033291	0.441496	1.008774
	H1593	H	0.029202	0.441042	1.010369
	H1594	H	0.022955	0.564194	1.008335
	H1595	H	0.081354	0.564217	0.867484
	H1596	H	0.029147	0.564647	1.010367
	H1597	H	0.033234	0.564572	1.008787
	H1598	H	0.081170	0.564589	0.877868
	H1599	H	0.086119	0.564546	0.874026
	H1600	H	0.057340	0.142952	0.984503
	H1601	H	0.057437	0.362287	0.984501
	H1602	H	0.077420	0.064252	0.872400
	H1603	H	0.076904	0.064076	0.871801
	H1604	H	0.076617	0.064669	0.873190
	H1605	H	0.018242	0.862177	0.979136
	H1606	H	0.018241	0.642564	0.979176
	H1607	H	0.018153	0.362993	0.979269
	H1608	H	0.018261	0.143005	0.979167
	H1609	H	0.047072	0.143206	0.894810
	H1610	H	0.086041	0.142406	0.900203
	H1611	H	0.086119	0.362115	0.900129
	H1612	H	0.047022	0.362469	0.894797
	H1613	H	0.080739	0.142745	0.916834
	H1614	H	0.080846	0.362460	0.916765
	H1615	H	0.026376	0.064272	1.009904
	H1616	H	0.031051	0.064154	1.009752
	H1617	H	0.033505	0.064726	1.006317
	H1618	H	0.076924	0.940679	0.871801
	H1619	H	0.077466	0.940902	0.872409
	H1620	H	0.076623	0.941145	0.873201
	H1621	H	0.026331	0.940388	1.009886
	H1622	H	0.030940	0.940833	1.009682
	H1623	H	0.033394	0.941444	1.006368
	Zn1624	Zn	0.013568	0.680164	0.934913
	Zn1625	Zn	0.013687	0.825512	0.934930
	Zn1626	Zn	0.013682	0.180247	0.934986
	Zn1627	Zn	0.013601	0.325334	0.934969
	Zn1628	Zn	0.028086	0.680239	1.006755
	Zn1629	Zn	0.028040	0.825480	1.006815
	Zn1630	Zn	0.028177	0.180047	1.006791
	Zn1631	Zn	0.028130	0.325385	1.006812
	C1632	C	0.078535	0.752914	0.927949
	C1633	C	0.026096	0.752487	0.951331
	C1634	C	0.024189	0.752428	0.961528
	C1635	C	0.022517	0.690224	0.966244
	C1636	C	0.022536	0.814568	0.966214
	C1637	C	0.025954	0.253526	0.951398
	C1638	C	0.024049	0.253435	0.961609
	C1639	C	0.022453	0.191185	0.966273
	C1640	C	0.022380	0.315552	0.966333
	C1641	C	0.029730	0.752274	0.920637
	C1642	C	0.036086	0.752219	0.911310
	C1643	C	0.038923	0.814193	0.906890
	C1644	C	0.038749	0.690328	0.906822
	C1645	C	0.029720	0.252997	0.920659
	C1646	C	0.036028	0.252909	0.911306
	C1647	C	0.038803	0.314827	0.906851
	C1648	C	0.038859	0.190918	0.906865
	C1649	C	0.087510	0.043123	0.947678
	C1650	C	0.087520	0.962279	0.947680
	C1651	C	0.019654	0.043331	0.936707
	C1652	C	0.019667	0.962070	0.936676
	C1653	C	0.012988	0.043145	0.931076
	C1654	C	0.012988	0.962459	0.931064
	C1655	C	0.012803	0.462556	0.935908
	C1656	C	0.099630	0.462300	0.940186
	C1657	C	0.093130	0.462309	0.951413
	C1658	C	0.012789	0.543254	0.935891
	C1659	C	0.093138	0.543093	0.951393
	C1660	C	0.099626	0.543136	0.940189
	C1661	C	0.075074	0.753121	0.958736
	C1662	C	0.075064	0.252944	0.958750
	C1663	C	0.068700	0.753140	0.968069
	C1664	C	0.065893	0.691290	0.972516
	C1665	C	0.065807	0.815041	0.972485
	C1666	C	0.068714	0.252807	0.968094
	C1667	C	0.065811	0.190728	0.972510
	C1668	C	0.065880	0.314759	0.972513
	C1669	C	0.078434	0.252559	0.927981
	C1670	C	0.088468	0.752847	0.888898
	C1671	C	0.055402	0.752402	0.884917
	C1672	C	0.015810	0.752330	0.990354
	C1673	C	0.082082	0.690719	0.913053
	C1674	C	0.081849	0.815133	0.913037
	C1675	C	0.086595	0.752890	0.899112
	C1676	C	0.047699	0.752322	0.893853
	C1677	C	0.044543	0.690335	0.898190
	C1678	C	0.085097	0.690672	0.903826
	C1679	C	0.084875	0.815101	0.903810
	C1680	C	0.044703	0.814278	0.898256
	C1681	C	0.080358	0.752887	0.917743
	C1682	C	0.048808	0.753075	0.994306
	C1683	C	0.059974	0.691287	0.981116
	C1684	C	0.059878	0.815171	0.981085
	C1685	C	0.056768	0.753242	0.985453
	C1686	C	0.024109	0.462260	1.006839
	C1687	C	0.081748	0.462325	0.875028
	C1688	C	0.030348	0.462339	1.008854
	C1689	C	0.024064	0.543132	1.006824
	C1690	C	0.030332	0.543369	1.008838
	C1691	C	0.081736	0.543231	0.875030
	C1692	C	0.048870	0.252624	0.994308
	C1693	C	0.059876	0.190612	0.981098
	C1694	C	0.059944	0.314674	0.981097
	C1695	C	0.056824	0.252664	0.985462
	C1696	C	0.076936	0.042961	0.872173
	C1697	C	0.088422	0.252373	0.888931
	C1698	C	0.055413	0.252629	0.884901
	C1699	C	0.015773	0.253198	0.990395
	C1700	C	0.081907	0.190431	0.913113
	C1701	C	0.081993	0.314750	0.913070
	C1702	C	0.086585	0.252361	0.899155
	C1703	C	0.047698	0.252810	0.893835
	C1704	C	0.017753	0.752395	0.980133
	C1705	C	0.019417	0.814521	0.975424
	C1706	C	0.019401	0.690183	0.975459
	C1707	C	0.017668	0.252977	0.980207
	C1708	C	0.019286	0.315265	0.975549
	C1709	C	0.019344	0.190949	0.975486
	C1710	C	0.044653	0.190887	0.898232
	C1711	C	0.084947	0.190298	0.903890
	C1712	C	0.085013	0.314541	0.903843
	C1713	C	0.044596	0.314746	0.898217
	C1714	C	0.080311	0.252638	0.917781
	C1715	C	0.028456	0.043221	1.009024
	C1716	C	0.076111	0.043173	0.872925
	C1717	C	0.076935	0.962109	0.872197
	C1718	C	0.028417	0.962193	1.009022
	C1719	C	0.076097	0.962228	0.872955
	N1720	N	0.013779	0.070139	0.934930
	N1721	N	0.013801	0.935617	0.934925
	N1722	N	0.013656	0.435431	0.934916
	N1723	N	0.013661	0.569970	0.934892
	N1724	N	0.028045	0.435494	1.006812
	N1725	N	0.028032	0.570052	1.006804
	N1726	N	0.028006	0.070058	1.006774
	N1727	N	0.027964	0.935525	1.006774
	O1728	O	0.257510	0.694956	0.047004
	O1729	O	0.257518	0.811110	0.047027
	O1730	O	0.138430	0.694950	0.072965
	O1731	O	0.138311	0.810951	0.072995
	O1732	O	0.138205	0.194081	0.073018
	O1733	O	0.138355	0.310155	0.072926
	O1734	O	0.133408	0.694486	0.052576
	O1735	O	0.133289	0.810515	0.052537
	O1736	O	0.133302	0.194254	0.052486
	O1737	O	0.133263	0.310070	0.052502
	O1738	O	0.257964	0.694173	0.066423
	O1739	O	0.257954	0.810925	0.066419
	O1740	O	0.257825	0.194364	0.066371
	O1741	O	0.257955	0.310982	0.066457
	O1742	O	0.257570	0.194585	0.046995
	O1743	O	0.257597	0.310746	0.047045
	O1744	O	0.200954	0.695144	0.010634
	O1745	O	0.169750	0.694776	0.011742
	O1746	O	0.225710	0.694301	0.108851
	O1747	O	0.225714	0.810812	0.108858
	O1748	O	0.194790	0.694593	0.109465
	O1749	O	0.194796	0.810802	0.109448
	O1750	O	0.169553	0.810645	0.011717
	O1751	O	0.200975	0.810957	0.010590
	O1752	O	0.201123	0.195052	0.010578
	O1753	O	0.169693	0.194690	0.011722
	O1754	O	0.225643	0.194593	0.108836
	O1755	O	0.225702	0.310985	0.108892
	O1756	O	0.194843	0.194480	0.109407
	O1757	O	0.194780	0.310844	0.109418
	O1758	O	0.169627	0.310511	0.011718
	O1759	O	0.200993	0.310946	0.010634
	H1760	H	0.156602	0.644358	0.084616
	H1761	H	0.156743	0.861248	0.084568
	H1762	H	0.156543	0.143858	0.084606
	H1763	H	0.156475	0.360548	0.084573
	H1764	H	0.145023	0.860978	0.039529
	H1765	H	0.144957	0.644176	0.039467
	H1766	H	0.144998	0.359919	0.039483
	H1767	H	0.145129	0.144699	0.039513
	H1768	H	0.280035	0.064729	0.060232
	H1769	H	0.282108	0.064644	0.057140
	H1770	H	0.281975	0.941074	0.057167
	H1771	H	0.280110	0.941475	0.060218
	H1772	H	0.272266	0.064361	0.060713
	H1773	H	0.272387	0.941192	0.060717
	H1774	H	0.116895	0.064372	0.063282
	H1775	H	0.116916	0.940814	0.063306
	H1776	H	0.118255	0.064655	0.064718
	H1777	H	0.118150	0.941012	0.064766
	H1778	H	0.121824	0.064258	0.064886
	H1779	H	0.121806	0.941232	0.064932
	H1780	H	0.119524	0.440951	0.064622
	H1781	H	0.121465	0.440760	0.064531
	H1782	H	0.117961	0.441202	0.063324
	H1783	H	0.270676	0.441672	0.059888
	H1784	H	0.269001	0.441208	0.055346
	H1785	H	0.273173	0.440985	0.053256
	H1786	H	0.121398	0.564136	0.064535
	H1787	H	0.119540	0.564496	0.064636
	H1788	H	0.273117	0.564525	0.053229
	H1789	H	0.268945	0.564674	0.055357
	H1790	H	0.270600	0.564638	0.059890
	H1791	H	0.117891	0.564848	0.063343
	H1792	H	0.245949	0.643117	0.079487
	H1793	H	0.245774	0.862109	0.079437
	H1794	H	0.245759	0.143131	0.079450
	H1795	H	0.246043	0.361991	0.079555
	H1796	H	0.157863	0.644183	0.024724
	H1797	H	0.219291	0.645300	0.022175
	H1798	H	0.219193	0.860576	0.022235
	H1799	H	0.157928	0.861037	0.024774
	H1800	H	0.239365	0.644973	0.035361
	H1801	H	0.239260	0.860874	0.035417
	H1802	H	0.235088	0.643005	0.094908
	H1803	H	0.234881	0.862126	0.094863
	H1804	H	0.182483	0.441095	-0.001186
	H1805	H	0.211245	0.441055	0.115813
	H1806	H	0.185986	0.441502	0.000225
	H1807	H	0.185800	0.440996	0.001974
	H1808	H	0.207607	0.440670	0.121980
	H1809	H	0.206067	0.441449	0.118774
	H1810	H	0.211258	0.563899	0.115852
	H1811	H	0.182538	0.564510	-0.001200
	H1812	H	0.206180	0.563989	0.118755
	H1813	H	0.207629	0.564134	0.121993
	H1814	H	0.185828	0.564618	0.001948
	H1815	H	0.185896	0.564109	0.000185
	H1816	H	0.235022	0.143286	0.094907
	H1817	H	0.235293	0.362216	0.095000
	H1818	H	0.177657	0.064412	-0.001388
	H1819	H	0.176906	0.064661	0.001694
	H1820	H	0.184333	0.064366	-0.002588
	H1821	H	0.176835	0.860871	0.097751
	H1822	H	0.176685	0.644516	0.097800
	H1823	H	0.176573	0.360865	0.097741
	H1824	H	0.176655	0.144339	0.097783
	H1825	H	0.158033	0.145043	0.024721
	H1826	H	0.219231	0.144874	0.022260
	H1827	H	0.219239	0.361256	0.022271
	H1828	H	0.157915	0.359837	0.024710
	H1829	H	0.239381	0.144884	0.035395
	H1830	H	0.239377	0.360931	0.035431
	H1831	H	0.214445	0.064452	0.114650
	H1832	H	0.207444	0.063981	0.115195
	H1833	H	0.204194	0.064470	0.120630
	H1834	H	0.176820	0.940829	0.001707
	H1835	H	0.177616	0.941381	-0.001393
	H1836	H	0.184356	0.940889	-0.002560
	H1837	H	0.214466	0.940804	0.114694
	H1838	H	0.207371	0.940611	0.115265
	H1839	H	0.204217	0.940982	0.120646
	Zn1840	Zn	0.120115	0.679996	0.063380
	Zn1841	Zn	0.120088	0.825318	0.063383
	Zn1842	Zn	0.120037	0.179984	0.063284
	Zn1843	Zn	0.120189	0.325334	0.063324
	Zn1844	Zn	0.212457	0.680033	0.119657
	Zn1845	Zn	0.212439	0.825449	0.119630
	Zn1846	Zn	0.212434	0.179958	0.119594
	Zn1847	Zn	0.212453	0.325257	0.119641
	C1848	C	0.252752	0.753054	0.044014
	C1849	C	0.143164	0.752963	0.075979
	C1850	C	0.155417	0.752814	0.083817
	C1851	C	0.161077	0.691476	0.087539
	C1852	C	0.161154	0.814109	0.087512
	C1853	C	0.143078	0.252109	0.075963
	C1854	C	0.155270	0.252129	0.083824
	C1855	C	0.160956	0.190956	0.087560
	C1856	C	0.160916	0.313580	0.087531
	C1857	C	0.136463	0.752506	0.049189
	C1858	C	0.144389	0.752615	0.040397
	C1859	C	0.147967	0.814089	0.036254
	C1860	C	0.147917	0.691239	0.036212
	C1861	C	0.136420	0.252199	0.049144
	C1862	C	0.144320	0.252287	0.040347
	C1863	C	0.147880	0.313287	0.036190
	C1864	C	0.147936	0.191380	0.036201
	C1865	C	0.279579	0.043191	0.058292
	C1866	C	0.279595	0.962349	0.058276
	C1867	C	0.118222	0.043178	0.063805
	C1868	C	0.118196	0.962145	0.063835
	C1869	C	0.121877	0.043041	0.063986
	C1870	C	0.121852	0.962506	0.064017
	C1871	C	0.120421	0.462279	0.064255
	C1872	C	0.273836	0.462637	0.059647
	C1873	C	0.272195	0.462211	0.055048
	C1874	C	0.120383	0.543034	0.064259
	C1875	C	0.272177	0.543267	0.055037
	C1876	C	0.273829	0.543134	0.059645
	C1877	C	0.254484	0.752565	0.069683
	C1878	C	0.254424	0.252613	0.069689
	C1879	C	0.246503	0.752656	0.078533
	C1880	C	0.243347	0.690639	0.082872
	C1881	C	0.243240	0.814595	0.082847
	C1882	C	0.246550	0.252596	0.078575
	C1883	C	0.243302	0.190719	0.082882
	C1884	C	0.243472	0.314480	0.082950
	C1885	C	0.252780	0.252740	0.044035
	C1886	C	0.205736	0.753054	0.013609
	C1887	C	0.166546	0.752638	0.015087
	C1888	C	0.190042	0.752673	0.106466
	C1889	C	0.234877	0.691879	0.032448
	C1890	C	0.234827	0.813993	0.032477
	C1891	C	0.217998	0.752939	0.021453
	C1892	C	0.158667	0.752613	0.023885
	C1893	C	0.155015	0.691250	0.028014
	C1894	C	0.223694	0.691960	0.025161
	C1895	C	0.223632	0.813874	0.025193
	C1896	C	0.155058	0.814032	0.028048
	C1897	C	0.240524	0.752945	0.036181
	C1898	C	0.228246	0.752570	0.105241
	C1899	C	0.237424	0.690637	0.091468
	C1900	C	0.237309	0.814533	0.091441
	C1901	C	0.234536	0.752596	0.095885
	C1902	C	0.213571	0.462089	0.117173
	C1903	C	0.185042	0.462466	0.001052
	C1904	C	0.208384	0.462203	0.120196
	C1905	C	0.213599	0.543113	0.117197
	C1906	C	0.208428	0.542792	0.120207
	C1907	C	0.185037	0.542960	0.001027
	C1908	C	0.228251	0.252836	0.105254
	C1909	C	0.237374	0.190882	0.091472
	C1910	C	0.237536	0.314572	0.091539
	C1911	C	0.234586	0.252735	0.095939
	C1912	C	0.178748	0.043264	0.000373
	C1913	C	0.205813	0.253016	0.013611
	C1914	C	0.166567	0.252551	0.015084
	C1915	C	0.190047	0.252631	0.106416
	C1916	C	0.234890	0.191802	0.032461
	C1917	C	0.234911	0.314140	0.032480
	C1918	C	0.218064	0.253151	0.021444
	C1919	C	0.158633	0.252431	0.023857
	C1920	C	0.177867	0.752633	0.098590
	C1921	C	0.172278	0.813963	0.094837
	C1922	C	0.172201	0.691380	0.094867
	C1923	C	0.177782	0.252514	0.098581
	C1924	C	0.172076	0.313718	0.094838
	C1925	C	0.172132	0.191186	0.094858
	C1926	C	0.155071	0.191497	0.028013
	C1927	C	0.223727	0.191878	0.025163
	C1928	C	0.223740	0.314306	0.025180
	C1929	C	0.155010	0.313271	0.028004
	C1930	C	0.240582	0.252874	0.036185
	C1931	C	0.211368	0.042929	0.116165
	C1932	C	0.185467	0.043219	-0.000882
	C1933	C	0.178720	0.962380	0.000367
	C1934	C	0.211367	0.962032	0.116189
	C1935	C	0.185455	0.962223	-0.000860
	N1936	N	0.120017	0.069960	0.063259
	N1937	N	0.120017	0.935428	0.063305
	N1938	N	0.120174	0.435432	0.063354
	N1939	N	0.120130	0.569919	0.063364
	N1940	N	0.212538	0.435200	0.119651
	N1941	N	0.212572	0.569735	0.119673
	N1942	N	0.212491	0.069780	0.119579
	N1943	N	0.212491	0.935292	0.119596
	O1944	O	0.214375	0.694545	0.179056
	O1945	O	0.214386	0.811361	0.179096
	O1946	O	0.162634	0.693904	0.194511
	O1947	O	0.162693	0.810772	0.194498
	O1948	O	0.162430	0.194471	0.194558
	O1949	O	0.162512	0.311217	0.194567
	O1950	O	0.163026	0.694404	0.171332
	O1951	O	0.163110	0.810672	0.171366
	O1952	O	0.163171	0.194580	0.171341
	O1953	O	0.163075	0.310959	0.171323
	O1954	O	0.213896	0.694764	0.202291
	O1955	O	0.213767	0.811276	0.202252
	O1956	O	0.213985	0.194695	0.202327
	O1957	O	0.213827	0.311203	0.202220
	O1958	O	0.214389	0.194023	0.179023
	O1959	O	0.214453	0.311069	0.179025
	O1960	O	0.225096	0.694569	0.132065
	O1961	O	0.195131	0.694543	0.128802
	O1962	O	0.181620	0.694719	0.244694
	O1963	O	0.181832	0.811346	0.244772
	O1964	O	0.151846	0.694910	0.241554
	O1965	O	0.152017	0.811779	0.241528
	O1966	O	0.195211	0.811331	0.128868
	O1967	O	0.225075	0.811557	0.132039
	O1968	O	0.225082	0.193633	0.132011
	O1969	O	0.195115	0.194399	0.128794
	O1970	O	0.181670	0.194856	0.244739
	O1971	O	0.181751	0.311745	0.244745
	O1972	O	0.151903	0.194356	0.241589
	O1973	O	0.152006	0.311333	0.241619
	O1974	O	0.195131	0.311087	0.128804
	O1975	O	0.225101	0.310364	0.132006
	H1976	H	0.160091	0.642599	0.209746
	H1977	H	0.159926	0.862627	0.209685
	H1978	H	0.159939	0.143165	0.209779
	H1979	H	0.159821	0.362876	0.209776
	H1980	H	0.172592	0.862153	0.157464
	H1981	H	0.172293	0.642946	0.157276
	H1982	H	0.172454	0.362185	0.157389
	H1983	H	0.172442	0.143071	0.157355
	H1984	H	0.226464	0.064086	0.188944
	H1985	H	0.223352	0.064743	0.189921
	H1986	H	0.223325	0.940880	0.189952
	H1987	H	0.226383	0.941023	0.188981
	H1988	H	0.230767	0.063981	0.190481
	H1989	H	0.230723	0.941409	0.190463
	H1990	H	0.146443	0.064744	0.180108
	H1991	H	0.146445	0.941196	0.180151
	H1992	H	0.145448	0.064705	0.182375
	H1993	H	0.145423	0.941700	0.182398
	H1994	H	0.149295	0.064318	0.184817
	H1995	H	0.149248	0.941444	0.184827
	H1996	H	0.155183	0.441487	0.185005
	H1997	H	0.156751	0.440431	0.181737
	H1998	H	0.147517	0.441550	0.185865
	H1999	H	0.219635	0.440628	0.187059
	H2000	H	0.231180	0.440789	0.186086
	H2001	H	0.236814	0.440963	0.190174
	H2002	H	0.156781	0.565000	0.181769
	H2003	H	0.155224	0.564289	0.185000
	H2004	H	0.236822	0.564578	0.190171
	H2005	H	0.231050	0.564407	0.186072
	H2006	H	0.219560	0.564252	0.187062
	H2007	H	0.147561	0.564774	0.185866
	H2008	H	0.204186	0.643451	0.216112
	H2009	H	0.204544	0.862532	0.216236
	H2010	H	0.204612	0.143698	0.216246
	H2011	H	0.204418	0.362908	0.216164
	H2012	H	0.182991	0.643287	0.141821
	H2013	H	0.222632	0.643295	0.147281
	H2014	H	0.222350	0.862962	0.147265
	H2015	H	0.183292	0.862203	0.141981
	H2016	H	0.217176	0.643223	0.163882
	H2017	H	0.216999	0.862878	0.163878
	H2018	H	0.193412	0.643445	0.231557
	H2019	H	0.193794	0.862829	0.231688
	H2020	H	0.216590	0.440560	0.116797
	H2021	H	0.159892	0.440666	0.253504
	H2022	H	0.218566	0.441013	0.121191
	H2023	H	0.214780	0.440738	0.123361
	H2024	H	0.166244	0.441282	0.256527
	H2025	H	0.162453	0.440889	0.256349
	H2026	H	0.159895	0.564495	0.253422
	H2027	H	0.216529	0.564730	0.116776
	H2028	H	0.162343	0.564240	0.256313
	H2029	H	0.166226	0.564225	0.256588
	H2030	H	0.214890	0.564088	0.123349
	H2031	H	0.218634	0.564775	0.121205
	H2032	H	0.193803	0.143795	0.231688
	H2033	H	0.193606	0.362965	0.231614
	H2034	H	0.218713	0.064202	0.123409
	H2035	H	0.221006	0.064417	0.119444
	H2036	H	0.208923	0.064655	0.124122
	H2037	H	0.154520	0.862861	0.226302
	H2038	H	0.154687	0.642910	0.226372
	H2039	H	0.154451	0.362830	0.226404
	H2040	H	0.154725	0.143078	0.226406
	H2041	H	0.183041	0.143145	0.141854
	H2042	H	0.222438	0.142514	0.147228
	H2043	H	0.222509	0.362179	0.147181
	H2044	H	0.183084	0.362252	0.141885
	H2045	H	0.217070	0.142786	0.163852
	H2046	H	0.217168	0.362599	0.163816
	H2047	H	0.163382	0.064365	0.250946
	H2048	H	0.159956	0.064311	0.252327
	H2049	H	0.160679	0.064483	0.255907
	H2050	H	0.220961	0.941035	0.119432
	H2051	H	0.218616	0.941305	0.123357
	H2052	H	0.208947	0.941141	0.124108
	H2053	H	0.163436	0.940459	0.250995
	H2054	H	0.159929	0.940561	0.252349
	H2055	H	0.160752	0.941006	0.255876
	Zn2056	Zn	0.149924	0.680222	0.182139
	Zn2057	Zn	0.149931	0.825544	0.182128
	Zn2058	Zn	0.149954	0.180350	0.182129
	Zn2059	Zn	0.149882	0.325460	0.182122
	Zn2060	Zn	0.164450	0.680229	0.253971
	Zn2061	Zn	0.164534	0.825224	0.253984
	Zn2062	Zn	0.164522	0.180299	0.254018
	Zn2063	Zn	0.164521	0.325349	0.254018
	C2064	C	0.214628	0.753050	0.175068
	C2065	C	0.162468	0.752361	0.198517
	C2066	C	0.160539	0.752567	0.208718
	C2067	C	0.158911	0.690478	0.213431
	C2068	C	0.158827	0.814822	0.213406
	C2069	C	0.162294	0.252858	0.198580
	C2070	C	0.160393	0.253030	0.208781
	C2071	C	0.158845	0.190876	0.213485
	C2072	C	0.158744	0.315116	0.213486
	C2073	C	0.165585	0.752549	0.167726
	C2074	C	0.171916	0.752552	0.158377
	C2075	C	0.174873	0.814530	0.153994
	C2076	C	0.174703	0.690713	0.153896
	C2077	C	0.165649	0.252763	0.167706
	C2078	C	0.172000	0.252631	0.158373
	C2079	C	0.174797	0.314585	0.153930
	C2080	C	0.174794	0.190751	0.153918
	C2081	C	0.225387	0.043182	0.189975
	C2082	C	0.225365	0.962292	0.190007
	C2083	C	0.147088	0.043427	0.181494
	C2084	C	0.147066	0.962626	0.181499
	C2085	C	0.150891	0.043262	0.183957
	C2086	C	0.150886	0.962525	0.183973
	C2087	C	0.154451	0.462401	0.183040
	C2088	C	0.220593	0.462163	0.189944
	C2089	C	0.232143	0.462277	0.189008
	C2090	C	0.154461	0.543260	0.183036
	C2091	C	0.232098	0.543234	0.188997
	C2092	C	0.220593	0.543119	0.189967
	C2093	C	0.211298	0.753009	0.205879
	C2094	C	0.211367	0.253040	0.205888
	C2095	C	0.204900	0.753036	0.215202
	C2096	C	0.201901	0.691077	0.219582
	C2097	C	0.202130	0.814981	0.219659
	C2098	C	0.205039	0.253237	0.215235
	C2099	C	0.202211	0.191312	0.219683
	C2100	C	0.202122	0.315307	0.219636
	C2101	C	0.214650	0.252570	0.175027
	C2102	C	0.224870	0.753143	0.136063
	C2103	C	0.191667	0.752906	0.132093
	C2104	C	0.152182	0.753244	0.237532
	C2105	C	0.218322	0.690915	0.160186
	C2106	C	0.218228	0.815165	0.160185
	C2107	C	0.222992	0.753112	0.146269
	C2108	C	0.183780	0.752870	0.140972
	C2109	C	0.180590	0.690844	0.145284
	C2110	C	0.221400	0.690990	0.150970
	C2111	C	0.221295	0.815181	0.150966
	C2112	C	0.180757	0.814701	0.145383
	C2113	C	0.216643	0.753043	0.164883
	C2114	C	0.185198	0.753030	0.241466
	C2115	C	0.195971	0.691044	0.228176
	C2116	C	0.196208	0.815046	0.228250
	C2117	C	0.193002	0.753067	0.232575
	C2118	C	0.161805	0.462378	0.252915
	C2119	C	0.215677	0.462175	0.121584
	C2120	C	0.164324	0.462319	0.255793
	C2121	C	0.161820	0.543302	0.252885
	C2122	C	0.164301	0.543011	0.255784
	C2123	C	0.215707	0.543104	0.121590
	C2124	C	0.185178	0.253244	0.241485
	C2125	C	0.196250	0.191406	0.228267
	C2126	C	0.196171	0.315298	0.228228
	C2127	C	0.193075	0.253318	0.232609
	C2128	C	0.217911	0.043153	0.120907
	C2129	C	0.224898	0.252022	0.136023
	C2130	C	0.191673	0.252720	0.132072
	C2131	C	0.152152	0.252903	0.237598
	C2132	C	0.218191	0.190483	0.160135
	C2133	C	0.218267	0.314789	0.160112
	C2134	C	0.222961	0.252264	0.146215
	C2135	C	0.183844	0.252660	0.140973
	C2136	C	0.154111	0.752909	0.227331
	C2137	C	0.155717	0.814987	0.222619
	C2138	C	0.155789	0.690659	0.222645
	C2139	C	0.154040	0.253044	0.227398
	C2140	C	0.155624	0.315149	0.222702
	C2141	C	0.155710	0.190896	0.222695
	C2142	C	0.180668	0.190749	0.145308
	C2143	C	0.221294	0.190286	0.150921
	C2144	C	0.221354	0.314543	0.150895
	C2145	C	0.180682	0.314610	0.145321
	C2146	C	0.216602	0.252665	0.164827
	C2147	C	0.162354	0.043162	0.252270
	C2148	C	0.208143	0.043080	0.121633
	C2149	C	0.217888	0.962475	0.120920
	C2150	C	0.162396	0.962069	0.252277
	C2151	C	0.208193	0.962162	0.121638
	N2152	N	0.150093	0.070267	0.182124
	N2153	N	0.150058	0.935717	0.182131
	N2154	N	0.149948	0.435397	0.182128
	N2155	N	0.149958	0.569946	0.182128
	N2156	N	0.164369	0.435461	0.253975
	N2157	N	0.164373	0.569972	0.253964
	N2158	N	0.164400	0.070171	0.253989
	N2159	N	0.164430	0.935568	0.253975
	O2160	O	0.239167	0.694453	0.300340
	O2161	O	0.239256	0.810421	0.300236
	O2162	O	0.119768	0.694832	0.326708
	O2163	O	0.119898	0.810976	0.326630
	O2164	O	0.119798	0.195325	0.326724
	O2165	O	0.119739	0.311639	0.326709
	O2166	O	0.119362	0.694310	0.307310
	O2167	O	0.119278	0.811143	0.307309
	O2168	O	0.119351	0.194794	0.307337
	O2169	O	0.119295	0.311480	0.307284
	O2170	O	0.244417	0.695236	0.320819
	O2171	O	0.244224	0.811228	0.320775
	O2172	O	0.244262	0.194758	0.320709
	O2173	O	0.244268	0.310772	0.320742
	O2174	O	0.239325	0.194816	0.300263
	O2175	O	0.239297	0.310882	0.300301
	O2176	O	0.182099	0.694519	0.264181
	O2177	O	0.151310	0.694881	0.264791
	O2178	O	0.208161	0.695031	0.361687
	O2179	O	0.208045	0.810873	0.361618
	O2180	O	0.176828	0.694733	0.362851
	O2181	O	0.176812	0.810710	0.362924
	O2182	O	0.151305	0.811367	0.264789
	O2183	O	0.182307	0.810715	0.264128
	O2184	O	0.182226	0.194875	0.264171
	O2185	O	0.151497	0.194885	0.264872
	O2186	O	0.208278	0.194422	0.361638
	O2187	O	0.208191	0.310566	0.361586
	O2188	O	0.176714	0.195351	0.362864
	O2189	O	0.176978	0.311213	0.362778
	O2190	O	0.151385	0.311319	0.264836
	O2191	O	0.182275	0.311097	0.264172
	H2192	H	0.138172	0.644785	0.338238
	H2193	H	0.138171	0.861320	0.338285
	H2194	H	0.138231	0.145246	0.338191
	H2195	H	0.138056	0.361908	0.338297
	H2196	H	0.131225	0.862344	0.294215
	H2197	H	0.131235	0.643442	0.294164
	H2198	H	0.131216	0.362700	0.294221
	H2199	H	0.131190	0.143432	0.294215
	H2200	H	0.255710	0.064220	0.306936
	H2201	H	0.252693	0.064879	0.308593
	H2202	H	0.252627	0.941226	0.308613
	H2203	H	0.255600	0.941535	0.306962
	H2204	H	0.261333	0.064604	0.308080
	H2205	H	0.261229	0.940994	0.308149
	H2206	H	0.104959	0.064538	0.317387
	H2207	H	0.104975	0.941506	0.317372
	H2208	H	0.104808	0.064643	0.315808
	H2209	H	0.104722	0.940769	0.315773
	H2210	H	0.101664	0.064487	0.314794
	H2211	H	0.101591	0.941132	0.314753
	H2212	H	0.102848	0.441340	0.315878
	H2213	H	0.101625	0.441659	0.315630
	H2214	H	0.103376	0.440974	0.316844
	H2215	H	0.258580	0.440972	0.308522
	H2216	H	0.260089	0.440928	0.310178
	H2217	H	0.259055	0.441309	0.311280
	H2218	H	0.101681	0.565110	0.315728
	H2219	H	0.102838	0.565215	0.315927
	H2220	H	0.259051	0.564704	0.311299
	H2221	H	0.260113	0.564652	0.310148
	H2222	H	0.258482	0.564555	0.308492
	H2223	H	0.103296	0.564750	0.316814
	H2224	H	0.232796	0.645173	0.333844
	H2225	H	0.232392	0.861047	0.333754
	H2226	H	0.232363	0.144832	0.333680
	H2227	H	0.232870	0.360586	0.333848
	H2228	H	0.141955	0.643754	0.278704
	H2229	H	0.200453	0.643981	0.275751
	H2230	H	0.200729	0.860850	0.275602
	H2231	H	0.141993	0.862704	0.278761
	H2232	H	0.220739	0.644118	0.288804
	H2233	H	0.220983	0.860564	0.288664
	H2234	H	0.219984	0.644857	0.348644
	H2235	H	0.219525	0.860991	0.348532
	H2236	H	0.161874	0.441340	0.251611
	H2237	H	0.192549	0.441168	0.372915
	H2238	H	0.167218	0.441590	0.251902
	H2239	H	0.169007	0.441224	0.254083
	H2240	H	0.197280	0.441679	0.373594
	H2241	H	0.195224	0.441163	0.374122
	H2242	H	0.192553	0.564395	0.372938
	H2243	H	0.161922	0.564634	0.251608
	H2244	H	0.195146	0.564382	0.374135
	H2245	H	0.197234	0.564484	0.373658
	H2246	H	0.168970	0.564709	0.254017
	H2247	H	0.167165	0.564945	0.251918
	H2248	H	0.219575	0.144780	0.348493
	H2249	H	0.220083	0.360524	0.348659
	H2250	H	0.169368	0.063949	0.255185
	H2251	H	0.168779	0.064413	0.252556
	H2252	H	0.164627	0.064628	0.257067
	H2253	H	0.158431	0.861040	0.351339
	H2254	H	0.158470	0.644988	0.351294
	H2255	H	0.158337	0.361746	0.351362
	H2256	H	0.158513	0.145157	0.351256
	H2257	H	0.142023	0.143512	0.278785
	H2258	H	0.200591	0.144638	0.275698
	H2259	H	0.200394	0.361250	0.275822
	H2260	H	0.142053	0.362635	0.278792
	H2261	H	0.220967	0.144548	0.288732
	H2262	H	0.220728	0.361359	0.288865
	H2263	H	0.200024	0.064383	0.371972
	H2264	H	0.197464	0.064267	0.369855
	H2265	H	0.191679	0.064344	0.370139
	H2266	H	0.168825	0.941418	0.252600
	H2267	H	0.169308	0.941415	0.255179
	H2268	H	0.164564	0.940878	0.257018
	H2269	H	0.200058	0.941169	0.372058
	H2270	H	0.197477	0.941336	0.369953
	H2271	H	0.191657	0.941156	0.370147
	Zn2272	Zn	0.102083	0.680212	0.316547
	Zn2273	Zn	0.102049	0.825591	0.316538
	Zn2274	Zn	0.102178	0.180314	0.316594
	Zn2275	Zn	0.102030	0.325548	0.316501
	Zn2276	Zn	0.195028	0.680140	0.372504
	Zn2277	Zn	0.195098	0.825739	0.372514
	Zn2278	Zn	0.195016	0.180320	0.372435
	Zn2279	Zn	0.195141	0.325802	0.372452
	C2280	C	0.234387	0.752362	0.297311
	C2281	C	0.124665	0.752934	0.329642
	C2282	C	0.136985	0.752926	0.337443
	C2283	C	0.142709	0.691785	0.341139
	C2284	C	0.142698	0.814166	0.341169
	C2285	C	0.124595	0.253555	0.329674
	C2286	C	0.136881	0.253644	0.337485
	C2287	C	0.142667	0.192265	0.341136
	C2288	C	0.142566	0.314848	0.341199
	C2289	C	0.122778	0.752793	0.304031
	C2290	C	0.130633	0.752955	0.295141
	C2291	C	0.133717	0.814929	0.290788
	C2292	C	0.133719	0.691048	0.290760
	C2293	C	0.122774	0.253113	0.304034
	C2294	C	0.130628	0.253073	0.295161
	C2295	C	0.133752	0.315086	0.290809
	C2296	C	0.133731	0.191077	0.290809
	C2297	C	0.255021	0.043185	0.308306
	C2298	C	0.254990	0.962558	0.308331
	C2299	C	0.104117	0.043347	0.316588
	C2300	C	0.104116	0.962512	0.316585
	C2301	C	0.100947	0.043287	0.315519
	C2302	C	0.100915	0.962670	0.315501
	C2303	C	0.102125	0.462528	0.315970
	C2304	C	0.257392	0.462343	0.308853
	C2305	C	0.258999	0.462484	0.310525
	C2306	C	0.102128	0.543461	0.316004
	C2307	C	0.259034	0.543383	0.310530
	C2308	C	0.257369	0.543149	0.308856
	C2309	C	0.241193	0.753226	0.324145
	C2310	C	0.241191	0.252709	0.324094
	C2311	C	0.233280	0.753096	0.332937
	C2312	C	0.229825	0.691912	0.337125
	C2313	C	0.229602	0.814260	0.337074
	C2314	C	0.233359	0.252657	0.332912
	C2315	C	0.229631	0.191551	0.337015
	C2316	C	0.229927	0.313804	0.337110
	C2317	C	0.234480	0.252886	0.297325
	C2318	C	0.187041	0.752548	0.267119
	C2319	C	0.148823	0.753158	0.268404
	C2320	C	0.172004	0.752786	0.359910
	C2321	C	0.216287	0.691119	0.285865
	C2322	C	0.216429	0.813540	0.285790
	C2323	C	0.199371	0.752369	0.274896
	C2324	C	0.142460	0.753233	0.277736
	C2325	C	0.139602	0.691236	0.282155
	C2326	C	0.205021	0.691009	0.278627
	C2327	C	0.205180	0.813687	0.278543
	C2328	C	0.139621	0.815071	0.282190
	C2329	C	0.222061	0.752310	0.289530
	C2330	C	0.211165	0.752883	0.358274
	C2331	C	0.222733	0.691771	0.345334
	C2332	C	0.222505	0.814139	0.345272
	C2333	C	0.219047	0.752872	0.349468
	C2334	C	0.193323	0.462482	0.372311
	C2335	C	0.167089	0.462500	0.253223
	C2336	C	0.195939	0.462686	0.373498
	C2337	C	0.193315	0.543247	0.372345
	C2338	C	0.195918	0.543303	0.373518
	C2339	C	0.167096	0.543456	0.253236
	C2340	C	0.211327	0.252462	0.358252
	C2341	C	0.222571	0.191511	0.345228
	C2342	C	0.222854	0.313812	0.345320
	C2343	C	0.219177	0.252583	0.349448
	C2344	C	0.167807	0.043028	0.253906
	C2345	C	0.187045	0.252956	0.267148
	C2346	C	0.148901	0.253108	0.268464
	C2347	C	0.172013	0.253406	0.359854
	C2348	C	0.216371	0.191637	0.285871
	C2349	C	0.216235	0.314240	0.285945
	C2350	C	0.199309	0.252939	0.274964
	C2351	C	0.142556	0.253152	0.277788
	C2352	C	0.159662	0.752850	0.352122
	C2353	C	0.153931	0.814096	0.348427
	C2354	C	0.153953	0.691842	0.348393
	C2355	C	0.159625	0.253535	0.352097
	C2356	C	0.153851	0.314793	0.348435
	C2357	C	0.153946	0.192234	0.348374
	C2358	C	0.139660	0.191215	0.282217
	C2359	C	0.205088	0.191613	0.278635
	C2360	C	0.204955	0.314222	0.278707
	C2361	C	0.139684	0.314991	0.282222
	C2362	C	0.222057	0.252978	0.289577
	C2363	C	0.197795	0.043128	0.371339
	C2364	C	0.163070	0.043228	0.255828
	C2365	C	0.167804	0.962686	0.253923
	C2366	C	0.197800	0.962420	0.371374
	C2367	C	0.163089	0.962139	0.255807
	N2368	N	0.102046	0.070178	0.316575
	N2369	N	0.101997	0.935667	0.316566
	N2370	N	0.101945	0.435583	0.316524
	N2371	N	0.101924	0.570079	0.316533
	N2372	N	0.195118	0.435814	0.372461
	N2373	N	0.195064	0.570282	0.372524
	N2374	N	0.195113	0.070174	0.372466
	N2375	N	0.195130	0.935699	0.372518
	O2376	O	0.269751	0.694671	0.418540
	O2377	O	0.270005	0.811099	0.418423
	O2378	O	0.150816	0.694807	0.444573
	O2379	O	0.150721	0.810692	0.444583
	O2380	O	0.150618	0.195045	0.444650
	O2381	O	0.150720	0.311052	0.444566
	O2382	O	0.145417	0.694899	0.424053
	O2383	O	0.145480	0.810855	0.424076
	O2384	O	0.145501	0.194662	0.424087
	O2385	O	0.145505	0.310716	0.424099
	O2386	O	0.270382	0.694731	0.437946
	O2387	O	0.270360	0.811433	0.437914
	O2388	O	0.270227	0.194069	0.437803
	O2389	O	0.270294	0.310840	0.437855
	O2390	O	0.269865	0.194484	0.418469
	O2391	O	0.270043	0.310589	0.418373
	O2392	O	0.213359	0.694886	0.382083
	O2393	O	0.181976	0.694795	0.383351
	O2394	O	0.238139	0.695676	0.480353
	O2395	O	0.238081	0.812223	0.480300
	O2396	O	0.207483	0.694555	0.480913
	O2397	O	0.207266	0.810726	0.481017
	O2398	O	0.182093	0.810693	0.383371
	O2399	O	0.213269	0.811134	0.382166
	O2400	O	0.213287	0.194633	0.382111
	O2401	O	0.181903	0.194697	0.383269
	O2402	O	0.238192	0.194576	0.480349
	O2403	O	0.238322	0.310846	0.480352
	O2404	O	0.207385	0.195158	0.480968
	O2405	O	0.207547	0.311402	0.480906
	O2406	O	0.182054	0.310795	0.383339
	O2407	O	0.213081	0.310641	0.382232
	H2408	H	0.169228	0.644457	0.456080
	H2409	H	0.168976	0.861315	0.456230
	H2410	H	0.168887	0.145020	0.456243
	H2411	H	0.169175	0.361759	0.456098
	H2412	H	0.157231	0.860825	0.411106
	H2413	H	0.157149	0.644922	0.411081
	H2414	H	0.157294	0.360759	0.411122
	H2415	H	0.157428	0.144661	0.411115
	H2416	H	0.291411	0.065018	0.430122
	H2417	H	0.291779	0.064705	0.428004
	H2418	H	0.291791	0.941256	0.428095
	H2419	H	0.291340	0.940943	0.430225
	H2420	H	0.286685	0.064850	0.431198
	H2421	H	0.286738	0.941341	0.431193
	H2422	H	0.134513	0.064140	0.434330
	H2423	H	0.134555	0.941271	0.434320
	H2424	H	0.132821	0.064184	0.433525
	H2425	H	0.132872	0.940938	0.433523
	H2426	H	0.130257	0.063927	0.434139
	H2427	H	0.130250	0.940859	0.434117
	H2428	H	0.134185	0.441452	0.434897
	H2429	H	0.133441	0.441494	0.434074
	H2430	H	0.133177	0.440844	0.435989
	H2431	H	0.281279	0.441641	0.433021
	H2432	H	0.278008	0.441437	0.426359
	H2433	H	0.283793	0.440985	0.422933
	H2434	H	0.133506	0.564977	0.434158
	H2435	H	0.134231	0.564326	0.434958
	H2436	H	0.283805	0.564701	0.422978
	H2437	H	0.278015	0.563895	0.426326
	H2438	H	0.281348	0.564797	0.432995
	H2439	H	0.133132	0.564254	0.436020
	H2440	H	0.258356	0.643922	0.451026
	H2441	H	0.258199	0.862831	0.450881
	H2442	H	0.258110	0.142801	0.450884
	H2443	H	0.258294	0.361830	0.450919
	H2444	H	0.170169	0.645010	0.396330
	H2445	H	0.231663	0.643647	0.393670
	H2446	H	0.231432	0.862217	0.393775
	H2447	H	0.170266	0.860785	0.396360
	H2448	H	0.251774	0.643999	0.406804
	H2449	H	0.251591	0.862275	0.406904
	H2450	H	0.247440	0.644406	0.466445
	H2451	H	0.247339	0.863122	0.466305
	H2452	H	0.192770	0.441079	0.371590
	H2453	H	0.229516	0.440966	0.489861
	H2454	H	0.195632	0.440998	0.370889
	H2455	H	0.197521	0.441365	0.371753
	H2456	H	0.220673	0.440967	0.489346
	H2457	H	0.224294	0.441002	0.488106
	H2458	H	0.229528	0.564494	0.489902
	H2459	H	0.192770	0.564411	0.371615
	H2460	H	0.224279	0.564500	0.488128
	H2461	H	0.220774	0.564644	0.489405
	H2462	H	0.197411	0.564961	0.371764
	H2463	H	0.195511	0.564873	0.370923
	H2464	H	0.247388	0.143021	0.466370
	H2465	H	0.247581	0.361985	0.466368
	H2466	H	0.193666	0.065020	0.375311
	H2467	H	0.197932	0.064527	0.375144
	H2468	H	0.190025	0.065055	0.372446
	H2469	H	0.189043	0.861060	0.469405
	H2470	H	0.189340	0.644242	0.469233
	H2471	H	0.189339	0.361936	0.469230
	H2472	H	0.189068	0.144761	0.469357
	H2473	H	0.170413	0.144799	0.396353
	H2474	H	0.231485	0.144374	0.393752
	H2475	H	0.231303	0.360175	0.393795
	H2476	H	0.170253	0.360782	0.396346
	H2477	H	0.251733	0.144455	0.406811
	H2478	H	0.251595	0.360393	0.406833
	H2479	H	0.232690	0.064927	0.494203
	H2480	H	0.233398	0.064641	0.489774
	H2481	H	0.224965	0.064060	0.485800
	H2482	H	0.197856	0.941627	0.375198
	H2483	H	0.193630	0.941307	0.375350
	H2484	H	0.190143	0.941072	0.372429
	H2485	H	0.232701	0.941055	0.494178
	H2486	H	0.233404	0.941019	0.489764
	H2487	H	0.224993	0.940581	0.485781
	Zn2488	Zn	0.132533	0.679899	0.434988
	Zn2489	Zn	0.132482	0.825464	0.434975
	Zn2490	Zn	0.132449	0.179911	0.434957
	Zn2491	Zn	0.132387	0.325641	0.434911
	Zn2492	Zn	0.225073	0.679973	0.491199
	Zn2493	Zn	0.224916	0.825616	0.491173
	Zn2494	Zn	0.225003	0.179873	0.491135
	Zn2495	Zn	0.225105	0.325491	0.491141
	C2496	C	0.265067	0.752943	0.415505
	C2497	C	0.155566	0.752825	0.447558
	C2498	C	0.167888	0.752880	0.455349
	C2499	C	0.173635	0.691517	0.459039
	C2500	C	0.173488	0.814091	0.459123
	C2501	C	0.155462	0.253152	0.447604
	C2502	C	0.167772	0.253330	0.455407
	C2503	C	0.173444	0.192035	0.459138
	C2504	C	0.173603	0.314647	0.459056
	C2505	C	0.148592	0.752891	0.420729
	C2506	C	0.156567	0.752840	0.411958
	C2507	C	0.160164	0.814032	0.407812
	C2508	C	0.160123	0.691698	0.407798
	C2509	C	0.148626	0.252728	0.420735
	C2510	C	0.156576	0.252716	0.411954
	C2511	C	0.160186	0.313918	0.407820
	C2512	C	0.160273	0.191595	0.407811
	C2513	C	0.290591	0.043529	0.428984
	C2514	C	0.290584	0.962576	0.429016
	C2515	C	0.133318	0.042894	0.434208
	C2516	C	0.133362	0.962267	0.434213
	C2517	C	0.130726	0.043045	0.434795
	C2518	C	0.130728	0.962290	0.434807
	C2519	C	0.133435	0.462728	0.434629
	C2520	C	0.285981	0.462727	0.432455
	C2521	C	0.282677	0.462545	0.425712
	C2522	C	0.133463	0.543394	0.434664
	C2523	C	0.282675	0.543252	0.425716
	C2524	C	0.285962	0.543769	0.432434
	C2525	C	0.266880	0.753157	0.441183
	C2526	C	0.266779	0.252406	0.441087
	C2527	C	0.258937	0.753400	0.450026
	C2528	C	0.255818	0.691538	0.454408
	C2529	C	0.255730	0.815376	0.454328
	C2530	C	0.258906	0.252331	0.449967
	C2531	C	0.255696	0.190403	0.454316
	C2532	C	0.255792	0.314252	0.454328
	C2533	C	0.265146	0.252555	0.415434
	C2534	C	0.218076	0.752964	0.385117
	C2535	C	0.178911	0.752790	0.386714
	C2536	C	0.202597	0.752596	0.477967
	C2537	C	0.247274	0.691279	0.403886
	C2538	C	0.247166	0.814804	0.403937
	C2539	C	0.230364	0.752887	0.392909
	C2540	C	0.170983	0.752836	0.395500
	C2541	C	0.167315	0.691684	0.399628
	C2542	C	0.236111	0.691171	0.396598
	C2543	C	0.235988	0.814738	0.396649
	C2544	C	0.167358	0.814040	0.399638
	C2545	C	0.252889	0.753017	0.407632
	C2546	C	0.240602	0.753943	0.476717
	C2547	C	0.249829	0.691815	0.462982
	C2548	C	0.249732	0.815604	0.462894
	C2549	C	0.246932	0.753858	0.467362
	C2550	C	0.228509	0.462444	0.491162
	C2551	C	0.196172	0.462492	0.371628
	C2552	C	0.223233	0.462354	0.489378
	C2553	C	0.228454	0.543164	0.491173
	C2554	C	0.223202	0.543252	0.489390
	C2555	C	0.196140	0.543492	0.371676
	C2556	C	0.240776	0.252671	0.476737
	C2557	C	0.249795	0.190534	0.462921
	C2558	C	0.249911	0.314365	0.462931
	C2559	C	0.247053	0.252548	0.467375
	C2560	C	0.195607	0.043351	0.374511
	C2561	C	0.217986	0.252567	0.385151
	C2562	C	0.178868	0.252761	0.386666
	C2563	C	0.202664	0.253303	0.477957
	C2564	C	0.247222	0.191345	0.403907
	C2565	C	0.247144	0.313494	0.403910
	C2566	C	0.230273	0.252370	0.392935
	C2567	C	0.170947	0.252804	0.395461
	C2568	C	0.190425	0.752584	0.470086
	C2569	C	0.184663	0.813996	0.466411
	C2570	C	0.184838	0.691299	0.466316
	C2571	C	0.190399	0.253356	0.470109
	C2572	C	0.184801	0.314685	0.466336
	C2573	C	0.184653	0.192015	0.466408
	C2574	C	0.167439	0.191606	0.399626
	C2575	C	0.236021	0.191276	0.396629
	C2576	C	0.235916	0.313436	0.396653
	C2577	C	0.167343	0.313962	0.399630
	C2578	C	0.252921	0.252530	0.407601
	C2579	C	0.230981	0.043489	0.491760
	C2580	C	0.191997	0.043553	0.371599
	C2581	C	0.195591	0.962559	0.374532
	C2582	C	0.230979	0.962340	0.491765
	C2583	C	0.192015	0.962542	0.371614
	N2584	N	0.132395	0.069970	0.434955
	N2585	N	0.132426	0.935474	0.434963
	N2586	N	0.132395	0.435591	0.434936
	N2587	N	0.132400	0.570051	0.434969
	N2588	N	0.225113	0.435575	0.491138
	N2589	N	0.225044	0.570073	0.491159
	N2590	N	0.225007	0.069988	0.491139
	N2591	N	0.225013	0.935560	0.491156
	O2592	O	0.226956	0.694829	0.550632
	O2593	O	0.226951	0.811754	0.550607
	O2594	O	0.175007	0.694131	0.566027
	O2595	O	0.175117	0.810863	0.566054
	O2596	O	0.174920	0.194538	0.566067
	O2597	O	0.175033	0.311343	0.566082
	O2598	O	0.175607	0.693840	0.542768
	O2599	O	0.175664	0.810295	0.542810
	O2600	O	0.175773	0.194429	0.542864
	O2601	O	0.175871	0.310926	0.542936
	O2602	O	0.225967	0.694707	0.573727
	O2603	O	0.225965	0.811175	0.573696
	O2604	O	0.225966	0.194489	0.573736
	O2605	O	0.225858	0.310877	0.573709
	O2606	O	0.226858	0.193900	0.550654
	O2607	O	0.226878	0.310709	0.550619
	O2608	O	0.237493	0.695111	0.503605
	O2609	O	0.207802	0.693884	0.500373
	O2610	O	0.194332	0.694781	0.616351
	O2611	O	0.194142	0.811335	0.616312
	O2612	O	0.164434	0.694350	0.613045
	O2613	O	0.164364	0.811181	0.613050
	O2614	O	0.207609	0.810627	0.500318
	O2615	O	0.237553	0.812005	0.503623
	O2616	O	0.237517	0.193851	0.503623
	O2617	O	0.207670	0.194932	0.500325
	O2618	O	0.194102	0.193858	0.616287
	O2619	O	0.194249	0.310683	0.616351
	O2620	O	0.164300	0.194503	0.613088
	O2621	O	0.164334	0.311242	0.613085
	O2622	O	0.207706	0.311676	0.500336
	O2623	O	0.237539	0.310758	0.503621
	H2624	H	0.172281	0.643013	0.581208
	H2625	H	0.172432	0.862844	0.581236
	H2626	H	0.172251	0.143025	0.581246
	H2627	H	0.172273	0.362767	0.581293
	H2628	H	0.184777	0.861379	0.528864
	H2629	H	0.185047	0.642745	0.528864
	H2630	H	0.185172	0.362508	0.529008
	H2631	H	0.184952	0.143371	0.528857
	H2632	H	0.244882	0.064924	0.562070
	H2633	H	0.241253	0.064739	0.559863
	H2634	H	0.241294	0.941123	0.559859
	H2635	H	0.244883	0.940966	0.562016
	H2636	H	0.243354	0.064477	0.565876
	H2637	H	0.243360	0.941165	0.565824
	H2638	H	0.153352	0.064955	0.553387
	H2639	H	0.153380	0.941271	0.553471
	H2640	H	0.156859	0.064592	0.557700
	H2641	H	0.156911	0.940775	0.557715
	H2642	H	0.167404	0.064441	0.558419
	H2643	H	0.167397	0.941404	0.558408
	H2644	H	0.160685	0.440955	0.555814
	H2645	H	0.164263	0.441364	0.556017
	H2646	H	0.158220	0.441328	0.553208
	H2647	H	0.235474	0.441205	0.559226
	H2648	H	0.243879	0.441374	0.559802
	H2649	H	0.246647	0.441158	0.563239
	H2650	H	0.164289	0.564360	0.555951
	H2651	H	0.160694	0.564640	0.555762
	H2652	H	0.246666	0.564700	0.563252
	H2653	H	0.243925	0.564271	0.559868
	H2654	H	0.235584	0.564299	0.559210
	H2655	H	0.158268	0.564681	0.553176
	H2656	H	0.216687	0.643535	0.587708
	H2657	H	0.216787	0.862716	0.587710
	H2658	H	0.216740	0.142888	0.587709
	H2659	H	0.216476	0.362275	0.587664
	H2660	H	0.195867	0.642726	0.513434
	H2661	H	0.234725	0.643216	0.518789
	H2662	H	0.234912	0.863193	0.518825
	H2663	H	0.195573	0.861850	0.513442
	H2664	H	0.229388	0.643280	0.535421
	H2665	H	0.229578	0.862996	0.535449
	H2666	H	0.206078	0.643593	0.603181
	H2667	H	0.206152	0.862710	0.603197
	H2668	H	0.229791	0.441178	0.492417
	H2669	H	0.185871	0.441074	0.632944
	H2670	H	0.224951	0.441364	0.494176
	H2671	H	0.221097	0.440934	0.492834
	H2672	H	0.182806	0.441211	0.617576
	H2673	H	0.191232	0.441544	0.623487
	H2674	H	0.185900	0.564180	0.632967
	H2675	H	0.229852	0.564215	0.492461
	H2676	H	0.191206	0.564768	0.623524
	H2677	H	0.182825	0.564851	0.617549
	H2678	H	0.221104	0.564407	0.492818
	H2679	H	0.224877	0.564481	0.494132
	H2680	H	0.206086	0.142768	0.603201
	H2681	H	0.205878	0.362302	0.603152
	H2682	H	0.217156	0.063841	0.493440
	H2683	H	0.223351	0.064618	0.496354
	H2684	H	0.218185	0.064555	0.487421
	H2685	H	0.167079	0.862881	0.597823
	H2686	H	0.166937	0.643092	0.597842
	H2687	H	0.166882	0.362657	0.597900
	H2688	H	0.166848	0.142732	0.597863
	H2689	H	0.195652	0.143611	0.513394
	H2690	H	0.234822	0.142182	0.518839
	H2691	H	0.234856	0.362226	0.518825
	H2692	H	0.195806	0.363018	0.513501
	H2693	H	0.229488	0.142425	0.535462
	H2694	H	0.229549	0.362041	0.535443
	H2695	H	0.177452	0.064292	0.628411
	H2696	H	0.180820	0.063988	0.627230
	H2697	H	0.180571	0.064846	0.624021
	H2698	H	0.223369	0.941351	0.496313
	H2699	H	0.217195	0.941448	0.493435
	H2700	H	0.218154	0.940785	0.487426
	H2701	H	0.177388	0.941338	0.628395
	H2702	H	0.180827	0.941156	0.627289
	H2703	H	0.180678	0.940875	0.623997
	Zn2704	Zn	0.162508	0.680104	0.553621
	Zn2705	Zn	0.162513	0.825399	0.553614
	Zn2706	Zn	0.162461	0.180178	0.553648
	Zn2707	Zn	0.162425	0.325279	0.553614
	Zn2708	Zn	0.176913	0.680358	0.625462
	Zn2709	Zn	0.176891	0.825199	0.625511
	Zn2710	Zn	0.176765	0.180270	0.625485
	Zn2711	Zn	0.176992	0.325384	0.625515
	C2712	C	0.227133	0.753238	0.546621
	C2713	C	0.174779	0.752496	0.570049
	C2714	C	0.172902	0.752841	0.580240
	C2715	C	0.171195	0.690691	0.584921
	C2716	C	0.171281	0.815069	0.584931
	C2717	C	0.174729	0.252961	0.570078
	C2718	C	0.172778	0.252939	0.580272
	C2719	C	0.171155	0.190744	0.584960
	C2720	C	0.171141	0.314938	0.584986
	C2721	C	0.178163	0.752101	0.539185
	C2722	C	0.184492	0.752066	0.529854
	C2723	C	0.187242	0.814029	0.525423
	C2724	C	0.187405	0.690209	0.525422
	C2725	C	0.178329	0.252717	0.539286
	C2726	C	0.184634	0.252941	0.529926
	C2727	C	0.187486	0.315071	0.525522
	C2728	C	0.187368	0.191091	0.525437
	C2729	C	0.242115	0.043446	0.561526
	C2730	C	0.242090	0.962334	0.561502
	C2731	C	0.157089	0.043358	0.555046
	C2732	C	0.157105	0.962289	0.555058
	C2733	C	0.167676	0.043126	0.555809
	C2734	C	0.167699	0.962529	0.555799
	C2735	C	0.162498	0.462258	0.555290
	C2736	C	0.235286	0.462436	0.561282
	C2737	C	0.243683	0.462470	0.561920
	C2738	C	0.162514	0.543187	0.555285
	C2739	C	0.243702	0.543206	0.561937
	C2740	C	0.235337	0.543389	0.561286
	C2741	C	0.223463	0.752965	0.577330
	C2742	C	0.223374	0.252673	0.577331
	C2743	C	0.217171	0.753092	0.586703
	C2744	C	0.214356	0.691178	0.591150
	C2745	C	0.214435	0.815061	0.591162
	C2746	C	0.217095	0.252568	0.586705
	C2747	C	0.214356	0.190459	0.591157
	C2748	C	0.214200	0.314660	0.591128
	C2749	C	0.227075	0.252234	0.546623
	C2750	C	0.237303	0.753531	0.507619
	C2751	C	0.204230	0.752262	0.503606
	C2752	C	0.164615	0.752821	0.609037
	C2753	C	0.230544	0.690936	0.531714
	C2754	C	0.230652	0.815278	0.531724
	C2755	C	0.235348	0.753218	0.517809
	C2756	C	0.196342	0.752325	0.512472
	C2757	C	0.193284	0.690259	0.516823
	C2758	C	0.233635	0.690967	0.522499
	C2759	C	0.233756	0.815371	0.522510
	C2760	C	0.193124	0.814184	0.516827
	C2761	C	0.228984	0.753085	0.536415
	C2762	C	0.197667	0.753094	0.613036
	C2763	C	0.208540	0.691233	0.599770
	C2764	C	0.208608	0.815055	0.599787
	C2765	C	0.205493	0.753121	0.604162
	C2766	C	0.178999	0.462354	0.631368
	C2767	C	0.223598	0.462351	0.492892
	C2768	C	0.184337	0.462425	0.621828
	C2769	C	0.178988	0.543171	0.631372
	C2770	C	0.184363	0.543446	0.621826
	C2771	C	0.223565	0.543198	0.492894
	C2772	C	0.197618	0.252279	0.613052
	C2773	C	0.208555	0.190389	0.599793
	C2774	C	0.208419	0.314589	0.599761
	C2775	C	0.205396	0.252436	0.604142
	C2776	C	0.221551	0.043064	0.493913
	C2777	C	0.237265	0.252323	0.507621
	C2778	C	0.204232	0.253332	0.503606
	C2779	C	0.164522	0.252854	0.609073
	C2780	C	0.230637	0.190025	0.531747
	C2781	C	0.230686	0.314363	0.531737
	C2782	C	0.235360	0.252194	0.517821
	C2783	C	0.196390	0.253378	0.512493
	C2784	C	0.166565	0.752993	0.598843
	C2785	C	0.168206	0.815076	0.594144
	C2786	C	0.168107	0.690844	0.594139
	C2787	C	0.166424	0.252756	0.598880
	C2788	C	0.168056	0.314919	0.594199
	C2789	C	0.168041	0.190571	0.594175
	C2790	C	0.193219	0.191273	0.516820
	C2791	C	0.233726	0.190035	0.522536
	C2792	C	0.233756	0.314353	0.522520
	C2793	C	0.193338	0.315287	0.516906
	C2794	C	0.229006	0.252162	0.536429
	C2795	C	0.178474	0.043031	0.627224
	C2796	C	0.222509	0.043014	0.487801
	C2797	C	0.221561	0.962681	0.493920
	C2798	C	0.178482	0.962623	0.627242
	C2799	C	0.222522	0.962021	0.487813
	N2800	N	0.162548	0.070059	0.553621
	N2801	N	0.162569	0.935521	0.553648
	N2802	N	0.162510	0.435465	0.553612
	N2803	N	0.162592	0.570001	0.553572
	N2804	N	0.176935	0.435569	0.625476
	N2805	N	0.176929	0.570113	0.625468
	N2806	N	0.176790	0.070160	0.625509
	N2807	N	0.176802	0.935543	0.625509
	O2808	O	0.246428	0.694700	0.674453
	O2809	O	0.246342	0.811065	0.674477
	O2810	O	0.131430	0.694317	0.698530
	O2811	O	0.131605	0.810485	0.698445
	O2812	O	0.131633	0.194995	0.698460
	O2813	O	0.131456	0.311305	0.698536
	O2814	O	0.131583	0.694024	0.678840
	O2815	O	0.131763	0.810745	0.678870
	O2816	O	0.131766	0.195113	0.678891
	O2817	O	0.131577	0.311970	0.678819
	O2818	O	0.246366	0.694162	0.694114
	O2819	O	0.246190	0.810841	0.694069
	O2820	O	0.246324	0.194750	0.694070
	O2821	O	0.246302	0.311475	0.694093
	O2822	O	0.246333	0.194360	0.674514
	O2823	O	0.246443	0.310654	0.674455
	O2824	O	0.194027	0.694807	0.635948
	O2825	O	0.163499	0.694099	0.636272
	O2826	O	0.214643	0.694043	0.736707
	O2827	O	0.214564	0.810464	0.736712
	O2828	O	0.183886	0.694416	0.736995
	O2829	O	0.184054	0.810623	0.736902
	O2830	O	0.163533	0.810492	0.636288
	O2831	O	0.194013	0.810915	0.636004
	O2832	O	0.193942	0.194070	0.635984
	O2833	O	0.163483	0.195298	0.636276
	O2834	O	0.214642	0.194734	0.736702
	O2835	O	0.214499	0.311181	0.736693
	O2836	O	0.183887	0.194297	0.737009
	O2837	O	0.183935	0.310435	0.736970
	O2838	O	0.163444	0.311808	0.636242
	O2839	O	0.194044	0.310454	0.635966
	H2840	H	0.148187	0.643880	0.710894
	H2841	H	0.148597	0.860810	0.710652
	H2842	H	0.148518	0.144943	0.710681
	H2843	H	0.148245	0.361043	0.710906
	H2844	H	0.143677	0.861563	0.665755
	H2845	H	0.143340	0.642725	0.665691
	H2846	H	0.143406	0.363004	0.665714
	H2847	H	0.143713	0.144112	0.665786
	H2848	H	0.264748	0.064360	0.684270
	H2849	H	0.263495	0.064765	0.683993
	H2850	H	0.263438	0.941101	0.683941
	H2851	H	0.264702	0.941200	0.684253
	H2852	H	0.265050	0.064029	0.685362
	H2853	H	0.265057	0.941383	0.685387
	H2854	H	0.112684	0.064607	0.686973
	H2855	H	0.112688	0.940430	0.686948
	H2856	H	0.111948	0.064512	0.688111
	H2857	H	0.111974	0.940713	0.688095
	H2858	H	0.113909	0.064599	0.689508
	H2859	H	0.113812	0.941411	0.689538
	H2860	H	0.114843	0.441115	0.686173
	H2861	H	0.112274	0.441027	0.686481
	H2862	H	0.117480	0.440936	0.687765
	H2863	H	0.260198	0.440862	0.682672
	H2864	H	0.265675	0.441033	0.682416
	H2865	H	0.268232	0.441007	0.684385
	H2866	H	0.112311	0.564708	0.686509
	H2867	H	0.114826	0.564269	0.686196
	H2868	H	0.268282	0.564618	0.684387
	H2869	H	0.265804	0.564485	0.682436
	H2870	H	0.260291	0.564330	0.682648
	H2871	H	0.117453	0.564362	0.687775
	H2872	H	0.234769	0.642698	0.707299
	H2873	H	0.234306	0.861873	0.707224
	H2874	H	0.234143	0.143837	0.707123
	H2875	H	0.234635	0.362560	0.707314
	H2876	H	0.154083	0.642734	0.650221
	H2877	H	0.210937	0.644510	0.648232
	H2878	H	0.210692	0.860762	0.648359
	H2879	H	0.154328	0.861667	0.650296
	H2880	H	0.229578	0.644566	0.662136
	H2881	H	0.229307	0.860942	0.662243
	H2882	H	0.224202	0.642672	0.722820
	H2883	H	0.223734	0.861818	0.722736
	H2884	H	0.173704	0.441113	0.633992
	H2885	H	0.205635	0.440684	0.750548
	H2886	H	0.162241	0.441172	0.625912
	H2887	H	0.166041	0.441098	0.618996
	H2888	H	0.203117	0.441093	0.743663
	H2889	H	0.207277	0.440643	0.746100
	H2890	H	0.205710	0.564947	0.750554
	H2891	H	0.173641	0.564669	0.634010
	H2892	H	0.207305	0.564523	0.746048
	H2893	H	0.203076	0.564027	0.743618
	H2894	H	0.166014	0.564821	0.618909
	H2895	H	0.162145	0.564540	0.625852
	H2896	H	0.223638	0.143877	0.722646
	H2897	H	0.224055	0.362447	0.722817
	H2898	H	0.172466	0.064398	0.624216
	H2899	H	0.172536	0.064710	0.626550
	H2900	H	0.177106	0.064113	0.622721
	H2901	H	0.167143	0.860877	0.724591
	H2902	H	0.166750	0.644057	0.724834
	H2903	H	0.166830	0.360451	0.724829
	H2904	H	0.167073	0.144539	0.724599
	H2905	H	0.154330	0.144094	0.650281
	H2906	H	0.210816	0.143422	0.648266
	H2907	H	0.210976	0.360984	0.648230
	H2908	H	0.154027	0.363078	0.650209
	H2909	H	0.229390	0.143570	0.662215
	H2910	H	0.229533	0.360999	0.662137
	H2911	H	0.199366	0.064251	0.743024
	H2912	H	0.194506	0.064831	0.745194
	H2913	H	0.195837	0.064306	0.750307
	H2914	H	0.172528	0.940974	0.626606
	H2915	H	0.172469	0.941111	0.624219
	H2916	H	0.177116	0.940726	0.622674
	H2917	H	0.199311	0.941557	0.742987
	H2918	H	0.194484	0.940979	0.745193
	H2919	H	0.195889	0.940942	0.750280
	Zn2920	Zn	0.114343	0.680427	0.688026
	Zn2921	Zn	0.114427	0.825191	0.688018
	Zn2922	Zn	0.114454	0.180320	0.688040
	Zn2923	Zn	0.114295	0.325227	0.687987
	Zn2924	Zn	0.201140	0.680503	0.747405
	Zn2925	Zn	0.201175	0.825133	0.747403
	Zn2926	Zn	0.201192	0.180572	0.747386
	Zn2927	Zn	0.201063	0.325293	0.747404
	C2928	C	0.241885	0.752859	0.671328
	C2929	C	0.136001	0.752382	0.701642
	C2930	C	0.147305	0.752352	0.709943
	C2931	C	0.152402	0.690966	0.713953
	C2932	C	0.152627	0.813738	0.713815
	C2933	C	0.136020	0.253200	0.701645
	C2934	C	0.147337	0.253154	0.709947
	C2935	C	0.152584	0.191778	0.713836
	C2936	C	0.152443	0.314133	0.713969
	C2937	C	0.135125	0.752298	0.675573
	C2938	C	0.142950	0.752127	0.666680
	C2939	C	0.146116	0.813991	0.662333
	C2940	C	0.145933	0.690167	0.662289
	C2941	C	0.135150	0.253542	0.675592
	C2942	C	0.142968	0.253519	0.666685
	C2943	C	0.145941	0.315499	0.662292
	C2944	C	0.146114	0.191606	0.662330
	C2945	C	0.264031	0.043254	0.684332
	C2946	C	0.263998	0.962251	0.684323
	C2947	C	0.112828	0.043363	0.687680
	C2948	C	0.112823	0.961993	0.687656
	C2949	C	0.114762	0.043316	0.689069
	C2950	C	0.114719	0.962368	0.689072
	C2951	C	0.113739	0.462414	0.686768
	C2952	C	0.260614	0.462361	0.684081
	C2953	C	0.266129	0.462311	0.683790
	C2954	C	0.113741	0.543307	0.686790
	C2955	C	0.266171	0.543076	0.683801
	C2956	C	0.260644	0.543102	0.684073
	C2957	C	0.242848	0.752439	0.697373
	C2958	C	0.242865	0.253059	0.697362
	C2959	C	0.235160	0.752268	0.706317
	C2960	C	0.232207	0.690291	0.710715
	C2961	C	0.231950	0.814195	0.710671
	C2962	C	0.235063	0.253201	0.706266
	C2963	C	0.231829	0.191317	0.710584
	C2964	C	0.232075	0.315070	0.710686
	C2965	C	0.241884	0.252474	0.671341
	C2966	C	0.198467	0.752771	0.639134
	C2967	C	0.161002	0.752313	0.639898
	C2968	C	0.179487	0.752523	0.733791
	C2969	C	0.225376	0.691469	0.659061
	C2970	C	0.225209	0.813955	0.659136
	C2971	C	0.209771	0.752668	0.647442
	C2972	C	0.154684	0.752232	0.649242
	C2973	C	0.151774	0.690314	0.653667
	C2974	C	0.215051	0.691412	0.651342
	C2975	C	0.214899	0.813818	0.651423
	C2976	C	0.151944	0.813992	0.653713
	C2977	C	0.230491	0.752758	0.663048
	C2978	C	0.217184	0.752302	0.733102
	C2979	C	0.226379	0.690273	0.719337
	C2980	C	0.226114	0.814172	0.719293
	C2981	C	0.223467	0.752231	0.723757
	C2982	C	0.202478	0.462143	0.750022
	C2983	C	0.167467	0.462584	0.623212
	C2984	C	0.204129	0.462400	0.745545
	C2985	C	0.202517	0.543085	0.750028
	C2986	C	0.204136	0.543272	0.745526
	C2987	C	0.167455	0.543382	0.623190
	C2988	C	0.217109	0.253008	0.733089
	C2989	C	0.226000	0.191392	0.719208
	C2990	C	0.226241	0.315024	0.719310
	C2991	C	0.223367	0.253172	0.723723
	C2992	C	0.173628	0.043226	0.625435
	C2993	C	0.198477	0.252211	0.639122
	C2994	C	0.160938	0.253596	0.639864
	C2995	C	0.179453	0.252358	0.733831
	C2996	C	0.225250	0.190714	0.659107
	C2997	C	0.225341	0.313759	0.659078
	C2998	C	0.209795	0.252185	0.647414
	C2999	C	0.154668	0.253614	0.649236
	C3000	C	0.168120	0.752465	0.725509
	C3001	C	0.162954	0.813775	0.721527
	C3002	C	0.162739	0.691076	0.721661
	C3003	C	0.168061	0.252527	0.725564
	C3004	C	0.162751	0.313813	0.721688
	C3005	C	0.162873	0.191529	0.721563
	C3006	C	0.151959	0.191702	0.653711
	C3007	C	0.214978	0.190677	0.651360
	C3008	C	0.215068	0.313708	0.651334
	C3009	C	0.151777	0.315466	0.653675
	C3010	C	0.230533	0.252253	0.663040
	C3011	C	0.198071	0.043235	0.744982
	C3012	C	0.178287	0.043217	0.623914
	C3013	C	0.173607	0.962238	0.625424
	C3014	C	0.198082	0.962261	0.744994
	C3015	C	0.178327	0.962202	0.623912
	N3016	N	0.114442	0.070110	0.688060
	N3017	N	0.114420	0.935542	0.688058
	N3018	N	0.114302	0.435493	0.687970
	N3019	N	0.114330	0.570125	0.688006
	N3020	N	0.201164	0.435572	0.747388
	N3021	N	0.201158	0.570155	0.747385
	N3022	N	0.201231	0.069944	0.747417
	N3023	N	0.201239	0.935279	0.747407
	O3024	O	0.203127	0.694397	0.806895
	O3025	O	0.203074	0.811390	0.806843
	O3026	O	0.151145	0.694861	0.822398
	O3027	O	0.151164	0.811557	0.822403
	O3028	O	0.151215	0.194341	0.822396
	O3029	O	0.151134	0.311002	0.822391
	O3030	O	0.152020	0.694513	0.799191
	O3031	O	0.152086	0.810914	0.799200
	O3032	O	0.152230	0.194383	0.799278
	O3033	O	0.152136	0.310723	0.799200
	O3034	O	0.202591	0.694558	0.830120
	O3035	O	0.202532	0.811132	0.830099
	O3036	O	0.202547	0.194828	0.830143
	O3037	O	0.202411	0.311350	0.830075
	O3038	O	0.203117	0.194965	0.806921
	O3039	O	0.202995	0.311739	0.806911
	O3040	O	0.213723	0.693885	0.759834
	O3041	O	0.183855	0.694527	0.756580
	O3042	O	0.170456	0.694204	0.872589
	O3043	O	0.170622	0.810805	0.872685
	O3044	O	0.140641	0.694985	0.869436
	O3045	O	0.140631	0.812033	0.869448
	O3046	O	0.183941	0.811326	0.756648
	O3047	O	0.213613	0.810786	0.759848
	O3048	O	0.213576	0.194665	0.759865
	O3049	O	0.183768	0.193812	0.756581
	O3050	O	0.170508	0.194745	0.872580
	O3051	O	0.170494	0.311463	0.872636
	O3052	O	0.140604	0.194350	0.869431
	O3053	O	0.140648	0.311350	0.869432
	O3054	O	0.183802	0.310442	0.756611
	O3055	O	0.213446	0.311517	0.759863
	H3056	H	0.148612	0.643254	0.837625
	H3057	H	0.148718	0.863222	0.837635
	H3058	H	0.148584	0.142849	0.837611
	H3059	H	0.148654	0.362942	0.837595
	H3060	H	0.161486	0.862222	0.785257
	H3061	H	0.161196	0.643163	0.785143
	H3062	H	0.161406	0.361850	0.785218
	H3063	H	0.161447	0.142655	0.785306
	H3064	H	0.217607	0.064429	0.816985
	H3065	H	0.213836	0.064739	0.816767
	H3066	H	0.213949	0.941397	0.816698
	H3067	H	0.217650	0.941555	0.817043
	H3068	H	0.220086	0.064405	0.819807
	H3069	H	0.220042	0.941185	0.819850
	H3070	H	0.140139	0.064954	0.804723
	H3071	H	0.140084	0.940691	0.804755
	H3072	H	0.132936	0.063838	0.805669
	H3073	H	0.132921	0.941267	0.805679
	H3074	H	0.130421	0.063925	0.811391
	H3075	H	0.130381	0.941368	0.811415
	H3076	H	0.140367	0.441338	0.810076
	H3077	H	0.139903	0.441102	0.809351
	H3078	H	0.139186	0.441301	0.810855
	H3079	H	0.211286	0.441458	0.818917
	H3080	H	0.214568	0.440739	0.816737
	H3081	H	0.218202	0.441080	0.817332
	H3082	H	0.139795	0.564653	0.809328
	H3083	H	0.140289	0.564397	0.810036
	H3084	H	0.218149	0.564393	0.817282
	H3085	H	0.214573	0.564393	0.816752
	H3086	H	0.211256	0.564129	0.818919
	H3087	H	0.139220	0.564257	0.810896
	H3088	H	0.193399	0.643132	0.844088
	H3089	H	0.193306	0.862351	0.844097
	H3090	H	0.193259	0.143897	0.844076
	H3091	H	0.193092	0.362697	0.844058
	H3092	H	0.171844	0.643143	0.769662
	H3093	H	0.211135	0.642350	0.775102
	H3094	H	0.211012	0.862146	0.775013
	H3095	H	0.172150	0.862321	0.769786
	H3096	H	0.205711	0.642767	0.791717
	H3097	H	0.205604	0.862498	0.791630
	H3098	H	0.182609	0.643153	0.859543
	H3099	H	0.182568	0.862187	0.859558
	H3100	H	0.200250	0.440936	0.751320
	H3101	H	0.155041	0.441222	0.880135
	H3102	H	0.194505	0.441099	0.747991
	H3103	H	0.195705	0.441513	0.744723
	H3104	H	0.149737	0.440967	0.881720
	H3105	H	0.150966	0.441073	0.880204
	H3106	H	0.155010	0.564905	0.880108
	H3107	H	0.200275	0.564272	0.751342
	H3108	H	0.150945	0.564344	0.880160
	H3109	H	0.149706	0.564222	0.881727
	H3110	H	0.195673	0.564560	0.744715
	H3111	H	0.194516	0.564662	0.748032
	H3112	H	0.182494	0.143774	0.859526
	H3113	H	0.182356	0.362809	0.859492
	H3114	H	0.208347	0.064898	0.748874
	H3115	H	0.207332	0.064218	0.745199
	H3116	H	0.201801	0.064698	0.751896
	H3117	H	0.143361	0.863334	0.854257
	H3118	H	0.143310	0.643621	0.854267
	H3119	H	0.143260	0.362879	0.854217
	H3120	H	0.143246	0.142869	0.854235
	H3121	H	0.172048	0.142602	0.769774
	H3122	H	0.211051	0.143429	0.775095
	H3123	H	0.210961	0.363123	0.775040
	H3124	H	0.171989	0.361607	0.769740
	H3125	H	0.205755	0.143587	0.791721
	H3126	H	0.205653	0.363246	0.791684
	H3127	H	0.150356	0.063888	0.879124
	H3128	H	0.148112	0.064783	0.881261
	H3129	H	0.151031	0.064933	0.884525
	H3130	H	0.207354	0.941402	0.745186
	H3131	H	0.208383	0.940809	0.748899
	H3132	H	0.201674	0.940979	0.751864
	H3133	H	0.150414	0.941410	0.879125
	H3134	H	0.148102	0.941165	0.881261
	H3135	H	0.150982	0.940941	0.884540
	Zn3136	Zn	0.138712	0.680304	0.809960
	Zn3137	Zn	0.138676	0.825385	0.809959
	Zn3138	Zn	0.138723	0.180233	0.809941
	Zn3139	Zn	0.138761	0.325214	0.809952
	Zn3140	Zn	0.153253	0.680448	0.881817
	Zn3141	Zn	0.153324	0.825499	0.881860
	Zn3142	Zn	0.153316	0.180454	0.881824
	Zn3143	Zn	0.153291	0.325482	0.881874
	C3144	C	0.203288	0.752793	0.802864
	C3145	C	0.150972	0.753202	0.826422
	C3146	C	0.149120	0.753288	0.836617
	C3147	C	0.147484	0.691160	0.841321
	C3148	C	0.147535	0.815431	0.841325
	C3149	C	0.150978	0.252698	0.826413
	C3150	C	0.149096	0.252786	0.836612
	C3151	C	0.147457	0.190691	0.841312
	C3152	C	0.147481	0.315104	0.841301
	C3153	C	0.154589	0.752670	0.795573
	C3154	C	0.160926	0.752610	0.786221
	C3155	C	0.163824	0.814616	0.781808
	C3156	C	0.163653	0.690737	0.781737
	C3157	C	0.154729	0.252451	0.795629
	C3158	C	0.160970	0.252235	0.786268
	C3159	C	0.163751	0.314055	0.781795
	C3160	C	0.163776	0.190259	0.781838
	C3161	C	0.215652	0.043194	0.817508
	C3162	C	0.215698	0.962577	0.817519
	C3163	C	0.137153	0.043129	0.806436
	C3164	C	0.137123	0.962271	0.806450
	C3165	C	0.134609	0.043066	0.812235
	C3166	C	0.134575	0.962404	0.812256
	C3167	C	0.139802	0.462427	0.809767
	C3168	C	0.212888	0.462494	0.819818
	C3169	C	0.216166	0.462208	0.817646
	C3170	C	0.139768	0.543331	0.809753
	C3171	C	0.216128	0.543146	0.817622
	C3172	C	0.212876	0.543305	0.819794
	C3173	C	0.200025	0.752842	0.833709
	C3174	C	0.199967	0.253145	0.833720
	C3175	C	0.193734	0.752764	0.843067
	C3176	C	0.190980	0.690766	0.847518
	C3177	C	0.190928	0.814710	0.847519
	C3178	C	0.193635	0.253207	0.843062
	C3179	C	0.190864	0.191343	0.847508
	C3180	C	0.190759	0.315129	0.847491
	C3181	C	0.203266	0.253378	0.802907
	C3182	C	0.213457	0.752262	0.763854
	C3183	C	0.180436	0.752849	0.759878
	C3184	C	0.140896	0.753537	0.865449
	C3185	C	0.206869	0.690352	0.788004
	C3186	C	0.206796	0.814726	0.787949
	C3187	C	0.211552	0.752256	0.774053
	C3188	C	0.172716	0.752725	0.768807
	C3189	C	0.169541	0.690757	0.773136
	C3190	C	0.209974	0.690190	0.778789
	C3191	C	0.209870	0.814529	0.778726
	C3192	C	0.169689	0.814708	0.773195
	C3193	C	0.205196	0.752617	0.792668
	C3194	C	0.173999	0.752563	0.869364
	C3195	C	0.185051	0.690718	0.856113
	C3196	C	0.185022	0.814633	0.856114
	C3197	C	0.181859	0.752683	0.860464
	C3198	C	0.155132	0.462445	0.881163
	C3199	C	0.196704	0.462432	0.746641
	C3200	C	0.151060	0.462360	0.881192
	C3201	C	0.155130	0.543334	0.881142
	C3202	C	0.151038	0.543069	0.881182
	C3203	C	0.196693	0.543223	0.746659
	C3204	C	0.173954	0.253202	0.869338
	C3205	C	0.184946	0.191302	0.856102
	C3206	C	0.184857	0.315221	0.856084
	C3207	C	0.181770	0.253271	0.860444
	C3208	C	0.206147	0.043123	0.747146
	C3209	C	0.213309	0.253128	0.763868
	C3210	C	0.180334	0.252094	0.759883
	C3211	C	0.140837	0.252859	0.865429
	C3212	C	0.206860	0.191332	0.788016
	C3213	C	0.206824	0.315492	0.787996
	C3214	C	0.211453	0.253282	0.774072
	C3215	C	0.172610	0.252039	0.768807
	C3216	C	0.142837	0.753496	0.855243
	C3217	C	0.144482	0.815541	0.850542
	C3218	C	0.144453	0.691288	0.850547
	C3219	C	0.142774	0.252861	0.855228
	C3220	C	0.144409	0.315077	0.850522
	C3221	C	0.144401	0.190735	0.850531
	C3222	C	0.169550	0.190228	0.773201
	C3223	C	0.209890	0.191216	0.778790
	C3224	C	0.209852	0.315480	0.778770
	C3225	C	0.169537	0.313968	0.773165
	C3226	C	0.205186	0.253445	0.792706
	C3227	C	0.150294	0.043059	0.880624
	C3228	C	0.199470	0.043230	0.750132
	C3229	C	0.206149	0.962363	0.747151
	C3230	C	0.150274	0.962376	0.880627
	C3231	C	0.199477	0.962474	0.750122
	N3232	N	0.138721	0.070024	0.809919
	N3233	N	0.138708	0.935480	0.809933
	N3234	N	0.138822	0.435396	0.809918
	N3235	N	0.138798	0.570008	0.809943
	N3236	N	0.153222	0.435525	0.881896
	N3237	N	0.153175	0.570096	0.881863
	N3238	N	0.153305	0.070227	0.881840
	N3239	N	0.153289	0.935615	0.881831
	O3240	O	0.227151	0.695138	0.928638
	O3241	O	0.227060	0.811072	0.928648
	O3242	O	0.108590	0.694825	0.954564
	O3243	O	0.108599	0.810761	0.954547
	O3244	O	0.108453	0.194128	0.954576
	O3245	O	0.108472	0.310400	0.954613
	O3246	O	0.108059	0.694424	0.935101
	O3247	O	0.108112	0.811179	0.935109
	O3248	O	0.108105	0.194453	0.935165
	O3249	O	0.108126	0.311201	0.935171
	O3250	O	0.232362	0.694956	0.949284
	O3251	O	0.232194	0.811284	0.949183
	O3252	O	0.232047	0.194925	0.949175
	O3253	O	0.232052	0.310757	0.949181
	O3254	O	0.226958	0.194325	0.928728
	O3255	O	0.227084	0.310403	0.928604
	O3256	O	0.170821	0.694454	0.892059
	O3257	O	0.140135	0.694772	0.892637
	O3258	O	0.195907	0.694925	0.990050
	O3259	O	0.196088	0.810990	0.990138
	O3260	O	0.164764	0.694945	0.991189
	O3261	O	0.164760	0.810857	0.991255
	O3262	O	0.140098	0.811115	0.892610
	O3263	O	0.170986	0.810812	0.892054
	O3264	O	0.170968	0.194764	0.891969
	O3265	O	0.140128	0.194424	0.892650
	O3266	O	0.196121	0.195024	0.990146
	O3267	O	0.195967	0.311159	0.990105
	O3268	O	0.164671	0.194085	0.991239
	O3269	O	0.164772	0.310223	0.991154
	O3270	O	0.140191	0.310793	0.892663
	O3271	O	0.170998	0.310852	0.892014
	H3272	H	0.126622	0.644883	0.966284
	H3273	H	0.126729	0.861128	0.966249
	H3274	H	0.126571	0.143527	0.966315
	H3275	H	0.126514	0.360557	0.966359
	H3276	H	0.119910	0.862202	0.921974
	H3277	H	0.119985	0.643106	0.922029
	H3278	H	0.120082	0.362225	0.922091
	H3279	H	0.120064	0.143074	0.922077
	H3280	H	0.250971	0.064687	0.936528
	H3281	H	0.246236	0.064636	0.934485
	H3282	H	0.246251	0.940965	0.934405
	H3283	H	0.251021	0.941639	0.936510
	H3284	H	0.250428	0.064577	0.941101
	H3285	H	0.250448	0.941260	0.941060
	H3286	H	0.099824	0.064206	0.947265
	H3287	H	0.099868	0.941053	0.947287
	H3288	H	0.099783	0.064159	0.942262
	H3289	H	0.099797	0.941676	0.942256
	H3290	H	0.089865	0.064463	0.938491
	H3291	H	0.089857	0.940973	0.938503
	H3292	H	0.078120	0.440905	0.936663
	H3293	H	0.073400	0.440888	0.944813
	H3294	H	0.097916	0.440837	0.935154
	H3295	H	0.243886	0.441410	0.941432
	H3296	H	0.239770	0.441304	0.938505
	H3297	H	0.241066	0.441371	0.935973
	H3298	H	0.073413	0.564651	0.944808
	H3299	H	0.078155	0.564749	0.936699
	H3300	H	0.241201	0.564504	0.935951
	H3301	H	0.239793	0.564910	0.938460
	H3302	H	0.243946	0.564779	0.941403
	H3303	H	0.097955	0.564238	0.935158
	H3304	H	0.220346	0.645056	0.962191
	H3305	H	0.220688	0.861410	0.962283
	H3306	H	0.220749	0.144644	0.962349
	H3307	H	0.220409	0.360895	0.962217
	H3308	H	0.130774	0.643369	0.906550
	H3309	H	0.188959	0.644005	0.903798
	H3310	H	0.189060	0.860923	0.903693
	H3311	H	0.130637	0.862145	0.906527
	H3312	H	0.209025	0.644545	0.916983
	H3313	H	0.209148	0.861181	0.916897
	H3314	H	0.207467	0.644856	0.976979
	H3315	H	0.207851	0.861561	0.977082
	H3316	H	0.156747	0.441254	0.881702
	H3317	H	0.179877	0.441260	0.999511
	H3318	H	0.154987	0.441169	0.883774
	H3319	H	0.152092	0.441226	0.883823
	H3320	H	0.182251	0.440640	1.002932
	H3321	H	0.179786	0.441238	1.001862
	H3322	H	0.179972	0.564274	0.999497
	H3323	H	0.156705	0.564656	0.881678
	H3324	H	0.179826	0.564365	1.001890
	H3325	H	0.182294	0.564526	1.002923
	H3326	H	0.152007	0.564517	0.883788
	H3327	H	0.154959	0.564692	0.883752
	H3328	H	0.207994	0.144939	0.977176
	H3329	H	0.207617	0.361188	0.977044
	H3330	H	0.158484	0.064872	0.881896
	H3331	H	0.156405	0.064217	0.879485
	H3332	H	0.155383	0.064755	0.884802
	H3333	H	0.146696	0.861210	0.979506
	H3334	H	0.146538	0.644871	0.979521
	H3335	H	0.146528	0.360555	0.979537
	H3336	H	0.146602	0.143668	0.979521
	H3337	H	0.130770	0.143059	0.906610
	H3338	H	0.189092	0.144138	0.903644
	H3339	H	0.189040	0.360895	0.903769
	H3340	H	0.130797	0.362097	0.906605
	H3341	H	0.208995	0.143811	0.916931
	H3342	H	0.208971	0.360644	0.917013
	H3343	H	0.182497	0.064626	1.004639
	H3344	H	0.187349	0.063857	1.003705
	H3345	H	0.188426	0.064335	0.999544
	H3346	H	0.156381	0.941145	0.879458
	H3347	H	0.158515	0.941361	0.881890
	H3348	H	0.155393	0.941622	0.884779
	H3349	H	0.182413	0.941241	1.004647
	H3350	H	0.187367	0.941303	1.003730
	H3351	H	0.188414	0.941156	0.999536
	Zn3352	Zn	0.090901	0.680220	0.944395
	Zn3353	Zn	0.090921	0.825357	0.944372
	Zn3354	Zn	0.090838	0.180087	0.944390
	Zn3355	Zn	0.090878	0.325246	0.944378
	Zn3356	Zn	0.182853	0.679826	1.000910
	Zn3357	Zn	0.182806	0.825476	1.000953
	Zn3358	Zn	0.182920	0.179907	1.000936
	Zn3359	Zn	0.182823	0.325444	1.000947
	C3360	C	0.222342	0.753053	0.925652
	C3361	C	0.113391	0.752855	0.957552
	C3362	C	0.125543	0.753016	0.965451
	C3363	C	0.131074	0.691877	0.969228
	C3364	C	0.131167	0.814190	0.969203
	C3365	C	0.113204	0.252193	0.957610
	C3366	C	0.125370	0.252058	0.965494
	C3367	C	0.131037	0.190653	0.969236
	C3368	C	0.131018	0.313420	0.969257
	C3369	C	0.111551	0.752772	0.931840
	C3370	C	0.119422	0.752690	0.922969
	C3371	C	0.122465	0.814556	0.918586
	C3372	C	0.122515	0.690762	0.918612
	C3373	C	0.111608	0.252811	0.931910
	C3374	C	0.119436	0.252704	0.923014
	C3375	C	0.122529	0.314643	0.918654
	C3376	C	0.122535	0.190666	0.918653
	C3377	C	0.247719	0.043188	0.936239
	C3378	C	0.247728	0.962439	0.936217
	C3379	C	0.097384	0.042920	0.944672
	C3380	C	0.097414	0.962354	0.944653
	C3381	C	0.087438	0.043279	0.940851
	C3382	C	0.087459	0.962170	0.940842
	C3383	C	0.079668	0.462367	0.941702
	C3384	C	0.245847	0.462597	0.940468
	C3385	C	0.241652	0.462466	0.937521
	C3386	C	0.079698	0.543305	0.941701
	C3387	C	0.241698	0.543389	0.937515
	C3388	C	0.245901	0.543371	0.940466
	C3389	C	0.229185	0.753230	0.952600
	C3390	C	0.228977	0.252762	0.952555
	C3391	C	0.221324	0.753317	0.961414
	C3392	C	0.217596	0.692006	0.965539
	C3393	C	0.217790	0.814539	0.965583
	C3394	C	0.221126	0.252769	0.961361
	C3395	C	0.217730	0.191558	0.965585
	C3396	C	0.217535	0.314119	0.965516
	C3397	C	0.222276	0.252263	0.925661
	C3398	C	0.175649	0.752556	0.895052
	C3399	C	0.137591	0.752974	0.896243
	C3400	C	0.160030	0.753006	0.988198
	C3401	C	0.204516	0.691472	0.914060
	C3402	C	0.204586	0.814104	0.914013
	C3403	C	0.187760	0.752524	0.902977
	C3404	C	0.131270	0.752816	0.905577
	C3405	C	0.128444	0.690911	0.910016
	C3406	C	0.193394	0.691212	0.906736
	C3407	C	0.193476	0.813904	0.906676
	C3408	C	0.128375	0.814573	0.909995
	C3409	C	0.210127	0.752902	0.917806
	C3410	C	0.199102	0.753016	0.986724
	C3411	C	0.210484	0.691858	0.973741
	C3412	C	0.210696	0.814526	0.973790
	C3413	C	0.207042	0.753229	0.977939
	C3414	C	0.181615	0.462368	0.999616
	C3415	C	0.153396	0.462501	0.883282
	C3416	C	0.181466	0.462284	1.002003
	C3417	C	0.181621	0.543300	0.999609
	C3418	C	0.181491	0.543170	1.002004
	C3419	C	0.153386	0.543389	0.883271
	C3420	C	0.199156	0.253085	0.986763
	C3421	C	0.210694	0.191683	0.973811
	C3422	C	0.210489	0.314207	0.973749
	C3423	C	0.206994	0.252963	0.977936
	C3424	C	0.156356	0.043371	0.880988
	C3425	C	0.175729	0.252707	0.894997
	C3426	C	0.137647	0.252615	0.896280
	C3427	C	0.159964	0.252135	0.988186
	C3428	C	0.204557	0.190982	0.913983
	C3429	C	0.204526	0.313548	0.914049
	C3430	C	0.187849	0.252503	0.902910
	C3431	C	0.131294	0.252607	0.905614
	C3432	C	0.147865	0.753093	0.980322
	C3433	C	0.142241	0.814222	0.976558
	C3434	C	0.142152	0.691932	0.976577
	C3435	C	0.147785	0.252046	0.980307
	C3436	C	0.142119	0.313406	0.976591
	C3437	C	0.142142	0.190697	0.976570
	C3438	C	0.128424	0.190716	0.910051
	C3439	C	0.193482	0.191127	0.906633
	C3440	C	0.193462	0.313752	0.906697
	C3441	C	0.128422	0.314531	0.910049
	C3442	C	0.210141	0.252183	0.917773
	C3443	C	0.184354	0.042976	1.003335
	C3444	C	0.153192	0.043489	0.883924
	C3445	C	0.156318	0.962540	0.881000
	C3446	C	0.184331	0.962434	1.003337
	C3447	C	0.153175	0.962626	0.883926
	N3448	N	0.090735	0.069873	0.944406
	N3449	N	0.090774	0.935348	0.944403
	N3450	N	0.090779	0.435452	0.944456
	N3451	N	0.090770	0.570024	0.944453
	N3452	N	0.182728	0.435487	1.000876
	N3453	N	0.182746	0.569973	1.000864
	N3454	N	0.182878	0.069997	1.000913
	N3455	N	0.182836	0.935499	1.000930
	O3456	O	0.339147	0.694167	0.054100
	O3457	O	0.339386	0.811098	0.054076
	O3458	O	0.287920	0.693922	0.069565
	O3459	O	0.287958	0.810920	0.069577
	O3460	O	0.287797	0.194353	0.069611
	O3461	O	0.287698	0.310960	0.069625
	O3462	O	0.288439	0.694284	0.046397
	O3463	O	0.288337	0.810650	0.046367
	O3464	O	0.288433	0.194443	0.046409
	O3465	O	0.288408	0.310926	0.046398
	O3466	O	0.338955	0.695309	0.077301
	O3467	O	0.338928	0.811645	0.077313
	O3468	O	0.338831	0.194880	0.077300
	O3469	O	0.338773	0.311192	0.077309
	O3470	O	0.339302	0.194229	0.054081
	O3471	O	0.339286	0.311181	0.054068
	O3472	O	0.350100	0.693998	0.007076
	O3473	O	0.320346	0.694499	0.003830
	O3474	O	0.306777	0.694601	0.119779
	O3475	O	0.306776	0.811438	0.119769
	O3476	O	0.276949	0.694397	0.116588
	O3477	O	0.277059	0.811355	0.116535
	O3478	O	0.320282	0.811269	0.003859
	O3479	O	0.350141	0.810696	0.007053
	O3480	O	0.350088	0.194544	0.007090
	O3481	O	0.320402	0.194375	0.003893
	O3482	O	0.306931	0.194508	0.119839
	O3483	O	0.306800	0.311098	0.119819
	O3484	O	0.277076	0.194210	0.116607
	O3485	O	0.276867	0.311051	0.116614
	O3486	O	0.320417	0.311053	0.003907
	O3487	O	0.350266	0.311232	0.007036
	H3488	H	0.285258	0.642299	0.084799
	H3489	H	0.285153	0.862395	0.084747
	H3490	H	0.285126	0.142570	0.084809
	H3491	H	0.285068	0.362341	0.084814
	H3492	H	0.297650	0.862008	0.032420
	H3493	H	0.297599	0.643114	0.032386
	H3494	H	0.297683	0.362609	0.032422
	H3495	H	0.297619	0.143184	0.032434
	H3496	H	0.348230	0.064524	0.062825
	H3497	H	0.345074	0.064636	0.065601
	H3498	H	0.345058	0.940842	0.065566
	H3499	H	0.348344	0.940932	0.062823
	H3500	H	0.356274	0.064461	0.063425
	H3501	H	0.356302	0.941124	0.063447
	H3502	H	0.277056	0.064742	0.053290
	H3503	H	0.277014	0.941262	0.053316
	H3504	H	0.271409	0.064874	0.053628
	H3505	H	0.271451	0.941016	0.053721
	H3506	H	0.268655	0.064293	0.057848
	H3507	H	0.268724	0.941042	0.057937
	H3508	H	0.281700	0.440680	0.058292
	H3509	H	0.280493	0.440961	0.054987
	H3510	H	0.275982	0.440924	0.061165
	H3511	H	0.357478	0.441270	0.067549
	H3512	H	0.352546	0.441407	0.069945
	H3513	H	0.347968	0.441445	0.068839
	H3514	H	0.280494	0.564198	0.054988
	H3515	H	0.281618	0.564567	0.058285
	H3516	H	0.348012	0.564825	0.068851
	H3517	H	0.352604	0.564223	0.069885
	H3518	H	0.357402	0.564367	0.067529
	H3519	H	0.275985	0.564279	0.061173
	H3520	H	0.329522	0.644038	0.091214
	H3521	H	0.329774	0.863008	0.091350
	H3522	H	0.329247	0.143394	0.091194
	H3523	H	0.329576	0.362368	0.091274
	H3524	H	0.308324	0.643216	0.016915
	H3525	H	0.347542	0.642651	0.022288
	H3526	H	0.347407	0.862292	0.022269
	H3527	H	0.308351	0.862202	0.016944
	H3528	H	0.342087	0.642562	0.038895
	H3529	H	0.341966	0.862319	0.038876
	H3530	H	0.318707	0.643670	0.106665
	H3531	H	0.318989	0.862548	0.106791
	H3532	H	0.342301	0.440380	-0.005552
	H3533	H	0.291187	0.441173	0.131511
	H3534	H	0.339772	0.440541	-0.002732
	H3535	H	0.335723	0.441352	-0.002815
	H3536	H	0.292332	0.441849	0.127049
	H3537	H	0.293942	0.441301	0.129098
	H3538	H	0.291193	0.564489	0.131466
	H3539	H	0.342365	0.563888	-0.005553
	H3540	H	0.293908	0.564833	0.129093
	H3541	H	0.292200	0.564418	0.127075
	H3542	H	0.335692	0.564129	-0.002845
	H3543	H	0.339709	0.564214	-0.002733
	H3544	H	0.318623	0.143278	0.106676
	H3545	H	0.318911	0.362469	0.106758
	H3546	H	0.344445	0.064683	-0.007346
	H3547	H	0.339118	0.064709	-0.009815
	H3548	H	0.343545	0.064519	-0.002044
	H3549	H	0.279721	0.862446	0.101362
	H3550	H	0.279791	0.642329	0.101393
	H3551	H	0.279620	0.362334	0.101397
	H3552	H	0.279665	0.142580	0.101404
	H3553	H	0.308405	0.143117	0.016960
	H3554	H	0.347659	0.143203	0.022285
	H3555	H	0.347419	0.363177	0.022255
	H3556	H	0.308474	0.362491	0.016960
	H3557	H	0.342221	0.143013	0.038889
	H3558	H	0.341974	0.362971	0.038859
	H3559	H	0.289025	0.064698	0.131033
	H3560	H	0.291803	0.064313	0.130703
	H3561	H	0.292852	0.064403	0.128493
	H3562	H	0.339124	0.941394	-0.009829
	H3563	H	0.344422	0.941299	-0.007345
	H3564	H	0.343547	0.941331	-0.001986
	H3565	H	0.288961	0.941156	0.131076
	H3566	H	0.291772	0.941011	0.130668
	H3567	H	0.292811	0.941202	0.128489
	Zn3568	Zn	0.275164	0.680351	0.057197
	Zn3569	Zn	0.275243	0.825339	0.057213
	Zn3570	Zn	0.275172	0.180354	0.057180
	Zn3571	Zn	0.275238	0.325262	0.057196
	Zn3572	Zn	0.289530	0.680260	0.129004
	Zn3573	Zn	0.289473	0.825790	0.128978
	Zn3574	Zn	0.289645	0.180177	0.129015
	Zn3575	Zn	0.289493	0.325737	0.128993
	C3576	C	0.339506	0.752528	0.050085
	C3577	C	0.287692	0.752371	0.073567
	C3578	C	0.285698	0.752298	0.083762
	C3579	C	0.284068	0.690157	0.088482
	C3580	C	0.284016	0.814591	0.088454
	C3581	C	0.287500	0.252598	0.073643
	C3582	C	0.285528	0.252469	0.083826
	C3583	C	0.283942	0.190308	0.088515
	C3584	C	0.283902	0.314623	0.088517
	C3585	C	0.290888	0.752446	0.042751
	C3586	C	0.297159	0.752522	0.033400
	C3587	C	0.300004	0.814524	0.028977
	C3588	C	0.299989	0.690637	0.028955
	C3589	C	0.290902	0.252743	0.042769
	C3590	C	0.297266	0.252853	0.033435
	C3591	C	0.300090	0.314903	0.028989
	C3592	C	0.300057	0.190829	0.028992
	C3593	C	0.348038	0.043190	0.064804
	C3594	C	0.348030	0.962270	0.064792
	C3595	C	0.274574	0.043457	0.054446
	C3596	C	0.274543	0.962400	0.054477
	C3597	C	0.271820	0.043117	0.058728
	C3598	C	0.271841	0.962545	0.058753
	C3599	C	0.279569	0.462187	0.056776
	C3600	C	0.355639	0.462324	0.066223
	C3601	C	0.350655	0.462585	0.068642
	C3602	C	0.279554	0.543167	0.056759
	C3603	C	0.350658	0.543262	0.068608
	C3604	C	0.355572	0.543193	0.066198
	C3605	C	0.336433	0.753485	0.080925
	C3606	C	0.336252	0.253015	0.080921
	C3607	C	0.330182	0.753467	0.090286
	C3608	C	0.327269	0.691516	0.094690
	C3609	C	0.327410	0.815225	0.094767
	C3610	C	0.329920	0.252890	0.090271
	C3611	C	0.326988	0.190930	0.094677
	C3612	C	0.327171	0.314805	0.094729
	C3613	C	0.339563	0.252708	0.050066
	C3614	C	0.349880	0.752379	0.011073
	C3615	C	0.316878	0.752795	0.007121
	C3616	C	0.277262	0.752763	0.112553
	C3617	C	0.343201	0.690297	0.035188
	C3618	C	0.343127	0.814558	0.035170
	C3619	C	0.347943	0.752454	0.021267
	C3620	C	0.309036	0.752643	0.016014
	C3621	C	0.305874	0.690670	0.020352
	C3622	C	0.346323	0.690380	0.025972
	C3623	C	0.346260	0.814539	0.025957
	C3624	C	0.305895	0.814570	0.020376
	C3625	C	0.341492	0.752425	0.039881
	C3626	C	0.310262	0.753034	0.116523
	C3627	C	0.321323	0.691328	0.103284
	C3628	C	0.321462	0.815093	0.103360
	C3629	C	0.318255	0.753146	0.107675
	C3630	C	0.289345	0.462555	0.130762
	C3631	C	0.337722	0.462345	-0.003451
	C3632	C	0.292133	0.462624	0.128319
	C3633	C	0.289336	0.543478	0.130751
	C3634	C	0.292097	0.543373	0.128330
	C3635	C	0.337683	0.543028	-0.003460
	C3636	C	0.310325	0.252859	0.116560
	C3637	C	0.321147	0.190968	0.103287
	C3638	C	0.321319	0.314762	0.103333
	C3639	C	0.318154	0.252849	0.107689
	C3640	C	0.340732	0.043154	-0.007715
	C3641	C	0.349948	0.253014	0.011075
	C3642	C	0.316953	0.252707	0.007166
	C3643	C	0.277179	0.252645	0.112610
	C3644	C	0.343287	0.190856	0.035174
	C3645	C	0.343145	0.315228	0.035157
	C3646	C	0.348089	0.253216	0.021267
	C3647	C	0.309088	0.252786	0.016035
	C3648	C	0.279226	0.752486	0.102355
	C3649	C	0.280860	0.814638	0.097658
	C3650	C	0.280919	0.690204	0.097684
	C3651	C	0.279147	0.252502	0.102426
	C3652	C	0.280785	0.314524	0.097721
	C3653	C	0.280831	0.190412	0.097723
	C3654	C	0.305961	0.190788	0.020392
	C3655	C	0.346471	0.191025	0.025974
	C3656	C	0.346332	0.315378	0.025955
	C3657	C	0.305994	0.314833	0.020392
	C3658	C	0.341514	0.252970	0.039857
	C3659	C	0.290148	0.043283	0.130390
	C3660	C	0.339810	0.043165	-0.002398
	C3661	C	0.340718	0.962358	-0.007722
	C3662	C	0.290104	0.962406	0.130371
	C3663	C	0.339792	0.962327	-0.002396
	N3664	N	0.275317	0.070094	0.057186
	N3665	N	0.275329	0.935536	0.057185
	N3666	N	0.275219	0.435436	0.057180
	N3667	N	0.275187	0.570047	0.057182
	N3668	N	0.289488	0.435642	0.128951
	N3669	N	0.289501	0.570103	0.128967
	N3670	N	0.289545	0.070060	0.129035
	N3671	N	0.289486	0.935609	0.128999
	O3672	O	0.364271	0.694702	0.175318
	O3673	O	0.364278	0.810904	0.175323
	O3674	O	0.244655	0.695036	0.201663
	O3675	O	0.244845	0.811432	0.201574
	O3676	O	0.244717	0.194716	0.201626
	O3677	O	0.244761	0.310571	0.201607
	O3678	O	0.244150	0.694790	0.182232
	O3679	O	0.244248	0.811545	0.182242
	O3680	O	0.244331	0.194553	0.182301
	O3681	O	0.244239	0.311219	0.182236
	O3682	O	0.369583	0.694241	0.195833
	O3683	O	0.369523	0.810206	0.195811
	O3684	O	0.369204	0.194650	0.195764
	O3685	O	0.369350	0.310612	0.195835
	O3686	O	0.364320	0.195244	0.175346
	O3687	O	0.364342	0.311079	0.175328
	O3688	O	0.307196	0.694624	0.139171
	O3689	O	0.276366	0.694640	0.139813
	O3690	O	0.332983	0.694273	0.236580
	O3691	O	0.332877	0.810434	0.236500
	O3692	O	0.301615	0.694910	0.237829
	O3693	O	0.301681	0.811171	0.237784
	O3694	O	0.276514	0.811254	0.139844
	O3695	O	0.307231	0.810952	0.139120
	O3696	O	0.307378	0.195015	0.139182
	O3697	O	0.276368	0.194584	0.139780
	O3698	O	0.333140	0.194802	0.236632
	O3699	O	0.333018	0.310811	0.236602
	O3700	O	0.301645	0.194495	0.237843
	O3701	O	0.301756	0.310316	0.237787
	O3702	O	0.276326	0.310885	0.139761
	O3703	O	0.307287	0.311184	0.139187
	H3704	H	0.262998	0.644755	0.213176
	H3705	H	0.262884	0.861992	0.213265
	H3706	H	0.263244	0.144886	0.213090
	H3707	H	0.262904	0.360289	0.213257
	H3708	H	0.256549	0.862545	0.169273
	H3709	H	0.256154	0.643531	0.169171
	H3710	H	0.256237	0.362367	0.169159
	H3711	H	0.256446	0.143520	0.169245
	H3712	H	0.379242	0.064513	0.185263
	H3713	H	0.381013	0.064245	0.186671
	H3714	H	0.381021	0.941210	0.186675
	H3715	H	0.379318	0.941281	0.185299
	H3716	H	0.380679	0.064469	0.183226
	H3717	H	0.380767	0.941153	0.183252
	H3718	H	0.223490	0.064950	0.192885
	H3719	H	0.223621	0.940871	0.192972
	H3720	H	0.226678	0.064745	0.194001
	H3721	H	0.226785	0.941249	0.193997
	H3722	H	0.230874	0.064269	0.192673
	H3723	H	0.230889	0.940928	0.192650
	H3724	H	0.224867	0.441220	0.197391
	H3725	H	0.233214	0.441254	0.196627
	H3726	H	0.216971	0.441186	0.191756
	H3727	H	0.383333	0.441099	0.181389
	H3728	H	0.388495	0.441110	0.184497
	H3729	H	0.387299	0.440830	0.187397
	H3730	H	0.233213	0.564356	0.196620
	H3731	H	0.224902	0.564658	0.197326
	H3732	H	0.387305	0.564531	0.187422
	H3733	H	0.388509	0.564255	0.184485
	H3734	H	0.383418	0.563582	0.181376
	H3735	H	0.216980	0.564583	0.191802
	H3736	H	0.357764	0.643847	0.208840
	H3737	H	0.357612	0.860379	0.208749
	H3738	H	0.357645	0.144910	0.208805
	H3739	H	0.357470	0.360483	0.208798
	H3740	H	0.266967	0.643449	0.153761
	H3741	H	0.325539	0.644024	0.150736
	H3742	H	0.325623	0.861573	0.150681
	H3743	H	0.267358	0.862371	0.153819
	H3744	H	0.345828	0.644280	0.163782
	H3745	H	0.345937	0.861683	0.163731
	H3746	H	0.344712	0.643746	0.223572
	H3747	H	0.344587	0.860489	0.223474
	H3748	H	0.287461	0.440979	0.131255
	H3749	H	0.322020	0.441308	0.248802
	H3750	H	0.285162	0.440965	0.128441
	H3751	H	0.287168	0.441469	0.126652
	H3752	H	0.320629	0.440941	0.245702
	H3753	H	0.322608	0.441453	0.246775
	H3754	H	0.321966	0.564301	0.248794
	H3755	H	0.287522	0.564856	0.131252
	H3756	H	0.322506	0.564482	0.246782
	H3757	H	0.320612	0.564345	0.245728
	H3758	H	0.287211	0.564251	0.126730
	H3759	H	0.285227	0.565093	0.128428
	H3760	H	0.344867	0.144955	0.223622
	H3761	H	0.344678	0.360501	0.223615
	H3762	H	0.286991	0.065190	0.127610
	H3763	H	0.286201	0.065013	0.129204
	H3764	H	0.290802	0.064982	0.127156
	H3765	H	0.283141	0.861850	0.226330
	H3766	H	0.283306	0.644528	0.226260
	H3767	H	0.283109	0.360641	0.226359
	H3768	H	0.283514	0.144611	0.226190
	H3769	H	0.267212	0.143498	0.153794
	H3770	H	0.325581	0.145337	0.150837
	H3771	H	0.325686	0.361243	0.150749
	H3772	H	0.267018	0.362191	0.153705
	H3773	H	0.345950	0.145484	0.163854
	H3774	H	0.346031	0.361189	0.163760
	H3775	H	0.322150	0.064160	0.248563
	H3776	H	0.322644	0.064230	0.247185
	H3777	H	0.320269	0.064377	0.245741
	H3778	H	0.286112	0.941420	0.129175
	H3779	H	0.286929	0.941441	0.127533
	H3780	H	0.290798	0.941605	0.127109
	H3781	H	0.322205	0.941143	0.248573
	H3782	H	0.322648	0.941094	0.247186
	H3783	H	0.320235	0.941029	0.245723
	Zn3784	Zn	0.226980	0.680173	0.191482
	Zn3785	Zn	0.227001	0.825499	0.191463
	Zn3786	Zn	0.226971	0.180121	0.191483
	Zn3787	Zn	0.227033	0.325377	0.191463
	Zn3788	Zn	0.319904	0.680010	0.247454
	Zn3789	Zn	0.319948	0.825466	0.247414
	Zn3790	Zn	0.319920	0.179935	0.247441
	Zn3791	Zn	0.319955	0.325367	0.247432
	C3792	C	0.359450	0.752811	0.172345
	C3793	C	0.249529	0.753229	0.204599
	C3794	C	0.261809	0.753246	0.212419
	C3795	C	0.267520	0.691802	0.216104
	C3796	C	0.267457	0.814755	0.216151
	C3797	C	0.249543	0.252601	0.204613
	C3798	C	0.261791	0.252502	0.212445
	C3799	C	0.267670	0.191612	0.216074
	C3800	C	0.267435	0.313566	0.216166
	C3801	C	0.247698	0.753144	0.178992
	C3802	C	0.255571	0.753018	0.170117
	C3803	C	0.258879	0.814970	0.165813
	C3804	C	0.258650	0.691107	0.165771
	C3805	C	0.247768	0.252850	0.179006
	C3806	C	0.255567	0.252860	0.170093
	C3807	C	0.258704	0.314787	0.165734
	C3808	C	0.258813	0.191058	0.165783
	C3809	C	0.380757	0.043040	0.185714
	C3810	C	0.380793	0.962407	0.185721
	C3811	C	0.225554	0.043279	0.192932
	C3812	C	0.225595	0.962268	0.192948
	C3813	C	0.229765	0.043039	0.191541
	C3814	C	0.229748	0.962469	0.191530
	C3815	C	0.228480	0.462415	0.195536
	C3816	C	0.381309	0.462231	0.182588
	C3817	C	0.386461	0.462166	0.185694
	C3818	C	0.228480	0.543044	0.195525
	C3819	C	0.386503	0.543293	0.185701
	C3820	C	0.381368	0.542889	0.182576
	C3821	C	0.366416	0.752209	0.199179
	C3822	C	0.366191	0.252616	0.199168
	C3823	C	0.358400	0.752103	0.207945
	C3824	C	0.354785	0.690749	0.212103
	C3825	C	0.354720	0.813463	0.212052
	C3826	C	0.358277	0.252596	0.207948
	C3827	C	0.354747	0.191564	0.212096
	C3828	C	0.354674	0.313750	0.212111
	C3829	C	0.359546	0.253226	0.172351
	C3830	C	0.312036	0.752804	0.142124
	C3831	C	0.273903	0.752910	0.143437
	C3832	C	0.296831	0.753057	0.234835
	C3833	C	0.341287	0.691464	0.160901
	C3834	C	0.341331	0.814438	0.160873
	C3835	C	0.324306	0.752805	0.149945
	C3836	C	0.267516	0.752849	0.152762
	C3837	C	0.264589	0.691033	0.157185
	C3838	C	0.330029	0.691288	0.153656
	C3839	C	0.330062	0.814456	0.153625
	C3840	C	0.264823	0.814892	0.157224
	C3841	C	0.347055	0.752941	0.164581
	C3842	C	0.336077	0.752221	0.233196
	C3843	C	0.347586	0.690679	0.220272
	C3844	C	0.347544	0.813482	0.220235
	C3845	C	0.344009	0.752022	0.224422
	C3846	C	0.320584	0.462220	0.248598
	C3847	C	0.286987	0.462490	0.127937
	C3848	C	0.321144	0.462362	0.246554
	C3849	C	0.320565	0.543114	0.248596
	C3850	C	0.321111	0.543190	0.246564
	C3851	C	0.287024	0.543292	0.127958
	C3852	C	0.336207	0.252780	0.233270
	C3853	C	0.347660	0.191561	0.220300
	C3854	C	0.347559	0.313755	0.220307
	C3855	C	0.344083	0.252632	0.224476
	C3856	C	0.287361	0.043656	0.128565
	C3857	C	0.312187	0.253177	0.142130
	C3858	C	0.273814	0.252747	0.143390
	C3859	C	0.296838	0.252440	0.234866
	C3860	C	0.341450	0.192207	0.160918
	C3861	C	0.341514	0.314422	0.160865
	C3862	C	0.324513	0.253326	0.149919
	C3863	C	0.267461	0.252815	0.152711
	C3864	C	0.284476	0.753124	0.227061
	C3865	C	0.278700	0.814681	0.223406
	C3866	C	0.278768	0.691739	0.223357
	C3867	C	0.284492	0.252595	0.227103
	C3868	C	0.278685	0.313669	0.223423
	C3869	C	0.278909	0.191603	0.223339
	C3870	C	0.264703	0.191075	0.157182
	C3871	C	0.330188	0.192193	0.153670
	C3872	C	0.330234	0.314391	0.153620
	C3873	C	0.264603	0.314659	0.157132
	C3874	C	0.347249	0.253359	0.164537
	C3875	C	0.321765	0.043121	0.247749
	C3876	C	0.291178	0.043285	0.128132
	C3877	C	0.287298	0.962743	0.128544
	C3878	C	0.321758	0.962334	0.247742
	C3879	C	0.291162	0.962667	0.128112
	N3880	N	0.226871	0.069982	0.191493
	N3881	N	0.226903	0.935492	0.191518
	N3882	N	0.227054	0.435387	0.191502
	N3883	N	0.226986	0.569944	0.191494
	N3884	N	0.319888	0.435486	0.247434
	N3885	N	0.319853	0.569979	0.247455
	N3886	N	0.319898	0.070038	0.247429
	N3887	N	0.319902	0.935570	0.247440
	O3888	O	0.394752	0.695167	0.293483
	O3889	O	0.394915	0.811331	0.293386
	O3890	O	0.275651	0.695094	0.319587
	O3891	O	0.275586	0.811137	0.319610
	O3892	O	0.275564	0.194745	0.319622
	O3893	O	0.275585	0.310907	0.319618
	O3894	O	0.270516	0.695155	0.299112
	O3895	O	0.270575	0.811129	0.299148
	O3896	O	0.270737	0.195165	0.299151
	O3897	O	0.270685	0.311087	0.299148
	O3898	O	0.395141	0.694630	0.312797
	O3899	O	0.395256	0.811445	0.312842
	O3900	O	0.395148	0.194029	0.312837
	O3901	O	0.395144	0.310649	0.312839
	O3902	O	0.394938	0.194129	0.293381
	O3903	O	0.394759	0.310394	0.293432
	O3904	O	0.338140	0.694826	0.257135
	O3905	O	0.306761	0.694834	0.258303
	O3906	O	0.363132	0.694551	0.355279
	O3907	O	0.363081	0.810855	0.355298
	O3908	O	0.332216	0.694804	0.355958
	O3909	O	0.332338	0.810807	0.355944
	O3910	O	0.306869	0.810896	0.258298
	O3911	O	0.338151	0.810856	0.257104
	O3912	O	0.338135	0.194374	0.257073
	O3913	O	0.306780	0.194759	0.258281
	O3914	O	0.363080	0.194600	0.355319
	O3915	O	0.363038	0.310961	0.355315
	O3916	O	0.332137	0.194414	0.355939
	O3917	O	0.332293	0.310510	0.355859
	O3918	O	0.306759	0.310818	0.258251
	O3919	O	0.338095	0.310503	0.257148
	H3920	H	0.293830	0.645142	0.331236
	H3921	H	0.293967	0.861469	0.331174
	H3922	H	0.293778	0.144882	0.331200
	H3923	H	0.293733	0.360693	0.331226
	H3924	H	0.282251	0.861128	0.286112
	H3925	H	0.282210	0.645037	0.286076
	H3926	H	0.282200	0.360994	0.286067
	H3927	H	0.282395	0.145024	0.286133
	H3928	H	0.413645	0.064312	0.304078
	H3929	H	0.413731	0.064161	0.303531
	H3930	H	0.413692	0.940917	0.303543
	H3931	H	0.413523	0.940757	0.304046
	H3932	H	0.412335	0.064364	0.304351
	H3933	H	0.412309	0.940926	0.304324
	H3934	H	0.254113	0.064875	0.312018
	H3935	H	0.254069	0.940928	0.312060
	H3936	H	0.258292	0.064017	0.312893
	H3937	H	0.258207	0.941263	0.312910
	H3938	H	0.262476	0.064359	0.310640
	H3939	H	0.262290	0.940965	0.310638
	H3940	H	0.254771	0.441100	0.309994
	H3941	H	0.255922	0.441440	0.311195
	H3942	H	0.256270	0.441183	0.308443
	H3943	H	0.405328	0.441480	0.306899
	H3944	H	0.404235	0.441337	0.300454
	H3945	H	0.410670	0.440938	0.297976
	H3946	H	0.255907	0.564581	0.311243
	H3947	H	0.254770	0.564105	0.309974
	H3948	H	0.410649	0.564403	0.297968
	H3949	H	0.404277	0.564310	0.300478
	H3950	H	0.405356	0.564733	0.306881
	H3951	H	0.256175	0.564458	0.308446
	H3952	H	0.383383	0.643413	0.325923
	H3953	H	0.383038	0.862338	0.325852
	H3954	H	0.383113	0.143029	0.325944
	H3955	H	0.383279	0.362158	0.325938
	H3956	H	0.295080	0.645068	0.271299
	H3957	H	0.356367	0.644592	0.268784
	H3958	H	0.356468	0.861381	0.268617
	H3959	H	0.295134	0.861100	0.271327
	H3960	H	0.376579	0.644914	0.281865
	H3961	H	0.376710	0.861658	0.281715
	H3962	H	0.372611	0.643314	0.341383
	H3963	H	0.372253	0.862263	0.341289
	H3964	H	0.319676	0.440641	0.249231
	H3965	H	0.345987	0.441025	0.364847
	H3966	H	0.316944	0.440551	0.247777
	H3967	H	0.317389	0.441229	0.246297
	H3968	H	0.350382	0.441289	0.368749
	H3969	H	0.346874	0.441355	0.367817
	H3970	H	0.345964	0.564493	0.364822
	H3971	H	0.319685	0.564866	0.249214
	H3972	H	0.346978	0.564554	0.367841
	H3973	H	0.350464	0.564328	0.368747
	H3974	H	0.317375	0.564209	0.246330
	H3975	H	0.316935	0.564396	0.247803
	H3976	H	0.372373	0.143293	0.341384
	H3977	H	0.372577	0.362231	0.341409
	H3978	H	0.317238	0.064366	0.247947
	H3979	H	0.319015	0.064346	0.249037
	H3980	H	0.317925	0.064433	0.246075
	H3981	H	0.314062	0.860998	0.344304
	H3982	H	0.313956	0.644974	0.344383
	H3983	H	0.313949	0.360816	0.344313
	H3984	H	0.314050	0.144724	0.344258
	H3985	H	0.295137	0.144933	0.271297
	H3986	H	0.356405	0.143573	0.268646
	H3987	H	0.356345	0.360715	0.268734
	H3988	H	0.294922	0.360989	0.271228
	H3989	H	0.376642	0.143773	0.281754
	H3990	H	0.376578	0.360340	0.281843
	H3991	H	0.346215	0.064555	0.365685
	H3992	H	0.347305	0.064803	0.367613
	H3993	H	0.351600	0.064686	0.368225
	H3994	H	0.319045	0.941377	0.249003
	H3995	H	0.317226	0.940858	0.247966
	H3996	H	0.317953	0.940709	0.246089
	H3997	H	0.346249	0.941411	0.365722
	H3998	H	0.347268	0.941289	0.367589
	H3999	H	0.351700	0.941292	0.368293
	Zn4000	Zn	0.257468	0.679978	0.309972
	Zn4001	Zn	0.257343	0.825603	0.309947
	Zn4002	Zn	0.257515	0.180124	0.309896
	Zn4003	Zn	0.257459	0.325617	0.309937
	Zn4004	Zn	0.349948	0.680582	0.366058
	Zn4005	Zn	0.349962	0.825452	0.366105
	Zn4006	Zn	0.349897	0.180590	0.366061
	Zn4007	Zn	0.349870	0.325385	0.366087
	C4008	C	0.390059	0.753252	0.290433
	C4009	C	0.280400	0.753178	0.322584
	C4010	C	0.292713	0.753224	0.330398
	C4011	C	0.298351	0.692005	0.334128
	C4012	C	0.298392	0.814394	0.334111
	C4013	C	0.280361	0.252846	0.322597
	C4014	C	0.292718	0.252859	0.330361
	C4015	C	0.298381	0.191676	0.334073
	C4016	C	0.298328	0.313979	0.334104
	C4017	C	0.273659	0.753131	0.295765
	C4018	C	0.281547	0.753100	0.286966
	C4019	C	0.285129	0.814226	0.282814
	C4020	C	0.285102	0.691916	0.282796
	C4021	C	0.273767	0.253138	0.295777
	C4022	C	0.281596	0.253105	0.286949
	C4023	C	0.285093	0.314203	0.282765
	C4024	C	0.285188	0.191863	0.282806
	C4025	C	0.413410	0.043127	0.303771
	C4026	C	0.413404	0.962226	0.303758
	C4027	C	0.256519	0.043153	0.311789
	C4028	C	0.256475	0.962393	0.311784
	C4029	C	0.260703	0.043369	0.309494
	C4030	C	0.260619	0.962220	0.309509
	C4031	C	0.255885	0.462411	0.310416
	C4032	C	0.409871	0.462277	0.306873
	C4033	C	0.408810	0.462298	0.300379
	C4034	C	0.255886	0.543176	0.310443
	C4035	C	0.408825	0.543143	0.300370
	C4036	C	0.409873	0.543396	0.306858
	C4037	C	0.391737	0.753013	0.316084
	C4038	C	0.391724	0.252341	0.316130
	C4039	C	0.383853	0.752908	0.324960
	C4040	C	0.380809	0.690942	0.329325
	C4041	C	0.380608	0.814723	0.329282
	C4042	C	0.383897	0.252535	0.325016
	C4043	C	0.380712	0.190681	0.329362
	C4044	C	0.380815	0.314553	0.329368
	C4045	C	0.390055	0.252156	0.290431
	C4046	C	0.342933	0.752858	0.260104
	C4047	C	0.303702	0.752919	0.261661
	C4048	C	0.327455	0.752890	0.352981
	C4049	C	0.372123	0.691889	0.278918
	C4050	C	0.372181	0.814533	0.278827
	C4051	C	0.355262	0.752950	0.267891
	C4052	C	0.295778	0.753101	0.270441
	C4053	C	0.292191	0.691884	0.274589
	C4054	C	0.360933	0.691747	0.271642
	C4055	C	0.360983	0.814335	0.271553
	C4056	C	0.292218	0.814323	0.274608
	C4057	C	0.377846	0.753281	0.282582
	C4058	C	0.365621	0.752775	0.351667
	C4059	C	0.374894	0.690956	0.337919
	C4060	C	0.374688	0.814652	0.337871
	C4061	C	0.371975	0.752787	0.342339
	C4062	C	0.348104	0.462261	0.364682
	C4063	C	0.317874	0.462275	0.247143
	C4064	C	0.349037	0.462551	0.367717
	C4065	C	0.348100	0.543248	0.364658
	C4066	C	0.349082	0.543338	0.367714
	C4067	C	0.317880	0.543111	0.247153
	C4068	C	0.365592	0.252785	0.351703
	C4069	C	0.374784	0.190856	0.337953
	C4070	C	0.374878	0.314604	0.337957
	C4071	C	0.372008	0.252762	0.342400
	C4072	C	0.318594	0.043155	0.248203
	C4073	C	0.342882	0.252327	0.260110
	C4074	C	0.303646	0.252870	0.261623
	C4075	C	0.327427	0.252505	0.352913
	C4076	C	0.372168	0.190729	0.278822
	C4077	C	0.372147	0.313456	0.278864
	C4078	C	0.355205	0.252154	0.267887
	C4079	C	0.295745	0.252972	0.270407
	C4080	C	0.315216	0.752977	0.345152
	C4081	C	0.309582	0.814230	0.341404
	C4082	C	0.309539	0.691925	0.341422
	C4083	C	0.315244	0.252756	0.345065
	C4084	C	0.309518	0.313861	0.341375
	C4085	C	0.309585	0.191629	0.341345
	C4086	C	0.292239	0.191718	0.274587
	C4087	C	0.360935	0.190752	0.271557
	C4088	C	0.360909	0.313509	0.271606
	C4089	C	0.292133	0.314194	0.274543
	C4090	C	0.377841	0.252063	0.282559
	C4091	C	0.347663	0.043536	0.366520
	C4092	C	0.319287	0.043105	0.246297
	C4093	C	0.318586	0.962314	0.248215
	C4094	C	0.347654	0.962568	0.366532
	C4095	C	0.319294	0.962267	0.246291
	N4096	N	0.257455	0.070091	0.309852
	N4097	N	0.257338	0.935586	0.309886
	N4098	N	0.257439	0.435516	0.309942
	N4099	N	0.257435	0.570034	0.309959
	N4100	N	0.350002	0.435656	0.366113
	N4101	N	0.350073	0.570257	0.366081
	N4102	N	0.350045	0.070203	0.366127
	N4103	N	0.350080	0.935597	0.366146
	O4104	O	0.351836	0.694690	0.425533
	O4105	O	0.351864	0.811537	0.425565
	O4106	O	0.300169	0.693883	0.441100
	O4107	O	0.300181	0.810841	0.441101
	O4108	O	0.300112	0.194706	0.441047
	O4109	O	0.300141	0.311553	0.441074
	O4110	O	0.300743	0.694518	0.417885
	O4111	O	0.300633	0.810922	0.417841
	O4112	O	0.300917	0.194932	0.417902
	O4113	O	0.300632	0.311350	0.417783
	O4114	O	0.351014	0.694856	0.448758
	O4115	O	0.351037	0.811225	0.448722
	O4116	O	0.351019	0.194707	0.448745
	O4117	O	0.350948	0.311208	0.448791
	O4118	O	0.351960	0.194769	0.425529
	O4119	O	0.351949	0.311516	0.425575
	O4120	O	0.362472	0.694321	0.378503
	O4121	O	0.332625	0.694505	0.375288
	O4122	O	0.319307	0.694714	0.491373
	O4123	O	0.319218	0.811342	0.491358
	O4124	O	0.289411	0.694386	0.488098
	O4125	O	0.289359	0.811110	0.488083
	O4126	O	0.332731	0.811210	0.375380
	O4127	O	0.362528	0.811228	0.378517
	O4128	O	0.362490	0.194666	0.378538
	O4129	O	0.332705	0.194491	0.375320
	O4130	O	0.319188	0.194294	0.491353
	O4131	O	0.319233	0.310951	0.491370
	O4132	O	0.289508	0.194651	0.488109
	O4133	O	0.289330	0.311532	0.488082
	O4134	O	0.332700	0.311236	0.375332
	O4135	O	0.362400	0.311432	0.378517
	H4136	H	0.297485	0.642593	0.456329
	H4137	H	0.297510	0.862177	0.456275
	H4138	H	0.297600	0.142789	0.456275
	H4139	H	0.297400	0.362764	0.456268
	H4140	H	0.310162	0.862153	0.403954
	H4141	H	0.310022	0.642851	0.403888
	H4142	H	0.310047	0.362518	0.403881
	H4143	H	0.310189	0.143314	0.403920
	H4144	H	0.360389	0.064756	0.440431
	H4145	H	0.365141	0.064469	0.441508
	H4146	H	0.365215	0.941495	0.441570
	H4147	H	0.360423	0.941023	0.440508
	H4148	H	0.358940	0.064390	0.436388
	H4149	H	0.358899	0.941152	0.436404
	H4150	H	0.287741	0.064473	0.426007
	H4151	H	0.287796	0.941542	0.426040
	H4152	H	0.284321	0.064683	0.426716
	H4153	H	0.284366	0.941428	0.426810
	H4154	H	0.283681	0.065081	0.429695
	H4155	H	0.283799	0.941634	0.429722
	H4156	H	0.297315	0.441636	0.429962
	H4157	H	0.294927	0.441232	0.425082
	H4158	H	0.289466	0.441562	0.434586
	H4159	H	0.365500	0.441425	0.442100
	H4160	H	0.358411	0.441199	0.439765
	H4161	H	0.357965	0.441156	0.436399
	H4162	H	0.294928	0.564898	0.425081
	H4163	H	0.297319	0.564973	0.429964
	H4164	H	0.357955	0.564566	0.436390
	H4165	H	0.358414	0.564882	0.439748
	H4166	H	0.365457	0.564769	0.442005
	H4167	H	0.289462	0.565193	0.434538
	H4168	H	0.341961	0.643661	0.462770
	H4169	H	0.341536	0.862748	0.462655
	H4170	H	0.341574	0.143104	0.462672
	H4171	H	0.341721	0.361963	0.462755
	H4172	H	0.320782	0.643047	0.388428
	H4173	H	0.359754	0.642989	0.393734
	H4174	H	0.359998	0.862929	0.393721
	H4175	H	0.320857	0.862373	0.388488
	H4176	H	0.354378	0.643202	0.410340
	H4177	H	0.354555	0.863149	0.410338
	H4178	H	0.331273	0.643622	0.478225
	H4179	H	0.330847	0.862623	0.478113
	H4180	H	0.348789	0.440921	0.363507
	H4181	H	0.296148	0.441033	0.502335
	H4182	H	0.353493	0.441234	0.364761
	H4183	H	0.354206	0.441249	0.366935
	H4184	H	0.307653	0.441383	0.502585
	H4185	H	0.303219	0.440718	0.504473
	H4186	H	0.296189	0.564565	0.502334
	H4187	H	0.348751	0.564515	0.363460
	H4188	H	0.303125	0.564819	0.504402
	H4189	H	0.307581	0.564485	0.502624
	H4190	H	0.354266	0.564700	0.366873
	H4191	H	0.353563	0.564477	0.364695
	H4192	H	0.330980	0.143027	0.478191
	H4193	H	0.331197	0.362080	0.478251
	H4194	H	0.352128	0.064825	0.364317
	H4195	H	0.349002	0.063973	0.363910
	H4196	H	0.353630	0.065042	0.366893
	H4197	H	0.292022	0.862577	0.472862
	H4198	H	0.292009	0.642866	0.472957
	H4199	H	0.291932	0.362861	0.472860
	H4200	H	0.292152	0.142746	0.472892
	H4201	H	0.320887	0.143095	0.388492
	H4202	H	0.359886	0.143277	0.393762
	H4203	H	0.359753	0.363166	0.393698
	H4204	H	0.320798	0.362422	0.388421
	H4205	H	0.354609	0.143543	0.410391
	H4206	H	0.354479	0.363252	0.410315
	H4207	H	0.295506	0.065016	0.506096
	H4208	H	0.305157	0.064453	0.507357
	H4209	H	0.313514	0.064834	0.501472
	H4210	H	0.349080	0.941384	0.363904
	H4211	H	0.352207	0.940828	0.364322
	H4212	H	0.353765	0.941057	0.366902
	H4213	H	0.295415	0.941047	0.506031
	H4214	H	0.305086	0.941241	0.507334
	H4215	H	0.313426	0.941529	0.501493
	Zn4216	Zn	0.287508	0.680242	0.428657
	Zn4217	Zn	0.287650	0.825740	0.428702
	Zn4218	Zn	0.287597	0.180254	0.428609
	Zn4219	Zn	0.287525	0.325558	0.428624
	Zn4220	Zn	0.301967	0.679981	0.500537
	Zn4221	Zn	0.301928	0.825584	0.500535
	Zn4222	Zn	0.301949	0.180094	0.500526
	Zn4223	Zn	0.301927	0.325458	0.500507
	C4224	C	0.352099	0.753175	0.421531
	C4225	C	0.299915	0.752354	0.445098
	C4226	C	0.297966	0.752291	0.455293
	C4227	C	0.296317	0.690304	0.460020
	C4228	C	0.296328	0.814472	0.459976
	C4229	C	0.299908	0.253074	0.445074
	C4230	C	0.297963	0.252799	0.455278
	C4231	C	0.296386	0.190586	0.459980
	C4232	C	0.296236	0.314981	0.459964
	C4233	C	0.303184	0.752646	0.414234
	C4234	C	0.309527	0.752552	0.404893
	C4235	C	0.312450	0.814548	0.400488
	C4236	C	0.312367	0.690606	0.400445
	C4237	C	0.303277	0.253083	0.414222
	C4238	C	0.309652	0.252947	0.404891
	C4239	C	0.312464	0.314833	0.400452
	C4240	C	0.312507	0.190924	0.400472
	C4241	C	0.363138	0.043311	0.440183
	C4242	C	0.363204	0.962433	0.440222
	C4243	C	0.286485	0.043464	0.426982
	C4244	C	0.286536	0.962684	0.427017
	C4245	C	0.285882	0.043545	0.429983
	C4246	C	0.285904	0.962808	0.430004
	C4247	C	0.293927	0.462721	0.427828
	C4248	C	0.366823	0.462664	0.440353
	C4249	C	0.359756	0.462400	0.438066
	C4250	C	0.293881	0.543435	0.427821
	C4251	C	0.359779	0.543306	0.438047
	C4252	C	0.366825	0.543360	0.440324
	C4253	C	0.348512	0.753122	0.452359
	C4254	C	0.348403	0.252814	0.452366
	C4255	C	0.342254	0.753240	0.461710
	C4256	C	0.339540	0.691341	0.466192
	C4257	C	0.339320	0.815033	0.466124
	C4258	C	0.342097	0.252518	0.461719
	C4259	C	0.339266	0.190558	0.466144
	C4260	C	0.339401	0.314387	0.466198
	C4261	C	0.352155	0.253246	0.421537
	C4262	C	0.362306	0.752747	0.382514
	C4263	C	0.329233	0.752789	0.378602
	C4264	C	0.289614	0.752724	0.484078
	C4265	C	0.355626	0.690964	0.406639
	C4266	C	0.355717	0.815368	0.406639
	C4267	C	0.360432	0.752898	0.392723
	C4268	C	0.321401	0.752743	0.387498
	C4269	C	0.318287	0.690648	0.391848
	C4270	C	0.358710	0.690854	0.397424
	C4271	C	0.358812	0.815151	0.397421
	C4272	C	0.318340	0.814641	0.391886
	C4273	C	0.354055	0.753173	0.411340
	C4274	C	0.322698	0.753057	0.488073
	C4275	C	0.333698	0.691305	0.474812
	C4276	C	0.333478	0.815008	0.474751
	C4277	C	0.330511	0.753131	0.479157
	C4278	C	0.297334	0.462493	0.500636
	C4279	C	0.352889	0.462545	0.365896
	C4280	C	0.304375	0.462378	0.502727
	C4281	C	0.297378	0.543261	0.500638
	C4282	C	0.304404	0.543369	0.502731
	C4283	C	0.352944	0.543336	0.365870
	C4284	C	0.322629	0.252604	0.488073
	C4285	C	0.333458	0.190575	0.474770
	C4286	C	0.333583	0.314416	0.474821
	C4287	C	0.330369	0.252535	0.479153
	C4288	C	0.350502	0.043218	0.364641
	C4289	C	0.362225	0.253094	0.382538
	C4290	C	0.329241	0.252852	0.378594
	C4291	C	0.289643	0.253046	0.484090
	C4292	C	0.355688	0.191222	0.406671
	C4293	C	0.355657	0.315477	0.406632
	C4294	C	0.360353	0.253238	0.392725
	C4295	C	0.321483	0.252860	0.387498
	C4296	C	0.291566	0.752623	0.473890
	C4297	C	0.293251	0.814715	0.469191
	C4298	C	0.293220	0.690427	0.469234
	C4299	C	0.291609	0.252811	0.473899
	C4300	C	0.293157	0.315017	0.469183
	C4301	C	0.293305	0.190564	0.469199
	C4302	C	0.318415	0.190843	0.391881
	C4303	C	0.358750	0.191147	0.397451
	C4304	C	0.358723	0.315365	0.397416
	C4305	C	0.318355	0.314839	0.391847
	C4306	C	0.354071	0.253424	0.411343
	C4307	C	0.300657	0.043522	0.505086
	C4308	C	0.351994	0.043253	0.367163
	C4309	C	0.350499	0.962421	0.364632
	C4310	C	0.300608	0.962616	0.505073
	C4311	C	0.352014	0.962508	0.367195
	N4312	N	0.287685	0.070393	0.428644
	N4313	N	0.287717	0.935910	0.428695
	N4314	N	0.287511	0.435760	0.428665
	N4315	N	0.287534	0.570302	0.428649
	N4316	N	0.301740	0.435695	0.500506
	N4317	N	0.301767	0.570182	0.500506
	N4318	N	0.301808	0.070377	0.500507
	N4319	N	0.301765	0.935885	0.500517
	O4320	O	0.371441	0.694796	0.549529
	O4321	O	0.371511	0.810837	0.549503
	O4322	O	0.256630	0.694661	0.573482
	O4323	O	0.256524	0.810993	0.573552
	O4324	O	0.256620	0.195081	0.573539
	O4325	O	0.256639	0.311316	0.573494
	O4326	O	0.256786	0.694676	0.553876
	O4327	O	0.256903	0.811281	0.553914
	O4328	O	0.256713	0.194578	0.553831
	O4329	O	0.256682	0.311327	0.553833
	O4330	O	0.371399	0.694567	0.569109
	O4331	O	0.371351	0.811268	0.569087
	O4332	O	0.371364	0.194530	0.569133
	O4333	O	0.371354	0.311196	0.569096
	O4334	O	0.371514	0.194961	0.549510
	O4335	O	0.371603	0.311042	0.549504
	O4336	O	0.319135	0.694950	0.510982
	O4337	O	0.288574	0.694483	0.511257
	O4338	O	0.339738	0.694833	0.611770
	O4339	O	0.339587	0.811339	0.611701
	O4340	O	0.309075	0.694937	0.611962
	O4341	O	0.309077	0.810955	0.611963
	O4342	O	0.288476	0.810946	0.511231
	O4343	O	0.319137	0.811182	0.510998
	O4344	O	0.319129	0.194704	0.511019
	O4345	O	0.288594	0.194884	0.511277
	O4346	O	0.339618	0.194433	0.611716
	O4347	O	0.339726	0.310878	0.611783
	O4348	O	0.308999	0.195060	0.611972
	O4349	O	0.309023	0.311526	0.611956
	O4350	O	0.288645	0.311339	0.511295
	O4351	O	0.319142	0.311105	0.510984
	H4352	H	0.273521	0.644713	0.585756
	H4353	H	0.273528	0.860948	0.585739
	H4354	H	0.273447	0.144959	0.585863
	H4355	H	0.273660	0.361748	0.585700
	H4356	H	0.268885	0.862230	0.540771
	H4357	H	0.268624	0.643283	0.540716
	H4358	H	0.268713	0.362655	0.540744
	H4359	H	0.268687	0.143205	0.540724
	H4360	H	0.393273	0.064477	0.555352
	H4361	H	0.385616	0.064028	0.554683
	H4362	H	0.385628	0.941261	0.554643
	H4363	H	0.393287	0.940455	0.555406
	H4364	H	0.397718	0.064645	0.561289
	H4365	H	0.397714	0.941159	0.561306
	H4366	H	0.234862	0.064477	0.560773
	H4367	H	0.234798	0.941418	0.560762
	H4368	H	0.233725	0.064612	0.563573
	H4369	H	0.233749	0.941235	0.563538
	H4370	H	0.238744	0.064561	0.566542
	H4371	H	0.238640	0.941310	0.566508
	H4372	H	0.236006	0.441092	0.566725
	H4373	H	0.242107	0.441372	0.567152
	H4374	H	0.232165	0.441050	0.562095
	H4375	H	0.385696	0.441161	0.559728
	H4376	H	0.387727	0.441629	0.558196
	H4377	H	0.390197	0.441193	0.558398
	H4378	H	0.242120	0.564736	0.567136
	H4379	H	0.236047	0.564818	0.566721
	H4380	H	0.390190	0.564668	0.558432
	H4381	H	0.387742	0.564593	0.558193
	H4382	H	0.385699	0.564883	0.559747
	H4383	H	0.232299	0.564861	0.562109
	H4384	H	0.359654	0.643395	0.582322
	H4385	H	0.359509	0.862380	0.582283
	H4386	H	0.359577	0.143677	0.582273
	H4387	H	0.359542	0.362510	0.582274
	H4388	H	0.279216	0.643120	0.525223
	H4389	H	0.336110	0.644669	0.523244
	H4390	H	0.335843	0.860953	0.523337
	H4391	H	0.279427	0.862070	0.525274
	H4392	H	0.354713	0.644571	0.537165
	H4393	H	0.354427	0.861076	0.537251
	H4394	H	0.349116	0.643649	0.597833
	H4395	H	0.348881	0.862415	0.597763
	H4396	H	0.295488	0.441186	0.499014
	H4397	H	0.319765	0.441521	0.622493
	H4398	H	0.301613	0.441383	0.496578
	H4399	H	0.306656	0.441706	0.498125
	H4400	H	0.329918	0.440882	0.625746
	H4401	H	0.324548	0.441290	0.626065
	H4402	H	0.319780	0.564943	0.622470
	H4403	H	0.295470	0.564544	0.499039
	H4404	H	0.324545	0.564543	0.626024
	H4405	H	0.329892	0.564278	0.625726
	H4406	H	0.306669	0.564555	0.498121
	H4407	H	0.301613	0.564924	0.496564
	H4408	H	0.348958	0.143536	0.597766
	H4409	H	0.348898	0.362097	0.597768
	H4410	H	0.296625	0.064743	0.494051
	H4411	H	0.290528	0.064861	0.498338
	H4412	H	0.309964	0.064522	0.495844
	H4413	H	0.292175	0.861148	0.599622
	H4414	H	0.292165	0.644634	0.599619
	H4415	H	0.292295	0.361919	0.599585
	H4416	H	0.292081	0.144871	0.599723
	H4417	H	0.279402	0.143310	0.525256
	H4418	H	0.335887	0.144787	0.523387
	H4419	H	0.336224	0.361523	0.523230
	H4420	H	0.279375	0.362685	0.525255
	H4421	H	0.354445	0.144761	0.537301
	H4422	H	0.354852	0.361598	0.537124
	H4423	H	0.333058	0.064458	0.628800
	H4424	H	0.338405	0.064786	0.623719
	H4425	H	0.331495	0.064809	0.615968
	H4426	H	0.290550	0.941329	0.498322
	H4427	H	0.296612	0.941499	0.494100
	H4428	H	0.309945	0.941283	0.495889
	H4429	H	0.333100	0.941288	0.628762
	H4430	H	0.338417	0.940883	0.623732
	H4431	H	0.331475	0.940947	0.615971
	Zn4432	Zn	0.239509	0.680312	0.563016
	Zn4433	Zn	0.239478	0.825437	0.563053
	Zn4434	Zn	0.239528	0.180250	0.563075
	Zn4435	Zn	0.239420	0.325324	0.563064
	Zn4436	Zn	0.326185	0.680327	0.622441
	Zn4437	Zn	0.326156	0.825362	0.622430
	Zn4438	Zn	0.326132	0.180209	0.622430
	Zn4439	Zn	0.326219	0.325255	0.622439
	C4440	C	0.367025	0.752832	0.546343
	C4441	C	0.261066	0.752780	0.576655
	C4442	C	0.272386	0.752860	0.584951
	C4443	C	0.277625	0.691672	0.588872
	C4444	C	0.277644	0.814104	0.588868
	C4445	C	0.261106	0.253249	0.576653
	C4446	C	0.272444	0.253387	0.584943
	C4447	C	0.277642	0.192093	0.588916
	C4448	C	0.277759	0.314753	0.588827
	C4449	C	0.260252	0.752962	0.550593
	C4450	C	0.268070	0.752740	0.541697
	C4451	C	0.271244	0.814595	0.537341
	C4452	C	0.271108	0.690818	0.537310
	C4453	C	0.260196	0.252980	0.550570
	C4454	C	0.268039	0.253016	0.541670
	C4455	C	0.271158	0.314968	0.537314
	C4456	C	0.271153	0.190918	0.537307
	C4457	C	0.389293	0.043157	0.556315
	C4458	C	0.389328	0.962315	0.556320
	C4459	C	0.235637	0.043312	0.562411
	C4460	C	0.235622	0.962629	0.562389
	C4461	C	0.240573	0.043344	0.565372
	C4462	C	0.240561	0.962674	0.565354
	C4463	C	0.239100	0.462587	0.565913
	C4464	C	0.386952	0.462399	0.560290
	C4465	C	0.388980	0.462717	0.558722
	C4466	C	0.239126	0.543445	0.565901
	C4467	C	0.388964	0.543262	0.558736
	C4468	C	0.386944	0.543323	0.560313
	C4469	C	0.367944	0.752917	0.572383
	C4470	C	0.367949	0.252947	0.572401
	C4471	C	0.360238	0.752939	0.581323
	C4472	C	0.357213	0.691042	0.585726
	C4473	C	0.357138	0.814847	0.585707
	C4474	C	0.360183	0.253121	0.581319
	C4475	C	0.357106	0.191201	0.585691
	C4476	C	0.357084	0.314908	0.585686
	C4477	C	0.367056	0.253052	0.546357
	C4478	C	0.323627	0.752994	0.514118
	C4479	C	0.285970	0.752713	0.514848
	C4480	C	0.304590	0.752973	0.608804
	C4481	C	0.350513	0.691566	0.534073
	C4482	C	0.350360	0.814054	0.534124
	C4483	C	0.334973	0.752848	0.522400
	C4484	C	0.279711	0.752634	0.524216
	C4485	C	0.276930	0.690725	0.528680
	C4486	C	0.340240	0.691639	0.526334
	C4487	C	0.340086	0.813993	0.526390
	C4488	C	0.277053	0.814496	0.528706
	C4489	C	0.355688	0.752811	0.538034
	C4490	C	0.342218	0.753089	0.608144
	C4491	C	0.351390	0.691100	0.594351
	C4492	C	0.351328	0.814901	0.594334
	C4493	C	0.348559	0.753027	0.598781
	C4494	C	0.322166	0.462617	0.621378
	C4495	C	0.303469	0.462710	0.498171
	C4496	C	0.326984	0.462334	0.624983
	C4497	C	0.322164	0.543539	0.621378
	C4498	C	0.326956	0.543176	0.624980
	C4499	C	0.303488	0.543404	0.498178
	C4500	C	0.342234	0.252688	0.608145
	C4501	C	0.351286	0.191042	0.594319
	C4502	C	0.351281	0.314699	0.594320
	C4503	C	0.348541	0.252851	0.598787
	C4504	C	0.295716	0.043426	0.497334
	C4505	C	0.323620	0.252951	0.514156
	C4506	C	0.286122	0.253126	0.514911
	C4507	C	0.304533	0.253295	0.608824
	C4508	C	0.350378	0.191899	0.534174
	C4509	C	0.350586	0.314533	0.534089
	C4510	C	0.334916	0.253106	0.522470
	C4511	C	0.279836	0.253090	0.524251
	C4512	C	0.293176	0.752965	0.600548
	C4513	C	0.287982	0.814147	0.596572
	C4514	C	0.287958	0.691753	0.596580
	C4515	C	0.293178	0.253412	0.600539
	C4516	C	0.288063	0.314829	0.596543
	C4517	C	0.287946	0.191957	0.596635
	C4518	C	0.277034	0.190957	0.528698
	C4519	C	0.340067	0.191876	0.526458
	C4520	C	0.340272	0.314464	0.526369
	C4521	C	0.277030	0.315025	0.528709
	C4522	C	0.355681	0.253181	0.538087
	C4523	C	0.333270	0.043246	0.625241
	C4524	C	0.309103	0.043484	0.499162
	C4525	C	0.295746	0.962626	0.497338
	C4526	C	0.333253	0.962481	0.625238
	C4527	C	0.309070	0.962786	0.499182
	N4528	N	0.239446	0.070218	0.563102
	N4529	N	0.239403	0.935644	0.563078
	N4530	N	0.239349	0.435586	0.563026
	N4531	N	0.239370	0.570180	0.563029
	N4532	N	0.326226	0.435560	0.622405
	N4533	N	0.326196	0.570162	0.622398
	N4534	N	0.326178	0.070150	0.622411
	N4535	N	0.326177	0.935544	0.622412
	O4536	O	0.328351	0.694144	0.681967
	O4537	O	0.328363	0.810994	0.681954
	O4538	O	0.275978	0.694762	0.697380
	O4539	O	0.276108	0.811714	0.697369
	O4540	O	0.276142	0.194284	0.697379
	O4541	O	0.276197	0.311313	0.697308
	O4542	O	0.277235	0.694556	0.674263
	O4543	O	0.277134	0.810997	0.674233
	O4544	O	0.277060	0.194387	0.674221
	O4545	O	0.277012	0.310764	0.674222
	O4546	O	0.327687	0.695141	0.705170
	O4547	O	0.327758	0.811539	0.705211
	O4548	O	0.327756	0.195105	0.705151
	O4549	O	0.327562	0.311450	0.705124
	O4550	O	0.328306	0.194463	0.681911
	O4551	O	0.328378	0.311285	0.681913
	O4552	O	0.338577	0.694463	0.634856
	O4553	O	0.308871	0.694209	0.631616
	O4554	O	0.295581	0.695023	0.747641
	O4555	O	0.295548	0.811809	0.747605
	O4556	O	0.265746	0.694902	0.744455
	O4557	O	0.265802	0.811795	0.744432
	O4558	O	0.308891	0.810906	0.631590
	O4559	O	0.338599	0.811315	0.634903
	O4560	O	0.338677	0.194096	0.634872
	O4561	O	0.308909	0.194647	0.631623
	O4562	O	0.295524	0.194617	0.747641
	O4563	O	0.295611	0.311213	0.747634
	O4564	O	0.265689	0.194829	0.744440
	O4565	O	0.265926	0.311544	0.744392
	O4566	O	0.309010	0.311395	0.631663
	O4567	O	0.338735	0.310908	0.634860
	H4568	H	0.273583	0.643338	0.712578
	H4569	H	0.273557	0.863008	0.712587
	H4570	H	0.273451	0.143260	0.712587
	H4571	H	0.273603	0.363169	0.712553
	H4572	H	0.286415	0.862072	0.660236
	H4573	H	0.286520	0.643263	0.660283
	H4574	H	0.286534	0.362500	0.660297
	H4575	H	0.286350	0.143114	0.660241
	H4576	H	0.337121	0.064895	0.694713
	H4577	H	0.339004	0.064594	0.696297
	H4578	H	0.339023	0.941393	0.696299
	H4579	H	0.337098	0.940778	0.694732
	H4580	H	0.338801	0.065060	0.692351
	H4581	H	0.338894	0.941508	0.692401
	H4582	H	0.262059	0.064502	0.684559
	H4583	H	0.262102	0.941139	0.684587
	H4584	H	0.262303	0.064442	0.685435
	H4585	H	0.262299	0.941082	0.685414
	H4586	H	0.264024	0.064881	0.685858
	H4587	H	0.263992	0.940984	0.685800
	H4588	H	0.262241	0.441399	0.687560
	H4589	H	0.266251	0.440876	0.687362
	H4590	H	0.258766	0.441353	0.684864
	H4591	H	0.331571	0.441694	0.691231
	H4592	H	0.342025	0.441044	0.688311
	H4593	H	0.349420	0.441516	0.691335
	H4594	H	0.266303	0.564664	0.687395
	H4595	H	0.262288	0.564494	0.687562
	H4596	H	0.349477	0.564407	0.691378
	H4597	H	0.342090	0.564779	0.688283
	H4598	H	0.331561	0.565144	0.691260
	H4599	H	0.258814	0.564098	0.684915
	H4600	H	0.318234	0.643826	0.719106
	H4601	H	0.318349	0.862906	0.719120
	H4602	H	0.318415	0.143854	0.719074
	H4603	H	0.318281	0.362377	0.719066
	H4604	H	0.297111	0.643361	0.644785
	H4605	H	0.336254	0.643125	0.650068
	H4606	H	0.336041	0.862916	0.650122
	H4607	H	0.296982	0.861872	0.644749
	H4608	H	0.330920	0.642809	0.666722
	H4609	H	0.330748	0.862672	0.666724
	H4610	H	0.307521	0.643871	0.734553
	H4611	H	0.307574	0.863022	0.734574
	H4612	H	0.321605	0.441440	0.619509
	H4613	H	0.282332	0.440960	0.757005
	H4614	H	0.328901	0.441223	0.619025
	H4615	H	0.332352	0.440799	0.621635
	H4616	H	0.276344	0.441496	0.754578
	H4617	H	0.279747	0.441174	0.754631
	H4618	H	0.282314	0.564172	0.757063
	H4619	H	0.321617	0.565009	0.619537
	H4620	H	0.279780	0.564659	0.754662
	H4621	H	0.276376	0.565235	0.754623
	H4622	H	0.332348	0.564179	0.621626
	H4623	H	0.328807	0.564519	0.619023
	H4624	H	0.307612	0.143579	0.734513
	H4625	H	0.307412	0.362192	0.734519
	H4626	H	0.313808	0.064587	0.622357
	H4627	H	0.318821	0.064322	0.628058
	H4628	H	0.321082	0.064624	0.615451
	H4629	H	0.268299	0.862935	0.729227
	H4630	H	0.268372	0.643102	0.729222
	H4631	H	0.268357	0.363156	0.729191
	H4632	H	0.268191	0.143390	0.729238
	H4633	H	0.297002	0.143262	0.644748
	H4634	H	0.336134	0.142886	0.650075
	H4635	H	0.336233	0.362390	0.650092
	H4636	H	0.297191	0.362583	0.644817
	H4637	H	0.330868	0.142919	0.666707
	H4638	H	0.330962	0.362504	0.666725
	H4639	H	0.275950	0.065127	0.759637
	H4640	H	0.280427	0.064512	0.759802
	H4641	H	0.283430	0.064501	0.756824
	H4642	H	0.318828	0.941294	0.628037
	H4643	H	0.313769	0.941275	0.622392
	H4644	H	0.321098	0.941083	0.615449
	H4645	H	0.275974	0.941255	0.759637
	H4646	H	0.280470	0.941039	0.759835
	H4647	H	0.283529	0.941793	0.756849
	Zn4648	Zn	0.263631	0.680087	0.684917
	Zn4649	Zn	0.263495	0.825452	0.684888
	Zn4650	Zn	0.263588	0.180174	0.684919
	Zn4651	Zn	0.263538	0.325418	0.684893
	Zn4652	Zn	0.278310	0.680399	0.756836
	Zn4653	Zn	0.278362	0.825635	0.756857
	Zn4654	Zn	0.278207	0.180555	0.756843
	Zn4655	Zn	0.278375	0.325573	0.756851
	C4656	C	0.328550	0.752537	0.677955
	C4657	C	0.275865	0.753298	0.701379
	C4658	C	0.274040	0.753201	0.711597
	C4659	C	0.272434	0.691026	0.716289
	C4660	C	0.272437	0.815301	0.716309
	C4661	C	0.275949	0.252966	0.701339
	C4662	C	0.274075	0.253152	0.711540
	C4663	C	0.272432	0.191065	0.716284
	C4664	C	0.272516	0.315348	0.716253
	C4665	C	0.279741	0.752749	0.670643
	C4666	C	0.286062	0.752662	0.661305
	C4667	C	0.288779	0.814463	0.656820
	C4668	C	0.288851	0.690811	0.656852
	C4669	C	0.279572	0.252644	0.670604
	C4670	C	0.285961	0.252807	0.661279
	C4671	C	0.288858	0.314746	0.656847
	C4672	C	0.288744	0.190902	0.656818
	C4673	C	0.338732	0.043441	0.695213
	C4674	C	0.338764	0.962550	0.695209
	C4675	C	0.262612	0.043303	0.684968
	C4676	C	0.262602	0.962502	0.684972
	C4677	C	0.264322	0.043185	0.685421
	C4678	C	0.264320	0.962420	0.685424
	C4679	C	0.264125	0.462338	0.686794
	C4680	C	0.333919	0.462738	0.693969
	C4681	C	0.344394	0.462598	0.691034
	C4682	C	0.264149	0.543309	0.686799
	C4683	C	0.344419	0.543475	0.691036
	C4684	C	0.333888	0.543451	0.693978
	C4685	C	0.325146	0.753299	0.708798
	C4686	C	0.325155	0.253206	0.708756
	C4687	C	0.318811	0.753291	0.718133
	C4688	C	0.315940	0.691386	0.722555
	C4689	C	0.315962	0.815292	0.722564
	C4690	C	0.318830	0.253094	0.718095
	C4691	C	0.316034	0.191257	0.722525
	C4692	C	0.315938	0.314857	0.722524
	C4693	C	0.328547	0.252881	0.677905
	C4694	C	0.338405	0.752844	0.638894
	C4695	C	0.305463	0.752580	0.634895
	C4696	C	0.265979	0.753298	0.740443
	C4697	C	0.332049	0.690625	0.663030
	C4698	C	0.331894	0.814803	0.663042
	C4699	C	0.336563	0.752887	0.649108
	C4700	C	0.297704	0.752618	0.643832
	C4701	C	0.294647	0.690841	0.648221
	C4702	C	0.335051	0.690683	0.653799
	C4703	C	0.334900	0.815062	0.653816
	C4704	C	0.294564	0.814436	0.648185
	C4705	C	0.330362	0.752571	0.667748
	C4706	C	0.299044	0.753362	0.744373
	C4707	C	0.310002	0.691419	0.731143
	C4708	C	0.310006	0.815332	0.731148
	C4709	C	0.306886	0.753361	0.735504
	C4710	C	0.280725	0.462551	0.757631
	C4711	C	0.329481	0.462469	0.620892
	C4712	C	0.278101	0.462561	0.755188
	C4713	C	0.280679	0.543248	0.757642
	C4714	C	0.278101	0.543524	0.755207
	C4715	C	0.329461	0.543237	0.620889
	C4716	C	0.298999	0.252862	0.744351
	C4717	C	0.310116	0.191113	0.731116
	C4718	C	0.310012	0.314718	0.731115
	C4719	C	0.306894	0.252844	0.735472
	C4720	C	0.318931	0.043257	0.624463
	C4721	C	0.338506	0.252519	0.638879
	C4722	C	0.305489	0.253019	0.634914
	C4723	C	0.265984	0.253113	0.740396
	C4724	C	0.332010	0.190653	0.663003
	C4725	C	0.332045	0.314795	0.663015
	C4726	C	0.336656	0.252607	0.649084
	C4727	C	0.297729	0.252891	0.643834
	C4728	C	0.267860	0.753071	0.730239
	C4729	C	0.269450	0.815214	0.725541
	C4730	C	0.269457	0.690917	0.725526
	C4731	C	0.267839	0.253256	0.730183
	C4732	C	0.269470	0.315414	0.725478
	C4733	C	0.269373	0.191017	0.725507
	C4734	C	0.294614	0.190898	0.648199
	C4735	C	0.335042	0.190569	0.653783
	C4736	C	0.335073	0.314758	0.653791
	C4737	C	0.294722	0.314817	0.648231
	C4738	C	0.330406	0.252721	0.667714
	C4739	C	0.278133	0.043704	0.758957
	C4740	C	0.326308	0.043348	0.617463
	C4741	C	0.318938	0.962538	0.624468
	C4742	C	0.278162	0.962475	0.758980
	C4743	C	0.326302	0.962413	0.617466
	N4744	N	0.263688	0.070142	0.684918
	N4745	N	0.263678	0.935625	0.684916
	N4746	N	0.263619	0.435393	0.684876
	N4747	N	0.263678	0.569895	0.684887
	N4748	N	0.278271	0.435728	0.756809
	N4749	N	0.278226	0.570255	0.756845
	N4750	N	0.278166	0.070299	0.756847
	N4751	N	0.278231	0.935717	0.756844
	O4752	O	0.352029	0.694805	0.803774
	O4753	O	0.352092	0.810720	0.803635
	O4754	O	0.233237	0.694979	0.829458
	O4755	O	0.233434	0.811048	0.829399
	O4756	O	0.233286	0.194941	0.829493
	O4757	O	0.233349	0.311122	0.829506
	O4758	O	0.232856	0.694499	0.810010
	O4759	O	0.233051	0.811246	0.810121
	O4760	O	0.232920	0.194910	0.810105
	O4761	O	0.232907	0.311619	0.810132
	O4762	O	0.357004	0.695076	0.824169
	O4763	O	0.357083	0.811018	0.824244
	O4764	O	0.357140	0.195360	0.824232
	O4765	O	0.356950	0.311380	0.824165
	O4766	O	0.352167	0.194685	0.803684
	O4767	O	0.352041	0.310496	0.803653
	O4768	O	0.296009	0.694558	0.767020
	O4769	O	0.264971	0.694157	0.767561
	O4770	O	0.320722	0.695249	0.864983
	O4771	O	0.320830	0.811217	0.865022
	O4772	O	0.289454	0.694613	0.866102
	O4773	O	0.289384	0.810715	0.866172
	O4774	O	0.265096	0.810510	0.767574
	O4775	O	0.295916	0.810804	0.767098
	O4776	O	0.295822	0.194425	0.767106
	O4777	O	0.265151	0.194975	0.767696
	O4778	O	0.320805	0.195241	0.865019
	O4779	O	0.320753	0.311286	0.865010
	O4780	O	0.289454	0.194903	0.866101
	O4781	O	0.289433	0.310980	0.866117
	O4782	O	0.265082	0.311310	0.767633
	O4783	O	0.296006	0.310482	0.767002
	H4784	H	0.251135	0.644635	0.841229
	H4785	H	0.251482	0.860990	0.841143
	H4786	H	0.251424	0.145099	0.841202
	H4787	H	0.251376	0.360842	0.841216
	H4788	H	0.244813	0.862488	0.796938
	H4789	H	0.244975	0.643468	0.797036
	H4790	H	0.244866	0.362874	0.797019
	H4791	H	0.244920	0.144108	0.797037
	H4792	H	0.370820	0.064152	0.814679
	H4793	H	0.372203	0.064688	0.814027
	H4794	H	0.372053	0.941085	0.813944
	H4795	H	0.370783	0.941587	0.814614
	H4796	H	0.368349	0.064509	0.814069
	H4797	H	0.368437	0.941290	0.814033
	H4798	H	0.211139	0.064750	0.819263
	H4799	H	0.211171	0.941222	0.819210
	H4800	H	0.212933	0.064512	0.821316
	H4801	H	0.212783	0.941074	0.821254
	H4802	H	0.218126	0.064738	0.821685
	H4803	H	0.218068	0.940897	0.821681
	H4804	H	0.217584	0.440884	0.821810
	H4805	H	0.219978	0.441365	0.820238
	H4806	H	0.212564	0.441156	0.821017
	H4807	H	0.370249	0.441049	0.816236
	H4808	H	0.365581	0.441270	0.814177
	H4809	H	0.365860	0.441074	0.811792
	H4810	H	0.219942	0.563979	0.820147
	H4811	H	0.217585	0.564969	0.821811
	H4812	H	0.365967	0.564647	0.811840
	H4813	H	0.365688	0.564281	0.814249
	H4814	H	0.370402	0.564153	0.816284
	H4815	H	0.212549	0.565313	0.820983
	H4816	H	0.345458	0.645152	0.837262
	H4817	H	0.345296	0.860810	0.837171
	H4818	H	0.345108	0.145451	0.837126
	H4819	H	0.345370	0.361075	0.837266
	H4820	H	0.255736	0.643024	0.781574
	H4821	H	0.314086	0.644025	0.778720
	H4822	H	0.313942	0.860572	0.778807
	H4823	H	0.255585	0.862194	0.781472
	H4824	H	0.334072	0.644214	0.791975
	H4825	H	0.333905	0.860474	0.792027
	H4826	H	0.332671	0.645363	0.852074
	H4827	H	0.332551	0.861119	0.852007
	H4828	H	0.280873	0.441304	0.758818
	H4829	H	0.305554	0.441596	0.872696
	H4830	H	0.276156	0.441490	0.758781
	H4831	H	0.274320	0.441392	0.757034
	H4832	H	0.304161	0.440801	0.878267
	H4833	H	0.302107	0.441525	0.875703
	H4834	H	0.305551	0.564392	0.872706
	H4835	H	0.280824	0.564576	0.758844
	H4836	H	0.302040	0.564326	0.875701
	H4837	H	0.304149	0.565056	0.878268
	H4838	H	0.274342	0.565043	0.757052
	H4839	H	0.276224	0.565051	0.758789
	H4840	H	0.332270	0.145318	0.851923
	H4841	H	0.332580	0.361095	0.852082
	H4842	H	0.275145	0.064768	0.754181
	H4843	H	0.272947	0.064995	0.756321
	H4844	H	0.281284	0.065037	0.754409
	H4845	H	0.271366	0.861033	0.854385
	H4846	H	0.271138	0.644716	0.854497
	H4847	H	0.271372	0.360818	0.854423
	H4848	H	0.271494	0.145122	0.854365
	H4849	H	0.255731	0.144030	0.781612
	H4850	H	0.313921	0.144451	0.778823
	H4851	H	0.313964	0.359995	0.778758
	H4852	H	0.255651	0.362751	0.781589
	H4853	H	0.333954	0.144315	0.792031
	H4854	H	0.333968	0.360006	0.791967
	H4855	H	0.305928	0.065450	0.877811
	H4856	H	0.309133	0.064645	0.877927
	H4857	H	0.311301	0.064656	0.875826
	H4858	H	0.273040	0.941477	0.756341
	H4859	H	0.275201	0.941399	0.754137
	H4860	H	0.281278	0.941592	0.754404
	H4861	H	0.305819	0.941286	0.877800
	H4862	H	0.309043	0.941269	0.878001
	H4863	H	0.311428	0.941657	0.875869
	Zn4864	Zn	0.215637	0.680137	0.819261
	Zn4865	Zn	0.215682	0.825473	0.819278
	Zn4866	Zn	0.215685	0.180118	0.819334
	Zn4867	Zn	0.215653	0.325372	0.819339
	Zn4868	Zn	0.307570	0.680284	0.875826
	Zn4869	Zn	0.307591	0.825812	0.875846
	Zn4870	Zn	0.307560	0.180250	0.875788
	Zn4871	Zn	0.307592	0.325789	0.875832
	C4872	C	0.347304	0.752605	0.800695
	C4873	C	0.238093	0.752952	0.832425
	C4874	C	0.250194	0.752763	0.840335
	C4875	C	0.255710	0.691559	0.844141
	C4876	C	0.255868	0.813971	0.844086
	C4877	C	0.238099	0.252953	0.832502
	C4878	C	0.250275	0.252932	0.840368
	C4879	C	0.255907	0.191910	0.844117
	C4880	C	0.255881	0.313954	0.844130
	C4881	C	0.236483	0.752925	0.806831
	C4882	C	0.244330	0.752934	0.797939
	C4883	C	0.247353	0.814743	0.793540
	C4884	C	0.247446	0.690972	0.793588
	C4885	C	0.236403	0.253321	0.806859
	C4886	C	0.244281	0.253483	0.797989
	C4887	C	0.247386	0.315246	0.793622
	C4888	C	0.247417	0.191630	0.793632
	C4889	C	0.371137	0.043187	0.814088
	C4890	C	0.371094	0.962474	0.814044
	C4891	C	0.212936	0.043290	0.820035
	C4892	C	0.212911	0.962346	0.820001
	C4893	C	0.218148	0.043323	0.820358
	C4894	C	0.218115	0.962390	0.820375
	C4895	C	0.217921	0.462567	0.820578
	C4896	C	0.371549	0.462357	0.815143
	C4897	C	0.366898	0.462444	0.813068
	C4898	C	0.217895	0.543290	0.820545
	C4899	C	0.366973	0.543238	0.813116
	C4900	C	0.371655	0.543310	0.815164
	C4901	C	0.353958	0.752966	0.827570
	C4902	C	0.353918	0.253328	0.827560
	C4903	C	0.346074	0.753007	0.836358
	C4904	C	0.342588	0.691895	0.840551
	C4905	C	0.342502	0.814193	0.840508
	C4906	C	0.346027	0.253294	0.836356
	C4907	C	0.342369	0.192170	0.840471
	C4908	C	0.342505	0.314367	0.840545
	C4909	C	0.347349	0.252401	0.800655
	C4910	C	0.300721	0.752594	0.770062
	C4911	C	0.262522	0.752353	0.771188
	C4912	C	0.284654	0.752714	0.863121
	C4913	C	0.329549	0.691066	0.789051
	C4914	C	0.329457	0.813531	0.789085
	C4915	C	0.312782	0.752362	0.777987
	C4916	C	0.256203	0.752518	0.780537
	C4917	C	0.253358	0.690717	0.784991
	C4918	C	0.318475	0.691051	0.781697
	C4919	C	0.318388	0.813574	0.781740
	C4920	C	0.253284	0.814510	0.784944
	C4921	C	0.335124	0.752299	0.792813
	C4922	C	0.323939	0.753260	0.861665
	C4923	C	0.335473	0.692022	0.848741
	C4924	C	0.335388	0.814250	0.848706
	C4925	C	0.331857	0.753192	0.852879
	C4926	C	0.307776	0.462669	0.873668
	C4927	C	0.276025	0.462659	0.757614
	C4928	C	0.304304	0.462639	0.876683
	C4929	C	0.307777	0.543525	0.873650
	C4930	C	0.304288	0.543669	0.876683
	C4931	C	0.276018	0.543590	0.757627
	C4932	C	0.323867	0.253277	0.861650
	C4933	C	0.335257	0.192133	0.848669
	C4934	C	0.335410	0.314351	0.848747
	C4935	C	0.331772	0.253194	0.852866
	C4936	C	0.275103	0.043384	0.755671
	C4937	C	0.300675	0.252421	0.770065
	C4938	C	0.262593	0.253203	0.771283
	C4939	C	0.284724	0.252926	0.863090
	C4940	C	0.329493	0.191049	0.789085
	C4941	C	0.329501	0.313060	0.789055
	C4942	C	0.312794	0.252224	0.777971
	C4943	C	0.256231	0.253338	0.780616
	C4944	C	0.272486	0.752832	0.855222
	C4945	C	0.266896	0.813987	0.851458
	C4946	C	0.266764	0.691600	0.851509
	C4947	C	0.272616	0.252982	0.855190
	C4948	C	0.266933	0.314028	0.851485
	C4949	C	0.266978	0.191866	0.851460
	C4950	C	0.253358	0.191555	0.785042
	C4951	C	0.318407	0.191198	0.781749
	C4952	C	0.318417	0.313112	0.781715
	C4953	C	0.253314	0.315210	0.785027
	C4954	C	0.335145	0.252078	0.792800
	C4955	C	0.307493	0.043756	0.877319
	C4956	C	0.281202	0.043461	0.755946
	C4957	C	0.275143	0.962583	0.755666
	C4958	C	0.307492	0.962643	0.877354
	C4959	C	0.281263	0.962931	0.755949
	N4960	N	0.215542	0.070081	0.819297
	N4961	N	0.215562	0.935538	0.819286
	N4962	N	0.215648	0.435624	0.819310
	N4963	N	0.215629	0.570131	0.819281
	N4964	N	0.307588	0.435825	0.875832
	N4965	N	0.307577	0.570310	0.875828
	N4966	N	0.307540	0.070227	0.875824
	N4967	N	0.307560	0.935754	0.875838
	O4968	O	0.382258	0.694792	0.921958
	O4969	O	0.382216	0.810783	0.921956
	O4970	O	0.263293	0.694631	0.948036
	O4971	O	0.263579	0.810627	0.947890
	O4972	O	0.263541	0.195391	0.947950
	O4973	O	0.263297	0.311382	0.948068
	O4974	O	0.258283	0.694592	0.927457
	O4975	O	0.258458	0.810523	0.927541
	O4976	O	0.258417	0.195092	0.927581
	O4977	O	0.258220	0.311021	0.927485
	O4978	O	0.382837	0.694085	0.941426
	O4979	O	0.382732	0.810764	0.941370
	O4980	O	0.382636	0.194541	0.941272
	O4981	O	0.382667	0.311175	0.941291
	O4982	O	0.382249	0.194879	0.921967
	O4983	O	0.382276	0.311179	0.921959
	O4984	O	0.325715	0.694917	0.885520
	O4985	O	0.294503	0.694926	0.886665
	O4986	O	0.350760	0.694540	0.983877
	O4987	O	0.350762	0.810864	0.983860
	O4988	O	0.319843	0.694579	0.984445
	O4989	O	0.320033	0.810882	0.984383
	O4990	O	0.294450	0.810853	0.886624
	O4991	O	0.325823	0.810849	0.885461
	O4992	O	0.325853	0.194884	0.885426
	O4993	O	0.294565	0.194873	0.886696
	O4994	O	0.350887	0.194863	0.983881
	O4995	O	0.350902	0.311295	0.983855
	O4996	O	0.320009	0.194678	0.984442
	O4997	O	0.319999	0.311021	0.984489
	O4998	O	0.294566	0.310953	0.886714
	O4999	O	0.325792	0.311018	0.885507
	H5000	H	0.281630	0.644042	0.959612
	H5001	H	0.281695	0.861255	0.959578
	H5002	H	0.281822	0.144676	0.959556
	H5003	H	0.281552	0.361819	0.959738
	H5004	H	0.270105	0.860717	0.914498
	H5005	H	0.270022	0.644701	0.914453
	H5006	H	0.269927	0.361075	0.914477
	H5007	H	0.270021	0.144740	0.914536
	H5008	H	0.390891	0.064326	0.934894
	H5009	H	0.398188	0.064179	0.938262
	H5010	H	0.398122	0.940845	0.938223
	H5011	H	0.390816	0.941161	0.934905
	H5012	H	0.391761	0.064315	0.927815
	H5013	H	0.391791	0.941209	0.927753
	H5014	H	0.239414	0.064522	0.936207
	H5015	H	0.239339	0.940888	0.936149
	H5016	H	0.238987	0.064013	0.939492
	H5017	H	0.238957	0.941044	0.939538
	H5018	H	0.245340	0.064371	0.942365
	H5019	H	0.245394	0.941093	0.942369
	H5020	H	0.250253	0.441178	0.937615
	H5021	H	0.247140	0.441093	0.935444
	H5022	H	0.248347	0.441024	0.941032
	H5023	H	0.397497	0.440758	0.930592
	H5024	H	0.401381	0.441502	0.930300
	H5025	H	0.403385	0.440837	0.931600
	H5026	H	0.247251	0.564238	0.935457
	H5027	H	0.250284	0.564467	0.937578
	H5028	H	0.403377	0.564419	0.931548
	H5029	H	0.401339	0.564243	0.930220
	H5030	H	0.397376	0.564447	0.930604
	H5031	H	0.248444	0.564249	0.941032
	H5032	H	0.370783	0.642884	0.954499
	H5033	H	0.370982	0.861914	0.954532
	H5034	H	0.370809	0.143150	0.954438
	H5035	H	0.370577	0.362703	0.954338
	H5036	H	0.282835	0.645005	0.899668
	H5037	H	0.344004	0.645060	0.897075
	H5038	H	0.344057	0.860466	0.897099
	H5039	H	0.282934	0.860575	0.899685
	H5040	H	0.364135	0.644804	0.910232
	H5041	H	0.364136	0.860185	0.910248
	H5042	H	0.360028	0.642940	0.969930
	H5043	H	0.360220	0.862000	0.969968
	H5044	H	0.310162	0.441189	0.873053
	H5045	H	0.340189	0.441141	0.992343
	H5046	H	0.313031	0.441603	0.876577
	H5047	H	0.310509	0.441766	0.878770
	H5048	H	0.332765	0.441354	0.994320
	H5049	H	0.334652	0.440982	0.992185
	H5050	H	0.340159	0.564345	0.992339
	H5051	H	0.310148	0.565126	0.873042
	H5052	H	0.334612	0.564533	0.992165
	H5053	H	0.332749	0.564699	0.994232
	H5054	H	0.310504	0.564955	0.878766
	H5055	H	0.313035	0.564664	0.876560
	H5056	H	0.360161	0.143355	0.969894
	H5057	H	0.359919	0.362541	0.969836
	H5058	H	0.305422	0.064524	0.873863
	H5059	H	0.303809	0.064838	0.875404
	H5060	H	0.309709	0.064565	0.874094
	H5061	H	0.301809	0.861186	0.972743
	H5062	H	0.301730	0.644351	0.972775
	H5063	H	0.301708	0.361759	0.972882
	H5064	H	0.301968	0.144519	0.972709
	H5065	H	0.282895	0.144624	0.899760
	H5066	H	0.344049	0.144193	0.897118
	H5067	H	0.344000	0.361706	0.897129
	H5068	H	0.282811	0.360972	0.899679
	H5069	H	0.364144	0.144068	0.910309
	H5070	H	0.364085	0.361987	0.910283
	H5071	H	0.330864	0.064664	0.991952
	H5072	H	0.330186	0.064141	0.995878
	H5073	H	0.337550	0.064374	0.999328
	H5074	H	0.303707	0.941713	0.875413
	H5075	H	0.305475	0.941548	0.873814
	H5076	H	0.309838	0.941495	0.874100
	H5077	H	0.330860	0.940921	0.991966
	H5078	H	0.330207	0.940879	0.995863
	H5079	H	0.337483	0.941215	0.999297
	Zn5080	Zn	0.245267	0.679997	0.938321
	Zn5081	Zn	0.245254	0.825481	0.938292
	Zn5082	Zn	0.245233	0.179999	0.938362
	Zn5083	Zn	0.245099	0.325653	0.938317
	Zn5084	Zn	0.337552	0.679923	0.994622
	Zn5085	Zn	0.337585	0.825395	0.994666
	Zn5086	Zn	0.337623	0.180155	0.994660
	Zn5087	Zn	0.337606	0.325737	0.994661
	C5088	C	0.377478	0.752705	0.918952
	C5089	C	0.268195	0.752649	0.950967
	C5090	C	0.280392	0.752638	0.958830
	C5091	C	0.286067	0.691283	0.962554
	C5092	C	0.286106	0.814056	0.962534
	C5093	C	0.268235	0.253405	0.950989
	C5094	C	0.280537	0.253306	0.958824
	C5095	C	0.286269	0.191766	0.962522
	C5096	C	0.286107	0.314682	0.962617
	C5097	C	0.261490	0.752617	0.924146
	C5098	C	0.269364	0.752755	0.915359
	C5099	C	0.272958	0.813903	0.911199
	C5100	C	0.272911	0.691546	0.911185
	C5101	C	0.261395	0.253024	0.924183
	C5102	C	0.269298	0.252903	0.915387
	C5103	C	0.272823	0.314140	0.911203
	C5104	C	0.272883	0.191595	0.911246
	C5105	C	0.396012	0.043005	0.935406
	C5106	C	0.395980	0.962301	0.935385
	C5107	C	0.240766	0.043126	0.937979
	C5108	C	0.240741	0.962296	0.937966
	C5109	C	0.247183	0.043340	0.940837
	C5110	C	0.247202	0.962394	0.940829
	C5111	C	0.247765	0.462395	0.936992
	C5112	C	0.397921	0.462301	0.931615
	C5113	C	0.401824	0.462383	0.931234
	C5114	C	0.247812	0.543160	0.936997
	C5115	C	0.401785	0.543106	0.931205
	C5116	C	0.397849	0.543384	0.931629
	C5117	C	0.379359	0.752419	0.944687
	C5118	C	0.379193	0.252861	0.944557
	C5119	C	0.371577	0.752452	0.953585
	C5120	C	0.368330	0.690544	0.957906
	C5121	C	0.368454	0.814390	0.957933
	C5122	C	0.371301	0.252937	0.953416
	C5123	C	0.368266	0.190938	0.957806
	C5124	C	0.368134	0.314962	0.957758
	C5125	C	0.377480	0.253078	0.918974
	C5126	C	0.330576	0.752830	0.888477
	C5127	C	0.291403	0.752938	0.890015
	C5128	C	0.315158	0.752776	0.981425
	C5129	C	0.359662	0.691613	0.907319
	C5130	C	0.359720	0.813552	0.907304
	C5131	C	0.342836	0.752794	0.896303
	C5132	C	0.283577	0.752878	0.898832
	C5133	C	0.279998	0.691713	0.902984
	C5134	C	0.348495	0.691733	0.900019
	C5135	C	0.348563	0.813672	0.900003
	C5136	C	0.280039	0.813888	0.902993
	C5137	C	0.365344	0.752565	0.911051
	C5138	C	0.353349	0.752675	0.980277
	C5139	C	0.362438	0.690592	0.966504
	C5140	C	0.362585	0.814469	0.966537
	C5141	C	0.359718	0.752574	0.970965
	C5142	C	0.340321	0.462141	0.993726
	C5143	C	0.310681	0.462775	0.877193
	C5144	C	0.334759	0.462385	0.993600
	C5145	C	0.340333	0.542809	0.993720
	C5146	C	0.334750	0.543357	0.993576
	C5147	C	0.310679	0.543326	0.877186
	C5148	C	0.353355	0.253034	0.980231
	C5149	C	0.362423	0.190925	0.966421
	C5150	C	0.362288	0.314917	0.966379
	C5151	C	0.359556	0.252955	0.970846
	C5152	C	0.305350	0.043352	0.874946
	C5153	C	0.330613	0.252923	0.888464
	C5154	C	0.291465	0.252898	0.890076
	C5155	C	0.315277	0.252894	0.981447
	C5156	C	0.359662	0.191420	0.907381
	C5157	C	0.359634	0.314602	0.907380
	C5158	C	0.342866	0.252999	0.896316
	C5159	C	0.283559	0.252812	0.898877
	C5160	C	0.302913	0.752756	0.973573
	C5161	C	0.297287	0.814093	0.969833
	C5162	C	0.297227	0.691387	0.969855
	C5163	C	0.303071	0.253146	0.973570
	C5164	C	0.297300	0.314555	0.969916
	C5165	C	0.297458	0.191747	0.969821
	C5166	C	0.279999	0.191461	0.903048
	C5167	C	0.348545	0.191445	0.900045
	C5168	C	0.348513	0.314492	0.900049
	C5169	C	0.279959	0.314180	0.903006
	C5170	C	0.365292	0.253055	0.911118
	C5171	C	0.332452	0.043244	0.994117
	C5172	C	0.309739	0.043391	0.875164
	C5173	C	0.305351	0.962732	0.874932
	C5174	C	0.332439	0.962324	0.994116
	C5175	C	0.309792	0.962651	0.875171
	N5176	N	0.245262	0.070047	0.938415
	N5177	N	0.245251	0.935591	0.938384
	N5178	N	0.245093	0.435691	0.938322
	N5179	N	0.245156	0.570143	0.938314
	N5180	N	0.337631	0.435600	0.994626
	N5181	N	0.337630	0.570055	0.994606
	N5182	N	0.337694	0.069843	0.994659
	N5183	N	0.337658	0.935292	0.994654
	O5184	O	0.489126	0.694501	0.050363
	O5185	O	0.489126	0.810942	0.050325
	O5186	O	0.369817	0.694721	0.076520
	O5187	O	0.369721	0.810964	0.076595
	O5188	O	0.369687	0.194969	0.076683
	O5189	O	0.369659	0.311114	0.076654
	O5190	O	0.369110	0.694515	0.057202
	O5191	O	0.369236	0.811149	0.057255
	O5192	O	0.369194	0.194589	0.057280
	O5193	O	0.369110	0.311417	0.057188
	O5194	O	0.494374	0.694896	0.070870
	O5195	O	0.494350	0.810749	0.070831
	O5196	O	0.494255	0.194758	0.070785
	O5197	O	0.494317	0.310694	0.070827
	O5198	O	0.489211	0.194962	0.050306
	O5199	O	0.489086	0.310785	0.050397
	O5200	O	0.432222	0.694396	0.014112
	O5201	O	0.401290	0.694681	0.014760
	O5202	O	0.457967	0.694824	0.111614
	O5203	O	0.457804	0.810829	0.111551
	O5204	O	0.426503	0.694889	0.112863
	O5205	O	0.426560	0.810825	0.112816
	O5206	O	0.401368	0.811171	0.014785
	O5207	O	0.432153	0.810784	0.014183
	O5208	O	0.432192	0.194626	0.014176
	O5209	O	0.401294	0.193993	0.014790
	O5210	O	0.457994	0.194498	0.111627
	O5211	O	0.458109	0.310732	0.111672
	O5212	O	0.426739	0.194926	0.112845
	O5213	O	0.426732	0.311115	0.112817
	O5214	O	0.401300	0.310607	0.014762
	O5215	O	0.432184	0.310885	0.014175
	H5216	H	0.388044	0.644374	0.088141
	H5217	H	0.388063	0.861266	0.088168
	H5218	H	0.388089	0.145101	0.088192
	H5219	H	0.388081	0.361461	0.088234
	H5220	H	0.381027	0.862301	0.044107
	H5221	H	0.381389	0.643282	0.044201
	H5222	H	0.381405	0.362127	0.044207
	H5223	H	0.381133	0.143132	0.044148
	H5224	H	0.506976	0.064438	0.059522
	H5225	H	0.506613	0.064343	0.059851
	H5226	H	0.506580	0.941213	0.059849
	H5227	H	0.507006	0.941338	0.059491
	H5228	H	0.507961	0.064284	0.059586
	H5229	H	0.507918	0.940699	0.059579
	H5230	H	0.348656	0.064820	0.070014
	H5231	H	0.348653	0.941272	0.070045
	H5232	H	0.354563	0.064602	0.070477
	H5233	H	0.354511	0.941227	0.070439
	H5234	H	0.358925	0.064210	0.066720
	H5235	H	0.358896	0.941215	0.066730
	H5236	H	0.350291	0.441056	0.063143
	H5237	H	0.346630	0.440926	0.064872
	H5238	H	0.356563	0.440982	0.064690
	H5239	H	0.508205	0.440735	0.060617
	H5240	H	0.506633	0.440895	0.060593
	H5241	H	0.506050	0.441340	0.059973
	H5242	H	0.346764	0.564542	0.064925
	H5243	H	0.350180	0.564323	0.063182
	H5244	H	0.506099	0.564674	0.060016
	H5245	H	0.506738	0.564638	0.060586
	H5246	H	0.508190	0.564522	0.060620
	H5247	H	0.356445	0.564218	0.064648
	H5248	H	0.482918	0.645057	0.083963
	H5249	H	0.482540	0.860493	0.083797
	H5250	H	0.482429	0.144759	0.083766
	H5251	H	0.482800	0.360548	0.083923
	H5252	H	0.392220	0.643225	0.028788
	H5253	H	0.450574	0.643483	0.025726
	H5254	H	0.450597	0.861444	0.025652
	H5255	H	0.391948	0.862313	0.028723
	H5256	H	0.470779	0.643826	0.038825
	H5257	H	0.470855	0.861539	0.038734
	H5258	H	0.469831	0.644941	0.098679
	H5259	H	0.469487	0.860626	0.098512
	H5260	H	0.420074	0.441100	0.006425
	H5261	H	0.449451	0.441035	0.122383
	H5262	H	0.412907	0.440889	0.007833
	H5263	H	0.408488	0.441004	0.005603
	H5264	H	0.442116	0.441385	0.120168
	H5265	H	0.445911	0.441303	0.119877
	H5266	H	0.449453	0.564793	0.122361
	H5267	H	0.420163	0.564740	0.006385
	H5268	H	0.445926	0.564871	0.119806
	H5269	H	0.442061	0.564565	0.120128
	H5270	H	0.408482	0.564687	0.005665
	H5271	H	0.413010	0.564693	0.007826
	H5272	H	0.469537	0.144870	0.098560
	H5273	H	0.469935	0.360393	0.098721
	H5274	H	0.412860	0.064741	0.001704
	H5275	H	0.410560	0.065024	0.003099
	H5276	H	0.417507	0.064862	0.002504
	H5277	H	0.408200	0.861120	0.101277
	H5278	H	0.408256	0.644365	0.101209
	H5279	H	0.408379	0.361294	0.101279
	H5280	H	0.408396	0.145036	0.101260
	H5281	H	0.391968	0.143001	0.028721
	H5282	H	0.450369	0.144460	0.025780
	H5283	H	0.450523	0.361069	0.025752
	H5284	H	0.392255	0.362066	0.028779
	H5285	H	0.470737	0.144825	0.038847
	H5286	H	0.470832	0.361217	0.038810
	H5287	H	0.446726	0.064694	0.124697
	H5288	H	0.448863	0.064670	0.123171
	H5289	H	0.447001	0.064781	0.120500
	H5290	H	0.410489	0.941423	0.003038
	H5291	H	0.412882	0.941655	0.001673
	H5292	H	0.417609	0.941749	0.002520
	H5293	H	0.446693	0.941396	0.124653
	H5294	H	0.448750	0.941123	0.123167
	H5295	H	0.446998	0.941442	0.120517
	Zn5296	Zn	0.351908	0.680156	0.066501
	Zn5297	Zn	0.351992	0.825546	0.066473
	Zn5298	Zn	0.352020	0.180103	0.066533
	Zn5299	Zn	0.351978	0.325432	0.066480
	Zn5300	Zn	0.444851	0.680201	0.122448
	Zn5301	Zn	0.444841	0.825732	0.122434
	Zn5302	Zn	0.444909	0.180273	0.122515
	Zn5303	Zn	0.444911	0.325714	0.122494
	C5304	C	0.484327	0.752701	0.047377
	C5305	C	0.374549	0.752824	0.079541
	C5306	C	0.386815	0.752819	0.087357
	C5307	C	0.392545	0.691458	0.091050
	C5308	C	0.392533	0.814111	0.091076
	C5309	C	0.374506	0.253156	0.079641
	C5310	C	0.386820	0.253296	0.087442
	C5311	C	0.392560	0.192093	0.091132
	C5312	C	0.392560	0.314469	0.091152
	C5313	C	0.372661	0.752830	0.053970
	C5314	C	0.380592	0.752812	0.045119
	C5315	C	0.383667	0.814669	0.040744
	C5316	C	0.383848	0.690902	0.040791
	C5317	C	0.372610	0.252915	0.053963
	C5318	C	0.380537	0.252672	0.045099
	C5319	C	0.383806	0.314581	0.040775
	C5320	C	0.383629	0.190642	0.040741
	C5321	C	0.506959	0.043195	0.059741
	C5322	C	0.506967	0.962521	0.059742
	C5323	C	0.351664	0.043358	0.069260
	C5324	C	0.351648	0.962466	0.069260
	C5325	C	0.356108	0.043069	0.065433
	C5326	C	0.356090	0.962441	0.065455
	C5327	C	0.349334	0.462181	0.064676
	C5328	C	0.508178	0.462320	0.060242
	C5329	C	0.506629	0.462571	0.060203
	C5330	C	0.349329	0.543201	0.064695
	C5331	C	0.506628	0.543444	0.060206
	C5332	C	0.508126	0.543020	0.060226
	C5333	C	0.491237	0.752826	0.074202
	C5334	C	0.491228	0.252710	0.074183
	C5335	C	0.483312	0.752753	0.082969
	C5336	C	0.479855	0.691689	0.087180
	C5337	C	0.479647	0.813809	0.087083
	C5338	C	0.483308	0.252642	0.082989
	C5339	C	0.479604	0.191553	0.087092
	C5340	C	0.479797	0.313721	0.087170
	C5341	C	0.484377	0.252889	0.047346
	C5342	C	0.436989	0.752535	0.017128
	C5343	C	0.398781	0.752912	0.018380
	C5344	C	0.421703	0.752821	0.109859
	C5345	C	0.466293	0.691023	0.035891
	C5346	C	0.466311	0.814238	0.035847
	C5347	C	0.449308	0.752418	0.024935
	C5348	C	0.392475	0.752802	0.027716
	C5349	C	0.389769	0.690909	0.032198
	C5350	C	0.455030	0.690882	0.028644
	C5351	C	0.455054	0.814124	0.028592
	C5352	C	0.389570	0.814631	0.032145
	C5353	C	0.471966	0.752690	0.039591
	C5354	C	0.460980	0.752804	0.108216
	C5355	C	0.472683	0.691726	0.095360
	C5356	C	0.472493	0.813791	0.095263
	C5357	C	0.468917	0.752796	0.099430
	C5358	C	0.447768	0.462404	0.123191
	C5359	C	0.411643	0.462495	0.005997
	C5360	C	0.444240	0.462713	0.120655
	C5361	C	0.447768	0.543321	0.123175
	C5362	C	0.444223	0.543459	0.120629
	C5363	C	0.411667	0.543415	0.006027
	C5364	C	0.461181	0.252635	0.108305
	C5365	C	0.472491	0.191560	0.095294
	C5366	C	0.472705	0.313734	0.095375
	C5367	C	0.469064	0.252648	0.099506
	C5368	C	0.412379	0.043500	0.002820
	C5369	C	0.437039	0.252737	0.017121
	C5370	C	0.398830	0.252339	0.018395
	C5371	C	0.421946	0.252990	0.109841
	C5372	C	0.466234	0.191697	0.035904
	C5373	C	0.466297	0.314152	0.035886
	C5374	C	0.449373	0.252722	0.024905
	C5375	C	0.392456	0.252552	0.027727
	C5376	C	0.409383	0.752788	0.102067
	C5377	C	0.403695	0.814109	0.098376
	C5378	C	0.403728	0.691431	0.098337
	C5379	C	0.409563	0.253044	0.102077
	C5380	C	0.403828	0.314297	0.098395
	C5381	C	0.403836	0.191977	0.098375
	C5382	C	0.389568	0.190606	0.032151
	C5383	C	0.454988	0.191552	0.028649
	C5384	C	0.455052	0.314039	0.028634
	C5385	C	0.389733	0.314512	0.032184
	C5386	C	0.472051	0.252970	0.039548
	C5387	C	0.446992	0.043436	0.123533
	C5388	C	0.417056	0.043573	0.003644
	C5389	C	0.412361	0.962846	0.002807
	C5390	C	0.446940	0.962557	0.123529
	C5391	C	0.417070	0.962695	0.003658
	N5392	N	0.351898	0.069939	0.066487
	N5393	N	0.351907	0.935404	0.066490
	N5394	N	0.351883	0.435587	0.066478
	N5395	N	0.351851	0.570112	0.066488
	N5396	N	0.444861	0.435724	0.122499
	N5397	N	0.444862	0.570201	0.122461
	N5398	N	0.444867	0.070274	0.122472
	N5399	N	0.444817	0.935752	0.122447
	O5400	O	0.519840	0.694599	0.168388
	O5401	O	0.519626	0.810877	0.168516
	O5402	O	0.400790	0.694510	0.194566
	O5403	O	0.400723	0.810366	0.194610
	O5404	O	0.400691	0.194340	0.194634
	O5405	O	0.400722	0.310321	0.194600
	O5406	O	0.395750	0.695005	0.174124
	O5407	O	0.395667	0.810825	0.174151
	O5408	O	0.395505	0.194851	0.174091
	O5409	O	0.395612	0.310629	0.174157
	O5410	O	0.520135	0.694129	0.187848
	O5411	O	0.520102	0.810841	0.187788
	O5412	O	0.520067	0.194743	0.187814
	O5413	O	0.520023	0.311392	0.187801
	O5414	O	0.519656	0.194683	0.168467
	O5415	O	0.519703	0.310932	0.168477
	O5416	O	0.463207	0.694870	0.132042
	O5417	O	0.431783	0.694928	0.133286
	O5418	O	0.488112	0.694465	0.230306
	O5419	O	0.488054	0.810902	0.230319
	O5420	O	0.457270	0.694213	0.230971
	O5421	O	0.457201	0.810520	0.231005
	O5422	O	0.431774	0.810846	0.133293
	O5423	O	0.463122	0.810903	0.132083
	O5424	O	0.463177	0.194915	0.132094
	O5425	O	0.431768	0.195317	0.133306
	O5426	O	0.488140	0.194415	0.230308
	O5427	O	0.488175	0.310877	0.230326
	O5428	O	0.457388	0.194328	0.230918
	O5429	O	0.457441	0.310718	0.230882
	O5430	O	0.431928	0.311202	0.133360
	O5431	O	0.463217	0.310757	0.132047
	H5432	H	0.418860	0.644448	0.206214
	H5433	H	0.418984	0.860654	0.206215
	H5434	H	0.418894	0.143911	0.206263
	H5435	H	0.418972	0.361099	0.206203
	H5436	H	0.407246	0.860492	0.161122
	H5437	H	0.407400	0.645109	0.161111
	H5438	H	0.407441	0.360335	0.161238
	H5439	H	0.407122	0.145337	0.161049
	H5440	H	0.540891	0.063873	0.179283
	H5441	H	0.540248	0.063631	0.177469
	H5442	H	0.540280	0.940279	0.177454
	H5443	H	0.540937	0.940345	0.179248
	H5444	H	0.537801	0.064467	0.180839
	H5445	H	0.537761	0.940274	0.180846
	H5446	H	0.384757	0.064577	0.186484
	H5447	H	0.384833	0.940497	0.186495
	H5448	H	0.385804	0.064364	0.185004
	H5449	H	0.385833	0.940773	0.185017
	H5450	H	0.383465	0.064565	0.183109
	H5451	H	0.383471	0.941419	0.183149
	H5452	H	0.376860	0.441069	0.186116
	H5453	H	0.380604	0.441560	0.188337
	H5454	H	0.378407	0.440839	0.182037
	H5455	H	0.534286	0.440808	0.179578
	H5456	H	0.534632	0.440172	0.177099
	H5457	H	0.537363	0.440715	0.176405
	H5458	H	0.380580	0.564376	0.188322
	H5459	H	0.376827	0.564534	0.186083
	H5460	H	0.537442	0.564012	0.176392
	H5461	H	0.534657	0.564368	0.177084
	H5462	H	0.534251	0.564250	0.179541
	H5463	H	0.378508	0.564543	0.182030
	H5464	H	0.508331	0.643173	0.200960
	H5465	H	0.508045	0.862041	0.200860
	H5466	H	0.507944	0.143648	0.200835
	H5467	H	0.508022	0.362746	0.200885
	H5468	H	0.420086	0.645318	0.146253
	H5469	H	0.481671	0.644481	0.143541
	H5470	H	0.481300	0.861085	0.143758
	H5471	H	0.419975	0.860526	0.146280
	H5472	H	0.501792	0.644688	0.156734
	H5473	H	0.501395	0.860770	0.156903
	H5474	H	0.497593	0.643123	0.216411
	H5475	H	0.497291	0.862061	0.216335
	H5476	H	0.448220	0.441199	0.124537
	H5477	H	0.474302	0.441071	0.243349
	H5478	H	0.442966	0.441269	0.124946
	H5479	H	0.440479	0.441358	0.123078
	H5480	H	0.478739	0.440932	0.240486
	H5481	H	0.478324	0.441045	0.242397
	H5482	H	0.474268	0.564122	0.243359
	H5483	H	0.448178	0.564757	0.124513
	H5484	H	0.478380	0.564277	0.242392
	H5485	H	0.478668	0.564423	0.240507
	H5486	H	0.440417	0.564490	0.123053
	H5487	H	0.443028	0.564729	0.124867
	H5488	H	0.497299	0.143531	0.216326
	H5489	H	0.497387	0.362565	0.216365
	H5490	H	0.440842	0.064584	0.122196
	H5491	H	0.442100	0.064973	0.124130
	H5492	H	0.443671	0.064615	0.120113
	H5493	H	0.439071	0.860712	0.219348
	H5494	H	0.438991	0.644294	0.219356
	H5495	H	0.439211	0.360969	0.219289
	H5496	H	0.439109	0.143964	0.219345
	H5497	H	0.420002	0.145385	0.146237
	H5498	H	0.481343	0.144906	0.143702
	H5499	H	0.481471	0.360572	0.143628
	H5500	H	0.420331	0.360685	0.146460
	H5501	H	0.501534	0.144858	0.156831
	H5502	H	0.501621	0.361060	0.156730
	H5503	H	0.476374	0.064166	0.245503
	H5504	H	0.481446	0.064284	0.243609
	H5505	H	0.480608	0.064366	0.238514
	H5506	H	0.442065	0.941391	0.124064
	H5507	H	0.440820	0.941310	0.122150
	H5508	H	0.443702	0.941725	0.120107
	H5509	H	0.476383	0.940949	0.245489
	H5510	H	0.481388	0.940431	0.243593
	H5511	H	0.480554	0.940754	0.238516
	Zn5512	Zn	0.382613	0.679863	0.184929
	Zn5513	Zn	0.382568	0.825573	0.184945
	Zn5514	Zn	0.382469	0.179985	0.184956
	Zn5515	Zn	0.382492	0.325456	0.184990
	Zn5516	Zn	0.474978	0.680038	0.241096
	Zn5517	Zn	0.474935	0.825236	0.241125
	Zn5518	Zn	0.475047	0.179931	0.241143
	Zn5519	Zn	0.475026	0.325343	0.241114
	C5520	C	0.514956	0.752721	0.165475
	C5521	C	0.405549	0.752402	0.197569
	C5522	C	0.417774	0.752446	0.205410
	C5523	C	0.423385	0.691366	0.209136
	C5524	C	0.423428	0.813620	0.209142
	C5525	C	0.405452	0.252360	0.197625
	C5526	C	0.417693	0.252423	0.205455
	C5527	C	0.423395	0.191062	0.209162
	C5528	C	0.423451	0.313918	0.209128
	C5529	C	0.398810	0.752920	0.170787
	C5530	C	0.406728	0.752838	0.162010
	C5531	C	0.410205	0.813921	0.157846
	C5532	C	0.410278	0.691869	0.157825
	C5533	C	0.398646	0.252809	0.170756
	C5534	C	0.406501	0.252897	0.161954
	C5535	C	0.410205	0.313815	0.157869
	C5536	C	0.410031	0.191923	0.157762
	C5537	C	0.539741	0.042692	0.178441
	C5538	C	0.539798	0.962061	0.178439
	C5539	C	0.384560	0.043257	0.185539
	C5540	C	0.384599	0.962194	0.185552
	C5541	C	0.382210	0.043270	0.183640
	C5542	C	0.382242	0.962480	0.183666
	C5543	C	0.379694	0.462393	0.186628
	C5544	C	0.536084	0.462422	0.179757
	C5545	C	0.536427	0.461874	0.177245
	C5546	C	0.379724	0.543142	0.186609
	C5547	C	0.536464	0.542884	0.177240
	C5548	C	0.536097	0.543046	0.179755
	C5549	C	0.516661	0.752579	0.191087
	C5550	C	0.516569	0.253083	0.191078
	C5551	C	0.508859	0.752552	0.199987
	C5552	C	0.505814	0.690690	0.204370
	C5553	C	0.505644	0.814482	0.204311
	C5554	C	0.508752	0.253131	0.199966
	C5555	C	0.505592	0.191180	0.204297
	C5556	C	0.505629	0.315103	0.204321
	C5557	C	0.514932	0.252880	0.165461
	C5558	C	0.467959	0.752840	0.135053
	C5559	C	0.428684	0.752861	0.136649
	C5560	C	0.452469	0.752381	0.227999
	C5561	C	0.497222	0.691542	0.153828
	C5562	C	0.497004	0.813904	0.153933
	C5563	C	0.480268	0.752764	0.142866
	C5564	C	0.420828	0.752907	0.145458
	C5565	C	0.417271	0.691852	0.149594
	C5566	C	0.486067	0.691494	0.146522
	C5567	C	0.485864	0.813974	0.146629
	C5568	C	0.417218	0.813960	0.149619
	C5569	C	0.502766	0.752687	0.157617
	C5570	C	0.490613	0.752709	0.226701
	C5571	C	0.499936	0.690731	0.212970
	C5572	C	0.499763	0.814513	0.212915
	C5573	C	0.497019	0.752667	0.217382
	C5574	C	0.473539	0.462257	0.242282
	C5575	C	0.442536	0.462573	0.123592
	C5576	C	0.477653	0.462282	0.241358
	C5577	C	0.473545	0.543005	0.242300
	C5578	C	0.477651	0.543071	0.241364
	C5579	C	0.442514	0.543362	0.123571
	C5580	C	0.490640	0.252663	0.226697
	C5581	C	0.499708	0.191091	0.212893
	C5582	C	0.499745	0.314959	0.212920
	C5583	C	0.496941	0.252901	0.217353
	C5584	C	0.442354	0.043481	0.122963
	C5585	C	0.468037	0.252813	0.135033
	C5586	C	0.428704	0.253225	0.136673
	C5587	C	0.452580	0.252537	0.227949
	C5588	C	0.497077	0.191695	0.153896
	C5589	C	0.497147	0.313991	0.153834
	C5590	C	0.480337	0.252691	0.142825
	C5591	C	0.420750	0.253100	0.145445
	C5592	C	0.440260	0.752447	0.220154
	C5593	C	0.434583	0.813712	0.216436
	C5594	C	0.434540	0.691285	0.216432
	C5595	C	0.440298	0.252418	0.220137
	C5596	C	0.434683	0.313853	0.216388
	C5597	C	0.434609	0.191045	0.216424
	C5598	C	0.417135	0.191999	0.149557
	C5599	C	0.485916	0.191632	0.146599
	C5600	C	0.485993	0.313822	0.146539
	C5601	C	0.417321	0.313950	0.149678
	C5602	C	0.502806	0.252877	0.157582
	C5603	C	0.477933	0.043085	0.243662
	C5604	C	0.445199	0.043453	0.120883
	C5605	C	0.442329	0.962693	0.122950
	C5606	C	0.477916	0.962106	0.243660
	C5607	C	0.445207	0.962693	0.120875
	N5608	N	0.382526	0.069980	0.184957
	N5609	N	0.382558	0.935508	0.184972
	N5610	N	0.382452	0.435439	0.184954
	N5611	N	0.382525	0.569894	0.184943
	N5612	N	0.475101	0.435423	0.241097
	N5613	N	0.475087	0.569941	0.241109
	N5614	N	0.475072	0.069830	0.241138
	N5615	N	0.475057	0.935308	0.241152
	O5616	O	0.476785	0.694201	0.300510
	O5617	O	0.476696	0.811042	0.300535
	O5618	O	0.424870	0.693601	0.316104
	O5619	O	0.424901	0.810479	0.316094
	O5620	O	0.425044	0.195152	0.316097
	O5621	O	0.424811	0.312047	0.316087
	O5622	O	0.425587	0.694106	0.292820
	O5623	O	0.425578	0.810593	0.292805
	O5624	O	0.425564	0.195108	0.292812
	O5625	O	0.425514	0.311525	0.292787
	O5626	O	0.475856	0.694755	0.323733
	O5627	O	0.475785	0.810970	0.323685
	O5628	O	0.475845	0.194493	0.323720
	O5629	O	0.475947	0.310958	0.323719
	O5630	O	0.476732	0.194116	0.300484
	O5631	O	0.476728	0.311087	0.300488
	O5632	O	0.487661	0.694271	0.253518
	O5633	O	0.457744	0.694328	0.250317
	O5634	O	0.444287	0.694867	0.366374
	O5635	O	0.444439	0.811638	0.366443
	O5636	O	0.414491	0.694038	0.363132
	O5637	O	0.414476	0.810896	0.363111
	O5638	O	0.457745	0.811082	0.250392
	O5639	O	0.487537	0.811100	0.253554
	O5640	O	0.487630	0.194463	0.253539
	O5641	O	0.457753	0.194467	0.250349
	O5642	O	0.444127	0.194291	0.366308
	O5643	O	0.444276	0.311074	0.366361
	O5644	O	0.414453	0.194705	0.363104
	O5645	O	0.414419	0.311425	0.363144
	O5646	O	0.457731	0.311173	0.250334
	O5647	O	0.487548	0.311210	0.253519
	H5648	H	0.422282	0.641836	0.331333
	H5649	H	0.422324	0.862050	0.331258
	H5650	H	0.422343	0.143765	0.331289
	H5651	H	0.422335	0.363354	0.331304
	H5652	H	0.434900	0.861632	0.278889
	H5653	H	0.434946	0.642951	0.278879
	H5654	H	0.434770	0.362419	0.278833
	H5655	H	0.434942	0.143649	0.278854
	H5656	H	0.487447	0.064381	0.311629
	H5657	H	0.486498	0.064281	0.312788
	H5658	H	0.486522	0.940999	0.312805
	H5659	H	0.487544	0.941311	0.311722
	H5660	H	0.490521	0.064932	0.311618
	H5661	H	0.490499	0.941288	0.311668
	H5662	H	0.412615	0.064616	0.303000
	H5663	H	0.412686	0.941233	0.302939
	H5664	H	0.411782	0.064675	0.303223
	H5665	H	0.411736	0.941111	0.303104
	H5666	H	0.411657	0.064297	0.303936
	H5667	H	0.411512	0.941158	0.303899
	H5668	H	0.421245	0.440907	0.305809
	H5669	H	0.420450	0.441084	0.301073
	H5670	H	0.412552	0.440669	0.309176
	H5671	H	0.490458	0.441355	0.309944
	H5672	H	0.494520	0.441172	0.312819
	H5673	H	0.493069	0.441348	0.315324
	H5674	H	0.420534	0.564340	0.301098
	H5675	H	0.421277	0.564442	0.305811
	H5676	H	0.493156	0.564859	0.315342
	H5677	H	0.494491	0.564723	0.312803
	H5678	H	0.490418	0.564213	0.309934
	H5679	H	0.412492	0.564936	0.309192
	H5680	H	0.466641	0.643513	0.337779
	H5681	H	0.466652	0.862734	0.337684
	H5682	H	0.466618	0.142960	0.337706
	H5683	H	0.466934	0.362394	0.337774
	H5684	H	0.445746	0.643037	0.263418
	H5685	H	0.484656	0.642565	0.268718
	H5686	H	0.485015	0.862521	0.268748
	H5687	H	0.445697	0.861692	0.263440
	H5688	H	0.479187	0.642898	0.285301
	H5689	H	0.479532	0.862589	0.285335
	H5690	H	0.456213	0.643964	0.353320
	H5691	H	0.456192	0.862763	0.353243
	H5692	H	0.471625	0.440915	0.242084
	H5693	H	0.431281	0.441284	0.378953
	H5694	H	0.472131	0.440814	0.239467
	H5695	H	0.475048	0.441100	0.238782
	H5696	H	0.429666	0.441053	0.371838
	H5697	H	0.433621	0.441286	0.374559
	H5698	H	0.431395	0.563784	0.379002
	H5699	H	0.471640	0.564399	0.242076
	H5700	H	0.433549	0.564390	0.374523
	H5701	H	0.429594	0.564317	0.371829
	H5702	H	0.475035	0.564684	0.238790
	H5703	H	0.472090	0.565099	0.239457
	H5704	H	0.455906	0.142952	0.353160
	H5705	H	0.456164	0.362485	0.353236
	H5706	H	0.468080	0.064441	0.239368
	H5707	H	0.468665	0.064190	0.243121
	H5708	H	0.475025	0.064554	0.236773
	H5709	H	0.416960	0.862245	0.347892
	H5710	H	0.416956	0.642305	0.347942
	H5711	H	0.416988	0.363216	0.347948
	H5712	H	0.416961	0.143518	0.347880
	H5713	H	0.445776	0.143536	0.263427
	H5714	H	0.484971	0.142743	0.268713
	H5715	H	0.484881	0.362503	0.268668
	H5716	H	0.445591	0.362531	0.263389
	H5717	H	0.479484	0.142803	0.285300
	H5718	H	0.479414	0.362607	0.285260
	H5719	H	0.425985	0.064352	0.372659
	H5720	H	0.422625	0.064457	0.373974
	H5721	H	0.423327	0.064368	0.377421
	H5722	H	0.468700	0.941109	0.243122
	H5723	H	0.468129	0.941115	0.239336
	H5724	H	0.474979	0.941030	0.236759
	H5725	H	0.425930	0.941269	0.372655
	H5726	H	0.422568	0.940459	0.374007
	H5727	H	0.423315	0.940719	0.377452
	Zn5728	Zn	0.412413	0.680275	0.303607
	Zn5729	Zn	0.412496	0.825311	0.303634
	Zn5730	Zn	0.412535	0.180320	0.303674
	Zn5731	Zn	0.412364	0.325305	0.303620
	Zn5732	Zn	0.426988	0.679983	0.375532
	Zn5733	Zn	0.426929	0.825274	0.375558
	Zn5734	Zn	0.426961	0.180009	0.375572
	Zn5735	Zn	0.427003	0.325184	0.375544
	C5736	C	0.476972	0.752698	0.296503
	C5737	C	0.424660	0.752040	0.320101
	C5738	C	0.422753	0.752027	0.330296
	C5739	C	0.421138	0.689811	0.335008
	C5740	C	0.421150	0.814319	0.334970
	C5741	C	0.424726	0.253607	0.320098
	C5742	C	0.422871	0.253608	0.330307
	C5743	C	0.421232	0.191397	0.334997
	C5744	C	0.421242	0.315684	0.335019
	C5745	C	0.428082	0.752320	0.289195
	C5746	C	0.434408	0.752260	0.279851
	C5747	C	0.437234	0.814172	0.275428
	C5748	C	0.437291	0.690455	0.275424
	C5749	C	0.428010	0.253280	0.289165
	C5750	C	0.434297	0.253141	0.279810
	C5751	C	0.437142	0.314966	0.275379
	C5752	C	0.437236	0.191198	0.275394
	C5753	C	0.487511	0.043161	0.312395
	C5754	C	0.487527	0.962489	0.312421
	C5755	C	0.412345	0.043291	0.303268
	C5756	C	0.412339	0.962400	0.303230
	C5757	C	0.412181	0.043065	0.304028
	C5758	C	0.412160	0.962329	0.304013
	C5759	C	0.418696	0.462408	0.303499
	C5760	C	0.488463	0.462314	0.310838
	C5761	C	0.492531	0.462350	0.313773
	C5762	C	0.418698	0.543064	0.303488
	C5763	C	0.492561	0.543364	0.313788
	C5764	C	0.488449	0.542893	0.310841
	C5765	C	0.473303	0.752911	0.327333
	C5766	C	0.473365	0.252784	0.327336
	C5767	C	0.467097	0.753026	0.336708
	C5768	C	0.464360	0.691271	0.341205
	C5769	C	0.464343	0.815083	0.341151
	C5770	C	0.467129	0.252786	0.336714
	C5771	C	0.464282	0.190681	0.341142
	C5772	C	0.464475	0.314733	0.341195
	C5773	C	0.476956	0.252640	0.296480
	C5774	C	0.487357	0.752620	0.257532
	C5775	C	0.454248	0.752565	0.253607
	C5776	C	0.414673	0.752438	0.359112
	C5777	C	0.480449	0.690547	0.281606
	C5778	C	0.480639	0.814862	0.281631
	C5779	C	0.485361	0.752570	0.267722
	C5780	C	0.446314	0.752318	0.262473
	C5781	C	0.443223	0.690463	0.266831
	C5782	C	0.483594	0.690420	0.272406
	C5783	C	0.483784	0.814732	0.272428
	C5784	C	0.443184	0.814153	0.266844
	C5785	C	0.478898	0.752738	0.286314
	C5786	C	0.447784	0.753300	0.363118
	C5787	C	0.458618	0.691446	0.349847
	C5788	C	0.458591	0.815241	0.349799
	C5789	C	0.455505	0.753350	0.354179
	C5790	C	0.428070	0.462245	0.378290
	C5791	C	0.473999	0.462312	0.239637
	C5792	C	0.430370	0.462216	0.373822
	C5793	C	0.428070	0.542969	0.378297
	C5794	C	0.430356	0.543016	0.373790
	C5795	C	0.474003	0.543253	0.239653
	C5796	C	0.447632	0.252693	0.363059
	C5797	C	0.458433	0.190621	0.349760
	C5798	C	0.458614	0.314781	0.349811
	C5799	C	0.455409	0.252737	0.354149
	C5800	C	0.470183	0.043015	0.241207
	C5801	C	0.487357	0.252858	0.257541
	C5802	C	0.454228	0.252847	0.253589
	C5803	C	0.414651	0.253140	0.359109
	C5804	C	0.480622	0.190574	0.281608
	C5805	C	0.480594	0.314854	0.281574
	C5806	C	0.485438	0.252699	0.267729
	C5807	C	0.446277	0.253021	0.262443
	C5808	C	0.416511	0.752290	0.348912
	C5809	C	0.418131	0.814451	0.344194
	C5810	C	0.418121	0.689959	0.344234
	C5811	C	0.416531	0.253363	0.348912
	C5812	C	0.418171	0.315564	0.344237
	C5813	C	0.418162	0.191268	0.344210
	C5814	C	0.443204	0.191088	0.266814
	C5815	C	0.483786	0.190549	0.272411
	C5816	C	0.483767	0.314851	0.272379
	C5817	C	0.443100	0.314963	0.266791
	C5818	C	0.478946	0.252777	0.286300
	C5819	C	0.424956	0.043016	0.373916
	C5820	C	0.477115	0.042924	0.238556
	C5821	C	0.470175	0.962264	0.241212
	C5822	C	0.424912	0.962196	0.373912
	C5823	C	0.477102	0.962121	0.238567
	N5824	N	0.412698	0.070151	0.303693
	N5825	N	0.412683	0.935549	0.303660
	N5826	N	0.412475	0.435451	0.303595
	N5827	N	0.412454	0.570002	0.303578
	N5828	N	0.427031	0.435419	0.375530
	N5829	N	0.426976	0.569901	0.375527
	N5830	N	0.426967	0.069818	0.375592
	N5831	N	0.426933	0.935242	0.375589
	O5832	O	0.496535	0.694776	0.424476
	O5833	O	0.496454	0.811168	0.424542
	O5834	O	0.381461	0.694554	0.448447
	O5835	O	0.381640	0.810758	0.448427
	O5836	O	0.381440	0.194082	0.448510
	O5837	O	0.381554	0.310671	0.448502
	O5838	O	0.381572	0.694124	0.428802
	O5839	O	0.381678	0.810920	0.428808
	O5840	O	0.381718	0.194925	0.428858
	O5841	O	0.381661	0.311524	0.428893
	O5842	O	0.496420	0.694474	0.444100
	O5843	O	0.496380	0.811137	0.444106
	O5844	O	0.496475	0.194487	0.444147
	O5845	O	0.496445	0.311162	0.444127
	O5846	O	0.496585	0.194340	0.424500
	O5847	O	0.496665	0.310636	0.424450
	O5848	O	0.444203	0.694972	0.385979
	O5849	O	0.413687	0.693943	0.386331
	O5850	O	0.464708	0.694357	0.486748
	O5851	O	0.464474	0.810843	0.486664
	O5852	O	0.433905	0.694614	0.486986
	O5853	O	0.434027	0.810795	0.486952
	O5854	O	0.413478	0.810419	0.386255
	O5855	O	0.444144	0.811378	0.386007
	O5856	O	0.444037	0.194508	0.386096
	O5857	O	0.413489	0.195449	0.386263
	O5858	O	0.464506	0.194726	0.486662
	O5859	O	0.464477	0.311193	0.486682
	O5860	O	0.434039	0.193992	0.486956
	O5861	O	0.434044	0.310181	0.486952
	O5862	O	0.413503	0.311760	0.386268
	O5863	O	0.444223	0.310638	0.385994
	H5864	H	0.398378	0.643975	0.460760
	H5865	H	0.398528	0.860974	0.460723
	H5866	H	0.398484	0.143343	0.460749
	H5867	H	0.398388	0.360567	0.460775
	H5868	H	0.393468	0.862173	0.415676
	H5869	H	0.393699	0.642911	0.415772
	H5870	H	0.393504	0.362952	0.415714
	H5871	H	0.393527	0.144101	0.415706
	H5872	H	0.515213	0.064553	0.437102
	H5873	H	0.517340	0.064360	0.435845
	H5874	H	0.517387	0.941102	0.435878
	H5875	H	0.515270	0.941107	0.437162
	H5876	H	0.511069	0.063948	0.436396
	H5877	H	0.511099	0.940741	0.436443
	H5878	H	0.370095	0.064203	0.439028
	H5879	H	0.370229	0.941088	0.438963
	H5880	H	0.369035	0.064834	0.436036
	H5881	H	0.369050	0.940874	0.436059
	H5882	H	0.362592	0.064496	0.434555
	H5883	H	0.362585	0.940984	0.434596
	H5884	H	0.369480	0.441157	0.435693
	H5885	H	0.364360	0.440827	0.434037
	H5886	H	0.370092	0.441474	0.440337
	H5887	H	0.515981	0.440949	0.434030
	H5888	H	0.516010	0.440672	0.436004
	H5889	H	0.513912	0.441351	0.436654
	H5890	H	0.364293	0.564465	0.433988
	H5891	H	0.369431	0.564312	0.435738
	H5892	H	0.513995	0.564370	0.436612
	H5893	H	0.516021	0.564627	0.436002
	H5894	H	0.515940	0.564407	0.434026
	H5895	H	0.370093	0.564238	0.440267
	H5896	H	0.484744	0.643374	0.457307
	H5897	H	0.484309	0.861802	0.457196
	H5898	H	0.484530	0.143269	0.457234
	H5899	H	0.484675	0.362448	0.457257
	H5900	H	0.404387	0.642866	0.400284
	H5901	H	0.461204	0.644292	0.398160
	H5902	H	0.460896	0.862039	0.398326
	H5903	H	0.404151	0.861928	0.400196
	H5904	H	0.479778	0.644499	0.412088
	H5905	H	0.479447	0.861716	0.412257
	H5906	H	0.474085	0.643368	0.472759
	H5907	H	0.473606	0.861724	0.472663
	H5908	H	0.425637	0.440288	0.379520
	H5909	H	0.448032	0.441236	0.499285
	H5910	H	0.420216	0.440270	0.375825
	H5911	H	0.421892	0.441286	0.372584
	H5912	H	0.455669	0.441180	0.498257
	H5913	H	0.453230	0.441400	0.499954
	H5914	H	0.448019	0.564661	0.499330
	H5915	H	0.425625	0.564328	0.379600
	H5916	H	0.453292	0.564827	0.499960
	H5917	H	0.455683	0.564797	0.498236
	H5918	H	0.421840	0.564085	0.372572
	H5919	H	0.420133	0.564554	0.375826
	H5920	H	0.473788	0.143344	0.472697
	H5921	H	0.473960	0.362524	0.472735
	H5922	H	0.431714	0.064346	0.376727
	H5923	H	0.431163	0.064550	0.374238
	H5924	H	0.427189	0.064138	0.378583
	H5925	H	0.417077	0.860930	0.474629
	H5926	H	0.416970	0.644394	0.474665
	H5927	H	0.417010	0.360790	0.474696
	H5928	H	0.417070	0.143268	0.474649
	H5929	H	0.404171	0.144253	0.400219
	H5930	H	0.460820	0.144080	0.398345
	H5931	H	0.461352	0.361182	0.398200
	H5932	H	0.404116	0.363028	0.400232
	H5933	H	0.479399	0.143937	0.412284
	H5934	H	0.479917	0.361207	0.412103
	H5935	H	0.455887	0.064618	0.496160
	H5936	H	0.452419	0.064713	0.494416
	H5937	H	0.446840	0.064827	0.495516
	H5938	H	0.431214	0.941043	0.374206
	H5939	H	0.431739	0.941196	0.376731
	H5940	H	0.427168	0.941071	0.378545
	H5941	H	0.455803	0.941196	0.496159
	H5942	H	0.452355	0.941111	0.494459
	H5943	H	0.446803	0.941307	0.495525
	Zn5944	Zn	0.364323	0.680451	0.437961
	Zn5945	Zn	0.364459	0.825507	0.437997
	Zn5946	Zn	0.364302	0.180361	0.437974
	Zn5947	Zn	0.364333	0.325593	0.438053
	Zn5948	Zn	0.451157	0.680302	0.497398
	Zn5949	Zn	0.451116	0.825623	0.497426
	Zn5950	Zn	0.451231	0.180549	0.497435
	Zn5951	Zn	0.451090	0.325597	0.497419
	C5952	C	0.492033	0.752991	0.421348
	C5953	C	0.385989	0.752546	0.451606
	C5954	C	0.397288	0.752381	0.459914
	C5955	C	0.402520	0.691135	0.463858
	C5956	C	0.402563	0.813773	0.463850
	C5957	C	0.385988	0.252285	0.451649
	C5958	C	0.397437	0.252072	0.459911
	C5959	C	0.402679	0.190520	0.463837
	C5960	C	0.402617	0.313628	0.463862
	C5961	C	0.385032	0.752475	0.425536
	C5962	C	0.392785	0.752516	0.416609
	C5963	C	0.395903	0.814479	0.412255
	C5964	C	0.396029	0.690499	0.412308
	C5965	C	0.385150	0.253359	0.425596
	C5966	C	0.392917	0.253559	0.416676
	C5967	C	0.395966	0.315456	0.412296
	C5968	C	0.396005	0.191700	0.412299
	C5969	C	0.515674	0.043152	0.436115
	C5970	C	0.515704	0.962302	0.436116
	C5971	C	0.368166	0.043303	0.437648
	C5972	C	0.368208	0.962354	0.437648
	C5973	C	0.361685	0.043127	0.436142
	C5974	C	0.361672	0.962427	0.436163
	C5975	C	0.366190	0.462452	0.435704
	C5976	C	0.514635	0.462407	0.433981
	C5977	C	0.514661	0.462152	0.435961
	C5978	C	0.366166	0.543296	0.435677
	C5979	C	0.514697	0.543105	0.435949
	C5980	C	0.514641	0.543252	0.433989
	C5981	C	0.492971	0.752802	0.447392
	C5982	C	0.493000	0.252882	0.447410
	C5983	C	0.485144	0.752689	0.456284
	C5984	C	0.482158	0.690865	0.460688
	C5985	C	0.481931	0.814345	0.460635
	C5986	C	0.485147	0.252880	0.456292
	C5987	C	0.482039	0.190882	0.460649
	C5988	C	0.482124	0.314882	0.460668
	C5989	C	0.492154	0.252448	0.421315
	C5990	C	0.448650	0.753201	0.389125
	C5991	C	0.411017	0.752211	0.389898
	C5992	C	0.429465	0.752767	0.483809
	C5993	C	0.475575	0.691659	0.409031
	C5994	C	0.475405	0.814579	0.409126
	C5995	C	0.460027	0.753138	0.397390
	C5996	C	0.404604	0.752372	0.399223
	C5997	C	0.401904	0.690445	0.403699
	C5998	C	0.465301	0.691536	0.401301
	C5999	C	0.465126	0.814791	0.401388
	C6000	C	0.401762	0.814434	0.403643
	C6001	C	0.480716	0.753073	0.413022
	C6002	C	0.467117	0.752575	0.483098
	C6003	C	0.476327	0.690880	0.469307
	C6004	C	0.476065	0.814261	0.469247
	C6005	C	0.473439	0.752551	0.473745
	C6006	C	0.448309	0.462487	0.497978
	C6007	C	0.422579	0.462086	0.374571
	C6008	C	0.453618	0.462414	0.498663
	C6009	C	0.448321	0.543467	0.497977
	C6010	C	0.453655	0.543310	0.498663
	C6011	C	0.422509	0.543007	0.374562
	C6012	C	0.467006	0.252995	0.483055
	C6013	C	0.476140	0.191016	0.469256
	C6014	C	0.476240	0.314859	0.469279
	C6015	C	0.473323	0.252936	0.473701
	C6016	C	0.430245	0.042969	0.375493
	C6017	C	0.448632	0.252603	0.389181
	C6018	C	0.410990	0.253567	0.389893
	C6019	C	0.429564	0.252076	0.483809
	C6020	C	0.475416	0.191035	0.409134
	C6021	C	0.475719	0.313985	0.409039
	C6022	C	0.460020	0.252603	0.397448
	C6023	C	0.404686	0.253572	0.399243
	C6024	C	0.418037	0.752705	0.475546
	C6025	C	0.412874	0.813924	0.471572
	C6026	C	0.412816	0.691376	0.471587
	C6027	C	0.418272	0.252079	0.475497
	C6028	C	0.412966	0.313552	0.471575
	C6029	C	0.413017	0.190585	0.471553
	C6030	C	0.401847	0.191701	0.403678
	C6031	C	0.465102	0.191113	0.401416
	C6032	C	0.465401	0.314011	0.401326
	C6033	C	0.401818	0.315458	0.403678
	C6034	C	0.480832	0.252438	0.413023
	C6035	C	0.453410	0.043403	0.495857
	C6036	C	0.425676	0.043113	0.377370
	C6037	C	0.430235	0.962115	0.375493
	C6038	C	0.453366	0.962464	0.495864
	C6039	C	0.425657	0.962348	0.377376
	N6040	N	0.364309	0.070076	0.437981
	N6041	N	0.364356	0.935537	0.438008
	N6042	N	0.364235	0.435698	0.438045
	N6043	N	0.364252	0.570235	0.438012
	N6044	N	0.451180	0.435590	0.497425
	N6045	N	0.451205	0.570098	0.497417
	N6046	N	0.451333	0.070347	0.497418
	N6047	N	0.451274	0.935792	0.497426
	O6048	O	0.453271	0.694825	0.556890
	O6049	O	0.453305	0.811726	0.556900
	O6050	O	0.401198	0.694412	0.572365
	O6051	O	0.401228	0.811238	0.572373
	O6052	O	0.401174	0.194163	0.572365
	O6053	O	0.401167	0.311323	0.572369
	O6054	O	0.402007	0.694895	0.549197
	O6055	O	0.402079	0.811183	0.549201
	O6056	O	0.402082	0.194511	0.549204
	O6057	O	0.402112	0.310868	0.549205
	O6058	O	0.452562	0.694354	0.580139
	O6059	O	0.452488	0.810768	0.580127
	O6060	O	0.452400	0.194778	0.580079
	O6061	O	0.452579	0.311222	0.580146
	O6062	O	0.453225	0.194200	0.556956
	O6063	O	0.453152	0.311207	0.556915
	O6064	O	0.463703	0.694549	0.509853
	O6065	O	0.433881	0.694507	0.506587
	O6066	O	0.420293	0.694617	0.622602
	O6067	O	0.420429	0.811267	0.622617
	O6068	O	0.390415	0.694453	0.619364
	O6069	O	0.390624	0.811294	0.619363
	O6070	O	0.433878	0.811216	0.506649
	O6071	O	0.463656	0.811330	0.509838
	O6072	O	0.463662	0.194678	0.509898
	O6073	O	0.433890	0.194347	0.506586
	O6074	O	0.420328	0.194554	0.622564
	O6075	O	0.420435	0.311489	0.622530
	O6076	O	0.390521	0.194628	0.619341
	O6077	O	0.390647	0.311536	0.619369
	O6078	O	0.433862	0.310998	0.506579
	O6079	O	0.463637	0.311354	0.509890
	H6080	H	0.398624	0.643098	0.587557
	H6081	H	0.398604	0.862617	0.587567
	H6082	H	0.398527	0.142989	0.587561
	H6083	H	0.398772	0.362973	0.587577
	H6084	H	0.411405	0.862260	0.535228
	H6085	H	0.411187	0.643522	0.535188
	H6086	H	0.411419	0.362056	0.535256
	H6087	H	0.411285	0.143311	0.535235
	H6088	H	0.462958	0.064495	0.567161
	H6089	H	0.461242	0.064913	0.569046
	H6090	H	0.461343	0.940817	0.569042
	H6091	H	0.463022	0.941124	0.567186
	H6092	H	0.468047	0.064119	0.567256
	H6093	H	0.468028	0.941204	0.567262
	H6094	H	0.379642	0.064412	0.559529
	H6095	H	0.379621	0.941218	0.559528
	H6096	H	0.382857	0.064709	0.563858
	H6097	H	0.382904	0.940576	0.563848
	H6098	H	0.393348	0.064309	0.564858
	H6099	H	0.393388	0.941487	0.564817
	H6100	H	0.390162	0.440810	0.561489
	H6101	H	0.391655	0.440496	0.560376
	H6102	H	0.386717	0.441165	0.561136
	H6103	H	0.463503	0.441351	0.568214
	H6104	H	0.466518	0.440956	0.567837
	H6105	H	0.468214	0.441246	0.568894
	H6106	H	0.391668	0.564825	0.560339
	H6107	H	0.390215	0.564136	0.561499
	H6108	H	0.468170	0.564387	0.568864
	H6109	H	0.466518	0.564326	0.567832
	H6110	H	0.463518	0.564401	0.568244
	H6111	H	0.386758	0.564357	0.561184
	H6112	H	0.443273	0.643625	0.594102
	H6113	H	0.442957	0.861917	0.594005
	H6114	H	0.443093	0.143310	0.594027
	H6115	H	0.443227	0.362409	0.594042
	H6116	H	0.421938	0.643384	0.519704
	H6117	H	0.461069	0.643446	0.525046
	H6118	H	0.461079	0.862858	0.525021
	H6119	H	0.422096	0.862035	0.519765
	H6120	H	0.455798	0.643439	0.541681
	H6121	H	0.455797	0.863107	0.541672
	H6122	H	0.432461	0.643437	0.609515
	H6123	H	0.432145	0.862093	0.609459
	H6124	H	0.446471	0.441148	0.497034
	H6125	H	0.398326	0.441302	0.629237
	H6126	H	0.449726	0.441422	0.494717
	H6127	H	0.453662	0.440995	0.495193
	H6128	H	0.402040	0.441162	0.635421
	H6129	H	0.397724	0.441027	0.633501
	H6130	H	0.398250	0.564491	0.629227
	H6131	H	0.446548	0.564617	0.497051
	H6132	H	0.397686	0.564452	0.633457
	H6133	H	0.401977	0.564499	0.635420
	H6134	H	0.453655	0.564625	0.495156
	H6135	H	0.449793	0.564519	0.494736
	H6136	H	0.432290	0.143236	0.609487
	H6137	H	0.432455	0.362635	0.609486
	H6138	H	0.451121	0.064794	0.500509
	H6139	H	0.455151	0.064428	0.499706
	H6140	H	0.446232	0.064802	0.498181
	H6141	H	0.393184	0.862683	0.604184
	H6142	H	0.393187	0.643006	0.604160
	H6143	H	0.393388	0.363071	0.604201
	H6144	H	0.393118	0.143255	0.604192
	H6145	H	0.421915	0.142992	0.519744
	H6146	H	0.461280	0.143269	0.525137
	H6147	H	0.460948	0.362887	0.525124
	H6148	H	0.422040	0.362197	0.519748
	H6149	H	0.455931	0.143092	0.541754
	H6150	H	0.455614	0.362632	0.541741
	H6151	H	0.402612	0.064578	0.633487
	H6152	H	0.404983	0.064053	0.633194
	H6153	H	0.405743	0.064342	0.631345
	H6154	H	0.455114	0.941234	0.499722
	H6155	H	0.451007	0.941201	0.500556
	H6156	H	0.446252	0.941459	0.498130
	H6157	H	0.402560	0.940586	0.633525
	H6158	H	0.404932	0.940717	0.633216
	H6159	H	0.405803	0.941153	0.631363
	Zn6160	Zn	0.388683	0.680453	0.559917
	Zn6161	Zn	0.388736	0.825422	0.559932
	Zn6162	Zn	0.388696	0.180417	0.559951
	Zn6163	Zn	0.388722	0.325359	0.559982
	Zn6164	Zn	0.403034	0.680416	0.631815
	Zn6165	Zn	0.403046	0.825412	0.631810
	Zn6166	Zn	0.403164	0.180316	0.631798
	Zn6167	Zn	0.403170	0.325463	0.631785
	C6168	C	0.453476	0.753289	0.552902
	C6169	C	0.400967	0.752813	0.576373
	C6170	C	0.399055	0.752818	0.586575
	C6171	C	0.397431	0.690722	0.591264
	C6172	C	0.397456	0.814925	0.591277
	C6173	C	0.400992	0.252733	0.576361
	C6174	C	0.399160	0.252907	0.586573
	C6175	C	0.397440	0.190773	0.591265
	C6176	C	0.397606	0.315190	0.591281
	C6177	C	0.404507	0.752972	0.545559
	C6178	C	0.410805	0.752789	0.536201
	C6179	C	0.413699	0.814626	0.531773
	C6180	C	0.413580	0.690972	0.531739
	C6181	C	0.404649	0.252678	0.545596
	C6182	C	0.410993	0.252629	0.536244
	C6183	C	0.413790	0.314490	0.531799
	C6184	C	0.413714	0.190778	0.531794
	C6185	C	0.463016	0.043392	0.568444
	C6186	C	0.463044	0.962421	0.568450
	C6187	C	0.383274	0.043390	0.561242
	C6188	C	0.383277	0.962159	0.561233
	C6189	C	0.393818	0.043069	0.562243
	C6190	C	0.393808	0.962574	0.562243
	C6191	C	0.390392	0.462065	0.560661
	C6192	C	0.463819	0.462584	0.568978
	C6193	C	0.466876	0.462420	0.568610
	C6194	C	0.390387	0.543101	0.560654
	C6195	C	0.466863	0.543239	0.568591
	C6196	C	0.463894	0.543364	0.568985
	C6197	C	0.449988	0.752575	0.583743
	C6198	C	0.449966	0.252990	0.583720
	C6199	C	0.443559	0.752765	0.593061
	C6200	C	0.440811	0.690996	0.597517
	C6201	C	0.440619	0.814552	0.597470
	C6202	C	0.443625	0.252863	0.593052
	C6203	C	0.440740	0.190854	0.597480
	C6204	C	0.440830	0.314869	0.597481
	C6205	C	0.453385	0.252653	0.552942
	C6206	C	0.463461	0.752943	0.513859
	C6207	C	0.430438	0.752742	0.509896
	C6208	C	0.390755	0.752851	0.615357
	C6209	C	0.456903	0.691152	0.537976
	C6210	C	0.456914	0.815331	0.537974
	C6211	C	0.461607	0.753117	0.524061
	C6212	C	0.422587	0.752594	0.518772
	C6213	C	0.419444	0.690831	0.523124
	C6214	C	0.459967	0.691130	0.528756
	C6215	C	0.459974	0.815256	0.528750
	C6216	C	0.419551	0.814482	0.523163
	C6217	C	0.455290	0.753282	0.542686
	C6218	C	0.423829	0.752855	0.619336
	C6219	C	0.434865	0.690990	0.606101
	C6220	C	0.434693	0.814644	0.606065
	C6221	C	0.431647	0.752861	0.610445
	C6222	C	0.401242	0.462366	0.629498
	C6223	C	0.451599	0.462546	0.495613
	C6224	C	0.400681	0.462398	0.633758
	C6225	C	0.401228	0.543085	0.629499
	C6226	C	0.400636	0.543195	0.633750
	C6227	C	0.451609	0.543317	0.495599
	C6228	C	0.423834	0.252928	0.619291
	C6229	C	0.434798	0.190823	0.606070
	C6230	C	0.434887	0.314916	0.606068
	C6231	C	0.431741	0.252924	0.610423
	C6232	C	0.452660	0.043455	0.499419
	C6233	C	0.463419	0.253036	0.513918
	C6234	C	0.430452	0.252621	0.509871
	C6235	C	0.390816	0.253115	0.615350
	C6236	C	0.456996	0.190824	0.538047
	C6237	C	0.456838	0.314987	0.538043
	C6238	C	0.461584	0.253122	0.524120
	C6239	C	0.422718	0.252490	0.518800
	C6240	C	0.392716	0.752829	0.605179
	C6241	C	0.394370	0.814935	0.600492
	C6242	C	0.394344	0.690725	0.600478
	C6243	C	0.392738	0.253103	0.605160
	C6244	C	0.394495	0.315318	0.600493
	C6245	C	0.394349	0.190893	0.600479
	C6246	C	0.419538	0.190689	0.523170
	C6247	C	0.460040	0.190998	0.528825
	C6248	C	0.459883	0.315158	0.528821
	C6249	C	0.419622	0.314466	0.523171
	C6250	C	0.455269	0.252829	0.542741
	C6251	C	0.403533	0.043249	0.632940
	C6252	C	0.447797	0.043631	0.497008
	C6253	C	0.452614	0.962605	0.499413
	C6254	C	0.403503	0.962126	0.632977
	C6255	C	0.447773	0.962774	0.497004
	N6256	N	0.388772	0.070192	0.559940
	N6257	N	0.388796	0.935611	0.559933
	N6258	N	0.388771	0.435432	0.559896
	N6259	N	0.388766	0.570034	0.559904
	N6260	N	0.403038	0.435521	0.631825
	N6261	N	0.402968	0.570133	0.631820
	N6262	N	0.403069	0.069999	0.631796
	N6263	N	0.403026	0.935424	0.631811
	O6264	O	0.477010	0.694912	0.678553
	O6265	O	0.476894	0.811032	0.678601
	O6266	O	0.358497	0.695068	0.704601
	O6267	O	0.358449	0.811346	0.704593
	O6268	O	0.358411	0.194623	0.704651
	O6269	O	0.358477	0.311014	0.704570
	O6270	O	0.358237	0.694805	0.685213
	O6271	O	0.358094	0.811413	0.685140
	O6272	O	0.358113	0.194560	0.685151
	O6273	O	0.358145	0.311233	0.685162
	O6274	O	0.481857	0.695184	0.699122
	O6275	O	0.481927	0.811396	0.699121
	O6276	O	0.481856	0.194856	0.699185
	O6277	O	0.481647	0.310912	0.699093
	O6278	O	0.476916	0.194628	0.678617
	O6279	O	0.476835	0.310633	0.678631
	O6280	O	0.420667	0.694555	0.642032
	O6281	O	0.389962	0.694556	0.642630
	O6282	O	0.445805	0.695053	0.740034
	O6283	O	0.445929	0.811233	0.740073
	O6284	O	0.414695	0.694989	0.741156
	O6285	O	0.414667	0.811204	0.741193
	O6286	O	0.389883	0.810952	0.642587
	O6287	O	0.420619	0.810893	0.642026
	O6288	O	0.420721	0.194712	0.642038
	O6289	O	0.389829	0.194523	0.642549
	O6290	O	0.446049	0.194871	0.740128
	O6291	O	0.446033	0.311079	0.740142
	O6292	O	0.414809	0.195384	0.741135
	O6293	O	0.414726	0.311353	0.741236
	O6294	O	0.389888	0.310948	0.642566
	O6295	O	0.420710	0.310851	0.641996
	H6296	H	0.376623	0.644903	0.716303
	H6297	H	0.376569	0.861773	0.716231
	H6298	H	0.376528	0.144907	0.716347
	H6299	H	0.376531	0.361509	0.716258
	H6300	H	0.369878	0.862654	0.671993
	H6301	H	0.370139	0.643451	0.672108
	H6302	H	0.370120	0.362235	0.672036
	H6303	H	0.369727	0.143172	0.671954
	H6304	H	0.496774	0.064467	0.686541
	H6305	H	0.493857	0.065046	0.686304
	H6306	H	0.493834	0.941006	0.686260
	H6307	H	0.496777	0.941663	0.686565
	H6308	H	0.498511	0.064250	0.688787
	H6309	H	0.498499	0.941319	0.688805
	H6310	H	0.343333	0.064592	0.696225
	H6311	H	0.343296	0.941621	0.696175
	H6312	H	0.344507	0.064951	0.694466
	H6313	H	0.344557	0.941157	0.694515
	H6314	H	0.341987	0.064707	0.692303
	H6315	H	0.342020	0.941248	0.692349
	H6316	H	0.341522	0.440858	0.700528
	H6317	H	0.349122	0.441396	0.698385
	H6318	H	0.331486	0.441227	0.696402
	H6319	H	0.494937	0.441373	0.686803
	H6320	H	0.497326	0.441265	0.687930
	H6321	H	0.497114	0.440759	0.689179
	H6322	H	0.349156	0.564202	0.698408
	H6323	H	0.341555	0.564827	0.700554
	H6324	H	0.497116	0.564346	0.689078
	H6325	H	0.497249	0.564308	0.687931
	H6326	H	0.495010	0.564739	0.686824
	H6327	H	0.331363	0.564961	0.696405
	H6328	H	0.470131	0.644696	0.712146
	H6329	H	0.470576	0.861958	0.712271
	H6330	H	0.470473	0.144953	0.712282
	H6331	H	0.469958	0.360818	0.712108
	H6332	H	0.380819	0.643244	0.656628
	H6333	H	0.438785	0.643988	0.653755
	H6334	H	0.438826	0.861725	0.653709
	H6335	H	0.380539	0.862493	0.656502
	H6336	H	0.458791	0.644181	0.666947
	H6337	H	0.458813	0.861490	0.666954
	H6338	H	0.457388	0.644604	0.726964
	H6339	H	0.457819	0.862086	0.727091
	H6340	H	0.402994	0.441078	0.628115
	H6341	H	0.434883	0.441339	0.751963
	H6342	H	0.408943	0.440880	0.630765
	H6343	H	0.408524	0.440946	0.633936
	H6344	H	0.433210	0.440753	0.749459
	H6345	H	0.434997	0.441462	0.750215
	H6346	H	0.434743	0.564839	0.751885
	H6347	H	0.402994	0.564532	0.628119
	H6348	H	0.434953	0.564582	0.750234
	H6349	H	0.433219	0.564660	0.749451
	H6350	H	0.408465	0.564472	0.633891
	H6351	H	0.408853	0.564615	0.630801
	H6352	H	0.457763	0.144895	0.727128
	H6353	H	0.457287	0.360911	0.726968
	H6354	H	0.400945	0.064483	0.630645
	H6355	H	0.400293	0.064299	0.631969
	H6356	H	0.404008	0.064594	0.630249
	H6357	H	0.396576	0.861756	0.729472
	H6358	H	0.396618	0.644970	0.729523
	H6359	H	0.396644	0.361809	0.729433
	H6360	H	0.396614	0.144920	0.729508
	H6361	H	0.380335	0.143159	0.656465
	H6362	H	0.438868	0.144673	0.653696
	H6363	H	0.438822	0.360881	0.653687
	H6364	H	0.380753	0.362162	0.656553
	H6365	H	0.458907	0.144371	0.666862
	H6366	H	0.458781	0.360577	0.666890
	H6367	H	0.435284	0.064970	0.750362
	H6368	H	0.433576	0.064817	0.749425
	H6369	H	0.430660	0.064729	0.749889
	H6370	H	0.400167	0.941505	0.631970
	H6371	H	0.400830	0.941502	0.630583
	H6372	H	0.404084	0.940713	0.630210
	H6373	H	0.435304	0.941040	0.750401
	H6374	H	0.433597	0.941187	0.749445
	H6375	H	0.430592	0.941482	0.749880
	Zn6376	Zn	0.340916	0.680225	0.694422
	Zn6377	Zn	0.340910	0.825802	0.694398
	Zn6378	Zn	0.340865	0.180197	0.694353
	Zn6379	Zn	0.340876	0.325764	0.694339
	Zn6380	Zn	0.432754	0.680171	0.750889
	Zn6381	Zn	0.432847	0.825998	0.750924
	Zn6382	Zn	0.432816	0.180068	0.750910
	Zn6383	Zn	0.432919	0.325749	0.750959
	C6384	C	0.472201	0.752918	0.675567
	C6385	C	0.363216	0.753261	0.707606
	C6386	C	0.375337	0.753296	0.715519
	C6387	C	0.381035	0.691937	0.719252
	C6388	C	0.380997	0.814722	0.719219
	C6389	C	0.363192	0.252892	0.707620
	C6390	C	0.375357	0.253154	0.715519
	C6391	C	0.380996	0.191965	0.719271
	C6392	C	0.381007	0.314531	0.719228
	C6393	C	0.361586	0.753110	0.681901
	C6394	C	0.369343	0.753116	0.672977
	C6395	C	0.372384	0.815004	0.668587
	C6396	C	0.372532	0.691092	0.668656
	C6397	C	0.361578	0.252898	0.681882
	C6398	C	0.369368	0.252788	0.672975
	C6399	C	0.372479	0.314691	0.668613
	C6400	C	0.372284	0.190794	0.668559
	C6401	C	0.495222	0.043464	0.686898
	C6402	C	0.495236	0.962467	0.686896
	C6403	C	0.343069	0.043484	0.695082
	C6404	C	0.343067	0.962630	0.695086
	C6405	C	0.340459	0.043468	0.692884
	C6406	C	0.340485	0.962684	0.692884
	C6407	C	0.344120	0.462435	0.698122
	C6408	C	0.494249	0.462433	0.687397
	C6409	C	0.496612	0.462461	0.688485
	C6410	C	0.344121	0.543245	0.698137
	C6411	C	0.496626	0.543012	0.688476
	C6412	C	0.494300	0.543430	0.687402
	C6413	C	0.478806	0.753323	0.702486
	C6414	C	0.478702	0.252937	0.702516
	C6415	C	0.470973	0.753399	0.711321
	C6416	C	0.467339	0.691852	0.715465
	C6417	C	0.467587	0.814891	0.715536
	C6418	C	0.470936	0.252892	0.711366
	C6419	C	0.467523	0.191733	0.715567
	C6420	C	0.467253	0.314081	0.715472
	C6421	C	0.472155	0.252572	0.675594
	C6422	C	0.425407	0.752768	0.645027
	C6423	C	0.387404	0.752785	0.646225
	C6424	C	0.409893	0.753201	0.738191
	C6425	C	0.454357	0.691310	0.663985
	C6426	C	0.454383	0.814437	0.663972
	C6427	C	0.437590	0.752871	0.652907
	C6428	C	0.381150	0.752866	0.655589
	C6429	C	0.378386	0.690956	0.660045
	C6430	C	0.443230	0.691340	0.656673
	C6431	C	0.443252	0.814429	0.656647
	C6432	C	0.378233	0.814886	0.659981
	C6433	C	0.460015	0.752901	0.667696
	C6434	C	0.449003	0.753176	0.736702
	C6435	C	0.460303	0.691756	0.723689
	C6436	C	0.460540	0.814887	0.723760
	C6437	C	0.456856	0.753330	0.727900
	C6438	C	0.433619	0.462685	0.751854
	C6439	C	0.407199	0.462297	0.632197
	C6440	C	0.433800	0.462522	0.750118
	C6441	C	0.433569	0.543474	0.751837
	C6442	C	0.433750	0.543306	0.750125
	C6443	C	0.407153	0.543275	0.632201
	C6444	C	0.449128	0.252972	0.736772
	C6445	C	0.460552	0.191696	0.723813
	C6446	C	0.460296	0.314134	0.723724
	C6447	C	0.456936	0.252868	0.727963
	C6448	C	0.401164	0.042933	0.631442
	C6449	C	0.425515	0.252860	0.644999
	C6450	C	0.387380	0.252720	0.646183
	C6451	C	0.410022	0.253393	0.738164
	C6452	C	0.454353	0.191377	0.663979
	C6453	C	0.454304	0.313668	0.663986
	C6454	C	0.437626	0.252838	0.652892
	C6455	C	0.381033	0.252746	0.655527
	C6456	C	0.397728	0.753390	0.730319
	C6457	C	0.392108	0.814729	0.726551
	C6458	C	0.392135	0.692050	0.726587
	C6459	C	0.397812	0.253336	0.730316
	C6460	C	0.392148	0.314599	0.726551
	C6461	C	0.392138	0.192063	0.726587
	C6462	C	0.378096	0.190758	0.659930
	C6463	C	0.443282	0.191589	0.656636
	C6464	C	0.443232	0.313836	0.656642
	C6465	C	0.378299	0.314640	0.659988
	C6466	C	0.459977	0.252481	0.667722
	C6467	C	0.433994	0.043483	0.750189
	C6468	C	0.404371	0.043229	0.631067
	C6469	C	0.401108	0.962496	0.631425
	C6470	C	0.433996	0.962531	0.750189
	C6471	C	0.404393	0.962259	0.631057
	N6472	N	0.340737	0.070192	0.694382
	N6473	N	0.340751	0.935692	0.694393
	N6474	N	0.340787	0.435881	0.694369
	N6475	N	0.340823	0.570379	0.694370
	N6476	N	0.432856	0.435788	0.750971
	N6477	N	0.432794	0.570248	0.750936
	N6478	N	0.432795	0.070179	0.750923
	N6479	N	0.432822	0.935772	0.750947
	O6480	O	0.507545	0.694585	0.797014
	O6481	O	0.507568	0.810641	0.796979
	O6482	O	0.388493	0.695302	0.823081
	O6483	O	0.388246	0.811315	0.823135
	O6484	O	0.388279	0.195163	0.823157
	O6485	O	0.388359	0.311190	0.823013
	O6486	O	0.383536	0.694795	0.802646
	O6487	O	0.383224	0.810477	0.802537
	O6488	O	0.383350	0.194576	0.802517
	O6489	O	0.383468	0.310559	0.802598
	O6490	O	0.507861	0.694324	0.816373
	O6491	O	0.507976	0.810868	0.816405
	O6492	O	0.507797	0.194423	0.816414
	O6493	O	0.507936	0.311072	0.816508
	O6494	O	0.507484	0.194535	0.797007
	O6495	O	0.507549	0.310725	0.797015
	O6496	O	0.450936	0.695071	0.760581
	O6497	O	0.419605	0.694861	0.761757
	O6498	O	0.475841	0.694624	0.858930
	O6499	O	0.475819	0.811015	0.858866
	O6500	O	0.444948	0.695124	0.859451
	O6501	O	0.444959	0.811423	0.859517
	O6502	O	0.419695	0.810796	0.761761
	O6503	O	0.450956	0.811139	0.760612
	O6504	O	0.450882	0.195046	0.760658
	O6505	O	0.419762	0.194721	0.761769
	O6506	O	0.475774	0.194475	0.858935
	O6507	O	0.475927	0.310872	0.858961
	O6508	O	0.444851	0.194910	0.859515
	O6509	O	0.444958	0.311133	0.859506
	O6510	O	0.419702	0.310682	0.761737
	O6511	O	0.451105	0.311130	0.760626
	H6512	H	0.406605	0.645522	0.834715
	H6513	H	0.406592	0.861896	0.834750
	H6514	H	0.406525	0.145157	0.834718
	H6515	H	0.406606	0.361846	0.834688
	H6516	H	0.395220	0.860767	0.789607
	H6517	H	0.395032	0.644804	0.789553
	H6518	H	0.395109	0.360532	0.789549
	H6519	H	0.395099	0.145042	0.789531
	H6520	H	0.521524	0.064346	0.810066
	H6521	H	0.526735	0.064537	0.810860
	H6522	H	0.526686	0.940837	0.810841
	H6523	H	0.521556	0.941094	0.810056
	H6524	H	0.519060	0.064605	0.805967
	H6525	H	0.519114	0.941341	0.805911
	H6526	H	0.371706	0.064528	0.812543
	H6527	H	0.371498	0.941013	0.812485
	H6528	H	0.370020	0.064507	0.812084
	H6529	H	0.369833	0.941391	0.812119
	H6530	H	0.368078	0.065032	0.812970
	H6531	H	0.368050	0.941107	0.813001
	H6532	H	0.374272	0.441134	0.812068
	H6533	H	0.370887	0.441372	0.810565
	H6534	H	0.373848	0.440923	0.815333
	H6535	H	0.524028	0.441207	0.806006
	H6536	H	0.526470	0.441163	0.806272
	H6537	H	0.527191	0.441040	0.807215
	H6538	H	0.370926	0.564522	0.810566
	H6539	H	0.374326	0.564399	0.812041
	H6540	H	0.527305	0.564662	0.807218
	H6541	H	0.526500	0.564369	0.806205
	H6542	H	0.524120	0.564778	0.805986
	H6543	H	0.373985	0.564815	0.815365
	H6544	H	0.496013	0.643027	0.829522
	H6545	H	0.495859	0.861999	0.829459
	H6546	H	0.495706	0.143004	0.829476
	H6547	H	0.496203	0.361974	0.829639
	H6548	H	0.407858	0.645168	0.774748
	H6549	H	0.469130	0.644635	0.772239
	H6550	H	0.469168	0.861282	0.772256
	H6551	H	0.408024	0.860448	0.774802
	H6552	H	0.489283	0.644524	0.785406
	H6553	H	0.489332	0.860809	0.785375
	H6554	H	0.485304	0.643085	0.844965
	H6555	H	0.485153	0.861950	0.844921
	H6556	H	0.432949	0.441643	0.752430
	H6557	H	0.461340	0.441270	0.869479
	H6558	H	0.430497	0.441600	0.751362
	H6559	H	0.430647	0.440719	0.750149
	H6560	H	0.463092	0.441030	0.870472
	H6561	H	0.462025	0.441598	0.870357
	H6562	H	0.461366	0.564496	0.869535
	H6563	H	0.432897	0.564623	0.752419
	H6564	H	0.462039	0.564130	0.870339
	H6565	H	0.463078	0.564675	0.870430
	H6566	H	0.430623	0.564805	0.750108
	H6567	H	0.430410	0.564274	0.751381
	H6568	H	0.484897	0.143012	0.844919
	H6569	H	0.485421	0.362100	0.845098
	H6570	H	0.432537	0.064690	0.752526
	H6571	H	0.434663	0.064802	0.752185
	H6572	H	0.430132	0.064966	0.751203
	H6573	H	0.426757	0.861916	0.847904
	H6574	H	0.426778	0.645274	0.847829
	H6575	H	0.426819	0.361733	0.847834
	H6576	H	0.426707	0.145073	0.847845
	H6577	H	0.408007	0.145155	0.774737
	H6578	H	0.469139	0.144650	0.772245
	H6579	H	0.469180	0.360851	0.772266
	H6580	H	0.407999	0.360603	0.774764
	H6581	H	0.489373	0.144221	0.785354
	H6582	H	0.489393	0.361175	0.785378
	H6583	H	0.466211	0.064444	0.873881
	H6584	H	0.470135	0.065334	0.870975
	H6585	H	0.466533	0.065010	0.865933
	H6586	H	0.434592	0.941391	0.752186
	H6587	H	0.432509	0.941608	0.752522
	H6588	H	0.430229	0.941779	0.751216
	H6589	H	0.466278	0.941063	0.873875
	H6590	H	0.470179	0.940634	0.870973
	H6591	H	0.466682	0.941415	0.865983
	Zn6592	Zn	0.370336	0.680098	0.813447
	Zn6593	Zn	0.370105	0.825900	0.813372
	Zn6594	Zn	0.370327	0.179986	0.813417
	Zn6595	Zn	0.370086	0.325745	0.813340
	Zn6596	Zn	0.462542	0.680307	0.869676
	Zn6597	Zn	0.462676	0.825385	0.869676
	Zn6598	Zn	0.462543	0.180304	0.869698
	Zn6599	Zn	0.462599	0.325272	0.869668
	C6600	C	0.502759	0.752545	0.794017
	C6601	C	0.393169	0.753472	0.826076
	C6602	C	0.405431	0.753642	0.833921
	C6603	C	0.411096	0.692429	0.837634
	C6604	C	0.411079	0.814870	0.837664
	C6605	C	0.393088	0.253363	0.826091
	C6606	C	0.405366	0.253612	0.833924
	C6607	C	0.411043	0.192248	0.837643
	C6608	C	0.411086	0.314855	0.837627
	C6609	C	0.386505	0.752620	0.799233
	C6610	C	0.394398	0.752722	0.790440
	C6611	C	0.398035	0.813825	0.786302
	C6612	C	0.397928	0.691656	0.786271
	C6613	C	0.386501	0.252634	0.799197
	C6614	C	0.394448	0.252710	0.790409
	C6615	C	0.398026	0.313847	0.786263
	C6616	C	0.398026	0.191680	0.786244
	C6617	C	0.524445	0.043197	0.809598
	C6618	C	0.524429	0.962448	0.809598
	C6619	C	0.370658	0.043059	0.812602
	C6620	C	0.370558	0.962535	0.812591
	C6621	C	0.368752	0.043459	0.813486
	C6622	C	0.368742	0.962361	0.813490
	C6623	C	0.371941	0.462477	0.811827
	C6624	C	0.524015	0.462557	0.806636
	C6625	C	0.526466	0.462509	0.806864
	C6626	C	0.371993	0.543218	0.811842
	C6627	C	0.526523	0.543215	0.806843
	C6628	C	0.524038	0.543404	0.806615
	C6629	C	0.504440	0.752606	0.819653
	C6630	C	0.504409	0.252680	0.819733
	C6631	C	0.496622	0.752519	0.828548
	C6632	C	0.493520	0.690695	0.832922
	C6633	C	0.493465	0.814371	0.832900
	C6634	C	0.496521	0.252575	0.828613
	C6635	C	0.493299	0.190610	0.832931
	C6636	C	0.493575	0.314463	0.833020
	C6637	C	0.502730	0.252692	0.794017
	C6638	C	0.455746	0.753038	0.763583
	C6639	C	0.416504	0.752844	0.765111
	C6640	C	0.440167	0.753392	0.856499
	C6641	C	0.484834	0.691486	0.782468
	C6642	C	0.484860	0.813902	0.782450
	C6643	C	0.467996	0.752939	0.771425
	C6644	C	0.408600	0.752838	0.773899
	C6645	C	0.404992	0.691764	0.778057
	C6646	C	0.473637	0.691566	0.775175
	C6647	C	0.473666	0.814112	0.775160
	C6648	C	0.405095	0.813839	0.778093
	C6649	C	0.490533	0.752642	0.786176
	C6650	C	0.478358	0.752713	0.855274
	C6651	C	0.487620	0.690703	0.841524
	C6652	C	0.487543	0.814363	0.841494
	C6653	C	0.484752	0.752553	0.845955
	C6654	C	0.461960	0.462452	0.869365
	C6655	C	0.431165	0.462459	0.750805
	C6656	C	0.462629	0.462435	0.870210
	C6657	C	0.461959	0.543422	0.869352
	C6658	C	0.462622	0.543235	0.870207
	C6659	C	0.431133	0.543321	0.750779
	C6660	C	0.478352	0.252632	0.855328
	C6661	C	0.487385	0.190704	0.841523
	C6662	C	0.487672	0.314466	0.841625
	C6663	C	0.484670	0.252580	0.846004
	C6664	C	0.433360	0.043378	0.751989
	C6665	C	0.455749	0.252922	0.763631
	C6666	C	0.416606	0.252724	0.765101
	C6667	C	0.440114	0.253141	0.856526
	C6668	C	0.484832	0.191366	0.782457
	C6669	C	0.484872	0.314093	0.782467
	C6670	C	0.468007	0.252740	0.771458
	C6671	C	0.408721	0.252767	0.773896
	C6672	C	0.427938	0.753577	0.848655
	C6673	C	0.422271	0.814954	0.844956
	C6674	C	0.422272	0.692288	0.844927
	C6675	C	0.427892	0.253405	0.848674
	C6676	C	0.422277	0.314738	0.844921
	C6677	C	0.422232	0.192124	0.844929
	C6678	C	0.405149	0.191740	0.778045
	C6679	C	0.473660	0.191463	0.775169
	C6680	C	0.473694	0.313955	0.775177
	C6681	C	0.405142	0.313875	0.778063
	C6682	C	0.490511	0.252723	0.786177
	C6683	C	0.466769	0.043494	0.871693
	C6684	C	0.431028	0.043625	0.750660
	C6685	C	0.433378	0.962712	0.751988
	C6686	C	0.466797	0.962336	0.871684
	C6687	C	0.431056	0.962820	0.750662
	N6688	N	0.370201	0.069985	0.813401
	N6689	N	0.370108	0.935533	0.813377
	N6690	N	0.370103	0.435672	0.813366
	N6691	N	0.370230	0.570146	0.813415
	N6692	N	0.462663	0.435641	0.869724
	N6693	N	0.462643	0.570228	0.869698
	N6694	N	0.462609	0.070164	0.869682
	N6695	N	0.462692	0.935622	0.869668
	O6696	O	0.464440	0.695107	0.929122
	O6697	O	0.464514	0.811850	0.929148
	O6698	O	0.412527	0.694840	0.944586
	O6699	O	0.412501	0.811663	0.944576
	O6700	O	0.412552	0.193821	0.944575
	O6701	O	0.412627	0.310660	0.944545
	O6702	O	0.413264	0.694784	0.921415
	O6703	O	0.413085	0.811176	0.921360
	O6704	O	0.413094	0.194039	0.921323
	O6705	O	0.413053	0.310630	0.921306
	O6706	O	0.463931	0.695229	0.952307
	O6707	O	0.464024	0.811567	0.952385
	O6708	O	0.464046	0.194769	0.952317
	O6709	O	0.463949	0.311266	0.952309
	O6710	O	0.464566	0.194361	0.929076
	O6711	O	0.464470	0.311081	0.929080
	O6712	O	0.475080	0.694426	0.882125
	O6713	O	0.445189	0.694570	0.878858
	O6714	O	0.431742	0.694420	0.994788
	O6715	O	0.431741	0.811131	0.994800
	O6716	O	0.401751	0.694849	0.991620
	O6717	O	0.401918	0.811801	0.991611
	O6718	O	0.445331	0.811315	0.878925
	O6719	O	0.475124	0.811390	0.882113
	O6720	O	0.475225	0.194148	0.882064
	O6721	O	0.445332	0.194588	0.878905
	O6722	O	0.431884	0.195017	0.994807
	O6723	O	0.431687	0.311508	0.994731
	O6724	O	0.401939	0.193934	0.991566
	O6725	O	0.401952	0.310932	0.991588
	O6726	O	0.445315	0.311264	0.878922
	O6727	O	0.475154	0.311148	0.882108
	H6728	H	0.409830	0.643213	0.959816
	H6729	H	0.409904	0.863247	0.959754
	H6730	H	0.410003	0.142406	0.959747
	H6731	H	0.409965	0.362438	0.959750
	H6732	H	0.422306	0.862361	0.907369
	H6733	H	0.422823	0.643402	0.907522
	H6734	H	0.422369	0.361868	0.907400
	H6735	H	0.422514	0.142751	0.907412
	H6736	H	0.475944	0.064754	0.939437
	H6737	H	0.473706	0.064672	0.940572
	H6738	H	0.473716	0.941016	0.940618
	H6739	H	0.475899	0.940634	0.939538
	H6740	H	0.479893	0.064870	0.940298
	H6741	H	0.479910	0.941576	0.940332
	H6742	H	0.409239	0.064676	0.935568
	H6743	H	0.409165	0.940977	0.935545
	H6744	H	0.409872	0.064365	0.930301
	H6745	H	0.409798	0.940799	0.930344
	H6746	H	0.399677	0.064690	0.925770
	H6747	H	0.399746	0.941087	0.925783
	H6748	H	0.399430	0.441529	0.934113
	H6749	H	0.402301	0.441005	0.933864
	H6750	H	0.396694	0.441099	0.932278
	H6751	H	0.484095	0.441063	0.940546
	H6752	H	0.481455	0.441645	0.945186
	H6753	H	0.475406	0.441105	0.945769
	H6754	H	0.402281	0.564742	0.933840
	H6755	H	0.399441	0.564483	0.934142
	H6756	H	0.475369	0.564847	0.945698
	H6757	H	0.481408	0.564869	0.945183
	H6758	H	0.484030	0.564216	0.940582
	H6759	H	0.396594	0.564296	0.932296
	H6760	H	0.454665	0.643654	0.966267
	H6761	H	0.454540	0.862619	0.966304
	H6762	H	0.454727	0.143593	0.966260
	H6763	H	0.454596	0.362871	0.966219
	H6764	H	0.433562	0.643343	0.892062
	H6765	H	0.472346	0.643133	0.897321
	H6766	H	0.472621	0.863246	0.897315
	H6767	H	0.433059	0.862343	0.891922
	H6768	H	0.466952	0.643364	0.913935
	H6769	H	0.467205	0.863377	0.913932
	H6770	H	0.443826	0.643237	0.981690
	H6771	H	0.443715	0.862456	0.981716
	H6772	H	0.461946	0.440933	0.869002
	H6773	H	0.420863	0.441727	1.003067
	H6774	H	0.463488	0.440992	0.869133
	H6775	H	0.463918	0.441204	0.869722
	H6776	H	0.409539	0.440802	1.001042
	H6777	H	0.414729	0.441401	1.000027
	H6778	H	0.420809	0.564720	1.003012
	H6779	H	0.461986	0.564884	0.868969
	H6780	H	0.414696	0.564299	1.000000
	H6781	H	0.409423	0.564346	1.001057
	H6782	H	0.463977	0.564494	0.869737
	H6783	H	0.463480	0.564771	0.869108
	H6784	H	0.443841	0.143723	0.981689
	H6785	H	0.443730	0.363072	0.981631
	H6786	H	0.454982	0.064659	0.869126
	H6787	H	0.457477	0.064191	0.872818
	H6788	H	0.460220	0.064274	0.865256
	H6789	H	0.404605	0.863443	0.976394
	H6790	H	0.404511	0.643412	0.976444
	H6791	H	0.404559	0.362490	0.976346
	H6792	H	0.404573	0.142521	0.976382
	H6793	H	0.433417	0.142868	0.891991
	H6794	H	0.472503	0.142462	0.897270
	H6795	H	0.472539	0.362390	0.897303
	H6796	H	0.433312	0.362064	0.891994
	H6797	H	0.467100	0.142707	0.913894
	H6798	H	0.467155	0.362234	0.913906
	H6799	H	0.412004	0.064707	1.005848
	H6800	H	0.415357	0.064358	1.006469
	H6801	H	0.418538	0.064959	1.004521
	H6802	H	0.457523	0.941380	0.872805
	H6803	H	0.455015	0.941617	0.869118
	H6804	H	0.460338	0.941661	0.865238
	H6805	H	0.411973	0.941191	1.005901
	H6806	H	0.415366	0.941214	1.006468
	H6807	H	0.418584	0.941448	1.004576
	Zn6808	Zn	0.399985	0.680311	0.932158
	Zn6809	Zn	0.399894	0.825335	0.932147
	Zn6810	Zn	0.399927	0.180126	0.932102
	Zn6811	Zn	0.400059	0.325456	0.932150
	Zn6812	Zn	0.414461	0.680346	1.003993
	Zn6813	Zn	0.414526	0.825762	1.004001
	Zn6814	Zn	0.414546	0.180394	1.004001
	Zn6815	Zn	0.414427	0.325708	1.003969
	C6816	C	0.464721	0.753511	0.925119
	C6817	C	0.412294	0.753256	0.948587
	C6818	C	0.410372	0.753231	0.958789
	C6819	C	0.408732	0.691028	0.963511
	C6820	C	0.408785	0.815490	0.963476
	C6821	C	0.412353	0.252287	0.948568
	C6822	C	0.410482	0.252361	0.958759
	C6823	C	0.408810	0.190167	0.963448
	C6824	C	0.408803	0.314600	0.963442
	C6825	C	0.415691	0.752980	0.917774
	C6826	C	0.422007	0.752986	0.908423
	C6827	C	0.424738	0.814837	0.903953
	C6828	C	0.425015	0.690965	0.904037
	C6829	C	0.415595	0.252274	0.917713
	C6830	C	0.421998	0.252311	0.908406
	C6831	C	0.424825	0.314288	0.903984
	C6832	C	0.424886	0.190389	0.903980
	C6833	C	0.475350	0.043578	0.940405
	C6834	C	0.475363	0.962323	0.940425
	C6835	C	0.407044	0.043204	0.932721
	C6836	C	0.407020	0.962316	0.932727
	C6837	C	0.396885	0.043143	0.928167
	C6838	C	0.396922	0.962316	0.928171
	C6839	C	0.400706	0.462613	0.933498
	C6840	C	0.480695	0.462392	0.939706
	C6841	C	0.478036	0.462372	0.944418
	C6842	C	0.400701	0.543349	0.933497
	C6843	C	0.477995	0.543307	0.944409
	C6844	C	0.480664	0.543204	0.939723
	C6845	C	0.461435	0.753348	0.955956
	C6846	C	0.461477	0.253000	0.955916
	C6847	C	0.455069	0.753205	0.965281
	C6848	C	0.452278	0.691188	0.969710
	C6849	C	0.452208	0.814966	0.969738
	C6850	C	0.455055	0.253118	0.965235
	C6851	C	0.452279	0.191238	0.969693
	C6852	C	0.452207	0.315172	0.969660
	C6853	C	0.464730	0.252755	0.925059
	C6854	C	0.474878	0.752923	0.886117
	C6855	C	0.441764	0.752940	0.882143
	C6856	C	0.402057	0.753333	0.987609
	C6857	C	0.468181	0.691101	0.910237
	C6858	C	0.468345	0.815567	0.910238
	C6859	C	0.472982	0.753119	0.896310
	C6860	C	0.433879	0.752879	0.891027
	C6861	C	0.430928	0.690950	0.895440
	C6862	C	0.471252	0.691000	0.901019
	C6863	C	0.471425	0.815369	0.901021
	C6864	C	0.430664	0.814811	0.895360
	C6865	C	0.466629	0.753396	0.914926
	C6866	C	0.435200	0.752790	0.991527
	C6867	C	0.446343	0.690950	0.978303
	C6868	C	0.446269	0.814837	0.978320
	C6869	C	0.443122	0.752835	0.982660
	C6870	C	0.418836	0.462526	1.004538
	C6871	C	0.463489	0.462505	0.869484
	C6872	C	0.412688	0.462424	1.001448
	C6873	C	0.418856	0.543365	1.004520
	C6874	C	0.412644	0.543205	1.001448
	C6875	C	0.463473	0.543241	0.869488
	C6876	C	0.435236	0.253304	0.991484
	C6877	C	0.446329	0.191336	0.978277
	C6878	C	0.446254	0.315255	0.978246
	C6879	C	0.443125	0.253267	0.982612
	C6880	C	0.457940	0.043230	0.870643
	C6881	C	0.474937	0.252576	0.886086
	C6882	C	0.441850	0.252859	0.882190
	C6883	C	0.402201	0.252435	0.987580
	C6884	C	0.468287	0.190348	0.910175
	C6885	C	0.468315	0.314608	0.910192
	C6886	C	0.473023	0.252433	0.896265
	C6887	C	0.433963	0.252520	0.891060
	C6888	C	0.403981	0.753496	0.977406
	C6889	C	0.405667	0.815578	0.972691
	C6890	C	0.405622	0.691149	0.972730
	C6891	C	0.404121	0.252420	0.977367
	C6892	C	0.405731	0.314633	0.972658
	C6893	C	0.405739	0.190219	0.972664
	C6894	C	0.430866	0.190470	0.895403
	C6895	C	0.471373	0.190294	0.900960
	C6896	C	0.471402	0.314528	0.900983
	C6897	C	0.430802	0.314404	0.895407
	C6898	C	0.466627	0.252524	0.914860
	C6899	C	0.413858	0.043273	1.005594
	C6900	C	0.463264	0.043474	0.866662
	C6901	C	0.457990	0.962642	0.870622
	C6902	C	0.413836	0.962470	1.005622
	C6903	C	0.463314	0.962720	0.866658
	N6904	N	0.399992	0.069881	0.932110
	N6905	N	0.399996	0.935331	0.932121
	N6906	N	0.400154	0.435690	0.932143
	N6907	N	0.400114	0.570222	0.932129
	N6908	N	0.414356	0.435767	1.003998
	N6909	N	0.414366	0.570260	1.003986
	N6910	N	0.414428	0.070197	1.004012
	N6911	N	0.414448	0.935675	1.004023
	O6912	O	0.644818	0.694859	0.043508
	O6913	O	0.644877	0.811247	0.043492
	O6914	O	0.525691	0.695098	0.069533
	O6915	O	0.525598	0.811180	0.069664
	O6916	O	0.525484	0.194799	0.069709
	O6917	O	0.525732	0.310907	0.069539
	O6918	O	0.520587	0.695047	0.049117
	O6919	O	0.520478	0.811129	0.049088
	O6920	O	0.520503	0.194999	0.049080
	O6921	O	0.520613	0.311078	0.049129
	O6922	O	0.645285	0.694741	0.062934
	O6923	O	0.645297	0.811307	0.062872
	O6924	O	0.645184	0.194332	0.062831
	O6925	O	0.645225	0.310956	0.062879
	O6926	O	0.644937	0.194472	0.043483
	O6927	O	0.644923	0.310817	0.043514
	O6928	O	0.588219	0.694642	0.007165
	O6929	O	0.556799	0.694880	0.008301
	O6930	O	0.613206	0.695114	0.105385
	O6931	O	0.613104	0.811671	0.105345
	O6932	O	0.582310	0.694553	0.105940
	O6933	O	0.582214	0.810993	0.106002
	O6934	O	0.556891	0.810951	0.008325
	O6935	O	0.588188	0.811040	0.007169
	O6936	O	0.588262	0.194859	0.007129
	O6937	O	0.556902	0.194618	0.008326
	O6938	O	0.613153	0.194547	0.105389
	O6939	O	0.613237	0.310970	0.105381
	O6940	O	0.582335	0.195071	0.105906
	O6941	O	0.582285	0.311322	0.105946
	O6942	O	0.556954	0.310992	0.008320
	O6943	O	0.588149	0.310793	0.007157
	H6944	H	0.543913	0.644077	0.081211
	H6945	H	0.543855	0.861489	0.081299
	H6946	H	0.543772	0.144738	0.081254
	H6947	H	0.543956	0.361186	0.081180
	H6948	H	0.532273	0.860648	0.036098
	H6949	H	0.532418	0.645163	0.036154
	H6950	H	0.532351	0.361797	0.036119
	H6951	H	0.532267	0.144275	0.036092
	H6952	H	0.659642	0.064304	0.055144
	H6953	H	0.662687	0.064273	0.056129
	H6954	H	0.662727	0.940593	0.056129
	H6955	H	0.659652	0.940911	0.055133
	H6956	H	0.659141	0.064164	0.052363
	H6957	H	0.659151	0.941107	0.052415
	H6958	H	0.507088	0.064565	0.060370
	H6959	H	0.507095	0.940954	0.060387
	H6960	H	0.507791	0.064743	0.060469
	H6961	H	0.507766	0.941618	0.060410
	H6962	H	0.508318	0.064522	0.059950
	H6963	H	0.508307	0.941504	0.059992
	H6964	H	0.507905	0.441450	0.059229
	H6965	H	0.506753	0.441324	0.059217
	H6966	H	0.508714	0.441243	0.060044
	H6967	H	0.657150	0.441095	0.052375
	H6968	H	0.662384	0.441353	0.050282
	H6969	H	0.666703	0.440772	0.051632
	H6970	H	0.506753	0.565175	0.059253
	H6971	H	0.507825	0.564314	0.059259
	H6972	H	0.666734	0.564735	0.051605
	H6973	H	0.662393	0.564594	0.050303
	H6974	H	0.657136	0.564367	0.052334
	H6975	H	0.508636	0.563724	0.060066
	H6976	H	0.633414	0.643749	0.076060
	H6977	H	0.632962	0.862460	0.075899
	H6978	H	0.633337	0.143053	0.075999
	H6979	H	0.633187	0.361929	0.075919
	H6980	H	0.545280	0.644970	0.021371
	H6981	H	0.606477	0.644037	0.018773
	H6982	H	0.606451	0.861974	0.018777
	H6983	H	0.545166	0.860874	0.021305
	H6984	H	0.626713	0.644303	0.031868
	H6985	H	0.626677	0.862283	0.031840
	H6986	H	0.622655	0.643896	0.091486
	H6987	H	0.622130	0.862471	0.091321
	H6988	H	0.571123	0.440733	-0.003475
	H6989	H	0.597390	0.441056	0.117240
	H6990	H	0.571875	0.440856	-0.002129
	H6991	H	0.570806	0.441371	-0.001464
	H6992	H	0.603080	0.440602	0.117039
	H6993	H	0.601077	0.440603	0.118052
	H6994	H	0.597277	0.564416	0.117258
	H6995	H	0.571188	0.564512	-0.003445
	H6996	H	0.601022	0.564058	0.118091
	H6997	H	0.603093	0.564203	0.117038
	H6998	H	0.570851	0.564436	-0.001429
	H6999	H	0.571905	0.564450	-0.002134
	H7000	H	0.622699	0.143239	0.091488
	H7001	H	0.622538	0.362089	0.091390
	H7002	H	0.565427	0.064746	-0.000780
	H7003	H	0.569554	0.064497	0.000825
	H7004	H	0.565411	0.064418	-0.004651
	H7005	H	0.563987	0.861337	0.094433
	H7006	H	0.564074	0.644220	0.094363
	H7007	H	0.564139	0.361201	0.094305
	H7008	H	0.563884	0.144706	0.094389
	H7009	H	0.545171	0.144278	0.021311
	H7010	H	0.606381	0.144637	0.018835
	H7011	H	0.606434	0.361120	0.018817
	H7012	H	0.545225	0.361868	0.021355
	H7013	H	0.626568	0.144513	0.031938
	H7014	H	0.626623	0.360995	0.031954
	H7015	H	0.599759	0.063971	0.117270
	H7016	H	0.601376	0.064673	0.117095
	H7017	H	0.601904	0.064586	0.115752
	H7018	H	0.569569	0.941600	0.000833
	H7019	H	0.565442	0.941008	-0.000776
	H7020	H	0.565365	0.940951	-0.004716
	H7021	H	0.599612	0.940866	0.117293
	H7022	H	0.601274	0.940789	0.117116
	H7023	H	0.601895	0.940740	0.115764
	Zn7024	Zn	0.507425	0.679989	0.059954
	Zn7025	Zn	0.507415	0.825600	0.059979
	Zn7026	Zn	0.507441	0.180083	0.059936
	Zn7027	Zn	0.507413	0.325636	0.059977
	Zn7028	Zn	0.599971	0.680357	0.116126
	Zn7029	Zn	0.599966	0.825345	0.116160
	Zn7030	Zn	0.599961	0.180338	0.116144
	Zn7031	Zn	0.599987	0.325392	0.116158
	C7032	C	0.640062	0.753128	0.040524
	C7033	C	0.530433	0.753065	0.072599
	C7034	C	0.542679	0.752852	0.080432
	C7035	C	0.548381	0.691351	0.084140
	C7036	C	0.548349	0.814199	0.084190
	C7037	C	0.530358	0.252893	0.072629
	C7038	C	0.542677	0.253041	0.080424
	C7039	C	0.548340	0.191732	0.084142
	C7040	C	0.548462	0.314199	0.084096
	C7041	C	0.523642	0.753052	0.045744
	C7042	C	0.531584	0.753014	0.036969
	C7043	C	0.535156	0.813954	0.032802
	C7044	C	0.535228	0.691934	0.032833
	C7045	C	0.523661	0.253095	0.045736
	C7046	C	0.531601	0.253071	0.036946
	C7047	C	0.535221	0.314751	0.032820
	C7048	C	0.535175	0.191363	0.032796
	C7049	C	0.661594	0.043127	0.055129
	C7050	C	0.661634	0.962270	0.055125
	C7051	C	0.507444	0.043443	0.060295
	C7052	C	0.507438	0.962475	0.060296
	C7053	C	0.507973	0.043337	0.059828
	C7054	C	0.507952	0.962424	0.059820
	C7055	C	0.507338	0.462482	0.059426
	C7056	C	0.658790	0.462345	0.053785
	C7057	C	0.664064	0.462281	0.051689
	C7058	C	0.507296	0.543346	0.059440
	C7059	C	0.664081	0.543234	0.051670
	C7060	C	0.658777	0.543106	0.053767
	C7061	C	0.641831	0.753107	0.066172
	C7062	C	0.641757	0.252598	0.066138
	C7063	C	0.633957	0.753164	0.075046
	C7064	C	0.630887	0.691311	0.079430
	C7065	C	0.630623	0.814976	0.079343
	C7066	C	0.633989	0.252545	0.075046
	C7067	C	0.630897	0.190646	0.079420
	C7068	C	0.630801	0.314409	0.079377
	C7069	C	0.640107	0.252657	0.040543
	C7070	C	0.592969	0.752902	0.010167
	C7071	C	0.553725	0.752929	0.011666
	C7072	C	0.577476	0.752818	0.102990
	C7073	C	0.622160	0.691522	0.028975
	C7074	C	0.622148	0.814828	0.028964
	C7075	C	0.605252	0.752997	0.017986
	C7076	C	0.545815	0.752963	0.020450
	C7077	C	0.542337	0.691735	0.024632
	C7078	C	0.610977	0.691367	0.021690
	C7079	C	0.610962	0.814713	0.021686
	C7080	C	0.542266	0.814114	0.024602
	C7081	C	0.627814	0.753278	0.032692
	C7082	C	0.615681	0.753368	0.101760
	C7083	C	0.624976	0.691370	0.088028
	C7084	C	0.624692	0.815028	0.087933
	C7085	C	0.622084	0.753314	0.092430
	C7086	C	0.597848	0.462368	0.116344
	C7087	C	0.570990	0.462301	-0.001993
	C7088	C	0.601573	0.462122	0.117190
	C7089	C	0.597815	0.543337	0.116344
	C7090	C	0.601567	0.542889	0.117210
	C7091	C	0.571003	0.543119	-0.001977
	C7092	C	0.615797	0.252748	0.101788
	C7093	C	0.625013	0.190821	0.088028
	C7094	C	0.624930	0.314409	0.087985
	C7095	C	0.622178	0.252729	0.092466
	C7096	C	0.568190	0.043316	-0.000642
	C7097	C	0.592960	0.252853	0.010164
	C7098	C	0.553795	0.252883	0.011659
	C7099	C	0.577505	0.253176	0.102958
	C7100	C	0.622121	0.191550	0.029004
	C7101	C	0.622170	0.314069	0.028996
	C7102	C	0.605250	0.252909	0.017984
	C7103	C	0.545887	0.253040	0.020449
	C7104	C	0.565214	0.752815	0.095168
	C7105	C	0.559518	0.814227	0.091481
	C7106	C	0.559560	0.691342	0.091437
	C7107	C	0.565280	0.253026	0.095108
	C7108	C	0.559661	0.314291	0.091372
	C7109	C	0.559537	0.191669	0.091416
	C7110	C	0.542316	0.191440	0.024607
	C7111	C	0.610918	0.191624	0.021719
	C7112	C	0.610975	0.314164	0.021707
	C7113	C	0.542349	0.314659	0.024629
	C7114	C	0.627857	0.252734	0.032699
	C7115	C	0.600448	0.042932	0.116916
	C7116	C	0.568155	0.043123	-0.004564
	C7117	C	0.568173	0.962435	-0.000656
	C7118	C	0.600382	0.962192	0.116918
	C7119	C	0.568158	0.962283	-0.004587
	N7120	N	0.507444	0.070139	0.059953
	N7121	N	0.507448	0.935657	0.059940
	N7122	N	0.507409	0.435647	0.059972
	N7123	N	0.507371	0.570152	0.059965
	N7124	N	0.600065	0.435395	0.116131
	N7125	N	0.600060	0.569990	0.116161
	N7126	N	0.600093	0.070060	0.116129
	N7127	N	0.600064	0.935500	0.116120
	O7128	O	0.602048	0.694315	0.175583
	O7129	O	0.601978	0.811177	0.175632
	O7130	O	0.549852	0.694592	0.191073
	O7131	O	0.550077	0.811386	0.191059
	O7132	O	0.549905	0.193945	0.191086
	O7133	O	0.549950	0.310970	0.191033
	O7134	O	0.550546	0.694860	0.167831
	O7135	O	0.550573	0.811107	0.167821
	O7136	O	0.550424	0.193768	0.167800
	O7137	O	0.550511	0.310385	0.167844
	O7138	O	0.601049	0.695082	0.198783
	O7139	O	0.600998	0.811551	0.198783
	O7140	O	0.601055	0.194505	0.198787
	O7141	O	0.601132	0.310888	0.198813
	O7142	O	0.601772	0.193812	0.175612
	O7143	O	0.601979	0.310898	0.175583
	O7144	O	0.612633	0.694551	0.128546
	O7145	O	0.582721	0.694421	0.125360
	O7146	O	0.569126	0.695065	0.241351
	O7147	O	0.569232	0.811701	0.241378
	O7148	O	0.539305	0.694288	0.238091
	O7149	O	0.539473	0.811111	0.238085
	O7150	O	0.582685	0.811049	0.125344
	O7151	O	0.612451	0.811367	0.128556
	O7152	O	0.612411	0.193999	0.128599
	O7153	O	0.582612	0.194440	0.125357
	O7154	O	0.569259	0.193788	0.241342
	O7155	O	0.569219	0.310639	0.241334
	O7156	O	0.539430	0.194417	0.238107
	O7157	O	0.539504	0.311195	0.238064
	O7158	O	0.582779	0.311232	0.125425
	O7159	O	0.612491	0.310711	0.128580
	H7160	H	0.547313	0.643252	0.206223
	H7161	H	0.547392	0.863124	0.206302
	H7162	H	0.547152	0.142648	0.206258
	H7163	H	0.547353	0.362818	0.206235
	H7164	H	0.559861	0.862322	0.153836
	H7165	H	0.559889	0.643469	0.153872
	H7166	H	0.560007	0.361816	0.154014
	H7167	H	0.559781	0.142689	0.153842
	H7168	H	0.621933	0.064495	0.185459
	H7169	H	0.615614	0.064556	0.182835
	H7170	H	0.615628	0.940708	0.182765
	H7171	H	0.621949	0.940886	0.185450
	H7172	H	0.621606	0.064112	0.191531
	H7173	H	0.621595	0.941045	0.191558
	H7174	H	0.536237	0.064208	0.176489
	H7175	H	0.536271	0.940812	0.176437
	H7176	H	0.533989	0.064485	0.177633
	H7177	H	0.533956	0.941271	0.177605
	H7178	H	0.534830	0.064192	0.180123
	H7179	H	0.534823	0.941182	0.180115
	H7180	H	0.540658	0.441240	0.179788
	H7181	H	0.540840	0.440818	0.177974
	H7182	H	0.536828	0.441588	0.180744
	H7183	H	0.617374	0.440956	0.191038
	H7184	H	0.610933	0.440795	0.190594
	H7185	H	0.608761	0.440824	0.187994
	H7186	H	0.540917	0.564241	0.178010
	H7187	H	0.540634	0.564846	0.179803
	H7188	H	0.608760	0.564492	0.188030
	H7189	H	0.611029	0.564349	0.190618
	H7190	H	0.617475	0.564018	0.191074
	H7191	H	0.536827	0.564225	0.180786
	H7192	H	0.591570	0.643934	0.212682
	H7193	H	0.591804	0.862702	0.212763
	H7194	H	0.591863	0.143187	0.212752
	H7195	H	0.591942	0.361797	0.212790
	H7196	H	0.570631	0.643377	0.138414
	H7197	H	0.609861	0.643280	0.143758
	H7198	H	0.610000	0.862985	0.143763
	H7199	H	0.570623	0.862274	0.138386
	H7200	H	0.604565	0.643166	0.160382
	H7201	H	0.604662	0.863124	0.160376
	H7202	H	0.580943	0.643825	0.228170
	H7203	H	0.581219	0.862722	0.228264
	H7204	H	0.596710	0.441634	0.115527
	H7205	H	0.549613	0.440739	0.244757
	H7206	H	0.599577	0.441702	0.114142
	H7207	H	0.602289	0.440925	0.114733
	H7208	H	0.544936	0.441152	0.254200
	H7209	H	0.542270	0.441245	0.249477
	H7210	H	0.549586	0.564444	0.244693
	H7211	H	0.596711	0.564585	0.115555
	H7212	H	0.542212	0.564375	0.249496
	H7213	H	0.544956	0.564811	0.254224
	H7214	H	0.602290	0.564618	0.114752
	H7215	H	0.599571	0.564662	0.114132
	H7216	H	0.581229	0.142908	0.228252
	H7217	H	0.581387	0.361734	0.228294
	H7218	H	0.598457	0.064835	0.115302
	H7219	H	0.598063	0.063996	0.116292
	H7220	H	0.600648	0.064579	0.115018
	H7221	H	0.542060	0.862700	0.222931
	H7222	H	0.541948	0.642826	0.222838
	H7223	H	0.542090	0.362933	0.222874
	H7224	H	0.541886	0.142760	0.222884
	H7225	H	0.570565	0.143289	0.138390
	H7226	H	0.609814	0.142563	0.143790
	H7227	H	0.609843	0.362586	0.143767
	H7228	H	0.570799	0.362376	0.138561
	H7229	H	0.604460	0.142478	0.160436
	H7230	H	0.604451	0.362553	0.160379
	H7231	H	0.549665	0.064618	0.250426
	H7232	H	0.550370	0.064535	0.251444
	H7233	H	0.552836	0.064399	0.251791
	H7234	H	0.597964	0.940866	0.116246
	H7235	H	0.598397	0.940929	0.115246
	H7236	H	0.600760	0.941095	0.115018
	H7237	H	0.549614	0.941020	0.250415
	H7238	H	0.550308	0.941468	0.251483
	H7239	H	0.552890	0.940896	0.251827
	Zn7240	Zn	0.537451	0.680223	0.178632
	Zn7241	Zn	0.537418	0.825147	0.178602
	Zn7242	Zn	0.537281	0.180046	0.178629
	Zn7243	Zn	0.537384	0.325100	0.178628
	Zn7244	Zn	0.551942	0.680199	0.250532
	Zn7245	Zn	0.551894	0.825356	0.250539
	Zn7246	Zn	0.551939	0.180073	0.250530
	Zn7247	Zn	0.551954	0.325514	0.250497
	C7248	C	0.602193	0.752847	0.171601
	C7249	C	0.549736	0.753066	0.195073
	C7250	C	0.547850	0.753151	0.205266
	C7251	C	0.546213	0.690917	0.209942
	C7252	C	0.546251	0.815227	0.209990
	C7253	C	0.549708	0.252584	0.195062
	C7254	C	0.547781	0.252773	0.205264
	C7255	C	0.546085	0.190526	0.209968
	C7256	C	0.546204	0.315028	0.209948
	C7257	C	0.553086	0.752901	0.164202
	C7258	C	0.559383	0.752877	0.154847
	C7259	C	0.562237	0.814688	0.150401
	C7260	C	0.562254	0.691053	0.150424
	C7261	C	0.553029	0.252075	0.164223
	C7262	C	0.559368	0.252230	0.154891
	C7263	C	0.562299	0.314360	0.150522
	C7264	C	0.562159	0.190409	0.150420
	C7265	C	0.617622	0.043203	0.185157
	C7266	C	0.617634	0.962090	0.185155
	C7267	C	0.535723	0.043092	0.177495
	C7268	C	0.535748	0.962131	0.177466
	C7269	C	0.536624	0.043081	0.179993
	C7270	C	0.536616	0.962082	0.179991
	C7271	C	0.539898	0.462190	0.178837
	C7272	C	0.617498	0.462455	0.189397
	C7273	C	0.611000	0.462059	0.188964
	C7274	C	0.539939	0.543194	0.178836
	C7275	C	0.611010	0.543112	0.188984
	C7276	C	0.617556	0.543015	0.189399
	C7277	C	0.598495	0.753327	0.202398
	C7278	C	0.598626	0.252665	0.202433
	C7279	C	0.592111	0.753395	0.211718
	C7280	C	0.589252	0.691488	0.216145
	C7281	C	0.589389	0.815194	0.216187
	C7282	C	0.592351	0.252513	0.211791
	C7283	C	0.589550	0.190633	0.216227
	C7284	C	0.589597	0.314326	0.216236
	C7285	C	0.602059	0.252282	0.171599
	C7286	C	0.612288	0.752909	0.132560
	C7287	C	0.579235	0.752731	0.128618
	C7288	C	0.539593	0.752634	0.234073
	C7289	C	0.605666	0.690963	0.156683
	C7290	C	0.605740	0.815270	0.156688
	C7291	C	0.610372	0.753031	0.142762
	C7292	C	0.571312	0.752796	0.137468
	C7293	C	0.568151	0.690959	0.141825
	C7294	C	0.608737	0.690892	0.147466
	C7295	C	0.608802	0.815242	0.147467
	C7296	C	0.568146	0.814700	0.141805
	C7297	C	0.604061	0.753128	0.161386
	C7298	C	0.572607	0.753350	0.238071
	C7299	C	0.583390	0.691445	0.224756
	C7300	C	0.583553	0.815174	0.224802
	C7301	C	0.580347	0.753339	0.229138
	C7302	C	0.553151	0.462244	0.246731
	C7303	C	0.600720	0.462465	0.114883
	C7304	C	0.545773	0.462575	0.251483
	C7305	C	0.553132	0.543251	0.246711
	C7306	C	0.545753	0.543315	0.251490
	C7307	C	0.600695	0.543244	0.114892
	C7308	C	0.572722	0.252186	0.238080
	C7309	C	0.583631	0.190492	0.224819
	C7310	C	0.583687	0.314226	0.224833
	C7311	C	0.580574	0.252291	0.229194
	C7312	C	0.598763	0.043289	0.115884
	C7313	C	0.612205	0.252364	0.132602
	C7314	C	0.579230	0.252860	0.128658
	C7315	C	0.539662	0.252764	0.234074
	C7316	C	0.605613	0.190303	0.156717
	C7317	C	0.605622	0.314761	0.156690
	C7318	C	0.610324	0.252455	0.142795
	C7319	C	0.571318	0.252843	0.137529
	C7320	C	0.541510	0.752691	0.223877
	C7321	C	0.543173	0.815003	0.219208
	C7322	C	0.543124	0.690680	0.219153
	C7323	C	0.541527	0.252862	0.223878
	C7324	C	0.543168	0.315043	0.219171
	C7325	C	0.543038	0.190552	0.219189
	C7326	C	0.568094	0.190754	0.141831
	C7327	C	0.608696	0.190284	0.147497
	C7328	C	0.608691	0.314770	0.147473
	C7329	C	0.568236	0.314663	0.141931
	C7330	C	0.603987	0.252514	0.161404
	C7331	C	0.550465	0.043166	0.250827
	C7332	C	0.601006	0.043148	0.115587
	C7333	C	0.598728	0.962291	0.115846
	C7334	C	0.550436	0.962502	0.250825
	C7335	C	0.601021	0.962317	0.115594
	N7336	N	0.537393	0.069991	0.178639
	N7337	N	0.537419	0.935464	0.178604
	N7338	N	0.537501	0.435199	0.178600
	N7339	N	0.537524	0.569772	0.178608
	N7340	N	0.551896	0.435673	0.250493
	N7341	N	0.551911	0.570197	0.250489
	N7342	N	0.551790	0.070056	0.250561
	N7343	N	0.551785	0.935543	0.250565
	O7344	O	0.621587	0.694658	0.299489
	O7345	O	0.621437	0.810844	0.299548
	O7346	O	0.506322	0.694588	0.323465
	O7347	O	0.506520	0.810884	0.323378
	O7348	O	0.506390	0.194621	0.323408
	O7349	O	0.506439	0.311000	0.323426
	O7350	O	0.506476	0.694073	0.303767
	O7351	O	0.506659	0.810691	0.303847
	O7352	O	0.506636	0.194651	0.303818
	O7353	O	0.506599	0.311371	0.303772
	O7354	O	0.621453	0.694508	0.319141
	O7355	O	0.621406	0.811142	0.319103
	O7356	O	0.621275	0.194543	0.319022
	O7357	O	0.621332	0.311265	0.319033
	O7358	O	0.621422	0.194836	0.299488
	O7359	O	0.621554	0.311105	0.299435
	O7360	O	0.569272	0.694729	0.260933
	O7361	O	0.538377	0.693901	0.261211
	O7362	O	0.589331	0.695032	0.361640
	O7363	O	0.589383	0.811280	0.361669
	O7364	O	0.558885	0.694689	0.361928
	O7365	O	0.558828	0.811147	0.361891
	O7366	O	0.538531	0.810378	0.261281
	O7367	O	0.568959	0.811015	0.261092
	O7368	O	0.568999	0.194624	0.261023
	O7369	O	0.538477	0.194825	0.261237
	O7370	O	0.589525	0.194366	0.361666
	O7371	O	0.589416	0.310862	0.361655
	O7372	O	0.558739	0.194849	0.361928
	O7373	O	0.558833	0.311054	0.361913
	O7374	O	0.538484	0.311249	0.261199
	O7375	O	0.569109	0.310977	0.260963
	H7376	H	0.523307	0.643717	0.335772
	H7377	H	0.523469	0.861242	0.335628
	H7378	H	0.523289	0.144660	0.335702
	H7379	H	0.523156	0.360765	0.335717
	H7380	H	0.518787	0.861690	0.290740
	H7381	H	0.518301	0.642929	0.290631
	H7382	H	0.518462	0.362273	0.290668
	H7383	H	0.518611	0.143225	0.290688
	H7384	H	0.649877	0.064214	0.311882
	H7385	H	0.647813	0.063905	0.306153
	H7386	H	0.647837	0.940972	0.306160
	H7387	H	0.649830	0.940510	0.311865
	H7388	H	0.640058	0.064862	0.316753
	H7389	H	0.640081	0.940302	0.316783
	H7390	H	0.488143	0.064570	0.314388
	H7391	H	0.488211	0.941085	0.314421
	H7392	H	0.490354	0.064374	0.314355
	H7393	H	0.490456	0.941277	0.314384
	H7394	H	0.491723	0.064855	0.312829
	H7395	H	0.491725	0.941245	0.312847
	H7396	H	0.484132	0.440768	0.313640
	H7397	H	0.487059	0.440819	0.315720
	H7398	H	0.486090	0.440682	0.310209
	H7399	H	0.639622	0.440844	0.311103
	H7400	H	0.637134	0.441170	0.310732
	H7401	H	0.636486	0.441171	0.309668
	H7402	H	0.487074	0.564408	0.315793
	H7403	H	0.484123	0.564442	0.313674
	H7404	H	0.636493	0.564187	0.309688
	H7405	H	0.637078	0.564378	0.310787
	H7406	H	0.639681	0.564661	0.311120
	H7407	H	0.486095	0.564086	0.310279
	H7408	H	0.609280	0.643742	0.332189
	H7409	H	0.609603	0.862303	0.332278
	H7410	H	0.609503	0.143332	0.332205
	H7411	H	0.609527	0.362349	0.332221
	H7412	H	0.528994	0.642729	0.275167
	H7413	H	0.586199	0.644244	0.273252
	H7414	H	0.585794	0.861019	0.273393
	H7415	H	0.529521	0.861470	0.275275
	H7416	H	0.604814	0.644364	0.287167
	H7417	H	0.604378	0.861248	0.287308
	H7418	H	0.598542	0.643889	0.347645
	H7419	H	0.598879	0.862442	0.347719
	H7420	H	0.557667	0.441123	0.246055
	H7421	H	0.575913	0.441375	0.377140
	H7422	H	0.561315	0.441560	0.252497
	H7423	H	0.555962	0.441343	0.255978
	H7424	H	0.583082	0.441593	0.370385
	H7425	H	0.583541	0.441300	0.374353
	H7426	H	0.575980	0.564636	0.377176
	H7427	H	0.557592	0.564421	0.246035
	H7428	H	0.583553	0.564447	0.374374
	H7429	H	0.583060	0.565154	0.370400
	H7430	H	0.555959	0.564829	0.255995
	H7431	H	0.561319	0.564586	0.252479
	H7432	H	0.598906	0.143264	0.347680
	H7433	H	0.598929	0.362406	0.347703
	H7434	H	0.553077	0.064431	0.249531
	H7435	H	0.551235	0.064699	0.249258
	H7436	H	0.554013	0.064299	0.250959
	H7437	H	0.542025	0.861259	0.349541
	H7438	H	0.541918	0.643980	0.349680
	H7439	H	0.541741	0.361213	0.349654
	H7440	H	0.541843	0.144470	0.349640
	H7441	H	0.529257	0.143453	0.275200
	H7442	H	0.585858	0.144196	0.273343
	H7443	H	0.586025	0.361346	0.273219
	H7444	H	0.529089	0.362494	0.275166
	H7445	H	0.604427	0.144531	0.287252
	H7446	H	0.604580	0.361481	0.287131
	H7447	H	0.571095	0.064355	0.375967
	H7448	H	0.577713	0.064471	0.377129
	H7449	H	0.583935	0.064690	0.373282
	H7450	H	0.551266	0.940928	0.249253
	H7451	H	0.553021	0.940983	0.249507
	H7452	H	0.554064	0.941060	0.250950
	H7453	H	0.571163	0.941023	0.375995
	H7454	H	0.577721	0.941043	0.377132
	H7455	H	0.583945	0.940722	0.373291
	Zn7456	Zn	0.489169	0.680157	0.312960
	Zn7457	Zn	0.489267	0.825367	0.312956
	Zn7458	Zn	0.489221	0.180203	0.312938
	Zn7459	Zn	0.489250	0.325193	0.312936
	Zn7460	Zn	0.576043	0.680489	0.372367
	Zn7461	Zn	0.575943	0.825600	0.372383
	Zn7462	Zn	0.575981	0.180080	0.372350
	Zn7463	Zn	0.575989	0.325415	0.372381
	C7464	C	0.617021	0.752767	0.296369
	C7465	C	0.510920	0.752702	0.326566
	C7466	C	0.522252	0.752522	0.334852
	C7467	C	0.527457	0.691029	0.338836
	C7468	C	0.527539	0.813982	0.338752
	C7469	C	0.510876	0.252749	0.326566
	C7470	C	0.522222	0.252689	0.334850
	C7471	C	0.527449	0.191526	0.338788
	C7472	C	0.527387	0.313966	0.338805
	C7473	C	0.510002	0.752417	0.300520
	C7474	C	0.517851	0.752376	0.291633
	C7475	C	0.521163	0.814145	0.287316
	C7476	C	0.520871	0.690450	0.287249
	C7477	C	0.510073	0.252926	0.300517
	C7478	C	0.517857	0.252816	0.291608
	C7479	C	0.520932	0.314793	0.287236
	C7480	C	0.521000	0.190881	0.287252
	C7481	C	0.646196	0.042773	0.309257
	C7482	C	0.646205	0.962153	0.309269
	C7483	C	0.489200	0.043142	0.313991
	C7484	C	0.489232	0.962384	0.314022
	C7485	C	0.490574	0.043544	0.312403
	C7486	C	0.490567	0.962482	0.312428
	C7487	C	0.486499	0.462265	0.314237
	C7488	C	0.639836	0.462129	0.310511
	C7489	C	0.637335	0.462385	0.310125
	C7490	C	0.486502	0.543240	0.314269
	C7491	C	0.637331	0.543070	0.310159
	C7492	C	0.639858	0.543201	0.310529
	C7493	C	0.617950	0.752878	0.322383
	C7494	C	0.617871	0.252929	0.322311
	C7495	C	0.610116	0.752971	0.331273
	C7496	C	0.606902	0.691294	0.335630
	C7497	C	0.607092	0.814760	0.335679
	C7498	C	0.610113	0.252847	0.331243
	C7499	C	0.607061	0.190877	0.335623
	C7500	C	0.607076	0.314757	0.335638
	C7501	C	0.616959	0.252985	0.296330
	C7502	C	0.573575	0.752843	0.264166
	C7503	C	0.535911	0.752098	0.264855
	C7504	C	0.554390	0.752817	0.358758
	C7505	C	0.600572	0.691357	0.284104
	C7506	C	0.600331	0.814052	0.284175
	C7507	C	0.584916	0.752622	0.272460
	C7508	C	0.529624	0.752150	0.274211
	C7509	C	0.526711	0.690309	0.278630
	C7510	C	0.590265	0.691364	0.276376
	C7511	C	0.590029	0.813935	0.276450
	C7512	C	0.527006	0.814007	0.278698
	C7513	C	0.605660	0.752740	0.288079
	C7514	C	0.591881	0.753169	0.358025
	C7515	C	0.600991	0.691397	0.344230
	C7516	C	0.601200	0.814853	0.344281
	C7517	C	0.598247	0.753152	0.348687
	C7518	C	0.573798	0.462414	0.375138
	C7519	C	0.556820	0.462611	0.253236
	C7520	C	0.581414	0.462653	0.372390
	C7521	C	0.573790	0.543253	0.375149
	C7522	C	0.581438	0.543303	0.372384
	C7523	C	0.556848	0.543419	0.253229
	C7524	C	0.592016	0.252685	0.358051
	C7525	C	0.601218	0.190929	0.344251
	C7526	C	0.601219	0.314694	0.344262
	C7527	C	0.598391	0.252839	0.348704
	C7528	C	0.552039	0.043108	0.249692
	C7529	C	0.573496	0.252781	0.264157
	C7530	C	0.535942	0.253083	0.264827
	C7531	C	0.554284	0.252972	0.358773
	C7532	C	0.600286	0.191564	0.284150
	C7533	C	0.600384	0.314342	0.284068
	C7534	C	0.584773	0.252753	0.272471
	C7535	C	0.529603	0.253011	0.274174
	C7536	C	0.543022	0.752665	0.350459
	C7537	C	0.537833	0.814039	0.346480
	C7538	C	0.537777	0.691115	0.346561
	C7539	C	0.542933	0.252857	0.350467
	C7540	C	0.537668	0.314167	0.346539
	C7541	C	0.537717	0.191544	0.346527
	C7542	C	0.526878	0.191025	0.278644
	C7543	C	0.589972	0.191391	0.276434
	C7544	C	0.590058	0.314243	0.276355
	C7545	C	0.526808	0.314931	0.278626
	C7546	C	0.605530	0.253012	0.288074
	C7547	C	0.574854	0.043074	0.375466
	C7548	C	0.552997	0.043177	0.251156
	C7549	C	0.552039	0.962312	0.249682
	C7550	C	0.574876	0.962479	0.375480
	C7551	C	0.552998	0.962256	0.251167
	N7552	N	0.489062	0.070166	0.312920
	N7553	N	0.489091	0.935614	0.312956
	N7554	N	0.489171	0.435429	0.312942
	N7555	N	0.489176	0.569996	0.312967
	N7556	N	0.576114	0.435664	0.372385
	N7557	N	0.576143	0.570247	0.372389
	N7558	N	0.575996	0.070174	0.372364
	N7559	N	0.576004	0.935686	0.372381
	O7560	O	0.578013	0.694756	0.431884
	O7561	O	0.578028	0.811313	0.431890
	O7562	O	0.526203	0.694052	0.447397
	O7563	O	0.526365	0.811018	0.447389
	O7564	O	0.526330	0.194958	0.447393
	O7565	O	0.526153	0.311761	0.447406
	O7566	O	0.527018	0.694164	0.424188
	O7567	O	0.527140	0.810595	0.424233
	O7568	O	0.527188	0.194707	0.424247
	O7569	O	0.527159	0.310902	0.424252
	O7570	O	0.577432	0.694673	0.455148
	O7571	O	0.577317	0.811346	0.455130
	O7572	O	0.577334	0.194483	0.455086
	O7573	O	0.577314	0.310798	0.455069
	O7574	O	0.577925	0.194432	0.431863
	O7575	O	0.577941	0.311321	0.431875
	O7576	O	0.588517	0.694607	0.384834
	O7577	O	0.558676	0.694315	0.381534
	O7578	O	0.545430	0.694315	0.497631
	O7579	O	0.545583	0.811044	0.497674
	O7580	O	0.515648	0.695243	0.494423
	O7581	O	0.515698	0.811908	0.494375
	O7582	O	0.558742	0.810985	0.381549
	O7583	O	0.588540	0.811392	0.384811
	O7584	O	0.588400	0.194181	0.384818
	O7585	O	0.558688	0.194498	0.381557
	O7586	O	0.545494	0.194786	0.497645
	O7587	O	0.545601	0.311333	0.497675
	O7588	O	0.515767	0.194481	0.494371
	O7589	O	0.515558	0.311259	0.494453
	O7590	O	0.558694	0.311195	0.381594
	O7591	O	0.588510	0.310978	0.384822
	H7592	H	0.523401	0.642951	0.462565
	H7593	H	0.523918	0.862446	0.462598
	H7594	H	0.523592	0.143396	0.462559
	H7595	H	0.523621	0.363245	0.462642
	H7596	H	0.536393	0.862039	0.410224
	H7597	H	0.536159	0.642840	0.410160
	H7598	H	0.536185	0.362281	0.410206
	H7599	H	0.536421	0.143362	0.410247
	H7600	H	0.595622	0.064705	0.445364
	H7601	H	0.594890	0.064362	0.442655
	H7602	H	0.594869	0.941536	0.442672
	H7603	H	0.595669	0.941256	0.445434
	H7604	H	0.590959	0.064212	0.447523
	H7605	H	0.590867	0.941308	0.447526
	H7606	H	0.516047	0.064545	0.433367
	H7607	H	0.516069	0.940819	0.433329
	H7608	H	0.512968	0.064465	0.432837
	H7609	H	0.512962	0.941081	0.432792
	H7610	H	0.510175	0.064239	0.434557
	H7611	H	0.510048	0.941077	0.434566
	H7612	H	0.511131	0.440980	0.434079
	H7613	H	0.511103	0.441296	0.435494
	H7614	H	0.513922	0.441126	0.433236
	H7615	H	0.585496	0.441294	0.440175
	H7616	H	0.595010	0.441385	0.440390
	H7617	H	0.598579	0.441249	0.444084
	H7618	H	0.511143	0.564096	0.435550
	H7619	H	0.511148	0.564597	0.434079
	H7620	H	0.598690	0.564430	0.444094
	H7621	H	0.595013	0.564317	0.440386
	H7622	H	0.585543	0.565024	0.440190
	H7623	H	0.513907	0.564687	0.433286
	H7624	H	0.568012	0.643415	0.469027
	H7625	H	0.568082	0.862368	0.469055
	H7626	H	0.568154	0.143243	0.469091
	H7627	H	0.568031	0.362262	0.469009
	H7628	H	0.546762	0.642999	0.394651
	H7629	H	0.585939	0.643487	0.400037
	H7630	H	0.585937	0.862744	0.400076
	H7631	H	0.546949	0.861835	0.394715
	H7632	H	0.580509	0.643237	0.416632
	H7633	H	0.580527	0.862699	0.416681
	H7634	H	0.557251	0.643219	0.484484
	H7635	H	0.557373	0.862296	0.484531
	H7636	H	0.569879	0.441094	0.375070
	H7637	H	0.525325	0.441394	0.506374
	H7638	H	0.569206	0.440975	0.369657
	H7639	H	0.574741	0.440915	0.367627
	H7640	H	0.529120	0.441714	0.508434
	H7641	H	0.526738	0.441560	0.508257
	H7642	H	0.525299	0.564896	0.506347
	H7643	H	0.569880	0.564240	0.375110
	H7644	H	0.526669	0.564985	0.508267
	H7645	H	0.529084	0.564611	0.508464
	H7646	H	0.574758	0.564707	0.367613
	H7647	H	0.569234	0.564334	0.369654
	H7648	H	0.557500	0.143296	0.484565
	H7649	H	0.557413	0.362510	0.484493
	H7650	H	0.572775	0.064233	0.367763
	H7651	H	0.568310	0.064724	0.370645
	H7652	H	0.581856	0.064395	0.369373
	H7653	H	0.518611	0.863112	0.479182
	H7654	H	0.518032	0.643285	0.479202
	H7655	H	0.518259	0.362961	0.479258
	H7656	H	0.518222	0.143279	0.479179
	H7657	H	0.546878	0.143504	0.394711
	H7658	H	0.585855	0.142452	0.400024
	H7659	H	0.586099	0.362434	0.400052
	H7660	H	0.546677	0.362249	0.394682
	H7661	H	0.580528	0.142591	0.416662
	H7662	H	0.580734	0.362552	0.416656
	H7663	H	0.527182	0.064706	0.511319
	H7664	H	0.533308	0.064244	0.510457
	H7665	H	0.535235	0.064522	0.505532
	H7666	H	0.568276	0.940911	0.370653
	H7667	H	0.572725	0.941378	0.367829
	H7668	H	0.581828	0.941467	0.369352
	H7669	H	0.527209	0.940737	0.511308
	H7670	H	0.533283	0.941217	0.510434
	H7671	H	0.535246	0.941253	0.505519
	Zn7672	Zn	0.513706	0.679812	0.434970
	Zn7673	Zn	0.513760	0.825284	0.434965
	Zn7674	Zn	0.513765	0.179976	0.435001
	Zn7675	Zn	0.513685	0.325353	0.434938
	Zn7676	Zn	0.528165	0.680067	0.506821
	Zn7677	Zn	0.528324	0.825321	0.506871
	Zn7678	Zn	0.528183	0.180080	0.506811
	Zn7679	Zn	0.528247	0.325699	0.506817
	C7680	C	0.578249	0.753040	0.427863
	C7681	C	0.526090	0.752547	0.451395
	C7682	C	0.524243	0.752671	0.461604
	C7683	C	0.522469	0.690681	0.466307
	C7684	C	0.522750	0.814913	0.466305
	C7685	C	0.526014	0.253344	0.451404
	C7686	C	0.524089	0.253377	0.461602
	C7687	C	0.522443	0.191135	0.466274
	C7688	C	0.522461	0.315450	0.466325
	C7689	C	0.529538	0.752427	0.420578
	C7690	C	0.535804	0.752482	0.411209
	C7691	C	0.538649	0.814359	0.406762
	C7692	C	0.538511	0.690531	0.406726
	C7693	C	0.529651	0.252830	0.420613
	C7694	C	0.535811	0.252892	0.411232
	C7695	C	0.538537	0.314695	0.406772
	C7696	C	0.538650	0.191040	0.406783
	C7697	C	0.593980	0.043395	0.444079
	C7698	C	0.593948	0.962623	0.444131
	C7699	C	0.514388	0.043265	0.433619
	C7700	C	0.514390	0.962321	0.433600
	C7701	C	0.511503	0.042997	0.435371
	C7702	C	0.511464	0.962354	0.435386
	C7703	C	0.511831	0.462417	0.434842
	C7704	C	0.585582	0.462590	0.442522
	C7705	C	0.595086	0.462481	0.442782
	C7706	C	0.511865	0.543101	0.434851
	C7707	C	0.595122	0.543192	0.442791
	C7708	C	0.585583	0.543695	0.442547
	C7709	C	0.574830	0.752977	0.458726
	C7710	C	0.574823	0.252679	0.458707
	C7711	C	0.568450	0.752947	0.468052
	C7712	C	0.565615	0.690908	0.472471
	C7713	C	0.565683	0.814850	0.472500
	C7714	C	0.568580	0.252747	0.468064
	C7715	C	0.565777	0.190879	0.472522
	C7716	C	0.565724	0.314693	0.472482
	C7717	C	0.578194	0.252903	0.427865
	C7718	C	0.588329	0.753046	0.388835
	C7719	C	0.555264	0.752637	0.384827
	C7720	C	0.515919	0.753485	0.490391
	C7721	C	0.581714	0.691009	0.412963
	C7722	C	0.581700	0.815070	0.412989
	C7723	C	0.586433	0.753189	0.399047
	C7724	C	0.547466	0.752502	0.393736
	C7725	C	0.544337	0.690576	0.398094
	C7726	C	0.584796	0.691106	0.403742
	C7727	C	0.584783	0.815095	0.403773
	C7728	C	0.544460	0.814327	0.398134
	C7729	C	0.580085	0.753035	0.417679
	C7730	C	0.548922	0.752644	0.494360
	C7731	C	0.559753	0.690793	0.481080
	C7732	C	0.559801	0.814753	0.481099
	C7733	C	0.556681	0.752763	0.485443
	C7734	C	0.526545	0.462629	0.506070
	C7735	C	0.573073	0.462411	0.369631
	C7736	C	0.527966	0.462721	0.507947
	C7737	C	0.526508	0.543506	0.506067
	C7738	C	0.527914	0.543338	0.507962
	C7739	C	0.573096	0.543505	0.369625
	C7740	C	0.549006	0.253029	0.494386
	C7741	C	0.559946	0.190996	0.481139
	C7742	C	0.559891	0.314787	0.481096
	C7743	C	0.556795	0.252961	0.485488
	C7744	C	0.571987	0.043176	0.370045
	C7745	C	0.588299	0.252589	0.388833
	C7746	C	0.555229	0.252788	0.384852
	C7747	C	0.515875	0.253032	0.490401
	C7748	C	0.581753	0.190386	0.412972
	C7749	C	0.581851	0.314743	0.412971
	C7750	C	0.586481	0.252470	0.399052
	C7751	C	0.547422	0.252908	0.393762
	C7752	C	0.517875	0.753156	0.480205
	C7753	C	0.519652	0.815221	0.475506
	C7754	C	0.519365	0.690880	0.475517
	C7755	C	0.517772	0.253099	0.480209
	C7756	C	0.519407	0.315308	0.475540
	C7757	C	0.519375	0.191039	0.475489
	C7758	C	0.544407	0.190992	0.398139
	C7759	C	0.584798	0.190269	0.403750
	C7760	C	0.584918	0.314654	0.403756
	C7761	C	0.544292	0.314683	0.398130
	C7762	C	0.580196	0.252633	0.417680
	C7763	C	0.529648	0.043199	0.509826
	C7764	C	0.581097	0.043405	0.371604
	C7765	C	0.571965	0.962402	0.370081
	C7766	C	0.529662	0.962295	0.509829
	C7767	C	0.581083	0.962425	0.371599
	N7768	N	0.513875	0.070157	0.435016
	N7769	N	0.513872	0.935595	0.435032
	N7770	N	0.513706	0.435469	0.434937
	N7771	N	0.513712	0.569941	0.434931
	N7772	N	0.528105	0.435564	0.506796
	N7773	N	0.528057	0.570078	0.506814
	N7774	N	0.528151	0.070097	0.506860
	N7775	N	0.528198	0.935540	0.506872
	O7776	O	0.602101	0.694168	0.553642
	O7777	O	0.602188	0.810260	0.553578
	O7778	O	0.483305	0.694641	0.579592
	O7779	O	0.483338	0.810772	0.579567
	O7780	O	0.483364	0.194577	0.579586
	O7781	O	0.483280	0.310776	0.579609
	O7782	O	0.483047	0.694406	0.560109
	O7783	O	0.482989	0.811029	0.560121
	O7784	O	0.483032	0.194521	0.560131
	O7785	O	0.483046	0.311168	0.560160
	O7786	O	0.607127	0.694713	0.574200
	O7787	O	0.606971	0.810937	0.574168
	O7788	O	0.607063	0.194778	0.574137
	O7789	O	0.607026	0.310719	0.574163
	O7790	O	0.602083	0.194356	0.553633
	O7791	O	0.602040	0.310588	0.553666
	O7792	O	0.545707	0.694213	0.517109
	O7793	O	0.514976	0.694642	0.517627
	O7794	O	0.570755	0.694590	0.614986
	O7795	O	0.570840	0.810720	0.615022
	O7796	O	0.539531	0.694859	0.616155
	O7797	O	0.539512	0.811033	0.616155
	O7798	O	0.515008	0.811237	0.517609
	O7799	O	0.545878	0.810521	0.517065
	O7800	O	0.545882	0.194765	0.516997
	O7801	O	0.515134	0.194617	0.517672
	O7802	O	0.570964	0.194895	0.615054
	O7803	O	0.570891	0.310999	0.614996
	O7804	O	0.539647	0.194581	0.616129
	O7805	O	0.539635	0.310636	0.616132
	O7806	O	0.515234	0.311045	0.517703
	O7807	O	0.545794	0.311034	0.517098
	H7808	H	0.501243	0.644885	0.591340
	H7809	H	0.501465	0.860991	0.591233
	H7810	H	0.501439	0.144058	0.591266
	H7811	H	0.501401	0.361377	0.591288
	H7812	H	0.495014	0.862489	0.547056
	H7813	H	0.494979	0.643288	0.547012
	H7814	H	0.494967	0.362399	0.547073
	H7815	H	0.495010	0.143337	0.547074
	H7816	H	0.622974	0.064754	0.561606
	H7817	H	0.619624	0.064478	0.560867
	H7818	H	0.619585	0.940975	0.560912
	H7819	H	0.622846	0.941347	0.561648
	H7820	H	0.624042	0.064528	0.564365
	H7821	H	0.623940	0.941688	0.564411
	H7822	H	0.463969	0.064955	0.571723
	H7823	H	0.464040	0.941366	0.571738
	H7824	H	0.467628	0.064425	0.571806
	H7825	H	0.467682	0.941280	0.571772
	H7826	H	0.470019	0.064101	0.569234
	H7827	H	0.470007	0.941082	0.569228
	H7828	H	0.465210	0.441101	0.570974
	H7829	H	0.467429	0.441747	0.570663
	H7830	H	0.463045	0.441048	0.569493
	H7831	H	0.622336	0.441095	0.564006
	H7832	H	0.620149	0.440897	0.564741
	H7833	H	0.618410	0.440959	0.564152
	H7834	H	0.467464	0.564506	0.570571
	H7835	H	0.465297	0.564664	0.570913
	H7836	H	0.618417	0.564704	0.564210
	H7837	H	0.620163	0.564185	0.564839
	H7838	H	0.622496	0.564048	0.564022
	H7839	H	0.463077	0.564654	0.569489
	H7840	H	0.595224	0.644380	0.587154
	H7841	H	0.595653	0.861085	0.587323
	H7842	H	0.595571	0.144756	0.587269
	H7843	H	0.595222	0.360476	0.587160
	H7844	H	0.505712	0.643440	0.531546
	H7845	H	0.563801	0.643807	0.528804
	H7846	H	0.564065	0.860070	0.528681
	H7847	H	0.505770	0.862608	0.531596
	H7848	H	0.583895	0.643814	0.541954
	H7849	H	0.584154	0.860080	0.541862
	H7850	H	0.582474	0.644054	0.601978
	H7851	H	0.582791	0.861058	0.602092
	H7852	H	0.526740	0.441397	0.505282
	H7853	H	0.555727	0.440680	0.625756
	H7854	H	0.530008	0.441332	0.505555
	H7855	H	0.531013	0.440863	0.506946
	H7856	H	0.558667	0.441197	0.626890
	H7857	H	0.557090	0.440638	0.626865
	H7858	H	0.555656	0.563851	0.625754
	H7859	H	0.526623	0.564473	0.505263
	H7860	H	0.557009	0.564189	0.626924
	H7861	H	0.558659	0.564341	0.626920
	H7862	H	0.531030	0.564535	0.506993
	H7863	H	0.530067	0.564738	0.505622
	H7864	H	0.582735	0.144865	0.602086
	H7865	H	0.582381	0.360420	0.601949
	H7866	H	0.522208	0.064185	0.503830
	H7867	H	0.520770	0.064174	0.507473
	H7868	H	0.530537	0.064781	0.502671
	H7869	H	0.521493	0.861183	0.604414
	H7870	H	0.521283	0.644758	0.604544
	H7871	H	0.521489	0.361305	0.604477
	H7872	H	0.521521	0.143934	0.604457
	H7873	H	0.505872	0.143130	0.531651
	H7874	H	0.563989	0.144453	0.528651
	H7875	H	0.563941	0.361087	0.528778
	H7876	H	0.505795	0.362415	0.531644
	H7877	H	0.583898	0.144141	0.541943
	H7878	H	0.583893	0.360959	0.542032
	H7879	H	0.560885	0.064736	0.622509
	H7880	H	0.555343	0.064343	0.622030
	H7881	H	0.551052	0.064254	0.625635
	H7882	H	0.520775	0.940768	0.507478
	H7883	H	0.522225	0.941414	0.503857
	H7884	H	0.530586	0.941089	0.502692
	H7885	H	0.560877	0.940895	0.622504
	H7886	H	0.555333	0.941185	0.622054
	H7887	H	0.551116	0.941084	0.625641
	Zn7888	Zn	0.465782	0.680388	0.569329
	Zn7889	Zn	0.465759	0.825335	0.569343
	Zn7890	Zn	0.465753	0.180433	0.569355
	Zn7891	Zn	0.465754	0.325431	0.569353
	Zn7892	Zn	0.557636	0.680065	0.625866
	Zn7893	Zn	0.557682	0.825689	0.625834
	Zn7894	Zn	0.557750	0.180106	0.625859
	Zn7895	Zn	0.557738	0.325660	0.625835
	C7896	C	0.597387	0.752171	0.550599
	C7897	C	0.488112	0.752783	0.582560
	C7898	C	0.500270	0.752905	0.590445
	C7899	C	0.505797	0.691747	0.594243
	C7900	C	0.505911	0.814093	0.594177
	C7901	C	0.488080	0.252692	0.582598
	C7902	C	0.500194	0.252728	0.590493
	C7903	C	0.505863	0.191299	0.594230
	C7904	C	0.505834	0.314131	0.594230
	C7905	C	0.486489	0.752757	0.556847
	C7906	C	0.494357	0.752943	0.547979
	C7907	C	0.497489	0.814917	0.543630
	C7908	C	0.497446	0.690947	0.543600
	C7909	C	0.486471	0.252876	0.556866
	C7910	C	0.494333	0.252906	0.547989
	C7911	C	0.497467	0.314852	0.543647
	C7912	C	0.497494	0.190868	0.543649
	C7913	C	0.620978	0.043419	0.561793
	C7914	C	0.620957	0.962456	0.561829
	C7915	C	0.465747	0.043468	0.571160
	C7916	C	0.465752	0.962620	0.571146
	C7917	C	0.468124	0.043171	0.568545
	C7918	C	0.468125	0.962378	0.568536
	C7919	C	0.466133	0.462608	0.570407
	C7920	C	0.621790	0.462159	0.563419
	C7921	C	0.619509	0.462304	0.564177
	C7922	C	0.466155	0.543337	0.570375
	C7923	C	0.619534	0.543152	0.564219
	C7924	C	0.621865	0.543098	0.563448
	C7925	C	0.603961	0.752750	0.577552
	C7926	C	0.603957	0.252670	0.577507
	C7927	C	0.596059	0.752685	0.586341
	C7928	C	0.592423	0.691242	0.590470
	C7929	C	0.592625	0.814038	0.590559
	C7930	C	0.596103	0.252628	0.586326
	C7931	C	0.592641	0.191559	0.590531
	C7932	C	0.592442	0.313690	0.590466
	C7933	C	0.597334	0.252508	0.550627
	C7934	C	0.550523	0.752250	0.520095
	C7935	C	0.512493	0.752989	0.521227
	C7936	C	0.534802	0.752927	0.613131
	C7937	C	0.579460	0.690849	0.539024
	C7938	C	0.579614	0.813142	0.538965
	C7939	C	0.562699	0.752030	0.527977
	C7940	C	0.506168	0.753026	0.530570
	C7941	C	0.503343	0.691017	0.535000
	C7942	C	0.568309	0.690773	0.531718
	C7943	C	0.568468	0.813165	0.531650
	C7944	C	0.503382	0.815029	0.535028
	C7945	C	0.585174	0.752031	0.542739
	C7946	C	0.573923	0.752641	0.611651
	C7947	C	0.585346	0.691103	0.598680
	C7948	C	0.585532	0.814042	0.598762
	C7949	C	0.581830	0.752529	0.602867
	C7950	C	0.556496	0.462352	0.625415
	C7951	C	0.529876	0.462448	0.506400
	C7952	C	0.557832	0.462423	0.626604
	C7953	C	0.556428	0.542980	0.625430
	C7954	C	0.557795	0.543139	0.626616
	C7955	C	0.529885	0.543347	0.506416
	C7956	C	0.574047	0.252886	0.611675
	C7957	C	0.585558	0.191579	0.598742
	C7958	C	0.585352	0.313786	0.598671
	C7959	C	0.581933	0.252734	0.602868
	C7960	C	0.523201	0.043013	0.505982
	C7961	C	0.550584	0.252837	0.520049
	C7962	C	0.512657	0.252850	0.521301
	C7963	C	0.534878	0.252622	0.613118
	C7964	C	0.579412	0.191289	0.539028
	C7965	C	0.579405	0.313911	0.539083
	C7966	C	0.562699	0.252700	0.527961
	C7967	C	0.506252	0.252866	0.530616
	C7968	C	0.522628	0.753031	0.605264
	C7969	C	0.517005	0.814205	0.601509
	C7970	C	0.516909	0.691768	0.601573
	C7971	C	0.522614	0.252640	0.605286
	C7972	C	0.516972	0.314122	0.601550
	C7973	C	0.516985	0.191175	0.601553
	C7974	C	0.503434	0.190857	0.535060
	C7975	C	0.568353	0.191413	0.531672
	C7976	C	0.568325	0.313938	0.531735
	C7977	C	0.503414	0.314782	0.535065
	C7978	C	0.585070	0.252521	0.542788
	C7979	C	0.558029	0.043351	0.623193
	C7980	C	0.531589	0.043315	0.504838
	C7981	C	0.523218	0.962396	0.505985
	C7982	C	0.557994	0.962304	0.623208
	C7983	C	0.531615	0.962369	0.504840
	N7984	N	0.465618	0.070242	0.569358
	N7985	N	0.465659	0.935619	0.569351
	N7986	N	0.465590	0.435620	0.569330
	N7987	N	0.465629	0.570204	0.569301
	N7988	N	0.557739	0.435600	0.625825
	N7989	N	0.557670	0.570097	0.625850
	N7990	N	0.557755	0.070125	0.625832
	N7991	N	0.557713	0.935654	0.625816
	O7992	O	0.632436	0.694983	0.671975
	O7993	O	0.632388	0.811211	0.672012
	O7994	O	0.513062	0.694854	0.698051
	O7995	O	0.513246	0.810905	0.697899
	O7996	O	0.513131	0.194859	0.697978
	O7997	O	0.513076	0.311188	0.698034
	O7998	O	0.508131	0.694913	0.677463
	O7999	O	0.508348	0.811074	0.677536
	O8000	O	0.508159	0.195216	0.677495
	O8001	O	0.508126	0.311426	0.677494
	O8002	O	0.632834	0.694181	0.691387
	O8003	O	0.632890	0.811004	0.691439
	O8004	O	0.632667	0.194188	0.691304
	O8005	O	0.632851	0.311070	0.691380
	O8006	O	0.632443	0.194844	0.671921
	O8007	O	0.632321	0.311047	0.672026
	O8008	O	0.575874	0.694753	0.635556
	O8009	O	0.544434	0.695070	0.636634
	O8010	O	0.600516	0.693957	0.733776
	O8011	O	0.600657	0.810409	0.733855
	O8012	O	0.569679	0.694709	0.734407
	O8013	O	0.569749	0.811002	0.734371
	O8014	O	0.544557	0.810999	0.636663
	O8015	O	0.575886	0.810923	0.635544
	O8016	O	0.575869	0.195113	0.635549
	O8017	O	0.544591	0.194821	0.636691
	O8018	O	0.600612	0.194628	0.733850
	O8019	O	0.600635	0.311182	0.733830
	O8020	O	0.569859	0.194600	0.734339
	O8021	O	0.569810	0.311062	0.734370
	O8022	O	0.544580	0.310891	0.636669
	O8023	O	0.575873	0.311183	0.635511
	H8024	H	0.531242	0.644666	0.709704
	H8025	H	0.531469	0.861505	0.709525
	H8026	H	0.531484	0.144406	0.709473
	H8027	H	0.531320	0.361952	0.709686
	H8028	H	0.520030	0.861063	0.664500
	H8029	H	0.519972	0.645032	0.664473
	H8030	H	0.519860	0.361258	0.664459
	H8031	H	0.520097	0.144871	0.664539
	H8032	H	0.652446	0.064809	0.686154
	H8033	H	0.656601	0.064626	0.683912
	H8034	H	0.656536	0.941252	0.683951
	H8035	H	0.652374	0.941880	0.686155
	H8036	H	0.644708	0.064360	0.684555
	H8037	H	0.644713	0.941136	0.684593
	H8038	H	0.491535	0.064249	0.688162
	H8039	H	0.491551	0.941113	0.688116
	H8040	H	0.492807	0.064175	0.689808
	H8041	H	0.492841	0.941198	0.689757
	H8042	H	0.496800	0.064875	0.690188
	H8043	H	0.496831	0.940782	0.690157
	H8044	H	0.492889	0.441326	0.688988
	H8045	H	0.494567	0.440789	0.689775
	H8046	H	0.493034	0.441398	0.687303
	H8047	H	0.655576	0.440718	0.681658
	H8048	H	0.653004	0.440863	0.685089
	H8049	H	0.648349	0.441176	0.685178
	H8050	H	0.494525	0.564802	0.689723
	H8051	H	0.492935	0.564402	0.688920
	H8052	H	0.648378	0.564203	0.685182
	H8053	H	0.653075	0.564702	0.685097
	H8054	H	0.655599	0.564300	0.681677
	H8055	H	0.493081	0.564422	0.687259
	H8056	H	0.621019	0.642870	0.704525
	H8057	H	0.620772	0.861982	0.704477
	H8058	H	0.620694	0.142951	0.704430
	H8059	H	0.620685	0.362161	0.704374
	H8060	H	0.532846	0.644885	0.649705
	H8061	H	0.594046	0.644475	0.647217
	H8062	H	0.594198	0.861692	0.647123
	H8063	H	0.532849	0.861020	0.649702
	H8064	H	0.614182	0.644558	0.660358
	H8065	H	0.614328	0.861739	0.660278
	H8066	H	0.610194	0.642758	0.719936
	H8067	H	0.609908	0.861727	0.719915
	H8068	H	0.556422	0.441494	0.624840
	H8069	H	0.588471	0.441127	0.749855
	H8070	H	0.558644	0.441304	0.624832
	H8071	H	0.559685	0.441352	0.625681
	H8072	H	0.594434	0.441087	0.741738
	H8073	H	0.596007	0.440969	0.746123
	H8074	H	0.588471	0.564375	0.749876
	H8075	H	0.556324	0.564478	0.624847
	H8076	H	0.595967	0.564697	0.746074
	H8077	H	0.594375	0.564632	0.741695
	H8078	H	0.559701	0.564962	0.625726
	H8079	H	0.558685	0.564942	0.624848
	H8080	H	0.610020	0.142918	0.719892
	H8081	H	0.609960	0.362516	0.719847
	H8082	H	0.561220	0.064876	0.629343
	H8083	H	0.564357	0.064766	0.626704
	H8084	H	0.553524	0.064789	0.628735
	H8085	H	0.551626	0.861475	0.722677
	H8086	H	0.551451	0.644660	0.722812
	H8087	H	0.551601	0.361660	0.722756
	H8088	H	0.551712	0.144141	0.722550
	H8089	H	0.532964	0.144790	0.649742
	H8090	H	0.593986	0.144702	0.647209
	H8091	H	0.593943	0.361645	0.647224
	H8092	H	0.532708	0.361092	0.649671
	H8093	H	0.614122	0.144523	0.660353
	H8094	H	0.614060	0.361571	0.660379
	H8095	H	0.588508	0.064187	0.744958
	H8096	H	0.588482	0.064704	0.744407
	H8097	H	0.587394	0.064788	0.743949
	H8098	H	0.564201	0.941381	0.626690
	H8099	H	0.561188	0.941506	0.629344
	H8100	H	0.553580	0.941229	0.628707
	H8101	H	0.588407	0.941081	0.744957
	H8102	H	0.588500	0.940622	0.744406
	H8103	H	0.587314	0.941226	0.743882
	Zn8104	Zn	0.495027	0.680029	0.688300
	Zn8105	Zn	0.495052	0.825746	0.688267
	Zn8106	Zn	0.494942	0.179927	0.688345
	Zn8107	Zn	0.494898	0.325534	0.688325
	Zn8108	Zn	0.587281	0.679778	0.744591
	Zn8109	Zn	0.587345	0.825716	0.744570
	Zn8110	Zn	0.587381	0.179872	0.744613
	Zn8111	Zn	0.587348	0.325667	0.744619
	C8112	C	0.627650	0.753112	0.668997
	C8113	C	0.517960	0.752931	0.700950
	C8114	C	0.530251	0.753022	0.708776
	C8115	C	0.535844	0.691691	0.712563
	C8116	C	0.535960	0.814461	0.712461
	C8117	C	0.517909	0.253003	0.700977
	C8118	C	0.530216	0.253099	0.708791
	C8119	C	0.535956	0.191556	0.712432
	C8120	C	0.535860	0.314586	0.712563
	C8121	C	0.511389	0.753013	0.674161
	C8122	C	0.519251	0.753107	0.665348
	C8123	C	0.522833	0.814309	0.661181
	C8124	C	0.522809	0.691823	0.661173
	C8125	C	0.511276	0.253265	0.674140
	C8126	C	0.519203	0.253079	0.665347
	C8127	C	0.522757	0.314228	0.661179
	C8128	C	0.522887	0.191760	0.661216
	C8129	C	0.653377	0.043356	0.684295
	C8130	C	0.653364	0.962531	0.684308
	C8131	C	0.492910	0.042968	0.688778
	C8132	C	0.492946	0.962456	0.688761
	C8133	C	0.496965	0.043383	0.689156
	C8134	C	0.496967	0.962453	0.689149
	C8135	C	0.494023	0.462372	0.689090
	C8136	C	0.653142	0.462292	0.680927
	C8137	C	0.650568	0.462373	0.684350
	C8138	C	0.494070	0.543295	0.689070
	C8139	C	0.650592	0.543238	0.684362
	C8140	C	0.653159	0.543171	0.680922
	C8141	C	0.629392	0.752548	0.694665
	C8142	C	0.629282	0.252603	0.694600
	C8143	C	0.621497	0.752482	0.703536
	C8144	C	0.618450	0.690431	0.707906
	C8145	C	0.618310	0.814351	0.707892
	C8146	C	0.621331	0.252571	0.703472
	C8147	C	0.618193	0.190614	0.707836
	C8148	C	0.618184	0.314643	0.707807
	C8149	C	0.627544	0.252984	0.669000
	C8150	C	0.580701	0.752849	0.638523
	C8151	C	0.541418	0.753016	0.640019
	C8152	C	0.564939	0.752889	0.731406
	C8153	C	0.609745	0.691689	0.657417
	C8154	C	0.609826	0.814598	0.657381
	C8155	C	0.592997	0.753068	0.646355
	C8156	C	0.533508	0.752936	0.648812
	C8157	C	0.529928	0.691736	0.652981
	C8158	C	0.598579	0.691652	0.650117
	C8159	C	0.598666	0.814607	0.650075
	C8160	C	0.529960	0.814233	0.652982
	C8161	C	0.615456	0.753107	0.661131
	C8162	C	0.603182	0.752223	0.730224
	C8163	C	0.612498	0.690372	0.716491
	C8164	C	0.612346	0.814306	0.716474
	C8165	C	0.609569	0.752323	0.720897
	C8166	C	0.585601	0.462405	0.747863
	C8167	C	0.558784	0.462436	0.625414
	C8168	C	0.593171	0.462346	0.744081
	C8169	C	0.585620	0.543103	0.747867
	C8170	C	0.593158	0.543482	0.744077
	C8171	C	0.558778	0.543543	0.625412
	C8172	C	0.603151	0.252871	0.730223
	C8173	C	0.612269	0.190626	0.716431
	C8174	C	0.612253	0.314752	0.716403
	C8175	C	0.609432	0.252754	0.720864
	C8176	C	0.561439	0.043493	0.627455
	C8177	C	0.580612	0.253190	0.638544
	C8178	C	0.541450	0.252873	0.640039
	C8179	C	0.565052	0.252839	0.731366
	C8180	C	0.609684	0.191724	0.657402
	C8181	C	0.609659	0.314453	0.657419
	C8182	C	0.592836	0.253240	0.646376
	C8183	C	0.533506	0.252949	0.648823
	C8184	C	0.552776	0.753028	0.723524
	C8185	C	0.547145	0.814372	0.719756
	C8186	C	0.547037	0.691740	0.719852
	C8187	C	0.552808	0.252830	0.723511
	C8188	C	0.547084	0.314398	0.719840
	C8189	C	0.547177	0.191443	0.719702
	C8190	C	0.529987	0.191685	0.653007
	C8191	C	0.598525	0.191809	0.650097
	C8192	C	0.598508	0.314520	0.650107
	C8193	C	0.529856	0.314171	0.652971
	C8194	C	0.615347	0.253053	0.661141
	C8195	C	0.588229	0.043211	0.744672
	C8196	C	0.553750	0.043214	0.626833
	C8197	C	0.561408	0.962888	0.627438
	C8198	C	0.588223	0.962205	0.744662
	C8199	C	0.553746	0.962375	0.626827
	N8200	N	0.495050	0.070115	0.688318
	N8201	N	0.495079	0.935688	0.688299
	N8202	N	0.494994	0.435618	0.688337
	N8203	N	0.495037	0.570089	0.688299
	N8204	N	0.587421	0.435654	0.744595
	N8205	N	0.587385	0.570100	0.744581
	N8206	N	0.587491	0.069963	0.744630
	N8207	N	0.587449	0.935542	0.744620
	O8208	O	0.589315	0.694428	0.804113
	O8209	O	0.589412	0.811223	0.804057
	O8210	O	0.537812	0.694394	0.819574
	O8211	O	0.537821	0.811399	0.819593
	O8212	O	0.537816	0.194022	0.819650
	O8213	O	0.537749	0.310961	0.819617
	O8214	O	0.538434	0.694963	0.796390
	O8215	O	0.538412	0.811297	0.796424
	O8216	O	0.538399	0.194706	0.796474
	O8217	O	0.538347	0.311257	0.796425
	O8218	O	0.588750	0.695218	0.827308
	O8219	O	0.588800	0.811614	0.827271
	O8220	O	0.588816	0.194041	0.827281
	O8221	O	0.588834	0.310619	0.827288
	O8222	O	0.589263	0.194074	0.804073
	O8223	O	0.589216	0.311054	0.804100
	O8224	O	0.599885	0.693888	0.757033
	O8225	O	0.570032	0.695182	0.753799
	O8226	O	0.556878	0.695062	0.869791
	O8227	O	0.556923	0.811909	0.869833
	O8228	O	0.527258	0.694591	0.866645
	O8229	O	0.527193	0.811464	0.866611
	O8230	O	0.570075	0.811987	0.753807
	O8231	O	0.599919	0.810903	0.757045
	O8232	O	0.599983	0.194836	0.757097
	O8233	O	0.570186	0.194472	0.753855
	O8234	O	0.556845	0.194326	0.869762
	O8235	O	0.557004	0.311123	0.869823
	O8236	O	0.527109	0.194476	0.866681
	O8237	O	0.527050	0.311315	0.866660
	O8238	O	0.570046	0.311148	0.753824
	O8239	O	0.599849	0.311815	0.757048
	H8240	H	0.535010	0.642906	0.834754
	H8241	H	0.535176	0.862738	0.834777
	H8242	H	0.534948	0.142462	0.834865
	H8243	H	0.535176	0.362342	0.834816
	H8244	H	0.547804	0.862822	0.782477
	H8245	H	0.547438	0.644069	0.782364
	H8246	H	0.547392	0.362480	0.782404
	H8247	H	0.547954	0.143580	0.782591
	H8248	H	0.599798	0.064775	0.814355
	H8249	H	0.597879	0.064643	0.815956
	H8250	H	0.597826	0.941469	0.815949
	H8251	H	0.599877	0.940754	0.814316
	H8252	H	0.604584	0.064578	0.814682
	H8253	H	0.604642	0.941340	0.814711
	H8254	H	0.531373	0.064688	0.807761
	H8255	H	0.531341	0.940835	0.807760
	H8256	H	0.529590	0.065202	0.804755
	H8257	H	0.529566	0.941473	0.804727
	H8258	H	0.522453	0.064861	0.803622
	H8259	H	0.522464	0.941652	0.803640
	H8260	H	0.524072	0.441310	0.808239
	H8261	H	0.525898	0.441311	0.808442
	H8262	H	0.522986	0.441405	0.806912
	H8263	H	0.602617	0.441339	0.818089
	H8264	H	0.599764	0.441169	0.817304
	H8265	H	0.599452	0.441057	0.816039
	H8266	H	0.526017	0.565219	0.808392
	H8267	H	0.524142	0.564674	0.808240
	H8268	H	0.599480	0.564665	0.816045
	H8269	H	0.599793	0.564652	0.817309
	H8270	H	0.602588	0.564200	0.818101
	H8271	H	0.523047	0.564444	0.806824
	H8272	H	0.579457	0.643863	0.841250
	H8273	H	0.579545	0.862952	0.841241
	H8274	H	0.579552	0.142977	0.841252
	H8275	H	0.579511	0.362001	0.841210
	H8276	H	0.557968	0.644266	0.766839
	H8277	H	0.597236	0.642583	0.772267
	H8278	H	0.597357	0.862444	0.772226
	H8279	H	0.558357	0.863020	0.766979
	H8280	H	0.591940	0.642650	0.788909
	H8281	H	0.592031	0.862601	0.788851
	H8282	H	0.568729	0.644026	0.856725
	H8283	H	0.568862	0.863194	0.856728
	H8284	H	0.581384	0.440926	0.748206
	H8285	H	0.540030	0.440849	0.879393
	H8286	H	0.579236	0.441148	0.742142
	H8287	H	0.584686	0.441028	0.739383
	H8288	H	0.540079	0.441432	0.878710
	H8289	H	0.540375	0.441189	0.879034
	H8290	H	0.539974	0.564623	0.879387
	H8291	H	0.581442	0.564631	0.748181
	H8292	H	0.540344	0.564830	0.879045
	H8293	H	0.540052	0.564523	0.878665
	H8294	H	0.584617	0.563974	0.739362
	H8295	H	0.579155	0.564171	0.742207
	H8296	H	0.568806	0.143095	0.856726
	H8297	H	0.568757	0.362149	0.856627
	H8298	H	0.586451	0.064415	0.744925
	H8299	H	0.587267	0.064368	0.745315
	H8300	H	0.586555	0.064626	0.744153
	H8301	H	0.529888	0.862904	0.851414
	H8302	H	0.529739	0.642924	0.851411
	H8303	H	0.529782	0.362827	0.851432
	H8304	H	0.529617	0.142676	0.851500
	H8305	H	0.558617	0.143317	0.767095
	H8306	H	0.597404	0.143285	0.772273
	H8307	H	0.597227	0.363111	0.772272
	H8308	H	0.558036	0.362595	0.766920
	H8309	H	0.592085	0.142878	0.788894
	H8310	H	0.591863	0.363056	0.788912
	H8311	H	0.538113	0.064531	0.886258
	H8312	H	0.547862	0.064696	0.884807
	H8313	H	0.550850	0.064070	0.876812
	H8314	H	0.587283	0.941175	0.745306
	H8315	H	0.586431	0.940979	0.744960
	H8316	H	0.586439	0.941655	0.744184
	H8317	H	0.538080	0.941236	0.886331
	H8318	H	0.547884	0.941470	0.884872
	H8319	H	0.550859	0.941070	0.876819
	Zn8320	Zn	0.525255	0.680355	0.807169
	Zn8321	Zn	0.525120	0.825696	0.807153
	Zn8322	Zn	0.525112	0.180270	0.807226
	Zn8323	Zn	0.525064	0.325645	0.807212
	Zn8324	Zn	0.539741	0.680136	0.879045
	Zn8325	Zn	0.539648	0.825285	0.879093
	Zn8326	Zn	0.539710	0.180073	0.879063
	Zn8327	Zn	0.539759	0.325396	0.879043
	C8328	C	0.589551	0.752687	0.800071
	C8329	C	0.537591	0.752869	0.823583
	C8330	C	0.535692	0.752798	0.833788
	C8331	C	0.534006	0.690667	0.838488
	C8332	C	0.534069	0.814967	0.838494
	C8333	C	0.537525	0.252555	0.823640
	C8334	C	0.535584	0.252507	0.833857
	C8335	C	0.533878	0.190320	0.838573
	C8336	C	0.533962	0.314708	0.838539
	C8337	C	0.540934	0.753205	0.792795
	C8338	C	0.547170	0.753461	0.783438
	C8339	C	0.550048	0.815354	0.779018
	C8340	C	0.549838	0.691689	0.778951
	C8341	C	0.540868	0.252942	0.792829
	C8342	C	0.547181	0.252986	0.783472
	C8343	C	0.549844	0.314893	0.778978
	C8344	C	0.550157	0.191037	0.779078
	C8345	C	0.599649	0.043445	0.815502
	C8346	C	0.599656	0.962557	0.815493
	C8347	C	0.529129	0.043487	0.806496
	C8348	C	0.529123	0.962445	0.806492
	C8349	C	0.521982	0.043393	0.805419
	C8350	C	0.521982	0.962633	0.805416
	C8351	C	0.525098	0.462536	0.808030
	C8352	C	0.603034	0.462528	0.817385
	C8353	C	0.600182	0.462573	0.816634
	C8354	C	0.525114	0.543577	0.808030
	C8355	C	0.600183	0.543523	0.816646
	C8356	C	0.603029	0.543129	0.817395
	C8357	C	0.586279	0.753479	0.830911
	C8358	C	0.586333	0.252329	0.830900
	C8359	C	0.579952	0.753437	0.840248
	C8360	C	0.577084	0.691465	0.844688
	C8361	C	0.577144	0.815440	0.844675
	C8362	C	0.580005	0.252347	0.840232
	C8363	C	0.577194	0.190523	0.844686
	C8364	C	0.577159	0.314366	0.844651
	C8365	C	0.589517	0.252641	0.800087
	C8366	C	0.599674	0.752350	0.761036
	C8367	C	0.566617	0.753623	0.757082
	C8368	C	0.527435	0.752992	0.862615
	C8369	C	0.593108	0.690427	0.785197
	C8370	C	0.593147	0.814812	0.785169
	C8371	C	0.597794	0.752463	0.771263
	C8372	C	0.558876	0.753672	0.766009
	C8373	C	0.555656	0.691728	0.770325
	C8374	C	0.596187	0.690378	0.775978
	C8375	C	0.596238	0.814736	0.775952
	C8376	C	0.555850	0.815543	0.770396
	C8377	C	0.591470	0.752681	0.789883
	C8378	C	0.560379	0.753517	0.866553
	C8379	C	0.571219	0.691487	0.853295
	C8380	C	0.571294	0.815585	0.853288
	C8381	C	0.568181	0.753567	0.857650
	C8382	C	0.539698	0.462594	0.879304
	C8383	C	0.583417	0.462305	0.741778
	C8384	C	0.540040	0.462590	0.878901
	C8385	C	0.539698	0.543363	0.879304
	C8386	C	0.540046	0.543281	0.878908
	C8387	C	0.583383	0.542942	0.741789
	C8388	C	0.560396	0.252726	0.866528
	C8389	C	0.571324	0.190640	0.853298
	C8390	C	0.571295	0.314471	0.853257
	C8391	C	0.568241	0.252603	0.857651
	C8392	C	0.587040	0.043284	0.744993
	C8393	C	0.599710	0.253372	0.761082
	C8394	C	0.566699	0.252764	0.757125
	C8395	C	0.527314	0.252865	0.862665
	C8396	C	0.593163	0.190744	0.785199
	C8397	C	0.593042	0.315235	0.785200
	C8398	C	0.597858	0.253224	0.771296
	C8399	C	0.558889	0.252900	0.766020
	C8400	C	0.529339	0.752911	0.852413
	C8401	C	0.530995	0.815063	0.847713
	C8402	C	0.530932	0.690741	0.847711
	C8403	C	0.529180	0.252830	0.852474
	C8404	C	0.530872	0.314878	0.847755
	C8405	C	0.530785	0.190454	0.847797
	C8406	C	0.555989	0.191021	0.770459
	C8407	C	0.596268	0.190958	0.775989
	C8408	C	0.596150	0.315367	0.775984
	C8409	C	0.555684	0.314864	0.770359
	C8410	C	0.591465	0.252893	0.789894
	C8411	C	0.542072	0.043228	0.883866
	C8412	C	0.587121	0.043299	0.744202
	C8413	C	0.587025	0.962368	0.744992
	C8414	C	0.542073	0.962367	0.883877
	C8415	C	0.587082	0.962672	0.744183
	N8416	N	0.525137	0.070122	0.807191
	N8417	N	0.525166	0.935636	0.807181
	N8418	N	0.525156	0.435676	0.807201
	N8419	N	0.525265	0.570146	0.807173
	N8420	N	0.539639	0.435722	0.879026
	N8421	N	0.539629	0.570268	0.879047
	N8422	N	0.539579	0.070049	0.879088
	N8423	N	0.539544	0.935523	0.879093
	O8424	O	0.614368	0.694988	0.925387
	O8425	O	0.614480	0.811030	0.925416
	O8426	O	0.494680	0.694483	0.951681
	O8427	O	0.494854	0.810721	0.951654
	O8428	O	0.494871	0.194685	0.951622
	O8429	O	0.494781	0.310851	0.951692
	O8430	O	0.494299	0.693858	0.932308
	O8431	O	0.494428	0.810568	0.932372
	O8432	O	0.494379	0.194830	0.932321
	O8433	O	0.494354	0.311412	0.932329
	O8434	O	0.619433	0.694662	0.945847
	O8435	O	0.619503	0.810670	0.945908
	O8436	O	0.619580	0.194784	0.945875
	O8437	O	0.619453	0.310747	0.945837
	O8438	O	0.614415	0.194710	0.925371
	O8439	O	0.614441	0.310565	0.925435
	O8440	O	0.557381	0.694953	0.889281
	O8441	O	0.526653	0.694146	0.889914
	O8442	O	0.583189	0.694350	0.986659
	O8443	O	0.583120	0.810562	0.986619
	O8444	O	0.551680	0.694403	0.987909
	O8445	O	0.551871	0.810554	0.987764
	O8446	O	0.526622	0.810588	0.889893
	O8447	O	0.557407	0.811347	0.889243
	O8448	O	0.557295	0.194701	0.889288
	O8449	O	0.526625	0.194861	0.889911
	O8450	O	0.583178	0.194608	0.986642
	O8451	O	0.583095	0.310561	0.986602
	O8452	O	0.551778	0.194573	0.987878
	O8453	O	0.551750	0.310434	0.987855
	O8454	O	0.526433	0.311409	0.889805
	O8455	O	0.557476	0.311153	0.889181
	H8456	H	0.513061	0.643563	0.963291
	H8457	H	0.513220	0.860892	0.963172
	H8458	H	0.513221	0.144819	0.963163
	H8459	H	0.512944	0.360442	0.963367
	H8460	H	0.506544	0.861996	0.919273
	H8461	H	0.506384	0.643028	0.919275
	H8462	H	0.506176	0.362568	0.919214
	H8463	H	0.506577	0.143508	0.919298
	H8464	H	0.631854	0.064544	0.933625
	H8465	H	0.630474	0.064471	0.934430
	H8466	H	0.630534	0.941518	0.934459
	H8467	H	0.632016	0.941240	0.933689
	H8468	H	0.634498	0.064738	0.934196
	H8469	H	0.634527	0.941054	0.934246
	H8470	H	0.474652	0.064446	0.943101
	H8471	H	0.474650	0.941204	0.943084
	H8472	H	0.477579	0.064636	0.943716
	H8473	H	0.477574	0.941609	0.943714
	H8474	H	0.480598	0.064462	0.942144
	H8475	H	0.480648	0.941606	0.942159
	H8476	H	0.471660	0.440874	0.938290
	H8477	H	0.469743	0.440902	0.941682
	H8478	H	0.480005	0.440730	0.937591
	H8479	H	0.633963	0.441288	0.936892
	H8480	H	0.630186	0.441292	0.936162
	H8481	H	0.629464	0.441040	0.934551
	H8482	H	0.469762	0.564354	0.941685
	H8483	H	0.471751	0.564074	0.938315
	H8484	H	0.629435	0.564423	0.934599
	H8485	H	0.630193	0.564499	0.936221
	H8486	H	0.633933	0.564421	0.936902
	H8487	H	0.479961	0.564185	0.937618
	H8488	H	0.607775	0.643809	0.958872
	H8489	H	0.607793	0.860976	0.958908
	H8490	H	0.607737	0.144717	0.958836
	H8491	H	0.607670	0.360644	0.958804
	H8492	H	0.517202	0.642997	0.903839
	H8493	H	0.575532	0.645113	0.900901
	H8494	H	0.575607	0.861665	0.900887
	H8495	H	0.517342	0.861638	0.903834
	H8496	H	0.595929	0.645133	0.913896
	H8497	H	0.596053	0.861393	0.913894
	H8498	H	0.594869	0.643861	0.973630
	H8499	H	0.594881	0.860942	0.973675
	H8500	H	0.539433	0.441231	0.879420
	H8501	H	0.569527	0.441040	0.996265
	H8502	H	0.539043	0.441339	0.878988
	H8503	H	0.539285	0.441355	0.878737
	H8504	H	0.568582	0.441441	0.998182
	H8505	H	0.568028	0.441124	0.997201
	H8506	H	0.569591	0.563940	0.996311
	H8507	H	0.539481	0.564425	0.879415
	H8508	H	0.568102	0.564536	0.997254
	H8509	H	0.568700	0.564827	0.998200
	H8510	H	0.539250	0.565021	0.878763
	H8511	H	0.539016	0.564828	0.879021
	H8512	H	0.594822	0.144693	0.973612
	H8513	H	0.594709	0.360647	0.973571
	H8514	H	0.529965	0.064851	0.874288
	H8515	H	0.527741	0.064651	0.880140
	H8516	H	0.543333	0.064474	0.872328
	H8517	H	0.533501	0.860915	0.976208
	H8518	H	0.533347	0.643835	0.976366
	H8519	H	0.533227	0.360505	0.976427
	H8520	H	0.533470	0.144404	0.976239
	H8521	H	0.517291	0.143653	0.903842
	H8522	H	0.575828	0.144386	0.900746
	H8523	H	0.575822	0.361109	0.900724
	H8524	H	0.516901	0.362714	0.903739
	H8525	H	0.596097	0.144586	0.913792
	H8526	H	0.596101	0.361088	0.913826
	H8527	H	0.575228	0.064224	0.999082
	H8528	H	0.575153	0.064482	0.996228
	H8529	H	0.569514	0.064639	0.994071
	H8530	H	0.527681	0.941333	0.880141
	H8531	H	0.529912	0.941340	0.874276
	H8532	H	0.543296	0.941106	0.872312
	H8533	H	0.575202	0.941014	0.999108
	H8534	H	0.575214	0.940939	0.996261
	H8535	H	0.569530	0.941251	0.994039
	Zn8536	Zn	0.476999	0.680358	0.941504
	Zn8537	Zn	0.477130	0.825516	0.941553
	Zn8538	Zn	0.477102	0.180506	0.941493
	Zn8539	Zn	0.477109	0.325373	0.941505
	Zn8540	Zn	0.570042	0.679847	0.997501
	Zn8541	Zn	0.570025	0.825591	0.997448
	Zn8542	Zn	0.570036	0.180055	0.997469
	Zn8543	Zn	0.570012	0.325528	0.997406
	C8544	C	0.609538	0.753131	0.922458
	C8545	C	0.499560	0.752446	0.954655
	C8546	C	0.511881	0.752118	0.962466
	C8547	C	0.517609	0.690721	0.966186
	C8548	C	0.517683	0.813679	0.966101
	C8549	C	0.499621	0.252724	0.954639
	C8550	C	0.511867	0.252624	0.962478
	C8551	C	0.517653	0.191506	0.966127
	C8552	C	0.517506	0.313597	0.966247
	C8553	C	0.497820	0.752261	0.929069
	C8554	C	0.505737	0.752467	0.920192
	C8555	C	0.508993	0.814278	0.915852
	C8556	C	0.508898	0.690529	0.915865
	C8557	C	0.497831	0.253141	0.929057
	C8558	C	0.505677	0.253194	0.920165
	C8559	C	0.508713	0.315072	0.915787
	C8560	C	0.508923	0.191180	0.915844
	C8561	C	0.631576	0.043313	0.934292
	C8562	C	0.631618	0.962591	0.934312
	C8563	C	0.476329	0.043236	0.942914
	C8564	C	0.476328	0.962582	0.942916
	C8565	C	0.479406	0.043404	0.941302
	C8566	C	0.479392	0.962758	0.941327
	C8567	C	0.472342	0.462317	0.940390
	C8568	C	0.634341	0.462547	0.935994
	C8569	C	0.630631	0.462325	0.935274
	C8570	C	0.472360	0.543062	0.940382
	C8571	C	0.630584	0.543269	0.935275
	C8572	C	0.634323	0.543400	0.935969
	C8573	C	0.616378	0.752606	0.949242
	C8574	C	0.616379	0.252757	0.949202
	C8575	C	0.608472	0.752493	0.958019
	C8576	C	0.604873	0.690901	0.962151
	C8577	C	0.604895	0.813952	0.962179
	C8578	C	0.608447	0.252672	0.957989
	C8579	C	0.604852	0.191502	0.962132
	C8580	C	0.604807	0.313796	0.962117
	C8581	C	0.609613	0.252742	0.922422
	C8582	C	0.562167	0.753190	0.892255
	C8583	C	0.524096	0.752343	0.893512
	C8584	C	0.546944	0.752443	0.984882
	C8585	C	0.591470	0.692147	0.910977
	C8586	C	0.591483	0.814620	0.911001
	C8587	C	0.574444	0.753402	0.900077
	C8588	C	0.517749	0.752315	0.902837
	C8589	C	0.514869	0.690515	0.907278
	C8590	C	0.580178	0.692129	0.903752
	C8591	C	0.580188	0.814692	0.903773
	C8592	C	0.514962	0.814212	0.907274
	C8593	C	0.597192	0.753348	0.914686
	C8594	C	0.586276	0.752434	0.983294
	C8595	C	0.597758	0.690936	0.970348
	C8596	C	0.597776	0.813886	0.970372
	C8597	C	0.594196	0.752407	0.974511
	C8598	C	0.570266	0.462303	0.996685
	C8599	C	0.539281	0.462556	0.878904
	C8600	C	0.568766	0.462421	0.997636
	C8601	C	0.570268	0.543114	0.996705
	C8602	C	0.568791	0.543280	0.997654
	C8603	C	0.539271	0.543578	0.878920
	C8604	C	0.586255	0.252587	0.983271
	C8605	C	0.597743	0.191478	0.970332
	C8606	C	0.597684	0.313782	0.970309
	C8607	C	0.594165	0.252624	0.974486
	C8608	C	0.531636	0.043418	0.877726
	C8609	C	0.562192	0.252920	0.892213
	C8610	C	0.523993	0.253246	0.893466
	C8611	C	0.546943	0.252470	0.984899
	C8612	C	0.591495	0.191625	0.910945
	C8613	C	0.591517	0.314115	0.910948
	C8614	C	0.574465	0.252893	0.900034
	C8615	C	0.517589	0.253325	0.902783
	C8616	C	0.534582	0.752340	0.977109
	C8617	C	0.528938	0.813745	0.973353
	C8618	C	0.528862	0.690904	0.973437
	C8619	C	0.534560	0.252435	0.977137
	C8620	C	0.528765	0.313556	0.973495
	C8621	C	0.528902	0.191402	0.973386
	C8622	C	0.514849	0.191262	0.907251
	C8623	C	0.580243	0.191530	0.903698
	C8624	C	0.580256	0.314155	0.903701
	C8625	C	0.514633	0.315143	0.907194
	C8626	C	0.597195	0.252904	0.914673
	C8627	C	0.573825	0.043267	0.997619
	C8628	C	0.545080	0.043229	0.875760
	C8629	C	0.531599	0.962494	0.877728
	C8630	C	0.573859	0.962515	0.997625
	C8631	C	0.545087	0.962588	0.875762
	N8632	N	0.476998	0.070251	0.941537
	N8633	N	0.477018	0.935629	0.941567
	N8634	N	0.477028	0.435626	0.941508
	N8635	N	0.477006	0.570216	0.941507
	N8636	N	0.570015	0.435498	0.997418
	N8637	N	0.570041	0.569931	0.997452
	N8638	N	0.570048	0.070126	0.997470
	N8639	N	0.570070	0.935641	0.997458
	O8640	O	0.727120	0.693825	0.050635
	O8641	O	0.726865	0.810841	0.050650
	O8642	O	0.674955	0.693892	0.066147
	O8643	O	0.675162	0.810825	0.066116
	O8644	O	0.674990	0.194389	0.066139
	O8645	O	0.675023	0.311386	0.066137
	O8646	O	0.675781	0.694227	0.042961
	O8647	O	0.675755	0.810731	0.042906
	O8648	O	0.675727	0.194692	0.042880
	O8649	O	0.675645	0.311192	0.042843
	O8650	O	0.726170	0.694468	0.073794
	O8651	O	0.726227	0.810893	0.073810
	O8652	O	0.726151	0.194656	0.073810
	O8653	O	0.726297	0.310850	0.073858
	O8654	O	0.726994	0.195021	0.050670
	O8655	O	0.726964	0.312026	0.050713
	O8656	O	0.737760	0.694080	0.003623
	O8657	O	0.707706	0.694302	0.000363
	O8658	O	0.694349	0.694814	0.116416
	O8659	O	0.694420	0.811516	0.116408
	O8660	O	0.664529	0.694114	0.113202
	O8661	O	0.664678	0.810756	0.113127
	O8662	O	0.707942	0.811028	0.000510
	O8663	O	0.737708	0.810871	0.003663
	O8664	O	0.737730	0.194530	0.003672
	O8665	O	0.707825	0.194084	0.000425
	O8666	O	0.694348	0.194300	0.116400
	O8667	O	0.694395	0.311124	0.116393
	O8668	O	0.664615	0.194879	0.113180
	O8669	O	0.664530	0.311757	0.113217
	O8670	O	0.707769	0.310966	0.000383
	O8671	O	0.737549	0.311571	0.003692
	H8672	H	0.672561	0.642345	0.081394
	H8673	H	0.672340	0.862319	0.081331
	H8674	H	0.672305	0.143349	0.081361
	H8675	H	0.672523	0.363165	0.081370
	H8676	H	0.685121	0.861857	0.029012
	H8677	H	0.684934	0.642470	0.028968
	H8678	H	0.684887	0.362418	0.028861
	H8679	H	0.685007	0.143017	0.028973
	H8680	H	0.737931	0.064716	0.058994
	H8681	H	0.733415	0.064766	0.060890
	H8682	H	0.733414	0.941238	0.060900
	H8683	H	0.737952	0.941456	0.058980
	H8684	H	0.745389	0.064708	0.061026
	H8685	H	0.745371	0.941457	0.061040
	H8686	H	0.666486	0.064703	0.054637
	H8687	H	0.666421	0.941008	0.054653
	H8688	H	0.666153	0.064476	0.052637
	H8689	H	0.666125	0.941048	0.052676
	H8690	H	0.661880	0.064397	0.051280
	H8691	H	0.661887	0.941230	0.051319
	H8692	H	0.663715	0.441067	0.057029
	H8693	H	0.667512	0.440801	0.055523
	H8694	H	0.657660	0.441170	0.055277
	H8695	H	0.741476	0.441268	0.066768
	H8696	H	0.734685	0.441124	0.065101
	H8697	H	0.733493	0.441335	0.062045
	H8698	H	0.667592	0.564466	0.055571
	H8699	H	0.663655	0.564040	0.057072
	H8700	H	0.733580	0.564689	0.062000
	H8701	H	0.734674	0.564740	0.065073
	H8702	H	0.741533	0.565077	0.066790
	H8703	H	0.657702	0.564411	0.055240
	H8704	H	0.716840	0.643476	0.087758
	H8705	H	0.716946	0.862255	0.087803
	H8706	H	0.716902	0.143158	0.087813
	H8707	H	0.716951	0.362314	0.087839
	H8708	H	0.695746	0.642542	0.013526
	H8709	H	0.735074	0.642180	0.018793
	H8710	H	0.735188	0.862154	0.018850
	H8711	H	0.695935	0.861987	0.013580
	H8712	H	0.729672	0.642131	0.035439
	H8713	H	0.729681	0.862325	0.035436
	H8714	H	0.706181	0.643502	0.103247
	H8715	H	0.706234	0.862340	0.103271
	H8716	H	0.721562	0.441406	-0.007288
	H8717	H	0.679994	0.441201	0.127460
	H8718	H	0.721305	0.441255	-0.010433
	H8719	H	0.724502	0.441328	-0.011560
	H8720	H	0.678249	0.441639	0.123384
	H8721	H	0.680834	0.441400	0.124835
	H8722	H	0.679966	0.564622	0.127514
	H8723	H	0.721620	0.564735	-0.007327
	H8724	H	0.680845	0.564391	0.124837
	H8725	H	0.678201	0.564859	0.123332
	H8726	H	0.724575	0.564860	-0.011559
	H8727	H	0.721313	0.564553	-0.010438
	H8728	H	0.706219	0.143094	0.103289
	H8729	H	0.706304	0.362208	0.103339
	H8730	H	0.724700	0.063545	-0.008890
	H8731	H	0.724719	0.064355	-0.008675
	H8732	H	0.725137	0.064021	-0.009019
	H8733	H	0.667035	0.862180	0.097942
	H8734	H	0.667283	0.642272	0.098014
	H8735	H	0.667182	0.363497	0.098007
	H8736	H	0.667015	0.143515	0.098007
	H8737	H	0.695844	0.142690	0.013529
	H8738	H	0.734864	0.143224	0.018846
	H8739	H	0.735041	0.363244	0.018865
	H8740	H	0.695733	0.362301	0.013424
	H8741	H	0.729531	0.143493	0.035497
	H8742	H	0.729742	0.363545	0.035501
	H8743	H	0.681433	0.064368	0.126029
	H8744	H	0.680230	0.064569	0.123918
	H8745	H	0.675290	0.064588	0.123145
	H8746	H	0.724761	0.940746	-0.008667
	H8747	H	0.724754	0.940892	-0.008882
	H8748	H	0.725081	0.940718	-0.008961
	H8749	H	0.681409	0.940956	0.126076
	H8750	H	0.680244	0.941136	0.123898
	H8751	H	0.675331	0.940816	0.123177
	Zn8752	Zn	0.662520	0.680201	0.053725
	Zn8753	Zn	0.662591	0.825490	0.053711
	Zn8754	Zn	0.662572	0.180119	0.053665
	Zn8755	Zn	0.662568	0.325151	0.053690
	Zn8756	Zn	0.677056	0.680461	0.125616
	Zn8757	Zn	0.677082	0.824956	0.125571
	Zn8758	Zn	0.677086	0.180419	0.125593
	Zn8759	Zn	0.677147	0.325232	0.125593
	C8760	C	0.727214	0.752390	0.046649
	C8761	C	0.674810	0.752434	0.070124
	C8762	C	0.672914	0.752375	0.080323
	C8763	C	0.671399	0.690207	0.085066
	C8764	C	0.671263	0.814461	0.085029
	C8765	C	0.674808	0.252896	0.070134
	C8766	C	0.672890	0.253148	0.080359
	C8767	C	0.671211	0.191095	0.085067
	C8768	C	0.671340	0.315416	0.085071
	C8769	C	0.678231	0.752359	0.039304
	C8770	C	0.684602	0.752204	0.029976
	C8771	C	0.687474	0.814243	0.025561
	C8772	C	0.687378	0.690168	0.025539
	C8773	C	0.678184	0.252917	0.039245
	C8774	C	0.684532	0.252758	0.029908
	C8775	C	0.687343	0.314735	0.025444
	C8776	C	0.687412	0.190625	0.025516
	C8777	C	0.736652	0.043516	0.060750
	C8778	C	0.736667	0.962643	0.060735
	C8779	C	0.665379	0.043205	0.053660
	C8780	C	0.665369	0.962306	0.053675
	C8781	C	0.661142	0.043164	0.052337
	C8782	C	0.661143	0.962489	0.052349
	C8783	C	0.664839	0.462162	0.055624
	C8784	C	0.742398	0.462687	0.065085
	C8785	C	0.735526	0.462375	0.063451
	C8786	C	0.664811	0.543032	0.055620
	C8787	C	0.735551	0.543253	0.063434
	C8788	C	0.742386	0.543362	0.065083
	C8789	C	0.723661	0.752679	0.077428
	C8790	C	0.723738	0.252733	0.077473
	C8791	C	0.717379	0.752836	0.086779
	C8792	C	0.714552	0.691109	0.091227
	C8793	C	0.714593	0.814682	0.091243
	C8794	C	0.717492	0.252714	0.086839
	C8795	C	0.714617	0.190780	0.091272
	C8796	C	0.714656	0.314618	0.091293
	C8797	C	0.727185	0.253615	0.046688
	C8798	C	0.737444	0.752417	0.007656
	C8799	C	0.704359	0.752579	0.003708
	C8800	C	0.664770	0.752285	0.109139
	C8801	C	0.730804	0.689915	0.031735
	C8802	C	0.730788	0.814385	0.031749
	C8803	C	0.735560	0.752170	0.017855
	C8804	C	0.696456	0.752274	0.012584
	C8805	C	0.693288	0.690237	0.016939
	C8806	C	0.733911	0.689840	0.022517
	C8807	C	0.733903	0.814366	0.022539
	C8808	C	0.693377	0.814311	0.016965
	C8809	C	0.729113	0.752195	0.036443
	C8810	C	0.697794	0.753088	0.113124
	C8811	C	0.708699	0.691073	0.099844
	C8812	C	0.708731	0.814743	0.099859
	C8813	C	0.705616	0.752903	0.104226
	C8814	C	0.678026	0.462440	0.127203
	C8815	C	0.723554	0.462289	-0.010419
	C8816	C	0.678871	0.462683	0.124492
	C8817	C	0.677984	0.543214	0.127217
	C8818	C	0.678850	0.543388	0.124478
	C8819	C	0.723587	0.543391	-0.010414
	C8820	C	0.697848	0.252673	0.113142
	C8821	C	0.708756	0.190739	0.099885
	C8822	C	0.708784	0.314568	0.099908
	C8823	C	0.705693	0.252632	0.104256
	C8824	C	0.724832	0.042893	-0.008758
	C8825	C	0.737403	0.253012	0.007671
	C8826	C	0.704308	0.252536	0.003652
	C8827	C	0.664760	0.253396	0.109186
	C8828	C	0.730690	0.191184	0.031786
	C8829	C	0.730794	0.315752	0.031792
	C8830	C	0.735427	0.253255	0.017871
	C8831	C	0.696440	0.252492	0.012542
	C8832	C	0.666604	0.752267	0.098944
	C8833	C	0.668202	0.814431	0.094247
	C8834	C	0.668334	0.690030	0.094287
	C8835	C	0.666620	0.253487	0.098991
	C8836	C	0.668292	0.315691	0.094293
	C8837	C	0.668161	0.191224	0.094292
	C8838	C	0.693333	0.190491	0.016925
	C8839	C	0.733748	0.191080	0.022558
	C8840	C	0.733843	0.315517	0.022569
	C8841	C	0.693264	0.314680	0.016856
	C8842	C	0.729118	0.253610	0.036485
	C8843	C	0.679816	0.043149	0.125146
	C8844	C	0.725262	0.043236	-0.008910
	C8845	C	0.724871	0.962263	-0.008770
	C8846	C	0.679793	0.962336	0.125155
	C8847	C	0.725267	0.962315	-0.008885
	N8848	N	0.662747	0.070284	0.053726
	N8849	N	0.662733	0.935714	0.053731
	N8850	N	0.662611	0.435132	0.053707
	N8851	N	0.662593	0.569724	0.053701
	N8852	N	0.677107	0.435467	0.125652
	N8853	N	0.677061	0.570070	0.125626
	N8854	N	0.677088	0.070092	0.125594
	N8855	N	0.677058	0.935435	0.125584
	O8856	O	0.746703	0.694258	0.174549
	O8857	O	0.746663	0.810431	0.174551
	O8858	O	0.631594	0.694854	0.198549
	O8859	O	0.631672	0.811224	0.198463
	O8860	O	0.631652	0.194954	0.198479
	O8861	O	0.631505	0.310973	0.198536
	O8862	O	0.631818	0.694545	0.178890
	O8863	O	0.631800	0.811158	0.178898
	O8864	O	0.631785	0.194902	0.178879
	O8865	O	0.631724	0.311514	0.178846
	O8866	O	0.746593	0.693938	0.194209
	O8867	O	0.746564	0.810553	0.194249
	O8868	O	0.746442	0.195149	0.194147
	O8869	O	0.746536	0.311875	0.194186
	O8870	O	0.746648	0.194876	0.174574
	O8871	O	0.746719	0.311023	0.174495
	O8872	O	0.694265	0.694788	0.136042
	O8873	O	0.663737	0.694617	0.136372
	O8874	O	0.714626	0.694014	0.236766
	O8875	O	0.714643	0.810576	0.236750
	O8876	O	0.684002	0.694903	0.237000
	O8877	O	0.684007	0.811208	0.237005
	O8878	O	0.663658	0.810982	0.136271
	O8879	O	0.694101	0.810837	0.136151
	O8880	O	0.694223	0.194658	0.136068
	O8881	O	0.663601	0.194982	0.136303
	O8882	O	0.714631	0.194996	0.236787
	O8883	O	0.714598	0.311399	0.236758
	O8884	O	0.683956	0.194676	0.236975
	O8885	O	0.683875	0.310733	0.237023
	O8886	O	0.663702	0.311339	0.136333
	O8887	O	0.694268	0.310901	0.136051
	H8888	H	0.648512	0.644663	0.210764
	H8889	H	0.648639	0.861907	0.210724
	H8890	H	0.648310	0.145275	0.210816
	H8891	H	0.648485	0.360644	0.210759
	H8892	H	0.643612	0.862322	0.165730
	H8893	H	0.643769	0.643613	0.165791
	H8894	H	0.643553	0.362587	0.165713
	H8895	H	0.643674	0.143620	0.165733
	H8896	H	0.763698	0.065030	0.177940
	H8897	H	0.754697	0.064284	0.180083
	H8898	H	0.754612	0.941646	0.180003
	H8899	H	0.763729	0.940999	0.177889
	H8900	H	0.774878	0.064287	0.183121
	H8901	H	0.774885	0.940676	0.183106
	H8902	H	0.606547	0.064333	0.185269
	H8903	H	0.606575	0.941162	0.185274
	H8904	H	0.606232	0.064204	0.189726
	H8905	H	0.606262	0.941026	0.189690
	H8906	H	0.614962	0.064301	0.193379
	H8907	H	0.614939	0.940863	0.193374
	H8908	H	0.616969	0.441002	0.185197
	H8909	H	0.612246	0.441024	0.184868
	H8910	H	0.619916	0.441092	0.188739
	H8911	H	0.762072	0.441324	0.184280
	H8912	H	0.764248	0.441206	0.183775
	H8913	H	0.765744	0.441180	0.184410
	H8914	H	0.612209	0.564516	0.184865
	H8915	H	0.616981	0.564662	0.185180
	H8916	H	0.765746	0.564519	0.184408
	H8917	H	0.764274	0.564561	0.183739
	H8918	H	0.762138	0.564512	0.184232
	H8919	H	0.620044	0.564290	0.188739
	H8920	H	0.734670	0.642380	0.207340
	H8921	H	0.734709	0.861866	0.207357
	H8922	H	0.734538	0.143892	0.207264
	H8923	H	0.734752	0.363101	0.207365
	H8924	H	0.654437	0.643527	0.150332
	H8925	H	0.711303	0.644520	0.148240
	H8926	H	0.711029	0.860836	0.148452
	H8927	H	0.654290	0.862476	0.150230
	H8928	H	0.729841	0.644303	0.162177
	H8929	H	0.729614	0.860394	0.162351
	H8930	H	0.724001	0.642327	0.222827
	H8931	H	0.724073	0.861891	0.222848
	H8932	H	0.676782	0.441526	0.128045
	H8933	H	0.696804	0.441448	0.245612
	H8934	H	0.673249	0.441262	0.126089
	H8935	H	0.673821	0.441343	0.124089
	H8936	H	0.700913	0.441129	0.250548
	H8937	H	0.697087	0.440885	0.249150
	H8938	H	0.696812	0.564511	0.245643
	H8939	H	0.676696	0.564463	0.128067
	H8940	H	0.697052	0.564587	0.249185
	H8941	H	0.700954	0.564740	0.250551
	H8942	H	0.673762	0.564940	0.124090
	H8943	H	0.673099	0.564707	0.126061
	H8944	H	0.723936	0.143644	0.222774
	H8945	H	0.724120	0.362733	0.222848
	H8946	H	0.674552	0.063957	0.127608
	H8947	H	0.678159	0.064230	0.128168
	H8948	H	0.672954	0.064729	0.124699
	H8949	H	0.667111	0.861825	0.224658
	H8950	H	0.667019	0.644315	0.224702
	H8951	H	0.667083	0.360807	0.224669
	H8952	H	0.666947	0.144995	0.224715
	H8953	H	0.654363	0.143845	0.150248
	H8954	H	0.710992	0.144498	0.148429
	H8955	H	0.711202	0.360907	0.148277
	H8956	H	0.654247	0.362483	0.150246
	H8957	H	0.729591	0.144286	0.162319
	H8958	H	0.729793	0.361182	0.162196
	H8959	H	0.694313	0.064174	0.249534
	H8960	H	0.699818	0.064248	0.252101
	H8961	H	0.708263	0.064888	0.250132
	H8962	H	0.678121	0.940839	0.128166
	H8963	H	0.674513	0.940806	0.127608
	H8964	H	0.672938	0.940629	0.124706
	H8965	H	0.694355	0.940909	0.249551
	H8966	H	0.699907	0.940813	0.252146
	H8967	H	0.708236	0.941704	0.250128
	Zn8968	Zn	0.614498	0.680584	0.188051
	Zn8969	Zn	0.614474	0.825441	0.188024
	Zn8970	Zn	0.614501	0.180393	0.188046
	Zn8971	Zn	0.614379	0.325226	0.187986
	Zn8972	Zn	0.701161	0.680319	0.247487
	Zn8973	Zn	0.701269	0.825177	0.247454
	Zn8974	Zn	0.701134	0.180329	0.247426
	Zn8975	Zn	0.701117	0.325165	0.247436
	C8976	C	0.742196	0.752314	0.171402
	C8977	C	0.636126	0.753125	0.201639
	C8978	C	0.647470	0.753275	0.209931
	C8979	C	0.652647	0.691669	0.213874
	C8980	C	0.652703	0.814756	0.213856
	C8981	C	0.636060	0.253021	0.201645
	C8982	C	0.647367	0.253029	0.209947
	C8983	C	0.652526	0.191958	0.213898
	C8984	C	0.652614	0.313961	0.213872
	C8985	C	0.635255	0.752902	0.175613
	C8986	C	0.643101	0.753030	0.166726
	C8987	C	0.646141	0.814877	0.162324
	C8988	C	0.646233	0.691204	0.162370
	C8989	C	0.635178	0.253195	0.175569
	C8990	C	0.642971	0.253109	0.166671
	C8991	C	0.646038	0.314986	0.162301
	C8992	C	0.646102	0.191238	0.162307
	C8993	C	0.760436	0.043163	0.180556
	C8994	C	0.760427	0.962466	0.180542
	C8995	C	0.608518	0.042924	0.187636
	C8996	C	0.608516	0.962363	0.187641
	C8997	C	0.617260	0.043116	0.191290
	C8998	C	0.617249	0.962280	0.191305
	C8999	C	0.614492	0.462206	0.185822
	C9000	C	0.762558	0.462526	0.184840
	C9001	C	0.764767	0.462445	0.184320
	C9002	C	0.614485	0.543110	0.185816
	C9003	C	0.764773	0.543340	0.184327
	C9004	C	0.762550	0.543283	0.184824
	C9005	C	0.743152	0.752160	0.197526
	C9006	C	0.743027	0.253538	0.197437
	C9007	C	0.735349	0.752032	0.206416
	C9008	C	0.732268	0.690037	0.210785
	C9009	C	0.732291	0.814133	0.210790
	C9010	C	0.735283	0.253427	0.206358
	C9011	C	0.732141	0.191399	0.210710
	C9012	C	0.732260	0.315323	0.210760
	C9013	C	0.742183	0.252914	0.171388
	C9014	C	0.698652	0.752792	0.139251
	C9015	C	0.661176	0.752934	0.139934
	C9016	C	0.679567	0.753058	0.233830
	C9017	C	0.725656	0.691264	0.159110
	C9018	C	0.725530	0.813572	0.159213
	C9019	C	0.710003	0.752672	0.147533
	C9020	C	0.654852	0.753101	0.149292
	C9021	C	0.652080	0.691200	0.153753
	C9022	C	0.715308	0.691391	0.151409
	C9023	C	0.715175	0.813753	0.151509
	C9024	C	0.651993	0.814983	0.153705
	C9025	C	0.730819	0.752344	0.163111
	C9026	C	0.717148	0.752217	0.233142
	C9027	C	0.726351	0.690125	0.219381
	C9028	C	0.726381	0.814171	0.219388
	C9029	C	0.723524	0.752158	0.223815
	C9030	C	0.699342	0.462648	0.245654
	C9031	C	0.674411	0.462507	0.125237
	C9032	C	0.699610	0.462320	0.249220
	C9033	C	0.699359	0.543393	0.245669
	C9034	C	0.699625	0.543442	0.249247
	C9035	C	0.674387	0.543606	0.125241
	C9036	C	0.717165	0.253144	0.233150
	C9037	C	0.726295	0.191279	0.219330
	C9038	C	0.726406	0.315136	0.219378
	C9039	C	0.723513	0.253116	0.223804
	C9040	C	0.676516	0.042881	0.127278
	C9041	C	0.698721	0.252770	0.139210
	C9042	C	0.661120	0.253161	0.139924
	C9043	C	0.679437	0.252748	0.233843
	C9044	C	0.725457	0.191482	0.159236
	C9045	C	0.725570	0.314055	0.159155
	C9046	C	0.710008	0.252723	0.147528
	C9047	C	0.654778	0.253163	0.149268
	C9048	C	0.668233	0.753085	0.225527
	C9049	C	0.662988	0.814675	0.221581
	C9050	C	0.662946	0.691544	0.221602
	C9051	C	0.668100	0.252846	0.225549
	C9052	C	0.662918	0.313924	0.221597
	C9053	C	0.662824	0.191871	0.221622
	C9054	C	0.651973	0.191315	0.153701
	C9055	C	0.715158	0.191446	0.151510
	C9056	C	0.715290	0.314009	0.151429
	C9057	C	0.651910	0.315033	0.153694
	C9058	C	0.730781	0.252809	0.163123
	C9059	C	0.698215	0.043187	0.249919
	C9060	C	0.674866	0.043285	0.124363
	C9061	C	0.676490	0.962261	0.127277
	C9062	C	0.698269	0.962421	0.249933
	C9063	C	0.674860	0.962141	0.124355
	N9064	N	0.614446	0.069975	0.187999
	N9065	N	0.614455	0.935427	0.188023
	N9066	N	0.614338	0.435362	0.188059
	N9067	N	0.614369	0.570041	0.188076
	N9068	N	0.701189	0.435740	0.247474
	N9069	N	0.701226	0.570303	0.247492
	N9070	N	0.701270	0.070137	0.247437
	N9071	N	0.701317	0.935549	0.247469
	O9072	O	0.703176	0.695084	0.306936
	O9073	O	0.703190	0.812022	0.306923
	O9074	O	0.651278	0.694462	0.322345
	O9075	O	0.651180	0.811094	0.322386
	O9076	O	0.651065	0.193969	0.322336
	O9077	O	0.651172	0.310719	0.322326
	O9078	O	0.652146	0.694816	0.299241
	O9079	O	0.652120	0.811303	0.299236
	O9080	O	0.652117	0.194190	0.299216
	O9081	O	0.652085	0.310589	0.299208
	O9082	O	0.702429	0.695272	0.330088
	O9083	O	0.702471	0.811793	0.330128
	O9084	O	0.702483	0.194427	0.330184
	O9085	O	0.702367	0.310970	0.330121
	O9086	O	0.703309	0.194263	0.306947
	O9087	O	0.703263	0.311131	0.306942
	O9088	O	0.713625	0.694259	0.259937
	O9089	O	0.683824	0.694565	0.256649
	O9090	O	0.670466	0.694269	0.372637
	O9091	O	0.670445	0.810906	0.372662
	O9092	O	0.640666	0.694677	0.369379
	O9093	O	0.640588	0.811639	0.369389
	O9094	O	0.683855	0.811147	0.256608
	O9095	O	0.713714	0.811135	0.259917
	O9096	O	0.713688	0.194325	0.259881
	O9097	O	0.683915	0.194075	0.256634
	O9098	O	0.670376	0.194856	0.372678
	O9099	O	0.670327	0.311570	0.372637
	O9100	O	0.640559	0.193887	0.369382
	O9101	O	0.640574	0.310779	0.369347
	O9102	O	0.683953	0.310833	0.256655
	O9103	O	0.713690	0.311405	0.259894
	H9104	H	0.648522	0.643067	0.337560
	H9105	H	0.648681	0.862800	0.337580
	H9106	H	0.648703	0.142465	0.337553
	H9107	H	0.648477	0.362350	0.337565
	H9108	H	0.661276	0.862569	0.285221
	H9109	H	0.661610	0.643604	0.285341
	H9110	H	0.661432	0.361869	0.285278
	H9111	H	0.661457	0.142653	0.285247
	H9112	H	0.716858	0.064733	0.315587
	H9113	H	0.711515	0.064809	0.316200
	H9114	H	0.711581	0.941246	0.316202
	H9115	H	0.716799	0.941569	0.315618
	H9116	H	0.722136	0.064965	0.318967
	H9117	H	0.722183	0.941313	0.318962
	H9118	H	0.635271	0.064302	0.303215
	H9119	H	0.635269	0.941396	0.303177
	H9120	H	0.628115	0.064242	0.306793
	H9121	H	0.628119	0.941215	0.306787
	H9122	H	0.630947	0.064352	0.314522
	H9123	H	0.630897	0.940995	0.314574
	H9124	H	0.639945	0.440814	0.308892
	H9125	H	0.638153	0.441093	0.308613
	H9126	H	0.640778	0.440784	0.310340
	H9127	H	0.714736	0.441696	0.324694
	H9128	H	0.707036	0.441435	0.320251
	H9129	H	0.708515	0.441100	0.315980
	H9130	H	0.638121	0.564227	0.308622
	H9131	H	0.639955	0.564211	0.308858
	H9132	H	0.708495	0.564702	0.315968
	H9133	H	0.707004	0.564822	0.320272
	H9134	H	0.714741	0.565031	0.324645
	H9135	H	0.640819	0.564638	0.310362
	H9136	H	0.693240	0.644088	0.344056
	H9137	H	0.693328	0.862627	0.344172
	H9138	H	0.692756	0.143359	0.344036
	H9139	H	0.693030	0.362412	0.344062
	H9140	H	0.672201	0.643495	0.269845
	H9141	H	0.711117	0.642955	0.275111
	H9142	H	0.711033	0.862996	0.275112
	H9143	H	0.671818	0.862512	0.269741
	H9144	H	0.705752	0.643202	0.291742
	H9145	H	0.705735	0.863025	0.291728
	H9146	H	0.682485	0.643439	0.359481
	H9147	H	0.682513	0.862367	0.359627
	H9148	H	0.700445	0.441118	0.244376
	H9149	H	0.654339	0.441485	0.383062
	H9150	H	0.705707	0.441054	0.246280
	H9151	H	0.705882	0.441537	0.248832
	H9152	H	0.654058	0.440906	0.380585
	H9153	H	0.655290	0.441153	0.381581
	H9154	H	0.654394	0.564393	0.383097
	H9155	H	0.700485	0.564776	0.244373
	H9156	H	0.655400	0.564816	0.381602
	H9157	H	0.654145	0.564898	0.380610
	H9158	H	0.706006	0.564413	0.248839
	H9159	H	0.705695	0.564648	0.246254
	H9160	H	0.682058	0.143543	0.359522
	H9161	H	0.682365	0.362642	0.359562
	H9162	H	0.701215	0.064959	0.242618
	H9163	H	0.695079	0.064927	0.244085
	H9164	H	0.708803	0.064952	0.246135
	H9165	H	0.643155	0.862964	0.354159
	H9166	H	0.643102	0.643279	0.354156
	H9167	H	0.643106	0.362208	0.354171
	H9168	H	0.643362	0.142398	0.354189
	H9169	H	0.672124	0.142703	0.269803
	H9170	H	0.711029	0.142786	0.275081
	H9171	H	0.711078	0.362673	0.275096
	H9172	H	0.672133	0.362119	0.269809
	H9173	H	0.705700	0.142809	0.291736
	H9174	H	0.705751	0.362740	0.291687
	H9175	H	0.655088	0.064838	0.387544
	H9176	H	0.661566	0.064554	0.384956
	H9177	H	0.660347	0.064503	0.378379
	H9178	H	0.695106	0.941727	0.244116
	H9179	H	0.701210	0.940911	0.242664
	H9180	H	0.708869	0.941505	0.246153
	H9181	H	0.655054	0.941556	0.387560
	H9182	H	0.661619	0.941188	0.384951
	H9183	H	0.660416	0.941356	0.378354
	Zn9184	Zn	0.638704	0.680104	0.309947
	Zn9185	Zn	0.638695	0.825183	0.309966
	Zn9186	Zn	0.638634	0.180071	0.309895
	Zn9187	Zn	0.638695	0.325168	0.309895
	Zn9188	Zn	0.653122	0.680367	0.381834
	Zn9189	Zn	0.653141	0.825732	0.381828
	Zn9190	Zn	0.653087	0.180230	0.381852
	Zn9191	Zn	0.652974	0.325422	0.381780
	C9192	C	0.703414	0.753480	0.302925
	C9193	C	0.650985	0.752688	0.326388
	C9194	C	0.649092	0.752837	0.336580
	C9195	C	0.647400	0.690781	0.341260
	C9196	C	0.647437	0.815051	0.341269
	C9197	C	0.650933	0.252353	0.326346
	C9198	C	0.649042	0.252390	0.336544
	C9199	C	0.647492	0.190242	0.341251
	C9200	C	0.647379	0.314547	0.341250
	C9201	C	0.654646	0.753085	0.295618
	C9202	C	0.660931	0.753038	0.286258
	C9203	C	0.663648	0.814909	0.281791
	C9204	C	0.663848	0.691096	0.281859
	C9205	C	0.654659	0.252376	0.295607
	C9206	C	0.660977	0.252342	0.286262
	C9207	C	0.663809	0.314298	0.281826
	C9208	C	0.663778	0.190399	0.281804
	C9209	C	0.714532	0.043510	0.316815
	C9210	C	0.714575	0.962677	0.316807
	C9211	C	0.633562	0.043022	0.306293
	C9212	C	0.633568	0.962321	0.306292
	C9213	C	0.636354	0.043348	0.314155
	C9214	C	0.636356	0.962098	0.314167
	C9215	C	0.638977	0.462336	0.309061
	C9216	C	0.717531	0.462672	0.322830
	C9217	C	0.709803	0.462537	0.318448
	C9218	C	0.638988	0.543031	0.309068
	C9219	C	0.709819	0.543513	0.318443
	C9220	C	0.717526	0.543410	0.322846
	C9221	C	0.699944	0.753496	0.333731
	C9222	C	0.699837	0.252721	0.333749
	C9223	C	0.693612	0.753437	0.343095
	C9224	C	0.690803	0.691432	0.347501
	C9225	C	0.690837	0.815160	0.347573
	C9226	C	0.693440	0.252868	0.343078
	C9227	C	0.690500	0.190981	0.347497
	C9228	C	0.690645	0.314898	0.347514
	C9229	C	0.703484	0.252686	0.302935
	C9230	C	0.713471	0.752775	0.263930
	C9231	C	0.680398	0.752954	0.259906
	C9232	C	0.640807	0.753161	0.365385
	C9233	C	0.706924	0.690902	0.288030
	C9234	C	0.706908	0.815247	0.288034
	C9235	C	0.711603	0.752931	0.274121
	C9236	C	0.672632	0.753006	0.268817
	C9237	C	0.669670	0.691100	0.273232
	C9238	C	0.709971	0.690749	0.278811
	C9239	C	0.709941	0.815213	0.278814
	C9240	C	0.669464	0.814871	0.273172
	C9241	C	0.705323	0.753113	0.292727
	C9242	C	0.673935	0.752637	0.369389
	C9243	C	0.684934	0.691117	0.356110
	C9244	C	0.684958	0.814956	0.356184
	C9245	C	0.681769	0.752913	0.360498
	C9246	C	0.653206	0.462488	0.382786
	C9247	C	0.704619	0.462544	0.247538
	C9248	C	0.654202	0.462318	0.381305
	C9249	C	0.653251	0.543149	0.382804
	C9250	C	0.654270	0.543532	0.381318
	C9251	C	0.704655	0.543212	0.247536
	C9252	C	0.673787	0.253131	0.369391
	C9253	C	0.684586	0.191036	0.356098
	C9254	C	0.684749	0.314948	0.356123
	C9255	C	0.681552	0.253009	0.360469
	C9256	C	0.699034	0.043499	0.244428
	C9257	C	0.713504	0.252824	0.263892
	C9258	C	0.680518	0.252451	0.259934
	C9259	C	0.640751	0.252246	0.365360
	C9260	C	0.706876	0.190508	0.288032
	C9261	C	0.706905	0.314926	0.288016
	C9262	C	0.711609	0.252650	0.274114
	C9263	C	0.672757	0.252404	0.268845
	C9264	C	0.642707	0.753132	0.355186
	C9265	C	0.644361	0.815193	0.350481
	C9266	C	0.644311	0.691007	0.350473
	C9267	C	0.642657	0.252190	0.355151
	C9268	C	0.644236	0.314446	0.350456
	C9269	C	0.644370	0.190157	0.350460
	C9270	C	0.669630	0.190400	0.273194
	C9271	C	0.709937	0.190479	0.278810
	C9272	C	0.709966	0.314940	0.278798
	C9273	C	0.669689	0.314391	0.273221
	C9274	C	0.705300	0.252745	0.292729
	C9275	C	0.656890	0.043360	0.385081
	C9276	C	0.706666	0.043383	0.247959
	C9277	C	0.699044	0.962478	0.244435
	C9278	C	0.656914	0.962490	0.385096
	C9279	C	0.706695	0.962688	0.247949
	N9280	N	0.638738	0.069860	0.309888
	N9281	N	0.638727	0.935309	0.309916
	N9282	N	0.638773	0.435358	0.309908
	N9283	N	0.638757	0.569938	0.309928
	N9284	N	0.652935	0.435479	0.381813
	N9285	N	0.653001	0.570030	0.381835
	N9286	N	0.653091	0.070215	0.381797
	N9287	N	0.653108	0.935748	0.381808
	O9288	O	0.726985	0.694826	0.428637
	O9289	O	0.726994	0.810953	0.428596
	O9290	O	0.608212	0.694901	0.454528
	O9291	O	0.608184	0.811317	0.454518
	O9292	O	0.608139	0.195169	0.454493
	O9293	O	0.608088	0.311521	0.454534
	O9294	O	0.607849	0.694859	0.435117
	O9295	O	0.607798	0.811667	0.435100
	O9296	O	0.607711	0.194541	0.435101
	O9297	O	0.607782	0.311227	0.435083
	O9298	O	0.731963	0.694440	0.449196
	O9299	O	0.731967	0.810576	0.449168
	O9300	O	0.731971	0.195011	0.449192
	O9301	O	0.731925	0.310941	0.449162
	O9302	O	0.726994	0.195745	0.428581
	O9303	O	0.727009	0.311643	0.428636
	O9304	O	0.670653	0.694675	0.392069
	O9305	O	0.639912	0.695437	0.392588
	O9306	O	0.695668	0.694630	0.490025
	O9307	O	0.695796	0.810760	0.490029
	O9308	O	0.664380	0.695223	0.491096
	O9309	O	0.664469	0.811198	0.491056
	O9310	O	0.639871	0.811792	0.392599
	O9311	O	0.670767	0.810938	0.392014
	O9312	O	0.670727	0.195327	0.392012
	O9313	O	0.639867	0.194372	0.392603
	O9314	O	0.695639	0.195023	0.489962
	O9315	O	0.695612	0.311110	0.489922
	O9316	O	0.664265	0.195166	0.491126
	O9317	O	0.664403	0.311275	0.491112
	O9318	O	0.639980	0.310735	0.392633
	O9319	O	0.670631	0.311824	0.392054
	H9320	H	0.626192	0.644936	0.466251
	H9321	H	0.626169	0.861592	0.466183
	H9322	H	0.626286	0.144595	0.466172
	H9323	H	0.626362	0.362205	0.466136
	H9324	H	0.619896	0.862710	0.422071
	H9325	H	0.619763	0.644072	0.421985
	H9326	H	0.619973	0.362335	0.422010
	H9327	H	0.619664	0.142981	0.422039
	H9328	H	0.746348	0.064665	0.440396
	H9329	H	0.748469	0.064399	0.439159
	H9330	H	0.748454	0.941454	0.439205
	H9331	H	0.746323	0.941071	0.440415
	H9332	H	0.742261	0.064603	0.439612
	H9333	H	0.742231	0.940901	0.439618
	H9334	H	0.589026	0.064885	0.441152
	H9335	H	0.589100	0.941585	0.441211
	H9336	H	0.585597	0.065186	0.442730
	H9337	H	0.585690	0.940907	0.442726
	H9338	H	0.586745	0.064319	0.446460
	H9339	H	0.586662	0.941013	0.446430
	H9340	H	0.587180	0.441444	0.448668
	H9341	H	0.594148	0.441275	0.448861
	H9342	H	0.582261	0.441357	0.443610
	H9343	H	0.749877	0.441413	0.438866
	H9344	H	0.746192	0.441653	0.441208
	H9345	H	0.742270	0.441527	0.440560
	H9346	H	0.594171	0.564949	0.448914
	H9347	H	0.587211	0.564575	0.448752
	H9348	H	0.742327	0.564722	0.440561
	H9349	H	0.746276	0.564870	0.441182
	H9350	H	0.749979	0.564433	0.438870
	H9351	H	0.582182	0.565094	0.443650
	H9352	H	0.720356	0.644000	0.462260
	H9353	H	0.720286	0.860826	0.462224
	H9354	H	0.720366	0.145283	0.462177
	H9355	H	0.720219	0.360825	0.462179
	H9356	H	0.630456	0.643927	0.406526
	H9357	H	0.688632	0.644516	0.403802
	H9358	H	0.688905	0.861202	0.403713
	H9359	H	0.630658	0.862919	0.406590
	H9360	H	0.708719	0.644484	0.417019
	H9361	H	0.708926	0.861194	0.416893
	H9362	H	0.707498	0.644278	0.477068
	H9363	H	0.707454	0.860536	0.477015
	H9364	H	0.652373	0.440938	0.383190
	H9365	H	0.678197	0.441671	0.502471
	H9366	H	0.650645	0.441073	0.381826
	H9367	H	0.651286	0.441369	0.380771
	H9368	H	0.687390	0.441380	0.502313
	H9369	H	0.683972	0.441542	0.503906
	H9370	H	0.678168	0.564443	0.502532
	H9371	H	0.652368	0.564656	0.383179
	H9372	H	0.683914	0.564979	0.503946
	H9373	H	0.687357	0.564629	0.502390
	H9374	H	0.651375	0.564180	0.380742
	H9375	H	0.650613	0.564467	0.381855
	H9376	H	0.707437	0.144866	0.476914
	H9377	H	0.707297	0.360803	0.476948
	H9378	H	0.643988	0.064568	0.379596
	H9379	H	0.644871	0.064550	0.384409
	H9380	H	0.652985	0.064421	0.376032
	H9381	H	0.646267	0.861798	0.479387
	H9382	H	0.646189	0.645088	0.479440
	H9383	H	0.646358	0.362251	0.479353
	H9384	H	0.646283	0.144687	0.479401
	H9385	H	0.630427	0.142793	0.406565
	H9386	H	0.689007	0.145558	0.403610
	H9387	H	0.688816	0.361997	0.403708
	H9388	H	0.630739	0.361927	0.406568
	H9389	H	0.709015	0.145641	0.416821
	H9390	H	0.708877	0.361833	0.416942
	H9391	H	0.681777	0.064621	0.502300
	H9392	H	0.683980	0.064826	0.502118
	H9393	H	0.684966	0.064943	0.500485
	H9394	H	0.644837	0.941139	0.384440
	H9395	H	0.643983	0.940790	0.379605
	H9396	H	0.652972	0.941037	0.376036
	H9397	H	0.681854	0.941104	0.502311
	H9398	H	0.684050	0.941466	0.502155
	H9399	H	0.684993	0.941576	0.500475
	Zn9400	Zn	0.590619	0.680379	0.444326
	Zn9401	Zn	0.590492	0.825663	0.444309
	Zn9402	Zn	0.590487	0.180320	0.444301
	Zn9403	Zn	0.590475	0.325603	0.444298
	Zn9404	Zn	0.682420	0.680219	0.500841
	Zn9405	Zn	0.682516	0.825890	0.500841
	Zn9406	Zn	0.682465	0.180342	0.500775
	Zn9407	Zn	0.682574	0.325832	0.500809
	C9408	C	0.722190	0.752822	0.425616
	C9409	C	0.612961	0.753149	0.457520
	C9410	C	0.625089	0.753281	0.465398
	C9411	C	0.630664	0.692009	0.469177
	C9412	C	0.630669	0.814643	0.469140
	C9413	C	0.612879	0.253359	0.457516
	C9414	C	0.625010	0.253370	0.465420
	C9415	C	0.630683	0.191975	0.469147
	C9416	C	0.630724	0.314880	0.469126
	C9417	C	0.611284	0.753292	0.431843
	C9418	C	0.619161	0.753365	0.422965
	C9419	C	0.622329	0.815240	0.418623
	C9420	C	0.622233	0.691578	0.418575
	C9421	C	0.611233	0.252806	0.431832
	C9422	C	0.619087	0.252616	0.422949
	C9423	C	0.622343	0.314527	0.418595
	C9424	C	0.622152	0.190553	0.418599
	C9425	C	0.746774	0.043389	0.439408
	C9426	C	0.746771	0.962522	0.439425
	C9427	C	0.588114	0.043696	0.442576
	C9428	C	0.588146	0.962574	0.442596
	C9429	C	0.589227	0.043156	0.446293
	C9430	C	0.589181	0.962573	0.446288
	C9431	C	0.590581	0.462707	0.447589
	C9432	C	0.748195	0.462424	0.437859
	C9433	C	0.744485	0.462431	0.440207
	C9434	C	0.590600	0.543379	0.447617
	C9435	C	0.744512	0.543497	0.440202
	C9436	C	0.748223	0.543312	0.437850
	C9437	C	0.728907	0.752534	0.452564
	C9438	C	0.728819	0.253007	0.452527
	C9439	C	0.720973	0.752419	0.461345
	C9440	C	0.717417	0.691038	0.465523
	C9441	C	0.717373	0.813850	0.465489
	C9442	C	0.720924	0.253044	0.461319
	C9443	C	0.717393	0.191827	0.465459
	C9444	C	0.717317	0.314186	0.465471
	C9445	C	0.722263	0.253762	0.425581
	C9446	C	0.675446	0.752825	0.395053
	C9447	C	0.637376	0.753578	0.396224
	C9448	C	0.659671	0.753252	0.488055
	C9449	C	0.704298	0.691479	0.414034
	C9450	C	0.704419	0.814103	0.413980
	C9451	C	0.687602	0.752841	0.402934
	C9452	C	0.631049	0.753476	0.405568
	C9453	C	0.628145	0.691578	0.409984
	C9454	C	0.693168	0.691561	0.406713
	C9455	C	0.693313	0.814117	0.406655
	C9456	C	0.628246	0.815312	0.410027
	C9457	C	0.709994	0.752767	0.417753
	C9458	C	0.698871	0.752625	0.486681
	C9459	C	0.710309	0.691069	0.473728
	C9460	C	0.710275	0.813828	0.473691
	C9461	C	0.706734	0.752499	0.477867
	C9462	C	0.679024	0.462822	0.501080
	C9463	C	0.651449	0.462527	0.381438
	C9464	C	0.684832	0.462564	0.502549
	C9465	C	0.678988	0.543250	0.501073
	C9466	C	0.684809	0.543537	0.502565
	C9467	C	0.651501	0.543073	0.381451
	C9468	C	0.698723	0.252996	0.486583
	C9469	C	0.710314	0.191743	0.473666
	C9470	C	0.710232	0.314058	0.473678
	C9471	C	0.706660	0.252912	0.477817
	C9472	C	0.646678	0.043455	0.381953
	C9473	C	0.675469	0.253635	0.395009
	C9474	C	0.637406	0.252535	0.396240
	C9475	C	0.659592	0.253297	0.488109
	C9476	C	0.704486	0.192599	0.413928
	C9477	C	0.704400	0.314926	0.413991
	C9478	C	0.687651	0.253772	0.402894
	C9479	C	0.631054	0.252427	0.405573
	C9480	C	0.647465	0.753411	0.480203
	C9481	C	0.641802	0.814721	0.476465
	C9482	C	0.641757	0.692128	0.476502
	C9483	C	0.647393	0.253443	0.480245
	C9484	C	0.641823	0.314971	0.476476
	C9485	C	0.641780	0.191975	0.476494
	C9486	C	0.628108	0.190451	0.410008
	C9487	C	0.693389	0.192514	0.406588
	C9488	C	0.693283	0.315008	0.406657
	C9489	C	0.628290	0.314399	0.410008
	C9490	C	0.710082	0.253753	0.417698
	C9491	C	0.682789	0.043339	0.501842
	C9492	C	0.655694	0.043180	0.378426
	C9493	C	0.646671	0.962480	0.381959
	C9494	C	0.682833	0.962563	0.501861
	C9495	C	0.655712	0.962504	0.378424
	N9496	N	0.590412	0.070356	0.444307
	N9497	N	0.590386	0.935853	0.444320
	N9498	N	0.590384	0.435660	0.444286
	N9499	N	0.590406	0.570225	0.444318
	N9500	N	0.682563	0.435685	0.500800
	N9501	N	0.682514	0.570198	0.500836
	N9502	N	0.682443	0.070389	0.500796
	N9503	N	0.682451	0.935880	0.500820
	O9504	O	0.757255	0.694363	0.546900
	O9505	O	0.757222	0.810763	0.546904
	O9506	O	0.638311	0.694895	0.573142
	O9507	O	0.638401	0.811001	0.573053
	O9508	O	0.638522	0.195119	0.572950
	O9509	O	0.638255	0.311088	0.573069
	O9510	O	0.633340	0.694767	0.552567
	O9511	O	0.633475	0.811007	0.552625
	O9512	O	0.633457	0.195351	0.552549
	O9513	O	0.633294	0.311154	0.552492
	O9514	O	0.757502	0.694430	0.566294
	O9515	O	0.757571	0.811201	0.566350
	O9516	O	0.757621	0.194190	0.566360
	O9517	O	0.757535	0.311004	0.566342
	O9518	O	0.757129	0.194453	0.546929
	O9519	O	0.757090	0.310512	0.546937
	O9520	O	0.700582	0.694385	0.510546
	O9521	O	0.669166	0.695368	0.511609
	O9522	O	0.725683	0.694038	0.608923
	O9523	O	0.725776	0.810376	0.608939
	O9524	O	0.694915	0.695018	0.609548
	O9525	O	0.695053	0.811125	0.609463
	O9526	O	0.669400	0.811470	0.511689
	O9527	O	0.700708	0.810628	0.510474
	O9528	O	0.700679	0.194392	0.510455
	O9529	O	0.669411	0.195396	0.511628
	O9530	O	0.725624	0.194629	0.608857
	O9531	O	0.725687	0.310892	0.608839
	O9532	O	0.694937	0.195109	0.609452
	O9533	O	0.694891	0.311304	0.609515
	O9534	O	0.669443	0.311287	0.511648
	O9535	O	0.700696	0.310561	0.510470
	H9536	H	0.656531	0.644648	0.584811
	H9537	H	0.656777	0.861604	0.584621
	H9538	H	0.656796	0.144650	0.584577
	H9539	H	0.656441	0.361725	0.584739
	H9540	H	0.645278	0.861867	0.539648
	H9541	H	0.644728	0.644615	0.539421
	H9542	H	0.645046	0.360931	0.539507
	H9543	H	0.645090	0.145641	0.539475
	H9544	H	0.771172	0.064331	0.556522
	H9545	H	0.772058	0.064865	0.558374
	H9546	H	0.772065	0.941386	0.558387
	H9547	H	0.771303	0.941456	0.556570
	H9548	H	0.774201	0.064823	0.554878
	H9549	H	0.774105	0.941115	0.554954
	H9550	H	0.616199	0.064374	0.562659
	H9551	H	0.616221	0.941316	0.562700
	H9552	H	0.617032	0.064625	0.564690
	H9553	H	0.616980	0.941073	0.564701
	H9554	H	0.621531	0.064859	0.565676
	H9555	H	0.621436	0.941384	0.565679
	H9556	H	0.619884	0.441512	0.562009
	H9557	H	0.618247	0.441678	0.562565
	H9558	H	0.622311	0.440732	0.562844
	H9559	H	0.778358	0.440907	0.556044
	H9560	H	0.777902	0.441068	0.558862
	H9561	H	0.774735	0.441217	0.559540
	H9562	H	0.618249	0.564518	0.562574
	H9563	H	0.619911	0.564847	0.562028
	H9564	H	0.774797	0.564109	0.559489
	H9565	H	0.777930	0.564721	0.558867
	H9566	H	0.778446	0.564716	0.556086
	H9567	H	0.622350	0.564528	0.562858
	H9568	H	0.745436	0.643018	0.579383
	H9569	H	0.745787	0.862147	0.579514
	H9570	H	0.745600	0.143029	0.579430
	H9571	H	0.745608	0.361884	0.579424
	H9572	H	0.657452	0.644837	0.524595
	H9573	H	0.718796	0.644127	0.522161
	H9574	H	0.719006	0.861084	0.522034
	H9575	H	0.657993	0.862139	0.524804
	H9576	H	0.739021	0.643882	0.535245
	H9577	H	0.739246	0.861199	0.535129
	H9578	H	0.734757	0.642803	0.594846
	H9579	H	0.735065	0.861766	0.594989
	H9580	H	0.677372	0.441213	0.499829
	H9581	H	0.712739	0.441095	0.618876
	H9582	H	0.681976	0.440767	0.497647
	H9583	H	0.686267	0.441274	0.498680
	H9584	H	0.711327	0.440989	0.620005
	H9585	H	0.711353	0.441137	0.619293
	H9586	H	0.712624	0.564575	0.618915
	H9587	H	0.677262	0.564428	0.499803
	H9588	H	0.711249	0.564687	0.619300
	H9589	H	0.711267	0.564761	0.620011
	H9590	H	0.686197	0.564437	0.498735
	H9591	H	0.682068	0.564948	0.497646
	H9592	H	0.734917	0.142907	0.594884
	H9593	H	0.734907	0.362056	0.594869
	H9594	H	0.680509	0.064735	0.499601
	H9595	H	0.679827	0.064261	0.500832
	H9596	H	0.683561	0.065039	0.499420
	H9597	H	0.676969	0.861522	0.597751
	H9598	H	0.676721	0.644729	0.597914
	H9599	H	0.676607	0.362047	0.597876
	H9600	H	0.676916	0.144757	0.597737
	H9601	H	0.657863	0.145793	0.524655
	H9602	H	0.719031	0.144442	0.522055
	H9603	H	0.718803	0.360477	0.522141
	H9604	H	0.657868	0.361203	0.524720
	H9605	H	0.739131	0.144296	0.535228
	H9606	H	0.738925	0.360433	0.535297
	H9607	H	0.710318	0.064428	0.617025
	H9608	H	0.707929	0.064667	0.618872
	H9609	H	0.710145	0.064284	0.621927
	H9610	H	0.679861	0.941316	0.500890
	H9611	H	0.680559	0.941654	0.499632
	H9612	H	0.683552	0.941329	0.499428
	H9613	H	0.710305	0.941189	0.617033
	H9614	H	0.707886	0.941207	0.618860
	H9615	H	0.710022	0.941167	0.621926
	Zn9616	Zn	0.620287	0.679877	0.563404
	Zn9617	Zn	0.620145	0.825563	0.563368
	Zn9618	Zn	0.620244	0.180135	0.563302
	Zn9619	Zn	0.620140	0.325718	0.563342
	Zn9620	Zn	0.712520	0.680331	0.619734
	Zn9621	Zn	0.712611	0.825336	0.619687
	Zn9622	Zn	0.712569	0.180449	0.619669
	Zn9623	Zn	0.712696	0.325339	0.619707
	C9624	C	0.752470	0.752504	0.543907
	C9625	C	0.643169	0.753027	0.576075
	C9626	C	0.655511	0.753152	0.583858
	C9627	C	0.661133	0.691825	0.587641
	C9628	C	0.661265	0.814472	0.587544
	C9629	C	0.643188	0.253140	0.576005
	C9630	C	0.655425	0.253143	0.583850
	C9631	C	0.661191	0.191820	0.587540
	C9632	C	0.661002	0.314611	0.587621
	C9633	C	0.636534	0.752953	0.549250
	C9634	C	0.644392	0.753212	0.540442
	C9635	C	0.648039	0.814802	0.536309
	C9636	C	0.647732	0.691757	0.536189
	C9637	C	0.636454	0.253240	0.549150
	C9638	C	0.644333	0.253308	0.540353
	C9639	C	0.647921	0.314263	0.536216
	C9640	C	0.647924	0.192413	0.536184
	C9641	C	0.772517	0.043292	0.557356
	C9642	C	0.772543	0.962549	0.557369
	C9643	C	0.617543	0.043207	0.563580
	C9644	C	0.617547	0.962437	0.563603
	C9645	C	0.622085	0.043299	0.564575
	C9646	C	0.622048	0.962549	0.564595
	C9647	C	0.619385	0.462678	0.562570
	C9648	C	0.776474	0.462436	0.555853
	C9649	C	0.775968	0.462462	0.558642
	C9650	C	0.619421	0.543342	0.562595
	C9651	C	0.776005	0.543186	0.558635
	C9652	C	0.776540	0.543208	0.555866
	C9653	C	0.754052	0.752740	0.569586
	C9654	C	0.754146	0.252570	0.569623
	C9655	C	0.746222	0.752596	0.578476
	C9656	C	0.743076	0.690576	0.582830
	C9657	C	0.743232	0.814397	0.582901
	C9658	C	0.746373	0.252450	0.578528
	C9659	C	0.743200	0.190530	0.582859
	C9660	C	0.743228	0.314393	0.582863
	C9661	C	0.752379	0.252465	0.543910
	C9662	C	0.705433	0.752515	0.513494
	C9663	C	0.666239	0.753439	0.515027
	C9664	C	0.690228	0.753042	0.606485
	C9665	C	0.734538	0.691086	0.532342
	C9666	C	0.734675	0.814008	0.532264
	C9667	C	0.717712	0.752611	0.521309
	C9668	C	0.658440	0.753403	0.523863
	C9669	C	0.654719	0.691814	0.527949
	C9670	C	0.723339	0.691163	0.525056
	C9671	C	0.723470	0.814018	0.524984
	C9672	C	0.655033	0.814992	0.528073
	C9673	C	0.740256	0.752528	0.536042
	C9674	C	0.728207	0.752178	0.605305
	C9675	C	0.737208	0.690474	0.591445
	C9676	C	0.737359	0.814175	0.591515
	C9677	C	0.734492	0.752226	0.595934
	C9678	C	0.713105	0.462465	0.619242
	C9679	C	0.683703	0.462386	0.498881
	C9680	C	0.711699	0.462400	0.619655
	C9681	C	0.713050	0.543361	0.619255
	C9682	C	0.711664	0.543280	0.619667
	C9683	C	0.683708	0.543453	0.498890
	C9684	C	0.728185	0.252712	0.605236
	C9685	C	0.737298	0.190555	0.591458
	C9686	C	0.737326	0.314480	0.591456
	C9687	C	0.734566	0.252564	0.595916
	C9688	C	0.680778	0.043478	0.500378
	C9689	C	0.705484	0.252414	0.513443
	C9690	C	0.666313	0.253417	0.514994
	C9691	C	0.690133	0.253269	0.606483
	C9692	C	0.734595	0.191198	0.532308
	C9693	C	0.734475	0.313565	0.532348
	C9694	C	0.717757	0.252341	0.521272
	C9695	C	0.658473	0.253516	0.523805
	C9696	C	0.678074	0.753122	0.598603
	C9697	C	0.672459	0.814450	0.594835
	C9698	C	0.672321	0.691861	0.594935
	C9699	C	0.677944	0.253385	0.598602
	C9700	C	0.672172	0.314787	0.594920
	C9701	C	0.672353	0.191925	0.594843
	C9702	C	0.654967	0.192482	0.527969
	C9703	C	0.723457	0.191223	0.525001
	C9704	C	0.723328	0.313494	0.525043
	C9705	C	0.654991	0.314438	0.528005
	C9706	C	0.740211	0.252381	0.536040
	C9707	C	0.710051	0.043172	0.618411
	C9708	C	0.683764	0.043669	0.500159
	C9709	C	0.680773	0.962724	0.500411
	C9710	C	0.710052	0.962413	0.618415
	C9711	C	0.683797	0.962737	0.500176
	N9712	N	0.620197	0.070062	0.563318
	N9713	N	0.620161	0.935592	0.563366
	N9714	N	0.620223	0.435616	0.563384
	N9715	N	0.620277	0.570022	0.563425
	N9716	N	0.712649	0.435488	0.619726
	N9717	N	0.712555	0.570082	0.619755
	N9718	N	0.712647	0.070180	0.619661
	N9719	N	0.712595	0.935577	0.619651
	O9720	O	0.714493	0.694198	0.679186
	O9721	O	0.714512	0.811179	0.679085
	O9722	O	0.662769	0.693701	0.694578
	O9723	O	0.662765	0.810774	0.694600
	O9724	O	0.662730	0.194221	0.694556
	O9725	O	0.662537	0.311040	0.694571
	O9726	O	0.663323	0.695069	0.671371
	O9727	O	0.663329	0.811629	0.671382
	O9728	O	0.663275	0.195012	0.671382
	O9729	O	0.663385	0.311515	0.671380
	O9730	O	0.714019	0.694679	0.702354
	O9731	O	0.714094	0.811146	0.702328
	O9732	O	0.714030	0.194610	0.702376
	O9733	O	0.713944	0.311132	0.702345
	O9734	O	0.714486	0.194341	0.679140
	O9735	O	0.714410	0.311198	0.679133
	O9736	O	0.725139	0.694379	0.632145
	O9737	O	0.695260	0.695030	0.628906
	O9738	O	0.681792	0.694304	0.744784
	O9739	O	0.681886	0.811129	0.744833
	O9740	O	0.651934	0.694315	0.741640
	O9741	O	0.651979	0.811097	0.741594
	O9742	O	0.695317	0.811796	0.628915
	O9743	O	0.725148	0.811160	0.632136
	O9744	O	0.725122	0.193896	0.632152
	O9745	O	0.695216	0.194480	0.628841
	O9746	O	0.681751	0.194674	0.744787
	O9747	O	0.681818	0.311399	0.744798
	O9748	O	0.652037	0.194052	0.741567
	O9749	O	0.651903	0.310908	0.741589
	O9750	O	0.695322	0.311146	0.628861
	O9751	O	0.725114	0.310575	0.632100
	H9752	H	0.659945	0.642114	0.709804
	H9753	H	0.660193	0.862041	0.709806
	H9754	H	0.659966	0.142723	0.709769
	H9755	H	0.660031	0.362502	0.709775
	H9756	H	0.672424	0.862935	0.657416
	H9757	H	0.672491	0.643868	0.657421
	H9758	H	0.672466	0.362705	0.657340
	H9759	H	0.672827	0.143671	0.657491
	H9760	H	0.725549	0.064369	0.688094
	H9761	H	0.721814	0.064357	0.689814
	H9762	H	0.721795	0.941313	0.689780
	H9763	H	0.725534	0.941701	0.688090
	H9764	H	0.731839	0.064566	0.689740
	H9765	H	0.731916	0.941313	0.689717
	H9766	H	0.654620	0.064439	0.679220
	H9767	H	0.654657	0.940764	0.679273
	H9768	H	0.649036	0.064237	0.678050
	H9769	H	0.649097	0.940828	0.678057
	H9770	H	0.643294	0.064250	0.681099
	H9771	H	0.643333	0.940735	0.681080
	H9772	H	0.646389	0.441277	0.679455
	H9773	H	0.644525	0.441861	0.681952
	H9774	H	0.652776	0.440941	0.679342
	H9775	H	0.725241	0.441127	0.691111
	H9776	H	0.727116	0.440680	0.690340
	H9777	H	0.728589	0.441245	0.690824
	H9778	H	0.644505	0.564685	0.682014
	H9779	H	0.646323	0.564791	0.679453
	H9780	H	0.728655	0.564071	0.690852
	H9781	H	0.727101	0.564410	0.690346
	H9782	H	0.725349	0.564530	0.691169
	H9783	H	0.652836	0.564635	0.679322
	H9784	H	0.704591	0.643706	0.716247
	H9785	H	0.704687	0.862393	0.716280
	H9786	H	0.704549	0.143589	0.716272
	H9787	H	0.704584	0.362589	0.716281
	H9788	H	0.683279	0.643936	0.641958
	H9789	H	0.722577	0.643022	0.647347
	H9790	H	0.722398	0.862371	0.647323
	H9791	H	0.683183	0.863092	0.641961
	H9792	H	0.717253	0.642741	0.663973
	H9793	H	0.717049	0.862334	0.663923
	H9794	H	0.693727	0.643530	0.731704
	H9795	H	0.693932	0.862451	0.731734
	H9796	H	0.713766	0.441093	0.619292
	H9797	H	0.661381	0.441191	0.750582
	H9798	H	0.713689	0.441013	0.620247
	H9799	H	0.712704	0.441422	0.620540
	H9800	H	0.661297	0.441234	0.757160
	H9801	H	0.658264	0.441259	0.754391
	H9802	H	0.661401	0.564960	0.750606
	H9803	H	0.713689	0.564606	0.619266
	H9804	H	0.658268	0.564843	0.754441
	H9805	H	0.661328	0.564655	0.757150
	H9806	H	0.712603	0.564391	0.620538
	H9807	H	0.713657	0.564377	0.620268
	H9808	H	0.693740	0.143342	0.731700
	H9809	H	0.693799	0.362409	0.731734
	H9810	H	0.717340	0.064693	0.619957
	H9811	H	0.715776	0.064469	0.617691
	H9812	H	0.714049	0.064561	0.622413
	H9813	H	0.654818	0.861959	0.726446
	H9814	H	0.654540	0.642255	0.726430
	H9815	H	0.654643	0.362511	0.726408
	H9816	H	0.654515	0.142662	0.726362
	H9817	H	0.683438	0.143360	0.642007
	H9818	H	0.722498	0.142509	0.647386
	H9819	H	0.722462	0.362362	0.647316
	H9820	H	0.683121	0.362523	0.641859
	H9821	H	0.717127	0.142768	0.663977
	H9822	H	0.717039	0.362561	0.663915
	H9823	H	0.671458	0.064733	0.755805
	H9824	H	0.670941	0.065002	0.752113
	H9825	H	0.663324	0.064240	0.749672
	H9826	H	0.715698	0.941259	0.617726
	H9827	H	0.717259	0.940918	0.619924
	H9828	H	0.713981	0.940985	0.622399
	H9829	H	0.671445	0.941408	0.755823
	H9830	H	0.670915	0.941205	0.752116
	H9831	H	0.663305	0.941283	0.749657
	Zn9832	Zn	0.650112	0.680049	0.682160
	Zn9833	Zn	0.650128	0.825548	0.682176
	Zn9834	Zn	0.650100	0.179956	0.682153
	Zn9835	Zn	0.650106	0.325637	0.682126
	Zn9836	Zn	0.664603	0.680145	0.754055
	Zn9837	Zn	0.664583	0.825662	0.754009
	Zn9838	Zn	0.664643	0.180169	0.754036
	Zn9839	Zn	0.664476	0.325682	0.753996
	C9840	C	0.714717	0.752489	0.675143
	C9841	C	0.662553	0.752195	0.698589
	C9842	C	0.660553	0.752062	0.708787
	C9843	C	0.658826	0.689929	0.713491
	C9844	C	0.658975	0.814227	0.713500
	C9845	C	0.662391	0.252595	0.698575
	C9846	C	0.660480	0.252644	0.708770
	C9847	C	0.658850	0.190491	0.713465
	C9848	C	0.658890	0.314826	0.713478
	C9849	C	0.665784	0.753332	0.667752
	C9850	C	0.672041	0.753351	0.658408
	C9851	C	0.674806	0.815379	0.653971
	C9852	C	0.674856	0.691437	0.653969
	C9853	C	0.665870	0.253217	0.667769
	C9854	C	0.672138	0.253168	0.658397
	C9855	C	0.674861	0.315051	0.653916
	C9856	C	0.675020	0.191181	0.653995
	C9857	C	0.724492	0.043097	0.689629
	C9858	C	0.724529	0.962653	0.689609
	C9859	C	0.651434	0.043097	0.679580
	C9860	C	0.651454	0.962234	0.679584
	C9861	C	0.645674	0.043094	0.682651
	C9862	C	0.645678	0.962249	0.682650
	C9863	C	0.646703	0.462753	0.681093
	C9864	C	0.725798	0.462359	0.691579
	C9865	C	0.727633	0.462229	0.690828
	C9866	C	0.646695	0.543464	0.681109
	C9867	C	0.727641	0.543118	0.690839
	C9868	C	0.725846	0.543001	0.691598
	C9869	C	0.711432	0.752981	0.705922
	C9870	C	0.711472	0.252930	0.705983
	C9871	C	0.705043	0.752904	0.715248
	C9872	C	0.702204	0.691124	0.719697
	C9873	C	0.702288	0.814818	0.719711
	C9874	C	0.705089	0.253147	0.715310
	C9875	C	0.702205	0.191143	0.719724
	C9876	C	0.702224	0.315011	0.719736
	C9877	C	0.714685	0.252797	0.675129
	C9878	C	0.724907	0.752791	0.636153
	C9879	C	0.691778	0.753445	0.632159
	C9880	C	0.652214	0.752555	0.737612
	C9881	C	0.718344	0.690420	0.660268
	C9882	C	0.718255	0.814578	0.660245
	C9883	C	0.723012	0.752635	0.646351
	C9884	C	0.683842	0.753417	0.641017
	C9885	C	0.680757	0.691444	0.645374
	C9886	C	0.721432	0.690585	0.651055
	C9887	C	0.721330	0.814727	0.651032
	C9888	C	0.680707	0.815390	0.645372
	C9889	C	0.716664	0.752421	0.664954
	C9890	C	0.685272	0.752736	0.741543
	C9891	C	0.696273	0.690969	0.728294
	C9892	C	0.696372	0.814811	0.728312
	C9893	C	0.693141	0.752829	0.732641
	C9894	C	0.664131	0.462618	0.751472
	C9895	C	0.713072	0.462423	0.620209
	C9896	C	0.660992	0.462550	0.755309
	C9897	C	0.664160	0.543527	0.751468
	C9898	C	0.661008	0.543383	0.755331
	C9899	C	0.713035	0.543064	0.620218
	C9900	C	0.685246	0.253032	0.741525
	C9901	C	0.696259	0.191077	0.728311
	C9902	C	0.696287	0.314952	0.728325
	C9903	C	0.693133	0.253031	0.732668
	C9904	C	0.715521	0.043423	0.619053
	C9905	C	0.724896	0.252273	0.636134
	C9906	C	0.691798	0.252852	0.632114
	C9907	C	0.652172	0.252527	0.737571
	C9908	C	0.718223	0.190445	0.660254
	C9909	C	0.718167	0.314777	0.660214
	C9910	C	0.722970	0.252429	0.646321
	C9911	C	0.683898	0.252937	0.640976
	C9912	C	0.654154	0.752179	0.727408
	C9913	C	0.655874	0.814343	0.722722
	C9914	C	0.655720	0.689964	0.722712
	C9915	C	0.654102	0.252657	0.727376
	C9916	C	0.655778	0.314834	0.722692
	C9917	C	0.655715	0.190513	0.722671
	C9918	C	0.680872	0.191046	0.645385
	C9919	C	0.721333	0.190363	0.651049
	C9920	C	0.721294	0.314615	0.651004
	C9921	C	0.680717	0.314975	0.645302
	C9922	C	0.716584	0.252712	0.664922
	C9923	C	0.669406	0.043519	0.753971
	C9924	C	0.712205	0.043156	0.621526
	C9925	C	0.715490	0.962444	0.619056
	C9926	C	0.669406	0.962409	0.753968
	C9927	C	0.712192	0.962373	0.621517
	N9928	N	0.650152	0.069981	0.682177
	N9929	N	0.650164	0.935469	0.682184
	N9930	N	0.650180	0.435637	0.682091
	N9931	N	0.650198	0.570116	0.682118
	N9932	N	0.664480	0.435724	0.754002
	N9933	N	0.664534	0.570181	0.754026
	N9934	N	0.664560	0.070168	0.754011
	N9935	N	0.664564	0.935670	0.753997
	O9936	O	0.739267	0.694882	0.800328
	O9937	O	0.739222	0.810778	0.800420
	O9938	O	0.619658	0.694468	0.826642
	O9939	O	0.619684	0.810637	0.826679
	O9940	O	0.619674	0.194644	0.826668
	O9941	O	0.619684	0.310883	0.826609
	O9942	O	0.619246	0.694227	0.807271
	O9943	O	0.619175	0.811007	0.807264
	O9944	O	0.619188	0.194498	0.807243
	O9945	O	0.619143	0.311239	0.807231
	O9946	O	0.744388	0.694208	0.820814
	O9947	O	0.744273	0.810287	0.820818
	O9948	O	0.744341	0.194769	0.820764
	O9949	O	0.744501	0.310877	0.820862
	O9950	O	0.739222	0.195826	0.800356
	O9951	O	0.739178	0.311600	0.800396
	O9952	O	0.682259	0.694942	0.764194
	O9953	O	0.651380	0.694933	0.764787
	O9954	O	0.707967	0.694607	0.861628
	O9955	O	0.707887	0.810614	0.861622
	O9956	O	0.676718	0.694561	0.862770
	O9957	O	0.676569	0.810521	0.862817
	O9958	O	0.651346	0.811281	0.764818
	O9959	O	0.682165	0.810982	0.764184
	O9960	O	0.682412	0.195468	0.764128
	O9961	O	0.651444	0.194665	0.764827
	O9962	O	0.707940	0.194512	0.861523
	O9963	O	0.708003	0.310419	0.861602
	O9964	O	0.676636	0.194844	0.862858
	O9965	O	0.676637	0.310911	0.862713
	O9966	O	0.651498	0.311124	0.764868
	O9967	O	0.682299	0.311517	0.764104
	H9968	H	0.638054	0.643617	0.838174
	H9969	H	0.637902	0.860790	0.838233
	H9970	H	0.638035	0.144532	0.838208
	H9971	H	0.637933	0.361063	0.838181
	H9972	H	0.631109	0.862423	0.794189
	H9973	H	0.631310	0.643183	0.794157
	H9974	H	0.631321	0.362567	0.794220
	H9975	H	0.631128	0.143206	0.794174
	H9976	H	0.752903	0.064388	0.810435
	H9977	H	0.755385	0.064883	0.812365
	H9978	H	0.755342	0.941042	0.812368
	H9979	H	0.752931	0.941445	0.810438
	H9980	H	0.754823	0.064097	0.807547
	H9981	H	0.754839	0.941280	0.807550
	H9982	H	0.600018	0.064514	0.818601
	H9983	H	0.599913	0.941759	0.818647
	H9984	H	0.603435	0.064934	0.818872
	H9985	H	0.603469	0.941089	0.818943
	H9986	H	0.606138	0.065021	0.816668
	H9987	H	0.606204	0.941511	0.816691
	H9988	H	0.603716	0.441053	0.815503
	H9989	H	0.601677	0.441442	0.814961
	H9990	H	0.604345	0.441326	0.817262
	H9991	H	0.757100	0.441471	0.808339
	H9992	H	0.759965	0.441058	0.809339
	H9993	H	0.760024	0.440865	0.810698
	H9994	H	0.601671	0.564864	0.814962
	H9995	H	0.603758	0.564608	0.815513
	H9996	H	0.760036	0.564327	0.810709
	H9997	H	0.759912	0.564344	0.809290
	H9998	H	0.757070	0.564017	0.808337
	H9999	H	0.604271	0.564244	0.817293
	H10000	H	0.732762	0.644504	0.833881
	H10001	H	0.732506	0.860534	0.833819
	H10002	H	0.732693	0.144950	0.833767
	H10003	H	0.732714	0.360265	0.833873
	H10004	H	0.642070	0.643602	0.778717
	H10005	H	0.700531	0.645119	0.775741
	H10006	H	0.700678	0.861154	0.775715
	H10007	H	0.641984	0.862512	0.778764
	H10008	H	0.720824	0.644978	0.788792
	H10009	H	0.720962	0.861117	0.788771
	H10010	H	0.719864	0.644755	0.848657
	H10011	H	0.719630	0.860385	0.848615
	H10012	H	0.666710	0.441440	0.750549
	H10013	H	0.697531	0.440848	0.873309
	H10014	H	0.670860	0.441157	0.754318
	H10015	H	0.668608	0.441277	0.757152
	H10016	H	0.694562	0.441003	0.870617
	H10017	H	0.696927	0.440531	0.871257
	H10018	H	0.697450	0.564337	0.873335
	H10019	H	0.666741	0.564847	0.750543
	H10020	H	0.697016	0.564175	0.871313
	H10021	H	0.694681	0.564488	0.870683
	H10022	H	0.668645	0.564425	0.757180
	H10023	H	0.671000	0.564403	0.754350
	H10024	H	0.719754	0.144755	0.848548
	H10025	H	0.719848	0.360199	0.848633
	H10026	H	0.659086	0.064872	0.756588
	H10027	H	0.664617	0.064396	0.758380
	H10028	H	0.658299	0.064432	0.751531
	H10029	H	0.658265	0.860867	0.851247
	H10030	H	0.658419	0.644068	0.851174
	H10031	H	0.658233	0.360691	0.851246
	H10032	H	0.658363	0.144726	0.851282
	H10033	H	0.641947	0.143187	0.778719
	H10034	H	0.700702	0.146123	0.775783
	H10035	H	0.700705	0.361190	0.775625
	H10036	H	0.642201	0.362537	0.778803
	H10037	H	0.720898	0.146030	0.788862
	H10038	H	0.720941	0.361373	0.788750
	H10039	H	0.690659	0.064392	0.870004
	H10040	H	0.689278	0.064405	0.872650
	H10041	H	0.693591	0.064198	0.875633
	H10042	H	0.664554	0.941134	0.758346
	H10043	H	0.659058	0.940902	0.756561
	H10044	H	0.658283	0.941290	0.751493
	H10045	H	0.690607	0.940815	0.870006
	H10046	H	0.689260	0.940933	0.872623
	H10047	H	0.693513	0.941474	0.875651
	Zn10048	Zn	0.601937	0.680380	0.816514
	Zn10049	Zn	0.602018	0.825728	0.816480
	Zn10050	Zn	0.601950	0.180441	0.816474
	Zn10051	Zn	0.601936	0.325609	0.816463
	Zn10052	Zn	0.694906	0.680136	0.872500
	Zn10053	Zn	0.694725	0.825609	0.872454
	Zn10054	Zn	0.694927	0.180161	0.872409
	Zn10055	Zn	0.694806	0.325585	0.872394
	C10056	C	0.734424	0.752940	0.797391
	C10057	C	0.624479	0.752406	0.829636
	C10058	C	0.636758	0.752219	0.837424
	C10059	C	0.642531	0.690817	0.841086
	C10060	C	0.642432	0.813673	0.841126
	C10061	C	0.624504	0.252794	0.829599
	C10062	C	0.636764	0.252760	0.837423
	C10063	C	0.642506	0.191499	0.841136
	C10064	C	0.642440	0.314052	0.841111
	C10065	C	0.622711	0.752647	0.804019
	C10066	C	0.630621	0.752771	0.795157
	C10067	C	0.633654	0.814829	0.790793
	C10068	C	0.633778	0.690937	0.790769
	C10069	C	0.622619	0.252920	0.803960
	C10070	C	0.630504	0.252958	0.795107
	C10071	C	0.633773	0.314950	0.790795
	C10072	C	0.633621	0.190861	0.790751
	C10073	C	0.755000	0.043332	0.811014
	C10074	C	0.755005	0.962449	0.811018
	C10075	C	0.601758	0.043560	0.818151
	C10076	C	0.601730	0.962640	0.818172
	C10077	C	0.604458	0.043382	0.815902
	C10078	C	0.604481	0.962683	0.815919
	C10079	C	0.602469	0.462510	0.815565
	C10080	C	0.756483	0.462423	0.808993
	C10081	C	0.759318	0.462275	0.810012
	C10082	C	0.602496	0.543358	0.815586
	C10083	C	0.759299	0.543176	0.809993
	C10084	C	0.756488	0.542816	0.808993
	C10085	C	0.741251	0.752172	0.824188
	C10086	C	0.741308	0.252742	0.824164
	C10087	C	0.733287	0.752429	0.832952
	C10088	C	0.729781	0.691334	0.837135
	C10089	C	0.729634	0.813626	0.837112
	C10090	C	0.733373	0.252551	0.832952
	C10091	C	0.729814	0.191513	0.837084
	C10092	C	0.729807	0.313557	0.837133
	C10093	C	0.734397	0.253742	0.797398
	C10094	C	0.687047	0.753079	0.767143
	C10095	C	0.648878	0.753054	0.768432
	C10096	C	0.671803	0.752473	0.859823
	C10097	C	0.716270	0.691918	0.785928
	C10098	C	0.716347	0.814215	0.785912
	C10099	C	0.699286	0.753089	0.774977
	C10100	C	0.642522	0.753047	0.777762
	C10101	C	0.639713	0.691125	0.782181
	C10102	C	0.704992	0.691999	0.778682
	C10103	C	0.705072	0.814159	0.778664
	C10104	C	0.639616	0.814880	0.782208
	C10105	C	0.722003	0.753064	0.789635
	C10106	C	0.711084	0.752678	0.858281
	C10107	C	0.722630	0.691499	0.845321
	C10108	C	0.722483	0.813653	0.845302
	C10109	C	0.718972	0.752589	0.849471
	C10110	C	0.696093	0.462293	0.873394
	C10111	C	0.668345	0.462582	0.755285
	C10112	C	0.695492	0.462217	0.871315
	C10113	C	0.696090	0.543190	0.873405
	C10114	C	0.695529	0.543248	0.871362
	C10115	C	0.668387	0.543336	0.755297
	C10116	C	0.711066	0.252521	0.858198
	C10117	C	0.722655	0.191493	0.845268
	C10118	C	0.722678	0.313536	0.845321
	C10119	C	0.719003	0.252507	0.849423
	C10120	C	0.662529	0.043353	0.756555
	C10121	C	0.687155	0.253604	0.767107
	C10122	C	0.648945	0.252832	0.768463
	C10123	C	0.671859	0.252700	0.859807
	C10124	C	0.716351	0.192835	0.785947
	C10125	C	0.716378	0.314726	0.785870
	C10126	C	0.699408	0.253764	0.774933
	C10127	C	0.642516	0.252836	0.777780
	C10128	C	0.659469	0.752435	0.852040
	C10129	C	0.653729	0.813710	0.848348
	C10130	C	0.653811	0.691041	0.848309
	C10131	C	0.659454	0.252612	0.852052
	C10132	C	0.653696	0.313867	0.848358
	C10133	C	0.653765	0.191498	0.848385
	C10134	C	0.639571	0.190807	0.782171
	C10135	C	0.705149	0.192908	0.778672
	C10136	C	0.705162	0.314627	0.778589
	C10137	C	0.639741	0.314853	0.782221
	C10138	C	0.722057	0.253843	0.789615
	C10139	C	0.691238	0.043303	0.871602
	C10140	C	0.661770	0.043127	0.751503
	C10141	C	0.662509	0.962341	0.756555
	C10142	C	0.691179	0.962372	0.871610
	C10143	C	0.661769	0.962673	0.751487
	N10144	N	0.601924	0.070274	0.816509
	N10145	N	0.601923	0.935710	0.816534
	N10146	N	0.601846	0.435755	0.816509
	N10147	N	0.601852	0.570329	0.816527
	N10148	N	0.694836	0.435538	0.872409
	N10149	N	0.694885	0.570050	0.872443
	N10150	N	0.694818	0.070094	0.872407
	N10151	N	0.694728	0.935563	0.872423
	O10152	O	0.769663	0.694574	0.918450
	O10153	O	0.769859	0.810884	0.918423
	O10154	O	0.650801	0.694484	0.944718
	O10155	O	0.650814	0.810573	0.944744
	O10156	O	0.650804	0.194934	0.944709
	O10157	O	0.650835	0.310862	0.944702
	O10158	O	0.645873	0.695073	0.924245
	O10159	O	0.645792	0.811144	0.924240
	O10160	O	0.645670	0.195172	0.924138
	O10161	O	0.645802	0.311281	0.924191
	O10162	O	0.770148	0.694634	0.937881
	O10163	O	0.770236	0.811503	0.937925
	O10164	O	0.770188	0.194521	0.937891
	O10165	O	0.770034	0.311099	0.937784
	O10166	O	0.769640	0.194665	0.918453
	O10167	O	0.769760	0.310742	0.918446
	O10168	O	0.712969	0.694685	0.882197
	O10169	O	0.681793	0.694993	0.883318
	O10170	O	0.738343	0.694829	0.980470
	O10171	O	0.738223	0.811318	0.980394
	O10172	O	0.707443	0.694430	0.981086
	O10173	O	0.707512	0.810813	0.981025
	O10174	O	0.681626	0.811017	0.883278
	O10175	O	0.713044	0.810879	0.882080
	O10176	O	0.713070	0.194681	0.882109
	O10177	O	0.681660	0.195254	0.883260
	O10178	O	0.738359	0.194723	0.980450
	O10179	O	0.738395	0.311069	0.980489
	O10180	O	0.707487	0.194321	0.981019
	O10181	O	0.707475	0.310633	0.981009
	O10182	O	0.681775	0.311327	0.883274
	O10183	O	0.713125	0.310635	0.882049
	H10184	H	0.669063	0.643992	0.956333
	H10185	H	0.669135	0.861101	0.956263
	H10186	H	0.668904	0.144404	0.956327
	H10187	H	0.669158	0.361474	0.956270
	H10188	H	0.657534	0.861161	0.911225
	H10189	H	0.657329	0.645124	0.911193
	H10190	H	0.657376	0.361654	0.911094
	H10191	H	0.657265	0.145166	0.911107
	H10192	H	0.795046	0.064454	0.926001
	H10193	H	0.788634	0.064519	0.923316
	H10194	H	0.788563	0.941083	0.923294
	H10195	H	0.795000	0.940659	0.926019
	H10196	H	0.794482	0.064357	0.932258
	H10197	H	0.794570	0.940563	0.932276
	H10198	H	0.631105	0.064597	0.936051
	H10199	H	0.631212	0.941109	0.936060
	H10200	H	0.633087	0.064482	0.936481
	H10201	H	0.633107	0.941470	0.936450
	H10202	H	0.635088	0.064260	0.935393
	H10203	H	0.635042	0.941130	0.935390
	H10204	H	0.634843	0.441481	0.933579
	H10205	H	0.632185	0.441282	0.933071
	H10206	H	0.635838	0.440907	0.935805
	H10207	H	0.791962	0.440898	0.929440
	H10208	H	0.787960	0.440952	0.931356
	H10209	H	0.784298	0.441070	0.930409
	H10210	H	0.632029	0.564484	0.933053
	H10211	H	0.634748	0.564877	0.933546
	H10212	H	0.784239	0.564538	0.930407
	H10213	H	0.787898	0.564430	0.931333
	H10214	H	0.791820	0.564828	0.929439
	H10215	H	0.635850	0.564615	0.935767
	H10216	H	0.758199	0.643546	0.950993
	H10217	H	0.758351	0.862615	0.951016
	H10218	H	0.758236	0.143343	0.950977
	H10219	H	0.757964	0.362578	0.950907
	H10220	H	0.670045	0.645197	0.896352
	H10221	H	0.731524	0.644152	0.893612
	H10222	H	0.731248	0.862200	0.893797
	H10223	H	0.670257	0.860936	0.896376
	H10224	H	0.751701	0.644331	0.906698
	H10225	H	0.751484	0.861760	0.906894
	H10226	H	0.747479	0.643411	0.966470
	H10227	H	0.747605	0.862764	0.966456
	H10228	H	0.695559	0.441253	0.874176
	H10229	H	0.725019	0.440981	0.993945
	H10230	H	0.692298	0.441544	0.873297
	H10231	H	0.691896	0.441400	0.871787
	H10232	H	0.729276	0.441197	0.990123
	H10233	H	0.729407	0.440796	0.992453
	H10234	H	0.725014	0.564863	0.993880
	H10235	H	0.695586	0.564666	0.874167
	H10236	H	0.729403	0.564272	0.992404
	H10237	H	0.729184	0.564255	0.990131
	H10238	H	0.691917	0.564606	0.871806
	H10239	H	0.692441	0.564435	0.873336
	H10240	H	0.747652	0.143458	0.966471
	H10241	H	0.747395	0.362544	0.966428
	H10242	H	0.700150	0.064772	0.871630
	H10243	H	0.696964	0.064603	0.869419
	H10244	H	0.698209	0.064898	0.875229
	H10245	H	0.689328	0.861058	0.969385
	H10246	H	0.689241	0.643979	0.969469
	H10247	H	0.689370	0.361118	0.969387
	H10248	H	0.689119	0.144010	0.969439
	H10249	H	0.670026	0.145234	0.896274
	H10250	H	0.731453	0.144696	0.893636
	H10251	H	0.731236	0.360949	0.893751
	H10252	H	0.670115	0.361290	0.896264
	H10253	H	0.751572	0.144592	0.906774
	H10254	H	0.751401	0.360920	0.906882
	H10255	H	0.725196	0.064746	0.991477
	H10256	H	0.725501	0.064798	0.991373
	H10257	H	0.725451	0.064523	0.991074
	H10258	H	0.696903	0.941188	0.869465
	H10259	H	0.700030	0.941043	0.871672
	H10260	H	0.698077	0.941475	0.875224
	H10261	H	0.725175	0.940747	0.991446
	H10262	H	0.725488	0.941389	0.991344
	H10263	H	0.725412	0.941252	0.991062
	Zn10264	Zn	0.632607	0.680074	0.935034
	Zn10265	Zn	0.632683	0.825755	0.935077
	Zn10266	Zn	0.632638	0.180231	0.935015
	Zn10267	Zn	0.632694	0.325749	0.935047
	Zn10268	Zn	0.725165	0.680301	0.991211
	Zn10269	Zn	0.725132	0.825276	0.991240
	Zn10270	Zn	0.725143	0.180354	0.991238
	Zn10271	Zn	0.725062	0.325408	0.991238
	C10272	C	0.764961	0.752844	0.915445
	C10273	C	0.655584	0.752478	0.947731
	C10274	C	0.667940	0.752467	0.955515
	C10275	C	0.673612	0.691074	0.959232
	C10276	C	0.673675	0.813905	0.959181
	C10277	C	0.655596	0.252912	0.947698
	C10278	C	0.667854	0.252928	0.955513
	C10279	C	0.673483	0.191485	0.959224
	C10280	C	0.673617	0.314261	0.959197
	C10281	C	0.648946	0.753164	0.920896
	C10282	C	0.656737	0.753180	0.912052
	C10283	C	0.660300	0.814312	0.907889
	C10284	C	0.660192	0.691952	0.907875
	C10285	C	0.648798	0.253247	0.920797
	C10286	C	0.656666	0.253379	0.912001
	C10287	C	0.660238	0.314603	0.907815
	C10288	C	0.660184	0.192067	0.907827
	C10289	C	0.790703	0.043131	0.925696
	C10290	C	0.790692	0.962182	0.925712
	C10291	C	0.632259	0.043402	0.935936
	C10292	C	0.632301	0.962536	0.935930
	C10293	C	0.634241	0.043337	0.934861
	C10294	C	0.634238	0.962372	0.934870
	C10295	C	0.633309	0.462541	0.933759
	C10296	C	0.790521	0.462371	0.928375
	C10297	C	0.786551	0.462460	0.930277
	C10298	C	0.633230	0.543205	0.933739
	C10299	C	0.786489	0.543107	0.930279
	C10300	C	0.790473	0.543197	0.928375
	C10301	C	0.766750	0.753042	0.941181
	C10302	C	0.766631	0.252885	0.941112
	C10303	C	0.758865	0.753074	0.950075
	C10304	C	0.755741	0.691070	0.954431
	C10305	C	0.755832	0.815092	0.954439
	C10306	C	0.758844	0.253047	0.950031
	C10307	C	0.755785	0.191041	0.954404
	C10308	C	0.755637	0.314989	0.954372
	C10309	C	0.764882	0.252764	0.915476
	C10310	C	0.717784	0.752917	0.885122
	C10311	C	0.678660	0.752975	0.886686
	C10312	C	0.702707	0.752611	0.978066
	C10313	C	0.747108	0.691501	0.903838
	C10314	C	0.746966	0.814693	0.903950
	C10315	C	0.730064	0.753215	0.892922
	C10316	C	0.670790	0.753044	0.895479
	C10317	C	0.667194	0.691877	0.899637
	C10318	C	0.735894	0.691564	0.896568
	C10319	C	0.735755	0.814803	0.896672
	C10320	C	0.667309	0.814206	0.899653
	C10321	C	0.752683	0.753040	0.907617
	C10322	C	0.740759	0.753032	0.976816
	C10323	C	0.749853	0.691064	0.963037
	C10324	C	0.749922	0.815002	0.963037
	C10325	C	0.747088	0.753029	0.967495
	C10326	C	0.723813	0.462474	0.992772
	C10327	C	0.692809	0.462583	0.872509
	C10328	C	0.728290	0.462373	0.991249
	C10329	C	0.723850	0.543308	0.992744
	C10330	C	0.728271	0.543059	0.991256
	C10331	C	0.692870	0.543176	0.872540
	C10332	C	0.740874	0.252940	0.976838
	C10333	C	0.749974	0.191144	0.963029
	C10334	C	0.749830	0.314916	0.963003
	C10335	C	0.747133	0.253028	0.967480
	C10336	C	0.697566	0.043380	0.871024
	C10337	C	0.717840	0.252749	0.885084
	C10338	C	0.678601	0.253318	0.886626
	C10339	C	0.702680	0.252413	0.978033
	C10340	C	0.747021	0.191667	0.903901
	C10341	C	0.746914	0.314048	0.903952
	C10342	C	0.730085	0.252980	0.892923
	C10343	C	0.670766	0.253271	0.895448
	C10344	C	0.690507	0.752467	0.970215
	C10345	C	0.684863	0.813901	0.966467
	C10346	C	0.684802	0.691099	0.966518
	C10347	C	0.690453	0.252478	0.970192
	C10348	C	0.684820	0.314046	0.966473
	C10349	C	0.684684	0.191193	0.966501
	C10350	C	0.667223	0.192004	0.899607
	C10351	C	0.735849	0.191659	0.896601
	C10352	C	0.735754	0.314125	0.896649
	C10353	C	0.667275	0.314567	0.899598
	C10354	C	0.752630	0.252862	0.907649
	C10355	C	0.725296	0.043355	0.991388
	C10356	C	0.695616	0.043271	0.874651
	C10357	C	0.697499	0.962413	0.871038
	C10358	C	0.725308	0.962301	0.991369
	C10359	C	0.695548	0.962657	0.874649
	N10360	N	0.632733	0.070300	0.935050
	N10361	N	0.632751	0.935806	0.935061
	N10362	N	0.632778	0.435628	0.935025
	N10363	N	0.632695	0.570050	0.935003
	N10364	N	0.725196	0.435362	0.991213
	N10365	N	0.725221	0.569915	0.991192
	N10366	N	0.725163	0.070278	0.991246
	N10367	N	0.725161	0.935671	0.991224
	O10368	O	0.871393	0.694777	0.049492
	O10369	O	0.871383	0.811030	0.049476
	O10370	O	0.756794	0.694901	0.073569
	O10371	O	0.756764	0.811456	0.073538
	O10372	O	0.756736	0.194411	0.073547
	O10373	O	0.756796	0.310727	0.073555
	O10374	O	0.756960	0.694568	0.053917
	O10375	O	0.756839	0.811182	0.053832
	O10376	O	0.756841	0.193985	0.053873
	O10377	O	0.756822	0.310784	0.053908
	O10378	O	0.871369	0.694328	0.069140
	O10379	O	0.871268	0.810989	0.069071
	O10380	O	0.871205	0.194515	0.069070
	O10381	O	0.871283	0.311175	0.069071
	O10382	O	0.871381	0.194832	0.049461
	O10383	O	0.871508	0.311247	0.049454
	O10384	O	0.819079	0.694680	0.010943
	O10385	O	0.788441	0.694362	0.011210
	O10386	O	0.839744	0.694001	0.111754
	O10387	O	0.839819	0.810587	0.111783
	O10388	O	0.809087	0.695146	0.112070
	O10389	O	0.809290	0.811389	0.112012
	O10390	O	0.788365	0.810897	0.011199
	O10391	O	0.818903	0.811034	0.011022
	O10392	O	0.819117	0.194560	0.010932
	O10393	O	0.788451	0.194577	0.011261
	O10394	O	0.839853	0.194846	0.111774
	O10395	O	0.839722	0.311369	0.111761
	O10396	O	0.809247	0.194485	0.111999
	O10397	O	0.809075	0.310651	0.112086
	O10398	O	0.788603	0.310989	0.011307
	O10399	O	0.819035	0.310735	0.010984
	H10400	H	0.773466	0.644340	0.085930
	H10401	H	0.773696	0.862023	0.085821
	H10402	H	0.773830	0.144289	0.085816
	H10403	H	0.773396	0.360595	0.085894
	H10404	H	0.768563	0.862150	0.040660
	H10405	H	0.768751	0.643095	0.040767
	H10406	H	0.768809	0.362182	0.040831
	H10407	H	0.768549	0.142958	0.040730
	H10408	H	0.889874	0.064560	0.062769
	H10409	H	0.892933	0.064675	0.061381
	H10410	H	0.892964	0.940588	0.061328
	H10411	H	0.889901	0.941041	0.062792
	H10412	H	0.884687	0.064774	0.061422
	H10413	H	0.884691	0.940779	0.061455
	H10414	H	0.734491	0.064417	0.065684
	H10415	H	0.734564	0.941141	0.065667
	H10416	H	0.739867	0.064181	0.067209
	H10417	H	0.739881	0.940877	0.067118
	H10418	H	0.746212	0.064361	0.064584
	H10419	H	0.746220	0.940887	0.064555
	H10420	H	0.743897	0.441477	0.060628
	H10421	H	0.738942	0.440726	0.059397
	H10422	H	0.745395	0.441788	0.064843
	H10423	H	0.888856	0.441045	0.059899
	H10424	H	0.888780	0.440658	0.060058
	H10425	H	0.888557	0.441034	0.060029
	H10426	H	0.738932	0.564495	0.059413
	H10427	H	0.743865	0.564577	0.060605
	H10428	H	0.888602	0.563883	0.059961
	H10429	H	0.888655	0.564455	0.059992
	H10430	H	0.888787	0.564784	0.059872
	H10431	H	0.745402	0.564380	0.064794
	H10432	H	0.859476	0.643091	0.082246
	H10433	H	0.859537	0.862208	0.082260
	H10434	H	0.859497	0.143555	0.082250
	H10435	H	0.859557	0.362746	0.082289
	H10436	H	0.779345	0.643052	0.025271
	H10437	H	0.836001	0.644433	0.023236
	H10438	H	0.835785	0.861670	0.023289
	H10439	H	0.779153	0.861944	0.025158
	H10440	H	0.854492	0.644226	0.037175
	H10441	H	0.854317	0.861702	0.037260
	H10442	H	0.848956	0.643084	0.097776
	H10443	H	0.848980	0.861870	0.097780
	H10444	H	0.799022	0.440917	-0.002976
	H10445	H	0.822126	0.441375	0.123006
	H10446	H	0.806178	0.441242	-0.002026
	H10447	H	0.808147	0.441422	0.001000
	H10448	H	0.829483	0.441333	0.124422
	H10449	H	0.826067	0.441159	0.125062
	H10450	H	0.822171	0.564398	0.123032
	H10451	H	0.799037	0.564410	-0.002989
	H10452	H	0.826169	0.564104	0.125067
	H10453	H	0.829526	0.564473	0.124401
	H10454	H	0.808205	0.564568	0.001010
	H10455	H	0.806244	0.564443	-0.002075
	H10456	H	0.848993	0.143656	0.097769
	H10457	H	0.849017	0.362590	0.097801
	H10458	H	0.799884	0.064465	0.000259
	H10459	H	0.800412	0.064984	0.001220
	H10460	H	0.801436	0.064889	-0.000668
	H10461	H	0.792309	0.862392	0.099710
	H10462	H	0.792074	0.644318	0.099852
	H10463	H	0.791969	0.360846	0.099819
	H10464	H	0.792394	0.144580	0.099732
	H10465	H	0.779197	0.143069	0.025241
	H10466	H	0.835934	0.144279	0.023260
	H10467	H	0.835890	0.361237	0.023261
	H10468	H	0.779426	0.362216	0.025314
	H10469	H	0.854460	0.144443	0.037207
	H10470	H	0.854435	0.361582	0.037200
	H10471	H	0.830313	0.064650	0.122981
	H10472	H	0.829433	0.063883	0.121023
	H10473	H	0.824827	0.064382	0.120160
	H10474	H	0.800393	0.941027	0.001167
	H10475	H	0.799903	0.941205	0.000247
	H10476	H	0.801462	0.941132	-0.000696
	H10477	H	0.830502	0.940810	0.123061
	H10478	H	0.829485	0.941401	0.121027
	H10479	H	0.824893	0.940939	0.120136
	Zn10480	Zn	0.739632	0.680181	0.063091
	Zn10481	Zn	0.739564	0.825375	0.063037
	Zn10482	Zn	0.739533	0.180533	0.063064
	Zn10483	Zn	0.739607	0.325527	0.063119
	Zn10484	Zn	0.826285	0.680528	0.122489
	Zn10485	Zn	0.826441	0.825192	0.122542
	Zn10486	Zn	0.826345	0.180513	0.122486
	Zn10487	Zn	0.826306	0.325161	0.122522
	C10488	C	0.866933	0.752920	0.046324
	C10489	C	0.761228	0.753211	0.076711
	C10490	C	0.772560	0.753181	0.085013
	C10491	C	0.777701	0.691573	0.088995
	C10492	C	0.777825	0.814838	0.088926
	C10493	C	0.761254	0.252500	0.076695
	C10494	C	0.772592	0.252411	0.084986
	C10495	C	0.777892	0.191281	0.088925
	C10496	C	0.777670	0.313666	0.088959
	C10497	C	0.760357	0.752818	0.050588
	C10498	C	0.768173	0.752665	0.041696
	C10499	C	0.771114	0.814522	0.037270
	C10500	C	0.771247	0.690696	0.037341
	C10501	C	0.760309	0.252440	0.050640
	C10502	C	0.768103	0.252532	0.041734
	C10503	C	0.771241	0.314619	0.037388
	C10504	C	0.771092	0.190668	0.037336
	C10505	C	0.890746	0.043293	0.061504
	C10506	C	0.890780	0.962359	0.061503
	C10507	C	0.737769	0.043201	0.065535
	C10508	C	0.737802	0.962370	0.065506
	C10509	C	0.744131	0.043333	0.062862
	C10510	C	0.744113	0.962463	0.062844
	C10511	C	0.740900	0.462458	0.060826
	C10512	C	0.888831	0.462439	0.059896
	C10513	C	0.888692	0.462393	0.059986
	C10514	C	0.740898	0.543371	0.060837
	C10515	C	0.888697	0.543100	0.059974
	C10516	C	0.888800	0.543060	0.059880
	C10517	C	0.867894	0.752685	0.072396
	C10518	C	0.867813	0.252923	0.072354
	C10519	C	0.860116	0.752636	0.081302
	C10520	C	0.857041	0.690701	0.085674
	C10521	C	0.857075	0.814563	0.085676
	C10522	C	0.860088	0.253147	0.081291
	C10523	C	0.857046	0.191218	0.085669
	C10524	C	0.857068	0.315057	0.085691
	C10525	C	0.866945	0.253101	0.046313
	C10526	C	0.823445	0.752885	0.014147
	C10527	C	0.785958	0.752630	0.014847
	C10528	C	0.804685	0.753322	0.108902
	C10529	C	0.850370	0.691499	0.034087
	C10530	C	0.850278	0.814590	0.034119
	C10531	C	0.834818	0.753024	0.022431
	C10532	C	0.779739	0.752522	0.024211
	C10533	C	0.777029	0.690666	0.028708
	C10534	C	0.840078	0.691555	0.026365
	C10535	C	0.839963	0.814530	0.026404
	C10536	C	0.776894	0.814405	0.028638
	C10537	C	0.855531	0.753029	0.038060
	C10538	C	0.842291	0.752332	0.108157
	C10539	C	0.851273	0.690654	0.094311
	C10540	C	0.851304	0.814429	0.094314
	C10541	C	0.848532	0.752489	0.098778
	C10542	C	0.823483	0.462463	0.122079
	C10543	C	0.805742	0.462553	-0.000247
	C10544	C	0.827420	0.462456	0.124167
	C10545	C	0.823483	0.543097	0.122089
	C10546	C	0.827454	0.543230	0.124153
	C10547	C	0.805755	0.543379	-0.000260
	C10548	C	0.842276	0.253117	0.108142
	C10549	C	0.851279	0.191210	0.094307
	C10550	C	0.851299	0.315045	0.094329
	C10551	C	0.848513	0.253133	0.098766
	C10552	C	0.800557	0.043423	0.000672
	C10553	C	0.823526	0.252643	0.014123
	C10554	C	0.786011	0.252756	0.014900
	C10555	C	0.804680	0.252627	0.108883
	C10556	C	0.850325	0.191603	0.034110
	C10557	C	0.850304	0.314370	0.034111
	C10558	C	0.834816	0.252689	0.022435
	C10559	C	0.779775	0.252663	0.024285
	C10560	C	0.793294	0.753353	0.100626
	C10561	C	0.788131	0.814919	0.096643
	C10562	C	0.788003	0.691673	0.096722
	C10563	C	0.793352	0.252730	0.100583
	C10564	C	0.787969	0.313837	0.096690
	C10565	C	0.788195	0.191474	0.096650
	C10566	C	0.776919	0.190723	0.028714
	C10567	C	0.840050	0.191346	0.026366
	C10568	C	0.840030	0.314156	0.026369
	C10569	C	0.777054	0.314670	0.028758
	C10570	C	0.855568	0.253066	0.038040
	C10571	C	0.829024	0.043146	0.122150
	C10572	C	0.802098	0.043459	-0.000261
	C10573	C	0.800543	0.962585	0.000654
	C10574	C	0.829082	0.962487	0.122155
	C10575	C	0.802101	0.962418	-0.000279
	N10576	N	0.739475	0.070407	0.063063
	N10577	N	0.739490	0.935789	0.063038
	N10578	N	0.739589	0.435469	0.063117
	N10579	N	0.739593	0.569964	0.063095
	N10580	N	0.826358	0.435571	0.122479
	N10581	N	0.826353	0.570208	0.122476
	N10582	N	0.826393	0.070044	0.122479
	N10583	N	0.826468	0.935413	0.122486
	O10584	O	0.828178	0.694055	0.181979
	O10585	O	0.828042	0.811085	0.181984
	O10586	O	0.776417	0.694589	0.197487
	O10587	O	0.776297	0.811441	0.197434
	O10588	O	0.776221	0.193976	0.197445
	O10589	O	0.776279	0.310813	0.197447
	O10590	O	0.777364	0.695216	0.174321
	O10591	O	0.777377	0.811657	0.174351
	O10592	O	0.777363	0.194109	0.174336
	O10593	O	0.777233	0.310784	0.174288
	O10594	O	0.827400	0.694484	0.205189
	O10595	O	0.827462	0.811038	0.205162
	O10596	O	0.827387	0.194628	0.205160
	O10597	O	0.827489	0.310972	0.205165
	O10598	O	0.828117	0.194967	0.181935
	O10599	O	0.828042	0.311686	0.181972
	O10600	O	0.838756	0.693706	0.134984
	O10601	O	0.808966	0.695280	0.131668
	O10602	O	0.795447	0.694913	0.247680
	O10603	O	0.795524	0.811621	0.247704
	O10604	O	0.765639	0.694523	0.244450
	O10605	O	0.765557	0.811475	0.244475
	O10606	O	0.809076	0.811907	0.131688
	O10607	O	0.838847	0.810421	0.134982
	O10608	O	0.838887	0.195016	0.134920
	O10609	O	0.809125	0.194298	0.131705
	O10610	O	0.795473	0.194928	0.247711
	O10611	O	0.795586	0.311666	0.247715
	O10612	O	0.765672	0.194595	0.244455
	O10613	O	0.765712	0.311693	0.244427
	O10614	O	0.809071	0.310806	0.131724
	O10615	O	0.838762	0.311899	0.134959
	H10616	H	0.773716	0.643266	0.212671
	H10617	H	0.773661	0.862998	0.212642
	H10618	H	0.773652	0.142677	0.212655
	H10619	H	0.773650	0.362601	0.212627
	H10620	H	0.787087	0.863403	0.160485
	H10621	H	0.786348	0.644132	0.160267
	H10622	H	0.786307	0.361663	0.160263
	H10623	H	0.786975	0.142718	0.160474
	H10624	H	0.841765	0.065651	0.199810
	H10625	H	0.848308	0.064661	0.197655
	H10626	H	0.848269	0.941599	0.197657
	H10627	H	0.841787	0.941263	0.199887
	H10628	H	0.832413	0.065292	0.196475
	H10629	H	0.832436	0.941618	0.196503
	H10630	H	0.753507	0.064496	0.188063
	H10631	H	0.753436	0.941288	0.188031
	H10632	H	0.761625	0.064909	0.191863
	H10633	H	0.761625	0.941025	0.191826
	H10634	H	0.774067	0.064312	0.188991
	H10635	H	0.773992	0.941287	0.188949
	H10636	H	0.763923	0.441285	0.186211
	H10637	H	0.765486	0.441050	0.185847
	H10638	H	0.761929	0.441396	0.185374
	H10639	H	0.841595	0.440970	0.193263
	H10640	H	0.842798	0.441492	0.194671
	H10641	H	0.841824	0.441526	0.195589
	H10642	H	0.765480	0.564422	0.185832
	H10643	H	0.763915	0.564459	0.186187
	H10644	H	0.841892	0.564784	0.195582
	H10645	H	0.842812	0.564809	0.194622
	H10646	H	0.841531	0.564710	0.193259
	H10647	H	0.761930	0.564710	0.185310
	H10648	H	0.818152	0.643277	0.219151
	H10649	H	0.818053	0.862623	0.219090
	H10650	H	0.817990	0.143458	0.219099
	H10651	H	0.818148	0.362363	0.219102
	H10652	H	0.796840	0.644196	0.144742
	H10653	H	0.835970	0.642163	0.150194
	H10654	H	0.836285	0.862136	0.150153
	H10655	H	0.797544	0.863389	0.144950
	H10656	H	0.830576	0.642477	0.166814
	H10657	H	0.830863	0.862602	0.166761
	H10658	H	0.807460	0.643577	0.234657
	H10659	H	0.807415	0.862914	0.234563
	H10660	H	0.822732	0.440938	0.120851
	H10661	H	0.773516	0.440998	0.252527
	H10662	H	0.827317	0.440802	0.119965
	H10663	H	0.830234	0.440737	0.121482
	H10664	H	0.774368	0.441183	0.261165
	H10665	H	0.769998	0.441240	0.257768
	H10666	H	0.773516	0.564813	0.252545
	H10667	H	0.822679	0.564326	0.120860
	H10668	H	0.770058	0.565062	0.257762
	H10669	H	0.774382	0.564656	0.261220
	H10670	H	0.830163	0.564674	0.121443
	H10671	H	0.827350	0.564800	0.120018
	H10672	H	0.807313	0.143588	0.234593
	H10673	H	0.807414	0.362573	0.234574
	H10674	H	0.823885	0.064274	0.124269
	H10675	H	0.827200	0.064919	0.124883
	H10676	H	0.822450	0.064855	0.121572
	H10677	H	0.768181	0.862876	0.229269
	H10678	H	0.768266	0.643231	0.229266
	H10679	H	0.768232	0.362679	0.229228
	H10680	H	0.768236	0.143065	0.229272
	H10681	H	0.797614	0.142791	0.144993
	H10682	H	0.836272	0.143254	0.150178
	H10683	H	0.836087	0.363127	0.150122
	H10684	H	0.796917	0.361802	0.144784
	H10685	H	0.830887	0.143293	0.166783
	H10686	H	0.830640	0.363416	0.166719
	H10687	H	0.771756	0.064694	0.256205
	H10688	H	0.773507	0.064571	0.259361
	H10689	H	0.780811	0.064730	0.260514
	H10690	H	0.827222	0.940700	0.124957
	H10691	H	0.823871	0.941516	0.124287
	H10692	H	0.822502	0.941154	0.121574
	H10693	H	0.771738	0.941466	0.256211
	H10694	H	0.773565	0.940935	0.259331
	H10695	H	0.780777	0.941248	0.260556
	Zn10696	Zn	0.763894	0.680550	0.185001
	Zn10697	Zn	0.763704	0.825290	0.185013
	Zn10698	Zn	0.763822	0.180502	0.185004
	Zn10699	Zn	0.763858	0.325249	0.184975
	Zn10700	Zn	0.778230	0.680605	0.256915
	Zn10701	Zn	0.778206	0.825468	0.256869
	Zn10702	Zn	0.778193	0.180321	0.256901
	Zn10703	Zn	0.778179	0.325398	0.256855
	C10704	C	0.828321	0.752581	0.177990
	C10705	C	0.776137	0.753088	0.201467
	C10706	C	0.774236	0.753118	0.211655
	C10707	C	0.772572	0.691038	0.216356
	C10708	C	0.772525	0.815212	0.216347
	C10709	C	0.776042	0.252396	0.201452
	C10710	C	0.774161	0.252549	0.211632
	C10711	C	0.772500	0.190472	0.216327
	C10712	C	0.772502	0.314832	0.216311
	C10713	C	0.779933	0.753512	0.170720
	C10714	C	0.786222	0.753686	0.161364
	C10715	C	0.789204	0.815722	0.156972
	C10716	C	0.788799	0.691816	0.156850
	C10717	C	0.779826	0.252402	0.170713
	C10718	C	0.786151	0.252237	0.161368
	C10719	C	0.788756	0.314152	0.156866
	C10720	C	0.789129	0.190265	0.156976
	C10721	C	0.843797	0.043851	0.197595
	C10722	C	0.843790	0.962861	0.197610
	C10723	C	0.759247	0.043581	0.188640
	C10724	C	0.759201	0.962442	0.188638
	C10725	C	0.771683	0.043058	0.185756
	C10726	C	0.771668	0.962439	0.185755
	C10727	C	0.764539	0.462404	0.185746
	C10728	C	0.840600	0.462482	0.193520
	C10729	C	0.841843	0.462825	0.194929
	C10730	C	0.764523	0.543238	0.185750
	C10731	C	0.841843	0.543499	0.194922
	C10732	C	0.840538	0.543427	0.193509
	C10733	C	0.824907	0.752832	0.208783
	C10734	C	0.824887	0.252824	0.208770
	C10735	C	0.818567	0.752926	0.218110
	C10736	C	0.815790	0.690965	0.222575
	C10737	C	0.815742	0.814982	0.222535
	C10738	C	0.818509	0.252870	0.218091
	C10739	C	0.815660	0.191039	0.222545
	C10740	C	0.815728	0.314833	0.222536
	C10741	C	0.828306	0.253413	0.177939
	C10742	C	0.838583	0.752039	0.138998
	C10743	C	0.805579	0.753641	0.134959
	C10744	C	0.765813	0.753040	0.240457
	C10745	C	0.831801	0.690288	0.163112
	C10746	C	0.831989	0.814694	0.163086
	C10747	C	0.836658	0.752124	0.149194
	C10748	C	0.797864	0.753764	0.143897
	C10749	C	0.794603	0.691847	0.148223
	C10750	C	0.834921	0.689988	0.153899
	C10751	C	0.835113	0.814499	0.153872
	C10752	C	0.795011	0.815754	0.148343
	C10753	C	0.830276	0.752569	0.167796
	C10754	C	0.798900	0.753300	0.244403
	C10755	C	0.809888	0.691105	0.231179
	C10756	C	0.809847	0.815167	0.231132
	C10757	C	0.806722	0.753231	0.235498
	C10758	C	0.777251	0.462663	0.253562
	C10759	C	0.828181	0.462140	0.121205
	C10760	C	0.773690	0.462552	0.258788
	C10761	C	0.777253	0.543444	0.253586
	C10762	C	0.773742	0.543529	0.258806
	C10763	C	0.828163	0.543274	0.121190
	C10764	C	0.798963	0.253203	0.244429
	C10765	C	0.809816	0.191109	0.231160
	C10766	C	0.809877	0.314938	0.231152
	C10767	C	0.806732	0.253034	0.235514
	C10768	C	0.825796	0.043079	0.124060
	C10769	C	0.838572	0.253336	0.138945
	C10770	C	0.805666	0.252507	0.135011
	C10771	C	0.765905	0.253058	0.240448
	C10772	C	0.831970	0.191128	0.163083
	C10773	C	0.831855	0.315512	0.163057
	C10774	C	0.836655	0.253176	0.149158
	C10775	C	0.797852	0.252250	0.143921
	C10776	C	0.767742	0.753110	0.230250
	C10777	C	0.769375	0.815209	0.225559
	C10778	C	0.769417	0.690945	0.225566
	C10779	C	0.767832	0.252828	0.230231
	C10780	C	0.769437	0.315001	0.225528
	C10781	C	0.769424	0.190630	0.225546
	C10782	C	0.794966	0.190237	0.148352
	C10783	C	0.835078	0.191008	0.153872
	C10784	C	0.834978	0.315414	0.153847
	C10785	C	0.794594	0.314151	0.148247
	C10786	C	0.830242	0.253330	0.167762
	C10787	C	0.774054	0.043307	0.257551
	C10788	C	0.824421	0.043337	0.121299
	C10789	C	0.825815	0.962425	0.124078
	C10790	C	0.774067	0.962455	0.257525
	C10791	C	0.824446	0.962187	0.121303
	N10792	N	0.763795	0.070160	0.185027
	N10793	N	0.763747	0.935549	0.185003
	N10794	N	0.763941	0.435517	0.184989
	N10795	N	0.763931	0.570173	0.184970
	N10796	N	0.778028	0.435694	0.256891
	N10797	N	0.778090	0.570303	0.256908
	N10798	N	0.778111	0.070206	0.256890
	N10799	N	0.778129	0.935664	0.256904
	O10800	O	0.851941	0.695240	0.303651
	O10801	O	0.851987	0.811251	0.303686
	O10802	O	0.733138	0.695055	0.329666
	O10803	O	0.733340	0.811236	0.329575
	O10804	O	0.733350	0.195179	0.329586
	O10805	O	0.733261	0.311587	0.329681
	O10806	O	0.732856	0.694347	0.310092
	O10807	O	0.733024	0.811135	0.310153
	O10808	O	0.733040	0.195121	0.310151
	O10809	O	0.733024	0.311924	0.310191
	O10810	O	0.856994	0.694813	0.324118
	O10811	O	0.857097	0.810583	0.324181
	O10812	O	0.857011	0.194884	0.324163
	O10813	O	0.857037	0.310893	0.324159
	O10814	O	0.852180	0.194958	0.303646
	O10815	O	0.852105	0.311056	0.303663
	O10816	O	0.795765	0.695259	0.267116
	O10817	O	0.764981	0.695027	0.267660
	O10818	O	0.820972	0.694729	0.365035
	O10819	O	0.820779	0.810345	0.364955
	O10820	O	0.789534	0.694867	0.366171
	O10821	O	0.789544	0.810752	0.366155
	O10822	O	0.764966	0.811415	0.267679
	O10823	O	0.795832	0.811505	0.267059
	O10824	O	0.795782	0.195011	0.267151
	O10825	O	0.764980	0.195034	0.267656
	O10826	O	0.820827	0.194454	0.365027
	O10827	O	0.820883	0.310535	0.365018
	O10828	O	0.789558	0.195044	0.366161
	O10829	O	0.789615	0.311276	0.366183
	O10830	O	0.764813	0.311500	0.267591
	O10831	O	0.795879	0.311191	0.267085
	H10832	H	0.751195	0.644449	0.341344
	H10833	H	0.751404	0.861425	0.341304
	H10834	H	0.751442	0.144845	0.341234
	H10835	H	0.751166	0.361684	0.341440
	H10836	H	0.745123	0.862552	0.297115
	H10837	H	0.744790	0.643194	0.297013
	H10838	H	0.744908	0.362794	0.297062
	H10839	H	0.745124	0.144134	0.297105
	H10840	H	0.868517	0.064822	0.313347
	H10841	H	0.869131	0.064827	0.314182
	H10842	H	0.869140	0.940897	0.314188
	H10843	H	0.868468	0.941564	0.313366
	H10844	H	0.869630	0.064612	0.312406
	H10845	H	0.869598	0.941500	0.312392
	H10846	H	0.709597	0.064725	0.320558
	H10847	H	0.709606	0.940872	0.320448
	H10848	H	0.713567	0.064250	0.322985
	H10849	H	0.713490	0.941606	0.322933
	H10850	H	0.720830	0.064604	0.322113
	H10851	H	0.720821	0.941541	0.322134
	H10852	H	0.723779	0.440983	0.317622
	H10853	H	0.718144	0.441326	0.314391
	H10854	H	0.721791	0.441263	0.323476
	H10855	H	0.872565	0.441491	0.311512
	H10856	H	0.874051	0.441136	0.314198
	H10857	H	0.871782	0.441535	0.315618
	H10858	H	0.718168	0.564620	0.314410
	H10859	H	0.723806	0.565031	0.317612
	H10860	H	0.871790	0.564755	0.315601
	H10861	H	0.874015	0.564763	0.314178
	H10862	H	0.872533	0.564395	0.311518
	H10863	H	0.721761	0.564757	0.323506
	H10864	H	0.845564	0.644553	0.337242
	H10865	H	0.845295	0.860409	0.337159
	H10866	H	0.845266	0.144808	0.337155
	H10867	H	0.845316	0.360811	0.337164
	H10868	H	0.755630	0.643412	0.281559
	H10869	H	0.813814	0.644863	0.278763
	H10870	H	0.813827	0.862373	0.278822
	H10871	H	0.755899	0.862561	0.281672
	H10872	H	0.833855	0.644830	0.291975
	H10873	H	0.833851	0.862086	0.292020
	H10874	H	0.832687	0.644736	0.352022
	H10875	H	0.832409	0.860189	0.351921
	H10876	H	0.780433	0.441446	0.252210
	H10877	H	0.811730	0.441181	0.374228
	H10878	H	0.786407	0.441400	0.256977
	H10879	H	0.783883	0.441397	0.260811
	H10880	H	0.803161	0.441939	0.374470
	H10881	H	0.806342	0.441708	0.372960
	H10882	H	0.811845	0.564882	0.374261
	H10883	H	0.780492	0.564828	0.252265
	H10884	H	0.806333	0.564671	0.372929
	H10885	H	0.803219	0.564865	0.374448
	H10886	H	0.783958	0.564736	0.260786
	H10887	H	0.786487	0.564689	0.256921
	H10888	H	0.832476	0.144494	0.351964
	H10889	H	0.832540	0.360431	0.351974
	H10890	H	0.781890	0.064684	0.253976
	H10891	H	0.776625	0.064769	0.253087
	H10892	H	0.784325	0.064296	0.258216
	H10893	H	0.771421	0.861057	0.354516
	H10894	H	0.771265	0.644503	0.354554
	H10895	H	0.771211	0.361650	0.354639
	H10896	H	0.771493	0.144651	0.354440
	H10897	H	0.755797	0.143879	0.281642
	H10898	H	0.814032	0.144729	0.278780
	H10899	H	0.813992	0.361580	0.278803
	H10900	H	0.755568	0.362800	0.281571
	H10901	H	0.834020	0.144807	0.292000
	H10902	H	0.834017	0.361472	0.292009
	H10903	H	0.808000	0.064354	0.377010
	H10904	H	0.809322	0.064685	0.376515
	H10905	H	0.809135	0.064889	0.375220
	H10906	H	0.776696	0.941164	0.253128
	H10907	H	0.781966	0.941378	0.253998
	H10908	H	0.784324	0.941018	0.258271
	H10909	H	0.808011	0.941409	0.376976
	H10910	H	0.809278	0.941208	0.376502
	H10911	H	0.809150	0.941314	0.375183
	Zn10912	Zn	0.715653	0.680676	0.319355
	Zn10913	Zn	0.715746	0.825384	0.319369
	Zn10914	Zn	0.715762	0.180621	0.319389
	Zn10915	Zn	0.715693	0.325451	0.319403
	Zn10916	Zn	0.807832	0.680437	0.375834
	Zn10917	Zn	0.807690	0.825787	0.375798
	Zn10918	Zn	0.807756	0.180205	0.375886
	Zn10919	Zn	0.807717	0.325806	0.375867
	C10920	C	0.847214	0.753316	0.300665
	C10921	C	0.738005	0.753092	0.332616
	C10922	C	0.750141	0.752886	0.340510
	C10923	C	0.755707	0.691507	0.344274
	C10924	C	0.755811	0.814166	0.344250
	C10925	C	0.738103	0.253354	0.332610
	C10926	C	0.750299	0.253303	0.340478
	C10927	C	0.755928	0.191833	0.344193
	C10928	C	0.755755	0.314556	0.344314
	C10929	C	0.736404	0.752768	0.306852
	C10930	C	0.744264	0.752861	0.297983
	C10931	C	0.747505	0.814997	0.293672
	C10932	C	0.747360	0.690790	0.293621
	C10933	C	0.736471	0.253602	0.306891
	C10934	C	0.744283	0.253476	0.297981
	C10935	C	0.747389	0.315421	0.293624
	C10936	C	0.747539	0.191546	0.293659
	C10937	C	0.869184	0.043427	0.313678
	C10938	C	0.869175	0.962535	0.313690
	C10939	C	0.712648	0.043389	0.321120
	C10940	C	0.712645	0.962562	0.321069
	C10941	C	0.719936	0.043503	0.320229
	C10942	C	0.719932	0.962519	0.320208
	C10943	C	0.719545	0.462684	0.316891
	C10944	C	0.870705	0.462668	0.311800
	C10945	C	0.872228	0.462530	0.314479
	C10946	C	0.719561	0.543545	0.316896
	C10947	C	0.872192	0.543425	0.314468
	C10948	C	0.870698	0.543259	0.311793
	C10949	C	0.853947	0.752639	0.327506
	C10950	C	0.853907	0.252921	0.327518
	C10951	C	0.846140	0.752488	0.336312
	C10952	C	0.842627	0.691353	0.340501
	C10953	C	0.842496	0.813582	0.340451
	C10954	C	0.845994	0.252784	0.336322
	C10955	C	0.842418	0.191531	0.340471
	C10956	C	0.842447	0.313908	0.340476
	C10957	C	0.847426	0.253011	0.300639
	C10958	C	0.800573	0.753457	0.270079
	C10959	C	0.762486	0.753154	0.271280
	C10960	C	0.784790	0.752739	0.363142
	C10961	C	0.829360	0.692004	0.289053
	C10962	C	0.829371	0.814970	0.289082
	C10963	C	0.812693	0.753631	0.277974
	C10964	C	0.756160	0.752968	0.280626
	C10965	C	0.753293	0.690921	0.285029
	C10966	C	0.818267	0.692066	0.281712
	C10967	C	0.818278	0.815146	0.281745
	C10968	C	0.753433	0.814988	0.285085
	C10969	C	0.835031	0.753445	0.292796
	C10970	C	0.824015	0.752486	0.361636
	C10971	C	0.835553	0.691327	0.348714
	C10972	C	0.835424	0.813525	0.348663
	C10973	C	0.831928	0.752422	0.352841
	C10974	C	0.811029	0.462440	0.375593
	C10975	C	0.783274	0.462710	0.258347
	C10976	C	0.805555	0.463039	0.374280
	C10977	C	0.811074	0.543520	0.375579
	C10978	C	0.805595	0.543607	0.374257
	C10979	C	0.783299	0.543513	0.258349
	C10980	C	0.823918	0.252445	0.361654
	C10981	C	0.835347	0.191390	0.348689
	C10982	C	0.835393	0.313681	0.348693
	C10983	C	0.831812	0.252464	0.352858
	C10984	C	0.778954	0.043421	0.254424
	C10985	C	0.800615	0.253109	0.270115
	C10986	C	0.762344	0.253320	0.271225
	C10987	C	0.784859	0.253228	0.363152
	C10988	C	0.829600	0.191817	0.289035
	C10989	C	0.829581	0.314555	0.289039
	C10990	C	0.812828	0.253122	0.277974
	C10991	C	0.756057	0.253363	0.280568
	C10992	C	0.772572	0.752713	0.355290
	C10993	C	0.766923	0.814064	0.351573
	C10994	C	0.766830	0.691432	0.351598
	C10995	C	0.772716	0.253303	0.355256
	C10996	C	0.766894	0.314649	0.351631
	C10997	C	0.767047	0.191847	0.351520
	C10998	C	0.753379	0.191511	0.285047
	C10999	C	0.818484	0.191830	0.281717
	C11000	C	0.818449	0.314473	0.281723
	C11001	C	0.753229	0.315287	0.285009
	C11002	C	0.835285	0.253109	0.292740
	C11003	C	0.808399	0.043267	0.376516
	C11004	C	0.781368	0.043265	0.258725
	C11005	C	0.778978	0.962476	0.254429
	C11006	C	0.808390	0.962563	0.376503
	C11007	C	0.781357	0.962507	0.258730
	N11008	N	0.715673	0.070409	0.319413
	N11009	N	0.715692	0.935787	0.319373
	N11010	N	0.715590	0.435781	0.319401
	N11011	N	0.715566	0.570407	0.319404
	N11012	N	0.807748	0.435940	0.375848
	N11013	N	0.807818	0.570451	0.375850
	N11014	N	0.807699	0.070220	0.375878
	N11015	N	0.807655	0.935711	0.375855
	O11016	O	0.882411	0.695581	0.421977
	O11017	O	0.882481	0.811809	0.421971
	O11018	O	0.763257	0.694992	0.447979
	O11019	O	0.763271	0.811100	0.448020
	O11020	O	0.763341	0.194440	0.448008
	O11021	O	0.763260	0.310424	0.448009
	O11022	O	0.758438	0.695174	0.427508
	O11023	O	0.758447	0.811018	0.427534
	O11024	O	0.758210	0.195084	0.427526
	O11025	O	0.758361	0.311029	0.427564
	O11026	O	0.882730	0.694808	0.441389
	O11027	O	0.882862	0.811600	0.441463
	O11028	O	0.882722	0.194208	0.441361
	O11029	O	0.882629	0.310988	0.441332
	O11030	O	0.882432	0.194829	0.421971
	O11031	O	0.882391	0.311100	0.421992
	O11032	O	0.825853	0.695171	0.385567
	O11033	O	0.794422	0.695195	0.386564
	O11034	O	0.850742	0.694577	0.483916
	O11035	O	0.850766	0.811010	0.483931
	O11036	O	0.819880	0.694590	0.484351
	O11037	O	0.819811	0.810746	0.484360
	O11038	O	0.794732	0.811059	0.386706
	O11039	O	0.825841	0.811307	0.385512
	O11040	O	0.825834	0.195006	0.385584
	O11041	O	0.794510	0.194995	0.386684
	O11042	O	0.850545	0.194215	0.483835
	O11043	O	0.850651	0.310579	0.483853
	O11044	O	0.819750	0.194630	0.484454
	O11045	O	0.819730	0.310772	0.484466
	O11046	O	0.794543	0.311238	0.386727
	O11047	O	0.825963	0.311058	0.385478
	H11048	H	0.781300	0.644600	0.459609
	H11049	H	0.781443	0.861194	0.459650
	H11050	H	0.781527	0.144177	0.459673
	H11051	H	0.781517	0.360672	0.459584
	H11052	H	0.770141	0.861136	0.414508
	H11053	H	0.770060	0.645351	0.414450
	H11054	H	0.769953	0.361527	0.414497
	H11055	H	0.769914	0.145011	0.414486
	H11056	H	0.899135	0.064508	0.431837
	H11057	H	0.899069	0.064350	0.432392
	H11058	H	0.899046	0.941253	0.432361
	H11059	H	0.899133	0.941130	0.431787
	H11060	H	0.900187	0.064661	0.431589
	H11061	H	0.900216	0.941260	0.431597
	H11062	H	0.747312	0.064749	0.436747
	H11063	H	0.747337	0.941443	0.436724
	H11064	H	0.744337	0.064714	0.436186
	H11065	H	0.744367	0.941112	0.436140
	H11066	H	0.741443	0.064196	0.437804
	H11067	H	0.741416	0.940997	0.437798
	H11068	H	0.743214	0.440773	0.435648
	H11069	H	0.740485	0.441489	0.437322
	H11070	H	0.748582	0.440888	0.436525
	H11071	H	0.896448	0.441347	0.430176
	H11072	H	0.901683	0.441463	0.429713
	H11073	H	0.904354	0.440872	0.431495
	H11074	H	0.740502	0.564161	0.437309
	H11075	H	0.743165	0.564371	0.435634
	H11076	H	0.904364	0.564492	0.431469
	H11077	H	0.901687	0.564898	0.429649
	H11078	H	0.896405	0.564714	0.430156
	H11079	H	0.748727	0.564913	0.436513
	H11080	H	0.870877	0.643204	0.454519
	H11081	H	0.870754	0.862801	0.454505
	H11082	H	0.870626	0.142958	0.454406
	H11083	H	0.870640	0.362206	0.454422
	H11084	H	0.782860	0.645517	0.399633
	H11085	H	0.843951	0.645068	0.397260
	H11086	H	0.844121	0.862007	0.397121
	H11087	H	0.782918	0.861048	0.399682
	H11088	H	0.864165	0.645193	0.410422
	H11089	H	0.864226	0.862480	0.410295
	H11090	H	0.860219	0.643285	0.470002
	H11091	H	0.860089	0.862556	0.469985
	H11092	H	0.812576	0.441032	0.376737
	H11093	H	0.835009	0.441064	0.492353
	H11094	H	0.808324	0.441126	0.378851
	H11095	H	0.804416	0.441406	0.377871
	H11096	H	0.835511	0.440778	0.496870
	H11097	H	0.833223	0.440978	0.495040
	H11098	H	0.834997	0.564457	0.492369
	H11099	H	0.812674	0.564885	0.376721
	H11100	H	0.833121	0.564043	0.495052
	H11101	H	0.835519	0.564496	0.496902
	H11102	H	0.804408	0.564708	0.377861
	H11103	H	0.808426	0.564409	0.378838
	H11104	H	0.859846	0.142754	0.469852
	H11105	H	0.859842	0.361982	0.469892
	H11106	H	0.805908	0.064758	0.375381
	H11107	H	0.805967	0.064591	0.376339
	H11108	H	0.807740	0.064710	0.374742
	H11109	H	0.801597	0.860990	0.472802
	H11110	H	0.801440	0.644106	0.472729
	H11111	H	0.801676	0.361071	0.472724
	H11112	H	0.801669	0.144316	0.472818
	H11113	H	0.782634	0.145030	0.399662
	H11114	H	0.844246	0.144441	0.397107
	H11115	H	0.844190	0.361639	0.397132
	H11116	H	0.782744	0.361365	0.399699
	H11117	H	0.864406	0.144473	0.410225
	H11118	H	0.864368	0.361236	0.410284
	H11119	H	0.840068	0.064605	0.492085
	H11120	H	0.835765	0.064859	0.491648
	H11121	H	0.832246	0.064447	0.494317
	H11122	H	0.805988	0.941450	0.376345
	H11123	H	0.805809	0.941027	0.375377
	H11124	H	0.807668	0.941074	0.374704
	H11125	H	0.839984	0.940938	0.492054
	H11126	H	0.835705	0.941376	0.491619
	H11127	H	0.832234	0.941200	0.494317
	Zn11128	Zn	0.745165	0.680289	0.438293
	Zn11129	Zn	0.745067	0.825585	0.438321
	Zn11130	Zn	0.745110	0.180302	0.438349
	Zn11131	Zn	0.745116	0.325612	0.438373
	Zn11132	Zn	0.837395	0.680458	0.494643
	Zn11133	Zn	0.837362	0.825226	0.494583
	Zn11134	Zn	0.837397	0.180332	0.494662
	Zn11135	Zn	0.837458	0.325261	0.494620
	C11136	C	0.877656	0.753771	0.418986
	C11137	C	0.768017	0.753003	0.451002
	C11138	C	0.780270	0.752895	0.458824
	C11139	C	0.785888	0.691493	0.462520
	C11140	C	0.785974	0.814136	0.462549
	C11141	C	0.768105	0.252450	0.450992
	C11142	C	0.780377	0.252468	0.458804
	C11143	C	0.786034	0.191261	0.462567
	C11144	C	0.786024	0.313766	0.462525
	C11145	C	0.761566	0.753140	0.424167
	C11146	C	0.769368	0.753137	0.415342
	C11147	C	0.772958	0.814346	0.411187
	C11148	C	0.772904	0.692117	0.411155
	C11149	C	0.761378	0.253083	0.424178
	C11150	C	0.769294	0.253229	0.415403
	C11151	C	0.772856	0.314508	0.411231
	C11152	C	0.772783	0.191996	0.411208
	C11153	C	0.899367	0.043204	0.432149
	C11154	C	0.899383	0.962492	0.432119
	C11155	C	0.745606	0.043469	0.436956
	C11156	C	0.745616	0.962621	0.436945
	C11157	C	0.742686	0.043114	0.438620
	C11158	C	0.742678	0.962341	0.438618
	C11159	C	0.742694	0.462568	0.436965
	C11160	C	0.897009	0.462689	0.431518
	C11161	C	0.902253	0.462480	0.431006
	C11162	C	0.742708	0.543199	0.436950
	C11163	C	0.902268	0.543370	0.430985
	C11164	C	0.896988	0.543515	0.431491
	C11165	C	0.879283	0.753144	0.444668
	C11166	C	0.879225	0.252593	0.444621
	C11167	C	0.871395	0.752966	0.453537
	C11168	C	0.868341	0.690890	0.457913
	C11169	C	0.868285	0.815031	0.457912
	C11170	C	0.871296	0.252575	0.453487
	C11171	C	0.868147	0.190549	0.457832
	C11172	C	0.868151	0.314512	0.457848
	C11173	C	0.877644	0.252950	0.418979
	C11174	C	0.830623	0.753328	0.388538
	C11175	C	0.791473	0.753099	0.389996
	C11176	C	0.815010	0.752603	0.481386
	C11177	C	0.859717	0.692300	0.407438
	C11178	C	0.859791	0.815193	0.407358
	C11179	C	0.842887	0.753475	0.396387
	C11180	C	0.783533	0.753175	0.398789
	C11181	C	0.779971	0.692162	0.402937
	C11182	C	0.848506	0.692189	0.400152
	C11183	C	0.848596	0.814947	0.400072
	C11184	C	0.780021	0.814292	0.402964
	C11185	C	0.865470	0.753795	0.411103
	C11186	C	0.853286	0.752800	0.480304
	C11187	C	0.862458	0.690885	0.466521
	C11188	C	0.862397	0.814928	0.466517
	C11189	C	0.859570	0.752846	0.470949
	C11190	C	0.837044	0.462304	0.492874
	C11191	C	0.806736	0.462614	0.377691
	C11192	C	0.835212	0.462385	0.495602
	C11193	C	0.837049	0.543365	0.492863
	C11194	C	0.835202	0.543155	0.495621
	C11195	C	0.806773	0.543442	0.377687
	C11196	C	0.853067	0.252366	0.480214
	C11197	C	0.862233	0.190432	0.466428
	C11198	C	0.862230	0.314388	0.466449
	C11199	C	0.859453	0.252349	0.470888
	C11200	C	0.806402	0.043360	0.375850
	C11201	C	0.830677	0.253119	0.388530
	C11202	C	0.791412	0.253096	0.390066
	C11203	C	0.815010	0.252724	0.481453
	C11204	C	0.859857	0.191555	0.407343
	C11205	C	0.859829	0.314219	0.407371
	C11206	C	0.842949	0.253138	0.396344
	C11207	C	0.783524	0.253183	0.398870
	C11208	C	0.802811	0.752561	0.473534
	C11209	C	0.797162	0.813973	0.469837
	C11210	C	0.797076	0.691308	0.469801
	C11211	C	0.802842	0.252713	0.473566
	C11212	C	0.797177	0.313928	0.469832
	C11213	C	0.797179	0.191333	0.469878
	C11214	C	0.779896	0.191931	0.403002
	C11215	C	0.848691	0.191697	0.400045
	C11216	C	0.848658	0.314336	0.400067
	C11217	C	0.779962	0.314531	0.403022
	C11218	C	0.865446	0.252908	0.411113
	C11219	C	0.837809	0.043424	0.492575
	C11220	C	0.808226	0.043588	0.375200
	C11221	C	0.806390	0.962480	0.375850
	C11222	C	0.837772	0.962484	0.492552
	C11223	C	0.808198	0.962667	0.375180
	N11224	N	0.745035	0.070224	0.438312
	N11225	N	0.745054	0.935668	0.438316
	N11226	N	0.745086	0.435705	0.438360
	N11227	N	0.745137	0.570232	0.438344
	N11228	N	0.837534	0.435674	0.494611
	N11229	N	0.837524	0.570245	0.494635
	N11230	N	0.837463	0.069934	0.494621
	N11231	N	0.837460	0.935334	0.494599
	O11232	O	0.839359	0.694955	0.554076
	O11233	O	0.839356	0.811737	0.554102
	O11234	O	0.787445	0.694662	0.569516
	O11235	O	0.787324	0.811597	0.569517
	O11236	O	0.787370	0.194745	0.569492
	O11237	O	0.787359	0.311576	0.569538
	O11238	O	0.787971	0.694465	0.546283
	O11239	O	0.788093	0.810965	0.546352
	O11240	O	0.788172	0.195255	0.546368
	O11241	O	0.788045	0.311615	0.546353
	O11242	O	0.838895	0.694667	0.577301
	O11243	O	0.838857	0.811091	0.577288
	O11244	O	0.838735	0.194494	0.577329
	O11245	O	0.838716	0.310936	0.577316
	O11246	O	0.839281	0.194469	0.554119
	O11247	O	0.839434	0.311267	0.554114
	O11248	O	0.849971	0.694866	0.507015
	O11249	O	0.820207	0.694501	0.503860
	O11250	O	0.806555	0.694684	0.619714
	O11251	O	0.806663	0.811451	0.619745
	O11252	O	0.776887	0.694778	0.616526
	O11253	O	0.776743	0.811641	0.616580
	O11254	O	0.820157	0.811142	0.503815
	O11255	O	0.849991	0.811681	0.507065
	O11256	O	0.850002	0.194418	0.507073
	O11257	O	0.820098	0.194817	0.503859
	O11258	O	0.806631	0.194624	0.619797
	O11259	O	0.806598	0.311417	0.619769
	O11260	O	0.776893	0.194702	0.616568
	O11261	O	0.776749	0.311329	0.616584
	O11262	O	0.820209	0.311523	0.503848
	O11263	O	0.850024	0.311213	0.507075
	H11264	H	0.784690	0.643343	0.584725
	H11265	H	0.784880	0.862967	0.584711
	H11266	H	0.784702	0.143127	0.584721
	H11267	H	0.784847	0.362867	0.584754
	H11268	H	0.797623	0.862539	0.532430
	H11269	H	0.797497	0.643276	0.532410
	H11270	H	0.797532	0.363000	0.532389
	H11271	H	0.797426	0.144016	0.532402
	H11272	H	0.852112	0.065183	0.568828
	H11273	H	0.855058	0.064474	0.568067
	H11274	H	0.854998	0.941396	0.568108
	H11275	H	0.852128	0.941119	0.568851
	H11276	H	0.848385	0.064620	0.567263
	H11277	H	0.848338	0.940740	0.567224
	H11278	H	0.776179	0.064510	0.559196
	H11279	H	0.776089	0.941060	0.559144
	H11280	H	0.778353	0.063970	0.558011
	H11281	H	0.778266	0.940840	0.557959
	H11282	H	0.777189	0.064707	0.555432
	H11283	H	0.777154	0.941148	0.555516
	H11284	H	0.771308	0.441249	0.555622
	H11285	H	0.770915	0.440877	0.557710
	H11286	H	0.775572	0.441566	0.554724
	H11287	H	0.855104	0.441015	0.570452
	H11288	H	0.847183	0.441043	0.569393
	H11289	H	0.844921	0.441364	0.566092
	H11290	H	0.771008	0.564759	0.557736
	H11291	H	0.771408	0.564706	0.555663
	H11292	H	0.844936	0.564486	0.566016
	H11293	H	0.847059	0.564804	0.569341
	H11294	H	0.855043	0.564604	0.570395
	H11295	H	0.775745	0.564284	0.554797
	H11296	H	0.829758	0.643414	0.591290
	H11297	H	0.829509	0.862474	0.591211
	H11298	H	0.829532	0.143480	0.591303
	H11299	H	0.829208	0.362311	0.591219
	H11300	H	0.808187	0.643237	0.516943
	H11301	H	0.847114	0.643467	0.522219
	H11302	H	0.847458	0.863348	0.522299
	H11303	H	0.808383	0.862529	0.516971
	H11304	H	0.841782	0.643457	0.538836
	H11305	H	0.842138	0.863375	0.538927
	H11306	H	0.818860	0.643215	0.606716
	H11307	H	0.818656	0.862867	0.606630
	H11308	H	0.838653	0.440996	0.492121
	H11309	H	0.784328	0.440986	0.631058
	H11310	H	0.841806	0.441248	0.494630
	H11311	H	0.840523	0.441130	0.496609
	H11312	H	0.795243	0.441517	0.630717
	H11313	H	0.791325	0.441590	0.632723
	H11314	H	0.784295	0.564810	0.631038
	H11315	H	0.838604	0.564907	0.492110
	H11316	H	0.791285	0.565176	0.632696
	H11317	H	0.795123	0.565053	0.630662
	H11318	H	0.840478	0.564510	0.496626
	H11319	H	0.841857	0.564467	0.494639
	H11320	H	0.818773	0.143319	0.606772
	H11321	H	0.818468	0.362284	0.606652
	H11322	H	0.839934	0.064891	0.497422
	H11323	H	0.842495	0.064659	0.495440
	H11324	H	0.833992	0.064424	0.496800
	H11325	H	0.779525	0.863283	0.601352
	H11326	H	0.779364	0.643566	0.601323
	H11327	H	0.779600	0.363031	0.601388
	H11328	H	0.779517	0.142997	0.601357
	H11329	H	0.808217	0.144024	0.516964
	H11330	H	0.847280	0.143075	0.522274
	H11331	H	0.847483	0.362742	0.522279
	H11332	H	0.808292	0.362816	0.516933
	H11333	H	0.841959	0.143113	0.538901
	H11334	H	0.842144	0.362942	0.538893
	H11335	H	0.793816	0.064392	0.630361
	H11336	H	0.793685	0.064839	0.627912
	H11337	H	0.788808	0.064913	0.626183
	H11338	H	0.842467	0.940863	0.495382
	H11339	H	0.839926	0.941394	0.497335
	H11340	H	0.834043	0.941145	0.496792
	H11341	H	0.793832	0.942038	0.630319
	H11342	H	0.793676	0.941495	0.627909
	H11343	H	0.788763	0.941191	0.626162
	Zn11344	Zn	0.774886	0.680209	0.557116
	Zn11345	Zn	0.774764	0.825247	0.557109
	Zn11346	Zn	0.774841	0.180392	0.557099
	Zn11347	Zn	0.774648	0.325303	0.557084
	Zn11348	Zn	0.789314	0.680427	0.628964
	Zn11349	Zn	0.789398	0.825501	0.628975
	Zn11350	Zn	0.789400	0.180571	0.629011
	Zn11351	Zn	0.789412	0.325416	0.629015
	C11352	C	0.839582	0.753432	0.550074
	C11353	C	0.787168	0.753100	0.573525
	C11354	C	0.785299	0.753190	0.583729
	C11355	C	0.783615	0.691096	0.588421
	C11356	C	0.783734	0.815375	0.588432
	C11357	C	0.787159	0.253057	0.573524
	C11358	C	0.785279	0.252991	0.583727
	C11359	C	0.783676	0.190886	0.588435
	C11360	C	0.783710	0.315140	0.588445
	C11361	C	0.790618	0.752799	0.542723
	C11362	C	0.796997	0.752924	0.533395
	C11363	C	0.799905	0.814839	0.528973
	C11364	C	0.799840	0.690987	0.528967
	C11365	C	0.790687	0.253485	0.542760
	C11366	C	0.797064	0.253549	0.533421
	C11367	C	0.799874	0.315391	0.528967
	C11368	C	0.799836	0.191640	0.528979
	C11369	C	0.853124	0.043442	0.567947
	C11370	C	0.853097	0.962543	0.567951
	C11371	C	0.776642	0.043124	0.558199
	C11372	C	0.776594	0.962414	0.558193
	C11373	C	0.775496	0.043455	0.555679
	C11374	C	0.775469	0.962432	0.555714
	C11375	C	0.772123	0.462297	0.556797
	C11376	C	0.855521	0.462631	0.568442
	C11377	C	0.847524	0.462643	0.567420
	C11378	C	0.772214	0.543410	0.556797
	C11379	C	0.847519	0.543348	0.567381
	C11380	C	0.855507	0.543199	0.568418
	C11381	C	0.836401	0.752877	0.580924
	C11382	C	0.836182	0.252707	0.580926
	C11383	C	0.830030	0.752931	0.590275
	C11384	C	0.827256	0.690953	0.594718
	C11385	C	0.827118	0.814995	0.594669
	C11386	C	0.829823	0.252765	0.590255
	C11387	C	0.827086	0.190997	0.594720
	C11388	C	0.826919	0.314665	0.594665
	C11389	C	0.839594	0.252853	0.550108
	C11390	C	0.849727	0.753256	0.511045
	C11391	C	0.816748	0.752875	0.507126
	C11392	C	0.777032	0.753336	0.612543
	C11393	C	0.843025	0.691222	0.535152
	C11394	C	0.843212	0.815594	0.535206
	C11395	C	0.847762	0.753367	0.521238
	C11396	C	0.808906	0.752885	0.516013
	C11397	C	0.805746	0.690965	0.520370
	C11398	C	0.846050	0.691281	0.525927
	C11399	C	0.846256	0.815545	0.525978
	C11400	C	0.805823	0.814886	0.520372
	C11401	C	0.841508	0.753380	0.539876
	C11402	C	0.810130	0.753022	0.616485
	C11403	C	0.821293	0.691014	0.603299
	C11404	C	0.821169	0.815053	0.603257
	C11405	C	0.818052	0.753039	0.607631
	C11406	C	0.785227	0.462447	0.629383
	C11407	C	0.840217	0.462375	0.495357
	C11408	C	0.792216	0.462629	0.630997
	C11409	C	0.785206	0.543503	0.629359
	C11410	C	0.792184	0.543459	0.630967
	C11411	C	0.840229	0.543082	0.495363
	C11412	C	0.810095	0.252951	0.616519
	C11413	C	0.821168	0.190909	0.603319
	C11414	C	0.821010	0.314712	0.603260
	C11415	C	0.817968	0.252777	0.607647
	C11416	C	0.840252	0.043177	0.495936
	C11417	C	0.849783	0.252809	0.511084
	C11418	C	0.816731	0.253244	0.507135
	C11419	C	0.777067	0.253042	0.612556
	C11420	C	0.843114	0.190940	0.535211
	C11421	C	0.843217	0.315100	0.535207
	C11422	C	0.847856	0.252937	0.521290
	C11423	C	0.808876	0.253395	0.516014
	C11424	C	0.778932	0.753432	0.602338
	C11425	C	0.780617	0.815507	0.597645
	C11426	C	0.780527	0.691232	0.597630
	C11427	C	0.778990	0.253071	0.602364
	C11428	C	0.780637	0.315191	0.597668
	C11429	C	0.780617	0.190906	0.597657
	C11430	C	0.805720	0.191532	0.520379
	C11431	C	0.846174	0.190888	0.525989
	C11432	C	0.846275	0.315053	0.525981
	C11433	C	0.805765	0.315313	0.520363
	C11434	C	0.841521	0.253036	0.539924
	C11435	C	0.792552	0.043290	0.629114
	C11436	C	0.834291	0.043185	0.495311
	C11437	C	0.840259	0.962359	0.495904
	C11438	C	0.792570	0.962772	0.629068
	C11439	C	0.834313	0.962438	0.495301
	N11440	N	0.774916	0.070248	0.557080
	N11441	N	0.774902	0.935619	0.557097
	N11442	N	0.774860	0.435504	0.557076
	N11443	N	0.774945	0.570043	0.557082
	N11444	N	0.789347	0.435688	0.629004
	N11445	N	0.789286	0.570255	0.628981
	N11446	N	0.789365	0.070263	0.629039
	N11447	N	0.789375	0.935660	0.629001
	O11448	O	0.864178	0.695219	0.675322
	O11449	O	0.864148	0.810871	0.675270
	O11450	O	0.744859	0.695271	0.701662
	O11451	O	0.744849	0.811389	0.701684
	O11452	O	0.744809	0.194891	0.701706
	O11453	O	0.744842	0.311167	0.701690
	O11454	O	0.744435	0.694502	0.682297
	O11455	O	0.744487	0.811250	0.682300
	O11456	O	0.744346	0.194380	0.682318
	O11457	O	0.744302	0.311162	0.682343
	O11458	O	0.869370	0.694997	0.695772
	O11459	O	0.869270	0.810838	0.695756
	O11460	O	0.869284	0.194885	0.695838
	O11461	O	0.869242	0.310856	0.695854
	O11462	O	0.864156	0.194848	0.675364
	O11463	O	0.863966	0.310875	0.675394
	O11464	O	0.807043	0.694858	0.639185
	O11465	O	0.776266	0.694540	0.639778
	O11466	O	0.833091	0.694738	0.736614
	O11467	O	0.833158	0.810830	0.736585
	O11468	O	0.801654	0.694959	0.737869
	O11469	O	0.801849	0.811001	0.737811
	O11470	O	0.776270	0.810916	0.639778
	O11471	O	0.807121	0.810779	0.639158
	O11472	O	0.807221	0.194473	0.639128
	O11473	O	0.776340	0.194634	0.639845
	O11474	O	0.833006	0.194768	0.736617
	O11475	O	0.833156	0.310405	0.736667
	O11476	O	0.801701	0.194639	0.737899
	O11477	O	0.801804	0.310414	0.737930
	O11478	O	0.776229	0.310996	0.639778
	O11479	O	0.807174	0.310769	0.639123
	H11480	H	0.762955	0.645239	0.713289
	H11481	H	0.762940	0.861418	0.713367
	H11482	H	0.763191	0.144956	0.713188
	H11483	H	0.763061	0.361042	0.713292
	H11484	H	0.756752	0.862179	0.669304
	H11485	H	0.756216	0.643253	0.669180
	H11486	H	0.756167	0.362515	0.669201
	H11487	H	0.756622	0.143637	0.669353
	H11488	H	0.886093	0.064841	0.683064
	H11489	H	0.882124	0.065054	0.681978
	H11490	H	0.882184	0.941440	0.681950
	H11491	H	0.886079	0.941741	0.683077
	H11492	H	0.886922	0.064868	0.686471
	H11493	H	0.886922	0.941384	0.686518
	H11494	H	0.722948	0.064448	0.693845
	H11495	H	0.722908	0.940708	0.693777
	H11496	H	0.727532	0.064405	0.694974
	H11497	H	0.727503	0.940923	0.694999
	H11498	H	0.732665	0.064804	0.692742
	H11499	H	0.732737	0.941061	0.692709
	H11500	H	0.727602	0.440918	0.692740
	H11501	H	0.728839	0.441274	0.692151
	H11502	H	0.725475	0.440881	0.692097
	H11503	H	0.884487	0.441733	0.682017
	H11504	H	0.887933	0.441357	0.685445
	H11505	H	0.885633	0.441371	0.687849
	H11506	H	0.728996	0.564211	0.692124
	H11507	H	0.727665	0.564723	0.692735
	H11508	H	0.885720	0.564600	0.687798
	H11509	H	0.887973	0.564800	0.685461
	H11510	H	0.884602	0.565011	0.681960
	H11511	H	0.725582	0.564229	0.692109
	H11512	H	0.857774	0.644521	0.708826
	H11513	H	0.857604	0.860941	0.708773
	H11514	H	0.857427	0.145071	0.708784
	H11515	H	0.857528	0.359898	0.708829
	H11516	H	0.766821	0.643056	0.653710
	H11517	H	0.825501	0.645366	0.650708
	H11518	H	0.825279	0.860038	0.650820
	H11519	H	0.767374	0.862017	0.653810
	H11520	H	0.845871	0.645435	0.663741
	H11521	H	0.845615	0.860202	0.663829
	H11522	H	0.845021	0.644285	0.723633
	H11523	H	0.844836	0.860983	0.723589
	H11524	H	0.783248	0.440999	0.627928
	H11525	H	0.819568	0.441080	0.746550
	H11526	H	0.788579	0.441019	0.625221
	H11527	H	0.793680	0.441062	0.626472
	H11528	H	0.818772	0.441154	0.748141
	H11529	H	0.818380	0.440918	0.747308
	H11530	H	0.819561	0.564379	0.746555
	H11531	H	0.783166	0.564306	0.627926
	H11532	H	0.818354	0.564234	0.747306
	H11533	H	0.818886	0.564163	0.748128
	H11534	H	0.793571	0.564509	0.626408
	H11535	H	0.788633	0.564097	0.625217
	H11536	H	0.844699	0.145004	0.723621
	H11537	H	0.844841	0.359864	0.723674
	H11538	H	0.785533	0.064720	0.630564
	H11539	H	0.789112	0.064398	0.631855
	H11540	H	0.785364	0.064930	0.627286
	H11541	H	0.783302	0.861307	0.726418
	H11542	H	0.783293	0.645510	0.726328
	H11543	H	0.783336	0.361138	0.726387
	H11544	H	0.783477	0.144705	0.726272
	H11545	H	0.767286	0.143620	0.653894
	H11546	H	0.825537	0.144449	0.650696
	H11547	H	0.825601	0.361272	0.650619
	H11548	H	0.766867	0.362344	0.653729
	H11549	H	0.845738	0.144288	0.663773
	H11550	H	0.845861	0.361033	0.663720
	H11551	H	0.820589	0.065277	0.748683
	H11552	H	0.821898	0.064635	0.748019
	H11553	H	0.821378	0.063727	0.746623
	H11554	H	0.789182	0.941385	0.631833
	H11555	H	0.785569	0.940983	0.630548
	H11556	H	0.785371	0.941469	0.627291
	H11557	H	0.820704	0.941160	0.748639
	H11558	H	0.821925	0.941341	0.747978
	H11559	H	0.821336	0.940923	0.746522
	Zn11560	Zn	0.727222	0.679976	0.691557
	Zn11561	Zn	0.727164	0.825168	0.691473
	Zn11562	Zn	0.727089	0.180222	0.691543
	Zn11563	Zn	0.727053	0.325385	0.691517
	Zn11564	Zn	0.819951	0.679929	0.747477
	Zn11565	Zn	0.820008	0.825658	0.747441
	Zn11566	Zn	0.819964	0.179890	0.747497
	Zn11567	Zn	0.820076	0.325436	0.747501
	C11568	C	0.859290	0.752985	0.672347
	C11569	C	0.749660	0.753352	0.704633
	C11570	C	0.761892	0.753381	0.712479
	C11571	C	0.767520	0.692187	0.716184
	C11572	C	0.767538	0.814528	0.716234
	C11573	C	0.749643	0.253051	0.704666
	C11574	C	0.761939	0.253022	0.712473
	C11575	C	0.767689	0.191812	0.716141
	C11576	C	0.767617	0.314154	0.716200
	C11577	C	0.747955	0.752852	0.679044
	C11578	C	0.755839	0.752751	0.670171
	C11579	C	0.759075	0.814667	0.665846
	C11580	C	0.758793	0.690724	0.665785
	C11581	C	0.747803	0.252847	0.679075
	C11582	C	0.755748	0.253056	0.670210
	C11583	C	0.758752	0.314954	0.665820
	C11584	C	0.759005	0.191144	0.665904
	C11585	C	0.883669	0.043674	0.683156
	C11586	C	0.883684	0.962883	0.683138
	C11587	C	0.725645	0.043120	0.693654
	C11588	C	0.725659	0.962148	0.693643
	C11589	C	0.730846	0.043312	0.691301
	C11590	C	0.730877	0.962200	0.691298
	C11591	C	0.727927	0.462216	0.692201
	C11592	C	0.882185	0.462714	0.682729
	C11593	C	0.885584	0.462874	0.686194
	C11594	C	0.727980	0.543308	0.692209
	C11595	C	0.885656	0.543757	0.686182
	C11596	C	0.882285	0.543424	0.682699
	C11597	C	0.866198	0.752874	0.699120
	C11598	C	0.866145	0.252805	0.699195
	C11599	C	0.858265	0.752777	0.707900
	C11600	C	0.854829	0.691364	0.712102
	C11601	C	0.854730	0.814043	0.712071
	C11602	C	0.858218	0.252548	0.707967
	C11603	C	0.854651	0.191598	0.712116
	C11604	C	0.854710	0.313387	0.712137
	C11605	C	0.859221	0.252761	0.672412
	C11606	C	0.811898	0.752780	0.642152
	C11607	C	0.773807	0.752681	0.643407
	C11608	C	0.796911	0.753126	0.734883
	C11609	C	0.841242	0.692000	0.660877
	C11610	C	0.841086	0.813547	0.660932
	C11611	C	0.824145	0.752684	0.649968
	C11612	C	0.767587	0.752550	0.652766
	C11613	C	0.764635	0.690665	0.657177
	C11614	C	0.829954	0.692001	0.653643
	C11615	C	0.829821	0.813425	0.653694
	C11616	C	0.764938	0.814513	0.657240
	C11617	C	0.846864	0.752824	0.664615
	C11618	C	0.836238	0.752673	0.733245
	C11619	C	0.847751	0.691235	0.720313
	C11620	C	0.847653	0.813977	0.720279
	C11621	C	0.844104	0.752581	0.724449
	C11622	C	0.820155	0.462318	0.746877
	C11623	C	0.790650	0.462454	0.626661
	C11624	C	0.818990	0.462334	0.747657
	C11625	C	0.820107	0.543091	0.746869
	C11626	C	0.818999	0.543094	0.747658
	C11627	C	0.790598	0.543082	0.626655
	C11628	C	0.836154	0.252552	0.733269
	C11629	C	0.847544	0.191513	0.720317
	C11630	C	0.847611	0.313286	0.720338
	C11631	C	0.844019	0.252426	0.724480
	C11632	C	0.787811	0.043592	0.630628
	C11633	C	0.811960	0.252671	0.642118
	C11634	C	0.773799	0.252883	0.643438
	C11635	C	0.796956	0.252646	0.734918
	C11636	C	0.841224	0.191458	0.660894
	C11637	C	0.841273	0.314053	0.660853
	C11638	C	0.824236	0.252846	0.649944
	C11639	C	0.767546	0.253015	0.652800
	C11640	C	0.784543	0.753395	0.727126
	C11641	C	0.778782	0.814494	0.723482
	C11642	C	0.778766	0.692313	0.723435
	C11643	C	0.784628	0.252880	0.727127
	C11644	C	0.778859	0.314083	0.723460
	C11645	C	0.778937	0.191739	0.723397
	C11646	C	0.764891	0.191170	0.657303
	C11647	C	0.829980	0.191496	0.653636
	C11648	C	0.830030	0.314266	0.653591
	C11649	C	0.764634	0.314841	0.657214
	C11650	C	0.846882	0.252680	0.664629
	C11651	C	0.820907	0.043582	0.748114
	C11652	C	0.787648	0.043569	0.627313
	C11653	C	0.787840	0.962547	0.630604
	C11654	C	0.820963	0.962555	0.748088
	C11655	C	0.787650	0.962560	0.627298
	N11656	N	0.727007	0.070025	0.691505
	N11657	N	0.727026	0.935389	0.691485
	N11658	N	0.727070	0.435452	0.691527
	N11659	N	0.727155	0.569958	0.691543
	N11660	N	0.820012	0.435492	0.747469
	N11661	N	0.819977	0.569999	0.747456
	N11662	N	0.819963	0.070134	0.747465
	N11663	N	0.820005	0.935709	0.747431
	O11664	O	0.894883	0.694880	0.793461
	O11665	O	0.894991	0.811018	0.793419
	O11666	O	0.775676	0.694587	0.819660
	O11667	O	0.775584	0.810745	0.819691
	O11668	O	0.775637	0.194395	0.819594
	O11669	O	0.775675	0.310443	0.819600
	O11670	O	0.770717	0.695627	0.799210
	O11671	O	0.770607	0.811474	0.799167
	O11672	O	0.770475	0.194966	0.799050
	O11673	O	0.770669	0.310796	0.799180
	O11674	O	0.895224	0.694965	0.812872
	O11675	O	0.895341	0.811807	0.812908
	O11676	O	0.895296	0.194739	0.812883
	O11677	O	0.895295	0.311478	0.812930
	O11678	O	0.894851	0.194090	0.793544
	O11679	O	0.894888	0.310421	0.793494
	O11680	O	0.838197	0.694875	0.757132
	O11681	O	0.806805	0.694964	0.758295
	O11682	O	0.863237	0.695017	0.855360
	O11683	O	0.863147	0.811434	0.855347
	O11684	O	0.832320	0.694022	0.855977
	O11685	O	0.832336	0.810127	0.855928
	O11686	O	0.806767	0.811112	0.758274
	O11687	O	0.838115	0.811036	0.757171
	O11688	O	0.838229	0.194409	0.757141
	O11689	O	0.806943	0.194909	0.758343
	O11690	O	0.863164	0.194937	0.855342
	O11691	O	0.863079	0.311133	0.855316
	O11692	O	0.832332	0.194176	0.855992
	O11693	O	0.832296	0.310216	0.855933
	O11694	O	0.807111	0.310717	0.758392
	O11695	O	0.838282	0.310247	0.757139
	H11696	H	0.793960	0.644137	0.831197
	H11697	H	0.793836	0.860244	0.831272
	H11698	H	0.793970	0.143727	0.831184
	H11699	H	0.793903	0.360439	0.831237
	H11700	H	0.782302	0.861931	0.786111
	H11701	H	0.782539	0.645429	0.786211
	H11702	H	0.782212	0.360685	0.786114
	H11703	H	0.782219	0.145631	0.786094
	H11704	H	0.910390	0.064788	0.805406
	H11705	H	0.913499	0.064668	0.805976
	H11706	H	0.913524	0.941391	0.806010
	H11707	H	0.910306	0.941263	0.805392
	H11708	H	0.908994	0.064504	0.802799
	H11709	H	0.909081	0.940688	0.802811
	H11710	H	0.760679	0.064707	0.812093
	H11711	H	0.760656	0.941177	0.812129
	H11712	H	0.762020	0.064438	0.809981
	H11713	H	0.762126	0.941164	0.809990
	H11714	H	0.758728	0.064276	0.807363
	H11715	H	0.758713	0.940626	0.807357
	H11716	H	0.755294	0.440594	0.810861
	H11717	H	0.757350	0.440991	0.811622
	H11718	H	0.755163	0.441153	0.808961
	H11719	H	0.914399	0.441195	0.804175
	H11720	H	0.912430	0.441299	0.804796
	H11721	H	0.910983	0.441555	0.804289
	H11722	H	0.757412	0.564487	0.811594
	H11723	H	0.755272	0.564598	0.810863
	H11724	H	0.911020	0.564688	0.804222
	H11725	H	0.912419	0.564879	0.804828
	H11726	H	0.914405	0.565094	0.804162
	H11727	H	0.755220	0.564321	0.808976
	H11728	H	0.883351	0.643937	0.825966
	H11729	H	0.883487	0.862941	0.826018
	H11730	H	0.883234	0.143419	0.825963
	H11731	H	0.883374	0.362470	0.826006
	H11732	H	0.795281	0.645488	0.771400
	H11733	H	0.856552	0.644565	0.768693
	H11734	H	0.856394	0.861095	0.768744
	H11735	H	0.795066	0.861686	0.771278
	H11736	H	0.876821	0.644743	0.781790
	H11737	H	0.876655	0.861271	0.781836
	H11738	H	0.872540	0.643927	0.841406
	H11739	H	0.872710	0.862881	0.841457
	H11740	H	0.820865	0.441326	0.746718
	H11741	H	0.854847	0.441076	0.865595
	H11742	H	0.821571	0.440980	0.747754
	H11743	H	0.820678	0.441124	0.748401
	H11744	H	0.846507	0.441607	0.863884
	H11745	H	0.850473	0.441088	0.863187
	H11746	H	0.854839	0.564723	0.865640
	H11747	H	0.820777	0.564571	0.746750
	H11748	H	0.850481	0.564540	0.863194
	H11749	H	0.846545	0.564133	0.863876
	H11750	H	0.820642	0.564297	0.748297
	H11751	H	0.821487	0.564877	0.747730
	H11752	H	0.872390	0.143328	0.841389
	H11753	H	0.872591	0.362617	0.841441
	H11754	H	0.817920	0.064381	0.747107
	H11755	H	0.818305	0.064910	0.748154
	H11756	H	0.819672	0.064176	0.746197
	H11757	H	0.814018	0.860191	0.844391
	H11758	H	0.814152	0.643913	0.844301
	H11759	H	0.814115	0.360270	0.844332
	H11760	H	0.814159	0.143734	0.844308
	H11761	H	0.795165	0.145294	0.771337
	H11762	H	0.856641	0.143588	0.768695
	H11763	H	0.856533	0.360713	0.768775
	H11764	H	0.795172	0.360992	0.771389
	H11765	H	0.876768	0.143731	0.781845
	H11766	H	0.876650	0.360566	0.781905
	H11767	H	0.855281	0.064682	0.868347
	H11768	H	0.855974	0.064263	0.865271
	H11769	H	0.850220	0.064585	0.862365
	H11770	H	0.818402	0.941502	0.748180
	H11771	H	0.817945	0.941413	0.747124
	H11772	H	0.819685	0.940779	0.746164
	H11773	H	0.855195	0.940748	0.868323
	H11774	H	0.855845	0.941165	0.865246
	H11775	H	0.850183	0.941521	0.862388
	Zn11776	Zn	0.757497	0.679805	0.809940
	Zn11777	Zn	0.757475	0.825652	0.809999
	Zn11778	Zn	0.757403	0.179871	0.809923
	Zn11779	Zn	0.757518	0.325447	0.809964
	Zn11780	Zn	0.849994	0.680267	0.866129
	Zn11781	Zn	0.849838	0.825474	0.866105
	Zn11782	Zn	0.850078	0.180282	0.866140
	Zn11783	Zn	0.849972	0.325383	0.866107
	C11784	C	0.890135	0.752988	0.790461
	C11785	C	0.780425	0.752638	0.822647
	C11786	C	0.792734	0.752289	0.830430
	C11787	C	0.798457	0.690997	0.834123
	C11788	C	0.798370	0.813400	0.834160
	C11789	C	0.780431	0.252338	0.822594
	C11790	C	0.792683	0.252118	0.830422
	C11791	C	0.798415	0.190797	0.834119
	C11792	C	0.798368	0.313345	0.834154
	C11793	C	0.773793	0.753547	0.795830
	C11794	C	0.781710	0.753625	0.787036
	C11795	C	0.785200	0.814986	0.782837
	C11796	C	0.785321	0.692399	0.782892
	C11797	C	0.773685	0.252961	0.795755
	C11798	C	0.781564	0.253085	0.786949
	C11799	C	0.785137	0.314145	0.782810
	C11800	C	0.785145	0.192130	0.782801
	C11801	C	0.912176	0.043311	0.805168
	C11802	C	0.912169	0.962542	0.805174
	C11803	C	0.760331	0.043267	0.810742
	C11804	C	0.760327	0.962460	0.810760
	C11805	C	0.756950	0.043097	0.808097
	C11806	C	0.756943	0.962238	0.808100
	C11807	C	0.756618	0.461991	0.810906
	C11808	C	0.913926	0.462638	0.803662
	C11809	C	0.911978	0.462791	0.804301
	C11810	C	0.756639	0.543131	0.810885
	C11811	C	0.911986	0.543507	0.804316
	C11812	C	0.913915	0.543633	0.803657
	C11813	C	0.891839	0.753402	0.816155
	C11814	C	0.891828	0.253038	0.816173
	C11815	C	0.884050	0.753391	0.825059
	C11816	C	0.880897	0.691412	0.829392
	C11817	C	0.880983	0.815336	0.829418
	C11818	C	0.883922	0.252939	0.825034
	C11819	C	0.880746	0.191000	0.829381
	C11820	C	0.880835	0.314848	0.829412
	C11821	C	0.890070	0.252196	0.790547
	C11822	C	0.842941	0.752963	0.760146
	C11823	C	0.803690	0.753111	0.761648
	C11824	C	0.827562	0.752032	0.852958
	C11825	C	0.872248	0.691689	0.778900
	C11826	C	0.872155	0.814259	0.778915
	C11827	C	0.855244	0.752841	0.767959
	C11828	C	0.795847	0.753503	0.770459
	C11829	C	0.792377	0.692365	0.774678
	C11830	C	0.861041	0.691649	0.771623
	C11831	C	0.860941	0.814121	0.771649
	C11832	C	0.792250	0.814858	0.774610
	C11833	C	0.877887	0.753060	0.782631
	C11834	C	0.865716	0.753239	0.851740
	C11835	C	0.874992	0.691434	0.837986
	C11836	C	0.875064	0.815352	0.838014
	C11837	C	0.872162	0.753359	0.842427
	C11838	C	0.853377	0.462550	0.866633
	C11839	C	0.820814	0.462412	0.747923
	C11840	C	0.848949	0.462464	0.864227
	C11841	C	0.853336	0.543326	0.866640
	C11842	C	0.848961	0.543101	0.864210
	C11843	C	0.820782	0.543352	0.747897
	C11844	C	0.865661	0.253037	0.851724
	C11845	C	0.874811	0.190976	0.837967
	C11846	C	0.874905	0.314930	0.837995
	C11847	C	0.872000	0.252990	0.842401
	C11848	C	0.818613	0.043227	0.747581
	C11849	C	0.843046	0.252256	0.760137
	C11850	C	0.803871	0.252890	0.761711
	C11851	C	0.827495	0.252082	0.852994
	C11852	C	0.872242	0.190752	0.778937
	C11853	C	0.872155	0.313500	0.778977
	C11854	C	0.855314	0.252126	0.767960
	C11855	C	0.795903	0.253057	0.770470
	C11856	C	0.815320	0.752044	0.845115
	C11857	C	0.809563	0.813263	0.841440
	C11858	C	0.809660	0.690862	0.841393
	C11859	C	0.815231	0.251986	0.845158
	C11860	C	0.809572	0.313229	0.841432
	C11861	C	0.809603	0.190744	0.841412
	C11862	C	0.792292	0.192087	0.774617
	C11863	C	0.861046	0.190731	0.771649
	C11864	C	0.860984	0.313527	0.771685
	C11865	C	0.792271	0.314142	0.774626
	C11866	C	0.877843	0.252126	0.782692
	C11867	C	0.854184	0.043283	0.866643
	C11868	C	0.820379	0.042935	0.746666
	C11869	C	0.818646	0.962536	0.747579
	C11870	C	0.854134	0.962273	0.866619
	C11871	C	0.820378	0.962203	0.746657
	N11872	N	0.757403	0.069994	0.809978
	N11873	N	0.757420	0.935560	0.809988
	N11874	N	0.757487	0.435360	0.809969
	N11875	N	0.757487	0.569786	0.809938
	N11876	N	0.850086	0.435493	0.866169
	N11877	N	0.850039	0.570051	0.866166
	N11878	N	0.850063	0.070190	0.866128
	N11879	N	0.849984	0.935619	0.866095
	O11880	O	0.851780	0.694545	0.925629
	O11881	O	0.851801	0.811375	0.925632
	O11882	O	0.799879	0.694318	0.941036
	O11883	O	0.799982	0.811185	0.941059
	O11884	O	0.799860	0.194157	0.941031
	O11885	O	0.799930	0.311083	0.941043
	O11886	O	0.800672	0.694277	0.917881
	O11887	O	0.800559	0.810944	0.917853
	O11888	O	0.800432	0.194064	0.917754
	O11889	O	0.800649	0.310630	0.917813
	O11890	O	0.850918	0.694730	0.948747
	O11891	O	0.850949	0.811236	0.948770
	O11892	O	0.850901	0.194964	0.948702
	O11893	O	0.850985	0.311279	0.948726
	O11894	O	0.851885	0.194527	0.925629
	O11895	O	0.851942	0.311167	0.925593
	O11896	O	0.862415	0.694655	0.878604
	O11897	O	0.832616	0.694159	0.875335
	O11898	O	0.819216	0.694486	0.991365
	O11899	O	0.819177	0.811117	0.991367
	O11900	O	0.789383	0.694301	0.988063
	O11901	O	0.789286	0.811335	0.988070
	O11902	O	0.832641	0.810838	0.875311
	O11903	O	0.862386	0.811584	0.878623
	O11904	O	0.862576	0.194653	0.878590
	O11905	O	0.832801	0.193962	0.875353
	O11906	O	0.819122	0.194528	0.991317
	O11907	O	0.819174	0.311203	0.991359
	O11908	O	0.789242	0.194570	0.988090
	O11909	O	0.789337	0.311204	0.988077
	O11910	O	0.832800	0.310788	0.875331
	O11911	O	0.862575	0.311428	0.878578
	H11912	H	0.797356	0.642617	0.956223
	H11913	H	0.797157	0.862438	0.956219
	H11914	H	0.797418	0.143043	0.956249
	H11915	H	0.797252	0.362354	0.956232
	H11916	H	0.809902	0.862035	0.903873
	H11917	H	0.809884	0.643117	0.903902
	H11918	H	0.810316	0.361952	0.903932
	H11919	H	0.809831	0.142606	0.903803
	H11920	H	0.865534	0.064669	0.936885
	H11921	H	0.863502	0.065248	0.936732
	H11922	H	0.863598	0.941134	0.936707
	H11923	H	0.865502	0.941765	0.936873
	H11924	H	0.866790	0.064644	0.938384
	H11925	H	0.866797	0.940968	0.938390
	H11926	H	0.779290	0.064253	0.925675
	H11927	H	0.779294	0.941085	0.925751
	H11928	H	0.778922	0.064242	0.930255
	H11929	H	0.778903	0.941349	0.930337
	H11930	H	0.787721	0.064277	0.934031
	H11931	H	0.787708	0.940818	0.934057
	H11932	H	0.786172	0.441093	0.925899
	H11933	H	0.783308	0.441000	0.927295
	H11934	H	0.791199	0.441178	0.927163
	H11935	H	0.863151	0.441364	0.934078
	H11936	H	0.870202	0.441012	0.936220
	H11937	H	0.870735	0.441336	0.939615
	H11938	H	0.783237	0.564886	0.927290
	H11939	H	0.786111	0.564078	0.925891
	H11940	H	0.870769	0.564792	0.939604
	H11941	H	0.870174	0.564677	0.936264
	H11942	H	0.863239	0.564377	0.934138
	H11943	H	0.791136	0.564169	0.927151
	H11944	H	0.841593	0.643625	0.962689
	H11945	H	0.841776	0.862460	0.962724
	H11946	H	0.841593	0.143560	0.962653
	H11947	H	0.841785	0.362384	0.962707
	H11948	H	0.820629	0.643038	0.888434
	H11949	H	0.859794	0.643169	0.893810
	H11950	H	0.859564	0.863112	0.893833
	H11951	H	0.820668	0.861912	0.888418
	H11952	H	0.854471	0.643175	0.910451
	H11953	H	0.854263	0.862941	0.910445
	H11954	H	0.830950	0.643411	0.978165
	H11955	H	0.831059	0.862661	0.978209
	H11956	H	0.854168	0.441310	0.868016
	H11957	H	0.795748	0.441066	0.999329
	H11958	H	0.848717	0.440595	0.868952
	H11959	H	0.845508	0.441062	0.867194
	H11960	H	0.803607	0.441836	1.004205
	H11961	H	0.798333	0.441502	1.003528
	H11962	H	0.795720	0.565099	0.999306
	H11963	H	0.854048	0.564680	0.868042
	H11964	H	0.798406	0.565049	1.003486
	H11965	H	0.803643	0.564677	1.004176
	H11966	H	0.845551	0.564370	0.867158
	H11967	H	0.848684	0.564589	0.868964
	H11968	H	0.831000	0.143536	0.978148
	H11969	H	0.831161	0.362391	0.978219
	H11970	H	0.844415	0.064352	0.867583
	H11971	H	0.848602	0.064522	0.869720
	H11972	H	0.845376	0.065038	0.863408
	H11973	H	0.791802	0.862467	0.972842
	H11974	H	0.792036	0.642505	0.972860
	H11975	H	0.791835	0.362509	0.972853
	H11976	H	0.791985	0.142951	0.972855
	H11977	H	0.820630	0.142923	0.888359
	H11978	H	0.859957	0.143031	0.893805
	H11979	H	0.859640	0.362649	0.893745
	H11980	H	0.821126	0.361943	0.888497
	H11981	H	0.854594	0.142932	0.910420
	H11982	H	0.854348	0.362510	0.910382
	H11983	H	0.802587	0.064801	1.001645
	H11984	H	0.803760	0.064282	1.000946
	H11985	H	0.803016	0.064689	0.999599
	H11986	H	0.848608	0.941091	0.869712
	H11987	H	0.844402	0.941461	0.867589
	H11988	H	0.845232	0.941602	0.863395
	H11989	H	0.802602	0.941083	1.001632
	H11990	H	0.803743	0.941315	1.000926
	H11991	H	0.803069	0.941311	0.999604
	Zn11992	Zn	0.787268	0.680210	0.928618
	Zn11993	Zn	0.787363	0.825109	0.928665
	Zn11994	Zn	0.787356	0.180227	0.928587
	Zn11995	Zn	0.787466	0.325271	0.928595
	Zn11996	Zn	0.801890	0.680356	1.000469
	Zn11997	Zn	0.801830	0.825507	1.000476
	Zn11998	Zn	0.801871	0.180373	1.000522
	Zn11999	Zn	0.801848	0.325537	1.000538
	C12000	C	0.852007	0.752965	0.921627
	C12001	C	0.799685	0.752746	0.945056
	C12002	C	0.797796	0.752591	0.955267
	C12003	C	0.796176	0.690346	0.959944
	C12004	C	0.796083	0.814729	0.959944
	C12005	C	0.799691	0.252614	0.945039
	C12006	C	0.797803	0.252681	0.955246
	C12007	C	0.796238	0.190684	0.959950
	C12008	C	0.796161	0.314664	0.959953
	C12009	C	0.803175	0.752599	0.914273
	C12010	C	0.809580	0.752610	0.904935
	C12011	C	0.812343	0.814442	0.900460
	C12012	C	0.812341	0.690701	0.900478
	C12013	C	0.803096	0.252320	0.914185
	C12014	C	0.809541	0.252287	0.904876
	C12015	C	0.812553	0.314315	0.900480
	C12016	C	0.812261	0.190340	0.900404
	C12017	C	0.864461	0.043583	0.937142
	C12018	C	0.864487	0.962691	0.937119
	C12019	C	0.781331	0.043020	0.928153
	C12020	C	0.781315	0.962512	0.928188
	C12021	C	0.790158	0.043073	0.931946
	C12022	C	0.790186	0.962009	0.931968
	C12023	C	0.785510	0.462298	0.927135
	C12024	C	0.861814	0.462513	0.935756
	C12025	C	0.868886	0.462356	0.937928
	C12026	C	0.785457	0.543327	0.927132
	C12027	C	0.868865	0.543395	0.937963
	C12028	C	0.861839	0.543304	0.935786
	C12029	C	0.848399	0.752953	0.952359
	C12030	C	0.848432	0.253105	0.952330
	C12031	C	0.842057	0.753006	0.961707
	C12032	C	0.839237	0.691114	0.966143
	C12033	C	0.839342	0.814924	0.966178
	C12034	C	0.842146	0.253003	0.961692
	C12035	C	0.839282	0.191128	0.966111
	C12036	C	0.839407	0.314895	0.966149
	C12037	C	0.852103	0.252775	0.921597
	C12038	C	0.862138	0.753121	0.882614
	C12039	C	0.829198	0.752520	0.878617
	C12040	C	0.789544	0.752841	0.984074
	C12041	C	0.855577	0.690901	0.906743
	C12042	C	0.855463	0.815177	0.906751
	C12043	C	0.860213	0.753086	0.892824
	C12044	C	0.821405	0.752480	0.887516
	C12045	C	0.818230	0.690615	0.891870
	C12046	C	0.858639	0.690910	0.897527
	C12047	C	0.858508	0.815227	0.897528
	C12048	C	0.818232	0.814421	0.891854
	C12049	C	0.853901	0.752992	0.911433
	C12050	C	0.822612	0.752850	0.988066
	C12051	C	0.833422	0.691091	0.974770
	C12052	C	0.833523	0.814989	0.974808
	C12053	C	0.830389	0.752973	0.979161
	C12054	C	0.798527	0.462468	0.998782
	C12055	C	0.847932	0.462263	0.867561
	C12056	C	0.801190	0.462798	1.002974
	C12057	C	0.798529	0.543543	0.998756
	C12058	C	0.801199	0.543430	1.002956
	C12059	C	0.847917	0.543310	0.867546
	C12060	C	0.822605	0.252918	0.988064
	C12061	C	0.833448	0.191163	0.974736
	C12062	C	0.833560	0.314817	0.974768
	C12063	C	0.830407	0.252942	0.979136
	C12064	C	0.847468	0.043329	0.868001
	C12065	C	0.862316	0.253033	0.882598
	C12066	C	0.829337	0.252416	0.878607
	C12067	C	0.789505	0.252816	0.984059
	C12068	C	0.855662	0.190691	0.906714
	C12069	C	0.855525	0.314815	0.906686
	C12070	C	0.860347	0.252872	0.892792
	C12071	C	0.821489	0.252371	0.887512
	C12072	C	0.791421	0.752605	0.973878
	C12073	C	0.792986	0.814711	0.969158
	C12074	C	0.793108	0.690400	0.969166
	C12075	C	0.791434	0.252709	0.973866
	C12076	C	0.793069	0.314790	0.969167
	C12077	C	0.793130	0.190649	0.969164
	C12078	C	0.818223	0.190380	0.891821
	C12079	C	0.858784	0.190713	0.897505
	C12080	C	0.858637	0.314928	0.897473
	C12081	C	0.818516	0.314399	0.891899
	C12082	C	0.853979	0.252749	0.911404
	C12083	C	0.802795	0.043323	1.001074
	C12084	C	0.848415	0.043370	0.863740
	C12085	C	0.847417	0.962666	0.868001
	C12086	C	0.802767	0.962585	1.001069
	C12087	C	0.848346	0.962604	0.863735
	N12088	N	0.787408	0.069948	0.928594
	N12089	N	0.787429	0.935377	0.928634
	N12090	N	0.787520	0.435417	0.928587
	N12091	N	0.787431	0.569992	0.928591
	N12092	N	0.801827	0.435702	1.000511
	N12093	N	0.801850	0.570278	1.000475
	N12094	N	0.801814	0.070336	1.000497
	N12095	N	0.801779	0.935776	1.000463
	O12096	O	0.952960	0.694852	0.056932
	O12097	O	0.953137	0.811446	0.056880
	O12098	O	0.901040	0.694588	0.072355
	O12099	O	0.901121	0.811464	0.072375
	O12100	O	0.901089	0.194678	0.072375
	O12101	O	0.901149	0.311468	0.072371
	O12102	O	0.902158	0.695108	0.049229
	O12103	O	0.902017	0.811492	0.049214
	O12104	O	0.902070	0.194349	0.049292
	O12105	O	0.902124	0.310835	0.049263
	O12106	O	0.952357	0.694430	0.080161
	O12107	O	0.952429	0.811005	0.080161
	O12108	O	0.952410	0.194596	0.080129
	O12109	O	0.952440	0.311229	0.080113
	O12110	O	0.953073	0.194417	0.056900
	O12111	O	0.952927	0.311257	0.056913
	O12112	O	0.963535	0.694238	0.009900
	O12113	O	0.933809	0.694759	0.006582
	O12114	O	0.920349	0.694817	0.122664
	O12115	O	0.920325	0.811527	0.122634
	O12116	O	0.890437	0.694923	0.119420
	O12117	O	0.890554	0.811596	0.119443
	O12118	O	0.933825	0.811506	0.006581
	O12119	O	0.963732	0.811275	0.009866
	O12120	O	0.963630	0.194828	0.009867
	O12121	O	0.933804	0.193913	0.006637
	O12122	O	0.920312	0.194910	0.122623
	O12123	O	0.920362	0.311541	0.122638
	O12124	O	0.890473	0.194873	0.119385
	O12125	O	0.890548	0.311641	0.119417
	O12126	O	0.933701	0.310699	0.006627
	O12127	O	0.963637	0.311748	0.009890
	H12128	H	0.898667	0.643495	0.087599
	H12129	H	0.898615	0.863187	0.087643
	H12130	H	0.898645	0.143180	0.087622
	H12131	H	0.898424	0.363076	0.087569
	H12132	H	0.911422	0.862680	0.035227
	H12133	H	0.911377	0.643974	0.035214
	H12134	H	0.911471	0.361970	0.035268
	H12135	H	0.911382	0.142644	0.035322
	H12136	H	0.965544	0.064788	0.075537
	H12137	H	0.973383	0.064282	0.073654
	H12138	H	0.973346	0.941554	0.073712
	H12139	H	0.965466	0.941338	0.075522
	H12140	H	0.955747	0.064964	0.070955
	H12141	H	0.955809	0.941465	0.071002
	H12142	H	0.891994	0.065003	0.058030
	H12143	H	0.892008	0.941062	0.058000
	H12144	H	0.888136	0.064403	0.057081
	H12145	H	0.888147	0.942020	0.057018
	H12146	H	0.883963	0.064329	0.059005
	H12147	H	0.883900	0.941575	0.058991
	H12148	H	0.888670	0.441109	0.059795
	H12149	H	0.888528	0.441156	0.059863
	H12150	H	0.888787	0.441662	0.059858
	H12151	H	0.966849	0.441474	0.065634
	H12152	H	0.971984	0.440774	0.069004
	H12153	H	0.970451	0.441181	0.072097
	H12154	H	0.888495	0.564681	0.059920
	H12155	H	0.888569	0.564863	0.059794
	H12156	H	0.970402	0.565121	0.072051
	H12157	H	0.971927	0.564409	0.069041
	H12158	H	0.966737	0.564565	0.065646
	H12159	H	0.888732	0.564558	0.059864
	H12160	H	0.942901	0.643298	0.094099
	H12161	H	0.943236	0.862551	0.094127
	H12162	H	0.943302	0.143443	0.094174
	H12163	H	0.942980	0.362745	0.094020
	H12164	H	0.922001	0.643725	0.019712
	H12165	H	0.960973	0.643047	0.025081
	H12166	H	0.961132	0.862840	0.025090
	H12167	H	0.922008	0.862749	0.019712
	H12168	H	0.955613	0.643163	0.041713
	H12169	H	0.955779	0.862869	0.041710
	H12170	H	0.932123	0.643494	0.109534
	H12171	H	0.932464	0.862677	0.109591
	H12172	H	0.950987	0.441601	0.002752
	H12173	H	0.904122	0.441407	0.133513
	H12174	H	0.942612	0.441260	-0.001186
	H12175	H	0.943364	0.440971	-0.005646
	H12176	H	0.904975	0.441479	0.130599
	H12177	H	0.906043	0.441270	0.132003
	H12178	H	0.904146	0.564524	0.133507
	H12179	H	0.951102	0.564456	0.002731
	H12180	H	0.905982	0.565085	0.131953
	H12181	H	0.904909	0.564711	0.130597
	H12182	H	0.943417	0.564655	-0.005628
	H12183	H	0.942657	0.564604	-0.001189
	H12184	H	0.932544	0.143657	0.109627
	H12185	H	0.932201	0.362956	0.109466
	H12186	H	0.946479	0.064905	-0.003788
	H12187	H	0.946902	0.064925	-0.001271
	H12188	H	0.951146	0.064525	-0.005476
	H12189	H	0.893259	0.863010	0.104262
	H12190	H	0.893325	0.643335	0.104233
	H12191	H	0.892994	0.362915	0.104203
	H12192	H	0.893220	0.143308	0.104202
	H12193	H	0.921998	0.142635	0.019810
	H12194	H	0.961111	0.142975	0.025104
	H12195	H	0.960911	0.362859	0.025090
	H12196	H	0.922054	0.361764	0.019820
	H12197	H	0.955739	0.142700	0.041690
	H12198	H	0.955538	0.362673	0.041739
	H12199	H	0.907199	0.064739	0.134044
	H12200	H	0.908244	0.064524	0.131464
	H12201	H	0.903707	0.064661	0.128719
	H12202	H	0.946904	0.941186	-0.001304
	H12203	H	0.946502	0.941251	-0.003820
	H12204	H	0.951214	0.941327	-0.005484
	H12205	H	0.907348	0.941018	0.134034
	H12206	H	0.908290	0.941444	0.131405
	H12207	H	0.903610	0.941780	0.128754
	Zn12208	Zn	0.888605	0.680305	0.059899
	Zn12209	Zn	0.888594	0.825478	0.059936
	Zn12210	Zn	0.888606	0.180330	0.059942
	Zn12211	Zn	0.888676	0.325437	0.059945
	Zn12212	Zn	0.903102	0.680529	0.131847
	Zn12213	Zn	0.903098	0.825469	0.131890
	Zn12214	Zn	0.903032	0.180668	0.131816
	Zn12215	Zn	0.903109	0.325556	0.131873
	C12216	C	0.953305	0.753035	0.052886
	C12217	C	0.900906	0.752979	0.076379
	C12218	C	0.899101	0.753199	0.086597
	C12219	C	0.897532	0.691158	0.091306
	C12220	C	0.897490	0.815294	0.091331
	C12221	C	0.900908	0.253086	0.076383
	C12222	C	0.899021	0.253174	0.086579
	C12223	C	0.897434	0.191066	0.091291
	C12224	C	0.897314	0.315257	0.091280
	C12225	C	0.904586	0.753365	0.045593
	C12226	C	0.910889	0.753333	0.036233
	C12227	C	0.913727	0.815117	0.031775
	C12228	C	0.913714	0.691536	0.031769
	C12229	C	0.904628	0.252490	0.045665
	C12230	C	0.910934	0.252270	0.036313
	C12231	C	0.913749	0.314162	0.031847
	C12232	C	0.913731	0.190278	0.031864
	C12233	C	0.968363	0.043402	0.073222
	C12234	C	0.968359	0.962595	0.073217
	C12235	C	0.889742	0.043289	0.058177
	C12236	C	0.889735	0.962535	0.058166
	C12237	C	0.885512	0.043257	0.060164
	C12238	C	0.885481	0.962620	0.060146
	C12239	C	0.888632	0.462371	0.059856
	C12240	C	0.964537	0.462795	0.066790
	C12241	C	0.969711	0.462496	0.070228
	C12242	C	0.888623	0.543491	0.059870
	C12243	C	0.969668	0.543583	0.070218
	C12244	C	0.964497	0.543453	0.066810
	C12245	C	0.949888	0.752753	0.083781
	C12246	C	0.949862	0.252961	0.083719
	C12247	C	0.943521	0.752907	0.093102
	C12248	C	0.940602	0.691058	0.097535
	C12249	C	0.940780	0.814921	0.097552
	C12250	C	0.943502	0.253137	0.093036
	C12251	C	0.940813	0.191220	0.097549
	C12252	C	0.940635	0.315170	0.097460
	C12253	C	0.953236	0.252849	0.052900
	C12254	C	0.963404	0.752858	0.013875
	C12255	C	0.930373	0.753158	0.009861
	C12256	C	0.890756	0.753267	0.115411
	C12257	C	0.956761	0.690838	0.038007
	C12258	C	0.956888	0.815106	0.038007
	C12259	C	0.961503	0.752996	0.024087
	C12260	C	0.922550	0.753235	0.018761
	C12261	C	0.919520	0.691325	0.023139
	C12262	C	0.959843	0.690838	0.028786
	C12263	C	0.959945	0.815126	0.028785
	C12264	C	0.919514	0.815180	0.023140
	C12265	C	0.955200	0.752983	0.042700
	C12266	C	0.923800	0.753157	0.119377
	C12267	C	0.934698	0.691189	0.106132
	C12268	C	0.934872	0.815102	0.106153
	C12269	C	0.931648	0.753195	0.110494
	C12270	C	0.902930	0.462670	0.133024
	C12271	C	0.945160	0.462491	-0.003179
	C12272	C	0.904790	0.462630	0.131431
	C12273	C	0.902927	0.543396	0.133013
	C12274	C	0.904802	0.543564	0.131434
	C12275	C	0.945187	0.543415	-0.003188
	C12276	C	0.923797	0.253253	0.119344
	C12277	C	0.934914	0.191261	0.106149
	C12278	C	0.934733	0.315362	0.106060
	C12279	C	0.931639	0.253375	0.110441
	C12280	C	0.947920	0.043658	-0.002536
	C12281	C	0.963437	0.253212	0.013888
	C12282	C	0.930338	0.252231	0.009922
	C12283	C	0.890753	0.253297	0.115383
	C12284	C	0.956856	0.190603	0.038005
	C12285	C	0.956747	0.314989	0.038028
	C12286	C	0.961561	0.252946	0.024100
	C12287	C	0.922588	0.252166	0.018840
	C12288	C	0.892754	0.753151	0.105232
	C12289	C	0.894417	0.815330	0.100553
	C12290	C	0.894450	0.691114	0.100524
	C12291	C	0.892683	0.253224	0.105198
	C12292	C	0.894239	0.315273	0.100498
	C12293	C	0.894344	0.191064	0.100504
	C12294	C	0.919554	0.190201	0.023237
	C12295	C	0.959964	0.190742	0.028797
	C12296	C	0.959863	0.315071	0.028813
	C12297	C	0.919559	0.314125	0.023227
	C12298	C	0.955165	0.252706	0.042710
	C12299	C	0.906441	0.043546	0.132511
	C12300	C	0.952568	0.043302	-0.004277
	C12301	C	0.947919	0.962548	-0.002537
	C12302	C	0.906510	0.962610	0.132499
	C12303	C	0.952587	0.962432	-0.004276
	N12304	N	0.888657	0.070114	0.059953
	N12305	N	0.888669	0.935556	0.059939
	N12306	N	0.888763	0.435514	0.059920
	N12307	N	0.888708	0.570068	0.059890
	N12308	N	0.903021	0.435737	0.131845
	N12309	N	0.903055	0.570317	0.131848
	N12310	N	0.902950	0.070346	0.131819
	N12311	N	0.903024	0.935732	0.131865
	O12312	O	0.976965	0.694800	0.178640
	O12313	O	0.976957	0.811007	0.178609
	O12314	O	0.858246	0.694965	0.204583
	O12315	O	0.858208	0.811305	0.204595
	O12316	O	0.858241	0.194927	0.204586
	O12317	O	0.858284	0.311132	0.204639
	O12318	O	0.857939	0.694443	0.185211
	O12319	O	0.857840	0.811181	0.185163
	O12320	O	0.857788	0.194768	0.185067
	O12321	O	0.857887	0.311552	0.185144
	O12322	O	0.981987	0.694966	0.199169
	O12323	O	0.982012	0.811110	0.199158
	O12324	O	0.981998	0.194905	0.199187
	O12325	O	0.981864	0.310885	0.199077
	O12326	O	0.977065	0.194962	0.178583
	O12327	O	0.976878	0.310821	0.178641
	O12328	O	0.920671	0.694802	0.142065
	O12329	O	0.889938	0.694627	0.142666
	O12330	O	0.945734	0.694631	0.239974
	O12331	O	0.945927	0.810643	0.240065
	O12332	O	0.914499	0.695187	0.241184
	O12333	O	0.914522	0.811207	0.241157
	O12334	O	0.889865	0.811069	0.142652
	O12335	O	0.920793	0.811154	0.142020
	O12336	O	0.920701	0.194806	0.142018
	O12337	O	0.890056	0.195130	0.142701
	O12338	O	0.946022	0.195086	0.240108
	O12339	O	0.945871	0.311296	0.240025
	O12340	O	0.914628	0.194827	0.241130
	O12341	O	0.914628	0.311042	0.241104
	O12342	O	0.890023	0.311635	0.142673
	O12343	O	0.920687	0.310993	0.142092
	H12344	H	0.876357	0.644724	0.216243
	H12345	H	0.876449	0.861684	0.216253
	H12346	H	0.876352	0.144101	0.216327
	H12347	H	0.876323	0.361316	0.216321
	H12348	H	0.869902	0.862234	0.172105
	H12349	H	0.869926	0.643180	0.172057
	H12350	H	0.869722	0.363041	0.172005
	H12351	H	0.869872	0.143602	0.172015
	H12352	H	0.990796	0.064507	0.187018
	H12353	H	0.990866	0.064579	0.189302
	H12354	H	0.990857	0.941042	0.189328
	H12355	H	0.990841	0.941270	0.186970
	H12356	H	0.995422	0.064976	0.185607
	H12357	H	0.995429	0.941058	0.185588
	H12358	H	0.847871	0.064537	0.191390
	H12359	H	0.847852	0.941722	0.191405
	H12360	H	0.841087	0.064767	0.188922
	H12361	H	0.841063	0.941113	0.188948
	H12362	H	0.832110	0.064752	0.191899
	H12363	H	0.832106	0.941569	0.191905
	H12364	H	0.838308	0.441472	0.194436
	H12365	H	0.839287	0.441397	0.195452
	H12366	H	0.839726	0.440857	0.193123
	H12367	H	0.993692	0.441609	0.186134
	H12368	H	0.997852	0.441021	0.186957
	H12369	H	0.998773	0.441042	0.188782
	H12370	H	0.839298	0.565078	0.195453
	H12371	H	0.838290	0.564876	0.194464
	H12372	H	0.998708	0.564587	0.188830
	H12373	H	0.997879	0.564307	0.187009
	H12374	H	0.993795	0.564288	0.186201
	H12375	H	0.839627	0.564321	0.193118
	H12376	H	0.970172	0.645025	0.212120
	H12377	H	0.970536	0.860837	0.212244
	H12378	H	0.970432	0.145030	0.212258
	H12379	H	0.970247	0.360981	0.212147
	H12380	H	0.880664	0.643161	0.156617
	H12381	H	0.938834	0.644238	0.153749
	H12382	H	0.938831	0.861377	0.153690
	H12383	H	0.880668	0.862360	0.156632
	H12384	H	0.958837	0.644351	0.166985
	H12385	H	0.958813	0.861492	0.166909
	H12386	H	0.957257	0.644830	0.226897
	H12387	H	0.957623	0.861054	0.227032
	H12388	H	0.901690	0.441370	0.133356
	H12389	H	0.938200	0.441746	0.252393
	H12390	H	0.900249	0.440868	0.131487
	H12391	H	0.901541	0.441602	0.130345
	H12392	H	0.931902	0.441405	0.247340
	H12393	H	0.936664	0.441966	0.248415
	H12394	H	0.938208	0.564982	0.252409
	H12395	H	0.901676	0.564431	0.133367
	H12396	H	0.936659	0.565115	0.248415
	H12397	H	0.931956	0.565103	0.247360
	H12398	H	0.901632	0.564605	0.130304
	H12399	H	0.900237	0.564574	0.131419
	H12400	H	0.957722	0.145110	0.227099
	H12401	H	0.957477	0.361111	0.226989
	H12402	H	0.898029	0.064812	0.132851
	H12403	H	0.901312	0.064583	0.134788
	H12404	H	0.899411	0.065114	0.129318
	H12405	H	0.896492	0.861261	0.229484
	H12406	H	0.896385	0.644726	0.229464
	H12407	H	0.896439	0.361290	0.229469
	H12408	H	0.896495	0.144257	0.229489
	H12409	H	0.880647	0.144030	0.156565
	H12410	H	0.938743	0.144469	0.153761
	H12411	H	0.938705	0.360724	0.153766
	H12412	H	0.880531	0.363033	0.156569
	H12413	H	0.958810	0.144579	0.166950
	H12414	H	0.958727	0.360815	0.166985
	H12415	H	0.929297	0.064371	0.253944
	H12416	H	0.934650	0.064663	0.254570
	H12417	H	0.939057	0.064412	0.251264
	H12418	H	0.901451	0.941294	0.134864
	H12419	H	0.898085	0.941146	0.132898
	H12420	H	0.899426	0.941289	0.129387
	H12421	H	0.929237	0.941427	0.253911
	H12422	H	0.934565	0.941217	0.254565
	H12423	H	0.939028	0.941242	0.251276
	Zn12424	Zn	0.840649	0.680559	0.194419
	Zn12425	Zn	0.840602	0.825783	0.194363
	Zn12426	Zn	0.840644	0.180608	0.194375
	Zn12427	Zn	0.840713	0.325624	0.194399
	Zn12428	Zn	0.932701	0.680195	0.250869
	Zn12429	Zn	0.932636	0.825983	0.250846
	Zn12430	Zn	0.932688	0.180209	0.250844
	Zn12431	Zn	0.932640	0.325834	0.250861
	C12432	C	0.972234	0.752854	0.175596
	C12433	C	0.862997	0.753160	0.207575
	C12434	C	0.875166	0.753213	0.215448
	C12435	C	0.880801	0.691833	0.219180
	C12436	C	0.880849	0.814477	0.219198
	C12437	C	0.863029	0.252914	0.207617
	C12438	C	0.875195	0.252689	0.215480
	C12439	C	0.880852	0.191278	0.219236
	C12440	C	0.880819	0.314081	0.219229
	C12441	C	0.861357	0.752778	0.181910
	C12442	C	0.869188	0.752770	0.173016
	C12443	C	0.872329	0.814710	0.168665
	C12444	C	0.872345	0.690863	0.168643
	C12445	C	0.861310	0.253193	0.181846
	C12446	C	0.869239	0.253306	0.172997
	C12447	C	0.872282	0.315351	0.168628
	C12448	C	0.872354	0.191358	0.168624
	C12449	C	0.991929	0.043346	0.188196
	C12450	C	0.991934	0.962532	0.188193
	C12451	C	0.843413	0.043302	0.191267
	C12452	C	0.843387	0.962558	0.191276
	C12453	C	0.834424	0.043562	0.194227
	C12454	C	0.834389	0.962918	0.194240
	C12455	C	0.839238	0.462657	0.194789
	C12456	C	0.993275	0.462539	0.187176
	C12457	C	0.997441	0.462168	0.187992
	C12458	C	0.839216	0.543474	0.194806
	C12459	C	0.997446	0.543167	0.188018
	C12460	C	0.993317	0.543145	0.187219
	C12461	C	0.978924	0.753036	0.202525
	C12462	C	0.978858	0.252983	0.202505
	C12463	C	0.971081	0.752981	0.211348
	C12464	C	0.967377	0.691718	0.215456
	C12465	C	0.967584	0.814132	0.215526
	C12466	C	0.971020	0.253006	0.211311
	C12467	C	0.967526	0.191905	0.215523
	C12468	C	0.967416	0.314164	0.215459
	C12469	C	0.972170	0.252831	0.175629
	C12470	C	0.925490	0.752943	0.145035
	C12471	C	0.887378	0.752817	0.146272
	C12472	C	0.909775	0.753150	0.238143
	C12473	C	0.954354	0.691466	0.164028
	C12474	C	0.954341	0.814287	0.163990
	C12475	C	0.937611	0.752871	0.152930
	C12476	C	0.881027	0.752844	0.155603
	C12477	C	0.878238	0.690813	0.160040
	C12478	C	0.943255	0.691422	0.156687
	C12479	C	0.943250	0.814321	0.156652
	C12480	C	0.878228	0.814743	0.160065
	C12481	C	0.959985	0.752930	0.167748
	C12482	C	0.948934	0.752714	0.236664
	C12483	C	0.960254	0.691711	0.223653
	C12484	C	0.960459	0.814126	0.223723
	C12485	C	0.956833	0.752929	0.227863
	C12486	C	0.935429	0.462586	0.252684
	C12487	C	0.901431	0.462474	0.131148
	C12488	C	0.933872	0.462743	0.248663
	C12489	C	0.935428	0.543491	0.252676
	C12490	C	0.933909	0.543465	0.248674
	C12491	C	0.901469	0.543292	0.131151
	C12492	C	0.949083	0.253143	0.236719
	C12493	C	0.960499	0.191799	0.223752
	C12494	C	0.960375	0.314271	0.223688
	C12495	C	0.956908	0.253060	0.227884
	C12496	C	0.900500	0.043336	0.133304
	C12497	C	0.925422	0.252765	0.145076
	C12498	C	0.887544	0.253433	0.146306
	C12499	C	0.909858	0.252933	0.238114
	C12500	C	0.954303	0.191514	0.164045
	C12501	C	0.954285	0.313829	0.164051
	C12502	C	0.937552	0.252524	0.152985
	C12503	C	0.881190	0.253518	0.155652
	C12504	C	0.897567	0.753056	0.230261
	C12505	C	0.891957	0.814392	0.226534
	C12506	C	0.891909	0.691721	0.226522
	C12507	C	0.897670	0.252840	0.230247
	C12508	C	0.891964	0.314204	0.226538
	C12509	C	0.892005	0.191340	0.226548
	C12510	C	0.878307	0.191453	0.160047
	C12511	C	0.943183	0.191358	0.156724
	C12512	C	0.943167	0.313780	0.156722
	C12513	C	0.878249	0.315515	0.160048
	C12514	C	0.959932	0.252745	0.167800
	C12515	C	0.932151	0.043385	0.253355
	C12516	C	0.901891	0.043446	0.129764
	C12517	C	0.900556	0.962556	0.133347
	C12518	C	0.932120	0.962465	0.253330
	C12519	C	0.901881	0.962693	0.129796
	N12520	N	0.840578	0.070315	0.194337
	N12521	N	0.840532	0.935713	0.194361
	N12522	N	0.840524	0.435861	0.194433
	N12523	N	0.840499	0.570438	0.194410
	N12524	N	0.932737	0.435731	0.250835
	N12525	N	0.932767	0.570186	0.250837
	N12526	N	0.932677	0.070373	0.250846
	N12527	N	0.932653	0.935916	0.250828
	O12528	O	1.007373	0.694832	0.296983
	O12529	O	1.007263	0.811122	0.297021
	O12530	O	0.888365	0.694728	0.322981
	O12531	O	0.888355	0.810756	0.323096
	O12532	O	0.888327	0.195316	0.323082
	O12533	O	0.888390	0.311351	0.323067
	O12534	O	0.883229	0.695529	0.302488
	O12535	O	0.883337	0.811473	0.302526
	O12536	O	0.883453	0.195181	0.302591
	O12537	O	0.883375	0.311254	0.302545
	O12538	O	1.007678	0.694643	0.316342
	O12539	O	1.007874	0.811512	0.316429
	O12540	O	1.007800	0.194484	0.316413
	O12541	O	1.007731	0.311094	0.316414
	O12542	O	1.007291	0.194892	0.296994
	O12543	O	1.007264	0.311119	0.297014
	O12544	O	0.950876	0.694811	0.260562
	O12545	O	0.919471	0.695557	0.261664
	O12546	O	0.975675	0.694905	0.358863
	O12547	O	0.975540	0.811207	0.358788
	O12548	O	0.944950	0.694336	0.359489
	O12549	O	0.944854	0.810655	0.359544
	O12550	O	0.919593	0.811455	0.261719
	O12551	O	0.950728	0.810926	0.260606
	O12552	O	0.950778	0.195075	0.260544
	O12553	O	0.919416	0.194809	0.261643
	O12554	O	0.975662	0.194051	0.358907
	O12555	O	0.975678	0.310388	0.358909
	O12556	O	0.944801	0.195014	0.359550
	O12557	O	0.944932	0.311088	0.359477
	O12558	O	0.919446	0.310987	0.261669
	O12559	O	0.950799	0.311090	0.260522
	H12560	H	0.906667	0.643805	0.334693
	H12561	H	0.906597	0.860923	0.334722
	H12562	H	0.906499	0.145014	0.334713
	H12563	H	0.906714	0.361543	0.334622
	H12564	H	0.895149	0.861932	0.289528
	H12565	H	0.894857	0.645554	0.289458
	H12566	H	0.894839	0.361600	0.289464
	H12567	H	0.895216	0.144918	0.289619
	H12568	H	1.025414	0.064466	0.308142
	H12569	H	1.026466	0.064648	0.307669
	H12570	H	1.026574	0.941038	0.307610
	H12571	H	1.025506	0.940974	0.308088
	H12572	H	1.023644	0.064475	0.307701
	H12573	H	1.023631	0.941120	0.307678
	H12574	H	0.871104	0.065085	0.314375
	H12575	H	0.871187	0.941331	0.314371
	H12576	H	0.871996	0.064766	0.313664
	H12577	H	0.872001	0.941666	0.313717
	H12578	H	0.871064	0.064458	0.312554
	H12579	H	0.871152	0.941563	0.312502
	H12580	H	0.866201	0.441226	0.312956
	H12581	H	0.867306	0.441659	0.314913
	H12582	H	0.869225	0.441278	0.311029
	H12583	H	1.024028	0.441255	0.301022
	H12584	H	1.034303	0.441370	0.305004
	H12585	H	1.034397	0.441060	0.310131
	H12586	H	0.867265	0.564717	0.314840
	H12587	H	0.866197	0.565252	0.312881
	H12588	H	1.034264	0.565249	0.310092
	H12589	H	1.034260	0.565002	0.305006
	H12590	H	1.024063	0.564679	0.301057
	H12591	H	0.869278	0.564729	0.310966
	H12592	H	0.995903	0.643690	0.329489
	H12593	H	0.995646	0.862472	0.329401
	H12594	H	0.995787	0.142931	0.329506
	H12595	H	0.995814	0.362140	0.329527
	H12596	H	0.907678	0.645808	0.274664
	H12597	H	0.969019	0.644544	0.272223
	H12598	H	0.969016	0.861129	0.272178
	H12599	H	0.907989	0.861570	0.274738
	H12600	H	0.989122	0.644735	0.285414
	H12601	H	0.989076	0.861295	0.285356
	H12602	H	0.985151	0.643534	0.344942
	H12603	H	0.984848	0.862514	0.344870
	H12604	H	0.934555	0.441035	0.254268
	H12605	H	0.961212	0.441621	0.370062
	H12606	H	0.928094	0.440765	0.252826
	H12607	H	0.926963	0.441236	0.249904
	H12608	H	0.963899	0.441212	0.370241
	H12609	H	0.962771	0.440964	0.370611
	H12610	H	0.961211	0.564853	0.370088
	H12611	H	0.934578	0.564676	0.254255
	H12612	H	0.962834	0.564599	0.370541
	H12613	H	0.963859	0.564340	0.370212
	H12614	H	0.927042	0.564385	0.249881
	H12615	H	0.928165	0.564298	0.252789
	H12616	H	0.985038	0.142566	0.344929
	H12617	H	0.985043	0.362072	0.344981
	H12618	H	0.929677	0.065386	0.247337
	H12619	H	0.926440	0.064336	0.249750
	H12620	H	0.936954	0.065157	0.248219
	H12621	H	0.926755	0.860933	0.347842
	H12622	H	0.926829	0.643796	0.347815
	H12623	H	0.926918	0.361391	0.347722
	H12624	H	0.926700	0.144796	0.347833
	H12625	H	0.907920	0.144771	0.274761
	H12626	H	0.969071	0.144589	0.272122
	H12627	H	0.969003	0.361439	0.272166
	H12628	H	0.907589	0.361471	0.274641
	H12629	H	0.989173	0.144781	0.285287
	H12630	H	0.989106	0.361276	0.285325
	H12631	H	0.965999	0.064631	0.369820
	H12632	H	0.964693	0.064859	0.368200
	H12633	H	0.960569	0.064567	0.367795
	H12634	H	0.926419	0.941777	0.249720
	H12635	H	0.929662	0.941587	0.247346
	H12636	H	0.936952	0.941431	0.248183
	H12637	H	0.966001	0.941266	0.369746
	H12638	H	0.964727	0.941236	0.368142
	H12639	H	0.960587	0.941361	0.367800
	Zn12640	Zn	0.870170	0.680095	0.313302
	Zn12641	Zn	0.870223	0.825826	0.313374
	Zn12642	Zn	0.870248	0.180355	0.313400
	Zn12643	Zn	0.870240	0.325687	0.313379
	Zn12644	Zn	0.962613	0.680475	0.369686
	Zn12645	Zn	0.962523	0.825522	0.369643
	Zn12646	Zn	0.962465	0.180393	0.369727
	Zn12647	Zn	0.962574	0.325689	0.369685
	C12648	C	1.002571	0.752963	0.293995
	C12649	C	0.893150	0.752580	0.326043
	C12650	C	0.905442	0.752342	0.333871
	C12651	C	0.911176	0.690897	0.337581
	C12652	C	0.911138	0.813739	0.337606
	C12653	C	0.893168	0.253333	0.326055
	C12654	C	0.905418	0.253299	0.333887
	C12655	C	0.911034	0.192029	0.337627
	C12656	C	0.911159	0.314481	0.337582
	C12657	C	0.886389	0.753496	0.299149
	C12658	C	0.894321	0.753639	0.290375
	C12659	C	0.897976	0.814961	0.286228
	C12660	C	0.897813	0.692426	0.286191
	C12661	C	0.886524	0.253179	0.299209
	C12662	C	0.894338	0.253145	0.290396
	C12663	C	0.897781	0.314567	0.286191
	C12664	C	0.897970	0.191822	0.286265
	C12665	C	1.025773	0.043301	0.307721
	C12666	C	1.025814	0.962376	0.307691
	C12667	C	0.871217	0.043746	0.313870
	C12668	C	0.871226	0.962863	0.313871
	C12669	C	0.870334	0.043499	0.312727
	C12670	C	0.870323	0.962792	0.312728
	C12671	C	0.867670	0.462729	0.313761
	C12672	C	1.021628	0.462443	0.303535
	C12673	C	1.031934	0.462586	0.307471
	C12674	C	0.867645	0.543747	0.313741
	C12675	C	1.031905	0.543648	0.307457
	C12676	C	1.021649	0.543216	0.303523
	C12677	C	1.004290	0.753063	0.319636
	C12678	C	1.004298	0.252729	0.319689
	C12679	C	0.996424	0.753055	0.328529
	C12680	C	0.993354	0.691208	0.332903
	C12681	C	0.993236	0.815026	0.332855
	C12682	C	0.996448	0.252651	0.328571
	C12683	C	0.993303	0.190592	0.332914
	C12684	C	0.993306	0.314543	0.332936
	C12685	C	1.002498	0.253007	0.293997
	C12686	C	0.955596	0.752925	0.263571
	C12687	C	0.916438	0.753479	0.265053
	C12688	C	0.940116	0.752460	0.356536
	C12689	C	0.984673	0.691661	0.282448
	C12690	C	0.984678	0.814315	0.282413
	C12691	C	0.967883	0.752958	0.271394
	C12692	C	0.908560	0.753577	0.273858
	C12693	C	0.904923	0.692505	0.278000
	C12694	C	0.973512	0.691724	0.275147
	C12695	C	0.973515	0.814204	0.275114
	C12696	C	0.905076	0.814805	0.278033
	C12697	C	0.990390	0.752971	0.286134
	C12698	C	0.978137	0.753011	0.355210
	C12699	C	0.987443	0.691135	0.341495
	C12700	C	0.987297	0.815025	0.341446
	C12701	C	0.984514	0.753027	0.345895
	C12702	C	0.961583	0.462757	0.369701
	C12703	C	0.928923	0.462536	0.251229
	C12704	C	0.963181	0.462537	0.370233
	C12705	C	0.961627	0.543423	0.369687
	C12706	C	0.963205	0.543457	0.370210
	C12707	C	0.928949	0.543309	0.251213
	C12708	C	0.978207	0.252166	0.355297
	C12709	C	0.987359	0.190431	0.341499
	C12710	C	0.987373	0.314410	0.341528
	C12711	C	0.984503	0.252341	0.345947
	C12712	C	0.929278	0.043662	0.249150
	C12713	C	0.955569	0.253123	0.263530
	C12714	C	0.916333	0.252881	0.265023
	C12715	C	0.940106	0.253024	0.356509
	C12716	C	0.984684	0.191819	0.282361
	C12717	C	0.984647	0.314265	0.282392
	C12718	C	0.967812	0.253086	0.271362
	C12719	C	0.908457	0.252945	0.273829
	C12720	C	0.927960	0.752365	0.348645
	C12721	C	0.922287	0.813801	0.344915
	C12722	C	0.922343	0.690920	0.344891
	C12723	C	0.927936	0.253038	0.348634
	C12724	C	0.922345	0.314352	0.344874
	C12725	C	0.922215	0.191898	0.344923
	C12726	C	0.904991	0.191759	0.278036
	C12727	C	0.973523	0.191790	0.275054
	C12728	C	0.973489	0.314362	0.275085
	C12729	C	0.904810	0.314447	0.277962
	C12730	C	0.990339	0.253028	0.286112
	C12731	C	0.964601	0.043423	0.369198
	C12732	C	0.936612	0.043416	0.250021
	C12733	C	0.929269	0.962959	0.249127
	C12734	C	0.964620	0.962498	0.369152
	C12735	C	0.936594	0.962630	0.250022
	N12736	N	0.870238	0.070415	0.313434
	N12737	N	0.870219	0.935958	0.313437
	N12738	N	0.870204	0.435732	0.313381
	N12739	N	0.870173	0.570177	0.313352
	N12740	N	0.962584	0.435852	0.369707
	N12741	N	0.962625	0.570400	0.369688
	N12742	N	0.962479	0.070051	0.369696
	N12743	N	0.962531	0.935497	0.369646
	O12744	O	0.964393	0.694226	0.429107
	O12745	O	0.964378	0.810972	0.429089
	O12746	O	0.912478	0.693918	0.444582
	O12747	O	0.912517	0.810878	0.444627
	O12748	O	0.912696	0.194481	0.444577
	O12749	O	0.912614	0.311195	0.444592
	O12750	O	0.913214	0.694786	0.421408
	O12751	O	0.913225	0.811279	0.421391
	O12752	O	0.913236	0.195473	0.421393
	O12753	O	0.913126	0.312152	0.421372
	O12754	O	0.963769	0.694604	0.452349
	O12755	O	0.963831	0.811157	0.452370
	O12756	O	0.963788	0.194821	0.452341
	O12757	O	0.963809	0.311309	0.452335
	O12758	O	0.964277	0.194576	0.429089
	O12759	O	0.964440	0.311598	0.429103
	O12760	O	0.975196	0.694893	0.382104
	O12761	O	0.945324	0.694426	0.378895
	O12762	O	0.931732	0.694445	0.494833
	O12763	O	0.931808	0.811267	0.494831
	O12764	O	0.901789	0.693898	0.491634
	O12765	O	0.901821	0.810739	0.491633
	O12766	O	0.945355	0.811170	0.378920
	O12767	O	0.975064	0.811912	0.382119
	O12768	O	0.975158	0.194363	0.382162
	O12769	O	0.945284	0.195354	0.378919
	O12770	O	0.931800	0.194696	0.494810
	O12771	O	0.931716	0.311327	0.494754
	O12772	O	0.902020	0.194028	0.491556
	O12773	O	0.901887	0.310991	0.491609
	O12774	O	0.945329	0.311964	0.378917
	O12775	O	0.975145	0.311207	0.382070
	H12776	H	0.909988	0.642328	0.459777
	H12777	H	0.909888	0.862233	0.459856
	H12778	H	0.909959	0.142960	0.459737
	H12779	H	0.909976	0.362776	0.459789
	H12780	H	0.922472	0.862329	0.407388
	H12781	H	0.922611	0.643355	0.407462
	H12782	H	0.922461	0.363470	0.407432
	H12783	H	0.922640	0.144251	0.407479
	H12784	H	0.984049	0.064594	0.443647
	H12785	H	0.983786	0.064920	0.439707
	H12786	H	0.983782	0.941013	0.439759
	H12787	H	0.984021	0.941227	0.443714
	H12788	H	0.976374	0.064233	0.446135
	H12789	H	0.976409	0.941355	0.446141
	H12790	H	0.900094	0.064955	0.432836
	H12791	H	0.900061	0.941137	0.432779
	H12792	H	0.900893	0.065032	0.432638
	H12793	H	0.900866	0.941362	0.432625
	H12794	H	0.900914	0.064738	0.431882
	H12795	H	0.900925	0.941468	0.431845
	H12796	H	0.899010	0.440967	0.434833
	H12797	H	0.902794	0.441090	0.434475
	H12798	H	0.895298	0.441277	0.432372
	H12799	H	0.979799	0.440785	0.445844
	H12800	H	0.971303	0.441303	0.444269
	H12801	H	0.969490	0.441117	0.440613
	H12802	H	0.902801	0.564353	0.434503
	H12803	H	0.898963	0.564354	0.434826
	H12804	H	0.969397	0.564347	0.440593
	H12805	H	0.971278	0.564436	0.444294
	H12806	H	0.979807	0.564655	0.445853
	H12807	H	0.895377	0.564869	0.432363
	H12808	H	0.954396	0.643236	0.466262
	H12809	H	0.954687	0.862482	0.466321
	H12810	H	0.954575	0.143656	0.466244
	H12811	H	0.954552	0.362606	0.466321
	H12812	H	0.933341	0.643219	0.391993
	H12813	H	0.972599	0.643160	0.397299
	H12814	H	0.972428	0.863109	0.397350
	H12815	H	0.933189	0.862159	0.391910
	H12816	H	0.967137	0.642927	0.413903
	H12817	H	0.966940	0.862893	0.413941
	H12818	H	0.943692	0.643039	0.481722
	H12819	H	0.943953	0.862630	0.481782
	H12820	H	0.961122	0.441718	0.369299
	H12821	H	0.908792	0.440866	0.502097
	H12822	H	0.962555	0.441071	0.368782
	H12823	H	0.963721	0.441342	0.369178
	H12824	H	0.914859	0.440637	0.507809
	H12825	H	0.909912	0.441297	0.506464
	H12826	H	0.908780	0.564287	0.502105
	H12827	H	0.961192	0.564606	0.369296
	H12828	H	0.909881	0.564196	0.506483
	H12829	H	0.914852	0.564708	0.507850
	H12830	H	0.963720	0.564479	0.369135
	H12831	H	0.962624	0.564466	0.368796
	H12832	H	0.943706	0.143285	0.481676
	H12833	H	0.943698	0.362422	0.481723
	H12834	H	0.960716	0.064781	0.371449
	H12835	H	0.963628	0.064396	0.371719
	H12836	H	0.959013	0.064943	0.369272
	H12837	H	0.904546	0.861924	0.476492
	H12838	H	0.904631	0.642003	0.476426
	H12839	H	0.904739	0.362728	0.476442
	H12840	H	0.904678	0.142752	0.476362
	H12841	H	0.933476	0.144195	0.392066
	H12842	H	0.972380	0.143031	0.397303
	H12843	H	0.972324	0.362955	0.397278
	H12844	H	0.933282	0.363527	0.391979
	H12845	H	0.967144	0.143162	0.413934
	H12846	H	0.967042	0.362916	0.413905
	H12847	H	0.917347	0.064799	0.504244
	H12848	H	0.916385	0.064461	0.502878
	H12849	H	0.913145	0.064322	0.502458
	H12850	H	0.963730	0.941645	0.371681
	H12851	H	0.960739	0.940856	0.371427
	H12852	H	0.958985	0.941217	0.369220
	H12853	H	0.917306	0.941362	0.504271
	H12854	H	0.916395	0.941644	0.502839
	H12855	H	0.913105	0.941578	0.502375
	Zn12856	Zn	0.899981	0.680450	0.432162
	Zn12857	Zn	0.900087	0.825488	0.432193
	Zn12858	Zn	0.900045	0.180592	0.432160
	Zn12859	Zn	0.899985	0.325615	0.432204
	Zn12860	Zn	0.914576	0.680258	0.504074
	Zn12861	Zn	0.914468	0.825368	0.504017
	Zn12862	Zn	0.914558	0.180376	0.504052
	Zn12863	Zn	0.914402	0.325319	0.503984
	C12864	C	0.964628	0.752587	0.425082
	C12865	C	0.912335	0.752334	0.448612
	C12866	C	0.910416	0.752300	0.458819
	C12867	C	0.908818	0.690008	0.463499
	C12868	C	0.908784	0.814390	0.463550
	C12869	C	0.912365	0.252800	0.448602
	C12870	C	0.910446	0.252914	0.458783
	C12871	C	0.908809	0.190677	0.463456
	C12872	C	0.908828	0.315020	0.463495
	C12873	C	0.915727	0.752995	0.417776
	C12874	C	0.922067	0.752790	0.408427
	C12875	C	0.924868	0.814702	0.403964
	C12876	C	0.924958	0.690818	0.404003
	C12877	C	0.915650	0.253841	0.417759
	C12878	C	0.922032	0.253854	0.408421
	C12879	C	0.924851	0.315852	0.403990
	C12880	C	0.924942	0.191901	0.404017
	C12881	C	0.982004	0.043285	0.441636
	C12882	C	0.981986	0.962289	0.441652
	C12883	C	0.900382	0.043594	0.432586
	C12884	C	0.900388	0.962686	0.432567
	C12885	C	0.900456	0.043389	0.431857
	C12886	C	0.900474	0.962540	0.431853
	C12887	C	0.900699	0.462454	0.434003
	C12888	C	0.980549	0.462417	0.443740
	C12889	C	0.972084	0.462454	0.442210
	C12890	C	0.900694	0.543190	0.434006
	C12891	C	0.972046	0.543151	0.442208
	C12892	C	0.980585	0.543292	0.443746
	C12893	C	0.961231	0.752866	0.455955
	C12894	C	0.961315	0.253111	0.455959
	C12895	C	0.954950	0.752799	0.465296
	C12896	C	0.952098	0.690788	0.469723
	C12897	C	0.952256	0.814855	0.469751
	C12898	C	0.954957	0.253145	0.465292
	C12899	C	0.952146	0.191139	0.469702
	C12900	C	0.952152	0.314960	0.469740
	C12901	C	0.964653	0.253078	0.425100
	C12902	C	0.974948	0.753356	0.386113
	C12903	C	0.941838	0.752778	0.382157
	C12904	C	0.902064	0.752243	0.487634
	C12905	C	0.968283	0.690691	0.410210
	C12906	C	0.968176	0.815135	0.410228
	C12907	C	0.973003	0.753157	0.396316
	C12908	C	0.933976	0.752676	0.391039
	C12909	C	0.930880	0.690752	0.395410
	C12910	C	0.971398	0.690937	0.401002
	C12911	C	0.971283	0.815283	0.401018
	C12912	C	0.930784	0.814645	0.395366
	C12913	C	0.966606	0.752810	0.414905
	C12914	C	0.935214	0.752814	0.491557
	C12915	C	0.946182	0.690746	0.478320
	C12916	C	0.946338	0.814889	0.478343
	C12917	C	0.943076	0.752820	0.482666
	C12918	C	0.911808	0.462144	0.501946
	C12919	C	0.963042	0.462394	0.369156
	C12920	C	0.912898	0.462340	0.506337
	C12921	C	0.911802	0.543248	0.501955
	C12922	C	0.912898	0.543299	0.506359
	C12923	C	0.963064	0.543350	0.369158
	C12924	C	0.935229	0.252958	0.491522
	C12925	C	0.946259	0.190982	0.478300
	C12926	C	0.946248	0.314886	0.478329
	C12927	C	0.943158	0.252891	0.482676
	C12928	C	0.962288	0.043319	0.371103
	C12929	C	0.974884	0.252948	0.386116
	C12930	C	0.941830	0.253687	0.382182
	C12931	C	0.902228	0.252577	0.487593
	C12932	C	0.968215	0.190800	0.410217
	C12933	C	0.968166	0.315167	0.410201
	C12934	C	0.972922	0.252976	0.396304
	C12935	C	0.933895	0.253811	0.391028
	C12936	C	0.904078	0.751969	0.477440
	C12937	C	0.905705	0.814268	0.472766
	C12938	C	0.905730	0.689783	0.472715
	C12939	C	0.904110	0.252765	0.477393
	C12940	C	0.905789	0.314931	0.472716
	C12941	C	0.905753	0.190684	0.472670
	C12942	C	0.930863	0.191867	0.395424
	C12943	C	0.971306	0.190788	0.401006
	C12944	C	0.971259	0.315179	0.400991
	C12945	C	0.930772	0.315843	0.395387
	C12946	C	0.966584	0.253002	0.414908
	C12947	C	0.916192	0.043559	0.503679
	C12948	C	0.960513	0.043391	0.368852
	C12949	C	0.962314	0.962497	0.371081
	C12950	C	0.916187	0.962725	0.503675
	C12951	C	0.960519	0.962683	0.368830
	N12952	N	0.900118	0.070247	0.432197
	N12953	N	0.900101	0.935653	0.432160
	N12954	N	0.899958	0.435871	0.432196
	N12955	N	0.899957	0.570446	0.432198
	N12956	N	0.914406	0.435613	0.504033
	N12957	N	0.914416	0.570207	0.504065
	N12958	N	0.914468	0.069982	0.504025
	N12959	N	0.914397	0.935389	0.503996
	O12960	O	0.989199	0.695388	0.550277
	O12961	O	0.989205	0.811443	0.550360
	O12962	O	0.869715	0.694334	0.576673
	O12963	O	0.869749	0.810743	0.576618
	O12964	O	0.869688	0.194348	0.576655
	O12965	O	0.869565	0.310440	0.576680
	O12966	O	0.869152	0.694290	0.557270
	O12967	O	0.869225	0.811087	0.557287
	O12968	O	0.869231	0.194549	0.557299
	O12969	O	0.869219	0.311351	0.557302
	O12970	O	0.994207	0.694842	0.570805
	O12971	O	0.994367	0.811038	0.570814
	O12972	O	0.994303	0.195020	0.570775
	O12973	O	0.994505	0.311019	0.570853
	O12974	O	0.989076	0.194950	0.550331
	O12975	O	0.989257	0.311166	0.550300
	O12976	O	0.932287	0.695395	0.514175
	O12977	O	0.901260	0.694496	0.514827
	O12978	O	0.958032	0.694420	0.611612
	O12979	O	0.957935	0.810539	0.611610
	O12980	O	0.926728	0.694721	0.612884
	O12981	O	0.926630	0.810915	0.612825
	O12982	O	0.901202	0.810886	0.514784
	O12983	O	0.932194	0.811494	0.514183
	O12984	O	0.932171	0.195213	0.514194
	O12985	O	0.901386	0.194937	0.514831
	O12986	O	0.958040	0.195090	0.611590
	O12987	O	0.957880	0.311238	0.611588
	O12988	O	0.926679	0.194431	0.612882
	O12989	O	0.926556	0.310314	0.612860
	O12990	O	0.901381	0.311291	0.514847
	O12991	O	0.932066	0.311279	0.514197
	H12992	H	0.888080	0.643562	0.588271
	H12993	H	0.888009	0.861333	0.588200
	H12994	H	0.887982	0.143877	0.588240
	H12995	H	0.887897	0.360475	0.588244
	H12996	H	0.881164	0.862288	0.544203
	H12997	H	0.881007	0.643247	0.544131
	H12998	H	0.881115	0.362604	0.544234
	H12999	H	0.881321	0.143475	0.544220
	H13000	H	1.009314	0.064623	0.558250
	H13001	H	1.006372	0.064300	0.557864
	H13002	H	1.006467	0.941178	0.557926
	H13003	H	1.009358	0.941303	0.558278
	H13004	H	1.010756	0.064654	0.560571
	H13005	H	1.010837	0.941282	0.560554
	H13006	H	0.855199	0.064639	0.565441
	H13007	H	0.855261	0.941779	0.565496
	H13008	H	0.852452	0.064772	0.564296
	H13009	H	0.852494	0.941195	0.564260
	H13010	H	0.848502	0.064252	0.565359
	H13011	H	0.848453	0.941322	0.565334
	H13012	H	0.855648	0.441052	0.563278
	H13013	H	0.849884	0.440943	0.562523
	H13014	H	0.858690	0.441870	0.567816
	H13015	H	1.005357	0.440979	0.558322
	H13016	H	1.009098	0.441259	0.558293
	H13017	H	1.010695	0.441040	0.559768
	H13018	H	0.849919	0.565132	0.562469
	H13019	H	0.855687	0.564614	0.563242
	H13020	H	1.010605	0.564446	0.559738
	H13021	H	1.009050	0.564466	0.558330
	H13022	H	1.005274	0.564220	0.558300
	H13023	H	0.858640	0.564289	0.567773
	H13024	H	0.982489	0.644610	0.583767
	H13025	H	0.982635	0.861147	0.583848
	H13026	H	0.982789	0.145240	0.583858
	H13027	H	0.982501	0.361404	0.583778
	H13028	H	0.891786	0.643152	0.528690
	H13029	H	0.950588	0.646059	0.525697
	H13030	H	0.950526	0.861638	0.525790
	H13031	H	0.891971	0.862366	0.528754
	H13032	H	0.970916	0.646219	0.538738
	H13033	H	0.970855	0.861694	0.538832
	H13034	H	0.969625	0.644249	0.598529
	H13035	H	0.969709	0.861037	0.598626
	H13036	H	0.912955	0.440711	0.500294
	H13037	H	0.947868	0.441183	0.624415
	H13038	H	0.919820	0.441288	0.502169
	H13039	H	0.920620	0.441072	0.505407
	H13040	H	0.945876	0.440650	0.620069
	H13041	H	0.948702	0.440685	0.621569
	H13042	H	0.947936	0.564335	0.624401
	H13043	H	0.913001	0.564871	0.500353
	H13044	H	0.948671	0.564232	0.621540
	H13045	H	0.945930	0.564067	0.620068
	H13046	H	0.920630	0.564606	0.505416
	H13047	H	0.919789	0.564062	0.502161
	H13048	H	0.969866	0.145249	0.598622
	H13049	H	0.969542	0.361617	0.598520
	H13050	H	0.912973	0.064963	0.505449
	H13051	H	0.915400	0.064474	0.505699
	H13052	H	0.911592	0.065029	0.503510
	H13053	H	0.908269	0.861513	0.601269
	H13054	H	0.908346	0.643504	0.601327
	H13055	H	0.908175	0.360179	0.601296
	H13056	H	0.908289	0.143961	0.601304
	H13057	H	0.892152	0.143704	0.528777
	H13058	H	0.950402	0.145106	0.525785
	H13059	H	0.950381	0.361988	0.525799
	H13060	H	0.891889	0.362840	0.528772
	H13061	H	0.970786	0.145147	0.538815
	H13062	H	0.970690	0.361861	0.538831
	H13063	H	0.942321	0.064378	0.622638
	H13064	H	0.943670	0.063700	0.623788
	H13065	H	0.946710	0.064285	0.623713
	H13066	H	0.915310	0.941757	0.505691
	H13067	H	0.912833	0.941127	0.505463
	H13068	H	0.911554	0.940744	0.503490
	H13069	H	0.942373	0.940615	0.622603
	H13070	H	0.943649	0.940904	0.623749
	H13071	H	0.946674	0.940924	0.623689
	Zn13072	Zn	0.851925	0.680507	0.566451
	Zn13073	Zn	0.852007	0.825598	0.566503
	Zn13074	Zn	0.851894	0.180450	0.566518
	Zn13075	Zn	0.851943	0.325525	0.566597
	Zn13076	Zn	0.944942	0.679764	0.622462
	Zn13077	Zn	0.944888	0.825214	0.622448
	Zn13078	Zn	0.945019	0.179896	0.622465
	Zn13079	Zn	0.944819	0.325259	0.622481
	C13080	C	0.984407	0.753539	0.547338
	C13081	C	0.874571	0.752517	0.579608
	C13082	C	0.886837	0.752475	0.587446
	C13083	C	0.892563	0.690845	0.591178
	C13084	C	0.892514	0.814085	0.591139
	C13085	C	0.874468	0.252403	0.579626
	C13086	C	0.886776	0.252208	0.587414
	C13087	C	0.892519	0.190894	0.591129
	C13088	C	0.892443	0.313400	0.591129
	C13089	C	0.872644	0.752683	0.554010
	C13090	C	0.880503	0.752720	0.545118
	C13091	C	0.883678	0.814719	0.540783
	C13092	C	0.883582	0.690739	0.540742
	C13093	C	0.872713	0.252967	0.554042
	C13094	C	0.880612	0.253032	0.545175
	C13095	C	0.883683	0.315069	0.540823
	C13096	C	0.883817	0.191153	0.540816
	C13097	C	1.007766	0.043316	0.558543
	C13098	C	1.007788	0.962564	0.558552
	C13099	C	0.853291	0.043499	0.565317
	C13100	C	0.853302	0.962657	0.565308
	C13101	C	0.849335	0.043312	0.566366
	C13102	C	0.849316	0.962516	0.566367
	C13103	C	0.852509	0.462327	0.563855
	C13104	C	1.005420	0.462305	0.559279
	C13105	C	1.009236	0.462403	0.559287
	C13106	C	0.852532	0.543546	0.563819
	C13107	C	1.009203	0.543197	0.559273
	C13108	C	1.005370	0.543092	0.559267
	C13109	C	0.991199	0.753010	0.574164
	C13110	C	0.991301	0.253086	0.574182
	C13111	C	0.983281	0.752942	0.582961
	C13112	C	0.979655	0.691495	0.587087
	C13113	C	0.979708	0.814173	0.587129
	C13114	C	0.983366	0.253256	0.582962
	C13115	C	0.979806	0.192019	0.587124
	C13116	C	0.979677	0.314559	0.587092
	C13117	C	0.984334	0.253175	0.547368
	C13118	C	0.937061	0.753534	0.517135
	C13119	C	0.898670	0.752731	0.518410
	C13120	C	0.921874	0.752658	0.609883
	C13121	C	0.966341	0.692917	0.535868
	C13122	C	0.966285	0.814973	0.535921
	C13123	C	0.949346	0.753787	0.524940
	C13124	C	0.892329	0.752799	0.527726
	C13125	C	0.889468	0.690786	0.532142
	C13126	C	0.955091	0.692845	0.528614
	C13127	C	0.955038	0.814934	0.528664
	C13128	C	0.889561	0.814744	0.532176
	C13129	C	0.972045	0.753905	0.539575
	C13130	C	0.961086	0.752545	0.608248
	C13131	C	0.972540	0.691358	0.595278
	C13132	C	0.972597	0.814039	0.595326
	C13133	C	0.968986	0.752632	0.599460
	C13134	C	0.945842	0.462261	0.624146
	C13135	C	0.918693	0.462465	0.503860
	C13136	C	0.946635	0.461951	0.621261
	C13137	C	0.945871	0.543065	0.624118
	C13138	C	0.946649	0.542876	0.621250
	C13139	C	0.918678	0.542891	0.503876
	C13140	C	0.961107	0.253267	0.608244
	C13141	C	0.972655	0.192146	0.595306
	C13142	C	0.972507	0.314700	0.595265
	C13143	C	0.969015	0.253439	0.599452
	C13144	C	0.914190	0.043300	0.505155
	C13145	C	0.936923	0.253396	0.517177
	C13146	C	0.898857	0.253107	0.518457
	C13147	C	0.921805	0.252242	0.609883
	C13148	C	0.966236	0.192100	0.535903
	C13149	C	0.966199	0.314800	0.535920
	C13150	C	0.949223	0.253554	0.524978
	C13151	C	0.892549	0.253257	0.527806
	C13152	C	0.909512	0.752455	0.602114
	C13153	C	0.903751	0.814074	0.598403
	C13154	C	0.903796	0.690855	0.598439
	C13155	C	0.909467	0.251976	0.602079
	C13156	C	0.903682	0.313179	0.598390
	C13157	C	0.903752	0.190864	0.598388
	C13158	C	0.889767	0.191283	0.532233
	C13159	C	0.954954	0.192195	0.528665
	C13160	C	0.954926	0.314825	0.528685
	C13161	C	0.889629	0.315154	0.532238
	C13162	C	0.971958	0.253407	0.539598
	C13163	C	0.943528	0.042864	0.623015
	C13164	C	0.912886	0.043275	0.503263
	C13165	C	0.914127	0.962501	0.505148
	C13166	C	0.943516	0.962111	0.622989
	C13167	C	0.912848	0.962258	0.503235
	N13168	N	0.851925	0.070291	0.566535
	N13169	N	0.851912	0.935752	0.566521
	N13170	N	0.851816	0.435697	0.566592
	N13171	N	0.851815	0.570311	0.566532
	N13172	N	0.944781	0.435256	0.622503
	N13173	N	0.944827	0.569749	0.622489
	N13174	N	0.944964	0.069822	0.622443
	N13175	N	0.944929	0.935328	0.622421
	O13176	O	1.019715	0.695030	0.668407
	O13177	O	1.019797	0.811350	0.668392
	O13178	O	0.900584	0.695159	0.694598
	O13179	O	0.900538	0.811102	0.694571
	O13180	O	0.900601	0.195299	0.694624
	O13181	O	0.900687	0.311270	0.694573
	O13182	O	0.895576	0.695039	0.674083
	O13183	O	0.895651	0.811136	0.674136
	O13184	O	0.895277	0.195027	0.674044
	O13185	O	0.895494	0.311161	0.674182
	O13186	O	1.020132	0.694929	0.687814
	O13187	O	1.020159	0.811585	0.687786
	O13188	O	1.020129	0.194162	0.687855
	O13189	O	1.020075	0.311022	0.687764
	O13190	O	1.019815	0.194987	0.668405
	O13191	O	1.019689	0.311438	0.668472
	O13192	O	0.963012	0.694794	0.632166
	O13193	O	0.931777	0.694973	0.633289
	O13194	O	0.988110	0.694704	0.730288
	O13195	O	0.988160	0.811187	0.730362
	O13196	O	0.957238	0.695005	0.730918
	O13197	O	0.957251	0.811312	0.730872
	O13198	O	0.931636	0.810844	0.633208
	O13199	O	0.963101	0.810913	0.632079
	O13200	O	0.963215	0.195141	0.632104
	O13201	O	0.931825	0.194482	0.633330
	O13202	O	0.987980	0.194870	0.730311
	O13203	O	0.987955	0.311332	0.730296
	O13204	O	0.957259	0.195368	0.730931
	O13205	O	0.957190	0.311417	0.731004
	O13206	O	0.931815	0.310658	0.633380
	O13207	O	0.963045	0.311258	0.632144
	H13208	H	0.918766	0.645086	0.706235
	H13209	H	0.918704	0.861341	0.706181
	H13210	H	0.918835	0.145528	0.706210
	H13211	H	0.918961	0.361647	0.706179
	H13212	H	0.907231	0.861013	0.661130
	H13213	H	0.907266	0.645305	0.661109
	H13214	H	0.907246	0.360906	0.661148
	H13215	H	0.906966	0.144431	0.661038
	H13216	H	1.032611	0.063950	0.676665
	H13217	H	1.032142	0.064318	0.679493
	H13218	H	1.032236	0.940843	0.679466
	H13219	H	1.032690	0.941085	0.676658
	H13220	H	1.038534	0.064531	0.675374
	H13221	H	1.038566	0.940767	0.675362
	H13222	H	0.877680	0.064372	0.683952
	H13223	H	0.877681	0.941015	0.683836
	H13224	H	0.878306	0.064342	0.686430
	H13225	H	0.878224	0.941416	0.686349
	H13226	H	0.883641	0.064821	0.687890
	H13227	H	0.883616	0.940899	0.687854
	H13228	H	0.876759	0.441176	0.685142
	H13229	H	0.879175	0.441552	0.687617
	H13230	H	0.879745	0.441407	0.681869
	H13231	H	1.040590	0.441399	0.678528
	H13232	H	1.038721	0.441511	0.680317
	H13233	H	1.036177	0.441192	0.680224
	H13234	H	0.879198	0.564792	0.687565
	H13235	H	0.876787	0.565070	0.685055
	H13236	H	1.036108	0.564648	0.680259
	H13237	H	1.038744	0.564567	0.680376
	H13238	H	1.040537	0.564946	0.678562
	H13239	H	0.879916	0.564540	0.681802
	H13240	H	1.008362	0.643993	0.700947
	H13241	H	1.008280	0.863118	0.700949
	H13242	H	1.008299	0.142999	0.700974
	H13243	H	1.007765	0.362528	0.700785
	H13244	H	0.920043	0.645009	0.646291
	H13245	H	0.981327	0.644548	0.643679
	H13246	H	0.981444	0.861686	0.643646
	H13247	H	0.920033	0.861198	0.646300
	H13248	H	1.001521	0.644678	0.656795
	H13249	H	1.001615	0.861773	0.656753
	H13250	H	0.997601	0.643835	0.716389
	H13251	H	0.997492	0.862926	0.716399
	H13252	H	0.944488	0.441028	0.625016
	H13253	H	0.982280	0.441172	0.741194
	H13254	H	0.940682	0.440827	0.623016
	H13255	H	0.941238	0.440941	0.620906
	H13256	H	0.970847	0.441809	0.737300
	H13257	H	0.976986	0.440960	0.737002
	H13258	H	0.982186	0.565276	0.741207
	H13259	H	0.944531	0.564433	0.625004
	H13260	H	0.977070	0.564913	0.736973
	H13261	H	0.970925	0.564512	0.737271
	H13262	H	0.941321	0.564057	0.620906
	H13263	H	0.940775	0.564266	0.623012
	H13264	H	0.997559	0.143178	0.716449
	H13265	H	0.997011	0.362685	0.716263
	H13266	H	0.945847	0.064174	0.621001
	H13267	H	0.943627	0.064208	0.621010
	H13268	H	0.947666	0.064322	0.622562
	H13269	H	0.938933	0.861390	0.719279
	H13270	H	0.938966	0.645082	0.719333
	H13271	H	0.939117	0.361663	0.719310
	H13272	H	0.939001	0.145704	0.719342
	H13273	H	0.919946	0.144229	0.646305
	H13274	H	0.981421	0.144788	0.643691
	H13275	H	0.981342	0.362133	0.643764
	H13276	H	0.920199	0.360621	0.646385
	H13277	H	1.001565	0.144547	0.656826
	H13278	H	1.001436	0.362237	0.656911
	H13279	H	0.976377	0.064416	0.742807
	H13280	H	0.977990	0.064474	0.741657
	H13281	H	0.976670	0.064958	0.739581
	H13282	H	0.943663	0.940460	0.621038
	H13283	H	0.945794	0.940985	0.620989
	H13284	H	0.947564	0.941294	0.622520
	H13285	H	0.976468	0.941116	0.742847
	H13286	H	0.978079	0.941303	0.741680
	H13287	H	0.976603	0.941212	0.739543
	Zn13288	Zn	0.882471	0.680385	0.684888
	Zn13289	Zn	0.882392	0.825941	0.684891
	Zn13290	Zn	0.882421	0.180184	0.684994
	Zn13291	Zn	0.882272	0.326056	0.684990
	Zn13292	Zn	0.974865	0.680349	0.741074
	Zn13293	Zn	0.974852	0.825325	0.741119
	Zn13294	Zn	0.974912	0.180295	0.741116
	Zn13295	Zn	0.974849	0.325596	0.741149
	C13296	C	1.014985	0.753215	0.665403
	C13297	C	0.905319	0.753163	0.697595
	C13298	C	0.917585	0.753246	0.705407
	C13299	C	0.923314	0.692059	0.709122
	C13300	C	0.923264	0.814484	0.709094
	C13301	C	0.905444	0.253337	0.697586
	C13302	C	0.917698	0.253546	0.705413
	C13303	C	0.923364	0.192434	0.709121
	C13304	C	0.923440	0.314715	0.709108
	C13305	C	0.898688	0.753099	0.670742
	C13306	C	0.906501	0.753090	0.661917
	C13307	C	0.910091	0.814277	0.657785
	C13308	C	0.910100	0.691913	0.657778
	C13309	C	0.898507	0.253115	0.670763
	C13310	C	0.906366	0.252900	0.661961
	C13311	C	0.910049	0.314046	0.657832
	C13312	C	0.909906	0.191342	0.657778
	C13313	C	1.033784	0.042996	0.678212
	C13314	C	1.033805	0.962296	0.678189
	C13315	C	0.879150	0.043094	0.685109
	C13316	C	0.879141	0.962498	0.685055
	C13317	C	0.884533	0.043558	0.686607
	C13318	C	0.884514	0.962456	0.686596
	C13319	C	0.879119	0.462736	0.686002
	C13320	C	1.039275	0.462529	0.678046
	C13321	C	1.037483	0.462574	0.679840
	C13322	C	0.879151	0.543618	0.685964
	C13323	C	1.037463	0.543151	0.679863
	C13324	C	1.039253	0.543456	0.678046
	C13325	C	1.016724	0.753357	0.691089
	C13326	C	1.016636	0.252747	0.691075
	C13327	C	1.008940	0.753612	0.700009
	C13328	C	1.005834	0.691622	0.704355
	C13329	C	1.005803	0.815510	0.704366
	C13330	C	1.008828	0.252880	0.699983
	C13331	C	1.005786	0.190852	0.704374
	C13332	C	1.005488	0.314903	0.704273
	C13333	C	1.014975	0.253208	0.665452
	C13334	C	0.967864	0.752949	0.635095
	C13335	C	0.928603	0.752973	0.636600
	C13336	C	0.952438	0.753152	0.727921
	C13337	C	0.997058	0.691738	0.653858
	C13338	C	0.997115	0.814575	0.653835
	C13339	C	0.980163	0.753106	0.642875
	C13340	C	0.920677	0.753058	0.645377
	C13341	C	0.917148	0.691902	0.649562
	C13342	C	0.985838	0.691737	0.646597
	C13343	C	0.985902	0.814503	0.646575
	C13344	C	0.917135	0.814270	0.649564
	C13345	C	1.002777	0.753191	0.657552
	C13346	C	0.990718	0.753069	0.726737
	C13347	C	0.999952	0.691558	0.712961
	C13348	C	0.999901	0.815385	0.712967
	C13349	C	0.997094	0.753368	0.717412
	C13350	C	0.979538	0.462445	0.742370
	C13351	C	0.941993	0.462137	0.622109
	C13352	C	0.974219	0.462605	0.738174
	C13353	C	0.979529	0.543254	0.742392
	C13354	C	0.974251	0.543359	0.738182
	C13355	C	0.942041	0.542929	0.622095
	C13356	C	0.990522	0.253070	0.726704
	C13357	C	0.999867	0.190818	0.712977
	C13358	C	0.999567	0.314968	0.712876
	C13359	C	0.996901	0.252955	0.717366
	C13360	C	0.944798	0.042941	0.621384
	C13361	C	0.967937	0.253323	0.635095
	C13362	C	0.928690	0.252473	0.636706
	C13363	C	0.952433	0.253462	0.727988
	C13364	C	0.997106	0.191751	0.653877
	C13365	C	0.997051	0.314964	0.653920
	C13366	C	0.980245	0.253446	0.642895
	C13367	C	0.920681	0.252432	0.645470
	C13368	C	0.940195	0.753243	0.720094
	C13369	C	0.934464	0.814378	0.716367
	C13370	C	0.934513	0.692115	0.716397
	C13371	C	0.940225	0.253632	0.720139
	C13372	C	0.934593	0.314780	0.716403
	C13373	C	0.934525	0.192578	0.716413
	C13374	C	0.917032	0.191137	0.649586
	C13375	C	0.985935	0.191949	0.646597
	C13376	C	0.985880	0.314916	0.646635
	C13377	C	0.917171	0.313803	0.649638
	C13378	C	1.002818	0.253311	0.657577
	C13379	C	0.976669	0.043349	0.741943
	C13380	C	0.946597	0.042973	0.622965
	C13381	C	0.944776	0.962094	0.621392
	C13382	C	0.976696	0.962541	0.741945
	C13383	C	0.946535	0.962140	0.622942
	N13384	N	0.882482	0.070237	0.684978
	N13385	N	0.882438	0.935813	0.684926
	N13386	N	0.882233	0.436039	0.684980
	N13387	N	0.882321	0.570485	0.684928
	N13388	N	0.974996	0.435589	0.741137
	N13389	N	0.974986	0.570145	0.741121
	N13390	N	0.975008	0.070178	0.741117
	N13391	N	0.974979	0.935563	0.741128
	O13392	O	0.976926	0.693268	0.800582
	O13393	O	0.976852	0.810227	0.800602
	O13394	O	0.924940	0.694617	0.816144
	O13395	O	0.925214	0.811305	0.816086
	O13396	O	0.925048	0.194641	0.816117
	O13397	O	0.925104	0.311677	0.816089
	O13398	O	0.925675	0.694311	0.792860
	O13399	O	0.925719	0.810805	0.792876
	O13400	O	0.925652	0.194165	0.792839
	O13401	O	0.925495	0.310533	0.792799
	O13402	O	0.976103	0.694408	0.823761
	O13403	O	0.975998	0.811039	0.823714
	O13404	O	0.975930	0.194601	0.823688
	O13405	O	0.976021	0.310853	0.823749
	O13406	O	0.976887	0.194974	0.800569
	O13407	O	0.977064	0.311930	0.800551
	O13408	O	0.987470	0.693980	0.753515
	O13409	O	0.957583	0.694748	0.750300
	O13410	O	0.944176	0.694568	0.866315
	O13411	O	0.944393	0.811317	0.866381
	O13412	O	0.914254	0.695017	0.863124
	O13413	O	0.914478	0.811971	0.863081
	O13414	O	0.957554	0.811411	0.750330
	O13415	O	0.987246	0.810996	0.753547
	O13416	O	0.987362	0.194844	0.753517
	O13417	O	0.957633	0.194281	0.750291
	O13418	O	0.944337	0.194784	0.866369
	O13419	O	0.944283	0.311538	0.866375
	O13420	O	0.914452	0.194136	0.863133
	O13421	O	0.914354	0.310963	0.863074
	O13422	O	0.957616	0.311109	0.750368
	O13423	O	0.987556	0.311572	0.753506
	H13424	H	0.922461	0.643162	0.831344
	H13425	H	0.922314	0.863119	0.831267
	H13426	H	0.922566	0.142882	0.831312
	H13427	H	0.922401	0.362838	0.831296
	H13428	H	0.934953	0.862246	0.778909
	H13429	H	0.935085	0.643077	0.778898
	H13430	H	0.934877	0.362029	0.778891
	H13431	H	0.934933	0.142865	0.778847
	H13432	H	0.986343	0.065112	0.820522
	H13433	H	0.997288	0.064273	0.819618
	H13434	H	0.997227	0.941279	0.819604
	H13435	H	0.986363	0.940920	0.820532
	H13436	H	0.976140	0.065305	0.813229
	H13437	H	0.976170	0.940999	0.813209
	H13438	H	0.916606	0.064760	0.804190
	H13439	H	0.916557	0.941030	0.804168
	H13440	H	0.915648	0.064266	0.802245
	H13441	H	0.915608	0.941074	0.802309
	H13442	H	0.911247	0.064324	0.801425
	H13443	H	0.911244	0.941400	0.801465
	H13444	H	0.912325	0.441590	0.802393
	H13445	H	0.910879	0.441135	0.802906
	H13446	H	0.914347	0.441708	0.803195
	H13447	H	0.988082	0.441441	0.816794
	H13448	H	0.983112	0.441540	0.813295
	H13449	H	0.984730	0.441356	0.810347
	H13450	H	0.910875	0.564634	0.802887
	H13451	H	0.912336	0.564900	0.802433
	H13452	H	0.984687	0.564884	0.810288
	H13453	H	0.983057	0.564991	0.813267
	H13454	H	0.988127	0.564540	0.816782
	H13455	H	0.914327	0.565095	0.803184
	H13456	H	0.966839	0.643238	0.837742
	H13457	H	0.966800	0.862382	0.837718
	H13458	H	0.966423	0.143342	0.837656
	H13459	H	0.966962	0.362284	0.837792
	H13460	H	0.945725	0.643011	0.763449
	H13461	H	0.984925	0.642081	0.768740
	H13462	H	0.984566	0.862168	0.768721
	H13463	H	0.945574	0.862451	0.763418
	H13464	H	0.979642	0.641880	0.785368
	H13465	H	0.979259	0.861890	0.785357
	H13466	H	0.956160	0.643315	0.853228
	H13467	H	0.956109	0.862460	0.853181
	H13468	H	0.979990	0.441144	0.744486
	H13469	H	0.925626	0.441289	0.875404
	H13470	H	0.971658	0.441215	0.744927
	H13471	H	0.967746	0.441263	0.741815
	H13472	H	0.927324	0.441227	0.876233
	H13473	H	0.926304	0.441078	0.876225
	H13474	H	0.925648	0.565099	0.875414
	H13475	H	0.979959	0.564005	0.744492
	H13476	H	0.926326	0.564527	0.876143
	H13477	H	0.927359	0.564289	0.876214
	H13478	H	0.967779	0.564822	0.741750
	H13479	H	0.971554	0.564362	0.744890
	H13480	H	0.955903	0.143646	0.853163
	H13481	H	0.956467	0.362523	0.853305
	H13482	H	0.971803	0.064167	0.740830
	H13483	H	0.972817	0.064197	0.742384
	H13484	H	0.974052	0.064856	0.739248
	H13485	H	0.916994	0.863277	0.847888
	H13486	H	0.917132	0.643280	0.847967
	H13487	H	0.916990	0.362642	0.847917
	H13488	H	0.917106	0.142689	0.847928
	H13489	H	0.945665	0.142963	0.763386
	H13490	H	0.984826	0.143666	0.768699
	H13491	H	0.984996	0.363137	0.768741
	H13492	H	0.945583	0.362086	0.763417
	H13493	H	0.979449	0.143571	0.785321
	H13494	H	0.979573	0.363186	0.785348
	H13495	H	0.930586	0.064749	0.875600
	H13496	H	0.929140	0.064832	0.873953
	H13497	H	0.924971	0.064470	0.873782
	H13498	H	0.972744	0.941093	0.742413
	H13499	H	0.971803	0.941067	0.740852
	H13500	H	0.974076	0.940692	0.739274
	H13501	H	0.930557	0.941058	0.875551
	H13502	H	0.929095	0.941436	0.873921
	H13503	H	0.924991	0.941538	0.873795
	Zn13504	Zn	0.912540	0.680491	0.803673
	Zn13505	Zn	0.912614	0.825566	0.803662
	Zn13506	Zn	0.912573	0.180329	0.803693
	Zn13507	Zn	0.912528	0.325531	0.803674
	Zn13508	Zn	0.926910	0.680358	0.875517
	Zn13509	Zn	0.927039	0.825541	0.875526
	Zn13510	Zn	0.927030	0.180379	0.875535
	Zn13511	Zn	0.926882	0.325341	0.875525
	C13512	C	0.977087	0.751785	0.796587
	C13513	C	0.924823	0.753116	0.820127
	C13514	C	0.922916	0.753074	0.830318
	C13515	C	0.921322	0.690992	0.835036
	C13516	C	0.921257	0.815322	0.834986
	C13517	C	0.924846	0.253187	0.820102
	C13518	C	0.922934	0.252923	0.830307
	C13519	C	0.921370	0.190641	0.835021
	C13520	C	0.921270	0.315060	0.835001
	C13521	C	0.928225	0.752550	0.789258
	C13522	C	0.934546	0.752744	0.779909
	C13523	C	0.937319	0.814701	0.775464
	C13524	C	0.937391	0.690785	0.775471
	C13525	C	0.928107	0.252361	0.789204
	C13526	C	0.934380	0.252412	0.779842
	C13527	C	0.937206	0.314435	0.775426
	C13528	C	0.937248	0.190546	0.775401
	C13529	C	0.991110	0.043504	0.818187
	C13530	C	0.991103	0.962644	0.818191
	C13531	C	0.915250	0.043365	0.803348
	C13532	C	0.915244	0.962409	0.803351
	C13533	C	0.910852	0.043212	0.802538
	C13534	C	0.910870	0.962431	0.802553
	C13535	C	0.911887	0.462669	0.802910
	C13536	C	0.990344	0.462522	0.815608
	C13537	C	0.985336	0.462500	0.812136
	C13538	C	0.911901	0.543498	0.802919
	C13539	C	0.985308	0.543424	0.812123
	C13540	C	0.990342	0.543245	0.815612
	C13541	C	0.973586	0.752744	0.827368
	C13542	C	0.973469	0.252688	0.827353
	C13543	C	0.967310	0.752793	0.836749
	C13544	C	0.964493	0.690869	0.841188
	C13545	C	0.964459	0.814800	0.841178
	C13546	C	0.967290	0.252710	0.836745
	C13547	C	0.964312	0.190976	0.841146
	C13548	C	0.964624	0.314694	0.841232
	C13549	C	0.977121	0.253422	0.796552
	C13550	C	0.987123	0.752368	0.757529
	C13551	C	0.954139	0.752995	0.753601
	C13552	C	0.914574	0.753410	0.859108
	C13553	C	0.980694	0.689757	0.781666
	C13554	C	0.980501	0.814145	0.781656
	C13555	C	0.985270	0.752172	0.767741
	C13556	C	0.946316	0.752827	0.762493
	C13557	C	0.943249	0.690729	0.766862
	C13558	C	0.983752	0.689825	0.772438
	C13559	C	0.983546	0.814306	0.772431
	C13560	C	0.943173	0.814831	0.766854
	C13561	C	0.978974	0.751945	0.786370
	C13562	C	0.947760	0.752890	0.863083
	C13563	C	0.958640	0.690867	0.849806
	C13564	C	0.958623	0.814827	0.849801
	C13565	C	0.955564	0.752801	0.854177
	C13566	C	0.926076	0.462533	0.875255
	C13567	C	0.971119	0.462459	0.742773
	C13568	C	0.926770	0.462459	0.876041
	C13569	C	0.926128	0.543514	0.875267
	C13570	C	0.926797	0.543142	0.876016
	C13571	C	0.971091	0.543414	0.742758
	C13572	C	0.947785	0.253190	0.863108
	C13573	C	0.958532	0.191141	0.849783
	C13574	C	0.958822	0.314873	0.849864
	C13575	C	0.955625	0.253033	0.854211
	C13576	C	0.973052	0.042908	0.741490
	C13577	C	0.987265	0.253275	0.757532
	C13578	C	0.954133	0.252577	0.753571
	C13579	C	0.914616	0.252454	0.859095
	C13580	C	0.980622	0.191262	0.781631
	C13581	C	0.980668	0.315392	0.781640
	C13582	C	0.985362	0.253318	0.767719
	C13583	C	0.946294	0.252493	0.762468
	C13584	C	0.916525	0.753265	0.848920
	C13585	C	0.918157	0.815376	0.844198
	C13586	C	0.918234	0.691033	0.844249
	C13587	C	0.916564	0.252641	0.848907
	C13588	C	0.918192	0.314882	0.844218
	C13589	C	0.918269	0.190480	0.844237
	C13590	C	0.943162	0.190582	0.766803
	C13591	C	0.983745	0.191192	0.772417
	C13592	C	0.983806	0.315439	0.772433
	C13593	C	0.943101	0.314492	0.766821
	C13594	C	0.979020	0.253290	0.786340
	C13595	C	0.929082	0.043418	0.874985
	C13596	C	0.975289	0.043446	0.739854
	C13597	C	0.973038	0.962359	0.741495
	C13598	C	0.929070	0.962516	0.874961
	C13599	C	0.975291	0.962249	0.739855
	N13600	N	0.912777	0.070229	0.803693
	N13601	N	0.912774	0.935732	0.803712
	N13602	N	0.912619	0.435710	0.803647
	N13603	N	0.912618	0.570290	0.803647
	N13604	N	0.926787	0.435510	0.875551
	N13605	N	0.926811	0.570114	0.875547
	N13606	N	0.927048	0.070397	0.875569
	N13607	N	0.927049	0.935799	0.875569
	O13608	O	0.996386	0.694742	0.924522
	O13609	O	0.996486	0.811076	0.924510
	O13610	O	0.881557	0.694480	0.948485
	O13611	O	0.881542	0.810606	0.948433
	O13612	O	0.881634	0.194851	0.948504
	O13613	O	0.881611	0.310950	0.948521
	O13614	O	0.881664	0.694594	0.928828
	O13615	O	0.881711	0.811311	0.928832
	O13616	O	0.881711	0.194119	0.928832
	O13617	O	0.881681	0.310895	0.928785
	O13618	O	0.996326	0.694665	0.944122
	O13619	O	0.996390	0.811461	0.944160
	O13620	O	0.996408	0.194304	0.944190
	O13621	O	0.996311	0.310974	0.944119
	O13622	O	0.996561	0.194793	0.924474
	O13623	O	0.996450	0.311243	0.924523
	O13624	O	0.944094	0.694456	0.886016
	O13625	O	0.913495	0.695117	0.886242
	O13626	O	0.964583	0.694320	0.986737
	O13627	O	0.964464	0.810657	0.986723
	O13628	O	0.933873	0.694905	0.987010
	O13629	O	0.933994	0.811071	0.986960
	O13630	O	0.913624	0.811494	0.886279
	O13631	O	0.944230	0.810768	0.885972
	O13632	O	0.944204	0.195495	0.885987
	O13633	O	0.913627	0.194295	0.886278
	O13634	O	0.964618	0.194857	0.986775
	O13635	O	0.964406	0.311208	0.986727
	O13636	O	0.933984	0.194840	0.987027
	O13637	O	0.933967	0.311018	0.987013
	O13638	O	0.913439	0.310669	0.886232
	O13639	O	0.944131	0.311811	0.885993
	H13640	H	0.898425	0.644535	0.960790
	H13641	H	0.898429	0.860894	0.960722
	H13642	H	0.898594	0.144741	0.960772
	H13643	H	0.898455	0.361007	0.960861
	H13644	H	0.893953	0.862550	0.915802
	H13645	H	0.893360	0.643541	0.915615
	H13646	H	0.893289	0.361587	0.915598
	H13647	H	0.893691	0.142928	0.915744
	H13648	H	1.004270	0.064444	0.935690
	H13649	H	1.009089	0.064131	0.939814
	H13650	H	1.009212	0.940884	0.939764
	H13651	H	1.004272	0.941217	0.935693
	H13652	H	1.008645	0.064807	0.929836
	H13653	H	1.008675	0.941346	0.929805
	H13654	H	0.862089	0.064923	0.938036
	H13655	H	0.861987	0.941532	0.938022
	H13656	H	0.863017	0.064098	0.939111
	H13657	H	0.862941	0.941384	0.939113
	H13658	H	0.865717	0.064589	0.939341
	H13659	H	0.865646	0.940883	0.939390
	H13660	H	0.859455	0.441145	0.940447
	H13661	H	0.864643	0.441474	0.941995
	H13662	H	0.858628	0.441106	0.935842
	H13663	H	1.013185	0.440962	0.933188
	H13664	H	1.016164	0.441060	0.934243
	H13665	H	1.016276	0.441062	0.935646
	H13666	H	0.864554	0.564264	0.942035
	H13667	H	0.859458	0.564521	0.940447
	H13668	H	1.016297	0.564577	0.935639
	H13669	H	1.016136	0.564518	0.934206
	H13670	H	1.013187	0.564074	0.933140
	H13671	H	0.858703	0.564771	0.935827
	H13672	H	0.984415	0.643555	0.957242
	H13673	H	0.984434	0.862190	0.957277
	H13674	H	0.984360	0.143186	0.957274
	H13675	H	0.984472	0.362291	0.957292
	H13676	H	0.904032	0.643886	0.900117
	H13677	H	0.960924	0.644180	0.898348
	H13678	H	0.961047	0.861270	0.898252
	H13679	H	0.904631	0.862814	0.900333
	H13680	H	0.979475	0.644560	0.912268
	H13681	H	0.979581	0.861616	0.912194
	H13682	H	0.973840	0.643473	0.972744
	H13683	H	0.973733	0.861928	0.972757
	H13684	H	0.926127	0.441553	0.874915
	H13685	H	0.957739	0.441129	1.001232
	H13686	H	0.927576	0.441238	0.874985
	H13687	H	0.928073	0.441074	0.875584
	H13688	H	0.952742	0.441243	0.992361
	H13689	H	0.958758	0.440941	0.995166
	H13690	H	0.957894	0.564961	1.001199
	H13691	H	0.926137	0.564853	0.874962
	H13692	H	0.958843	0.564952	0.995136
	H13693	H	0.952778	0.564625	0.992271
	H13694	H	0.928030	0.564596	0.875578
	H13695	H	0.927553	0.564587	0.874996
	H13696	H	0.973732	0.143457	0.972778
	H13697	H	0.973870	0.362343	0.972784
	H13698	H	0.925631	0.064408	0.877493
	H13699	H	0.928634	0.064219	0.877570
	H13700	H	0.923471	0.064306	0.875269
	H13701	H	0.917048	0.861314	0.974624
	H13702	H	0.917044	0.644594	0.974707
	H13703	H	0.916970	0.361123	0.974779
	H13704	H	0.917136	0.144503	0.974694
	H13705	H	0.904402	0.142901	0.900255
	H13706	H	0.961132	0.145064	0.898219
	H13707	H	0.960943	0.362275	0.898377
	H13708	H	0.903988	0.361753	0.900139
	H13709	H	0.979719	0.144616	0.912135
	H13710	H	0.979511	0.361904	0.912282
	H13711	H	0.951998	0.064648	1.000294
	H13712	H	0.955369	0.064543	0.999064
	H13713	H	0.954841	0.064401	0.995693
	H13714	H	0.928610	0.941157	0.877580
	H13715	H	0.925615	0.941326	0.877498
	H13716	H	0.923553	0.940771	0.875264
	H13717	H	0.952062	0.941665	1.000334
	H13718	H	0.955363	0.941149	0.999045
	H13719	H	0.954901	0.940824	0.995695
	Zn13720	Zn	0.864403	0.680377	0.938029
	Zn13721	Zn	0.864392	0.825356	0.938028
	Zn13722	Zn	0.864415	0.180553	0.938031
	Zn13723	Zn	0.864463	0.325368	0.938002
	Zn13724	Zn	0.951152	0.680498	0.997425
	Zn13725	Zn	0.951187	0.825578	0.997448
	Zn13726	Zn	0.951128	0.180459	0.997444
	Zn13727	Zn	0.951016	0.325485	0.997474
	C13728	C	0.991920	0.752988	0.921381
	C13729	C	0.886027	0.752617	0.951611
	C13730	C	0.897369	0.752717	0.959908
	C13731	C	0.902586	0.691535	0.963875
	C13732	C	0.902588	0.813985	0.963825
	C13733	C	0.886109	0.252883	0.951676
	C13734	C	0.897473	0.252808	0.959961
	C13735	C	0.902718	0.191632	0.963886
	C13736	C	0.902623	0.314015	0.963929
	C13737	C	0.885123	0.752953	0.925545
	C13738	C	0.893006	0.753019	0.916658
	C13739	C	0.896270	0.815000	0.912343
	C13740	C	0.895985	0.691144	0.912245
	C13741	C	0.885143	0.252401	0.925532
	C13742	C	0.892948	0.252262	0.916624
	C13743	C	0.895909	0.314159	0.912228
	C13744	C	0.896125	0.190406	0.912297
	C13745	C	1.008578	0.043202	0.937002
	C13746	C	1.008600	0.962524	0.936985
	C13747	C	0.863003	0.043361	0.938443
	C13748	C	0.862962	0.962815	0.938428
	C13749	C	0.865735	0.043316	0.938639
	C13750	C	0.865718	0.962186	0.938651
	C13751	C	0.862661	0.462651	0.940383
	C13752	C	1.012599	0.462273	0.933911
	C13753	C	1.015557	0.462256	0.934928
	C13754	C	0.862655	0.543309	0.940388
	C13755	C	1.015573	0.543121	0.934915
	C13756	C	1.012610	0.543180	0.933893
	C13757	C	0.992882	0.753054	0.947402
	C13758	C	0.992881	0.252685	0.947432
	C13759	C	0.984990	0.752922	0.956271
	C13760	C	0.981944	0.691094	0.960665
	C13761	C	0.981903	0.814635	0.960668
	C13762	C	0.985038	0.252739	0.956321
	C13763	C	0.981920	0.190869	0.960696
	C13764	C	0.981976	0.314694	0.960700
	C13765	C	0.992027	0.253012	0.921348
	C13766	C	0.948587	0.752641	0.889171
	C13767	C	0.911037	0.753303	0.889875
	C13768	C	0.929468	0.753012	0.983832
	C13769	C	0.975369	0.691615	0.909163
	C13770	C	0.975432	0.814405	0.909114
	C13771	C	0.959881	0.752779	0.897487
	C13772	C	0.904765	0.753274	0.899227
	C13773	C	0.901824	0.691324	0.903624
	C13774	C	0.965092	0.691390	0.901437
	C13775	C	0.965133	0.814261	0.901392
	C13776	C	0.902128	0.815131	0.903724
	C13777	C	0.980563	0.753100	0.913109
	C13778	C	0.966991	0.752550	0.983085
	C13779	C	0.976100	0.691013	0.969278
	C13780	C	0.976067	0.814599	0.969284
	C13781	C	0.973226	0.752797	0.973705
	C13782	C	0.953517	0.462610	1.000787
	C13783	C	0.927527	0.462473	0.875359
	C13784	C	0.954558	0.462528	0.994730
	C13785	C	0.953587	0.543462	1.000767
	C13786	C	0.954594	0.543322	0.994696
	C13787	C	0.927513	0.543393	0.875343
	C13788	C	0.967036	0.253067	0.983128
	C13789	C	0.976081	0.190995	0.969318
	C13790	C	0.976136	0.314727	0.969323
	C13791	C	0.973302	0.252944	0.973769
	C13792	C	0.927084	0.043233	0.877046
	C13793	C	0.948639	0.253689	0.889147
	C13794	C	0.911003	0.252431	0.889864
	C13795	C	0.929516	0.252874	0.983862
	C13796	C	0.975539	0.191920	0.909080
	C13797	C	0.975424	0.314834	0.909152
	C13798	C	0.959966	0.253689	0.897450
	C13799	C	0.904673	0.252312	0.899209
	C13800	C	0.918098	0.752928	0.975537
	C13801	C	0.912867	0.814184	0.971561
	C13802	C	0.912865	0.691589	0.971613
	C13803	C	0.918191	0.252785	0.975581
	C13804	C	0.912902	0.314020	0.971657
	C13805	C	0.912996	0.191585	0.971617
	C13806	C	0.901949	0.190461	0.903675
	C13807	C	0.965223	0.192094	0.901361
	C13808	C	0.965115	0.315056	0.901435
	C13809	C	0.901719	0.314188	0.903606
	C13810	C	0.980702	0.253324	0.913057
	C13811	C	0.953067	0.043305	0.999103
	C13812	C	0.924941	0.043348	0.874834
	C13813	C	0.927072	0.962513	0.877038
	C13814	C	0.953085	0.962806	0.999103
	C13815	C	0.924930	0.962566	0.874821
	N13816	N	0.864382	0.070330	0.938068
	N13817	N	0.864376	0.935730	0.938075
	N13818	N	0.864457	0.435582	0.938001
	N13819	N	0.864435	0.570182	0.938016
	N13820	N	0.951081	0.435738	0.997454
	N13821	N	0.951166	0.570323	0.997410
	N13822	N	0.951190	0.070419	0.997423
	N13823	N	0.951205	0.935844	0.997422
