data_Molecule from HDF5

_cell_length_a		95.165018
_cell_length_b		19.182574
_cell_length_c		142.243175
_cell_angle_alpha	90.002395
_cell_angle_beta	93.412894
_cell_angle_gamma	89.998003
_symmetry_space_group_name_H-M	'P 1'
_symmetry_Int_Tables_number		1

loop_
	_symmetry_equiv_pos_as_xyz
	x,y,z

loop_
	_atom_site_label
	_atom_site_type_symbol
	_atom_site_fract_x
	_atom_site_fract_y
	_atom_site_fract_z
	O0	O	0.134378	0.694815	0.044195
	O1	O	0.134390	0.810820	0.044220
	O2	O	0.017897	0.694280	0.071166
	O3	O	0.017808	0.810409	0.071254
	O4	O	0.017871	0.194230	0.071262
	O5	O	0.017843	0.310489	0.071266
	O6	O	0.013605	0.694559	0.050516
	O7	O	0.013535	0.810654	0.050483
	O8	O	0.013528	0.194922	0.050493
	O9	O	0.013568	0.311105	0.050554
	O10	O	0.137999	0.695034	0.064864
	O11	O	0.138165	0.811026	0.064883
	O12	O	0.138154	0.194691	0.064924
	O13	O	0.138006	0.310747	0.064809
	O14	O	0.134448	0.194920	0.044160
	O15	O	0.134267	0.310757	0.044321
	O16	O	0.080568	0.694976	0.008742
	O17	O	0.051225	0.695059	0.010169
	O18	O	0.100768	0.694931	0.105408
	O19	O	0.100836	0.810746	0.105489
	O20	O	0.071707	0.694762	0.106629
	O21	O	0.071618	0.810721	0.106671
	O22	O	0.051443	0.810995	0.010279
	O23	O	0.080500	0.810804	0.008809
	O24	O	0.080476	0.194428	0.008865
	O25	O	0.051434	0.195215	0.010237
	O26	O	0.100844	0.194718	0.105399
	O27	O	0.100869	0.310633	0.105468
	O28	O	0.071778	0.194778	0.106643
	O29	O	0.071647	0.310897	0.106651
	O30	O	0.051202	0.311798	0.010155
	O31	O	0.080542	0.310673	0.008781
	H32	H	0.035159	0.643846	0.082531
	H33	H	0.035115	0.860796	0.082482
	H34	H	0.035015	0.143888	0.082686
	H35	H	0.035114	0.360784	0.082549
	H36	H	0.025702	0.860823	0.037687
	H37	H	0.025581	0.644382	0.037600
	H38	H	0.025581	0.361942	0.037616
	H39	H	0.025641	0.144362	0.037618
	H40	H	0.150698	0.064405	0.053229
	H41	H	0.149863	0.064513	0.053594
	H42	H	0.149936	0.940903	0.053605
	H43	H	0.150721	0.940899	0.053221
	H44	H	0.151950	0.064454	0.053622
	H45	H	0.151971	0.940746	0.053612
	H46	H	-0.000472	0.065056	0.062643
	H47	H	-0.000550	0.941523	0.062733
	H48	H	0.001370	0.064725	0.063234
	H49	H	0.001463	0.941026	0.063237
	H50	H	0.003591	0.064197	0.062112
	H51	H	0.003647	0.941281	0.062063
	H52	H	0.004281	0.440822	0.062099
	H53	H	0.003616	0.441192	0.060337
	H54	H	0.001695	0.440786	0.063762
	H55	H	0.151558	0.440815	0.054670
	H56	H	0.150364	0.441219	0.054568
	H57	H	0.149916	0.441020	0.054027
	H58	H	0.003580	0.564180	0.060303
	H59	H	0.004328	0.564435	0.062113
	H60	H	0.149901	0.564188	0.054080
	H61	H	0.150366	0.564624	0.054619
	H62	H	0.151630	0.564605	0.054657
	H63	H	0.001767	0.564552	0.063762
	H64	H	0.126063	0.645856	0.077836
	H65	H	0.126305	0.860730	0.077896
	H66	H	0.126126	0.144718	0.077752
	H67	H	0.126080	0.361235	0.077805
	H68	H	0.039113	0.644415	0.023031
	H69	H	0.097670	0.644535	0.020253
	H70	H	0.097905	0.861175	0.020069
	H71	H	0.039284	0.860983	0.023166
	H72	H	0.116932	0.644518	0.032997
	H73	H	0.117164	0.861235	0.032836
	H74	H	0.112749	0.645662	0.092492
	H75	H	0.112992	0.860749	0.092535
	H76	H	0.067204	0.441040	0.001273
	H77	H	0.083293	0.441104	0.114536
	H78	H	0.062173	0.441320	0.001900
	H79	H	0.059478	0.441149	-0.000008
	H80	H	0.088553	0.441171	0.120145
	H81	H	0.084148	0.441294	0.118793
	H82	H	0.083308	0.564438	0.114507
	H83	H	0.067250	0.564645	0.001293
	H84	H	0.084271	0.564866	0.118770
	H85	H	0.088607	0.564493	0.120094
	H86	H	0.059504	0.565147	0.000022
	H87	H	0.062168	0.564578	0.001930
	H88	H	0.112910	0.144737	0.092455
	H89	H	0.112877	0.361209	0.092511
	H90	H	0.061048	0.064491	0.001369
	H91	H	0.064648	0.064932	0.002030
	H92	H	0.059527	0.064861	-0.002004
	H93	H	0.054392	0.861167	0.095248
	H94	H	0.054412	0.644176	0.095294
	H95	H	0.054400	0.361189	0.095298
	H96	H	0.054324	0.143963	0.095430
	H97	H	0.039163	0.144432	0.023055
	H98	H	0.097875	0.144422	0.020090
	H99	H	0.097745	0.361188	0.020118
	H100	H	0.039124	0.362164	0.023043
	H101	H	0.117114	0.144553	0.032846
	H102	H	0.116966	0.361381	0.032907
	H103	H	0.087284	0.064411	0.119477
	H104	H	0.091157	0.064739	0.119052
	H105	H	0.092804	0.064291	0.115652
	H106	H	0.064529	0.941331	0.002016
	H107	H	0.060970	0.941682	0.001292
	H108	H	0.059551	0.941209	-0.001984
	H109	H	0.087220	0.940671	0.119438
	H110	H	0.091102	0.940621	0.119026
	H111	H	0.092652	0.940553	0.115679
	Zn112	Zn	0.001166	0.679991	0.061521
	Zn113	Zn	0.001150	0.825738	0.061551
	Zn114	Zn	0.001134	0.179947	0.061547
	Zn115	Zn	0.001058	0.325464	0.061601
	Zn116	Zn	0.088365	0.680207	0.116408
	Zn117	Zn	0.088199	0.825568	0.116413
	Zn118	Zn	0.088370	0.179960	0.116403
	Zn119	Zn	0.088224	0.325605	0.116427
	C120	C	0.129869	0.752859	0.041287
	C121	C	0.022367	0.752300	0.074133
	C122	C	0.034037	0.752295	0.081767
	C123	C	0.039454	0.691007	0.085377
	C124	C	0.039431	0.813787	0.085357
	C125	C	0.022358	0.252346	0.074185
	C126	C	0.034007	0.252402	0.081804
	C127	C	0.039397	0.190960	0.085452
	C128	C	0.039450	0.313820	0.085380
	C129	C	0.016769	0.752584	0.047186
	C130	C	0.024906	0.752603	0.038478
	C131	C	0.028700	0.813960	0.034412
	C132	C	0.028626	0.691248	0.034360
	C133	C	0.016728	0.253069	0.047188
	C134	C	0.024898	0.253180	0.038466
	C135	C	0.028643	0.314870	0.034364
	C136	C	0.028660	0.191580	0.034364
	C137	C	0.150468	0.043123	0.053553
	C138	C	0.150515	0.962310	0.053573
	C139	C	0.000630	0.043432	0.062593
	C140	C	0.000642	0.962390	0.062610
	C141	C	0.002838	0.043031	0.061457
	C142	C	0.002851	0.962539	0.061428
	C143	C	0.003216	0.462294	0.061333
	C144	C	0.151650	0.462050	0.054300
	C145	C	0.150388	0.462336	0.054225
	C146	C	0.003228	0.543117	0.061307
	C147	C	0.150385	0.543095	0.054257
	C148	C	0.151620	0.543081	0.054312
	C149	C	0.134937	0.753166	0.068231
	C150	C	0.134872	0.252811	0.068191
	C151	C	0.126856	0.753271	0.076982
	C152	C	0.123086	0.692408	0.081100
	C153	C	0.123217	0.814113	0.081126
	C154	C	0.126758	0.252985	0.076925
	C155	C	0.123130	0.191627	0.081052
	C156	C	0.123110	0.314297	0.081077
	C157	C	0.129817	0.252877	0.041321
	C158	C	0.085067	0.752864	0.011702
	C159	C	0.048121	0.752963	0.013544
	C160	C	0.067154	0.752678	0.103728
	C161	C	0.112689	0.691608	0.030125
	C162	C	0.112823	0.814280	0.030029
	C163	C	0.096679	0.752928	0.019370
	C164	C	0.039898	0.752792	0.022218
	C165	C	0.036099	0.691390	0.026285
	C166	C	0.102013	0.691583	0.023042
	C167	C	0.102143	0.814195	0.022946
	C168	C	0.036190	0.813992	0.026347
	C169	C	0.118209	0.752999	0.033673
	C170	C	0.104007	0.752931	0.102119
	C171	C	0.115743	0.692338	0.089238
	C172	C	0.115879	0.814106	0.089265
	C173	C	0.112105	0.753192	0.093393
	C174	C	0.085948	0.462335	0.114339
	C175	C	0.061610	0.462567	0.000470
	C176	C	0.086890	0.462548	0.118653
	C177	C	0.085964	0.543090	0.114324
	C178	C	0.086905	0.543315	0.118634
	C179	C	0.061608	0.543505	0.000479
	C180	C	0.103987	0.252794	0.102073
	C181	C	0.115811	0.191721	0.089196
	C182	C	0.115801	0.314275	0.089224
	C183	C	0.112059	0.253008	0.093336
	C184	C	0.063067	0.043365	0.001020
	C185	C	0.085025	0.252621	0.011752
	C186	C	0.048114	0.253479	0.013505
	C187	C	0.067207	0.252770	0.103720
	C188	C	0.112802	0.191640	0.030036
	C189	C	0.112718	0.314218	0.030063
	C190	C	0.096663	0.252740	0.019364
	C191	C	0.039881	0.253348	0.022180
	C192	C	0.055535	0.752614	0.096084
	C193	C	0.050099	0.813938	0.092443
	C194	C	0.050122	0.691209	0.092463
	C195	C	0.055567	0.252640	0.096072
	C196	C	0.050143	0.313975	0.092453
	C197	C	0.050084	0.191083	0.092530
	C198	C	0.036118	0.191625	0.026280
	C199	C	0.102136	0.191476	0.022948
	C200	C	0.102051	0.314194	0.022967
	C201	C	0.036101	0.314988	0.026280
	C202	C	0.118173	0.252917	0.033683
	C203	C	0.088995	0.043101	0.118515
	C204	C	0.061617	0.043437	-0.002312
	C205	C	0.063044	0.962690	0.000998
	C206	C	0.088928	0.962009	0.118502
	C207	C	0.061604	0.962177	-0.002303
	N208	N	0.001194	0.069949	0.061596
	N209	N	0.001191	0.935460	0.061585
	N210	N	0.001115	0.435456	0.061624
	N211	N	0.001128	0.569944	0.061582
	N212	N	0.088269	0.435636	0.116407
	N213	N	0.088284	0.570173	0.116381
	N214	N	0.088305	0.069989	0.116430
	N215	N	0.088245	0.935496	0.116428
	O216	O	0.151919	0.694861	0.165779
	O217	O	0.152042	0.811154	0.165768
	O218	O	0.041934	0.694651	0.189307
	O219	O	0.041980	0.810773	0.189287
	O220	O	0.041933	0.194622	0.189260
	O221	O	0.041889	0.310738	0.189282
	O222	O	0.038625	0.694247	0.168126
	O223	O	0.038604	0.810313	0.168106
	O224	O	0.038601	0.194713	0.168093
	O225	O	0.038618	0.310689	0.168081
	O226	O	0.150741	0.694286	0.185695
	O227	O	0.150793	0.811094	0.185714
	O228	O	0.150840	0.193987	0.185695
	O229	O	0.150843	0.310824	0.185683
	O230	O	0.151931	0.194675	0.165758
	O231	O	0.152032	0.310971	0.165731
	O232	O	0.104224	0.695219	0.126691
	O233	O	0.075473	0.694366	0.127305
	O234	O	0.118041	0.694325	0.228456
	O235	O	0.117831	0.810616	0.228367
	O236	O	0.089683	0.694970	0.228362
	O237	O	0.089763	0.811304	0.228381
	O238	O	0.075455	0.810507	0.127388
	O239	O	0.104132	0.811172	0.126663
	O240	O	0.104133	0.194749	0.126741
	O241	O	0.075587	0.194674	0.127375
	O242	O	0.117885	0.194729	0.228343
	O243	O	0.117928	0.311214	0.228365
	O244	O	0.089714	0.194674	0.228337
	O245	O	0.089683	0.311246	0.228366
	O246	O	0.075427	0.310833	0.127340
	O247	O	0.104206	0.310810	0.126662
	H248	H	0.057339	0.643877	0.201759
	H249	H	0.057289	0.861684	0.201800
	H250	H	0.057379	0.144351	0.201744
	H251	H	0.057179	0.361532	0.201797
	H252	H	0.050431	0.860196	0.155107
	H253	H	0.050391	0.643901	0.155033
	H254	H	0.050691	0.360986	0.155158
	H255	H	0.050376	0.143824	0.154985
	H256	H	0.171448	0.064609	0.176268
	H257	H	0.169563	0.064350	0.174236
	H258	H	0.169544	0.941439	0.174238
	H259	H	0.171521	0.940642	0.176289
	H260	H	0.169229	0.064547	0.179072
	H261	H	0.169361	0.940685	0.179126
	H262	H	0.026109	0.064265	0.177941
	H263	H	0.026199	0.940898	0.177890
	H264	H	0.024851	0.064656	0.178179
	H265	H	0.024857	0.940669	0.178177
	H266	H	0.024506	0.064549	0.179447
	H267	H	0.024513	0.941295	0.179450
	H268	H	0.025666	0.441535	0.180025
	H269	H	0.027010	0.441112	0.179857
	H270	H	0.024343	0.441323	0.179098
	H271	H	0.163107	0.440802	0.176794
	H272	H	0.165114	0.440845	0.174032
	H273	H	0.168605	0.441249	0.173901
	H274	H	0.026950	0.564796	0.179861
	H275	H	0.025643	0.564272	0.180039
	H276	H	0.168661	0.563757	0.173858
	H277	H	0.165090	0.564677	0.173996
	H278	H	0.163059	0.564684	0.176824
	H279	H	0.024332	0.564399	0.179126
	H280	H	0.138739	0.643097	0.198829
	H281	H	0.138484	0.862338	0.198737
	H282	H	0.138640	0.142709	0.198778
	H283	H	0.138848	0.362200	0.198809
	H284	H	0.063416	0.643986	0.140279
	H285	H	0.119708	0.644878	0.139100
	H286	H	0.119615	0.861890	0.139169
	H287	H	0.063547	0.860384	0.140360
	H288	H	0.136647	0.644599	0.153221
	H289	H	0.136565	0.861756	0.153298
	H290	H	0.127689	0.642978	0.214341
	H291	H	0.127403	0.862327	0.214277
	H292	H	0.086934	0.441126	0.112696
	H293	H	0.111422	0.440701	0.236460
	H294	H	0.092912	0.441117	0.114535
	H295	H	0.093626	0.441271	0.117642
	H296	H	0.097791	0.441602	0.236764
	H297	H	0.102813	0.440790	0.234056
	H298	H	0.111340	0.564432	0.236373
	H299	H	0.086983	0.564231	0.112683
	H300	H	0.102788	0.564634	0.234049
	H301	H	0.097740	0.564267	0.236782
	H302	H	0.093619	0.564740	0.117671
	H303	H	0.092964	0.564552	0.114522
	H304	H	0.127496	0.142917	0.214288
	H305	H	0.127713	0.362547	0.214309
	H306	H	0.084808	0.064227	0.114192
	H307	H	0.083683	0.064413	0.116633
	H308	H	0.090110	0.064514	0.113644
	H309	H	0.074244	0.861783	0.215917
	H310	H	0.074321	0.644182	0.215895
	H311	H	0.074187	0.361380	0.215917
	H312	H	0.074376	0.144506	0.215859
	H313	H	0.063480	0.143980	0.140242
	H314	H	0.119517	0.144528	0.139205
	H315	H	0.119635	0.361127	0.139155
	H316	H	0.063748	0.361225	0.140422
	H317	H	0.136525	0.144509	0.153306
	H318	H	0.136612	0.361377	0.153255
	H319	H	0.110584	0.064163	0.235861
	H320	H	0.104658	0.064122	0.234061
	H321	H	0.097809	0.064884	0.237360
	H322	H	0.083648	0.941304	0.116639
	H323	H	0.084858	0.941313	0.114197
	H324	H	0.090046	0.941240	0.113616
	H325	H	0.110596	0.941036	0.235950
	H326	H	0.104688	0.940922	0.234148
	H327	H	0.097753	0.941023	0.237415
	Zn328	Zn	0.025963	0.680080	0.179029
	Zn329	Zn	0.026058	0.825575	0.179001
	Zn330	Zn	0.025983	0.180063	0.179050
	Zn331	Zn	0.026016	0.325641	0.179011
	Zn332	Zn	0.104966	0.680178	0.239161
	Zn333	Zn	0.105009	0.825255	0.239246
	Zn334	Zn	0.105090	0.180220	0.239137
	Zn335	Zn	0.105060	0.325191	0.239199
	C336	C	0.147938	0.753068	0.162545
	C337	C	0.046000	0.752700	0.192510
	C338	C	0.056378	0.752722	0.200906
	C339	C	0.061159	0.691200	0.204891
	C340	C	0.061119	0.814396	0.204913
	C341	C	0.045951	0.252696	0.192494
	C342	C	0.056292	0.252806	0.200916
	C343	C	0.061132	0.191438	0.204886
	C344	C	0.061021	0.314300	0.204919
	C345	C	0.041727	0.752229	0.164748
	C346	C	0.049702	0.752030	0.155951
	C347	C	0.053341	0.813389	0.151810
	C348	C	0.053321	0.690809	0.151762
	C349	C	0.041738	0.252641	0.164720
	C350	C	0.049720	0.252461	0.155931
	C351	C	0.053487	0.313931	0.151831
	C352	C	0.053332	0.191017	0.151737
	C353	C	0.169712	0.043136	0.175574
	C354	C	0.169756	0.962232	0.175579
	C355	C	0.025647	0.043260	0.178306
	C356	C	0.025647	0.962095	0.178280
	C357	C	0.025275	0.043015	0.179562
	C358	C	0.025310	0.962437	0.179544
	C359	C	0.026237	0.462361	0.179701
	C360	C	0.164959	0.462282	0.177472
	C361	C	0.166951	0.462367	0.174624
	C362	C	0.026205	0.543290	0.179703
	C363	C	0.166978	0.542942	0.174618
	C364	C	0.164969	0.542983	0.177487
	C365	C	0.147280	0.752704	0.188948
	C366	C	0.147363	0.252440	0.188934
	C367	C	0.139346	0.752736	0.197841
	C368	C	0.136145	0.690784	0.202239
	C369	C	0.136007	0.814686	0.202189
	C370	C	0.139434	0.252526	0.197843
	C371	C	0.136119	0.190492	0.202211
	C372	C	0.136224	0.314558	0.202221
	C373	C	0.147907	0.252816	0.162542
	C374	C	0.108262	0.753303	0.129874
	C375	C	0.072305	0.752293	0.130696
	C376	C	0.085662	0.753190	0.225155
	C377	C	0.132829	0.691776	0.150110
	C378	C	0.132778	0.814653	0.150149
	C379	C	0.118619	0.753363	0.138292
	C380	C	0.064253	0.752170	0.139460
	C381	C	0.060559	0.690879	0.143587
	C382	C	0.123417	0.691948	0.142277
	C383	C	0.123360	0.814779	0.142311
	C384	C	0.060611	0.813442	0.143638
	C385	C	0.137595	0.753134	0.154122
	C386	C	0.120534	0.752481	0.224758
	C387	C	0.130055	0.690738	0.210884
	C388	C	0.129889	0.814619	0.210832
	C389	C	0.127028	0.752575	0.215343
	C390	C	0.110222	0.462302	0.238760
	C391	C	0.091966	0.462414	0.116161
	C392	C	0.101564	0.462414	0.236422
	C393	C	0.110186	0.542946	0.238739
	C394	C	0.101530	0.543250	0.236423
	C395	C	0.091958	0.543468	0.116160
	C396	C	0.120523	0.252951	0.224717
	C397	C	0.129980	0.190660	0.210844
	C398	C	0.130089	0.314723	0.210855
	C399	C	0.127055	0.252784	0.215319
	C400	C	0.085325	0.043066	0.115699
	C401	C	0.108220	0.252817	0.129911
	C402	C	0.072357	0.252685	0.130700
	C403	C	0.085633	0.252967	0.225159
	C404	C	0.132757	0.191526	0.150147
	C405	C	0.132808	0.314280	0.150120
	C406	C	0.118551	0.252898	0.138316
	C407	C	0.064312	0.252576	0.139466
	C408	C	0.075354	0.753043	0.216715
	C409	C	0.070523	0.814563	0.212755
	C410	C	0.070561	0.691417	0.212728
	C411	C	0.075291	0.252930	0.216722
	C412	C	0.070430	0.314345	0.212756
	C413	C	0.070546	0.191523	0.212725
	C414	C	0.060584	0.190986	0.143564
	C415	C	0.123321	0.191590	0.142325
	C416	C	0.123386	0.314191	0.142294
	C417	C	0.060737	0.314055	0.143657
	C418	C	0.137578	0.252926	0.154105
	C419	C	0.107014	0.042896	0.236069
	C420	C	0.090617	0.043227	0.115113
	C421	C	0.085296	0.962551	0.115698
	C422	C	0.106998	0.962364	0.236117
	C423	C	0.090557	0.962304	0.115128
	N424	N	0.026006	0.070011	0.179054
	N425	N	0.026043	0.935507	0.179013
	N426	N	0.025985	0.435488	0.178996
	N427	N	0.025936	0.569996	0.179020
	N428	N	0.105061	0.435295	0.239227
	N429	N	0.105002	0.569938	0.239196
	N430	N	0.105142	0.070208	0.239172
	N431	N	0.105123	0.935585	0.239219
	O432	O	0.101521	0.694209	0.299658
	O433	O	0.101361	0.811039	0.299653
	O434	O	0.053184	0.694713	0.314567
	O435	O	0.053175	0.811590	0.314525
	O436	O	0.053298	0.194767	0.314537
	O437	O	0.053056	0.311684	0.314536
	O438	O	0.055329	0.694847	0.290855
	O439	O	0.055204	0.811232	0.290812
	O440	O	0.055397	0.194717	0.290861
	O441	O	0.055514	0.311104	0.290917
	O442	O	0.099099	0.694463	0.323276
	O443	O	0.099135	0.810833	0.323269
	O444	O	0.099149	0.194451	0.323369
	O445	O	0.099161	0.310949	0.323298
	O446	O	0.101416	0.193752	0.299679
	O447	O	0.101409	0.310616	0.299623
	O448	O	0.115668	0.694378	0.252101
	O449	O	0.088514	0.694784	0.248317
	O450	O	0.066232	0.694625	0.365983
	O451	O	0.066261	0.811381	0.365982
	O452	O	0.039134	0.694839	0.362129
	O453	O	0.038997	0.811634	0.362126
	O454	O	0.088436	0.811524	0.248339
	O455	O	0.115649	0.811180	0.252097
	O456	O	0.115602	0.194462	0.252060
	O457	O	0.088507	0.194230	0.248254
	O458	O	0.066131	0.194606	0.365933
	O459	O	0.066194	0.311305	0.365971
	O460	O	0.039135	0.194420	0.362137
	O461	O	0.038978	0.311307	0.362173
	O462	O	0.088460	0.310989	0.248258
	O463	O	0.115764	0.311198	0.252081
	H464	H	0.049380	0.643329	0.329990
	H465	H	0.049270	0.863137	0.329977
	H466	H	0.049455	0.143069	0.330002
	H467	H	0.049344	0.362972	0.329968
	H468	H	0.064969	0.862581	0.276822
	H469	H	0.064988	0.643579	0.276812
	H470	H	0.065207	0.362449	0.276851
	H471	H	0.065229	0.142925	0.276852
	H472	H	0.114703	0.064533	0.316578
	H473	H	0.118208	0.064818	0.313982
	H474	H	0.118185	0.940794	0.313991
	H475	H	0.114687	0.941409	0.316560
	H476	H	0.107537	0.064416	0.315343
	H477	H	0.107474	0.941261	0.315347
	H478	H	0.034138	0.064047	0.301306
	H479	H	0.034132	0.941107	0.301293
	H480	H	0.037086	0.064305	0.305647
	H481	H	0.037048	0.940983	0.305683
	H482	H	0.046581	0.064584	0.306585
	H483	H	0.046614	0.941180	0.306601
	H484	H	0.035992	0.441323	0.301389
	H485	H	0.038301	0.441131	0.304778
	H486	H	0.040313	0.441373	0.297459
	H487	H	0.119766	0.440822	0.311323
	H488	H	0.116884	0.441120	0.317052
	H489	H	0.110243	0.441249	0.317717
	H490	H	0.038299	0.564916	0.304830
	H491	H	0.036037	0.564857	0.301344
	H492	H	0.110232	0.564643	0.317720
	H493	H	0.116934	0.564837	0.317033
	H494	H	0.119775	0.564493	0.311320
	H495	H	0.040345	0.564583	0.297509
	H496	H	0.089285	0.643197	0.337321
	H497	H	0.089445	0.862290	0.337329
	H498	H	0.089212	0.143147	0.337279
	H499	H	0.089409	0.362701	0.337323
	H500	H	0.076268	0.643522	0.261354
	H501	H	0.111831	0.642760	0.267556
	H502	H	0.111808	0.862507	0.267480
	H503	H	0.076290	0.862573	0.261397
	H504	H	0.105258	0.642862	0.284288
	H505	H	0.105258	0.862568	0.284223
	H506	H	0.078199	0.643337	0.352874
	H507	H	0.078360	0.862719	0.352854
	H508	H	0.112639	0.440832	0.240761
	H509	H	0.053437	0.441196	0.377738
	H510	H	0.105818	0.440885	0.244461
	H511	H	0.099551	0.441501	0.242752
	H512	H	0.051100	0.441093	0.371644
	H513	H	0.054561	0.441149	0.373736
	H514	H	0.053422	0.564244	0.377712
	H515	H	0.112556	0.564210	0.240739
	H516	H	0.054468	0.564552	0.373744
	H517	H	0.051054	0.564934	0.371695
	H518	H	0.099596	0.564793	0.242736
	H519	H	0.105799	0.565061	0.244435
	H520	H	0.078126	0.143240	0.352834
	H521	H	0.078311	0.362781	0.352863
	H522	H	0.106884	0.064492	0.244188
	H523	H	0.111887	0.064558	0.241716
	H524	H	0.098695	0.064222	0.241729
	H525	H	0.042669	0.863053	0.346724
	H526	H	0.042800	0.643531	0.346742
	H527	H	0.042853	0.363035	0.346726
	H528	H	0.042933	0.143176	0.346797
	H529	H	0.076340	0.142891	0.261355
	H530	H	0.111854	0.142639	0.267492
	H531	H	0.111828	0.362657	0.267520
	H532	H	0.076346	0.362417	0.261347
	H533	H	0.105339	0.142226	0.284273
	H534	H	0.105249	0.362174	0.284274
	H535	H	0.041297	0.064652	0.372942
	H536	H	0.042202	0.064717	0.377864
	H537	H	0.051626	0.064351	0.380921
	H538	H	0.111819	0.940613	0.241757
	H539	H	0.106857	0.941170	0.244201
	H540	H	0.098748	0.941494	0.241745
	H541	H	0.041196	0.941220	0.372934
	H542	H	0.042172	0.941345	0.377921
	H543	H	0.051575	0.941279	0.380937
	Zn544	Zn	0.042516	0.680556	0.301702
	Zn545	Zn	0.042416	0.825337	0.301652
	Zn546	Zn	0.042483	0.180171	0.301655
	Zn547	Zn	0.042439	0.325413	0.301631
	Zn548	Zn	0.049683	0.680218	0.375047
	Zn549	Zn	0.049666	0.825313	0.375048
	Zn550	Zn	0.049715	0.180311	0.375058
	Zn551	Zn	0.049692	0.325155	0.375068
	C552	C	0.102025	0.752680	0.295582
	C553	C	0.052631	0.753242	0.318623
	C554	C	0.049882	0.753230	0.328957
	C555	C	0.047944	0.691128	0.333710
	C556	C	0.047899	0.815290	0.333700
	C557	C	0.052633	0.253175	0.318613
	C558	C	0.049916	0.253064	0.328965
	C559	C	0.048022	0.190814	0.333732
	C560	C	0.047963	0.315238	0.333697
	C561	C	0.057887	0.753042	0.287198
	C562	C	0.064528	0.753077	0.277844
	C563	C	0.067502	0.814955	0.273396
	C564	C	0.067502	0.691203	0.273382
	C565	C	0.058139	0.252889	0.287279
	C566	C	0.064700	0.252779	0.277886
	C567	C	0.067653	0.314725	0.273402
	C568	C	0.067660	0.190702	0.273404
	C569	C	0.115266	0.043536	0.314556
	C570	C	0.115270	0.962496	0.314560
	C571	C	0.037430	0.043007	0.302992
	C572	C	0.037422	0.962415	0.303017
	C573	C	0.047017	0.043253	0.303948
	C574	C	0.047029	0.962355	0.303949
	C575	C	0.038597	0.462568	0.302726
	C576	C	0.116026	0.462446	0.310311
	C577	C	0.113136	0.462295	0.316106
	C578	C	0.038625	0.543699	0.302733
	C579	C	0.113134	0.543090	0.316097
	C580	C	0.116041	0.543203	0.310320
	C581	C	0.096449	0.752633	0.326906
	C582	C	0.096524	0.252809	0.326960
	C583	C	0.089862	0.752652	0.336306
	C584	C	0.086860	0.690897	0.340789
	C585	C	0.086946	0.814662	0.340782
	C586	C	0.089966	0.252919	0.336350
	C587	C	0.086886	0.190904	0.340783
	C588	C	0.087000	0.314926	0.340809
	C589	C	0.101959	0.252100	0.295570
	C590	C	0.115093	0.752776	0.256178
	C591	C	0.085010	0.753092	0.251581
	C592	C	0.039593	0.753274	0.358043
	C593	C	0.106697	0.690620	0.280551
	C594	C	0.106665	0.814810	0.280493
	C595	C	0.112386	0.752670	0.266501
	C596	C	0.077005	0.753089	0.260435
	C597	C	0.073717	0.691212	0.264784
	C598	C	0.110414	0.690610	0.271258
	C599	C	0.110391	0.814742	0.271206
	C600	C	0.073719	0.814990	0.264802
	C601	C	0.104735	0.752793	0.285258
	C602	C	0.069678	0.752973	0.362720
	C603	C	0.080752	0.690937	0.349432
	C604	C	0.080837	0.814900	0.349424
	C605	C	0.077548	0.752950	0.353800
	C606	C	0.050877	0.462455	0.377348
	C607	C	0.103324	0.462278	0.242468
	C608	C	0.051963	0.462267	0.373308
	C609	C	0.050865	0.543211	0.377330
	C610	C	0.051920	0.543357	0.373309
	C611	C	0.103314	0.543345	0.242462
	C612	C	0.069639	0.252961	0.362706
	C613	C	0.080742	0.190924	0.349413
	C614	C	0.080848	0.314979	0.349434
	C615	C	0.077588	0.252960	0.353811
	C616	C	0.108301	0.043398	0.241947
	C617	C	0.115124	0.252787	0.256154
	C618	C	0.085033	0.252596	0.251521
	C619	C	0.039609	0.253027	0.358079
	C620	C	0.106692	0.190130	0.280520
	C621	C	0.106666	0.314558	0.280518
	C622	C	0.112377	0.252624	0.266484
	C623	C	0.077070	0.252645	0.260406
	C624	C	0.042269	0.753340	0.347714
	C625	C	0.044162	0.815395	0.342987
	C626	C	0.044204	0.691112	0.342998
	C627	C	0.042315	0.253208	0.347741
	C628	C	0.044245	0.315323	0.342989
	C629	C	0.044309	0.190884	0.343031
	C630	C	0.073802	0.190627	0.264783
	C631	C	0.110433	0.190374	0.271227
	C632	C	0.110421	0.314745	0.271228
	C633	C	0.073794	0.314681	0.264771
	C634	C	0.104723	0.252239	0.285246
	C635	C	0.043836	0.043332	0.375308
	C636	C	0.100084	0.043322	0.239456
	C637	C	0.108256	0.962407	0.241977
	C638	C	0.043765	0.962488	0.375309
	C639	C	0.100096	0.962353	0.239470
	N640	N	0.042472	0.070132	0.301648
	N641	N	0.042459	0.935592	0.301645
	N642	N	0.042550	0.435575	0.301657
	N643	N	0.042566	0.570246	0.301687
	N644	N	0.049651	0.435522	0.375048
	N645	N	0.049602	0.570156	0.375064
	N646	N	0.049692	0.070023	0.375070
	N647	N	0.049625	0.935424	0.375066
	O648	O	0.111028	0.694450	0.425934
	O649	O	0.110949	0.810631	0.426007
	O650	O	0.002369	0.694859	0.448568
	O651	O	0.002366	0.811098	0.448572
	O652	O	0.002371	0.194643	0.448531
	O653	O	0.002482	0.310812	0.448514
	O654	O	0.003802	0.693988	0.428441
	O655	O	0.003871	0.810758	0.428477
	O656	O	0.003785	0.194079	0.428476
	O657	O	0.003827	0.310833	0.428517
	O658	O	0.113266	0.694497	0.447183
	O659	O	0.113254	0.810747	0.447259
	O660	O	0.113229	0.194476	0.447144
	O661	O	0.113320	0.310468	0.447264
	O662	O	0.110910	0.194498	0.425988
	O663	O	0.110957	0.310604	0.425914
	O664	O	0.064831	0.694792	0.385997
	O665	O	0.036721	0.694563	0.385800
	O666	O	0.077290	0.694331	0.488369
	O667	O	0.077149	0.810554	0.488307
	O668	O	0.048663	0.694653	0.488533
	O669	O	0.048635	0.810726	0.488472
	O670	O	0.036720	0.810920	0.385809
	O671	O	0.064861	0.811149	0.385992
	O672	O	0.064746	0.194964	0.386020
	O673	O	0.036735	0.194228	0.385829
	O674	O	0.077279	0.194749	0.488343
	O675	O	0.077136	0.310645	0.488278
	O676	O	0.048615	0.194533	0.488477
	O677	O	0.048530	0.310533	0.488509
	O678	O	0.036592	0.310690	0.385785
	O679	O	0.064813	0.311195	0.385976
	H680	H	0.017224	0.644633	0.461354
	H681	H	0.017282	0.861031	0.461286
	H682	H	0.017366	0.144479	0.461256
	H683	H	0.017239	0.360649	0.461346
	H684	H	0.015829	0.862032	0.415341
	H685	H	0.015702	0.642657	0.415297
	H686	H	0.015710	0.362165	0.415306
	H687	H	0.016037	0.142899	0.415416
	H688	H	0.124640	0.064572	0.434085
	H689	H	0.122619	0.064573	0.435817
	H690	H	0.122564	0.941299	0.435824
	H691	H	0.124615	0.940866	0.434112
	H692	H	0.129149	0.064113	0.434649
	H693	H	0.129151	0.941117	0.434680
	H694	H	-0.011074	0.064697	0.435009
	H695	H	-0.011052	0.941103	0.435039
	H696	H	-0.014655	0.064355	0.434924
	H697	H	-0.014594	0.941235	0.434914
	H698	H	-0.016990	0.064267	0.437750
	H699	H	-0.016982	0.940999	0.437713
	H700	H	-0.009620	0.440958	0.437334
	H701	H	-0.011228	0.440693	0.435806
	H702	H	-0.011078	0.441140	0.439441
	H703	H	0.129037	0.441084	0.436747
	H704	H	0.127171	0.441087	0.438277
	H705	H	0.124922	0.441199	0.437963
	H706	H	-0.011214	0.564803	0.435817
	H707	H	-0.009694	0.564469	0.437325
	H708	H	0.124969	0.564354	0.437974
	H709	H	0.127218	0.564428	0.438287
	H710	H	0.129138	0.564595	0.436682
	H711	H	-0.011042	0.564377	0.439433
	H712	H	0.101626	0.644006	0.460287
	H713	H	0.101520	0.860715	0.460347
	H714	H	0.101564	0.144414	0.460284
	H715	H	0.101551	0.360215	0.460292
	H716	H	0.026842	0.642826	0.399790
	H717	H	0.079771	0.644097	0.398717
	H718	H	0.079780	0.861812	0.398755
	H719	H	0.027006	0.862218	0.399856
	H720	H	0.096174	0.643951	0.413156
	H721	H	0.096164	0.861711	0.413186
	H722	H	0.088878	0.643593	0.475201
	H723	H	0.088770	0.860584	0.475238
	H724	H	0.049238	0.441066	0.378635
	H725	H	0.061860	0.441052	0.498437
	H726	H	0.044494	0.441015	0.375789
	H727	H	0.045262	0.440593	0.372867
	H728	H	0.064598	0.441116	0.500653
	H729	H	0.062644	0.441349	0.500249
	H730	H	0.061864	0.564309	0.498453
	H731	H	0.049245	0.564189	0.378591
	H732	H	0.062711	0.564657	0.500281
	H733	H	0.064587	0.564651	0.500672
	H734	H	0.045286	0.564348	0.372894
	H735	H	0.044585	0.564422	0.375758
	H736	H	0.088877	0.144394	0.475170
	H737	H	0.088841	0.360378	0.475174
	H738	H	0.056267	0.064457	0.371398
	H739	H	0.049448	0.064745	0.369167
	H740	H	0.057576	0.064295	0.378154
	H741	H	0.033771	0.861114	0.475675
	H742	H	0.033731	0.644482	0.475724
	H743	H	0.033597	0.360713	0.475795
	H744	H	0.033748	0.144375	0.475684
	H745	H	0.027168	0.142789	0.399925
	H746	H	0.079561	0.144974	0.398739
	H747	H	0.079880	0.361480	0.398712
	H748	H	0.026824	0.361877	0.399779
	H749	H	0.095937	0.144471	0.413218
	H750	H	0.096236	0.360782	0.413148
	H751	H	0.067029	0.064263	0.497492
	H752	H	0.064078	0.064345	0.496449
	H753	H	0.060451	0.064455	0.497998
	H754	H	0.049365	0.941099	0.369082
	H755	H	0.056278	0.940477	0.371359
	H756	H	0.057533	0.941109	0.378169
	H757	H	0.067049	0.941069	0.497525
	H758	H	0.064074	0.940830	0.496475
	H759	H	0.060474	0.941318	0.498024
	Zn760	Zn	-0.012729	0.680643	0.437605
	Zn761	Zn	-0.012704	0.824964	0.437554
	Zn762	Zn	-0.012742	0.180493	0.437585
	Zn763	Zn	-0.012657	0.325021	0.437574
	Zn764	Zn	0.064117	0.680085	0.499133
	Zn765	Zn	0.064156	0.825565	0.499070
	Zn766	Zn	0.064087	0.179963	0.499039
	Zn767	Zn	0.064092	0.325633	0.498993
	C768	C	0.107053	0.752594	0.422683
	C769	C	0.006347	0.752959	0.451828
	C770	C	0.016325	0.752835	0.460444
	C771	C	0.020926	0.691589	0.464539
	C772	C	0.020939	0.814140	0.464503
	C773	C	0.006358	0.252645	0.451815
	C774	C	0.016293	0.252602	0.460450
	C775	C	0.020933	0.191453	0.464511
	C776	C	0.020863	0.313672	0.464560
	C777	C	0.007262	0.752374	0.425195
	C778	C	0.015115	0.752433	0.416282
	C779	C	0.018372	0.814450	0.411919
	C780	C	0.018310	0.690355	0.411893
	C781	C	0.007288	0.252507	0.425249
	C782	C	0.015200	0.252627	0.416330
	C783	C	0.018331	0.314521	0.411910
	C784	C	0.018514	0.190573	0.411978
	C785	C	0.124370	0.043332	0.435363
	C786	C	0.124345	0.962300	0.435383
	C787	C	-0.012850	0.043222	0.435646
	C788	C	-0.012827	0.962377	0.435648
	C789	C	-0.015221	0.043065	0.438452
	C790	C	-0.015214	0.962274	0.438443
	C791	C	-0.011041	0.462292	0.436826
	C792	C	0.128058	0.462259	0.436145
	C793	C	0.126137	0.462484	0.437706
	C794	C	-0.011059	0.543364	0.436813
	C795	C	0.126194	0.543188	0.437706
	C796	C	0.128128	0.543012	0.436126
	C797	C	0.110154	0.752534	0.450600
	C798	C	0.110162	0.252337	0.450579
	C799	C	0.102270	0.752378	0.459446
	C800	C	0.098740	0.690932	0.463621
	C801	C	0.098682	0.813665	0.463661
	C802	C	0.102290	0.252316	0.459405
	C803	C	0.098739	0.191160	0.463587
	C804	C	0.098706	0.313411	0.463598
	C805	C	0.107002	0.252475	0.422661
	C806	C	0.068792	0.752956	0.389265
	C807	C	0.034037	0.752715	0.389430
	C808	C	0.044737	0.752637	0.485195
	C809	C	0.092459	0.691216	0.409978
	C810	C	0.092447	0.814438	0.410002
	C811	C	0.078754	0.752913	0.397899
	C812	C	0.027440	0.752552	0.398816
	C813	C	0.024422	0.690438	0.403255
	C814	C	0.083377	0.691313	0.401965
	C815	C	0.083372	0.814483	0.401985
	C816	C	0.024477	0.814532	0.403283
	C817	C	0.097042	0.752738	0.414085
	C818	C	0.080288	0.752377	0.484957
	C819	C	0.091704	0.690790	0.471893
	C820	C	0.091622	0.813599	0.471919
	C821	C	0.088099	0.752141	0.476090
	C822	C	0.062986	0.462313	0.498257
	C823	C	0.046124	0.462231	0.374510
	C824	C	0.063758	0.462347	0.500073
	C825	C	0.062985	0.543267	0.498284
	C826	C	0.063743	0.543382	0.500109
	C827	C	0.046130	0.542970	0.374504
	C828	C	0.080324	0.252684	0.484933
	C829	C	0.091713	0.191215	0.471856
	C830	C	0.091675	0.313497	0.471860
	C831	C	0.088161	0.252389	0.476068
	C832	C	0.052020	0.043357	0.371515
	C833	C	0.068759	0.253152	0.389247
	C834	C	0.034038	0.252419	0.389428
	C835	C	0.044612	0.252525	0.485226
	C836	C	0.092333	0.191386	0.409981
	C837	C	0.092491	0.314003	0.409948
	C838	C	0.078747	0.253168	0.397867
	C839	C	0.027475	0.252438	0.398821
	C840	C	0.034690	0.752778	0.476603
	C841	C	0.030042	0.814026	0.472508
	C842	C	0.030012	0.691561	0.472552
	C843	C	0.034570	0.252576	0.476641
	C844	C	0.029961	0.313764	0.472568
	C845	C	0.030035	0.191348	0.472516
	C846	C	0.024599	0.190532	0.403329
	C847	C	0.083257	0.191800	0.401964
	C848	C	0.083425	0.314304	0.401938
	C849	C	0.024414	0.314362	0.403260
	C850	C	0.097009	0.252519	0.414051
	C851	C	0.065165	0.043139	0.497518
	C852	C	0.053270	0.042997	0.378360
	C853	C	0.051969	0.962064	0.371494
	C854	C	0.065190	0.962336	0.497541
	C855	C	0.053250	0.962502	0.378362
	N856	N	-0.012824	0.070073	0.437556
	N857	N	-0.012821	0.935383	0.437556
	N858	N	-0.012744	0.435411	0.437576
	N859	N	-0.012761	0.570138	0.437572
	N860	N	0.064151	0.435541	0.499060
	N861	N	0.064149	0.570080	0.499100
	N862	N	0.064078	0.070098	0.499025
	N863	N	0.064092	0.935584	0.499041
	O864	O	0.125364	0.695282	0.549763
	O865	O	0.125483	0.811397	0.549742
	O866	O	0.017058	0.694232	0.572114
	O867	O	0.017011	0.810392	0.572149
	O868	O	0.016869	0.194439	0.572132
	O869	O	0.017028	0.310475	0.572050
	O870	O	0.014615	0.694729	0.550846
	O871	O	0.014775	0.810823	0.550904
	O872	O	0.014808	0.194565	0.550874
	O873	O	0.014751	0.310719	0.550808
	O874	O	0.123882	0.694375	0.569775
	O875	O	0.124012	0.811204	0.569790
	O876	O	0.123800	0.194417	0.569722
	O877	O	0.123859	0.311118	0.569744
	O878	O	0.125358	0.194586	0.549650
	O879	O	0.125380	0.310868	0.549723
	O880	O	0.079575	0.695092	0.509663
	O881	O	0.050828	0.694955	0.509774
	O882	O	0.091035	0.695047	0.612480
	O883	O	0.090834	0.811528	0.612352
	O884	O	0.062954	0.694000	0.612209
	O885	O	0.062819	0.810198	0.612233
	O886	O	0.050889	0.810871	0.509756
	O887	O	0.079608	0.810929	0.509643
	O888	O	0.079573	0.195038	0.509544
	O889	O	0.050928	0.194077	0.509744
	O890	O	0.091088	0.194491	0.612443
	O891	O	0.091037	0.310937	0.612442
	O892	O	0.062828	0.194760	0.612190
	O893	O	0.062871	0.310897	0.612215
	O894	O	0.050956	0.310250	0.509684
	O895	O	0.079458	0.311173	0.509668
	H896	H	0.031896	0.643838	0.584861
	H897	H	0.031829	0.860231	0.584933
	H898	H	0.031642	0.144488	0.584959
	H899	H	0.031904	0.360735	0.584813
	H900	H	0.026451	0.860851	0.537753
	H901	H	0.026356	0.644710	0.537762
	H902	H	0.026373	0.360908	0.537663
	H903	H	0.026540	0.144149	0.537788
	H904	H	0.146319	0.064633	0.561663
	H905	H	0.145216	0.064382	0.558370
	H906	H	0.145296	0.940981	0.558407
	H907	H	0.146375	0.940644	0.561702
	H908	H	0.141349	0.064931	0.564618
	H909	H	0.141291	0.940942	0.564660
	H910	H	0.001443	0.064189	0.560625
	H911	H	0.001427	0.940920	0.560660
	H912	H	0.000398	0.064352	0.560989
	H913	H	0.000410	0.940772	0.560990
	H914	H	0.000372	0.064060	0.562066
	H915	H	0.000440	0.940790	0.562106
	H916	H	0.003855	0.440598	0.562645
	H917	H	0.004211	0.440634	0.561149
	H918	H	0.000886	0.440699	0.563294
	H919	H	0.143426	0.440738	0.560779
	H920	H	0.141470	0.440682	0.562553
	H921	H	0.139007	0.440800	0.562283
	H922	H	0.004133	0.564293	0.561158
	H923	H	0.003822	0.564021	0.562686
	H924	H	0.138937	0.564420	0.562258
	H925	H	0.141408	0.564001	0.562592
	H926	H	0.143432	0.564078	0.560811
	H927	H	0.000941	0.564090	0.563298
	H928	H	0.111927	0.643227	0.582932
	H929	H	0.111724	0.862633	0.582776
	H930	H	0.111944	0.143213	0.582895
	H931	H	0.111908	0.362378	0.582904
	H932	H	0.039058	0.644621	0.522879
	H933	H	0.094186	0.645767	0.522557
	H934	H	0.094461	0.860841	0.522395
	H935	H	0.039147	0.860782	0.522828
	H936	H	0.110423	0.645859	0.537057
	H937	H	0.110721	0.860885	0.536911
	H938	H	0.100849	0.643339	0.598466
	H939	H	0.100612	0.863082	0.598311
	H940	H	0.063259	0.440948	0.497510
	H941	H	0.082762	0.441231	0.622816
	H942	H	0.065915	0.441270	0.498081
	H943	H	0.066448	0.441721	0.499359
	H944	H	0.074973	0.440852	0.620556
	H945	H	0.078889	0.440836	0.620035
	H946	H	0.082869	0.564339	0.622890
	H947	H	0.063297	0.564953	0.497561
	H948	H	0.079009	0.564026	0.619948
	H949	H	0.075042	0.564044	0.620469
	H950	H	0.066534	0.564349	0.499453
	H951	H	0.065942	0.564754	0.498123
	H952	H	0.100882	0.143170	0.598431
	H953	H	0.100857	0.362370	0.598432
	H954	H	0.064685	0.064482	0.501609
	H955	H	0.067401	0.064516	0.500469
	H956	H	0.060686	0.064525	0.500157
	H957	H	0.048152	0.860100	0.599408
	H958	H	0.048130	0.643644	0.599354
	H959	H	0.048141	0.360936	0.599299
	H960	H	0.047904	0.144974	0.599456
	H961	H	0.039275	0.143927	0.522871
	H962	H	0.094447	0.144122	0.522307
	H963	H	0.094126	0.361842	0.522542
	H964	H	0.039141	0.360733	0.522776
	H965	H	0.110719	0.144030	0.536808
	H966	H	0.110393	0.361806	0.537033
	H967	H	0.068550	0.064550	0.620998
	H968	H	0.069906	0.064327	0.626486
	H969	H	0.080471	0.064574	0.629456
	H970	H	0.067368	0.941317	0.500518
	H971	H	0.064739	0.940890	0.501613
	H972	H	0.060737	0.941335	0.500196
	H973	H	0.068481	0.940731	0.620974
	H974	H	0.069827	0.941341	0.626505
	H975	H	0.080515	0.941276	0.629511
	Zn976	Zn	0.001480	0.679920	0.561552
	Zn977	Zn	0.001549	0.825417	0.561570
	Zn978	Zn	0.001543	0.179949	0.561553
	Zn979	Zn	0.001586	0.325386	0.561530
	Zn980	Zn	0.078079	0.680255	0.623183
	Zn981	Zn	0.077867	0.825074	0.623165
	Zn982	Zn	0.077923	0.180136	0.623113
	Zn983	Zn	0.077963	0.325066	0.623138
	C984	C	0.121518	0.753389	0.546451
	C985	C	0.020976	0.752260	0.575403
	C986	C	0.030923	0.752072	0.584017
	C987	C	0.035506	0.690781	0.588100
	C988	C	0.035461	0.813237	0.588137
	C989	C	0.020862	0.252449	0.575383
	C990	C	0.030808	0.252617	0.584019
	C991	C	0.035312	0.191549	0.588157
	C992	C	0.035462	0.313854	0.588074
	C993	C	0.017796	0.752746	0.547494
	C994	C	0.025628	0.752739	0.538620
	C995	C	0.029229	0.813975	0.534408
	C996	C	0.029166	0.691509	0.534431
	C997	C	0.017874	0.252591	0.547459
	C998	C	0.025753	0.252521	0.538595
	C999	C	0.029267	0.313862	0.534366
	C1000	C	0.029355	0.191000	0.534426
	C1001	C	0.144413	0.043155	0.560171
	C1002	C	0.144461	0.962267	0.560185
	C1003	C	0.001100	0.043172	0.561031
	C1004	C	0.001096	0.962152	0.561038
	C1005	C	0.001079	0.042986	0.562147
	C1006	C	0.001091	0.962208	0.562144
	C1007	C	0.003368	0.462084	0.561824
	C1008	C	0.142343	0.461997	0.560188
	C1009	C	0.140320	0.462155	0.561963
	C1010	C	0.003339	0.543049	0.561836
	C1011	C	0.140287	0.543086	0.561985
	C1012	C	0.142344	0.543007	0.560199
	C1013	C	0.120490	0.752882	0.573034
	C1014	C	0.120407	0.252777	0.573017
	C1015	C	0.112510	0.752945	0.581920
	C1016	C	0.109299	0.690946	0.586327
	C1017	C	0.109197	0.815047	0.586239
	C1018	C	0.112547	0.252828	0.581950
	C1019	C	0.109372	0.190846	0.586332
	C1020	C	0.109349	0.314745	0.586333
	C1021	C	0.121442	0.252826	0.546418
	C1022	C	0.083458	0.753047	0.512961
	C1023	C	0.047754	0.752949	0.513149
	C1024	C	0.058977	0.752033	0.608924
	C1025	C	0.106874	0.692519	0.533778
	C1026	C	0.107027	0.814296	0.533689
	C1027	C	0.093378	0.753365	0.521584
	C1028	C	0.039803	0.752785	0.521955
	C1029	C	0.036206	0.691587	0.526169
	C1030	C	0.097877	0.692544	0.525728
	C1031	C	0.098016	0.814213	0.525642
	C1032	C	0.036248	0.813966	0.526133
	C1033	C	0.111564	0.753471	0.537810
	C1034	C	0.093565	0.753222	0.608791
	C1035	C	0.103147	0.691062	0.594957
	C1036	C	0.103035	0.815170	0.594865
	C1037	C	0.100103	0.753211	0.599383
	C1038	C	0.081130	0.462461	0.623854
	C1039	C	0.065676	0.462747	0.498824
	C1040	C	0.077261	0.462169	0.621033
	C1041	C	0.081186	0.543232	0.623911
	C1042	C	0.077307	0.542993	0.621015
	C1043	C	0.065683	0.543354	0.498863
	C1044	C	0.093698	0.252729	0.608820
	C1045	C	0.103306	0.190838	0.594984
	C1046	C	0.103296	0.314742	0.594993
	C1047	C	0.100309	0.252769	0.599449
	C1048	C	0.065515	0.043324	0.500535
	C1049	C	0.083397	0.252994	0.512915
	C1050	C	0.047806	0.252265	0.513080
	C1051	C	0.058938	0.252908	0.608907
	C1052	C	0.106992	0.191354	0.533638
	C1053	C	0.106829	0.314521	0.533771
	C1054	C	0.093316	0.252986	0.521571
	C1055	C	0.039934	0.252368	0.521923
	C1056	C	0.049078	0.751874	0.600259
	C1057	C	0.044494	0.813173	0.596175
	C1058	C	0.044504	0.690648	0.596150
	C1059	C	0.048997	0.252993	0.600269
	C1060	C	0.044466	0.313975	0.596120
	C1061	C	0.044331	0.191852	0.596210
	C1062	C	0.036400	0.191034	0.526157
	C1063	C	0.097976	0.191323	0.525592
	C1064	C	0.097810	0.314555	0.525731
	C1065	C	0.036317	0.313720	0.526101
	C1066	C	0.111478	0.252889	0.537800
	C1067	C	0.071567	0.043043	0.623554
	C1068	C	0.061475	0.043109	0.499066
	C1069	C	0.065518	0.962376	0.500536
	C1070	C	0.071511	0.962251	0.623579
	C1071	C	0.061516	0.962440	0.499083
	N1072	N	0.001563	0.070001	0.561566
	N1073	N	0.001598	0.935505	0.561589
	N1074	N	0.001551	0.435400	0.561532
	N1075	N	0.001547	0.569907	0.561568
	N1076	N	0.078071	0.435390	0.623140
	N1077	N	0.078101	0.570053	0.623159
	N1078	N	0.077992	0.069893	0.623102
	N1079	N	0.077980	0.935290	0.623125
	O1080	O	0.074595	0.694722	0.683709
	O1081	O	0.074600	0.811602	0.683694
	O1082	O	0.026220	0.694428	0.698612
	O1083	O	0.026361	0.811395	0.698568
	O1084	O	0.026185	0.194334	0.698604
	O1085	O	0.026274	0.311036	0.698646
	O1086	O	0.028522	0.693998	0.674897
	O1087	O	0.028671	0.810430	0.674917
	O1088	O	0.028558	0.194395	0.674893
	O1089	O	0.028605	0.310882	0.674941
	O1090	O	0.072391	0.695137	0.707365
	O1091	O	0.072396	0.811691	0.707416
	O1092	O	0.072397	0.194547	0.707412
	O1093	O	0.072381	0.310819	0.707428
	O1094	O	0.074564	0.194199	0.683681
	O1095	O	0.074715	0.310968	0.683661
	O1096	O	0.088648	0.694821	0.636127
	O1097	O	0.061577	0.693848	0.632300
	O1098	O	0.039397	0.694625	0.750006
	O1099	O	0.039347	0.811281	0.749998
	O1100	O	0.012093	0.694945	0.746228
	O1101	O	0.012191	0.811779	0.746201
	O1102	O	0.061344	0.810688	0.632209
	O1103	O	0.088593	0.811771	0.636083
	O1104	O	0.088540	0.193669	0.636041
	O1105	O	0.061367	0.194503	0.632213
	O1106	O	0.039271	0.194641	0.750023
	O1107	O	0.039319	0.311298	0.749954
	O1108	O	0.012025	0.194502	0.746221
	O1109	O	0.012161	0.311411	0.746255
	O1110	O	0.061432	0.311278	0.632236
	O1111	O	0.088587	0.310667	0.636048
	H1112	H	0.022457	0.642898	0.714051
	H1113	H	0.022383	0.863150	0.714000
	H1114	H	0.022378	0.142426	0.714041
	H1115	H	0.022523	0.362361	0.714045
	H1116	H	0.038374	0.861904	0.660927
	H1117	H	0.038087	0.642552	0.660815
	H1118	H	0.038377	0.362523	0.660909
	H1119	H	0.038243	0.143324	0.660858
	H1120	H	0.082198	0.064982	0.702082
	H1121	H	0.089692	0.064729	0.701935
	H1122	H	0.089722	0.941841	0.701920
	H1123	H	0.082315	0.941281	0.702102
	H1124	H	0.076462	0.064824	0.696220
	H1125	H	0.076374	0.941411	0.696204
	H1126	H	0.016813	0.064362	0.685713
	H1127	H	0.016760	0.940516	0.685724
	H1128	H	0.016342	0.064450	0.685111
	H1129	H	0.016395	0.941025	0.685123
	H1130	H	0.015021	0.064708	0.684922
	H1131	H	0.015105	0.940937	0.684898
	H1132	H	0.013808	0.440714	0.685288
	H1133	H	0.014005	0.440582	0.686334
	H1134	H	0.015425	0.440674	0.684514
	H1135	H	0.086170	0.441403	0.695697
	H1136	H	0.086990	0.441670	0.696951
	H1137	H	0.086025	0.441159	0.697751
	H1138	H	0.014012	0.564113	0.686286
	H1139	H	0.013790	0.563938	0.685210
	H1140	H	0.086044	0.564807	0.697751
	H1141	H	0.086946	0.564985	0.696997
	H1142	H	0.086194	0.564912	0.695671
	H1143	H	0.015573	0.564095	0.684410
	H1144	H	0.062529	0.643127	0.721411
	H1145	H	0.062526	0.862750	0.721396
	H1146	H	0.062688	0.143215	0.721466
	H1147	H	0.062566	0.362001	0.721405
	H1148	H	0.049163	0.642695	0.645259
	H1149	H	0.084852	0.643026	0.651569
	H1150	H	0.084900	0.863095	0.651504
	H1151	H	0.049438	0.861895	0.645402
	H1152	H	0.078407	0.643061	0.668324
	H1153	H	0.078464	0.863150	0.668311
	H1154	H	0.051416	0.643042	0.736904
	H1155	H	0.051370	0.862763	0.736898
	H1156	H	0.081660	0.440932	0.625368
	H1157	H	0.025530	0.441973	0.757042
	H1158	H	0.076310	0.441019	0.626088
	H1159	H	0.073445	0.441210	0.623987
	H1160	H	0.018656	0.441067	0.758475
	H1161	H	0.020667	0.441279	0.756609
	H1162	H	0.025469	0.565072	0.757066
	H1163	H	0.081654	0.564550	0.625445
	H1164	H	0.020666	0.564740	0.756661
	H1165	H	0.018692	0.565103	0.758508
	H1166	H	0.073410	0.564793	0.624001
	H1167	H	0.076198	0.564771	0.626141
	H1168	H	0.051501	0.143246	0.736976
	H1169	H	0.051415	0.362019	0.736903
	H1170	H	0.084788	0.064368	0.618717
	H1171	H	0.077159	0.064503	0.616618
	H1172	H	0.086783	0.064583	0.626184
	H1173	H	0.015887	0.863207	0.730778
	H1174	H	0.016000	0.643042	0.730845
	H1175	H	0.015946	0.362458	0.730814
	H1176	H	0.015796	0.142562	0.730793
	H1177	H	0.049265	0.143251	0.645305
	H1178	H	0.084865	0.142486	0.651464
	H1179	H	0.084920	0.362463	0.651496
	H1180	H	0.049400	0.362503	0.645355
	H1181	H	0.078404	0.142655	0.668244
	H1182	H	0.078420	0.362310	0.668268
	H1183	H	0.020060	0.065211	0.759719
	H1184	H	0.021780	0.064878	0.760867
	H1185	H	0.025010	0.064646	0.760509
	H1186	H	0.077133	0.940984	0.616597
	H1187	H	0.084785	0.941094	0.618762
	H1188	H	0.086744	0.940832	0.626260
	H1189	H	0.020164	0.941386	0.759689
	H1190	H	0.021810	0.941706	0.760873
	H1191	H	0.025016	0.941303	0.760498
	Zn1192	Zn	0.015603	0.679930	0.685704
	Zn1193	Zn	0.015634	0.825073	0.685713
	Zn1194	Zn	0.015557	0.180095	0.685672
	Zn1195	Zn	0.015591	0.324909	0.685721
	Zn1196	Zn	0.022774	0.680840	0.759102
	Zn1197	Zn	0.022925	0.825511	0.759157
	Zn1198	Zn	0.022776	0.180816	0.759125
	Zn1199	Zn	0.022873	0.325448	0.759154
	C1200	C	0.075141	0.753144	0.679625
	C1201	C	0.025707	0.753010	0.702671
	C1202	C	0.022966	0.753095	0.713018
	C1203	C	0.021048	0.690836	0.717778
	C1204	C	0.021018	0.815315	0.717742
	C1205	C	0.025663	0.252620	0.702718
	C1206	C	0.022930	0.252489	0.713040
	C1207	C	0.020931	0.190250	0.717765
	C1208	C	0.021034	0.314651	0.717782
	C1209	C	0.031245	0.752198	0.671290
	C1210	C	0.037853	0.752152	0.661916
	C1211	C	0.040801	0.814219	0.657462
	C1212	C	0.040637	0.690100	0.657393
	C1213	C	0.031194	0.252736	0.671281
	C1214	C	0.037769	0.252957	0.661889
	C1215	C	0.040781	0.314887	0.657437
	C1216	C	0.040700	0.190959	0.657405
	C1217	C	0.085731	0.043381	0.700572
	C1218	C	0.085763	0.962590	0.700587
	C1219	C	0.016336	0.043116	0.685481
	C1220	C	0.016363	0.962208	0.685498
	C1221	C	0.014970	0.043214	0.685311
	C1222	C	0.014994	0.962066	0.685309
	C1223	C	0.014393	0.461883	0.685784
	C1224	C	0.085315	0.462590	0.695840
	C1225	C	0.086124	0.462621	0.697155
	C1226	C	0.014381	0.542640	0.685730
	C1227	C	0.086140	0.543481	0.697160
	C1228	C	0.085372	0.543597	0.695846
	C1229	C	0.069773	0.753295	0.711031
	C1230	C	0.069737	0.252636	0.711048
	C1231	C	0.063207	0.753004	0.720436
	C1232	C	0.060171	0.690898	0.724885
	C1233	C	0.060160	0.815008	0.724884
	C1234	C	0.063133	0.252545	0.720423
	C1235	C	0.060204	0.190759	0.724909
	C1236	C	0.060137	0.314397	0.724864
	C1237	C	0.075210	0.252520	0.679592
	C1238	C	0.088089	0.753351	0.640181
	C1239	C	0.058024	0.752253	0.635522
	C1240	C	0.012696	0.753281	0.742132
	C1241	C	0.079762	0.690894	0.664584
	C1242	C	0.079787	0.815371	0.664553
	C1243	C	0.085396	0.753150	0.650526
	C1244	C	0.050142	0.752312	0.644444
	C1245	C	0.046765	0.690273	0.648762
	C1246	C	0.083467	0.690933	0.655290
	C1247	C	0.083496	0.815338	0.655259
	C1248	C	0.046913	0.814213	0.648833
	C1249	C	0.077841	0.753196	0.669297
	C1250	C	0.042827	0.752984	0.746752
	C1251	C	0.054011	0.690857	0.733505
	C1252	C	0.054000	0.815048	0.733509
	C1253	C	0.050808	0.752975	0.737890
	C1254	C	0.025338	0.462802	0.758410
	C1255	C	0.075703	0.462179	0.624554
	C1256	C	0.020456	0.462698	0.757958
	C1257	C	0.025273	0.543680	0.758400
	C1258	C	0.020462	0.543589	0.757968
	C1259	C	0.075681	0.543145	0.624573
	C1260	C	0.042767	0.252834	0.746740
	C1261	C	0.054034	0.190776	0.733528
	C1262	C	0.053985	0.314455	0.733486
	C1263	C	0.050713	0.252626	0.737861
	C1264	C	0.080225	0.043177	0.619085
	C1265	C	0.088031	0.252201	0.640122
	C1266	C	0.057968	0.252885	0.635496
	C1267	C	0.012638	0.252958	0.742162
	C1268	C	0.079803	0.190304	0.664503
	C1269	C	0.079812	0.314597	0.664516
	C1270	C	0.085396	0.252464	0.650465
	C1271	C	0.050051	0.252887	0.644395
	C1272	C	0.015382	0.753143	0.731799
	C1273	C	0.017317	0.815368	0.727046
	C1274	C	0.017350	0.690807	0.727083
	C1275	C	0.015355	0.252665	0.731815
	C1276	C	0.017340	0.314673	0.727082
	C1277	C	0.017232	0.190419	0.727064
	C1278	C	0.046780	0.190925	0.648755
	C1279	C	0.083461	0.190282	0.655195
	C1280	C	0.083481	0.314606	0.655211
	C1281	C	0.046863	0.314892	0.648787
	C1282	C	0.077864	0.252457	0.669248
	C1283	C	0.021391	0.043626	0.759982
	C1284	C	0.082161	0.043147	0.626572
	C1285	C	0.080227	0.962376	0.619101
	C1286	C	0.021456	0.962617	0.759984
	C1287	C	0.082151	0.962194	0.626606
	N1288	N	0.015590	0.069852	0.685649
	N1289	N	0.015613	0.935276	0.685635
	N1290	N	0.015639	0.435201	0.685742
	N1291	N	0.015659	0.569820	0.685705
	N1292	N	0.022783	0.435869	0.759119
	N1293	N	0.022749	0.570527	0.759110
	N1294	N	0.022733	0.070419	0.759124
	N1295	N	0.022777	0.935779	0.759107
	O1296	O	0.085914	0.694394	0.809032
	O1297	O	0.085792	0.810678	0.809080
	O1298	O	-0.024369	0.695057	0.832473
	O1299	O	-0.024377	0.811378	0.832378
	O1300	O	-0.024305	0.195474	0.832379
	O1301	O	-0.024444	0.311768	0.832434
	O1302	O	-0.023206	0.695152	0.812486
	O1303	O	-0.023256	0.811719	0.812450
	O1304	O	-0.023048	0.194918	0.812555
	O1305	O	-0.023228	0.311648	0.812521
	O1306	O	0.089285	0.694707	0.830367
	O1307	O	0.089063	0.810728	0.830203
	O1308	O	0.089276	0.194895	0.830336
	O1309	O	0.089227	0.310846	0.830281
	O1310	O	0.085961	0.194519	0.809039
	O1311	O	0.085783	0.310628	0.809095
	O1312	O	0.038109	0.694056	0.769965
	O1313	O	0.009864	0.695231	0.769900
	O1314	O	0.052088	0.694798	0.870929
	O1315	O	0.052092	0.810824	0.870943
	O1316	O	0.023267	0.695373	0.871547
	O1317	O	0.023395	0.811580	0.871496
	O1318	O	0.010005	0.811645	0.769959
	O1319	O	0.038188	0.810507	0.769946
	O1320	O	0.038116	0.194464	0.769944
	O1321	O	0.009940	0.194918	0.769935
	O1322	O	0.051957	0.194794	0.870845
	O1323	O	0.052039	0.310904	0.870879
	O1324	O	0.023184	0.195319	0.871547
	O1325	O	0.023279	0.311600	0.871543
	O1326	O	0.009884	0.311316	0.769918
	O1327	O	0.038117	0.310850	0.769947
	H1328	H	-0.009048	0.645281	0.844977
	H1329	H	-0.009051	0.861793	0.844879
	H1330	H	-0.008947	0.145416	0.844840
	H1331	H	-0.009121	0.362041	0.844975
	H1332	H	-0.010913	0.862886	0.799445
	H1333	H	-0.011280	0.644178	0.799349
	H1334	H	-0.011035	0.362827	0.799434
	H1335	H	-0.010826	0.143958	0.799497
	H1336	H	0.102548	0.064517	0.819642
	H1337	H	0.102552	0.064632	0.819073
	H1338	H	0.102508	0.941298	0.819048
	H1339	H	0.102575	0.941300	0.819571
	H1340	H	0.101662	0.064722	0.820014
	H1341	H	0.101631	0.941416	0.819970
	H1342	H	-0.034174	0.064575	0.822526
	H1343	H	-0.034186	0.941291	0.822499
	H1344	H	-0.035366	0.064510	0.819351
	H1345	H	-0.035478	0.941319	0.819378
	H1346	H	-0.041667	0.064683	0.818055
	H1347	H	-0.041812	0.941072	0.818103
	H1348	H	-0.035714	0.441766	0.821587
	H1349	H	-0.037342	0.441396	0.819502
	H1350	H	-0.038063	0.441209	0.824085
	H1351	H	0.101796	0.441248	0.816702
	H1352	H	0.105460	0.440892	0.818608
	H1353	H	0.105142	0.441134	0.820852
	H1354	H	-0.037296	0.564632	0.819546
	H1355	H	-0.035668	0.564278	0.821605
	H1356	H	0.105150	0.564635	0.820842
	H1357	H	0.105508	0.564423	0.818616
	H1358	H	0.101716	0.564218	0.816671
	H1359	H	-0.038006	0.564694	0.824122
	H1360	H	0.077364	0.644813	0.843324
	H1361	H	0.077279	0.860809	0.843252
	H1362	H	0.077184	0.144712	0.843219
	H1363	H	0.077389	0.361172	0.843338
	H1364	H	-0.000039	0.644085	0.783870
	H1365	H	0.053428	0.643632	0.782493
	H1366	H	0.053452	0.860835	0.782469
	H1367	H	0.000317	0.862832	0.783981
	H1368	H	0.070484	0.643619	0.796587
	H1369	H	0.070475	0.861114	0.796537
	H1370	H	0.064179	0.645044	0.858040
	H1371	H	0.064109	0.860702	0.857977
	H1372	H	0.027067	0.441675	0.759282
	H1373	H	0.042185	0.441258	0.882114
	H1374	H	0.024279	0.441411	0.761806
	H1375	H	0.020757	0.440890	0.761529
	H1376	H	0.037860	0.441345	0.879921
	H1377	H	0.040408	0.441361	0.879984
	H1378	H	0.042215	0.564481	0.882013
	H1379	H	0.026935	0.565114	0.759257
	H1380	H	0.040356	0.564951	0.879924
	H1381	H	0.037768	0.565027	0.879920
	H1382	H	0.020766	0.564639	0.761491
	H1383	H	0.024247	0.564690	0.761747
	H1384	H	0.063895	0.144568	0.857882
	H1385	H	0.064096	0.360892	0.858000
	H1386	H	0.023243	0.065025	0.757329
	H1387	H	0.021003	0.064853	0.757558
	H1388	H	0.025623	0.064813	0.758926
	H1389	H	0.007937	0.861907	0.859025
	H1390	H	0.007896	0.645441	0.859101
	H1391	H	0.007770	0.362343	0.859145
	H1392	H	0.007950	0.144985	0.859010
	H1393	H	0.000254	0.143995	0.783951
	H1394	H	0.053600	0.144104	0.782393
	H1395	H	0.053589	0.361160	0.782384
	H1396	H	0.000092	0.362488	0.783901
	H1397	H	0.070576	0.143955	0.796521
	H1398	H	0.070572	0.360933	0.796510
	H1399	H	0.036704	0.064472	0.882778
	H1400	H	0.038738	0.064698	0.883699
	H1401	H	0.041672	0.064675	0.882797
	H1402	H	0.020994	0.941804	0.757601
	H1403	H	0.023305	0.941533	0.757302
	H1404	H	0.025636	0.941227	0.758920
	H1405	H	0.036703	0.941324	0.882776
	H1406	H	0.038771	0.941162	0.883691
	H1407	H	0.041701	0.941288	0.882803
	Zn1408	Zn	-0.039596	0.680584	0.821631
	Zn1409	Zn	-0.039743	0.825317	0.821610
	Zn1410	Zn	-0.039674	0.180554	0.821588
	Zn1411	Zn	-0.039793	0.325442	0.821572
	Zn1412	Zn	0.039174	0.680072	0.881790
	Zn1413	Zn	0.039198	0.825679	0.881808
	Zn1414	Zn	0.039143	0.180122	0.881758
	Zn1415	Zn	0.039219	0.325711	0.881782
	C1416	C	0.081792	0.752491	0.805852
	C1417	C	-0.020346	0.753350	0.835649
	C1418	C	-0.010055	0.753544	0.844093
	C1419	C	-0.005278	0.692305	0.848105
	C1420	C	-0.005263	0.814924	0.848052
	C1421	C	-0.020315	0.253638	0.835621
	C1422	C	-0.010085	0.253711	0.844105
	C1423	C	-0.005252	0.192328	0.848047
	C1424	C	-0.005348	0.315098	0.848131
	C1425	C	-0.019775	0.753463	0.809203
	C1426	C	-0.011788	0.753503	0.800347
	C1427	C	-0.008417	0.815360	0.796010
	C1428	C	-0.008611	0.691651	0.795959
	C1429	C	-0.019664	0.253372	0.809305
	C1430	C	-0.011729	0.253440	0.800407
	C1431	C	-0.008520	0.315225	0.796002
	C1432	C	-0.008407	0.191601	0.796033
	C1433	C	0.102312	0.043290	0.819360
	C1434	C	0.102317	0.962558	0.819356
	C1435	C	-0.036120	0.043348	0.821121
	C1436	C	-0.036150	0.962601	0.821100
	C1437	C	-0.042425	0.043482	0.819752
	C1438	C	-0.042441	0.962522	0.819766
	C1439	C	-0.037392	0.462761	0.820834
	C1440	C	0.100591	0.462524	0.817688
	C1441	C	0.104347	0.462249	0.819639
	C1442	C	-0.037350	0.543257	0.820846
	C1443	C	0.104349	0.543171	0.819634
	C1444	C	0.100578	0.543284	0.817672
	C1445	C	0.086040	0.752784	0.833644
	C1446	C	0.086102	0.252904	0.833673
	C1447	C	0.078029	0.752803	0.842413
	C1448	C	0.074381	0.691692	0.846579
	C1449	C	0.074343	0.813976	0.846536
	C1450	C	0.078064	0.252908	0.842422
	C1451	C	0.074264	0.191604	0.846509
	C1452	C	0.074372	0.314136	0.846569
	C1453	C	0.081828	0.252489	0.805835
	C1454	C	0.042195	0.752194	0.773165
	C1455	C	0.007286	0.753449	0.773547
	C1456	C	0.019273	0.753535	0.868324
	C1457	C	0.066633	0.690803	0.793474
	C1458	C	0.066632	0.813880	0.793451
	C1459	C	0.052461	0.752152	0.781638
	C1460	C	0.000680	0.753449	0.782928
	C1461	C	-0.002431	0.691597	0.787347
	C1462	C	0.057233	0.690771	0.785630
	C1463	C	0.057237	0.813760	0.785607
	C1464	C	-0.002229	0.815391	0.787403
	C1465	C	0.071399	0.752372	0.797466
	C1466	C	0.055268	0.752857	0.867598
	C1467	C	0.067095	0.691745	0.854738
	C1468	C	0.067073	0.813970	0.854702
	C1469	C	0.063391	0.752872	0.858855
	C1470	C	0.040949	0.462475	0.882541
	C1471	C	0.022543	0.462590	0.760985
	C1472	C	0.039158	0.462583	0.880447
	C1473	C	0.040975	0.543091	0.882516
	C1474	C	0.039116	0.543652	0.880424
	C1475	C	0.022559	0.543496	0.760959
	C1476	C	0.055184	0.252818	0.867539
	C1477	C	0.066934	0.191540	0.854647
	C1478	C	0.067040	0.314061	0.854711
	C1479	C	0.063288	0.252731	0.858809
	C1480	C	0.022275	0.043632	0.757889
	C1481	C	0.042203	0.252681	0.773140
	C1482	C	0.007246	0.253104	0.773549
	C1483	C	0.019176	0.253538	0.868349
	C1484	C	0.066738	0.191070	0.793411
	C1485	C	0.066740	0.313835	0.793400
	C1486	C	0.052520	0.252657	0.781578
	C1487	C	0.000613	0.253262	0.782931
	C1488	C	0.008889	0.753659	0.859914
	C1489	C	0.004154	0.814973	0.855887
	C1490	C	0.004136	0.692383	0.855938
	C1491	C	0.008810	0.253600	0.859948
	C1492	C	0.004017	0.315124	0.855988
	C1493	C	0.004105	0.192207	0.855915
	C1494	C	-0.002257	0.191429	0.787409
	C1495	C	0.057337	0.191224	0.785565
	C1496	C	0.057341	0.313954	0.785560
	C1497	C	-0.002361	0.315186	0.787378
	C1498	C	0.071495	0.252391	0.797422
	C1499	C	0.038083	0.043431	0.882859
	C1500	C	0.024604	0.043560	0.759544
	C1501	C	0.022305	0.962825	0.757896
	C1502	C	0.038074	0.962459	0.882865
	C1503	C	0.024651	0.962781	0.759548
	N1504	N	-0.039732	0.070413	0.821609
	N1505	N	-0.039789	0.935767	0.821606
	N1506	N	-0.039757	0.435760	0.821606
	N1507	N	-0.039685	0.570343	0.821629
	N1508	N	0.039153	0.435675	0.881827
	N1509	N	0.039159	0.570149	0.881791
	N1510	N	0.039110	0.070179	0.881792
	N1511	N	0.039098	0.935654	0.881810
	O1512	O	0.109744	0.694196	0.926983
	O1513	O	0.109764	0.810219	0.926906
	O1514	O	-0.006760	0.694806	0.954027
	O1515	O	-0.006870	0.810685	0.954140
	O1516	O	-0.006758	0.194928	0.954010
	O1517	O	-0.006807	0.311103	0.954048
	O1518	O	-0.010389	0.695122	0.933456
	O1519	O	-0.010574	0.811251	0.933387
	O1520	O	-0.010516	0.194645	0.933341
	O1521	O	-0.010576	0.310924	0.933309
	O1522	O	0.114008	0.694485	0.947770
	O1523	O	0.113729	0.810587	0.947639
	O1524	O	0.114017	0.194985	0.947750
	O1525	O	0.114028	0.310877	0.947729
	O1526	O	0.109691	0.194793	0.926934
	O1527	O	0.109596	0.310880	0.926968
	O1528	O	0.055713	0.694333	0.891596
	O1529	O	0.026704	0.695063	0.892815
	O1530	O	0.076307	0.694931	0.988138
	O1531	O	0.075962	0.810802	0.987993
	O1532	O	0.047083	0.694583	0.989497
	O1533	O	0.047052	0.810548	0.989467
	O1534	O	0.026557	0.811240	0.892716
	O1535	O	0.055840	0.810345	0.891550
	O1536	O	0.055872	0.194617	0.891475
	O1537	O	0.026577	0.194894	0.892677
	O1538	O	0.076100	0.194786	0.988014
	O1539	O	0.076411	0.310918	0.988194
	O1540	O	0.047131	0.195233	0.989430
	O1541	O	0.047051	0.311143	0.989470
	O1542	O	0.026757	0.311023	0.892812
	O1543	O	0.055791	0.310530	0.891547
	H1544	H	0.010792	0.644432	0.965212
	H1545	H	0.010315	0.860483	0.965518
	H1546	H	0.010416	0.144531	0.965472
	H1547	H	0.010646	0.361215	0.965253
	H1548	H	0.001351	0.861055	0.920417
	H1549	H	0.001531	0.645620	0.920464
	H1550	H	0.001450	0.360874	0.920418
	H1551	H	0.001511	0.144962	0.920412
	H1552	H	0.125332	0.064516	0.937288
	H1553	H	0.126482	0.064658	0.937616
	H1554	H	0.126432	0.941076	0.937583
	H1555	H	0.125374	0.941203	0.937250
	H1556	H	0.125006	0.064342	0.936213
	H1557	H	0.125025	0.941975	0.936233
	H1558	H	-0.025976	0.064654	0.946457
	H1559	H	-0.025972	0.941439	0.946403
	H1560	H	-0.022465	0.064473	0.947085
	H1561	H	-0.022481	0.941424	0.947057
	H1562	H	-0.019098	0.064837	0.944790
	H1563	H	-0.019178	0.941250	0.944788
	H1564	H	-0.022573	0.441493	0.943837
	H1565	H	-0.023366	0.441391	0.943527
	H1566	H	-0.022531	0.441650	0.944595
	H1567	H	0.128350	0.440992	0.938525
	H1568	H	0.124440	0.441658	0.938402
	H1569	H	0.123043	0.441105	0.936746
	H1570	H	-0.023427	0.564781	0.943492
	H1571	H	-0.022580	0.564208	0.943792
	H1572	H	0.123073	0.564804	0.936755
	H1573	H	0.124507	0.564511	0.938460
	H1574	H	0.128355	0.564616	0.938555
	H1575	H	-0.022469	0.564258	0.944605
	H1576	H	0.102037	0.643902	0.960739
	H1577	H	0.101678	0.860996	0.960590
	H1578	H	0.101733	0.144893	0.960588
	H1579	H	0.101875	0.361259	0.960653
	H1580	H	0.014706	0.645510	0.905761
	H1581	H	0.073029	0.644242	0.902925
	H1582	H	0.073140	0.860157	0.902872
	H1583	H	0.014534	0.861185	0.905705
	H1584	H	0.092354	0.644169	0.915667
	H1585	H	0.092419	0.860014	0.915634
	H1586	H	0.088507	0.644225	0.975276
	H1587	H	0.088174	0.860871	0.975150
	H1588	H	0.040971	0.441144	0.883545
	H1589	H	0.068242	0.441181	0.998844
	H1590	H	0.037469	0.441301	0.883440
	H1591	H	0.036067	0.441405	0.881875
	H1592	H	0.060934	0.441467	0.996705
	H1593	H	0.064610	0.441614	0.996250
	H1594	H	0.068270	0.564679	0.998819
	H1595	H	0.040953	0.564283	0.883505
	H1596	H	0.064610	0.564175	0.996206
	H1597	H	0.060916	0.564959	0.996697
	H1598	H	0.036107	0.564750	0.881949
	H1599	H	0.037476	0.564190	0.883432
	H1600	H	0.088250	0.145040	0.975182
	H1601	H	0.088331	0.361020	0.975213
	H1602	H	0.038975	0.064680	0.879902
	H1603	H	0.036830	0.064277	0.880555
	H1604	H	0.041786	0.064690	0.881136
	H1605	H	0.029593	0.860604	0.978269
	H1606	H	0.030039	0.644243	0.977946
	H1607	H	0.029891	0.361278	0.978025
	H1608	H	0.029655	0.144627	0.978226
	H1609	H	0.014786	0.145155	0.905733
	H1610	H	0.073123	0.144410	0.902823
	H1611	H	0.073057	0.360699	0.902883
	H1612	H	0.014747	0.360935	0.905756
	H1613	H	0.092318	0.144496	0.915640
	H1614	H	0.092281	0.360609	0.915683
	H1615	H	0.068171	0.064579	0.999726
	H1616	H	0.067143	0.063786	0.997271
	H1617	H	0.062132	0.064433	0.996296
	H1618	H	0.036889	0.941614	0.880528
	H1619	H	0.039002	0.941063	0.879890
	H1620	H	0.041723	0.941216	0.881221
	H1621	H	0.068095	0.940762	0.999693
	H1622	H	0.066995	0.941459	0.997269
	H1623	H	0.062095	0.941124	0.996357
	Zn1624	Zn	-0.023354	0.680298	0.944262
	Zn1625	Zn	-0.023339	0.825715	0.944289
	Zn1626	Zn	-0.023408	0.180263	0.944251
	Zn1627	Zn	-0.023373	0.325650	0.944253
	Zn1628	Zn	0.063823	0.680371	0.999155
	Zn1629	Zn	0.063704	0.825519	0.999150
	Zn1630	Zn	0.063796	0.180220	0.999151
	Zn1631	Zn	0.063775	0.325674	0.999157
	C1632	C	0.105189	0.752164	0.924049
	C1633	C	-0.002273	0.752663	0.956994
	C1634	C	0.009450	0.752521	0.964561
	C1635	C	0.015009	0.691311	0.968088
	C1636	C	0.014732	0.813727	0.968267
	C1637	C	-0.002257	0.252976	0.956954
	C1638	C	0.009384	0.252894	0.964590
	C1639	C	0.014725	0.191631	0.968279
	C1640	C	0.014865	0.314176	0.968156
	C1641	C	-0.007337	0.753213	0.930072
	C1642	C	0.000749	0.753372	0.921316
	C1643	C	0.004376	0.814378	0.917153
	C1644	C	0.004483	0.692345	0.917192
	C1645	C	-0.007369	0.252788	0.929996
	C1646	C	0.000771	0.252791	0.921268
	C1647	C	0.004460	0.314058	0.917160
	C1648	C	0.004494	0.191757	0.917152
	C1649	C	0.126005	0.043431	0.937233
	C1650	C	0.126016	0.962327	0.937229
	C1651	C	-0.023992	0.043277	0.946094
	C1652	C	-0.023987	0.962578	0.946077
	C1653	C	-0.020658	0.043579	0.943788
	C1654	C	-0.020672	0.962458	0.943789
	C1655	C	-0.023098	0.462514	0.943824
	C1656	C	0.128333	0.462490	0.937442
	C1657	C	0.124459	0.462726	0.937320
	C1658	C	-0.023121	0.543417	0.943797
	C1659	C	0.124467	0.543266	0.937337
	C1660	C	0.128363	0.543517	0.937462
	C1661	C	0.110718	0.752526	0.951058
	C1662	C	0.110805	0.252984	0.951075
	C1663	C	0.102583	0.752436	0.959776
	C1664	C	0.098906	0.691054	0.963924
	C1665	C	0.098721	0.813853	0.963846
	C1666	C	0.102631	0.253041	0.959788
	C1667	C	0.098803	0.191810	0.963871
	C1668	C	0.098862	0.314311	0.963899
	C1669	C	0.105111	0.252736	0.924037
	C1670	C	0.060268	0.752297	0.894523
	C1671	C	0.023455	0.753185	0.896112
	C1672	C	0.042568	0.752470	0.986545
	C1673	C	0.088060	0.691010	0.912819
	C1674	C	0.088110	0.813231	0.912792
	C1675	C	0.071904	0.752215	0.902159
	C1676	C	0.015415	0.753336	0.904873
	C1677	C	0.011778	0.692369	0.909030
	C1678	C	0.077345	0.691138	0.905751
	C1679	C	0.077400	0.813191	0.905729
	C1680	C	0.011671	0.814371	0.908994
	C1681	C	0.093506	0.752117	0.916431
	C1682	C	0.079371	0.752860	0.984751
	C1683	C	0.091468	0.691198	0.972018
	C1684	C	0.091278	0.813896	0.971937
	C1685	C	0.087595	0.752607	0.976077
	C1686	C	0.066687	0.462450	0.999816
	C1687	C	0.037413	0.462476	0.882442
	C1688	C	0.063057	0.462752	0.997158
	C1689	C	0.066706	0.543421	0.999814
	C1690	C	0.063023	0.543372	0.997164
	C1691	C	0.037416	0.543312	0.882453
	C1692	C	0.079437	0.252910	0.984778
	C1693	C	0.091336	0.191835	0.971954
	C1694	C	0.091375	0.314243	0.971969
	C1695	C	0.087634	0.252979	0.976081
	C1696	C	0.038205	0.043213	0.880616
	C1697	C	0.060327	0.252582	0.894449
	C1698	C	0.023549	0.252912	0.896109
	C1699	C	0.042564	0.253130	0.986524
	C1700	C	0.088041	0.191346	0.912780
	C1701	C	0.088009	0.313699	0.912813
	C1702	C	0.071958	0.252515	0.902081
	C1703	C	0.015538	0.252914	0.904889
	C1704	C	0.030970	0.752430	0.978869
	C1705	C	0.025419	0.813619	0.975346
	C1706	C	0.025689	0.691289	0.975161
	C1707	C	0.030918	0.252957	0.978903
	C1708	C	0.025566	0.314205	0.975229
	C1709	C	0.025421	0.191650	0.975350
	C1710	C	0.011845	0.191819	0.909015
	C1711	C	0.077393	0.191327	0.905676
	C1712	C	0.077354	0.313725	0.905711
	C1713	C	0.011816	0.314114	0.909029
	C1714	C	0.093450	0.252512	0.916401
	C1715	C	0.066624	0.043067	0.998664
	C1716	C	0.041023	0.043377	0.881930
	C1717	C	0.038230	0.962533	0.880636
	C1718	C	0.066553	0.962430	0.998667
	C1719	C	0.041035	0.962522	0.881939
	N1720	N	-0.023378	0.070220	0.944267
	N1721	N	-0.023382	0.935701	0.944259
	N1722	N	-0.023372	0.435545	0.944217
	N1723	N	-0.023389	0.570103	0.944214
	N1724	N	0.063786	0.435678	0.999180
	N1725	N	0.063772	0.570207	0.999172
	N1726	N	0.063762	0.070104	0.999118
	N1727	N	0.063686	0.935562	0.999112
	O1728	O	0.277215	0.694788	0.040889
	O1729	O	0.277070	0.810943	0.040896
	O1730	O	0.166798	0.694936	0.064244
	O1731	O	0.166840	0.810977	0.064281
	O1732	O	0.166799	0.194829	0.064349
	O1733	O	0.166982	0.311024	0.064255
	O1734	O	0.163494	0.694628	0.043076
	O1735	O	0.163576	0.810736	0.043061
	O1736	O	0.163393	0.194561	0.043009
	O1737	O	0.163521	0.310730	0.043046
	O1738	O	0.276065	0.694292	0.060801
	O1739	O	0.276026	0.811046	0.060773
	O1740	O	0.275979	0.194720	0.060767
	O1741	O	0.276179	0.311395	0.060813
	O1742	O	0.277280	0.194757	0.040930
	O1743	O	0.277200	0.311033	0.040926
	O1744	O	0.229431	0.694595	0.001788
	O1745	O	0.200714	0.694500	0.002438
	O1746	O	0.242819	0.694443	0.103309
	O1747	O	0.242793	0.811249	0.103311
	O1748	O	0.214570	0.694731	0.103365
	O1749	O	0.214590	0.811001	0.103364
	O1750	O	0.200866	0.810784	0.002508
	O1751	O	0.229419	0.810955	0.001815
	O1752	O	0.229452	0.194870	0.001778
	O1753	O	0.200863	0.194204	0.002495
	O1754	O	0.242768	0.194770	0.103307
	O1755	O	0.242911	0.311097	0.103365
	O1756	O	0.214624	0.194416	0.103409
	O1757	O	0.214682	0.310767	0.103401
	O1758	O	0.200765	0.310186	0.002438
	O1759	O	0.229508	0.311019	0.001804
	H1760	H	0.182251	0.644632	0.076721
	H1761	H	0.182294	0.861276	0.076732
	H1762	H	0.182573	0.144215	0.076629
	H1763	H	0.182360	0.361541	0.076778
	H1764	H	0.175545	0.860798	0.030136
	H1765	H	0.175460	0.644094	0.030066
	H1766	H	0.175262	0.360893	0.029987
	H1767	H	0.175401	0.143999	0.030088
	H1768	H	0.293424	0.064864	0.046821
	H1769	H	0.287618	0.064153	0.047891
	H1770	H	0.287496	0.941287	0.047928
	H1771	H	0.293293	0.940660	0.046812
	H1772	H	0.299775	0.064462	0.050912
	H1773	H	0.299595	0.940216	0.050822
	H1774	H	0.150043	0.064463	0.054513
	H1775	H	0.150113	0.941030	0.054488
	H1776	H	0.150978	0.064491	0.054802
	H1777	H	0.150980	0.941476	0.054822
	H1778	H	0.152034	0.064117	0.054304
	H1779	H	0.152084	0.940863	0.054258
	H1780	H	0.151508	0.441130	0.053373
	H1781	H	0.150607	0.440687	0.053329
	H1782	H	0.152122	0.441077	0.054146
	H1783	H	0.284328	0.441006	0.052943
	H1784	H	0.287562	0.441477	0.046767
	H1785	H	0.294755	0.441002	0.046101
	H1786	H	0.150543	0.564268	0.053381
	H1787	H	0.151474	0.564362	0.053455
	H1788	H	0.294646	0.565100	0.046128
	H1789	H	0.287512	0.564329	0.046856
	H1790	H	0.284295	0.564596	0.052980
	H1791	H	0.152050	0.564137	0.054170
	H1792	H	0.264033	0.643031	0.073920
	H1793	H	0.263789	0.862323	0.073850
	H1794	H	0.263689	0.143623	0.073803
	H1795	H	0.264086	0.362926	0.073935
	H1796	H	0.188733	0.644394	0.015396
	H1797	H	0.244805	0.643998	0.014295
	H1798	H	0.244790	0.861144	0.014282
	H1799	H	0.188786	0.860755	0.015459
	H1800	H	0.261737	0.643795	0.028416
	H1801	H	0.261727	0.861255	0.028430
	H1802	H	0.252718	0.643235	0.089378
	H1803	H	0.252428	0.862343	0.089297
	H1804	H	0.209967	0.441041	-0.007965
	H1805	H	0.229629	0.441313	0.110531
	H1806	H	0.211462	0.441102	-0.010618
	H1807	H	0.214557	0.441414	-0.010867
	H1808	H	0.225429	0.441086	0.116070
	H1809	H	0.224745	0.441556	0.112931
	H1810	H	0.229663	0.564516	0.110529
	H1811	H	0.209913	0.564539	-0.008002
	H1812	H	0.224675	0.564781	0.112905
	H1813	H	0.225370	0.564621	0.116034
	H1814	H	0.214530	0.564648	-0.010867
	H1815	H	0.211408	0.564451	-0.010639
	H1816	H	0.252445	0.143614	0.089275
	H1817	H	0.252828	0.362853	0.089395
	H1818	H	0.210672	0.064658	-0.009579
	H1819	H	0.210555	0.064653	-0.007746
	H1820	H	0.213928	0.064172	-0.010673
	H1821	H	0.199305	0.861532	0.090846
	H1822	H	0.199252	0.644377	0.090826
	H1823	H	0.199283	0.361490	0.090917
	H1824	H	0.199502	0.143901	0.090748
	H1825	H	0.188726	0.143871	0.015432
	H1826	H	0.244805	0.144333	0.014286
	H1827	H	0.244879	0.361047	0.014261
	H1828	H	0.188579	0.360542	0.015330
	H1829	H	0.261837	0.144022	0.028377
	H1830	H	0.261906	0.361180	0.028368
	H1831	H	0.230984	0.064087	0.115026
	H1832	H	0.231609	0.064677	0.114293
	H1833	H	0.230603	0.064503	0.113290
	H1834	H	0.210567	0.940641	-0.007712
	H1835	H	0.210596	0.941113	-0.009588
	H1836	H	0.213922	0.941472	-0.010677
	H1837	H	0.231008	0.941099	0.114991
	H1838	H	0.231549	0.940699	0.114253
	H1839	H	0.230549	0.940899	0.113203
	Zn1840	Zn	0.150862	0.680058	0.054025
	Zn1841	Zn	0.150982	0.825516	0.053959
	Zn1842	Zn	0.150887	0.179895	0.054019
	Zn1843	Zn	0.151008	0.325270	0.053978
	Zn1844	Zn	0.229992	0.680256	0.114149
	Zn1845	Zn	0.229979	0.825344	0.114147
	Zn1846	Zn	0.230032	0.180177	0.114206
	Zn1847	Zn	0.229993	0.325335	0.114200
	C1848	C	0.273095	0.752750	0.037683
	C1849	C	0.170907	0.752918	0.067461
	C1850	C	0.181300	0.752914	0.075863
	C1851	C	0.186045	0.691669	0.079868
	C1852	C	0.186087	0.814201	0.079876
	C1853	C	0.170970	0.252892	0.067504
	C1854	C	0.181304	0.252792	0.075923
	C1855	C	0.186202	0.191291	0.079850
	C1856	C	0.186094	0.314258	0.079934
	C1857	C	0.166688	0.752578	0.039717
	C1858	C	0.174708	0.752403	0.030943
	C1859	C	0.178444	0.813819	0.026835
	C1860	C	0.178400	0.691164	0.026794
	C1861	C	0.166585	0.252584	0.039669
	C1862	C	0.174665	0.252371	0.030927
	C1863	C	0.178303	0.313684	0.026756
	C1864	C	0.178378	0.191003	0.026815
	C1865	C	0.291100	0.043113	0.048504
	C1866	C	0.291050	0.962326	0.048498
	C1867	C	0.150629	0.043145	0.054467
	C1868	C	0.150667	0.962311	0.054470
	C1869	C	0.151730	0.043141	0.053971
	C1870	C	0.151774	0.962275	0.053966
	C1871	C	0.151038	0.462282	0.053526
	C1872	C	0.288310	0.462108	0.054066
	C1873	C	0.291597	0.462365	0.047824
	C1874	C	0.151008	0.543091	0.053575
	C1875	C	0.291532	0.543152	0.047858
	C1876	C	0.288283	0.543195	0.054079
	C1877	C	0.272615	0.752701	0.064060
	C1878	C	0.272594	0.253134	0.064029
	C1879	C	0.264622	0.752694	0.072932
	C1880	C	0.261379	0.690688	0.077305
	C1881	C	0.261231	0.814670	0.077266
	C1882	C	0.264640	0.253264	0.072908
	C1883	C	0.261206	0.191365	0.077233
	C1884	C	0.261432	0.315201	0.077305
	C1885	C	0.273187	0.252816	0.037720
	C1886	C	0.233484	0.752762	0.005014
	C1887	C	0.197612	0.752631	0.005817
	C1888	C	0.210548	0.752862	0.100132
	C1889	C	0.258036	0.691058	0.025255
	C1890	C	0.258032	0.813984	0.025254
	C1891	C	0.243899	0.752666	0.013402
	C1892	C	0.189443	0.752540	0.014526
	C1893	C	0.185734	0.691271	0.018653
	C1894	C	0.248646	0.691151	0.017407
	C1895	C	0.248646	0.814050	0.017406
	C1896	C	0.185770	0.813824	0.018689
	C1897	C	0.262824	0.752520	0.029236
	C1898	C	0.245459	0.752851	0.099710
	C1899	C	0.255177	0.690767	0.085915
	C1900	C	0.255026	0.814745	0.085873
	C1901	C	0.252139	0.752780	0.090350
	C1902	C	0.231377	0.462403	0.111962
	C1903	C	0.213171	0.462611	-0.010124
	C1904	C	0.226411	0.462481	0.114439
	C1905	C	0.231390	0.543213	0.111949
	C1906	C	0.226400	0.543337	0.114424
	C1907	C	0.213139	0.543364	-0.010137
	C1908	C	0.245528	0.252957	0.099720
	C1909	C	0.255017	0.191282	0.085848
	C1910	C	0.255243	0.315180	0.085921
	C1911	C	0.252138	0.253153	0.090337
	C1912	C	0.211387	0.043291	-0.008628
	C1913	C	0.233550	0.252891	0.004998
	C1914	C	0.197618	0.252197	0.005806
	C1915	C	0.210586	0.252620	0.100192
	C1916	C	0.258032	0.191307	0.025287
	C1917	C	0.258072	0.313947	0.025282
	C1918	C	0.243886	0.252734	0.013450
	C1919	C	0.189470	0.252166	0.014534
	C1920	C	0.200243	0.752880	0.091706
	C1921	C	0.195478	0.814322	0.087722
	C1922	C	0.195445	0.691565	0.087707
	C1923	C	0.200249	0.252670	0.091761
	C1924	C	0.195477	0.314225	0.087784
	C1925	C	0.195597	0.191208	0.087687
	C1926	C	0.185767	0.190905	0.018688
	C1927	C	0.248631	0.191234	0.017443
	C1928	C	0.248678	0.314068	0.017433
	C1929	C	0.185687	0.313581	0.018631
	C1930	C	0.262844	0.252648	0.029303
	C1931	C	0.230985	0.043210	0.114550
	C1932	C	0.214718	0.043285	-0.009712
	C1933	C	0.211374	0.962116	-0.008612
	C1934	C	0.230983	0.962263	0.114525
	C1935	C	0.214712	0.962569	-0.009715
	N1936	N	0.150970	0.069987	0.054020
	N1937	N	0.151001	0.935488	0.054025
	N1938	N	0.150994	0.435380	0.054024
	N1939	N	0.150950	0.569960	0.054056
	N1940	N	0.230083	0.435427	0.114208
	N1941	N	0.230079	0.570013	0.114203
	N1942	N	0.230072	0.070073	0.114204
	N1943	N	0.230056	0.935514	0.114199
	O1944	O	0.226542	0.694184	0.174701
	O1945	O	0.226596	0.811388	0.174693
	O1946	O	0.178046	0.693913	0.189440
	O1947	O	0.178086	0.810848	0.189462
	O1948	O	0.178101	0.194470	0.189419
	O1949	O	0.178017	0.311221	0.189442
	O1950	O	0.180206	0.694209	0.165769
	O1951	O	0.180278	0.810569	0.165819
	O1952	O	0.180293	0.194669	0.165849
	O1953	O	0.180242	0.310969	0.165814
	O1954	O	0.224191	0.694798	0.198377
	O1955	O	0.224140	0.811278	0.198327
	O1956	O	0.224131	0.195002	0.198308
	O1957	O	0.224089	0.311423	0.198260
	O1958	O	0.226538	0.194733	0.174715
	O1959	O	0.226462	0.311551	0.174718
	O1960	O	0.240611	0.693846	0.127075
	O1961	O	0.213412	0.694262	0.123224
	O1962	O	0.190980	0.694278	0.240826
	O1963	O	0.191096	0.811153	0.240935
	O1964	O	0.163937	0.694335	0.237069
	O1965	O	0.163976	0.811165	0.237053
	O1966	O	0.213523	0.811165	0.123276
	O1967	O	0.240666	0.810706	0.127084
	O1968	O	0.240673	0.194279	0.127110
	O1969	O	0.213567	0.194350	0.123348
	O1970	O	0.191097	0.194479	0.240904
	O1971	O	0.191115	0.311323	0.240958
	O1972	O	0.164012	0.194667	0.237068
	O1973	O	0.163929	0.311458	0.237050
	O1974	O	0.213538	0.311008	0.123306
	O1975	O	0.240769	0.310975	0.127098
	H1976	H	0.174372	0.642406	0.204921
	H1977	H	0.174398	0.862111	0.204873
	H1978	H	0.174226	0.142645	0.204886
	H1979	H	0.174313	0.362697	0.204863
	H1980	H	0.190236	0.862257	0.151860
	H1981	H	0.189967	0.642917	0.151722
	H1982	H	0.190128	0.362462	0.151857
	H1983	H	0.190130	0.143201	0.151872
	H1984	H	0.238918	0.065125	0.185979
	H1985	H	0.236341	0.064364	0.185562
	H1986	H	0.236332	0.941036	0.185621
	H1987	H	0.238884	0.940947	0.186018
	H1988	H	0.240190	0.064673	0.188235
	H1989	H	0.240120	0.941055	0.188236
	H1990	H	0.164695	0.064283	0.174153
	H1991	H	0.164676	0.941487	0.174152
	H1992	H	0.163102	0.064787	0.176227
	H1993	H	0.163070	0.941082	0.176284
	H1994	H	0.165742	0.064935	0.179024
	H1995	H	0.165782	0.940907	0.179114
	H1996	H	0.169910	0.440648	0.178666
	H1997	H	0.171364	0.440679	0.176620
	H1998	H	0.165116	0.441512	0.178842
	H1999	H	0.233247	0.441204	0.184031
	H2000	H	0.240711	0.440998	0.184090
	H2001	H	0.243663	0.441339	0.187352
	H2002	H	0.171377	0.564711	0.176642
	H2003	H	0.169935	0.564361	0.178665
	H2004	H	0.243599	0.564701	0.187301
	H2005	H	0.240642	0.564681	0.184096
	H2006	H	0.233064	0.564682	0.184102
	H2007	H	0.165181	0.564010	0.178841
	H2008	H	0.214212	0.643360	0.212277
	H2009	H	0.214251	0.862861	0.212305
	H2010	H	0.214228	0.143654	0.212263
	H2011	H	0.214267	0.362925	0.212334
	H2012	H	0.201269	0.643141	0.136278
	H2013	H	0.236921	0.642420	0.142504
	H2014	H	0.236829	0.862681	0.142476
	H2015	H	0.201532	0.862396	0.136392
	H2016	H	0.230463	0.642582	0.159273
	H2017	H	0.230293	0.862754	0.159263
	H2018	H	0.203001	0.643251	0.227720
	H2019	H	0.203040	0.862914	0.227806
	H2020	H	0.233980	0.440727	0.111771
	H2021	H	0.176045	0.441267	0.253089
	H2022	H	0.234928	0.440894	0.116036
	H2023	H	0.231352	0.440780	0.117814
	H2024	H	0.177652	0.441017	0.247677
	H2025	H	0.179282	0.441223	0.250233
	H2026	H	0.176136	0.564842	0.253006
	H2027	H	0.233988	0.564342	0.111767
	H2028	H	0.179294	0.564321	0.250223
	H2029	H	0.177623	0.564385	0.247740
	H2030	H	0.231358	0.564356	0.117838
	H2031	H	0.234960	0.564384	0.116043
	H2032	H	0.203122	0.143413	0.227784
	H2033	H	0.203175	0.362717	0.227855
	H2034	H	0.228546	0.064388	0.114247
	H2035	H	0.229246	0.064239	0.115051
	H2036	H	0.229338	0.064145	0.113278
	H2037	H	0.167867	0.862416	0.221628
	H2038	H	0.167733	0.642652	0.221676
	H2039	H	0.167773	0.362725	0.221611
	H2040	H	0.167673	0.143039	0.221675
	H2041	H	0.201299	0.143226	0.136399
	H2042	H	0.236804	0.142751	0.142549
	H2043	H	0.236919	0.362465	0.142511
	H2044	H	0.201282	0.362379	0.136359
	H2045	H	0.230235	0.142979	0.159315
	H2046	H	0.230314	0.362889	0.159270
	H2047	H	0.178095	0.064561	0.252971
	H2048	H	0.180038	0.064520	0.250194
	H2049	H	0.176391	0.064429	0.246601
	H2050	H	0.229316	0.941182	0.115007
	H2051	H	0.228575	0.941014	0.114285
	H2052	H	0.229286	0.940912	0.113298
	H2053	H	0.178061	0.940764	0.252910
	H2054	H	0.180011	0.941123	0.250199
	H2055	H	0.176373	0.941158	0.246636
	Zn2056	Zn	0.167249	0.680085	0.176574
	Zn2057	Zn	0.167366	0.825280	0.176614
	Zn2058	Zn	0.167270	0.180179	0.176548
	Zn2059	Zn	0.167249	0.325124	0.176564
	Zn2060	Zn	0.174597	0.680511	0.249974
	Zn2061	Zn	0.174563	0.825411	0.249988
	Zn2062	Zn	0.174551	0.180504	0.249960
	Zn2063	Zn	0.174484	0.325382	0.249998
	C2064	C	0.227141	0.752742	0.170632
	C2065	C	0.177516	0.752304	0.193530
	C2066	C	0.174817	0.752121	0.203863
	C2067	C	0.172871	0.690129	0.208627
	C2068	C	0.172919	0.814382	0.208601
	C2069	C	0.177514	0.252753	0.193517
	C2070	C	0.174782	0.252639	0.203860
	C2071	C	0.172849	0.190526	0.208623
	C2072	C	0.172886	0.314887	0.208589
	C2073	C	0.182904	0.752405	0.162173
	C2074	C	0.189576	0.752574	0.152811
	C2075	C	0.192650	0.814564	0.148390
	C2076	C	0.192507	0.690641	0.148321
	C2077	C	0.182965	0.252837	0.162227
	C2078	C	0.189631	0.252858	0.152878
	C2079	C	0.192606	0.314728	0.148416
	C2080	C	0.192620	0.190859	0.148434
	C2081	C	0.237477	0.043330	0.186264
	C2082	C	0.237466	0.962366	0.186275
	C2083	C	0.164832	0.043290	0.175553
	C2084	C	0.164847	0.962491	0.175574
	C2085	C	0.167505	0.043181	0.178396
	C2086	C	0.167539	0.962329	0.178429
	C2087	C	0.169758	0.462050	0.177344
	C2088	C	0.233283	0.462759	0.186165
	C2089	C	0.240821	0.462401	0.186221
	C2090	C	0.169787	0.543368	0.177353
	C2091	C	0.240797	0.543338	0.186206
	C2092	C	0.233244	0.543503	0.186196
	C2093	C	0.221547	0.753135	0.201983
	C2094	C	0.221422	0.253286	0.201904
	C2095	C	0.214850	0.753234	0.211318
	C2096	C	0.211794	0.691087	0.215732
	C2097	C	0.211829	0.815243	0.215768
	C2098	C	0.214808	0.253325	0.211289
	C2099	C	0.211806	0.191293	0.215739
	C2100	C	0.211818	0.315162	0.215767
	C2101	C	0.227035	0.253168	0.170633
	C2102	C	0.240075	0.752252	0.131158
	C2103	C	0.210033	0.752726	0.126500
	C2104	C	0.164527	0.752685	0.232981
	C2105	C	0.231811	0.690418	0.155530
	C2106	C	0.231753	0.814930	0.155537
	C2107	C	0.237429	0.752525	0.141503
	C2108	C	0.202072	0.752735	0.135378
	C2109	C	0.198738	0.690765	0.139717
	C2110	C	0.235491	0.690314	0.146227
	C2111	C	0.235432	0.814872	0.146225
	C2112	C	0.198882	0.814734	0.139787
	C2113	C	0.229847	0.752657	0.160280
	C2114	C	0.194488	0.752818	0.237629
	C2115	C	0.205616	0.691033	0.224342
	C2116	C	0.205645	0.815168	0.224386
	C2117	C	0.202430	0.753076	0.228748
	C2118	C	0.174149	0.462528	0.252102
	C2119	C	0.232377	0.462067	0.116220
	C2120	C	0.177378	0.462352	0.249233
	C2121	C	0.174197	0.543494	0.252086
	C2122	C	0.177387	0.543218	0.249246
	C2123	C	0.232366	0.543045	0.116218
	C2124	C	0.194581	0.252969	0.237690
	C2125	C	0.205671	0.191170	0.224373
	C2126	C	0.205705	0.315063	0.224410
	C2127	C	0.202439	0.253097	0.228765
	C2128	C	0.229208	0.043075	0.114539
	C2129	C	0.240179	0.252655	0.131202
	C2130	C	0.210069	0.252751	0.126578
	C2131	C	0.164493	0.253046	0.232972
	C2132	C	0.231666	0.190767	0.155569
	C2133	C	0.231739	0.315057	0.155548
	C2134	C	0.237388	0.252695	0.141533
	C2135	C	0.202132	0.252841	0.135465
	C2136	C	0.167207	0.752442	0.222638
	C2137	C	0.169211	0.814505	0.217900
	C2138	C	0.169166	0.690234	0.217930
	C2139	C	0.167202	0.252987	0.222640
	C2140	C	0.169156	0.315041	0.217876
	C2141	C	0.169122	0.190724	0.217919
	C2142	C	0.198811	0.190956	0.139827
	C2143	C	0.235397	0.190603	0.146275
	C2144	C	0.235484	0.314832	0.146260
	C2145	C	0.198800	0.314709	0.139810
	C2146	C	0.229762	0.253047	0.160307
	C2147	C	0.177835	0.043402	0.251140
	C2148	C	0.230015	0.043000	0.113519
	C2149	C	0.229227	0.962237	0.114543
	C2150	C	0.177823	0.962506	0.251133
	C2151	C	0.229983	0.962213	0.113526
	N2152	N	0.167331	0.069986	0.176524
	N2153	N	0.167378	0.935379	0.176543
	N2154	N	0.167268	0.435412	0.176513
	N2155	N	0.167298	0.569991	0.176498
	N2156	N	0.174416	0.435547	0.249988
	N2157	N	0.174476	0.570188	0.249988
	N2158	N	0.174478	0.070445	0.249970
	N2159	N	0.174469	0.935845	0.249964
	O2160	O	0.236057	0.694821	0.300821
	O2161	O	0.235896	0.810747	0.300884
	O2162	O	0.127232	0.694791	0.323492
	O2163	O	0.127292	0.811172	0.323446
	O2164	O	0.127222	0.194761	0.323483
	O2165	O	0.127233	0.310941	0.323507
	O2166	O	0.128703	0.694240	0.303453
	O2167	O	0.128597	0.810794	0.303434
	O2168	O	0.128606	0.194326	0.303413
	O2169	O	0.128520	0.310964	0.303372
	O2170	O	0.238210	0.693761	0.322103
	O2171	O	0.238278	0.809733	0.322182
	O2172	O	0.238232	0.194093	0.322158
	O2173	O	0.238194	0.310109	0.322158
	O2174	O	0.235905	0.194897	0.300874
	O2175	O	0.235828	0.310964	0.300901
	O2176	O	0.189713	0.694607	0.260914
	O2177	O	0.161600	0.694683	0.260759
	O2178	O	0.202009	0.693813	0.363213
	O2179	O	0.202159	0.809811	0.363267
	O2180	O	0.173471	0.695152	0.363459
	O2181	O	0.173486	0.811376	0.363437
	O2182	O	0.161700	0.811151	0.260833
	O2183	O	0.189643	0.811045	0.260987
	O2184	O	0.189770	0.194702	0.260889
	O2185	O	0.161674	0.194806	0.260789
	O2186	O	0.201953	0.194387	0.363227
	O2187	O	0.202143	0.310384	0.363269
	O2188	O	0.173457	0.195069	0.363400
	O2189	O	0.173520	0.311306	0.363412
	O2190	O	0.161636	0.311060	0.260812
	O2191	O	0.189672	0.311044	0.260922
	H2192	H	0.142164	0.644411	0.336268
	H2193	H	0.142259	0.862064	0.336203
	H2194	H	0.142299	0.144940	0.336147
	H2195	H	0.142127	0.361307	0.336247
	H2196	H	0.141004	0.862151	0.290427
	H2197	H	0.140817	0.643075	0.290336
	H2198	H	0.140743	0.362207	0.290343
	H2199	H	0.140703	0.143111	0.290324
	H2200	H	0.248013	0.064572	0.310609
	H2201	H	0.248359	0.064683	0.312624
	H2202	H	0.248276	0.941374	0.312577
	H2203	H	0.247974	0.941370	0.310566
	H2204	H	0.251318	0.064691	0.309043
	H2205	H	0.251339	0.941293	0.309047
	H2206	H	0.115779	0.064658	0.309323
	H2207	H	0.115778	0.941407	0.309250
	H2208	H	0.110497	0.064238	0.308376
	H2209	H	0.110492	0.940802	0.308371
	H2210	H	0.105713	0.064416	0.311918
	H2211	H	0.105725	0.940384	0.311904
	H2212	H	0.106138	0.441187	0.308686
	H2213	H	0.104054	0.440852	0.312882
	H2214	H	0.115223	0.441094	0.307728
	H2215	H	0.254973	0.441251	0.310119
	H2216	H	0.254749	0.441267	0.313329
	H2217	H	0.251607	0.441434	0.314248
	H2218	H	0.104036	0.564971	0.312818
	H2219	H	0.106159	0.564345	0.308632
	H2220	H	0.251585	0.564970	0.314208
	H2221	H	0.254731	0.564586	0.313296
	H2222	H	0.255010	0.564629	0.310144
	H2223	H	0.115290	0.564116	0.307756
	H2224	H	0.226555	0.643630	0.335262
	H2225	H	0.226573	0.859346	0.335221
	H2226	H	0.226617	0.144385	0.335291
	H2227	H	0.226424	0.359571	0.335212
	H2228	H	0.152001	0.643178	0.274844
	H2229	H	0.204559	0.644503	0.273716
	H2230	H	0.204636	0.861195	0.273680
	H2231	H	0.152175	0.862029	0.274932
	H2232	H	0.221009	0.644265	0.288076
	H2233	H	0.221150	0.861250	0.288049
	H2234	H	0.213802	0.643738	0.350162
	H2235	H	0.213807	0.859513	0.350109
	H2236	H	0.172119	0.441159	0.252678
	H2237	H	0.188691	0.440890	0.373887
	H2238	H	0.169865	0.441632	0.249226
	H2239	H	0.172104	0.441539	0.247184
	H2240	H	0.188952	0.440907	0.374254
	H2241	H	0.188672	0.440758	0.374140
	H2242	H	0.188622	0.564095	0.373862
	H2243	H	0.172136	0.564776	0.252657
	H2244	H	0.188649	0.564233	0.374147
	H2245	H	0.188953	0.564598	0.374250
	H2246	H	0.172213	0.564867	0.247188
	H2247	H	0.169880	0.564981	0.249216
	H2248	H	0.213848	0.144462	0.350188
	H2249	H	0.213676	0.359770	0.350086
	H2250	H	0.169058	0.064551	0.250466
	H2251	H	0.171796	0.064678	0.253064
	H2252	H	0.171793	0.064811	0.246661
	H2253	H	0.158669	0.862102	0.350609
	H2254	H	0.158583	0.644585	0.350719
	H2255	H	0.158572	0.361568	0.350656
	H2256	H	0.158773	0.145111	0.350546
	H2257	H	0.151834	0.143108	0.274778
	H2258	H	0.204533	0.144655	0.273659
	H2259	H	0.204646	0.361306	0.273647
	H2260	H	0.151848	0.362397	0.274855
	H2261	H	0.220859	0.144378	0.288105
	H2262	H	0.220996	0.361483	0.288094
	H2263	H	0.190605	0.063971	0.374674
	H2264	H	0.190728	0.064719	0.373597
	H2265	H	0.188972	0.064474	0.372777
	H2266	H	0.171774	0.941203	0.253027
	H2267	H	0.169169	0.941391	0.250453
	H2268	H	0.171833	0.940941	0.246694
	H2269	H	0.190620	0.940826	0.374626
	H2270	H	0.190771	0.940936	0.373616
	H2271	H	0.189032	0.941301	0.372710
	Zn2272	Zn	0.112129	0.680404	0.312496
	Zn2273	Zn	0.112160	0.825320	0.312515
	Zn2274	Zn	0.112086	0.180320	0.312570
	Zn2275	Zn	0.112105	0.325110	0.312522
	Zn2276	Zn	0.188859	0.679958	0.373996
	Zn2277	Zn	0.189000	0.825495	0.373958
	Zn2278	Zn	0.188868	0.180072	0.374028
	Zn2279	Zn	0.188939	0.325564	0.373983
	C2280	C	0.232039	0.752773	0.297570
	C2281	C	0.131242	0.753013	0.326737
	C2282	C	0.141273	0.753230	0.335345
	C2283	C	0.145847	0.691678	0.339464
	C2284	C	0.145901	0.814826	0.339420
	C2285	C	0.131157	0.252866	0.326767
	C2286	C	0.141162	0.252999	0.335380
	C2287	C	0.145878	0.191859	0.339393
	C2288	C	0.145790	0.314426	0.339447
	C2289	C	0.132119	0.752582	0.300177
	C2290	C	0.140091	0.752667	0.291309
	C2291	C	0.143460	0.814433	0.286972
	C2292	C	0.143362	0.690792	0.286926
	C2293	C	0.132022	0.252631	0.300139
	C2294	C	0.140004	0.252560	0.291264
	C2295	C	0.143295	0.314548	0.286918
	C2296	C	0.143290	0.190660	0.286894
	C2297	C	0.249021	0.043386	0.311563
	C2298	C	0.249005	0.962696	0.311545
	C2299	C	0.112830	0.043113	0.309814
	C2300	C	0.112831	0.962557	0.309806
	C2301	C	0.108031	0.043179	0.313344
	C2302	C	0.108026	0.962146	0.313337
	C2303	C	0.106879	0.462209	0.311231
	C2304	C	0.252965	0.462251	0.309981
	C2305	C	0.252719	0.462705	0.313188
	C2306	C	0.106902	0.543264	0.311206
	C2307	C	0.252715	0.543335	0.313141
	C2308	C	0.253011	0.543250	0.309964
	C2309	C	0.235136	0.751636	0.325520
	C2310	C	0.235079	0.252081	0.325522
	C2311	C	0.227243	0.751518	0.334347
	C2312	C	0.223687	0.690462	0.338556
	C2313	C	0.223700	0.812612	0.338540
	C2314	C	0.227172	0.252020	0.334358
	C2315	C	0.223676	0.191027	0.338589
	C2316	C	0.223578	0.313007	0.338538
	C2317	C	0.231882	0.252914	0.297620
	C2318	C	0.193629	0.752804	0.264233
	C2319	C	0.159021	0.752840	0.264432
	C2320	C	0.169599	0.753259	0.360149
	C2321	C	0.217333	0.691542	0.284922
	C2322	C	0.217375	0.814167	0.284912
	C2323	C	0.203602	0.752874	0.272860
	C2324	C	0.152426	0.752659	0.273810
	C2325	C	0.149512	0.690805	0.278296
	C2326	C	0.208231	0.691509	0.276917
	C2327	C	0.208272	0.814186	0.276908
	C2328	C	0.149608	0.814382	0.278345
	C2329	C	0.221973	0.752898	0.289006
	C2330	C	0.205195	0.751770	0.359856
	C2331	C	0.216623	0.690508	0.346816
	C2332	C	0.216635	0.812682	0.346795
	C2333	C	0.213046	0.751605	0.351001
	C2334	C	0.188837	0.462299	0.373856
	C2335	C	0.171873	0.462749	0.248657
	C2336	C	0.188862	0.462166	0.374127
	C2337	C	0.188832	0.542960	0.373842
	C2338	C	0.188839	0.543144	0.374134
	C2339	C	0.171926	0.543479	0.248662
	C2340	C	0.205133	0.252304	0.359861
	C2341	C	0.216616	0.191074	0.346850
	C2342	C	0.216519	0.313037	0.346791
	C2343	C	0.212991	0.252118	0.351008
	C2344	C	0.171470	0.043421	0.251299
	C2345	C	0.193628	0.252924	0.264199
	C2346	C	0.158997	0.252871	0.264431
	C2347	C	0.169537	0.253257	0.360133
	C2348	C	0.217260	0.191588	0.284906
	C2349	C	0.217329	0.314383	0.284893
	C2350	C	0.203572	0.253012	0.272834
	C2351	C	0.152441	0.252744	0.273828
	C2352	C	0.159596	0.753340	0.351535
	C2353	C	0.154982	0.814857	0.347434
	C2354	C	0.154932	0.691746	0.347483
	C2355	C	0.159501	0.253306	0.351533
	C2356	C	0.154887	0.314575	0.347458
	C2357	C	0.154977	0.192050	0.347394
	C2358	C	0.149446	0.190733	0.278265
	C2359	C	0.208177	0.191630	0.276896
	C2360	C	0.208244	0.314338	0.276884
	C2361	C	0.149458	0.314671	0.278307
	C2362	C	0.221857	0.252998	0.289023
	C2363	C	0.190236	0.043112	0.374103
	C2364	C	0.174162	0.043373	0.247523
	C2365	C	0.171508	0.962611	0.251282
	C2366	C	0.190265	0.962102	0.374088
	C2367	C	0.174165	0.962446	0.247552
	N2368	N	0.112043	0.070204	0.312571
	N2369	N	0.112028	0.935629	0.312549
	N2370	N	0.112018	0.435294	0.312537
	N2371	N	0.112037	0.569938	0.312526
	N2372	N	0.188965	0.435473	0.374027
	N2373	N	0.188950	0.569914	0.374010
	N2374	N	0.189005	0.070021	0.373977
	N2375	N	0.189043	0.935485	0.373932
	O2376	O	0.250302	0.694404	0.424644
	O2377	O	0.250145	0.810717	0.424721
	O2378	O	0.142003	0.694206	0.447066
	O2379	O	0.141961	0.810395	0.447089
	O2380	O	0.141990	0.194207	0.447084
	O2381	O	0.141829	0.310360	0.447115
	O2382	O	0.139616	0.694969	0.425778
	O2383	O	0.139567	0.811104	0.425804
	O2384	O	0.139626	0.195183	0.425772
	O2385	O	0.139520	0.311181	0.425786
	O2386	O	0.248878	0.694382	0.444694
	O2387	O	0.248873	0.811110	0.444712
	O2388	O	0.248923	0.194629	0.444703
	O2389	O	0.248900	0.311427	0.444690
	O2390	O	0.250301	0.194909	0.424688
	O2391	O	0.250244	0.310955	0.424705
	O2392	O	0.204315	0.694361	0.384586
	O2393	O	0.175713	0.695205	0.384691
	O2394	O	0.215806	0.694541	0.487307
	O2395	O	0.215827	0.810934	0.487372
	O2396	O	0.187879	0.694208	0.487185
	O2397	O	0.187788	0.810463	0.487167
	O2398	O	0.175784	0.811406	0.384715
	O2399	O	0.204410	0.810568	0.384548
	O2400	O	0.204281	0.194901	0.384622
	O2401	O	0.175795	0.195203	0.384725
	O2402	O	0.215850	0.194400	0.487350
	O2403	O	0.215812	0.310799	0.487355
	O2404	O	0.187860	0.194269	0.487206
	O2405	O	0.187808	0.310626	0.487187
	O2406	O	0.175722	0.311197	0.384709
	O2407	O	0.204399	0.310893	0.384572
	H2408	H	0.156869	0.643735	0.459826
	H2409	H	0.156805	0.860684	0.459843
	H2410	H	0.156719	0.143630	0.459974
	H2411	H	0.156806	0.360713	0.459840
	H2412	H	0.151225	0.861780	0.412719
	H2413	H	0.151250	0.644777	0.412667
	H2414	H	0.151232	0.361738	0.412690
	H2415	H	0.151294	0.145116	0.412672
	H2416	H	0.261458	0.064610	0.435377
	H2417	H	0.262693	0.063953	0.437465
	H2418	H	0.262784	0.940971	0.437483
	H2419	H	0.261428	0.940880	0.435383
	H2420	H	0.264120	0.064605	0.433044
	H2421	H	0.264092	0.941172	0.433080
	H2422	H	0.124416	0.064688	0.438654
	H2423	H	0.124389	0.941404	0.438729
	H2424	H	0.127718	0.064854	0.439071
	H2425	H	0.127743	0.941124	0.439100
	H2426	H	0.130471	0.064634	0.436744
	H2427	H	0.130483	0.940982	0.436799
	H2428	H	0.125216	0.440632	0.434911
	H2429	H	0.123808	0.440881	0.436026
	H2430	H	0.128249	0.441174	0.435301
	H2431	H	0.264692	0.441062	0.437589
	H2432	H	0.262260	0.441137	0.435701
	H2433	H	0.263175	0.440641	0.433983
	H2434	H	0.123782	0.564222	0.436032
	H2435	H	0.125221	0.564592	0.434886
	H2436	H	0.263112	0.564648	0.433997
	H2437	H	0.262274	0.564060	0.435696
	H2438	H	0.264675	0.564307	0.437583
	H2439	H	0.128346	0.564429	0.435261
	H2440	H	0.236736	0.643280	0.457768
	H2441	H	0.236761	0.862500	0.457817
	H2442	H	0.236666	0.143471	0.457771
	H2443	H	0.236737	0.362714	0.457820
	H2444	H	0.164023	0.644865	0.397785
	H2445	H	0.219217	0.643684	0.397379
	H2446	H	0.219085	0.861134	0.397396
	H2447	H	0.163989	0.862138	0.397849
	H2448	H	0.235497	0.643981	0.411890
	H2449	H	0.235325	0.861211	0.411884
	H2450	H	0.225616	0.643392	0.473293
	H2451	H	0.225653	0.862530	0.473305
	H2452	H	0.188937	0.441126	0.373758
	H2453	H	0.204783	0.440739	0.495836
	H2454	H	0.189307	0.441096	0.373864
	H2455	H	0.189341	0.441366	0.374095
	H2456	H	0.198852	0.441326	0.498076
	H2457	H	0.200162	0.441322	0.495988
	H2458	H	0.204824	0.564925	0.495835
	H2459	H	0.188879	0.564326	0.373740
	H2460	H	0.200227	0.564677	0.495987
	H2461	H	0.198875	0.564422	0.498033
	H2462	H	0.189311	0.564624	0.374114
	H2463	H	0.189254	0.564432	0.373862
	H2464	H	0.225530	0.143318	0.473271
	H2465	H	0.225614	0.362393	0.473344
	H2466	H	0.187400	0.064911	0.374545
	H2467	H	0.188694	0.064159	0.375197
	H2468	H	0.187587	0.064407	0.373139
	H2469	H	0.173033	0.860714	0.474340
	H2470	H	0.173175	0.643829	0.474301
	H2471	H	0.173112	0.360616	0.474321
	H2472	H	0.173015	0.143869	0.474449
	H2473	H	0.164078	0.145413	0.397821
	H2474	H	0.219065	0.144542	0.397456
	H2475	H	0.219079	0.360905	0.397454
	H2476	H	0.164092	0.361518	0.397854
	H2477	H	0.235349	0.144591	0.411940
	H2478	H	0.235356	0.360981	0.411935
	H2479	H	0.197763	0.064586	0.498796
	H2480	H	0.200559	0.064620	0.501277
	H2481	H	0.206676	0.064301	0.500892
	H2482	H	0.188733	0.940967	0.375137
	H2483	H	0.187442	0.940837	0.374527
	H2484	H	0.187614	0.941413	0.373102
	H2485	H	0.197669	0.940631	0.498801
	H2486	H	0.200517	0.940840	0.501294
	H2487	H	0.206581	0.941317	0.500882
	Zn2488	Zn	0.126518	0.679906	0.436503
	Zn2489	Zn	0.126463	0.825553	0.436567
	Zn2490	Zn	0.126484	0.180118	0.436465
	Zn2491	Zn	0.126395	0.325491	0.436536
	Zn2492	Zn	0.202959	0.680322	0.498183
	Zn2493	Zn	0.202874	0.824933	0.498150
	Zn2494	Zn	0.202991	0.180475	0.498210
	Zn2495	Zn	0.202855	0.325015	0.498135
	C2496	C	0.246317	0.752547	0.421384
	C2497	C	0.145876	0.752271	0.450376
	C2498	C	0.155842	0.752198	0.458997
	C2499	C	0.160469	0.690862	0.463071
	C2500	C	0.160404	0.813622	0.463082
	C2501	C	0.145829	0.252320	0.450397
	C2502	C	0.155773	0.252218	0.459033
	C2503	C	0.160366	0.190826	0.463146
	C2504	C	0.160408	0.313593	0.463086
	C2505	C	0.142701	0.753100	0.422416
	C2506	C	0.150544	0.753219	0.413568
	C2507	C	0.154076	0.814816	0.409383
	C2508	C	0.154105	0.691857	0.409349
	C2509	C	0.142662	0.253260	0.422390
	C2510	C	0.150528	0.253377	0.413551
	C2511	C	0.154108	0.314782	0.409385
	C2512	C	0.154146	0.192127	0.409369
	C2513	C	0.262961	0.043057	0.436218
	C2514	C	0.262986	0.962229	0.436217
	C2515	C	0.126177	0.043439	0.438264
	C2516	C	0.126179	0.962430	0.438299
	C2517	C	0.128939	0.043167	0.435912
	C2518	C	0.128954	0.962530	0.435943
	C2519	C	0.124995	0.462167	0.435742
	C2520	C	0.265897	0.462111	0.436978
	C2521	C	0.263479	0.462190	0.435032
	C2522	C	0.125002	0.543175	0.435724
	C2523	C	0.263480	0.543116	0.435031
	C2524	C	0.265918	0.542996	0.436997
	C2525	C	0.245431	0.752740	0.447974
	C2526	C	0.245424	0.253056	0.447941
	C2527	C	0.237462	0.752871	0.456856
	C2528	C	0.234205	0.690924	0.461217
	C2529	C	0.234215	0.814852	0.461235
	C2530	C	0.237463	0.253058	0.456846
	C2531	C	0.234160	0.191054	0.461207
	C2532	C	0.234203	0.314996	0.461238
	C2533	C	0.246342	0.252892	0.421408
	C2534	C	0.208265	0.752494	0.387869
	C2535	C	0.172646	0.753357	0.388093
	C2536	C	0.183907	0.752256	0.483882
	C2537	C	0.231875	0.691066	0.408625
	C2538	C	0.231791	0.813944	0.408634
	C2539	C	0.218251	0.752464	0.396486
	C2540	C	0.164765	0.753401	0.396928
	C2541	C	0.161185	0.692061	0.401095
	C2542	C	0.222853	0.690965	0.400583
	C2543	C	0.222774	0.813939	0.400592
	C2544	C	0.161165	0.814788	0.401137
	C2545	C	0.236430	0.752525	0.412720
	C2546	C	0.218469	0.752834	0.483709
	C2547	C	0.228062	0.691031	0.469852
	C2548	C	0.228070	0.814858	0.469867
	C2549	C	0.225074	0.752941	0.474334
	C2550	C	0.205063	0.462253	0.497125
	C2551	C	0.189213	0.462370	0.373983
	C2552	C	0.200448	0.462490	0.497324
	C2553	C	0.205100	0.543223	0.497131
	C2554	C	0.200466	0.543205	0.497311
	C2555	C	0.189203	0.543285	0.373983
	C2556	C	0.218472	0.252646	0.483721
	C2557	C	0.228008	0.190966	0.469836
	C2558	C	0.228056	0.314878	0.469876
	C2559	C	0.225054	0.252905	0.474324
	C2560	C	0.188307	0.043303	0.374638
	C2561	C	0.208271	0.252859	0.387887
	C2562	C	0.172645	0.253223	0.388088
	C2563	C	0.183927	0.252384	0.483897
	C2564	C	0.231774	0.191539	0.408697
	C2565	C	0.231774	0.313993	0.408691
	C2566	C	0.218226	0.252763	0.396524
	C2567	C	0.164766	0.253412	0.396926
	C2568	C	0.174007	0.752252	0.475232
	C2569	C	0.169407	0.813655	0.471120
	C2570	C	0.169490	0.690885	0.471101
	C2571	C	0.174014	0.252264	0.475244
	C2572	C	0.169451	0.313588	0.471124
	C2573	C	0.169415	0.190882	0.471182
	C2574	C	0.161211	0.192239	0.401123
	C2575	C	0.222755	0.191537	0.400649
	C2576	C	0.222758	0.313967	0.400650
	C2577	C	0.161191	0.314679	0.401139
	C2578	C	0.236409	0.252809	0.412776
	C2579	C	0.200179	0.043294	0.499577
	C2580	C	0.188480	0.043132	0.373218
	C2581	C	0.188339	0.962137	0.374607
	C2582	C	0.200135	0.962005	0.499566
	C2583	C	0.188522	0.962730	0.373201
	N2584	N	0.126514	0.070169	0.436504
	N2585	N	0.126532	0.935655	0.436544
	N2586	N	0.126390	0.435436	0.436555
	N2587	N	0.126475	0.569964	0.436536
	N2588	N	0.202935	0.435217	0.498132
	N2589	N	0.202988	0.569803	0.498140
	N2590	N	0.202967	0.070207	0.498189
	N2591	N	0.202902	0.935503	0.498205
	O2592	O	0.199499	0.694385	0.558700
	O2593	O	0.199481	0.811447	0.558699
	O2594	O	0.151068	0.693731	0.573534
	O2595	O	0.151235	0.810586	0.573563
	O2596	O	0.151085	0.193583	0.573552
	O2597	O	0.151019	0.310480	0.573575
	O2598	O	0.153476	0.694043	0.549928
	O2599	O	0.153488	0.810554	0.549947
	O2600	O	0.153531	0.194667	0.549942
	O2601	O	0.153524	0.311168	0.549929
	O2602	O	0.197363	0.694354	0.582371
	O2603	O	0.197320	0.810579	0.582384
	O2604	O	0.197266	0.194719	0.582365
	O2605	O	0.197405	0.311146	0.582388
	O2606	O	0.199555	0.194394	0.558681
	O2607	O	0.199527	0.311296	0.558701
	O2608	O	0.213583	0.694391	0.511055
	O2609	O	0.186380	0.694236	0.507246
	O2610	O	0.164264	0.694425	0.624966
	O2611	O	0.164327	0.811099	0.624963
	O2612	O	0.137108	0.694395	0.621167
	O2613	O	0.137149	0.811218	0.621189
	O2614	O	0.186412	0.810993	0.507282
	O2615	O	0.213605	0.811137	0.511058
	O2616	O	0.213621	0.194849	0.511114
	O2617	O	0.186436	0.194252	0.507296
	O2618	O	0.164308	0.194458	0.624980
	O2619	O	0.164225	0.311344	0.624954
	O2620	O	0.137225	0.193708	0.621183
	O2621	O	0.137218	0.310647	0.621185
	O2622	O	0.186413	0.311058	0.507278
	O2623	O	0.213535	0.311540	0.511068
	H2624	H	0.147345	0.642377	0.588932
	H2625	H	0.147532	0.862110	0.588981
	H2626	H	0.147372	0.141994	0.588962
	H2627	H	0.147333	0.361966	0.589001
	H2628	H	0.163221	0.861779	0.535892
	H2629	H	0.163160	0.642682	0.535893
	H2630	H	0.163232	0.362404	0.535927
	H2631	H	0.163352	0.143203	0.535923
	H2632	H	0.209866	0.064730	0.566839
	H2633	H	0.204527	0.065184	0.568478
	H2634	H	0.204520	0.940745	0.568458
	H2635	H	0.209900	0.941282	0.566869
	H2636	H	0.216880	0.064059	0.570054
	H2637	H	0.216860	0.941180	0.570095
	H2638	H	0.138587	0.064304	0.556686
	H2639	H	0.138631	0.940874	0.556729
	H2640	H	0.134859	0.064050	0.558894
	H2641	H	0.134939	0.940890	0.558913
	H2642	H	0.136472	0.064211	0.563442
	H2643	H	0.136537	0.941475	0.563483
	H2644	H	0.139034	0.441591	0.558850
	H2645	H	0.137584	0.440974	0.560146
	H2646	H	0.142465	0.440846	0.559253
	H2647	H	0.209752	0.441119	0.568282
	H2648	H	0.214764	0.440888	0.570319
	H2649	H	0.214765	0.440926	0.573206
	H2650	H	0.137533	0.564381	0.560140
	H2651	H	0.139030	0.564264	0.558812
	H2652	H	0.214811	0.564127	0.573204
	H2653	H	0.214793	0.564181	0.570365
	H2654	H	0.209786	0.564260	0.568234
	H2655	H	0.142482	0.564283	0.559257
	H2656	H	0.187518	0.642877	0.596381
	H2657	H	0.187567	0.862025	0.596373
	H2658	H	0.187364	0.143474	0.596320
	H2659	H	0.187482	0.362529	0.596352
	H2660	H	0.174307	0.642750	0.520357
	H2661	H	0.209800	0.642850	0.526488
	H2662	H	0.209810	0.862917	0.526490
	H2663	H	0.174290	0.861886	0.520391
	H2664	H	0.203327	0.642767	0.543270
	H2665	H	0.203338	0.862946	0.543283
	H2666	H	0.176324	0.643036	0.611862
	H2667	H	0.176383	0.862231	0.611859
	H2668	H	0.206809	0.441158	0.497706
	H2669	H	0.143721	0.441092	0.630490
	H2670	H	0.204993	0.440870	0.500525
	H2671	H	0.201596	0.440945	0.500607
	H2672	H	0.145332	0.441272	0.638102
	H2673	H	0.141573	0.440922	0.635285
	H2674	H	0.143759	0.564743	0.630474
	H2675	H	0.206919	0.564402	0.497707
	H2676	H	0.141528	0.564837	0.635222
	H2677	H	0.145287	0.564670	0.637990
	H2678	H	0.201611	0.564532	0.500639
	H2679	H	0.205030	0.564101	0.500572
	H2680	H	0.176178	0.143310	0.611809
	H2681	H	0.176282	0.362751	0.611853
	H2682	H	0.204397	0.064292	0.494772
	H2683	H	0.199917	0.063755	0.495070
	H2684	H	0.208263	0.064727	0.498238
	H2685	H	0.141074	0.862467	0.605759
	H2686	H	0.140860	0.642536	0.605739
	H2687	H	0.140903	0.361908	0.605800
	H2688	H	0.140962	0.141993	0.605751
	H2689	H	0.174422	0.143251	0.520387
	H2690	H	0.209977	0.143290	0.526547
	H2691	H	0.209743	0.363119	0.526481
	H2692	H	0.174299	0.362351	0.520372
	H2693	H	0.203449	0.143181	0.543337
	H2694	H	0.203246	0.363090	0.543255
	H2695	H	0.146739	0.064453	0.635272
	H2696	H	0.148389	0.064792	0.635476
	H2697	H	0.149835	0.064581	0.634332
	H2698	H	0.199876	0.941065	0.495118
	H2699	H	0.204313	0.940654	0.494800
	H2700	H	0.208267	0.940934	0.498166
	H2701	H	0.146674	0.941735	0.635255
	H2702	H	0.148430	0.941007	0.635415
	H2703	H	0.149819	0.941216	0.634311
	Zn2704	Zn	0.140364	0.680233	0.560664
	Zn2705	Zn	0.140563	0.825097	0.560706
	Zn2706	Zn	0.140367	0.180262	0.560643
	Zn2707	Zn	0.140475	0.325036	0.560698
	Zn2708	Zn	0.147785	0.680281	0.634081
	Zn2709	Zn	0.147800	0.825451	0.634062
	Zn2710	Zn	0.147904	0.180284	0.634156
	Zn2711	Zn	0.147819	0.325341	0.634103
	C2712	C	0.200056	0.752894	0.554628
	C2713	C	0.150620	0.752146	0.577631
	C2714	C	0.147979	0.752258	0.587978
	C2715	C	0.145995	0.690080	0.592694
	C2716	C	0.146109	0.814373	0.592734
	C2717	C	0.150486	0.251959	0.577642
	C2718	C	0.147867	0.252014	0.587981
	C2719	C	0.145962	0.189799	0.592702
	C2720	C	0.145945	0.314239	0.592736
	C2721	C	0.156076	0.752293	0.546298
	C2722	C	0.162701	0.752235	0.536912
	C2723	C	0.165660	0.814121	0.532438
	C2724	C	0.165639	0.690300	0.532434
	C2725	C	0.156194	0.252881	0.546318
	C2726	C	0.162788	0.252823	0.536933
	C2727	C	0.165700	0.314786	0.532464
	C2728	C	0.165767	0.190817	0.532470
	C2729	C	0.207957	0.043524	0.568702
	C2730	C	0.207961	0.962415	0.568689
	C2731	C	0.137771	0.043038	0.558545
	C2732	C	0.137789	0.962072	0.558559
	C2733	C	0.139357	0.043074	0.563148
	C2734	C	0.139381	0.962286	0.563164
	C2735	C	0.138915	0.462294	0.559801
	C2736	C	0.208526	0.462457	0.569574
	C2737	C	0.213548	0.462209	0.571707
	C2738	C	0.138887	0.543018	0.559797
	C2739	C	0.213540	0.543098	0.571714
	C2740	C	0.208513	0.543263	0.569573
	C2741	C	0.194713	0.752457	0.586010
	C2742	C	0.194738	0.252955	0.586014
	C2743	C	0.188133	0.752534	0.595375
	C2744	C	0.185110	0.690631	0.599836
	C2745	C	0.185143	0.814410	0.599829
	C2746	C	0.188069	0.252969	0.595377
	C2747	C	0.184980	0.191046	0.599812
	C2748	C	0.185052	0.314980	0.599826
	C2749	C	0.200083	0.252902	0.554613
	C2750	C	0.213028	0.752754	0.515145
	C2751	C	0.182951	0.752572	0.510530
	C2752	C	0.137702	0.752806	0.617094
	C2753	C	0.204691	0.690654	0.539531
	C2754	C	0.204683	0.815067	0.539536
	C2755	C	0.210351	0.752775	0.525492
	C2756	C	0.174985	0.752350	0.519407
	C2757	C	0.171772	0.690352	0.523796
	C2758	C	0.208400	0.690624	0.530231
	C2759	C	0.208393	0.815074	0.530234
	C2760	C	0.171773	0.814198	0.523803
	C2761	C	0.202724	0.752809	0.544278
	C2762	C	0.167769	0.752740	0.621707
	C2763	C	0.178960	0.690655	0.608455
	C2764	C	0.178981	0.814541	0.608448
	C2765	C	0.175745	0.752705	0.612828
	C2766	C	0.146707	0.462306	0.631199
	C2767	C	0.203238	0.462132	0.499922
	C2768	C	0.144528	0.462356	0.635981
	C2769	C	0.146723	0.543250	0.631190
	C2770	C	0.144520	0.543277	0.635962
	C2771	C	0.203259	0.543212	0.499934
	C2772	C	0.167717	0.252924	0.621716
	C2773	C	0.178800	0.191025	0.608425
	C2774	C	0.178878	0.315041	0.608448
	C2775	C	0.175698	0.253075	0.612843
	C2776	C	0.202401	0.042929	0.495809
	C2777	C	0.213038	0.253237	0.515181
	C2778	C	0.182991	0.252680	0.510553
	C2779	C	0.137752	0.252160	0.617112
	C2780	C	0.204789	0.190972	0.539569
	C2781	C	0.204674	0.315296	0.539531
	C2782	C	0.210357	0.253206	0.525506
	C2783	C	0.175102	0.252789	0.519462
	C2784	C	0.140457	0.752438	0.606774
	C2785	C	0.142435	0.814506	0.602038
	C2786	C	0.142317	0.690280	0.602003
	C2787	C	0.140359	0.251968	0.606765
	C2788	C	0.142296	0.314226	0.602045
	C2789	C	0.142320	0.189785	0.602011
	C2790	C	0.171874	0.190840	0.523830
	C2791	C	0.208495	0.191034	0.530273
	C2792	C	0.208370	0.315282	0.530229
	C2793	C	0.171822	0.314728	0.523824
	C2794	C	0.202773	0.253094	0.544279
	C2795	C	0.147610	0.043323	0.635039
	C2796	C	0.206310	0.043131	0.499194
	C2797	C	0.202353	0.962271	0.495807
	C2798	C	0.147584	0.962516	0.635015
	C2799	C	0.206277	0.962366	0.499181
	N2800	N	0.140507	0.069859	0.560639
	N2801	N	0.140542	0.935257	0.560666
	N2802	N	0.140550	0.435289	0.560635
	N2803	N	0.140497	0.569908	0.560642
	N2804	N	0.147723	0.435546	0.634107
	N2805	N	0.147730	0.570120	0.634059
	N2806	N	0.147736	0.070099	0.634140
	N2807	N	0.147712	0.935536	0.634097
	O2808	O	0.210744	0.695284	0.684087
	O2809	O	0.210794	0.811590	0.684058
	O2810	O	0.100575	0.694637	0.707415
	O2811	O	0.100539	0.810862	0.707425
	O2812	O	0.100708	0.194504	0.707389
	O2813	O	0.100477	0.310637	0.707474
	O2814	O	0.101805	0.694358	0.687456
	O2815	O	0.101758	0.811051	0.687464
	O2816	O	0.101744	0.194862	0.687465
	O2817	O	0.101781	0.311550	0.687513
	O2818	O	0.214015	0.694430	0.705195
	O2819	O	0.214142	0.810319	0.705253
	O2820	O	0.214202	0.194551	0.705317
	O2821	O	0.214134	0.310327	0.705292
	O2822	O	0.210981	0.194682	0.684044
	O2823	O	0.210794	0.310811	0.684148
	O2824	O	0.163147	0.694855	0.644874
	O2825	O	0.135003	0.694850	0.644902
	O2826	O	0.177122	0.694450	0.745970
	O2827	O	0.177087	0.810603	0.745877
	O2828	O	0.148319	0.694566	0.746509
	O2829	O	0.148309	0.810796	0.746519
	O2830	O	0.135045	0.811109	0.644950
	O2831	O	0.163105	0.811016	0.644907
	O2832	O	0.163074	0.194991	0.645019
	O2833	O	0.134924	0.194775	0.644914
	O2834	O	0.176947	0.194381	0.745891
	O2835	O	0.177123	0.310292	0.745936
	O2836	O	0.148344	0.195165	0.746533
	O2837	O	0.148278	0.311181	0.746571
	O2838	O	0.134812	0.311337	0.644872
	O2839	O	0.163239	0.311257	0.644904
	H2840	H	0.115862	0.644708	0.719924
	H2841	H	0.115895	0.861046	0.719942
	H2842	H	0.116002	0.144729	0.719943
	H2843	H	0.116078	0.360989	0.719835
	H2844	H	0.114052	0.862278	0.674482
	H2845	H	0.113996	0.643212	0.674422
	H2846	H	0.113889	0.362989	0.674402
	H2847	H	0.113722	0.143601	0.674335
	H2848	H	0.223972	0.064430	0.693645
	H2849	H	0.224345	0.064965	0.695304
	H2850	H	0.224355	0.940958	0.695288
	H2851	H	0.224024	0.941413	0.693646
	H2852	H	0.226693	0.064680	0.692428
	H2853	H	0.226627	0.941394	0.692418
	H2854	H	0.094066	0.065048	0.695929
	H2855	H	0.093998	0.941444	0.695951
	H2856	H	0.089795	0.064384	0.691615
	H2857	H	0.089708	0.940940	0.691669
	H2858	H	0.079488	0.064519	0.691837
	H2859	H	0.079574	0.941195	0.691859
	H2860	H	0.083312	0.441168	0.696489
	H2861	H	0.083919	0.440681	0.697452
	H2862	H	0.084630	0.441448	0.695422
	H2863	H	0.227956	0.441232	0.693092
	H2864	H	0.228923	0.441010	0.694847
	H2865	H	0.227727	0.441199	0.695822
	H2866	H	0.083995	0.564326	0.697428
	H2867	H	0.083403	0.564343	0.696489
	H2868	H	0.227655	0.564421	0.695792
	H2869	H	0.228890	0.564746	0.694824
	H2870	H	0.227897	0.564451	0.693126
	H2871	H	0.084768	0.565081	0.695445
	H2872	H	0.202349	0.644208	0.718298
	H2873	H	0.202170	0.860388	0.718196
	H2874	H	0.202219	0.144687	0.718293
	H2875	H	0.202260	0.359816	0.718266
	H2876	H	0.125251	0.643252	0.658933
	H2877	H	0.178454	0.644776	0.657489
	H2878	H	0.178416	0.861604	0.657416
	H2879	H	0.125291	0.862625	0.659008
	H2880	H	0.195387	0.644827	0.671636
	H2881	H	0.195359	0.861899	0.671556
	H2882	H	0.189253	0.644118	0.733031
	H2883	H	0.189074	0.860490	0.732944
	H2884	H	0.149069	0.440775	0.629881
	H2885	H	0.166494	0.441289	0.756438
	H2886	H	0.154264	0.440871	0.633714
	H2887	H	0.152655	0.440956	0.637220
	H2888	H	0.162390	0.441129	0.755650
	H2889	H	0.164239	0.441476	0.755233
	H2890	H	0.166438	0.564886	0.756408
	H2891	H	0.149070	0.564487	0.629886
	H2892	H	0.164180	0.564044	0.755221
	H2893	H	0.162402	0.564508	0.755713
	H2894	H	0.152760	0.564135	0.637219
	H2895	H	0.154279	0.564049	0.633703
	H2896	H	0.188957	0.144579	0.732942
	H2897	H	0.189030	0.360096	0.732940
	H2898	H	0.146844	0.064487	0.632931
	H2899	H	0.145840	0.064598	0.633773
	H2900	H	0.149226	0.064208	0.633192
	H2901	H	0.132841	0.861004	0.734073
	H2902	H	0.132818	0.644501	0.734048
	H2903	H	0.133027	0.361359	0.733991
	H2904	H	0.132968	0.144911	0.734069
	H2905	H	0.124886	0.143528	0.658831
	H2906	H	0.178376	0.144646	0.657512
	H2907	H	0.178636	0.361589	0.657458
	H2908	H	0.125112	0.362939	0.658921
	H2909	H	0.195357	0.144220	0.671614
	H2910	H	0.195551	0.361601	0.671612
	H2911	H	0.162511	0.065100	0.756715
	H2912	H	0.163061	0.064283	0.757574
	H2913	H	0.165057	0.064559	0.757828
	H2914	H	0.145800	0.941179	0.633715
	H2915	H	0.146845	0.940623	0.632888
	H2916	H	0.149217	0.941217	0.633183
	H2917	H	0.162569	0.940973	0.756661
	H2918	H	0.163103	0.941470	0.757588
	H2919	H	0.165025	0.941326	0.757753
	Zn2920	Zn	0.085288	0.680586	0.696594
	Zn2921	Zn	0.085281	0.825516	0.696603
	Zn2922	Zn	0.085272	0.180525	0.696598
	Zn2923	Zn	0.085197	0.325401	0.696609
	Zn2924	Zn	0.164156	0.680068	0.756837
	Zn2925	Zn	0.164242	0.825737	0.756763
	Zn2926	Zn	0.164157	0.179945	0.756854
	Zn2927	Zn	0.164256	0.325668	0.756834
	C2928	C	0.206746	0.753454	0.680846
	C2929	C	0.104600	0.752775	0.710641
	C2930	C	0.114917	0.752798	0.719087
	C2931	C	0.119670	0.691562	0.723082
	C2932	C	0.119681	0.814076	0.723088
	C2933	C	0.104662	0.252647	0.710632
	C2934	C	0.114991	0.252817	0.719058
	C2935	C	0.119778	0.191757	0.723069
	C2936	C	0.119815	0.314114	0.723025
	C2937	C	0.105271	0.752771	0.684212
	C2938	C	0.113254	0.752781	0.675330
	C2939	C	0.116553	0.814781	0.671002
	C2940	C	0.116527	0.690816	0.670962
	C2941	C	0.105211	0.253261	0.684227
	C2942	C	0.113173	0.253340	0.675338
	C2943	C	0.116464	0.315334	0.670983
	C2944	C	0.116366	0.191333	0.670939
	C2945	C	0.224849	0.043411	0.694443
	C2946	C	0.224847	0.962401	0.694435
	C2947	C	0.090130	0.043659	0.694519
	C2948	C	0.090122	0.962668	0.694536
	C2949	C	0.079869	0.043317	0.694687
	C2950	C	0.079887	0.962538	0.694709
	C2951	C	0.084027	0.462482	0.696875
	C2952	C	0.226890	0.462603	0.693310
	C2953	C	0.227885	0.462496	0.695067
	C2954	C	0.084070	0.543283	0.696865
	C2955	C	0.227831	0.543324	0.695063
	C2956	C	0.226883	0.543289	0.693328
	C2957	C	0.210982	0.752422	0.708601
	C2958	C	0.211029	0.252404	0.708657
	C2959	C	0.202987	0.752398	0.717385
	C2960	C	0.199363	0.691097	0.721558
	C2961	C	0.199267	0.813616	0.721500
	C2962	C	0.203002	0.252208	0.717410
	C2963	C	0.199257	0.191225	0.721538
	C2964	C	0.199312	0.313278	0.721531
	C2965	C	0.206854	0.252736	0.680867
	C2966	C	0.167215	0.752967	0.648092
	C2967	C	0.132390	0.752985	0.648558
	C2968	C	0.144264	0.752678	0.743307
	C2969	C	0.191584	0.691957	0.668467
	C2970	C	0.191566	0.814731	0.668415
	C2971	C	0.177464	0.753167	0.656552
	C2972	C	0.125762	0.752947	0.657908
	C2973	C	0.122738	0.690979	0.662351
	C2974	C	0.182208	0.691872	0.660610
	C2975	C	0.182186	0.814553	0.660559
	C2976	C	0.122759	0.814765	0.662397
	C2977	C	0.196368	0.753433	0.672423
	C2978	C	0.180288	0.752385	0.742589
	C2979	C	0.192101	0.691048	0.729727
	C2980	C	0.191994	0.813504	0.729664
	C2981	C	0.188346	0.752289	0.733839
	C2982	C	0.165749	0.462372	0.757027
	C2983	C	0.151932	0.462317	0.635116
	C2984	C	0.163537	0.462544	0.755821
	C2985	C	0.165735	0.543454	0.757004
	C2986	C	0.163487	0.543121	0.755821
	C2987	C	0.151929	0.543046	0.635085
	C2988	C	0.180191	0.252307	0.742562
	C2989	C	0.191941	0.191239	0.729685
	C2990	C	0.192009	0.313309	0.729682
	C2991	C	0.188281	0.252305	0.733819
	C2992	C	0.146712	0.043417	0.633558
	C2993	C	0.167209	0.253179	0.648169
	C2994	C	0.132243	0.253105	0.648523
	C2995	C	0.144279	0.253205	0.743321
	C2996	C	0.191624	0.191465	0.668478
	C2997	C	0.191744	0.314417	0.668468
	C2998	C	0.177527	0.253177	0.656617
	C2999	C	0.125591	0.253215	0.657883
	C3000	C	0.133874	0.752707	0.734910
	C3001	C	0.129081	0.814020	0.730925
	C3002	C	0.129075	0.691525	0.730918
	C3003	C	0.133943	0.253197	0.734896
	C3004	C	0.129214	0.314377	0.730869
	C3005	C	0.129157	0.191881	0.730921
	C3006	C	0.122522	0.191267	0.662314
	C3007	C	0.182212	0.191761	0.660642
	C3008	C	0.182337	0.314497	0.660620
	C3009	C	0.122636	0.315219	0.662359
	C3010	C	0.196479	0.252865	0.672455
	C3011	C	0.163166	0.043364	0.757056
	C3012	C	0.149054	0.043093	0.633851
	C3013	C	0.146687	0.962214	0.633519
	C3014	C	0.163192	0.962524	0.757041
	C3015	C	0.149033	0.962433	0.633830
	N3016	N	0.085225	0.070327	0.696586
	N3017	N	0.085241	0.935709	0.696585
	N3018	N	0.085128	0.435736	0.696627
	N3019	N	0.085177	0.570348	0.696623
	N3020	N	0.164205	0.435643	0.756818
	N3021	N	0.164163	0.570155	0.756823
	N3022	N	0.164196	0.070133	0.756795
	N3023	N	0.164209	0.935674	0.756761
	O3024	O	0.234717	0.695347	0.801943
	O3025	O	0.234594	0.811428	0.802018
	O3026	O	0.118313	0.695170	0.829109
	O3027	O	0.118337	0.811177	0.829133
	O3028	O	0.118301	0.195296	0.829120
	O3029	O	0.118390	0.311106	0.829086
	O3030	O	0.114591	0.695230	0.808433
	O3031	O	0.114492	0.811433	0.808380
	O3032	O	0.114499	0.195245	0.808420
	O3033	O	0.114561	0.311342	0.808441
	O3034	O	0.239071	0.694555	0.822738
	O3035	O	0.238882	0.810750	0.822659
	O3036	O	0.238923	0.194427	0.822740
	O3037	O	0.238938	0.310526	0.822705
	O3038	O	0.234650	0.194623	0.802017
	O3039	O	0.234686	0.310683	0.801975
	O3040	O	0.180780	0.695394	0.766575
	O3041	O	0.151606	0.695218	0.767736
	O3042	O	0.201420	0.694178	0.863093
	O3043	O	0.201439	0.810604	0.863133
	O3044	O	0.172301	0.694893	0.864431
	O3045	O	0.172311	0.811152	0.864448
	O3046	O	0.151617	0.811342	0.767702
	O3047	O	0.180687	0.811457	0.766622
	O3048	O	0.180781	0.194653	0.766635
	O3049	O	0.151665	0.195095	0.767795
	O3050	O	0.201273	0.194334	0.863078
	O3051	O	0.201340	0.310279	0.863101
	O3052	O	0.172179	0.194804	0.864558
	O3053	O	0.172284	0.311016	0.864505
	O3054	O	0.151624	0.311141	0.767745
	O3055	O	0.180911	0.310796	0.766533
	H3056	H	0.135497	0.644575	0.840477
	H3057	H	0.135574	0.861882	0.840494
	H3058	H	0.135509	0.144703	0.840479
	H3059	H	0.135611	0.361626	0.840484
	H3060	H	0.126377	0.861821	0.795398
	H3061	H	0.126665	0.645006	0.795526
	H3062	H	0.126565	0.361253	0.795498
	H3063	H	0.126389	0.145062	0.795416
	H3064	H	0.246789	0.064045	0.809524
	H3065	H	0.246220	0.064199	0.812546
	H3066	H	0.246244	0.940743	0.812530
	H3067	H	0.246867	0.940786	0.809536
	H3068	H	0.252622	0.064447	0.808179
	H3069	H	0.252611	0.940674	0.808149
	H3070	H	0.101532	0.064402	0.818759
	H3071	H	0.101556	0.941029	0.818740
	H3072	H	0.100824	0.064757	0.819005
	H3073	H	0.100934	0.941299	0.819013
	H3074	H	0.100916	0.064605	0.819761
	H3075	H	0.100982	0.941152	0.819707
	H3076	H	0.098231	0.441124	0.820517
	H3077	H	0.100921	0.441158	0.821946
	H3078	H	0.098670	0.441281	0.817469
	H3079	H	0.253294	0.441547	0.810202
	H3080	H	0.254144	0.441099	0.812512
	H3081	H	0.252294	0.440927	0.813623
	H3082	H	0.100912	0.564569	0.821970
	H3083	H	0.098177	0.564774	0.820528
	H3084	H	0.252302	0.564485	0.813544
	H3085	H	0.254075	0.564483	0.812472
	H3086	H	0.253305	0.564710	0.810219
	H3087	H	0.098599	0.564487	0.817482
	H3088	H	0.226943	0.643648	0.835598
	H3089	H	0.226797	0.861574	0.835586
	H3090	H	0.226919	0.144356	0.835666
	H3091	H	0.226863	0.360388	0.835615
	H3092	H	0.139822	0.645166	0.780790
	H3093	H	0.198048	0.645456	0.777943
	H3094	H	0.198000	0.861554	0.777908
	H3095	H	0.139546	0.861936	0.780693
	H3096	H	0.217327	0.645777	0.790689
	H3097	H	0.217271	0.861690	0.790683
	H3098	H	0.213495	0.643614	0.850197
	H3099	H	0.213411	0.861488	0.850199
	H3100	H	0.166215	0.441164	0.757776
	H3101	H	0.192251	0.440622	0.870212
	H3102	H	0.163689	0.441398	0.758348
	H3103	H	0.162033	0.441083	0.757494
	H3104	H	0.182031	0.441344	0.874049
	H3105	H	0.184318	0.440795	0.870544
	H3106	H	0.192187	0.564644	0.870162
	H3107	H	0.166206	0.564825	0.757736
	H3108	H	0.184263	0.564384	0.870530
	H3109	H	0.182025	0.564212	0.874023
	H3110	H	0.162053	0.564737	0.757550
	H3111	H	0.163676	0.564183	0.758369
	H3112	H	0.213434	0.144421	0.850235
	H3113	H	0.213406	0.360245	0.850212
	H3114	H	0.165055	0.064218	0.755877
	H3115	H	0.163672	0.064725	0.755729
	H3116	H	0.165835	0.064606	0.757063
	H3117	H	0.154856	0.861787	0.853231
	H3118	H	0.154794	0.644503	0.853235
	H3119	H	0.154844	0.361510	0.853232
	H3120	H	0.154808	0.144555	0.853251
	H3121	H	0.139633	0.145283	0.780728
	H3122	H	0.198193	0.144251	0.777869
	H3123	H	0.198207	0.360772	0.777828
	H3124	H	0.139759	0.361619	0.780807
	H3125	H	0.217416	0.144293	0.790638
	H3126	H	0.217392	0.360989	0.790653
	H3127	H	0.187593	0.064103	0.873240
	H3128	H	0.186931	0.064598	0.874245
	H3129	H	0.188434	0.064835	0.875485
	H3130	H	0.163689	0.941033	0.755707
	H3131	H	0.165031	0.941303	0.755905
	H3132	H	0.165854	0.941273	0.757077
	H3133	H	0.187569	0.940691	0.873168
	H3134	H	0.186928	0.940844	0.874200
	H3135	H	0.188359	0.941498	0.875463
	Zn3136	Zn	0.101728	0.680280	0.819360
	Zn3137	Zn	0.101755	0.825606	0.819328
	Zn3138	Zn	0.101735	0.180287	0.819383
	Zn3139	Zn	0.101760	0.325411	0.819324
	Zn3140	Zn	0.188901	0.680107	0.874126
	Zn3141	Zn	0.188993	0.825614	0.874157
	Zn3142	Zn	0.188917	0.180068	0.874172
	Zn3143	Zn	0.188995	0.325573	0.874178
	C3144	C	0.230118	0.753473	0.799072
	C3145	C	0.122836	0.753105	0.832048
	C3146	C	0.134494	0.753036	0.839664
	C3147	C	0.139875	0.691673	0.843284
	C3148	C	0.139916	0.814598	0.843279
	C3149	C	0.122860	0.253189	0.832024
	C3150	C	0.134475	0.253164	0.839668
	C3151	C	0.139837	0.191794	0.843304
	C3152	C	0.139881	0.314454	0.843311
	C3153	C	0.117705	0.753318	0.805063
	C3154	C	0.125766	0.753338	0.796305
	C3155	C	0.129368	0.814774	0.792140
	C3156	C	0.129540	0.692017	0.792208
	C3157	C	0.117696	0.253237	0.805094
	C3158	C	0.125820	0.253145	0.796361
	C3159	C	0.129525	0.314479	0.792233
	C3160	C	0.129440	0.191955	0.792188
	C3161	C	0.247842	0.042927	0.811195
	C3162	C	0.247815	0.962249	0.811194
	C3163	C	0.101304	0.043408	0.819007
	C3164	C	0.101353	0.962471	0.819016
	C3165	C	0.101387	0.043314	0.819755
	C3166	C	0.101417	0.962503	0.819721
	C3167	C	0.100113	0.462461	0.820732
	C3168	C	0.251918	0.462421	0.810380
	C3169	C	0.252734	0.462350	0.812673
	C3170	C	0.100098	0.543320	0.820740
	C3171	C	0.252712	0.543245	0.812650
	C3172	C	0.251927	0.543331	0.810388
	C3173	C	0.235803	0.752644	0.826037
	C3174	C	0.235746	0.252523	0.826056
	C3175	C	0.227655	0.752648	0.834756
	C3176	C	0.223923	0.690882	0.838857
	C3177	C	0.223860	0.814338	0.838862
	C3178	C	0.227646	0.252425	0.834779
	C3179	C	0.223913	0.191228	0.838903
	C3180	C	0.223884	0.313620	0.838874
	C3181	C	0.230129	0.252634	0.799081
	C3182	C	0.185241	0.753463	0.769537
	C3183	C	0.148465	0.753383	0.771089
	C3184	C	0.167748	0.753037	0.861533
	C3185	C	0.213058	0.692534	0.787823
	C3186	C	0.213033	0.814806	0.787818
	C3187	C	0.196919	0.753539	0.777147
	C3188	C	0.140419	0.753501	0.779859
	C3189	C	0.136807	0.692167	0.784041
	C3190	C	0.202362	0.692444	0.780751
	C3191	C	0.202339	0.814699	0.780738
	C3192	C	0.136648	0.814879	0.783976
	C3193	C	0.218492	0.753688	0.791432
	C3194	C	0.204618	0.752444	0.859800
	C3195	C	0.216503	0.690785	0.846956
	C3196	C	0.216455	0.814326	0.846965
	C3197	C	0.212780	0.752521	0.851086
	C3198	C	0.192674	0.462245	0.872429
	C3199	C	0.163213	0.462489	0.757647
	C3200	C	0.184708	0.462279	0.872777
	C3201	C	0.192650	0.543260	0.872408
	C3202	C	0.184681	0.543000	0.872775
	C3203	C	0.163203	0.543276	0.757653
	C3204	C	0.204489	0.252284	0.859754
	C3205	C	0.216456	0.191151	0.846987
	C3206	C	0.216440	0.313466	0.846964
	C3207	C	0.212679	0.252293	0.851068
	C3208	C	0.164293	0.043155	0.756062
	C3209	C	0.185338	0.252698	0.769517
	C3210	C	0.148509	0.253208	0.771133
	C3211	C	0.167691	0.252934	0.861611
	C3212	C	0.213126	0.191302	0.787816
	C3213	C	0.213115	0.313931	0.787802
	C3214	C	0.196993	0.252537	0.777144
	C3215	C	0.140487	0.253361	0.779916
	C3216	C	0.156089	0.753052	0.853929
	C3217	C	0.150620	0.814575	0.850352
	C3218	C	0.150579	0.691692	0.850355
	C3219	C	0.156010	0.252931	0.853978
	C3220	C	0.150566	0.314369	0.850388
	C3221	C	0.150526	0.191643	0.850389
	C3222	C	0.136743	0.192078	0.784032
	C3223	C	0.202463	0.191276	0.780726
	C3224	C	0.202462	0.313846	0.780707
	C3225	C	0.136817	0.314585	0.784075
	C3226	C	0.218494	0.252656	0.791457
	C3227	C	0.187706	0.043197	0.873852
	C3228	C	0.165103	0.043401	0.757273
	C3229	C	0.164346	0.962431	0.756052
	C3230	C	0.187724	0.962164	0.873837
	C3231	C	0.165129	0.962547	0.757252
	N3232	N	0.101702	0.070226	0.819388
	N3233	N	0.101703	0.935678	0.819357
	N3234	N	0.101703	0.435598	0.819362
	N3235	N	0.101688	0.570158	0.819369
	N3236	N	0.188982	0.435489	0.874171
	N3237	N	0.188976	0.569998	0.874150
	N3238	N	0.188952	0.070054	0.874237
	N3239	N	0.188925	0.935546	0.874218
	O3240	O	0.259500	0.694323	0.919249
	O3241	O	0.259435	0.810118	0.919296
	O3242	O	0.143118	0.695017	0.946341
	O3243	O	0.142966	0.811248	0.946419
	O3244	O	0.143095	0.195058	0.946279
	O3245	O	0.143154	0.311215	0.946278
	O3246	O	0.138907	0.695394	0.925667
	O3247	O	0.138855	0.811613	0.925593
	O3248	O	0.138745	0.195044	0.925557
	O3249	O	0.138845	0.310953	0.925596
	O3250	O	0.263215	0.694702	0.939921
	O3251	O	0.263253	0.810644	0.939927
	O3252	O	0.263271	0.194468	0.939968
	O3253	O	0.263322	0.310555	0.939984
	O3254	O	0.259505	0.194692	0.919274
	O3255	O	0.259521	0.310911	0.919237
	O3256	O	0.205564	0.694396	0.883852
	O3257	O	0.176499	0.694967	0.885214
	O3258	O	0.226128	0.694406	0.980578
	O3259	O	0.226136	0.810485	0.980590
	O3260	O	0.196931	0.695162	0.981744
	O3261	O	0.196866	0.811228	0.981829
	O3262	O	0.176502	0.811047	0.885181
	O3263	O	0.205663	0.810457	0.883866
	O3264	O	0.205721	0.194874	0.883826
	O3265	O	0.176622	0.194886	0.885275
	O3266	O	0.226107	0.194891	0.980625
	O3267	O	0.226168	0.310712	0.980667
	O3268	O	0.197012	0.194775	0.981749
	O3269	O	0.196966	0.310703	0.981819
	O3270	O	0.176548	0.310767	0.885251
	O3271	O	0.205704	0.310870	0.883823
	H3272	H	0.160356	0.645034	0.957689
	H3273	H	0.160273	0.861657	0.957734
	H3274	H	0.160522	0.144780	0.957564
	H3275	H	0.160414	0.361441	0.957658
	H3276	H	0.151018	0.861549	0.912692
	H3277	H	0.150886	0.644730	0.912688
	H3278	H	0.150797	0.360879	0.912691
	H3279	H	0.150873	0.144824	0.912680
	H3280	H	0.280348	0.064271	0.929133
	H3281	H	0.278837	0.064382	0.926948
	H3282	H	0.278739	0.941082	0.926900
	H3283	H	0.280381	0.940814	0.929095
	H3284	H	0.277679	0.064063	0.931730
	H3285	H	0.277619	0.940981	0.931694
	H3286	H	0.127710	0.064426	0.936966
	H3287	H	0.127661	0.941295	0.936930
	H3288	H	0.127471	0.065098	0.936156
	H3289	H	0.127449	0.941215	0.936145
	H3290	H	0.125910	0.065022	0.935729
	H3291	H	0.125956	0.941452	0.935720
	H3292	H	0.127787	0.441911	0.934659
	H3293	H	0.124953	0.441282	0.934543
	H3294	H	0.129735	0.441155	0.936923
	H3295	H	0.277081	0.441049	0.930143
	H3296	H	0.274880	0.441355	0.930003
	H3297	H	0.274162	0.440908	0.928990
	H3298	H	0.124975	0.565419	0.934549
	H3299	H	0.127789	0.564638	0.934664
	H3300	H	0.274133	0.565104	0.929031
	H3301	H	0.274918	0.564387	0.929976
	H3302	H	0.277102	0.564225	0.930149
	H3303	H	0.129786	0.564462	0.936980
	H3304	H	0.251289	0.644125	0.952904
	H3305	H	0.251192	0.861119	0.952885
	H3306	H	0.251230	0.144759	0.952900
	H3307	H	0.251266	0.360501	0.952924
	H3308	H	0.164323	0.644641	0.898102
	H3309	H	0.222840	0.643927	0.895223
	H3310	H	0.222960	0.860463	0.895152
	H3311	H	0.164441	0.861250	0.898072
	H3312	H	0.242101	0.643757	0.907972
	H3313	H	0.242220	0.860294	0.907891
	H3314	H	0.238100	0.644288	0.967618
	H3315	H	0.237976	0.860842	0.967583
	H3316	H	0.195782	0.441296	0.873444
	H3317	H	0.211984	0.441495	0.993750
	H3318	H	0.192619	0.441134	0.878262
	H3319	H	0.186849	0.440903	0.878472
	H3320	H	0.217381	0.441043	0.991490
	H3321	H	0.216242	0.440994	0.993440
	H3322	H	0.211943	0.564861	0.993697
	H3323	H	0.195760	0.564789	0.873405
	H3324	H	0.216222	0.564599	0.993421
	H3325	H	0.217269	0.564339	0.991459
	H3326	H	0.186854	0.564149	0.878477
	H3327	H	0.192659	0.564325	0.878227
	H3328	H	0.238041	0.144634	0.967623
	H3329	H	0.238076	0.360534	0.967659
	H3330	H	0.190874	0.064400	0.874014
	H3331	H	0.189881	0.064304	0.873024
	H3332	H	0.190037	0.064550	0.875388
	H3333	H	0.179670	0.861745	0.970380
	H3334	H	0.179706	0.645023	0.970373
	H3335	H	0.179665	0.361482	0.970422
	H3336	H	0.179762	0.144518	0.970348
	H3337	H	0.164383	0.144801	0.898104
	H3338	H	0.222996	0.144570	0.895157
	H3339	H	0.222955	0.360740	0.895191
	H3340	H	0.164264	0.360963	0.898111
	H3341	H	0.242211	0.144372	0.907943
	H3342	H	0.242191	0.360765	0.907982
	H3343	H	0.213776	0.064059	0.993689
	H3344	H	0.216211	0.064635	0.992906
	H3345	H	0.216293	0.064944	0.990389
	H3346	H	0.189896	0.941135	0.873097
	H3347	H	0.190915	0.941077	0.873974
	H3348	H	0.190019	0.941384	0.875362
	H3349	H	0.213762	0.941062	0.993706
	H3350	H	0.216194	0.941012	0.992944
	H3351	H	0.216300	0.941300	0.990376
	Zn3352	Zn	0.126424	0.680186	0.936694
	Zn3353	Zn	0.126350	0.825856	0.936654
	Zn3354	Zn	0.126342	0.180156	0.936673
	Zn3355	Zn	0.126360	0.325934	0.936620
	Zn3356	Zn	0.213479	0.680172	0.991499
	Zn3357	Zn	0.213536	0.825503	0.991528
	Zn3358	Zn	0.213548	0.180092	0.991548
	Zn3359	Zn	0.213565	0.325557	0.991586
	C3360	C	0.254946	0.752156	0.916353
	C3361	C	0.147571	0.753178	0.949297
	C3362	C	0.159250	0.753304	0.956897
	C3363	C	0.164711	0.691949	0.960489
	C3364	C	0.164691	0.814733	0.960491
	C3365	C	0.147618	0.253067	0.949219
	C3366	C	0.159255	0.253138	0.956859
	C3367	C	0.164765	0.191751	0.960426
	C3368	C	0.164732	0.314421	0.960468
	C3369	C	0.142089	0.753377	0.922310
	C3370	C	0.150245	0.753110	0.913584
	C3371	C	0.154003	0.814448	0.909456
	C3372	C	0.153921	0.691698	0.909448
	C3373	C	0.141987	0.252979	0.922245
	C3374	C	0.150217	0.252840	0.913570
	C3375	C	0.153931	0.314053	0.909468
	C3376	C	0.153969	0.191674	0.909456
	C3377	C	0.278672	0.043315	0.928294
	C3378	C	0.278671	0.962422	0.928270
	C3379	C	0.127250	0.043496	0.936577
	C3380	C	0.127244	0.962688	0.936581
	C3381	C	0.125712	0.043366	0.936151
	C3382	C	0.125726	0.962829	0.936150
	C3383	C	0.126372	0.462713	0.935130
	C3384	C	0.277158	0.462205	0.929529
	C3385	C	0.274946	0.462371	0.929382
	C3386	C	0.126393	0.543592	0.935141
	C3387	C	0.274931	0.543392	0.929392
	C3388	C	0.277150	0.543066	0.929529
	C3389	C	0.260063	0.752700	0.943266
	C3390	C	0.260140	0.252554	0.943320
	C3391	C	0.252031	0.752628	0.952035
	C3392	C	0.248360	0.691233	0.956176
	C3393	C	0.248304	0.813971	0.956169
	C3394	C	0.252029	0.252643	0.952071
	C3395	C	0.248309	0.191516	0.956190
	C3396	C	0.248323	0.313766	0.956212
	C3397	C	0.254981	0.252779	0.916346
	C3398	C	0.210138	0.752315	0.886790
	C3399	C	0.173346	0.753009	0.888549
	C3400	C	0.192387	0.753207	0.978862
	C3401	C	0.237870	0.690839	0.905108
	C3402	C	0.237938	0.813251	0.905067
	C3403	C	0.221797	0.752206	0.894399
	C3404	C	0.165185	0.753002	0.897264
	C3405	C	0.161355	0.691632	0.901356
	C3406	C	0.227182	0.690871	0.898024
	C3407	C	0.227242	0.813399	0.897993
	C3408	C	0.161420	0.814420	0.901350
	C3409	C	0.243341	0.752041	0.908696
	C3410	C	0.229286	0.752449	0.977233
	C3411	C	0.241075	0.691220	0.964343
	C3412	C	0.241019	0.813927	0.964336
	C3413	C	0.237378	0.752546	0.968488
	C3414	C	0.211645	0.462358	0.992558
	C3415	C	0.189545	0.462422	0.877251
	C3416	C	0.215959	0.462447	0.992236
	C3417	C	0.211633	0.543192	0.992536
	C3418	C	0.215938	0.543381	0.992218
	C3419	C	0.189540	0.543252	0.877233
	C3420	C	0.229257	0.252790	0.977283
	C3421	C	0.241014	0.191449	0.964355
	C3422	C	0.241034	0.313789	0.964379
	C3423	C	0.237313	0.252593	0.968508
	C3424	C	0.190013	0.043034	0.873713
	C3425	C	0.210203	0.252863	0.886769
	C3426	C	0.173393	0.252821	0.888603
	C3427	C	0.192439	0.252785	0.978864
	C3428	C	0.237889	0.191388	0.905124
	C3429	C	0.237861	0.313854	0.905145
	C3430	C	0.221793	0.252761	0.894433
	C3431	C	0.165253	0.252925	0.897297
	C3432	C	0.180784	0.753303	0.971197
	C3433	C	0.175343	0.814669	0.967594
	C3434	C	0.175369	0.692054	0.967582
	C3435	C	0.180776	0.252996	0.971212
	C3436	C	0.175383	0.314436	0.967576
	C3437	C	0.175414	0.191635	0.967540
	C3438	C	0.161437	0.191786	0.901378
	C3439	C	0.227234	0.191464	0.898019
	C3440	C	0.227218	0.313890	0.898039
	C3441	C	0.161386	0.314058	0.901390
	C3442	C	0.243293	0.252652	0.908740
	C3443	C	0.214613	0.043168	0.992828
	C3444	C	0.189129	0.043240	0.875113
	C3445	C	0.190021	0.962339	0.873711
	C3446	C	0.214609	0.962429	0.992840
	C3447	C	0.189128	0.962549	0.875113
	N3448	N	0.126342	0.070285	0.936665
	N3449	N	0.126340	0.935801	0.936668
	N3450	N	0.126352	0.435817	0.936646
	N3451	N	0.126374	0.570279	0.936686
	N3452	N	0.213550	0.435649	0.991540
	N3453	N	0.213521	0.570186	0.991507
	N3454	N	0.213584	0.070063	0.991503
	N3455	N	0.213554	0.935566	0.991500
	O3456	O	0.351643	0.694424	0.049720
	O3457	O	0.351583	0.811306	0.049741
	O3458	O	0.303366	0.694483	0.064586
	O3459	O	0.303315	0.811510	0.064521
	O3460	O	0.303172	0.194297	0.064637
	O3461	O	0.303326	0.311018	0.064582
	O3462	O	0.305456	0.694387	0.040902
	O3463	O	0.305580	0.810767	0.040932
	O3464	O	0.305462	0.194469	0.040869
	O3465	O	0.305534	0.310674	0.040868
	O3466	O	0.349358	0.695218	0.073358
	O3467	O	0.349409	0.811482	0.073382
	O3468	O	0.349315	0.194705	0.073396
	O3469	O	0.349378	0.311233	0.073392
	O3470	O	0.351720	0.194611	0.049694
	O3471	O	0.351514	0.311372	0.049706
	O3472	O	0.365839	0.694219	0.002091
	O3473	O	0.338559	0.694537	-0.001731
	O3474	O	0.316314	0.694980	0.115973
	O3475	O	0.316237	0.811704	0.115951
	O3476	O	0.289194	0.694546	0.112215
	O3477	O	0.289246	0.811318	0.112153
	O3478	O	0.338633	0.811304	-0.001623
	O3479	O	0.365845	0.811104	0.002117
	O3480	O	0.365862	0.194632	0.002110
	O3481	O	0.338754	0.194377	-0.001654
	O3482	O	0.316360	0.194714	0.116037
	O3483	O	0.316306	0.311409	0.115991
	O3484	O	0.289051	0.194751	0.112212
	O3485	O	0.289177	0.311701	0.112188
	O3486	O	0.338520	0.311232	-0.001714
	O3487	O	0.365846	0.311453	0.002110
	H3488	H	0.299562	0.643042	0.080007
	H3489	H	0.299315	0.863281	0.079950
	H3490	H	0.299397	0.142966	0.080021
	H3491	H	0.299488	0.363120	0.080017
	H3492	H	0.315485	0.862272	0.026978
	H3493	H	0.315177	0.642936	0.026862
	H3494	H	0.315192	0.362050	0.026798
	H3495	H	0.315468	0.142924	0.026879
	H3496	H	0.368301	0.064906	0.062720
	H3497	H	0.366031	0.064725	0.059611
	H3498	H	0.366013	0.941235	0.059649
	H3499	H	0.368308	0.941928	0.062684
	H3500	H	0.364594	0.064304	0.066355
	H3501	H	0.364638	0.941814	0.066348
	H3502	H	0.285921	0.064277	0.053308
	H3503	H	0.285874	0.941212	0.053295
	H3504	H	0.290465	0.064598	0.056232
	H3505	H	0.290427	0.941232	0.056259
	H3506	H	0.298439	0.064218	0.054824
	H3507	H	0.298385	0.941068	0.054772
	H3508	H	0.298972	0.441326	0.055946
	H3509	H	0.301358	0.440681	0.051462
	H3510	H	0.289101	0.440844	0.056858
	H3511	H	0.364826	0.441643	0.064370
	H3512	H	0.360880	0.441334	0.064597
	H3513	H	0.359078	0.441179	0.063078
	H3514	H	0.301303	0.564504	0.051456
	H3515	H	0.298932	0.564228	0.055964
	H3516	H	0.359057	0.564832	0.063069
	H3517	H	0.360885	0.564935	0.064628
	H3518	H	0.364810	0.564512	0.064365
	H3519	H	0.289080	0.564392	0.056866
	H3520	H	0.339530	0.643825	0.087333
	H3521	H	0.339696	0.862676	0.087448
	H3522	H	0.339747	0.143363	0.087441
	H3523	H	0.339636	0.362689	0.087415
	H3524	H	0.326296	0.642919	0.011336
	H3525	H	0.361814	0.642839	0.017523
	H3526	H	0.362179	0.862770	0.017556
	H3527	H	0.326579	0.862287	0.011451
	H3528	H	0.355209	0.643053	0.034284
	H3529	H	0.355577	0.863027	0.034333
	H3530	H	0.328377	0.643780	0.102837
	H3531	H	0.328562	0.862689	0.102930
	H3532	H	0.350783	0.440977	-0.009337
	H3533	H	0.304374	0.441413	0.127897
	H3534	H	0.351320	0.440868	-0.013193
	H3535	H	0.355193	0.441200	-0.014230
	H3536	H	0.300928	0.441236	0.121180
	H3537	H	0.305071	0.441298	0.123354
	H3538	H	0.304365	0.565265	0.127923
	H3539	H	0.350760	0.564336	-0.009357
	H3540	H	0.305042	0.564599	0.123419
	H3541	H	0.301023	0.564505	0.121255
	H3542	H	0.355203	0.564284	-0.014219
	H3543	H	0.351350	0.564462	-0.013158
	H3544	H	0.328558	0.143276	0.102931
	H3545	H	0.328421	0.362785	0.102912
	H3546	H	0.356658	0.064479	-0.009481
	H3547	H	0.357603	0.064203	-0.010651
	H3548	H	0.353782	0.064431	-0.009406
	H3549	H	0.292773	0.863108	0.096729
	H3550	H	0.293030	0.642999	0.096781
	H3551	H	0.292984	0.363079	0.096791
	H3552	H	0.292858	0.143132	0.096793
	H3553	H	0.326698	0.143137	0.011372
	H3554	H	0.361966	0.142938	0.017536
	H3555	H	0.361855	0.362850	0.017474
	H3556	H	0.326409	0.362146	0.011329
	H3557	H	0.355402	0.143058	0.034302
	H3558	H	0.355250	0.363033	0.034240
	H3559	H	0.292923	0.065036	0.127470
	H3560	H	0.298382	0.065081	0.130175
	H3561	H	0.306537	0.064945	0.128005
	H3562	H	0.357565	0.941023	-0.010671
	H3563	H	0.356708	0.940828	-0.009462
	H3564	H	0.353800	0.941027	-0.009366
	H3565	H	0.292938	0.941267	0.127536
	H3566	H	0.298353	0.941888	0.130222
	H3567	H	0.306579	0.941334	0.128028
	Zn3568	Zn	0.292519	0.680181	0.051679
	Zn3569	Zn	0.292482	0.825397	0.051626
	Zn3570	Zn	0.292623	0.180301	0.051730
	Zn3571	Zn	0.292701	0.325397	0.051684
	Zn3572	Zn	0.299848	0.680585	0.125107
	Zn3573	Zn	0.299801	0.825655	0.125081
	Zn3574	Zn	0.299795	0.180655	0.125093
	Zn3575	Zn	0.299831	0.325686	0.125064
	C3576	C	0.352179	0.752922	0.045647
	C3577	C	0.302759	0.753104	0.068612
	C3578	C	0.300035	0.753162	0.078957
	C3579	C	0.298129	0.690991	0.083725
	C3580	C	0.298001	0.815390	0.083689
	C3581	C	0.302695	0.252815	0.068689
	C3582	C	0.299953	0.253040	0.079016
	C3583	C	0.297987	0.190850	0.083749
	C3584	C	0.298058	0.315296	0.083753
	C3585	C	0.308135	0.752545	0.037282
	C3586	C	0.314783	0.752543	0.027926
	C3587	C	0.317871	0.814635	0.023509
	C3588	C	0.317731	0.690532	0.023444
	C3589	C	0.308125	0.252512	0.037233
	C3590	C	0.314707	0.252429	0.027848
	C3591	C	0.317659	0.314322	0.023367
	C3592	C	0.317827	0.190602	0.023403
	C3593	C	0.365861	0.043536	0.061554
	C3594	C	0.365882	0.962654	0.061550
	C3595	C	0.289411	0.043197	0.053956
	C3596	C	0.289370	0.962430	0.053953
	C3597	C	0.297435	0.043146	0.052536
	C3598	C	0.297366	0.962091	0.052503
	C3599	C	0.298232	0.462448	0.053176
	C3600	C	0.364514	0.462695	0.063213
	C3601	C	0.360595	0.462449	0.063502
	C3602	C	0.298164	0.543139	0.053174
	C3603	C	0.360587	0.543618	0.063510
	C3604	C	0.364510	0.543274	0.063223
	C3605	C	0.346727	0.753390	0.076990
	C3606	C	0.346712	0.253041	0.077010
	C3607	C	0.340151	0.753300	0.086376
	C3608	C	0.337124	0.691362	0.090804
	C3609	C	0.337211	0.815056	0.090868
	C3610	C	0.340193	0.253051	0.086418
	C3611	C	0.337263	0.191018	0.090890
	C3612	C	0.337196	0.315052	0.090882
	C3613	C	0.352164	0.253038	0.045616
	C3614	C	0.365268	0.752606	0.006184
	C3615	C	0.335101	0.752789	0.001561
	C3616	C	0.289763	0.752777	0.108088
	C3617	C	0.356757	0.690833	0.030561
	C3618	C	0.356954	0.815244	0.030582
	C3619	C	0.362536	0.752768	0.016524
	C3620	C	0.327155	0.752550	0.010462
	C3621	C	0.323848	0.690571	0.014811
	C3622	C	0.360484	0.690689	0.021266
	C3623	C	0.360661	0.815043	0.021281
	C3624	C	0.323990	0.814602	0.014871
	C3625	C	0.354923	0.753076	0.035310
	C3626	C	0.319732	0.753355	0.112695
	C3627	C	0.330963	0.691327	0.099430
	C3628	C	0.331062	0.815087	0.099492
	C3629	C	0.327739	0.753263	0.103834
	C3630	C	0.301423	0.462600	0.127636
	C3631	C	0.353812	0.462215	-0.012936
	C3632	C	0.302110	0.462836	0.123033
	C3633	C	0.301427	0.543775	0.127646
	C3634	C	0.302144	0.543459	0.123047
	C3635	C	0.353829	0.543124	-0.012940
	C3636	C	0.319832	0.253043	0.112767
	C3637	C	0.331103	0.191024	0.099517
	C3638	C	0.331030	0.315051	0.099504
	C3639	C	0.327814	0.253025	0.103885
	C3640	C	0.356650	0.043093	-0.010260
	C3641	C	0.365293	0.253031	0.006192
	C3642	C	0.335150	0.252700	0.001554
	C3643	C	0.289661	0.253157	0.108122
	C3644	C	0.356856	0.190868	0.030568
	C3645	C	0.356791	0.315177	0.030537
	C3646	C	0.362543	0.252949	0.016527
	C3647	C	0.327178	0.252595	0.010419
	C3648	C	0.292419	0.752945	0.097734
	C3649	C	0.294299	0.815323	0.092992
	C3650	C	0.294418	0.690744	0.093023
	C3651	C	0.292379	0.253131	0.097790
	C3652	C	0.294362	0.315278	0.093050
	C3653	C	0.294280	0.190909	0.093046
	C3654	C	0.324028	0.190574	0.014797
	C3655	C	0.360595	0.190813	0.021275
	C3656	C	0.360523	0.315131	0.021241
	C3657	C	0.323857	0.314482	0.014766
	C3658	C	0.354896	0.253090	0.035297
	C3659	C	0.296684	0.043636	0.127841
	C3660	C	0.353740	0.043035	-0.010248
	C3661	C	0.356627	0.962151	-0.010250
	C3662	C	0.296683	0.962876	0.127873
	C3663	C	0.353746	0.962225	-0.010226
	N3664	N	0.292657	0.070124	0.051683
	N3665	N	0.292567	0.935559	0.051653
	N3666	N	0.292748	0.435284	0.051690
	N3667	N	0.292663	0.569856	0.051724
	N3668	N	0.299799	0.435751	0.125083
	N3669	N	0.299772	0.570277	0.125116
	N3670	N	0.299713	0.070374	0.125099
	N3671	N	0.299722	0.935789	0.125113
	O3672	O	0.361152	0.695099	0.176015
	O3673	O	0.361171	0.811061	0.175998
	O3674	O	0.252432	0.695137	0.198461
	O3675	O	0.252370	0.811229	0.198513
	O3676	O	0.252341	0.194881	0.198505
	O3677	O	0.252394	0.311160	0.198515
	O3678	O	0.253753	0.694796	0.178561
	O3679	O	0.253812	0.811358	0.178555
	O3680	O	0.253673	0.194886	0.178464
	O3681	O	0.253702	0.311681	0.178480
	O3682	O	0.363423	0.694111	0.197229
	O3683	O	0.363469	0.810532	0.197303
	O3684	O	0.363378	0.193930	0.197226
	O3685	O	0.363574	0.310160	0.197336
	O3686	O	0.361106	0.194475	0.176052
	O3687	O	0.361052	0.310483	0.176005
	O3688	O	0.314963	0.695003	0.136005
	O3689	O	0.286781	0.694432	0.135891
	O3690	O	0.327027	0.694907	0.238283
	O3691	O	0.327290	0.811135	0.238359
	O3692	O	0.298643	0.694778	0.238379
	O3693	O	0.298456	0.810803	0.238492
	O3694	O	0.286733	0.811069	0.135834
	O3695	O	0.314898	0.811296	0.136051
	O3696	O	0.314968	0.194695	0.136026
	O3697	O	0.286806	0.195105	0.135888
	O3698	O	0.327096	0.194136	0.238342
	O3699	O	0.327185	0.310234	0.238275
	O3700	O	0.298466	0.195094	0.238503
	O3701	O	0.298619	0.311237	0.238441
	O3702	O	0.286935	0.311442	0.135905
	O3703	O	0.315030	0.310915	0.136009
	H3704	H	0.267409	0.645312	0.211179
	H3705	H	0.267249	0.860587	0.211235
	H3706	H	0.267394	0.144609	0.211195
	H3707	H	0.267353	0.361609	0.211252
	H3708	H	0.265674	0.862622	0.165344
	H3709	H	0.266036	0.643270	0.165523
	H3710	H	0.266016	0.362848	0.165451
	H3711	H	0.265782	0.143614	0.165359
	H3712	H	0.376907	0.064570	0.191483
	H3713	H	0.382397	0.065210	0.189878
	H3714	H	0.382267	0.940978	0.189816
	H3715	H	0.376790	0.941820	0.191464
	H3716	H	0.369883	0.064763	0.188096
	H3717	H	0.369815	0.942001	0.188075
	H3718	H	0.234083	0.064644	0.187324
	H3719	H	0.234122	0.941420	0.187371
	H3720	H	0.235009	0.064377	0.188997
	H3721	H	0.235029	0.940947	0.188960
	H3722	H	0.238521	0.064237	0.189549
	H3723	H	0.238512	0.941051	0.189510
	H3724	H	0.234757	0.441474	0.191590
	H3725	H	0.240234	0.441516	0.191572
	H3726	H	0.230658	0.441643	0.187177
	H3727	H	0.381735	0.441078	0.185690
	H3728	H	0.379774	0.441377	0.189519
	H3729	H	0.375450	0.441647	0.189976
	H3730	H	0.240234	0.564815	0.191592
	H3731	H	0.234797	0.565150	0.191595
	H3732	H	0.375538	0.565122	0.189941
	H3733	H	0.379857	0.564949	0.189509
	H3734	H	0.381724	0.564624	0.185637
	H3735	H	0.230654	0.565045	0.187255
	H3736	H	0.351863	0.643324	0.210433
	H3737	H	0.351532	0.860957	0.210271
	H3738	H	0.351832	0.143565	0.210423
	H3739	H	0.351796	0.359930	0.210384
	H3740	H	0.277214	0.643080	0.150001
	H3741	H	0.329829	0.644614	0.148764
	H3742	H	0.329853	0.861491	0.148850
	H3743	H	0.276788	0.862580	0.149842
	H3744	H	0.346245	0.644623	0.163205
	H3745	H	0.346280	0.861319	0.163241
	H3746	H	0.339019	0.643698	0.225299
	H3747	H	0.338677	0.861095	0.225139
	H3748	H	0.299755	0.441553	0.129142
	H3749	H	0.315805	0.441345	0.251034
	H3750	H	0.294125	0.441519	0.126192
	H3751	H	0.294641	0.441255	0.122892
	H3752	H	0.315658	0.441251	0.247086
	H3753	H	0.317452	0.441093	0.248701
	H3754	H	0.315802	0.564849	0.251133
	H3755	H	0.299800	0.565357	0.129167
	H3756	H	0.317385	0.564699	0.248708
	H3757	H	0.315591	0.564335	0.247117
	H3758	H	0.294584	0.564723	0.122875
	H3759	H	0.294075	0.564483	0.126234
	H3760	H	0.338916	0.143541	0.225267
	H3761	H	0.338932	0.359953	0.225222
	H3762	H	0.299795	0.064304	0.119846
	H3763	H	0.293791	0.064763	0.121497
	H3764	H	0.307149	0.064507	0.123648
	H3765	H	0.283627	0.860656	0.225695
	H3766	H	0.283796	0.645121	0.225617
	H3767	H	0.283790	0.361625	0.225676
	H3768	H	0.283762	0.144819	0.225633
	H3769	H	0.276957	0.143728	0.149849
	H3770	H	0.329785	0.144047	0.148800
	H3771	H	0.329921	0.361490	0.148797
	H3772	H	0.277187	0.362895	0.149950
	H3773	H	0.346154	0.143993	0.163266
	H3774	H	0.346283	0.361000	0.163244
	H3775	H	0.317919	0.064367	0.245777
	H3776	H	0.312582	0.064857	0.244756
	H3777	H	0.307426	0.064935	0.248234
	H3778	H	0.293748	0.940796	0.121475
	H3779	H	0.299738	0.941086	0.119885
	H3780	H	0.307165	0.941238	0.123631
	H3781	H	0.317952	0.941110	0.245775
	H3782	H	0.312602	0.940810	0.244756
	H3783	H	0.307458	0.941483	0.248217
	Zn3784	Zn	0.237186	0.680394	0.187647
	Zn3785	Zn	0.237196	0.825332	0.187580
	Zn3786	Zn	0.237208	0.180228	0.187596
	Zn3787	Zn	0.237218	0.325446	0.187598
	Zn3788	Zn	0.313989	0.680420	0.249066
	Zn3789	Zn	0.313995	0.825630	0.249013
	Zn3790	Zn	0.313950	0.180547	0.249035
	Zn3791	Zn	0.314110	0.325705	0.248968
	C3792	C	0.357235	0.753072	0.172704
	C3793	C	0.256324	0.753153	0.201767
	C3794	C	0.266359	0.753024	0.210361
	C3795	C	0.271011	0.692004	0.214413
	C3796	C	0.270936	0.813976	0.214449
	C3797	C	0.256377	0.252990	0.201753
	C3798	C	0.266399	0.253100	0.210357
	C3799	C	0.271007	0.191734	0.214436
	C3800	C	0.271019	0.314539	0.214458
	C3801	C	0.257198	0.753021	0.175267
	C3802	C	0.265095	0.752993	0.166356
	C3803	C	0.268282	0.814882	0.161950
	C3804	C	0.268473	0.690935	0.162035
	C3805	C	0.257173	0.253257	0.175225
	C3806	C	0.265088	0.253213	0.166316
	C3807	C	0.268461	0.315201	0.161986
	C3808	C	0.268337	0.191276	0.161933
	C3809	C	0.378839	0.043529	0.189575
	C3810	C	0.378752	0.962594	0.189578
	C3811	C	0.235210	0.043278	0.188019
	C3812	C	0.235221	0.962366	0.188015
	C3813	C	0.238748	0.043133	0.188552
	C3814	C	0.238711	0.962426	0.188543
	C3815	C	0.237371	0.462720	0.190553
	C3816	C	0.379245	0.462581	0.185034
	C3817	C	0.377363	0.462811	0.188903
	C3818	C	0.237387	0.543584	0.190550
	C3819	C	0.377411	0.543700	0.188890
	C3820	C	0.379279	0.543404	0.185038
	C3821	C	0.360317	0.752217	0.200636
	C3822	C	0.360327	0.251981	0.200646
	C3823	C	0.352445	0.752134	0.209491
	C3824	C	0.348964	0.690602	0.213727
	C3825	C	0.348765	0.813778	0.213637
	C3826	C	0.352392	0.251727	0.209458
	C3827	C	0.348880	0.190463	0.213693
	C3828	C	0.348857	0.312985	0.213661
	C3829	C	0.357175	0.252405	0.172721
	C3830	C	0.318887	0.753173	0.139299
	C3831	C	0.284095	0.752808	0.139478
	C3832	C	0.294616	0.752816	0.235152
	C3833	C	0.342587	0.691684	0.160000
	C3834	C	0.342623	0.814274	0.160017
	C3835	C	0.328919	0.753146	0.147887
	C3836	C	0.277458	0.752851	0.148865
	C3837	C	0.274601	0.690825	0.153397
	C3838	C	0.333513	0.691735	0.151969
	C3839	C	0.333544	0.814342	0.152004
	C3840	C	0.274400	0.814845	0.153312
	C3841	C	0.347249	0.752993	0.164081
	C3842	C	0.330257	0.752896	0.234942
	C3843	C	0.341837	0.690785	0.221963
	C3844	C	0.341646	0.813945	0.221875
	C3845	C	0.338177	0.752466	0.226115
	C3846	C	0.314317	0.462604	0.250569
	C3847	C	0.295748	0.462484	0.124698
	C3848	C	0.315879	0.462457	0.248190
	C3849	C	0.314269	0.543569	0.250599
	C3850	C	0.315854	0.543272	0.248197
	C3851	C	0.295744	0.543258	0.124701
	C3852	C	0.330260	0.252048	0.234937
	C3853	C	0.341763	0.190473	0.221933
	C3854	C	0.341752	0.313039	0.221900
	C3855	C	0.338113	0.251812	0.226075
	C3856	C	0.297528	0.043314	0.121833
	C3857	C	0.318997	0.252793	0.139263
	C3858	C	0.284229	0.253308	0.139518
	C3859	C	0.294637	0.253205	0.235170
	C3860	C	0.342530	0.191115	0.160043
	C3861	C	0.342596	0.313929	0.160032
	C3862	C	0.328945	0.252699	0.147894
	C3863	C	0.277572	0.253313	0.148891
	C3864	C	0.284628	0.752926	0.226543
	C3865	C	0.280016	0.813961	0.222461
	C3866	C	0.280099	0.691898	0.222424
	C3867	C	0.284694	0.253235	0.226545
	C3868	C	0.280081	0.314554	0.222477
	C3869	C	0.280081	0.191872	0.222454
	C3870	C	0.274512	0.191301	0.153316
	C3871	C	0.333465	0.191210	0.152020
	C3872	C	0.333533	0.314127	0.152012
	C3873	C	0.274650	0.315272	0.153372
	C3874	C	0.347202	0.252437	0.164111
	C3875	C	0.314902	0.043493	0.246279
	C3876	C	0.304939	0.043372	0.125618
	C3877	C	0.297514	0.962236	0.121839
	C3878	C	0.314901	0.962375	0.246266
	C3879	C	0.304975	0.962676	0.125623
	N3880	N	0.237121	0.070203	0.187605
	N3881	N	0.237105	0.935610	0.187612
	N3882	N	0.237154	0.435621	0.187627
	N3883	N	0.237109	0.570189	0.187653
	N3884	N	0.314064	0.435691	0.249036
	N3885	N	0.313981	0.570223	0.249078
	N3886	N	0.313916	0.070349	0.249093
	N3887	N	0.313925	0.935804	0.249079
	O3888	O	0.375438	0.695224	0.299672
	O3889	O	0.375312	0.811279	0.299760
	O3890	O	0.266873	0.695115	0.322015
	O3891	O	0.266856	0.811191	0.322019
	O3892	O	0.266945	0.194929	0.321978
	O3893	O	0.266765	0.310736	0.322110
	O3894	O	0.264678	0.695386	0.300737
	O3895	O	0.264549	0.811324	0.300760
	O3896	O	0.264603	0.195582	0.300738
	O3897	O	0.264456	0.311607	0.300753
	O3898	O	0.374018	0.694849	0.319727
	O3899	O	0.374044	0.811606	0.319771
	O3900	O	0.373997	0.194434	0.319718
	O3901	O	0.373980	0.311284	0.319715
	O3902	O	0.375420	0.194683	0.299664
	O3903	O	0.375252	0.311146	0.299719
	O3904	O	0.329425	0.695222	0.259681
	O3905	O	0.300852	0.695516	0.259730
	O3906	O	0.340684	0.694149	0.362266
	O3907	O	0.340851	0.810512	0.362342
	O3908	O	0.312617	0.695219	0.362176
	O3909	O	0.312617	0.811446	0.362184
	O3910	O	0.300812	0.811699	0.259716
	O3911	O	0.329622	0.811269	0.259527
	O3912	O	0.329451	0.194613	0.259606
	O3913	O	0.300789	0.196364	0.259734
	O3914	O	0.340779	0.194791	0.362297
	O3915	O	0.340725	0.311192	0.362255
	O3916	O	0.312779	0.194541	0.362108
	O3917	O	0.312636	0.310735	0.362154
	O3918	O	0.300922	0.312281	0.259753
	O3919	O	0.329469	0.310703	0.259534
	H3920	H	0.281501	0.644730	0.334932
	H3921	H	0.281772	0.861326	0.334773
	H3922	H	0.281720	0.144696	0.334844
	H3923	H	0.281534	0.360735	0.334900
	H3924	H	0.276405	0.861875	0.287707
	H3925	H	0.276295	0.645841	0.287637
	H3926	H	0.276367	0.361748	0.287746
	H3927	H	0.276283	0.146418	0.287659
	H3928	H	0.392857	0.065147	0.306730
	H3929	H	0.387558	0.064970	0.306835
	H3930	H	0.387497	0.941197	0.306795
	H3931	H	0.392813	0.941215	0.306753
	H3932	H	0.396911	0.064869	0.310961
	H3933	H	0.396908	0.941244	0.310970
	H3934	H	0.252153	0.064849	0.313862
	H3935	H	0.252154	0.941381	0.313880
	H3936	H	0.254643	0.064650	0.312769
	H3937	H	0.254561	0.941427	0.312789
	H3938	H	0.254131	0.064762	0.309987
	H3939	H	0.254087	0.941049	0.309973
	H3940	H	0.247760	0.441054	0.310069
	H3941	H	0.247565	0.441027	0.312333
	H3942	H	0.252022	0.440845	0.308720
	H3943	H	0.390403	0.441275	0.312895
	H3944	H	0.387168	0.441761	0.311178
	H3945	H	0.387542	0.441641	0.309234
	H3946	H	0.247617	0.564648	0.312277
	H3947	H	0.247846	0.564246	0.309928
	H3948	H	0.387510	0.564816	0.309218
	H3949	H	0.387133	0.564494	0.311192
	H3950	H	0.390356	0.564856	0.312916
	H3951	H	0.252150	0.564329	0.308715
	H3952	H	0.361806	0.643545	0.332754
	H3953	H	0.361912	0.862083	0.332879
	H3954	H	0.361874	0.143262	0.332811
	H3955	H	0.361763	0.362375	0.332771
	H3956	H	0.289050	0.645760	0.272759
	H3957	H	0.344361	0.645375	0.272366
	H3958	H	0.344375	0.861412	0.272395
	H3959	H	0.289145	0.861974	0.272804
	H3960	H	0.360547	0.645119	0.286913
	H3961	H	0.360604	0.861280	0.286937
	H3962	H	0.350614	0.643120	0.348243
	H3963	H	0.350705	0.861777	0.348377
	H3964	H	0.313008	0.441685	0.251196
	H3965	H	0.319911	0.440822	0.371747
	H3966	H	0.310656	0.442205	0.248957
	H3967	H	0.311758	0.441612	0.247213
	H3968	H	0.330432	0.441427	0.378276
	H3969	H	0.323703	0.440921	0.377507
	H3970	H	0.319857	0.564395	0.371731
	H3971	H	0.312860	0.565016	0.251216
	H3972	H	0.323688	0.564348	0.377508
	H3973	H	0.330465	0.563893	0.378244
	H3974	H	0.311700	0.564812	0.247277
	H3975	H	0.310577	0.565365	0.248987
	H3976	H	0.350535	0.143118	0.348267
	H3977	H	0.350516	0.362300	0.348225
	H3978	H	0.316383	0.064837	0.253193
	H3979	H	0.320130	0.064545	0.250702
	H3980	H	0.309050	0.064921	0.251794
	H3981	H	0.298002	0.861443	0.349292
	H3982	H	0.297704	0.644843	0.349447
	H3983	H	0.297795	0.360755	0.349359
	H3984	H	0.297983	0.144738	0.349307
	H3985	H	0.289147	0.146659	0.272814
	H3986	H	0.344311	0.144277	0.272381
	H3987	H	0.344233	0.361642	0.272373
	H3988	H	0.289219	0.362006	0.272884
	H3989	H	0.360556	0.144133	0.286860
	H3990	H	0.360457	0.361396	0.286907
	H3991	H	0.329291	0.064462	0.373882
	H3992	H	0.329617	0.064735	0.372929
	H3993	H	0.328193	0.064489	0.371882
	H3994	H	0.320129	0.941480	0.250685
	H3995	H	0.316382	0.941505	0.253220
	H3996	H	0.309050	0.941861	0.251783
	H3997	H	0.329357	0.941187	0.373891
	H3998	H	0.329659	0.941018	0.372884
	H3999	H	0.328170	0.941134	0.371825
	Zn4000	Zn	0.251483	0.680045	0.311417
	Zn4001	Zn	0.251375	0.825644	0.311459
	Zn4002	Zn	0.251427	0.180343	0.311440
	Zn4003	Zn	0.251366	0.325487	0.311498
	Zn4004	Zn	0.327743	0.680321	0.373087
	Zn4005	Zn	0.327864	0.825383	0.373083
	Zn4006	Zn	0.327859	0.180504	0.373091
	Zn4007	Zn	0.327780	0.325281	0.373064
	C4008	C	0.371471	0.753252	0.296421
	C4009	C	0.270782	0.753177	0.325314
	C4010	C	0.280712	0.753065	0.333954
	C4011	C	0.285192	0.691801	0.338110
	C4012	C	0.285343	0.814303	0.338024
	C4013	C	0.270736	0.252772	0.325363
	C4014	C	0.280661	0.252643	0.333974
	C4015	C	0.285317	0.191600	0.338056
	C4016	C	0.285220	0.313747	0.338076
	C4017	C	0.267726	0.753545	0.297378
	C4018	C	0.275651	0.753822	0.288572
	C4019	C	0.279260	0.815077	0.284398
	C4020	C	0.279206	0.692702	0.284359
	C4021	C	0.267681	0.253731	0.297393
	C4022	C	0.275596	0.254025	0.288573
	C4023	C	0.279185	0.315137	0.284405
	C4024	C	0.279145	0.193157	0.284354
	C4025	C	0.390352	0.043466	0.307793
	C4026	C	0.390309	0.962566	0.307794
	C4027	C	0.252874	0.043558	0.312832
	C4028	C	0.252848	0.962664	0.312838
	C4029	C	0.252374	0.043399	0.310029
	C4030	C	0.252384	0.962461	0.310035
	C4031	C	0.248677	0.462328	0.311271
	C4032	C	0.391446	0.462547	0.312080
	C4033	C	0.388227	0.462671	0.310321
	C4034	C	0.248708	0.543228	0.311206
	C4035	C	0.388192	0.543255	0.310318
	C4036	C	0.391437	0.543712	0.312076
	C4037	C	0.370553	0.753177	0.323004
	C4038	C	0.370531	0.252831	0.322969
	C4039	C	0.362601	0.752879	0.331900
	C4040	C	0.359267	0.690976	0.336216
	C4041	C	0.359338	0.814595	0.336294
	C4042	C	0.362526	0.252741	0.331836
	C4043	C	0.359241	0.190867	0.336210
	C4044	C	0.359185	0.314626	0.336183
	C4045	C	0.371430	0.252847	0.296393
	C4046	C	0.333460	0.753333	0.262893
	C4047	C	0.297738	0.753670	0.263097
	C4048	C	0.308711	0.753323	0.358884
	C4049	C	0.356995	0.692107	0.283660
	C4050	C	0.357007	0.814453	0.283670
	C4051	C	0.343437	0.753460	0.271511
	C4052	C	0.289870	0.753844	0.271957
	C4053	C	0.286261	0.692637	0.276100
	C4054	C	0.347984	0.692211	0.275610
	C4055	C	0.348002	0.814579	0.275619
	C4056	C	0.286316	0.815135	0.276140
	C4057	C	0.361598	0.753265	0.287749
	C4058	C	0.343429	0.752313	0.358688
	C4059	C	0.353078	0.690761	0.344828
	C4060	C	0.353141	0.814285	0.344903
	C4061	C	0.350081	0.752362	0.349320
	C4062	C	0.323469	0.462383	0.370754
	C4063	C	0.311941	0.462976	0.248344
	C4064	C	0.327308	0.462378	0.376617
	C4065	C	0.323463	0.543282	0.370767
	C4066	C	0.327290	0.542945	0.376625
	C4067	C	0.311900	0.543767	0.248357
	C4068	C	0.343387	0.252895	0.358637
	C4069	C	0.353030	0.190747	0.344817
	C4070	C	0.352998	0.314661	0.344796
	C4071	C	0.350028	0.252666	0.349263
	C4072	C	0.317096	0.043490	0.251183
	C4073	C	0.333379	0.252761	0.262856
	C4074	C	0.297762	0.254397	0.263129
	C4075	C	0.308770	0.252627	0.358848
	C4076	C	0.356968	0.191356	0.283641
	C4077	C	0.356881	0.314331	0.283669
	C4078	C	0.343341	0.252967	0.271505
	C4079	C	0.289860	0.254380	0.271961
	C4080	C	0.298832	0.753168	0.350221
	C4081	C	0.294334	0.814377	0.346079
	C4082	C	0.294178	0.691829	0.346166
	C4083	C	0.298843	0.252702	0.350211
	C4084	C	0.294215	0.313853	0.346127
	C4085	C	0.294324	0.191549	0.346101
	C4086	C	0.286275	0.193310	0.276129
	C4087	C	0.347924	0.191430	0.275604
	C4088	C	0.347842	0.314475	0.275629
	C4089	C	0.286322	0.315333	0.276178
	C4090	C	0.361525	0.252795	0.287747
	C4091	C	0.329108	0.043250	0.373300
	C4092	C	0.309737	0.043501	0.249763
	C4093	C	0.317102	0.962733	0.251188
	C4094	C	0.329125	0.962422	0.373308
	C4095	C	0.309734	0.962815	0.249748
	N4096	N	0.251420	0.070234	0.311479
	N4097	N	0.251380	0.935690	0.311467
	N4098	N	0.251440	0.435547	0.311486
	N4099	N	0.251492	0.570045	0.311431
	N4100	N	0.327885	0.435511	0.373042
	N4101	N	0.327888	0.570098	0.373055
	N4102	N	0.327937	0.070066	0.373073
	N4103	N	0.327932	0.935452	0.373071
	O4104	O	0.324415	0.694656	0.433606
	O4105	O	0.324448	0.811573	0.433581
	O4106	O	0.276110	0.694388	0.448503
	O4107	O	0.276044	0.811344	0.448495
	O4108	O	0.276119	0.194187	0.448517
	O4109	O	0.275972	0.311114	0.448487
	O4110	O	0.278326	0.695042	0.424823
	O4111	O	0.278447	0.811494	0.424887
	O4112	O	0.278311	0.194469	0.424839
	O4113	O	0.278424	0.310811	0.424854
	O4114	O	0.322074	0.694814	0.457301
	O4115	O	0.322164	0.811215	0.457328
	O4116	O	0.322045	0.194425	0.457285
	O4117	O	0.322237	0.311145	0.457332
	O4118	O	0.324325	0.194606	0.433628
	O4119	O	0.324343	0.311367	0.433652
	O4120	O	0.338514	0.694065	0.385955
	O4121	O	0.311271	0.694853	0.382188
	O4122	O	0.289220	0.694324	0.499920
	O4123	O	0.289265	0.811030	0.499986
	O4124	O	0.262062	0.694515	0.496123
	O4125	O	0.261947	0.811427	0.496124
	O4126	O	0.311341	0.811519	0.382178
	O4127	O	0.338559	0.810771	0.385967
	O4128	O	0.338568	0.194843	0.386011
	O4129	O	0.311394	0.194134	0.382212
	O4130	O	0.289210	0.194366	0.499930
	O4131	O	0.289149	0.311189	0.499904
	O4132	O	0.262024	0.193653	0.496137
	O4133	O	0.261954	0.310626	0.496145
	O4134	O	0.311365	0.310757	0.382164
	O4135	O	0.338479	0.311757	0.385983
	H4136	H	0.272178	0.643057	0.463905
	H4137	H	0.272341	0.862915	0.463909
	H4138	H	0.272322	0.142606	0.463912
	H4139	H	0.272280	0.362511	0.463916
	H4140	H	0.288226	0.862790	0.410844
	H4141	H	0.288084	0.643859	0.410819
	H4142	H	0.288117	0.362190	0.410778
	H4143	H	0.288218	0.143009	0.410856
	H4144	H	0.337426	0.064944	0.447851
	H4145	H	0.337959	0.064600	0.446173
	H4146	H	0.337995	0.941126	0.446153
	H4147	H	0.337452	0.941204	0.447850
	H4148	H	0.334186	0.064343	0.448377
	H4149	H	0.334232	0.941358	0.448445
	H4150	H	0.267272	0.064173	0.438007
	H4151	H	0.267298	0.940716	0.437997
	H4152	H	0.269221	0.064180	0.436347
	H4153	H	0.269225	0.940762	0.436303
	H4154	H	0.267464	0.064550	0.433408
	H4155	H	0.267372	0.941112	0.433411
	H4156	H	0.268537	0.441047	0.435079
	H4157	H	0.266719	0.440929	0.433696
	H4158	H	0.267295	0.440780	0.437376
	H4159	H	0.333815	0.440868	0.447281
	H4160	H	0.333458	0.441146	0.446027
	H4161	H	0.334535	0.441314	0.445490
	H4162	H	0.266771	0.564616	0.433719
	H4163	H	0.268527	0.563986	0.435071
	H4164	H	0.334589	0.564395	0.445436
	H4165	H	0.333500	0.564577	0.445990
	H4166	H	0.333897	0.564797	0.447276
	H4167	H	0.267362	0.564296	0.437412
	H4168	H	0.312096	0.643294	0.471227
	H4169	H	0.312615	0.862679	0.471451
	H4170	H	0.312449	0.143229	0.471354
	H4171	H	0.312388	0.362388	0.471299
	H4172	H	0.299181	0.643716	0.395317
	H4173	H	0.334603	0.642889	0.401377
	H4174	H	0.334828	0.862562	0.401389
	H4175	H	0.299356	0.862865	0.395322
	H4176	H	0.328072	0.643029	0.418143
	H4177	H	0.328321	0.862878	0.418169
	H4178	H	0.301126	0.643331	0.486765
	H4179	H	0.301551	0.862539	0.486970
	H4180	H	0.323797	0.441477	0.368104
	H4181	H	0.275395	0.440786	0.511476
	H4182	H	0.333163	0.440756	0.369174
	H4183	H	0.335913	0.441037	0.373426
	H4184	H	0.274316	0.440939	0.506324
	H4185	H	0.276915	0.441516	0.508280
	H4186	H	0.275364	0.564225	0.511518
	H4187	H	0.323907	0.565149	0.368140
	H4188	H	0.276864	0.564610	0.508321
	H4189	H	0.274287	0.564835	0.506349
	H4190	H	0.335927	0.564205	0.373459
	H4191	H	0.333120	0.565186	0.369225
	H4192	H	0.301361	0.143344	0.486879
	H4193	H	0.301231	0.362487	0.486808
	H4194	H	0.326226	0.064845	0.373435
	H4195	H	0.327348	0.064799	0.374205
	H4196	H	0.326705	0.064538	0.372118
	H4197	H	0.265884	0.863103	0.480694
	H4198	H	0.265698	0.643170	0.480707
	H4199	H	0.265728	0.362316	0.480699
	H4200	H	0.265791	0.142356	0.480693
	H4201	H	0.299329	0.142933	0.395332
	H4202	H	0.334739	0.143444	0.401463
	H4203	H	0.334685	0.363148	0.401437
	H4204	H	0.299218	0.362254	0.395270
	H4205	H	0.328190	0.143387	0.418223
	H4206	H	0.328116	0.362972	0.418226
	H4207	H	0.268410	0.064295	0.505895
	H4208	H	0.266458	0.064449	0.509018
	H4209	H	0.270857	0.064725	0.513001
	H4210	H	0.327242	0.941200	0.374210
	H4211	H	0.326162	0.941079	0.373445
	H4212	H	0.326751	0.941390	0.372076
	H4213	H	0.268344	0.940900	0.505892
	H4214	H	0.266377	0.940732	0.509048
	H4215	H	0.270794	0.940866	0.512987
	Zn4216	Zn	0.265440	0.679857	0.435605
	Zn4217	Zn	0.265380	0.825235	0.435614
	Zn4218	Zn	0.265391	0.180074	0.435599
	Zn4219	Zn	0.265394	0.325239	0.435587
	Zn4220	Zn	0.272643	0.680491	0.509029
	Zn4221	Zn	0.272598	0.825219	0.509039
	Zn4222	Zn	0.272731	0.180425	0.509063
	Zn4223	Zn	0.272661	0.325244	0.508982
	C4224	C	0.325000	0.753073	0.429519
	C4225	C	0.275500	0.752836	0.452569
	C4226	C	0.272783	0.752838	0.462916
	C4227	C	0.270815	0.690791	0.467661
	C4228	C	0.270922	0.815110	0.467651
	C4229	C	0.275522	0.252664	0.452581
	C4230	C	0.272823	0.252524	0.462930
	C4231	C	0.270877	0.190266	0.467657
	C4232	C	0.270840	0.314739	0.467653
	C4233	C	0.281042	0.753295	0.421231
	C4234	C	0.287641	0.753340	0.411838
	C4235	C	0.290609	0.815224	0.407363
	C4236	C	0.290563	0.691373	0.407365
	C4237	C	0.280995	0.252597	0.421217
	C4238	C	0.287559	0.252605	0.411811
	C4239	C	0.290570	0.314489	0.407331
	C4240	C	0.290616	0.190657	0.407377
	C4241	C	0.336931	0.043463	0.446904
	C4242	C	0.336996	0.962399	0.446882
	C4243	C	0.267506	0.042950	0.436763
	C4244	C	0.267534	0.962041	0.436742
	C4245	C	0.265693	0.043216	0.433867
	C4246	C	0.265666	0.962373	0.433862
	C4247	C	0.267099	0.462223	0.434706
	C4248	C	0.334638	0.462538	0.447223
	C4249	C	0.334242	0.462532	0.445942
	C4250	C	0.267128	0.542947	0.434706
	C4251	C	0.334244	0.543129	0.445930
	C4252	C	0.334632	0.543579	0.447217
	C4253	C	0.319528	0.753023	0.460957
	C4254	C	0.319528	0.252795	0.460931
	C4255	C	0.313009	0.753075	0.470354
	C4256	C	0.309871	0.691126	0.474743
	C4257	C	0.310140	0.815047	0.474870
	C4258	C	0.312937	0.252821	0.470320
	C4259	C	0.310002	0.190866	0.474804
	C4260	C	0.309965	0.314803	0.474773
	C4261	C	0.324924	0.253046	0.429555
	C4262	C	0.337943	0.752458	0.390050
	C4263	C	0.307893	0.753248	0.385459
	C4264	C	0.262551	0.752996	0.492039
	C4265	C	0.329538	0.690757	0.414421
	C4266	C	0.329658	0.815084	0.414431
	C4267	C	0.335222	0.752721	0.400380
	C4268	C	0.299943	0.753320	0.394340
	C4269	C	0.296673	0.691409	0.398730
	C4270	C	0.333220	0.690618	0.405114
	C4271	C	0.333335	0.814955	0.405120
	C4272	C	0.296730	0.815225	0.398724
	C4273	C	0.327677	0.752997	0.419176
	C4274	C	0.292713	0.752751	0.496700
	C4275	C	0.303762	0.690995	0.483381
	C4276	C	0.304014	0.814952	0.483503
	C4277	C	0.300671	0.752905	0.487823
	C4278	C	0.273296	0.462205	0.510998
	C4279	C	0.332797	0.462379	0.371759
	C4280	C	0.274792	0.462475	0.507745
	C4281	C	0.273260	0.543239	0.510989
	C4282	C	0.274807	0.543326	0.507757
	C4283	C	0.332777	0.543485	0.371792
	C4284	C	0.292629	0.252809	0.496669
	C4285	C	0.303837	0.190903	0.483424
	C4286	C	0.303808	0.314842	0.483401
	C4287	C	0.300580	0.252900	0.487781
	C4288	C	0.327110	0.043462	0.373633
	C4289	C	0.337991	0.253337	0.390075
	C4290	C	0.307912	0.252518	0.385457
	C4291	C	0.262540	0.252160	0.492065
	C4292	C	0.329621	0.191133	0.414479
	C4293	C	0.329584	0.315389	0.414478
	C4294	C	0.335304	0.253316	0.400426
	C4295	C	0.299952	0.252577	0.394343
	C4296	C	0.265233	0.753076	0.481698
	C4297	C	0.267216	0.815205	0.476954
	C4298	C	0.267118	0.690807	0.476963
	C4299	C	0.265228	0.252291	0.481714
	C4300	C	0.267155	0.314577	0.476962
	C4301	C	0.267185	0.190156	0.476962
	C4302	C	0.296742	0.190644	0.398742
	C4303	C	0.333344	0.191179	0.405184
	C4304	C	0.333312	0.315371	0.405174
	C4305	C	0.296683	0.314575	0.398695
	C4306	C	0.327659	0.253221	0.419219
	C4307	C	0.268766	0.043228	0.507879
	C4308	C	0.327615	0.043183	0.372271
	C4309	C	0.327078	0.962399	0.373628
	C4310	C	0.268728	0.962249	0.507893
	C4311	C	0.327598	0.962551	0.372255
	N4312	N	0.265412	0.069955	0.435627
	N4313	N	0.265415	0.935421	0.435638
	N4314	N	0.265501	0.435293	0.435590
	N4315	N	0.265524	0.569821	0.435615
	N4316	N	0.272575	0.435491	0.509043
	N4317	N	0.272575	0.570175	0.509028
	N4318	N	0.272604	0.070091	0.509071
	N4319	N	0.272546	0.935397	0.509089
	O4320	O	0.335647	0.694977	0.558992
	O4321	O	0.335781	0.811012	0.558903
	O4322	O	0.225598	0.694718	0.582365
	O4323	O	0.225569	0.811033	0.582387
	O4324	O	0.225611	0.194566	0.582422
	O4325	O	0.225648	0.310745	0.582383
	O4326	O	0.226754	0.694628	0.562488
	O4327	O	0.226731	0.811214	0.562485
	O4328	O	0.226720	0.194198	0.562425
	O4329	O	0.226742	0.310996	0.562428
	O4330	O	0.338976	0.694671	0.580201
	O4331	O	0.339028	0.810602	0.580208
	O4332	O	0.339014	0.194903	0.580253
	O4333	O	0.339153	0.311329	0.580313
	O4334	O	0.335632	0.195143	0.558966
	O4335	O	0.335667	0.311276	0.558999
	O4336	O	0.287931	0.694761	0.519892
	O4337	O	0.259939	0.694820	0.519943
	O4338	O	0.301974	0.694688	0.620922
	O4339	O	0.301966	0.810783	0.620863
	O4340	O	0.273253	0.694527	0.621510
	O4341	O	0.273260	0.810679	0.621469
	O4342	O	0.259773	0.811192	0.519906
	O4343	O	0.288005	0.810948	0.519835
	O4344	O	0.288063	0.195177	0.519839
	O4345	O	0.259720	0.194490	0.519823
	O4346	O	0.301816	0.194865	0.620857
	O4347	O	0.301901	0.311144	0.620891
	O4348	O	0.273202	0.194647	0.621591
	O4349	O	0.273223	0.310775	0.621593
	O4350	O	0.259886	0.310992	0.519898
	O4351	O	0.287987	0.311600	0.519883
	H4352	H	0.240983	0.644471	0.594856
	H4353	H	0.240811	0.861002	0.594917
	H4354	H	0.241048	0.144633	0.594879
	H4355	H	0.241218	0.361085	0.594787
	H4356	H	0.238796	0.862433	0.549392
	H4357	H	0.238893	0.643544	0.549429
	H4358	H	0.238820	0.361990	0.549356
	H4359	H	0.238601	0.142678	0.549275
	H4360	H	0.349453	0.064698	0.571032
	H4361	H	0.352326	0.064251	0.571553
	H4362	H	0.352354	0.940763	0.571613
	H4363	H	0.349491	0.941109	0.571048
	H4364	H	0.348179	0.064594	0.568381
	H4365	H	0.348260	0.941172	0.568420
	H4366	H	0.204155	0.065052	0.573920
	H4367	H	0.204118	0.941382	0.573934
	H4368	H	0.209204	0.064423	0.576316
	H4369	H	0.209192	0.941429	0.576303
	H4370	H	0.216595	0.064457	0.574140
	H4371	H	0.216534	0.941201	0.574115
	H4372	H	0.206200	0.441102	0.573337
	H4373	H	0.209782	0.441444	0.574894
	H4374	H	0.206136	0.441107	0.569483
	H4375	H	0.348304	0.441906	0.569160
	H4376	H	0.350504	0.441240	0.567126
	H4377	H	0.353178	0.440972	0.567398
	H4378	H	0.209799	0.564479	0.574877
	H4379	H	0.206168	0.564711	0.573393
	H4380	H	0.353249	0.564829	0.567418
	H4381	H	0.350495	0.565019	0.567127
	H4382	H	0.348420	0.564767	0.569176
	H4383	H	0.206111	0.564873	0.569484
	H4384	H	0.327186	0.644121	0.593285
	H4385	H	0.327112	0.860671	0.593179
	H4386	H	0.327272	0.144470	0.593308
	H4387	H	0.327203	0.361642	0.593281
	H4388	H	0.250131	0.643323	0.533958
	H4389	H	0.303262	0.644679	0.532372
	H4390	H	0.303374	0.861310	0.532320
	H4391	H	0.250045	0.862429	0.533911
	H4392	H	0.320299	0.645019	0.546502
	H4393	H	0.320343	0.861331	0.546436
	H4394	H	0.314021	0.644547	0.608021
	H4395	H	0.313925	0.860460	0.607882
	H4396	H	0.271755	0.441069	0.511959
	H4397	H	0.286145	0.441131	0.629436
	H4398	H	0.268162	0.441615	0.509269
	H4399	H	0.269251	0.441051	0.506930
	H4400	H	0.287693	0.441067	0.634569
	H4401	H	0.284943	0.441299	0.632737
	H4402	H	0.286046	0.564706	0.629423
	H4403	H	0.271687	0.564019	0.511927
	H4404	H	0.284868	0.564505	0.632764
	H4405	H	0.287663	0.564708	0.634601
	H4406	H	0.269283	0.564739	0.506897
	H4407	H	0.268141	0.564280	0.509242
	H4408	H	0.313932	0.144260	0.607933
	H4409	H	0.313870	0.361741	0.607929
	H4410	H	0.278688	0.064671	0.508413
	H4411	H	0.275485	0.064586	0.505523
	H4412	H	0.275979	0.064657	0.512669
	H4413	H	0.257792	0.861100	0.609037
	H4414	H	0.257986	0.644231	0.608966
	H4415	H	0.258107	0.360954	0.608942
	H4416	H	0.257967	0.144640	0.609003
	H4417	H	0.249860	0.142871	0.533815
	H4418	H	0.303499	0.144727	0.532287
	H4419	H	0.303214	0.362185	0.532422
	H4420	H	0.250063	0.362140	0.533877
	H4421	H	0.320467	0.144805	0.546417
	H4422	H	0.320179	0.362292	0.546544
	H4423	H	0.288367	0.064756	0.633193
	H4424	H	0.290212	0.064405	0.633149
	H4425	H	0.291332	0.065126	0.631608
	H4426	H	0.275463	0.941085	0.505527
	H4427	H	0.278637	0.941222	0.508424
	H4428	H	0.276020	0.941245	0.512712
	H4429	H	0.288362	0.941042	0.633173
	H4430	H	0.290245	0.941725	0.633107
	H4431	H	0.291316	0.941443	0.631587
	Zn4432	Zn	0.210216	0.680277	0.571585
	Zn4433	Zn	0.210202	0.825229	0.571608
	Zn4434	Zn	0.210288	0.180478	0.571604
	Zn4435	Zn	0.210313	0.325244	0.571587
	Zn4436	Zn	0.289122	0.680246	0.631818
	Zn4437	Zn	0.289118	0.825625	0.631760
	Zn4438	Zn	0.289105	0.180273	0.631878
	Zn4439	Zn	0.289121	0.325686	0.631822
	C4440	C	0.331653	0.752971	0.555736
	C4441	C	0.229630	0.752859	0.585596
	C4442	C	0.239909	0.752742	0.594039
	C4443	C	0.244728	0.691443	0.598017
	C4444	C	0.244634	0.813992	0.598050
	C4445	C	0.229688	0.252740	0.585615
	C4446	C	0.240019	0.252946	0.594054
	C4447	C	0.244791	0.191661	0.598037
	C4448	C	0.244883	0.314163	0.597994
	C4449	C	0.230245	0.752926	0.559238
	C4450	C	0.238250	0.752951	0.550380
	C4451	C	0.241436	0.814853	0.545987
	C4452	C	0.241493	0.691097	0.546009
	C4453	C	0.230165	0.252592	0.559165
	C4454	C	0.238116	0.252486	0.550281
	C4455	C	0.241378	0.314421	0.545924
	C4456	C	0.241293	0.190429	0.545892
	C4457	C	0.351047	0.043147	0.570770
	C4458	C	0.351065	0.962349	0.570774
	C4459	C	0.207559	0.043440	0.574212
	C4460	C	0.207556	0.962681	0.574199
	C4461	C	0.214967	0.043177	0.571975
	C4462	C	0.214945	0.962395	0.571972
	C4463	C	0.208551	0.462428	0.573444
	C4464	C	0.349627	0.462790	0.569808
	C4465	C	0.351776	0.462371	0.567774
	C4466	C	0.208525	0.543340	0.573466
	C4467	C	0.351795	0.543517	0.567791
	C4468	C	0.349634	0.543374	0.569803
	C4469	C	0.335902	0.752600	0.583587
	C4470	C	0.335951	0.253114	0.583651
	C4471	C	0.327870	0.752361	0.592350
	C4472	C	0.324224	0.691107	0.596539
	C4473	C	0.324173	0.813659	0.596454
	C4474	C	0.327907	0.253115	0.592421
	C4475	C	0.324239	0.191476	0.596556
	C4476	C	0.324203	0.314619	0.596549
	C4477	C	0.331622	0.253321	0.555756
	C4478	C	0.292014	0.752875	0.523086
	C4479	C	0.257270	0.752969	0.523565
	C4480	C	0.269212	0.752534	0.618274
	C4481	C	0.316479	0.691844	0.543358
	C4482	C	0.316506	0.814249	0.543320
	C4483	C	0.302274	0.752890	0.531529
	C4484	C	0.250664	0.752905	0.532935
	C4485	C	0.247679	0.691052	0.537400
	C4486	C	0.307064	0.691746	0.535527
	C4487	C	0.307099	0.814274	0.535484
	C4488	C	0.247618	0.814811	0.537377
	C4489	C	0.321262	0.753040	0.547337
	C4490	C	0.305140	0.752634	0.617555
	C4491	C	0.316932	0.691259	0.604702
	C4492	C	0.316882	0.813614	0.604613
	C4493	C	0.313203	0.752474	0.608795
	C4494	C	0.288225	0.462598	0.629830
	C4495	C	0.269714	0.462595	0.508324
	C4496	C	0.287016	0.462604	0.633168
	C4497	C	0.288216	0.543451	0.629831
	C4498	C	0.287022	0.543435	0.633188
	C4499	C	0.269727	0.543220	0.508312
	C4500	C	0.305056	0.252990	0.617551
	C4501	C	0.316909	0.191515	0.604694
	C4502	C	0.316875	0.314491	0.604688
	C4503	C	0.313170	0.252997	0.608831
	C4504	C	0.275899	0.043239	0.507517
	C4505	C	0.292059	0.253407	0.523081
	C4506	C	0.257172	0.252710	0.523484
	C4507	C	0.269215	0.252717	0.618355
	C4508	C	0.316580	0.192030	0.543320
	C4509	C	0.316424	0.315041	0.543401
	C4510	C	0.302345	0.253431	0.531523
	C4511	C	0.250495	0.252597	0.532832
	C4512	C	0.258841	0.752585	0.609869
	C4513	C	0.254037	0.813992	0.605886
	C4514	C	0.254126	0.691266	0.605861
	C4515	C	0.258887	0.252844	0.609923
	C4516	C	0.254249	0.314085	0.605853
	C4517	C	0.254162	0.191627	0.605897
	C4518	C	0.247449	0.190538	0.537269
	C4519	C	0.307185	0.191927	0.535478
	C4520	C	0.307035	0.314988	0.535554
	C4521	C	0.247562	0.314435	0.537313
	C4522	C	0.321246	0.253544	0.547367
	C4523	C	0.289228	0.043364	0.632820
	C4524	C	0.273180	0.043173	0.511850
	C4525	C	0.275877	0.962415	0.507523
	C4526	C	0.289223	0.962563	0.632795
	C4527	C	0.273151	0.962379	0.511857
	N4528	N	0.210167	0.070248	0.571627
	N4529	N	0.210149	0.935616	0.571615
	N4530	N	0.210205	0.435545	0.571573
	N4531	N	0.210198	0.570151	0.571584
	N4532	N	0.289089	0.435709	0.631766
	N4533	N	0.289079	0.570235	0.631784
	N4534	N	0.289094	0.070136	0.631833
	N4535	N	0.289103	0.935599	0.631790
	O4536	O	0.359651	0.694831	0.676989
	O4537	O	0.359595	0.811137	0.676999
	O4538	O	0.243335	0.694388	0.704073
	O4539	O	0.243197	0.810364	0.704187
	O4540	O	0.243393	0.195095	0.704050
	O4541	O	0.243386	0.310971	0.704081
	O4542	O	0.239576	0.694826	0.683466
	O4543	O	0.239462	0.810756	0.683370
	O4544	O	0.239422	0.195254	0.683379
	O4545	O	0.239487	0.311455	0.683455
	O4546	O	0.363838	0.694927	0.697667
	O4547	O	0.363937	0.810833	0.697734
	O4548	O	0.364048	0.194897	0.697760
	O4549	O	0.363947	0.310926	0.697712
	O4550	O	0.359640	0.195182	0.677047
	O4551	O	0.359501	0.311324	0.677046
	O4552	O	0.305739	0.694918	0.641559
	O4553	O	0.276524	0.694909	0.642728
	O4554	O	0.326313	0.694293	0.738143
	O4555	O	0.326291	0.810142	0.738156
	O4556	O	0.297312	0.694422	0.739471
	O4557	O	0.297226	0.810588	0.739511
	O4558	O	0.276592	0.810892	0.642736
	O4559	O	0.305712	0.811097	0.641595
	O4560	O	0.305775	0.194710	0.641516
	O4561	O	0.276571	0.195328	0.642770
	O4562	O	0.326347	0.194778	0.738137
	O4563	O	0.326105	0.310804	0.738024
	O4564	O	0.297196	0.194586	0.739515
	O4565	O	0.297263	0.310559	0.739446
	O4566	O	0.276650	0.311218	0.642762
	O4567	O	0.305794	0.310737	0.641493
	H4568	H	0.260654	0.643782	0.715484
	H4569	H	0.260535	0.860919	0.715489
	H4570	H	0.260720	0.145028	0.715329
	H4571	H	0.260578	0.361142	0.715478
	H4572	H	0.251630	0.860898	0.670492
	H4573	H	0.251646	0.644760	0.670522
	H4574	H	0.251495	0.361810	0.670482
	H4575	H	0.251444	0.145225	0.670446
	H4576	H	0.377502	0.064404	0.686109
	H4577	H	0.376442	0.064317	0.685701
	H4578	H	0.376401	0.941152	0.685741
	H4579	H	0.377426	0.941058	0.686132
	H4580	H	0.377624	0.064425	0.687176
	H4581	H	0.377623	0.941105	0.687149
	H4582	H	0.227433	0.064473	0.696256
	H4583	H	0.227367	0.941356	0.696241
	H4584	H	0.229306	0.064272	0.695310
	H4585	H	0.229329	0.941579	0.695348
	H4586	H	0.228877	0.064769	0.693090
	H4587	H	0.228930	0.941367	0.693158
	H4588	H	0.224259	0.441344	0.694150
	H4589	H	0.224992	0.441190	0.695425
	H4590	H	0.226035	0.441397	0.692800
	H4591	H	0.376027	0.441712	0.685795
	H4592	H	0.377518	0.441512	0.686199
	H4593	H	0.377640	0.441053	0.686972
	H4594	H	0.224968	0.564547	0.695393
	H4595	H	0.224323	0.565003	0.694126
	H4596	H	0.377635	0.564771	0.686949
	H4597	H	0.377460	0.564673	0.686225
	H4598	H	0.376038	0.564711	0.685809
	H4599	H	0.225986	0.564466	0.692797
	H4600	H	0.351765	0.644984	0.710557
	H4601	H	0.351748	0.860475	0.710633
	H4602	H	0.351777	0.144258	0.710579
	H4603	H	0.351771	0.361203	0.710615
	H4604	H	0.264788	0.644822	0.655767
	H4605	H	0.323079	0.644372	0.652872
	H4606	H	0.323084	0.861598	0.652901
	H4607	H	0.264784	0.860908	0.655778
	H4608	H	0.342310	0.644148	0.665675
	H4609	H	0.342308	0.861885	0.665680
	H4610	H	0.338444	0.644609	0.725190
	H4611	H	0.338363	0.860058	0.725271
	H4612	H	0.289721	0.441484	0.628857
	H4613	H	0.310277	0.441487	0.747880
	H4614	H	0.293523	0.441548	0.631316
	H4615	H	0.292648	0.441301	0.633778
	H4616	H	0.314200	0.440833	0.751862
	H4617	H	0.311064	0.441047	0.750950
	H4618	H	0.310296	0.564365	0.747856
	H4619	H	0.289737	0.564431	0.628818
	H4620	H	0.311021	0.564157	0.750988
	H4621	H	0.314284	0.564832	0.751906
	H4622	H	0.292689	0.565029	0.633808
	H4623	H	0.293555	0.564494	0.631332
	H4624	H	0.338237	0.144285	0.725136
	H4625	H	0.338238	0.361003	0.725171
	H4626	H	0.287570	0.064238	0.630599
	H4627	H	0.286866	0.064612	0.631765
	H4628	H	0.290174	0.064920	0.630534
	H4629	H	0.279866	0.861021	0.728225
	H4630	H	0.279957	0.643793	0.728214
	H4631	H	0.279826	0.360782	0.728266
	H4632	H	0.279991	0.144722	0.728092
	H4633	H	0.264658	0.145340	0.655732
	H4634	H	0.323213	0.144457	0.652801
	H4635	H	0.322967	0.361210	0.652907
	H4636	H	0.264728	0.361926	0.655791
	H4637	H	0.342400	0.144506	0.665628
	H4638	H	0.342154	0.361511	0.665731
	H4639	H	0.315181	0.064524	0.748899
	H4640	H	0.314348	0.063989	0.748380
	H4641	H	0.312879	0.064037	0.748627
	H4642	H	0.286798	0.941130	0.631716
	H4643	H	0.287573	0.941368	0.630572
	H4644	H	0.290169	0.941284	0.630511
	H4645	H	0.315118	0.941045	0.748905
	H4646	H	0.314307	0.941093	0.748378
	H4647	H	0.312917	0.940872	0.748622
	Zn4648	Zn	0.226662	0.680052	0.694301
	Zn4649	Zn	0.226734	0.825706	0.694325
	Zn4650	Zn	0.226777	0.180016	0.694366
	Zn4651	Zn	0.226717	0.325792	0.694402
	Zn4652	Zn	0.313927	0.679866	0.749227
	Zn4653	Zn	0.313921	0.825410	0.749198
	Zn4654	Zn	0.313928	0.179787	0.749196
	Zn4655	Zn	0.313883	0.325562	0.749200
	C4656	C	0.355068	0.752946	0.674103
	C4657	C	0.247769	0.752363	0.707074
	C4658	C	0.259419	0.752402	0.714702
	C4659	C	0.264927	0.691021	0.718311
	C4660	C	0.264861	0.813771	0.718307
	C4661	C	0.247886	0.253026	0.706999
	C4662	C	0.259537	0.253031	0.714616
	C4663	C	0.264976	0.191831	0.718193
	C4664	C	0.264900	0.314128	0.718277
	C4665	C	0.242714	0.752726	0.680076
	C4666	C	0.250820	0.752757	0.671344
	C4667	C	0.254551	0.813911	0.667207
	C4668	C	0.254548	0.691600	0.667224
	C4669	C	0.242623	0.253475	0.680075
	C4670	C	0.250662	0.253567	0.671311
	C4671	C	0.254402	0.314841	0.667186
	C4672	C	0.254375	0.192288	0.667165
	C4673	C	0.376808	0.043199	0.686109
	C4674	C	0.376773	0.962543	0.686107
	C4675	C	0.227956	0.043141	0.695413
	C4676	C	0.227933	0.962683	0.695410
	C4677	C	0.227501	0.043432	0.693186
	C4678	C	0.227513	0.962462	0.693189
	C4679	C	0.225173	0.462358	0.694669
	C4680	C	0.375814	0.462630	0.686195
	C4681	C	0.377250	0.462398	0.686602
	C4682	C	0.225148	0.543373	0.694655
	C4683	C	0.377281	0.543215	0.686631
	C4684	C	0.375814	0.543315	0.686212
	C4685	C	0.360678	0.752881	0.701022
	C4686	C	0.360795	0.252923	0.701066
	C4687	C	0.352496	0.752776	0.709729
	C4688	C	0.348782	0.691578	0.713834
	C4689	C	0.348771	0.813718	0.713875
	C4690	C	0.352629	0.252778	0.709779
	C4691	C	0.348807	0.191264	0.713850
	C4692	C	0.348819	0.314194	0.713872
	C4693	C	0.355032	0.253117	0.674125
	C4694	C	0.310204	0.753014	0.644535
	C4695	C	0.273441	0.752953	0.646099
	C4696	C	0.292708	0.752515	0.736598
	C4697	C	0.338035	0.691409	0.662822
	C4698	C	0.338050	0.814559	0.662825
	C4699	C	0.321890	0.753048	0.652151
	C4700	C	0.265464	0.752865	0.654891
	C4701	C	0.261827	0.691641	0.659055
	C4702	C	0.327370	0.691535	0.655722
	C4703	C	0.327377	0.814496	0.655731
	C4704	C	0.261835	0.814079	0.659050
	C4705	C	0.343419	0.753007	0.666469
	C4706	C	0.329453	0.752259	0.734800
	C4707	C	0.341388	0.691401	0.721950
	C4708	C	0.341354	0.813506	0.721982
	C4709	C	0.337599	0.752390	0.726066
	C4710	C	0.312187	0.462267	0.747719
	C4711	C	0.292039	0.462402	0.632355
	C4712	C	0.312963	0.462225	0.750845
	C4713	C	0.312198	0.543179	0.747719
	C4714	C	0.312967	0.543283	0.750851
	C4715	C	0.292049	0.543214	0.632371
	C4716	C	0.329390	0.252729	0.734747
	C4717	C	0.341316	0.191231	0.721922
	C4718	C	0.341327	0.314041	0.721946
	C4719	C	0.337582	0.252613	0.726052
	C4720	C	0.287699	0.043136	0.631347
	C4721	C	0.310298	0.252730	0.644433
	C4722	C	0.273453	0.253366	0.646123
	C4723	C	0.292695	0.252563	0.736560
	C4724	C	0.338041	0.191629	0.662812
	C4725	C	0.337893	0.314317	0.662878
	C4726	C	0.321881	0.252858	0.652104
	C4727	C	0.265382	0.253575	0.654879
	C4728	C	0.281031	0.752521	0.728977
	C4729	C	0.275568	0.813828	0.725378
	C4730	C	0.275634	0.691015	0.725382
	C4731	C	0.281054	0.252679	0.728929
	C4732	C	0.275604	0.313973	0.725349
	C4733	C	0.275670	0.191616	0.725269
	C4734	C	0.261689	0.192255	0.659011
	C4735	C	0.327402	0.191644	0.655689
	C4736	C	0.327268	0.314178	0.655749
	C4737	C	0.261729	0.314868	0.659040
	C4738	C	0.343362	0.253002	0.666487
	C4739	C	0.314529	0.042941	0.748777
	C4740	C	0.290321	0.043766	0.631267
	C4741	C	0.287685	0.962470	0.631326
	C4742	C	0.314538	0.962304	0.748800
	C4743	C	0.290301	0.962607	0.631242
	N4744	N	0.226776	0.070049	0.694336
	N4745	N	0.226787	0.935570	0.694335
	N4746	N	0.226638	0.435713	0.694352
	N4747	N	0.226615	0.570169	0.694337
	N4748	N	0.313904	0.435479	0.749172
	N4749	N	0.313934	0.569928	0.749188
	N4750	N	0.313954	0.069830	0.749175
	N4751	N	0.313959	0.935291	0.749199
	O4752	O	0.384520	0.694786	0.794281
	O4753	O	0.384532	0.810626	0.794290
	O4754	O	0.268095	0.694483	0.821310
	O4755	O	0.268098	0.810358	0.821299
	O4756	O	0.268018	0.194811	0.821352
	O4757	O	0.268134	0.310775	0.821326
	O4758	O	0.263659	0.694598	0.800525
	O4759	O	0.263832	0.810688	0.800628
	O4760	O	0.263782	0.194963	0.800594
	O4761	O	0.263741	0.311061	0.800591
	O4762	O	0.388308	0.694443	0.814997
	O4763	O	0.388175	0.810615	0.814975
	O4764	O	0.388255	0.194424	0.814924
	O4765	O	0.388242	0.310652	0.814892
	O4766	O	0.384505	0.195094	0.794245
	O4767	O	0.384352	0.311222	0.794278
	O4768	O	0.330644	0.694685	0.758858
	O4769	O	0.301505	0.694555	0.760260
	O4770	O	0.351125	0.694674	0.855592
	O4771	O	0.351187	0.810468	0.855692
	O4772	O	0.322032	0.694486	0.856682
	O4773	O	0.321965	0.810212	0.856726
	O4774	O	0.301571	0.810732	0.760279
	O4775	O	0.330719	0.810733	0.758803
	O4776	O	0.330708	0.195041	0.758766
	O4777	O	0.301421	0.194832	0.760213
	O4778	O	0.351171	0.194202	0.855629
	O4779	O	0.351121	0.310396	0.855564
	O4780	O	0.321922	0.194504	0.856739
	O4781	O	0.322055	0.310525	0.856752
	O4782	O	0.301508	0.311030	0.760269
	O4783	O	0.330568	0.311234	0.758876
	H4784	H	0.285479	0.644549	0.832598
	H4785	H	0.285408	0.860150	0.832585
	H4786	H	0.285381	0.144325	0.832660
	H4787	H	0.285567	0.361082	0.832620
	H4788	H	0.276007	0.860897	0.787797
	H4789	H	0.275799	0.644868	0.787674
	H4790	H	0.275785	0.361483	0.787649
	H4791	H	0.275912	0.144703	0.787713
	H4792	H	0.398969	0.064487	0.803222
	H4793	H	0.398844	0.064802	0.804509
	H4794	H	0.398939	0.940958	0.804570
	H4795	H	0.399007	0.941030	0.803256
	H4796	H	0.401322	0.064251	0.802511
	H4797	H	0.401273	0.941193	0.802591
	H4798	H	0.251224	0.065015	0.815280
	H4799	H	0.251160	0.940932	0.815263
	H4800	H	0.255410	0.064515	0.814254
	H4801	H	0.255390	0.941536	0.814325
	H4802	H	0.256185	0.064306	0.810148
	H4803	H	0.256294	0.941396	0.810194
	H4804	H	0.248374	0.441152	0.811127
	H4805	H	0.248931	0.440745	0.812802
	H4806	H	0.250934	0.441483	0.809654
	H4807	H	0.405540	0.441141	0.803807
	H4808	H	0.403181	0.441013	0.806762
	H4809	H	0.399319	0.441224	0.806753
	H4810	H	0.248991	0.564335	0.812785
	H4811	H	0.248444	0.564370	0.811098
	H4812	H	0.399304	0.564205	0.806780
	H4813	H	0.403111	0.564173	0.806831
	H4814	H	0.405549	0.564703	0.803816
	H4815	H	0.250957	0.564704	0.809655
	H4816	H	0.376284	0.644332	0.827897
	H4817	H	0.376120	0.860525	0.827915
	H4818	H	0.376355	0.143943	0.827956
	H4819	H	0.376277	0.360746	0.827834
	H4820	H	0.289292	0.644773	0.773116
	H4821	H	0.347982	0.644401	0.770159
	H4822	H	0.348051	0.861291	0.770183
	H4823	H	0.289560	0.860842	0.773214
	H4824	H	0.367204	0.644432	0.782965
	H4825	H	0.367250	0.861077	0.782956
	H4826	H	0.363091	0.644210	0.842603
	H4827	H	0.362955	0.860279	0.842638
	H4828	H	0.312880	0.440744	0.746507
	H4829	H	0.334764	0.440587	0.867137
	H4830	H	0.317260	0.440855	0.747782
	H4831	H	0.317841	0.441143	0.750033
	H4832	H	0.341304	0.441596	0.868435
	H4833	H	0.338263	0.441013	0.869137
	H4834	H	0.334772	0.564385	0.867090
	H4835	H	0.312904	0.564710	0.746535
	H4836	H	0.338245	0.564706	0.869063
	H4837	H	0.341334	0.564511	0.868433
	H4838	H	0.317896	0.564213	0.750049
	H4839	H	0.317269	0.564088	0.747742
	H4840	H	0.363175	0.144155	0.842658
	H4841	H	0.363090	0.360759	0.842544
	H4842	H	0.313766	0.064321	0.750034
	H4843	H	0.314874	0.064889	0.749844
	H4844	H	0.312655	0.063968	0.749294
	H4845	H	0.304660	0.860270	0.845384
	H4846	H	0.304689	0.644492	0.845362
	H4847	H	0.304833	0.360724	0.845369
	H4848	H	0.304663	0.144474	0.845402
	H4849	H	0.289421	0.144537	0.773126
	H4850	H	0.347972	0.144525	0.770173
	H4851	H	0.348029	0.361658	0.770094
	H4852	H	0.289303	0.361052	0.773092
	H4853	H	0.367116	0.144407	0.782965
	H4854	H	0.367183	0.361785	0.782886
	H4855	H	0.336217	0.064679	0.867385
	H4856	H	0.338093	0.064281	0.868316
	H4857	H	0.340929	0.064701	0.867505
	H4858	H	0.314802	0.940775	0.749902
	H4859	H	0.313819	0.940490	0.750067
	H4860	H	0.312627	0.940863	0.749357
	H4861	H	0.336189	0.941658	0.867402
	H4862	H	0.338129	0.941334	0.868336
	H4863	H	0.340938	0.941000	0.867514
	Zn4864	Zn	0.251349	0.680010	0.811623
	Zn4865	Zn	0.251391	0.825477	0.811664
	Zn4866	Zn	0.251396	0.179886	0.811688
	Zn4867	Zn	0.251346	0.325586	0.811679
	Zn4868	Zn	0.338509	0.680079	0.866519
	Zn4869	Zn	0.338551	0.825528	0.866544
	Zn4870	Zn	0.338537	0.180227	0.866525
	Zn4871	Zn	0.338571	0.325593	0.866516
	C4872	C	0.380001	0.752707	0.791369
	C4873	C	0.272614	0.752434	0.824244
	C4874	C	0.284300	0.752424	0.831852
	C4875	C	0.289778	0.691392	0.835438
	C4876	C	0.289738	0.813395	0.835436
	C4877	C	0.272604	0.252738	0.824274
	C4878	C	0.284249	0.252718	0.831911
	C4879	C	0.289665	0.191379	0.835508
	C4880	C	0.289778	0.313943	0.835504
	C4881	C	0.266946	0.752701	0.797267
	C4882	C	0.275165	0.752911	0.788576
	C4883	C	0.279006	0.814111	0.784520
	C4884	C	0.278876	0.691705	0.784458
	C4885	C	0.266976	0.253040	0.797278
	C4886	C	0.275218	0.252981	0.788603
	C4887	C	0.278890	0.314355	0.784458
	C4888	C	0.278978	0.191559	0.784488
	C4889	C	0.399482	0.043161	0.803900
	C4890	C	0.399513	0.962239	0.803944
	C4891	C	0.252814	0.043301	0.813951
	C4892	C	0.252800	0.962307	0.813953
	C4893	C	0.253623	0.043053	0.809827
	C4894	C	0.253638	0.962171	0.809833
	C4895	C	0.249365	0.462285	0.811887
	C4896	C	0.403614	0.462481	0.803012
	C4897	C	0.401194	0.462404	0.806034
	C4898	C	0.249416	0.543034	0.811873
	C4899	C	0.401180	0.542929	0.806065
	C4900	C	0.403617	0.543460	0.803050
	C4901	C	0.385051	0.752532	0.818313
	C4902	C	0.385103	0.252558	0.818255
	C4903	C	0.376965	0.752579	0.827057
	C4904	C	0.373313	0.691145	0.831179
	C4905	C	0.373217	0.813649	0.831209
	C4906	C	0.377008	0.252409	0.827003
	C4907	C	0.373355	0.190999	0.831190
	C4908	C	0.373311	0.313833	0.831114
	C4909	C	0.379924	0.253098	0.791341
	C4910	C	0.335187	0.752682	0.761776
	C4911	C	0.298376	0.752708	0.763610
	C4912	C	0.317463	0.752331	0.853782
	C4913	C	0.362956	0.691452	0.780102
	C4914	C	0.362996	0.814063	0.780099
	C4915	C	0.346869	0.752739	0.769392
	C4916	C	0.290179	0.752886	0.772309
	C4917	C	0.286312	0.691658	0.776364
	C4918	C	0.352299	0.691441	0.772997
	C4919	C	0.352338	0.814080	0.773000
	C4920	C	0.286448	0.814096	0.776423
	C4921	C	0.368403	0.752716	0.783714
	C4922	C	0.354292	0.752635	0.852271
	C4923	C	0.366018	0.691132	0.839339
	C4924	C	0.365930	0.813491	0.839363
	C4925	C	0.362300	0.752393	0.843501
	C4926	C	0.335942	0.462349	0.866175
	C4927	C	0.316589	0.462423	0.748988
	C4928	C	0.339476	0.462571	0.868201
	C4929	C	0.335924	0.543035	0.866156
	C4930	C	0.339457	0.543320	0.868173
	C4931	C	0.316593	0.543025	0.748996
	C4932	C	0.354317	0.252293	0.852252
	C4933	C	0.366071	0.191032	0.839356
	C4934	C	0.366037	0.313770	0.839284
	C4935	C	0.362373	0.252439	0.843469
	C4936	C	0.314213	0.043136	0.749758
	C4937	C	0.335178	0.253117	0.761741
	C4938	C	0.298294	0.252908	0.763568
	C4939	C	0.317456	0.252602	0.853835
	C4940	C	0.362887	0.191583	0.780106
	C4941	C	0.362921	0.314579	0.780064
	C4942	C	0.346823	0.253114	0.769373
	C4943	C	0.290171	0.252840	0.772300
	C4944	C	0.305839	0.752429	0.846151
	C4945	C	0.300390	0.813371	0.842542
	C4946	C	0.300426	0.691402	0.842532
	C4947	C	0.305805	0.252536	0.846210
	C4948	C	0.300473	0.313791	0.842581
	C4949	C	0.300361	0.191440	0.842577
	C4950	C	0.286425	0.191489	0.776396
	C4951	C	0.352222	0.191654	0.773018
	C4952	C	0.352254	0.314587	0.772978
	C4953	C	0.286328	0.314288	0.776364
	C4954	C	0.368290	0.253118	0.783716
	C4955	C	0.337527	0.043151	0.867512
	C4956	C	0.313098	0.042837	0.749035
	C4957	C	0.314229	0.962003	0.749775
	C4958	C	0.337505	0.962620	0.867527
	C4959	C	0.313089	0.962093	0.749062
	N4960	N	0.251417	0.069865	0.811681
	N4961	N	0.251429	0.935379	0.811675
	N4962	N	0.251301	0.435434	0.811653
	N4963	N	0.251305	0.569921	0.811617
	N4964	N	0.338529	0.435598	0.866517
	N4965	N	0.338496	0.570080	0.866490
	N4966	N	0.338570	0.070123	0.866537
	N4967	N	0.338553	0.935577	0.866553
	O4968	O	0.402218	0.695000	0.915881
	O4969	O	0.402245	0.811159	0.915896
	O4970	O	0.291969	0.694629	0.939319
	O4971	O	0.291955	0.810702	0.939304
	O4972	O	0.291965	0.194452	0.939329
	O4973	O	0.291896	0.310615	0.939370
	O4974	O	0.288658	0.694822	0.918153
	O4975	O	0.288547	0.810766	0.918028
	O4976	O	0.288738	0.194927	0.918120
	O4977	O	0.288588	0.310838	0.918059
	O4978	O	0.401014	0.694381	0.935783
	O4979	O	0.401007	0.811160	0.935779
	O4980	O	0.401156	0.194400	0.935845
	O4981	O	0.401086	0.311108	0.935790
	O4982	O	0.402244	0.194838	0.915847
	O4983	O	0.402286	0.311038	0.915811
	O4984	O	0.354390	0.694921	0.876815
	O4985	O	0.325719	0.694763	0.877451
	O4986	O	0.368039	0.694606	0.978398
	O4987	O	0.368035	0.810918	0.978437
	O4988	O	0.339750	0.694835	0.978389
	O4989	O	0.339785	0.811094	0.978402
	O4990	O	0.325602	0.810854	0.877423
	O4991	O	0.354501	0.810897	0.876790
	O4992	O	0.354473	0.194746	0.876789
	O4993	O	0.325809	0.195116	0.877415
	O4994	O	0.368045	0.195039	0.978422
	O4995	O	0.368051	0.311277	0.978377
	O4996	O	0.339767	0.194910	0.978335
	O4997	O	0.339811	0.311036	0.978362
	O4998	O	0.325735	0.311278	0.877468
	O4999	O	0.354394	0.310861	0.876769
	H5000	H	0.307383	0.644563	0.951810
	H5001	H	0.307321	0.861076	0.951807
	H5002	H	0.307380	0.144029	0.951780
	H5003	H	0.307378	0.361453	0.951826
	H5004	H	0.300657	0.860898	0.905139
	H5005	H	0.300455	0.644472	0.905078
	H5006	H	0.300559	0.361149	0.905113
	H5007	H	0.300588	0.144761	0.905050
	H5008	H	0.413164	0.064606	0.926992
	H5009	H	0.415267	0.064337	0.929221
	H5010	H	0.415272	0.941059	0.929228
	H5011	H	0.413156	0.940703	0.927057
	H5012	H	0.415395	0.064615	0.924024
	H5013	H	0.415458	0.941033	0.924039
	H5014	H	0.273926	0.064792	0.926502
	H5015	H	0.273848	0.941369	0.926461
	H5016	H	0.271908	0.064797	0.928404
	H5017	H	0.271908	0.941632	0.928392
	H5018	H	0.274052	0.064105	0.931425
	H5019	H	0.274083	0.940868	0.931411
	H5020	H	0.276998	0.441178	0.927916
	H5021	H	0.275395	0.441071	0.927828
	H5022	H	0.278006	0.441017	0.929271
	H5023	H	0.415224	0.441339	0.924984
	H5024	H	0.418845	0.441162	0.924631
	H5025	H	0.420802	0.440828	0.926070
	H5026	H	0.275317	0.564755	0.927805
	H5027	H	0.277016	0.564054	0.927918
	H5028	H	0.420724	0.564618	0.926045
	H5029	H	0.418868	0.564530	0.924700
	H5030	H	0.415015	0.564572	0.925009
	H5031	H	0.277921	0.564205	0.929271
	H5032	H	0.388855	0.643246	0.948853
	H5033	H	0.388923	0.862575	0.948885
	H5034	H	0.389140	0.143064	0.948979
	H5035	H	0.388892	0.362734	0.948846
	H5036	H	0.313612	0.644487	0.890366
	H5037	H	0.369871	0.645022	0.889304
	H5038	H	0.369918	0.861132	0.889275
	H5039	H	0.313833	0.860983	0.890434
	H5040	H	0.386900	0.645205	0.903383
	H5041	H	0.386934	0.861133	0.903364
	H5042	H	0.377700	0.643495	0.964374
	H5043	H	0.377765	0.862557	0.964367
	H5044	H	0.335218	0.441497	0.864964
	H5045	H	0.354306	0.440786	0.992489
	H5046	H	0.339464	0.441108	0.864064
	H5047	H	0.341988	0.441092	0.865533
	H5048	H	0.359906	0.441347	0.988193
	H5049	H	0.359589	0.440760	0.991054
	H5050	H	0.354248	0.564759	0.992436
	H5051	H	0.335249	0.564067	0.864951
	H5052	H	0.359469	0.564709	0.991023
	H5053	H	0.359917	0.564372	0.988299
	H5054	H	0.341930	0.564895	0.865494
	H5055	H	0.339398	0.564614	0.864046
	H5056	H	0.378018	0.143365	0.964489
	H5057	H	0.377694	0.362748	0.964326
	H5058	H	0.338525	0.064200	0.864744
	H5059	H	0.336451	0.064717	0.865289
	H5060	H	0.341098	0.064463	0.866000
	H5061	H	0.324393	0.861251	0.965856
	H5062	H	0.324408	0.644743	0.965891
	H5063	H	0.324425	0.361550	0.965873
	H5064	H	0.324488	0.144004	0.965833
	H5065	H	0.313768	0.145101	0.890333
	H5066	H	0.369811	0.144958	0.889288
	H5067	H	0.369683	0.361038	0.889286
	H5068	H	0.313752	0.361303	0.890410
	H5069	H	0.386831	0.144931	0.903395
	H5070	H	0.386714	0.361323	0.903375
	H5071	H	0.356004	0.064307	0.987627
	H5072	H	0.353939	0.064306	0.987672
	H5073	H	0.352631	0.064245	0.989312
	H5074	H	0.336355	0.940912	0.865325
	H5075	H	0.338447	0.941020	0.864718
	H5076	H	0.341130	0.940925	0.865982
	H5077	H	0.355921	0.941201	0.987701
	H5078	H	0.353895	0.940771	0.987761
	H5079	H	0.352596	0.941013	0.989342
	Zn5080	Zn	0.276056	0.680048	0.929041
	Zn5081	Zn	0.276051	0.825688	0.929006
	Zn5082	Zn	0.276108	0.180106	0.929036
	Zn5083	Zn	0.276089	0.325641	0.929029
	Zn5084	Zn	0.355108	0.679823	0.989177
	Zn5085	Zn	0.355100	0.825232	0.989246
	Zn5086	Zn	0.355147	0.179964	0.989190
	Zn5087	Zn	0.355063	0.325414	0.989192
	C5088	C	0.398171	0.753143	0.912676
	C5089	C	0.296028	0.752700	0.942522
	C5090	C	0.306417	0.752816	0.950931
	C5091	C	0.311177	0.691605	0.954947
	C5092	C	0.311215	0.814092	0.954898
	C5093	C	0.296015	0.252578	0.942552
	C5094	C	0.306389	0.252711	0.950942
	C5095	C	0.311188	0.191205	0.954916
	C5096	C	0.311175	0.314178	0.954940
	C5097	C	0.291711	0.752688	0.914721
	C5098	C	0.299767	0.752586	0.905973
	C5099	C	0.303539	0.813933	0.901856
	C5100	C	0.303427	0.691397	0.901822
	C5101	C	0.291828	0.252855	0.914731
	C5102	C	0.299843	0.252938	0.905961
	C5103	C	0.303508	0.314264	0.901825
	C5104	C	0.303529	0.191782	0.901790
	C5105	C	0.415125	0.043044	0.927751
	C5106	C	0.415138	0.962267	0.927786
	C5107	C	0.273758	0.043384	0.927859
	C5108	C	0.273744	0.962634	0.927856
	C5109	C	0.275918	0.042906	0.930909
	C5110	C	0.275935	0.962081	0.930890
	C5111	C	0.276162	0.462408	0.928182
	C5112	C	0.415481	0.462748	0.926080
	C5113	C	0.419285	0.462269	0.925711
	C5114	C	0.276161	0.543067	0.928175
	C5115	C	0.419258	0.543176	0.925677
	C5116	C	0.415453	0.543089	0.926084
	C5117	C	0.397543	0.752737	0.939024
	C5118	C	0.397687	0.252785	0.939074
	C5119	C	0.389562	0.752831	0.947899
	C5120	C	0.386296	0.690932	0.952279
	C5121	C	0.386333	0.814830	0.952285
	C5122	C	0.389763	0.252844	0.947963
	C5123	C	0.386527	0.190915	0.952361
	C5124	C	0.386402	0.314975	0.952284
	C5125	C	0.398197	0.252958	0.912634
	C5126	C	0.358516	0.752872	0.880012
	C5127	C	0.322469	0.752774	0.880770
	C5128	C	0.335715	0.753018	0.975183
	C5129	C	0.383086	0.692097	0.900248
	C5130	C	0.383114	0.814223	0.900245
	C5131	C	0.368890	0.753046	0.888424
	C5132	C	0.314396	0.752699	0.889523
	C5133	C	0.310704	0.691453	0.893663
	C5134	C	0.373665	0.691998	0.892421
	C5135	C	0.373688	0.814217	0.892417
	C5136	C	0.310823	0.814014	0.893700
	C5137	C	0.387851	0.753139	0.904248
	C5138	C	0.370636	0.752873	0.974774
	C5139	C	0.380140	0.691044	0.960904
	C5140	C	0.380181	0.814922	0.960907
	C5141	C	0.377192	0.752993	0.965368
	C5142	C	0.353247	0.462450	0.990947
	C5143	C	0.340146	0.462319	0.865258
	C5144	C	0.358580	0.462333	0.989524
	C5145	C	0.353262	0.543107	0.990916
	C5146	C	0.358564	0.543112	0.989513
	C5147	C	0.340132	0.543471	0.865230
	C5148	C	0.370720	0.253099	0.974781
	C5149	C	0.380392	0.191000	0.960994
	C5150	C	0.380235	0.315062	0.960906
	C5151	C	0.377351	0.253047	0.965403
	C5152	C	0.337743	0.043224	0.865412
	C5153	C	0.358473	0.252863	0.880006
	C5154	C	0.322624	0.253152	0.880788
	C5155	C	0.335736	0.252997	0.975130
	C5156	C	0.383058	0.191854	0.900259
	C5157	C	0.382984	0.314254	0.900245
	C5158	C	0.368830	0.252911	0.888439
	C5159	C	0.314526	0.253179	0.889530
	C5160	C	0.325392	0.753029	0.966755
	C5161	C	0.320620	0.814259	0.962737
	C5162	C	0.320591	0.691679	0.962777
	C5163	C	0.325433	0.252822	0.966716
	C5164	C	0.320635	0.314305	0.962745
	C5165	C	0.320649	0.191242	0.962723
	C5166	C	0.310818	0.191887	0.893635
	C5167	C	0.373627	0.191772	0.892434
	C5168	C	0.373552	0.314256	0.892423
	C5169	C	0.310790	0.314419	0.893669
	C5170	C	0.387850	0.253025	0.904232
	C5171	C	0.355046	0.043156	0.988059
	C5172	C	0.340355	0.043349	0.866692
	C5173	C	0.337714	0.962241	0.865408
	C5174	C	0.355013	0.962339	0.988097
	C5175	C	0.340378	0.962288	0.866698
	N5176	N	0.276089	0.070096	0.929009
	N5177	N	0.276093	0.935578	0.928968
	N5178	N	0.276067	0.435504	0.929049
	N5179	N	0.276071	0.569992	0.929054
	N5180	N	0.355227	0.435404	0.989180
	N5181	N	0.355205	0.569937	0.989180
	N5182	N	0.355191	0.070029	0.989193
	N5183	N	0.355149	0.935501	0.989236
	O5184	O	0.486268	0.695260	0.050921
	O5185	O	0.485981	0.811454	0.051061
	O5186	O	0.377525	0.694626	0.073535
	O5187	O	0.377477	0.810808	0.073591
	O5188	O	0.377582	0.194795	0.073497
	O5189	O	0.377479	0.311043	0.073541
	O5190	O	0.378820	0.694311	0.053479
	O5191	O	0.378897	0.811063	0.053513
	O5192	O	0.378869	0.194879	0.053498
	O5193	O	0.378898	0.311691	0.053487
	O5194	O	0.488528	0.694348	0.072318
	O5195	O	0.488335	0.810674	0.072191
	O5196	O	0.488494	0.194791	0.072234
	O5197	O	0.488553	0.310927	0.072270
	O5198	O	0.486045	0.195774	0.051054
	O5199	O	0.486104	0.311690	0.051053
	O5200	O	0.440068	0.694940	0.011002
	O5201	O	0.411884	0.694669	0.010880
	O5202	O	0.452286	0.694477	0.113375
	O5203	O	0.452298	0.810628	0.113323
	O5204	O	0.423632	0.694724	0.113524
	O5205	O	0.423620	0.810674	0.113527
	O5206	O	0.411820	0.811035	0.010834
	O5207	O	0.440017	0.811341	0.011024
	O5208	O	0.439992	0.195009	0.010995
	O5209	O	0.411883	0.195094	0.010830
	O5210	O	0.452271	0.194242	0.113318
	O5211	O	0.452298	0.310356	0.113348
	O5212	O	0.423545	0.195100	0.113559
	O5213	O	0.423624	0.311149	0.113562
	O5214	O	0.411851	0.311534	0.010845
	O5215	O	0.440017	0.311285	0.010961
	H5216	H	0.392352	0.644360	0.086308
	H5217	H	0.392503	0.860390	0.086269
	H5218	H	0.392419	0.144544	0.086290
	H5219	H	0.392291	0.361376	0.086354
	H5220	H	0.391037	0.862436	0.040413
	H5221	H	0.390733	0.643208	0.040329
	H5222	H	0.390924	0.363077	0.040369
	H5223	H	0.391201	0.143388	0.040444
	H5224	H	0.501760	0.065020	0.062643
	H5225	H	0.502975	0.064478	0.062192
	H5226	H	0.503026	0.941735	0.062180
	H5227	H	0.501928	0.941083	0.062646
	H5228	H	0.500100	0.064601	0.061970
	H5229	H	0.500114	0.940704	0.062023
	H5230	H	0.359214	0.064331	0.059139
	H5231	H	0.359217	0.941155	0.059180
	H5232	H	0.356452	0.064521	0.061809
	H5233	H	0.356569	0.940125	0.061819
	H5234	H	0.359616	0.064760	0.066047
	H5235	H	0.359655	0.940814	0.066003
	H5236	H	0.363292	0.441147	0.060411
	H5237	H	0.360434	0.441535	0.060594
	H5238	H	0.365839	0.441474	0.062549
	H5239	H	0.502234	0.441558	0.059294
	H5240	H	0.504995	0.441587	0.061366
	H5241	H	0.504122	0.441159	0.063239
	H5242	H	0.360452	0.564763	0.060626
	H5243	H	0.363293	0.564822	0.060446
	H5244	H	0.504142	0.564687	0.063171
	H5245	H	0.504927	0.564803	0.061319
	H5246	H	0.502231	0.564631	0.059342
	H5247	H	0.365787	0.564782	0.062511
	H5248	H	0.477003	0.643975	0.085501
	H5249	H	0.476738	0.861038	0.085364
	H5250	H	0.476660	0.144367	0.085290
	H5251	H	0.476953	0.361202	0.085424
	H5252	H	0.401928	0.643209	0.024830
	H5253	H	0.454986	0.644594	0.023780
	H5254	H	0.454819	0.862056	0.023791
	H5255	H	0.402150	0.862435	0.024904
	H5256	H	0.471280	0.644822	0.038237
	H5257	H	0.471118	0.862210	0.038270
	H5258	H	0.464206	0.644054	0.100368
	H5259	H	0.463935	0.860769	0.100218
	H5260	H	0.422875	0.441461	0.002360
	H5261	H	0.437451	0.441462	0.125048
	H5262	H	0.420886	0.441126	-0.000549
	H5263	H	0.422788	0.441494	-0.002312
	H5264	H	0.441370	0.441183	0.124727
	H5265	H	0.439994	0.441596	0.125585
	H5266	H	0.437409	0.564529	0.125048
	H5267	H	0.422884	0.564900	0.002356
	H5268	H	0.440011	0.564804	0.125603
	H5269	H	0.441393	0.565257	0.124723
	H5270	H	0.422951	0.564434	-0.002320
	H5271	H	0.420926	0.565045	-0.000589
	H5272	H	0.463827	0.144209	0.100162
	H5273	H	0.464125	0.361009	0.100306
	H5274	H	0.420173	0.065336	0.001675
	H5275	H	0.423785	0.065098	0.003560
	H5276	H	0.420768	0.064431	-0.002439
	H5277	H	0.408891	0.860448	0.100679
	H5278	H	0.408732	0.644290	0.100751
	H5279	H	0.408653	0.361320	0.100808
	H5280	H	0.408756	0.145015	0.100753
	H5281	H	0.402329	0.143424	0.024919
	H5282	H	0.454821	0.144867	0.023855
	H5283	H	0.454971	0.361883	0.023687
	H5284	H	0.402052	0.363065	0.024849
	H5285	H	0.471132	0.145125	0.038316
	H5286	H	0.471306	0.362356	0.038143
	H5287	H	0.440066	0.064893	0.125274
	H5288	H	0.441153	0.064456	0.124479
	H5289	H	0.440287	0.064499	0.122971
	H5290	H	0.423827	0.941701	0.003504
	H5291	H	0.420249	0.941464	0.001677
	H5292	H	0.420802	0.941457	-0.002412
	H5293	H	0.440000	0.941517	0.125280
	H5294	H	0.441088	0.941242	0.124472
	H5295	H	0.440309	0.941078	0.122984
	Zn5296	Zn	0.362348	0.680351	0.062645
	Zn5297	Zn	0.362426	0.825564	0.062617
	Zn5298	Zn	0.362343	0.180321	0.062586
	Zn5299	Zn	0.362380	0.325723	0.062567
	Zn5300	Zn	0.439173	0.680454	0.124095
	Zn5301	Zn	0.439146	0.825669	0.124047
	Zn5302	Zn	0.439155	0.180293	0.124064
	Zn5303	Zn	0.439159	0.325638	0.124074
	C5304	C	0.482194	0.753395	0.047714
	C5305	C	0.381440	0.752659	0.076841
	C5306	C	0.391442	0.752441	0.085443
	C5307	C	0.396034	0.691254	0.089521
	C5308	C	0.396111	0.813537	0.089493
	C5309	C	0.381482	0.252928	0.076787
	C5310	C	0.391415	0.252966	0.085420
	C5311	C	0.396035	0.191665	0.089501
	C5312	C	0.395972	0.314296	0.089539
	C5313	C	0.382316	0.752681	0.050232
	C5314	C	0.390192	0.752811	0.041303
	C5315	C	0.393477	0.814818	0.036945
	C5316	C	0.393339	0.690855	0.036896
	C5317	C	0.382338	0.253253	0.050236
	C5318	C	0.390292	0.253200	0.041343
	C5319	C	0.393499	0.315257	0.036954
	C5320	C	0.393639	0.191165	0.036985
	C5321	C	0.502175	0.043244	0.062177
	C5322	C	0.502187	0.962573	0.062181
	C5323	C	0.358989	0.043202	0.061050
	C5324	C	0.359052	0.962164	0.061050
	C5325	C	0.362135	0.043232	0.065260
	C5326	C	0.362174	0.962593	0.065240
	C5327	C	0.361984	0.462688	0.061050
	C5328	C	0.501012	0.462559	0.060025
	C5329	C	0.503743	0.462481	0.062092
	C5330	C	0.361985	0.543535	0.061076
	C5331	C	0.503743	0.543311	0.062076
	C5332	C	0.501017	0.543439	0.060033
	C5333	C	0.485367	0.752547	0.075644
	C5334	C	0.485394	0.252859	0.075618
	C5335	C	0.477522	0.752552	0.084505
	C5336	C	0.474063	0.691056	0.088758
	C5337	C	0.473910	0.813935	0.088671
	C5338	C	0.477562	0.252845	0.084484
	C5339	C	0.473905	0.191378	0.088647
	C5340	C	0.474046	0.314201	0.088717
	C5341	C	0.482149	0.253821	0.047758
	C5342	C	0.443986	0.753145	0.014286
	C5343	C	0.409211	0.752864	0.014485
	C5344	C	0.419699	0.752640	0.110234
	C5345	C	0.467554	0.691973	0.035049
	C5346	C	0.467478	0.815030	0.035056
	C5347	C	0.453886	0.753290	0.022930
	C5348	C	0.402580	0.752874	0.023836
	C5349	C	0.399475	0.690959	0.028268
	C5350	C	0.458519	0.691876	0.027018
	C5351	C	0.458421	0.814880	0.027031
	C5352	C	0.399606	0.814823	0.028316
	C5353	C	0.472113	0.753525	0.039142
	C5354	C	0.455458	0.752482	0.109999
	C5355	C	0.466970	0.691050	0.097005
	C5356	C	0.466812	0.813824	0.096911
	C5357	C	0.463341	0.752483	0.101161
	C5358	C	0.437710	0.462698	0.124324
	C5359	C	0.422613	0.462796	-0.001030
	C5360	C	0.440285	0.462544	0.124873
	C5361	C	0.437708	0.543428	0.124333
	C5362	C	0.440323	0.543662	0.124878
	C5363	C	0.422664	0.543590	-0.001051
	C5364	C	0.455402	0.252342	0.109962
	C5365	C	0.466791	0.191245	0.096891
	C5366	C	0.466942	0.314049	0.096963
	C5367	C	0.463302	0.252566	0.101130
	C5368	C	0.422707	0.043701	0.001958
	C5369	C	0.443949	0.253147	0.014240
	C5370	C	0.409209	0.253279	0.014458
	C5371	C	0.419652	0.253196	0.110263
	C5372	C	0.467519	0.192261	0.035071
	C5373	C	0.467614	0.315131	0.034973
	C5374	C	0.453924	0.253313	0.022877
	C5375	C	0.402644	0.253277	0.023860
	C5376	C	0.409721	0.752385	0.101627
	C5377	C	0.405191	0.813502	0.097507
	C5378	C	0.405103	0.691219	0.097540
	C5379	C	0.409679	0.253196	0.101624
	C5380	C	0.405026	0.314305	0.097570
	C5381	C	0.405092	0.191931	0.097527
	C5382	C	0.399791	0.191202	0.028355
	C5383	C	0.458471	0.192092	0.027033
	C5384	C	0.458567	0.314811	0.026934
	C5385	C	0.399643	0.315310	0.028321
	C5386	C	0.472145	0.253791	0.039131
	C5387	C	0.440222	0.043439	0.124663
	C5388	C	0.423335	0.043328	-0.002138
	C5389	C	0.422745	0.962793	0.001941
	C5390	C	0.440190	0.962617	0.124656
	C5391	C	0.423374	0.962754	-0.002139
	N5392	N	0.362337	0.070245	0.062603
	N5393	N	0.362383	0.935717	0.062597
	N5394	N	0.362278	0.435691	0.062603
	N5395	N	0.362299	0.570215	0.062623
	N5396	N	0.439221	0.435835	0.124112
	N5397	N	0.439238	0.570422	0.124111
	N5398	N	0.439190	0.070220	0.124037
	N5399	N	0.439175	0.935721	0.124042
	O5400	O	0.500655	0.695011	0.174718
	O5401	O	0.500546	0.811133	0.174784
	O5402	O	0.392219	0.695083	0.197118
	O5403	O	0.392090	0.811341	0.197168
	O5404	O	0.392132	0.195301	0.197074
	O5405	O	0.392029	0.311595	0.197132
	O5406	O	0.389861	0.695705	0.175879
	O5407	O	0.389752	0.811853	0.175874
	O5408	O	0.389797	0.195277	0.175794
	O5409	O	0.389599	0.311321	0.175803
	O5410	O	0.499176	0.694422	0.194824
	O5411	O	0.499072	0.811224	0.194780
	O5412	O	0.499194	0.194587	0.194791
	O5413	O	0.499204	0.311235	0.194827
	O5414	O	0.500565	0.194748	0.174759
	O5415	O	0.500476	0.311038	0.174781
	O5416	O	0.454644	0.695190	0.134684
	O5417	O	0.425929	0.695836	0.134742
	O5418	O	0.466124	0.694887	0.237432
	O5419	O	0.466067	0.811360	0.237398
	O5420	O	0.438114	0.695020	0.237226
	O5421	O	0.437944	0.811375	0.237321
	O5422	O	0.426039	0.812082	0.134811
	O5423	O	0.454656	0.811349	0.134667
	O5424	O	0.454664	0.194744	0.134677
	O5425	O	0.425981	0.195231	0.134749
	O5426	O	0.466073	0.194221	0.237382
	O5427	O	0.466077	0.310785	0.237380
	O5428	O	0.437866	0.195313	0.237256
	O5429	O	0.438086	0.311694	0.237209
	O5430	O	0.426092	0.311669	0.134882
	O5431	O	0.454649	0.310969	0.134641
	H5432	H	0.407191	0.644498	0.209876
	H5433	H	0.406934	0.861700	0.209947
	H5434	H	0.406661	0.144318	0.210064
	H5435	H	0.407119	0.362752	0.209843
	H5436	H	0.401482	0.862577	0.162755
	H5437	H	0.401435	0.645483	0.162708
	H5438	H	0.401440	0.362316	0.162754
	H5439	H	0.401450	0.144312	0.162651
	H5440	H	0.515767	0.064925	0.181591
	H5441	H	0.511088	0.065060	0.182867
	H5442	H	0.511076	0.941505	0.182823
	H5443	H	0.515712	0.941178	0.181549
	H5444	H	0.521491	0.064830	0.184614
	H5445	H	0.521452	0.941342	0.184616
	H5446	H	0.382878	0.064674	0.184244
	H5447	H	0.382747	0.941241	0.184291
	H5448	H	0.377782	0.064723	0.181789
	H5449	H	0.377700	0.941291	0.181807
	H5450	H	0.370275	0.065428	0.184013
	H5451	H	0.370202	0.941295	0.184004
	H5452	H	0.372697	0.441461	0.183976
	H5453	H	0.371305	0.441596	0.186770
	H5454	H	0.378702	0.441502	0.183305
	H5455	H	0.510117	0.441164	0.181793
	H5456	H	0.518889	0.440928	0.181095
	H5457	H	0.523186	0.441401	0.184513
	H5458	H	0.371456	0.565061	0.186794
	H5459	H	0.372727	0.564728	0.184011
	H5460	H	0.523229	0.564498	0.184599
	H5461	H	0.518946	0.564798	0.181102
	H5462	H	0.510145	0.564644	0.181825
	H5463	H	0.378698	0.564465	0.183352
	H5464	H	0.486884	0.643206	0.207856
	H5465	H	0.486776	0.862383	0.207797
	H5466	H	0.487045	0.143311	0.207839
	H5467	H	0.486993	0.362275	0.207877
	H5468	H	0.414256	0.645452	0.147851
	H5469	H	0.469471	0.645198	0.147469
	H5470	H	0.469546	0.861180	0.147450
	H5471	H	0.414303	0.862381	0.147878
	H5472	H	0.485786	0.645101	0.161938
	H5473	H	0.485908	0.860981	0.161900
	H5474	H	0.475850	0.643314	0.223381
	H5475	H	0.475770	0.862475	0.223371
	H5476	H	0.436925	0.441158	0.123787
	H5477	H	0.450404	0.441283	0.248563
	H5478	H	0.438818	0.441479	0.122572
	H5479	H	0.440685	0.441431	0.122971
	H5480	H	0.455231	0.441025	0.249652
	H5481	H	0.452991	0.441303	0.250128
	H5482	H	0.450345	0.564214	0.248557
	H5483	H	0.436935	0.564791	0.123756
	H5484	H	0.452900	0.564463	0.250123
	H5485	H	0.455166	0.564982	0.249677
	H5486	H	0.440701	0.564862	0.122964
	H5487	H	0.438756	0.564503	0.122561
	H5488	H	0.475807	0.142905	0.223319
	H5489	H	0.475812	0.362143	0.223384
	H5490	H	0.437208	0.064834	0.123858
	H5491	H	0.437755	0.064784	0.124951
	H5492	H	0.438689	0.064435	0.122749
	H5493	H	0.423212	0.861825	0.224450
	H5494	H	0.423453	0.644654	0.224392
	H5495	H	0.423403	0.362539	0.224333
	H5496	H	0.422857	0.144638	0.224547
	H5497	H	0.414277	0.144666	0.147795
	H5498	H	0.469663	0.144310	0.147378
	H5499	H	0.469329	0.361199	0.147489
	H5500	H	0.414294	0.362445	0.147912
	H5501	H	0.485865	0.144097	0.161874
	H5502	H	0.485562	0.361485	0.162013
	H5503	H	0.458416	0.064533	0.249857
	H5504	H	0.458216	0.064698	0.246641
	H5505	H	0.452377	0.064995	0.244310
	H5506	H	0.437764	0.941195	0.124924
	H5507	H	0.437155	0.941504	0.123886
	H5508	H	0.438626	0.941443	0.122765
	H5509	H	0.458405	0.940853	0.249839
	H5510	H	0.458220	0.941376	0.246629
	H5511	H	0.452372	0.941456	0.244353
	Zn5512	Zn	0.376734	0.680692	0.186560
	Zn5513	Zn	0.376539	0.825685	0.186613
	Zn5514	Zn	0.376738	0.180565	0.186553
	Zn5515	Zn	0.376526	0.325785	0.186565
	Zn5516	Zn	0.453094	0.680517	0.248207
	Zn5517	Zn	0.453161	0.825641	0.248214
	Zn5518	Zn	0.453076	0.180570	0.248180
	Zn5519	Zn	0.453221	0.325727	0.248197
	C5520	C	0.496660	0.753057	0.171471
	C5521	C	0.396068	0.753215	0.200436
	C5522	C	0.405988	0.753086	0.209090
	C5523	C	0.410697	0.691693	0.213153
	C5524	C	0.410549	0.814558	0.213188
	C5525	C	0.395990	0.253423	0.200395
	C5526	C	0.405952	0.253538	0.209006
	C5527	C	0.410367	0.191906	0.213197
	C5528	C	0.410639	0.315211	0.213086
	C5529	C	0.392909	0.753831	0.172495
	C5530	C	0.400756	0.753957	0.163630
	C5531	C	0.404328	0.815411	0.159447
	C5532	C	0.404307	0.692600	0.159412
	C5533	C	0.392809	0.253408	0.172425
	C5534	C	0.400740	0.253376	0.163604
	C5535	C	0.404327	0.315103	0.159439
	C5536	C	0.404334	0.191716	0.159381
	C5537	C	0.514075	0.043624	0.183146
	C5538	C	0.514041	0.962488	0.183121
	C5539	C	0.379354	0.043365	0.183952
	C5540	C	0.379261	0.962740	0.183972
	C5541	C	0.371808	0.043875	0.186179
	C5542	C	0.371741	0.962843	0.186176
	C5543	C	0.373205	0.462791	0.185687
	C5544	C	0.510811	0.462756	0.184338
	C5545	C	0.519678	0.462473	0.183590
	C5546	C	0.373281	0.543665	0.185701
	C5547	C	0.519694	0.543323	0.183609
	C5548	C	0.510813	0.543330	0.184335
	C5549	C	0.495667	0.752808	0.198060
	C5550	C	0.495713	0.252865	0.198062
	C5551	C	0.487640	0.752833	0.206905
	C5552	C	0.484371	0.690848	0.211277
	C5553	C	0.484310	0.814803	0.211253
	C5554	C	0.487690	0.252769	0.206901
	C5555	C	0.484438	0.190776	0.211261
	C5556	C	0.484425	0.314631	0.211288
	C5557	C	0.496577	0.252858	0.171486
	C5558	C	0.458549	0.753300	0.137988
	C5559	C	0.422873	0.753947	0.138148
	C5560	C	0.434097	0.753211	0.233987
	C5561	C	0.482147	0.692034	0.158732
	C5562	C	0.482194	0.814224	0.158715
	C5563	C	0.468532	0.753267	0.146612
	C5564	C	0.414982	0.753965	0.146987
	C5565	C	0.411396	0.692545	0.151161
	C5566	C	0.473110	0.692109	0.150698
	C5567	C	0.473163	0.814265	0.150682
	C5568	C	0.411422	0.815377	0.151194
	C5569	C	0.486718	0.753139	0.162854
	C5570	C	0.468732	0.753092	0.233791
	C5571	C	0.478229	0.690983	0.219905
	C5572	C	0.478177	0.814817	0.219886
	C5573	C	0.475282	0.752913	0.224377
	C5574	C	0.451305	0.462502	0.247882
	C5575	C	0.439597	0.462894	0.123111
	C5576	C	0.453897	0.462560	0.249438
	C5577	C	0.451290	0.543273	0.247881
	C5578	C	0.453844	0.543524	0.249446
	C5579	C	0.439603	0.543511	0.123122
	C5580	C	0.468679	0.252489	0.233744
	C5581	C	0.478277	0.190646	0.219884
	C5582	C	0.478271	0.314524	0.219914
	C5583	C	0.475273	0.252518	0.224355
	C5584	C	0.437928	0.043575	0.124312
	C5585	C	0.458549	0.252917	0.137965
	C5586	C	0.422910	0.253369	0.138173
	C5587	C	0.434044	0.253583	0.233938
	C5588	C	0.482214	0.191290	0.158685
	C5589	C	0.482036	0.314268	0.158751
	C5590	C	0.468511	0.252807	0.146595
	C5591	C	0.415013	0.253483	0.147006
	C5592	C	0.424152	0.753223	0.225345
	C5593	C	0.419574	0.814639	0.221235
	C5594	C	0.419710	0.691763	0.221200
	C5595	C	0.424114	0.253589	0.225281
	C5596	C	0.419677	0.315249	0.221128
	C5597	C	0.419385	0.191971	0.221240
	C5598	C	0.411433	0.191706	0.151142
	C5599	C	0.473204	0.191378	0.150639
	C5600	C	0.473040	0.314216	0.150698
	C5601	C	0.411442	0.315170	0.151213
	C5602	C	0.486669	0.252786	0.162836
	C5603	C	0.456972	0.043358	0.248233
	C5604	C	0.439424	0.043264	0.123179
	C5605	C	0.437913	0.962612	0.124310
	C5606	C	0.456965	0.962337	0.248222
	C5607	C	0.439390	0.962502	0.123181
	N5608	N	0.376669	0.070455	0.186568
	N5609	N	0.376559	0.935910	0.186564
	N5610	N	0.376628	0.435918	0.186526
	N5611	N	0.376683	0.570489	0.186531
	N5612	N	0.453277	0.435757	0.248201
	N5613	N	0.453193	0.570344	0.248192
	N5614	N	0.453177	0.070148	0.248193
	N5615	N	0.453204	0.935578	0.248199
	O5616	O	0.449734	0.694065	0.308697
	O5617	O	0.449745	0.811087	0.308750
	O5618	O	0.401217	0.694504	0.323506
	O5619	O	0.401266	0.811471	0.323549
	O5620	O	0.401208	0.194698	0.323517
	O5621	O	0.401108	0.311594	0.323551
	O5622	O	0.403569	0.694982	0.299891
	O5623	O	0.403463	0.811233	0.299857
	O5624	O	0.403559	0.195214	0.299853
	O5625	O	0.403499	0.311537	0.299890
	O5626	O	0.447452	0.694898	0.332394
	O5627	O	0.447294	0.811145	0.332309
	O5628	O	0.447313	0.194994	0.332392
	O5629	O	0.447419	0.311410	0.332430
	O5630	O	0.449641	0.194327	0.308687
	O5631	O	0.449759	0.311066	0.308687
	O5632	O	0.463831	0.694733	0.261109
	O5633	O	0.436556	0.694311	0.257261
	O5634	O	0.414350	0.694691	0.374978
	O5635	O	0.414366	0.811537	0.374991
	O5636	O	0.387233	0.694249	0.371171
	O5637	O	0.387154	0.811067	0.371164
	O5638	O	0.436582	0.811060	0.257256
	O5639	O	0.463790	0.811550	0.261130
	O5640	O	0.463853	0.194229	0.261054
	O5641	O	0.436614	0.195049	0.257273
	O5642	O	0.414277	0.194566	0.374976
	O5643	O	0.414304	0.311273	0.374989
	O5644	O	0.387151	0.194292	0.371098
	O5645	O	0.387051	0.311454	0.371159
	O5646	O	0.436733	0.311800	0.257273
	O5647	O	0.463895	0.311073	0.261095
	H5648	H	0.397396	0.642805	0.338904
	H5649	H	0.397534	0.862892	0.338981
	H5650	H	0.397341	0.143071	0.338934
	H5651	H	0.397365	0.362979	0.338948
	H5652	H	0.413010	0.862641	0.285738
	H5653	H	0.413753	0.643327	0.286024
	H5654	H	0.413466	0.363302	0.285888
	H5655	H	0.413357	0.144264	0.285842
	H5656	H	0.458349	0.064756	0.322375
	H5657	H	0.459995	0.064467	0.323108
	H5658	H	0.459964	0.941178	0.323148
	H5659	H	0.458401	0.941172	0.322348
	H5660	H	0.458551	0.064654	0.320564
	H5661	H	0.458666	0.940983	0.320524
	H5662	H	0.384342	0.064845	0.311016
	H5663	H	0.384339	0.941265	0.311057
	H5664	H	0.387323	0.064454	0.314101
	H5665	H	0.387274	0.941613	0.314118
	H5666	H	0.394643	0.064588	0.314033
	H5667	H	0.394534	0.941623	0.314037
	H5668	H	0.393545	0.441282	0.309618
	H5669	H	0.391236	0.441187	0.308394
	H5670	H	0.393070	0.440802	0.312295
	H5671	H	0.456143	0.441121	0.321054
	H5672	H	0.459525	0.440924	0.318882
	H5673	H	0.462959	0.441193	0.319651
	H5674	H	0.391229	0.564719	0.308338
	H5675	H	0.393553	0.564754	0.309610
	H5676	H	0.463081	0.564175	0.319616
	H5677	H	0.459552	0.564219	0.318842
	H5678	H	0.456149	0.564666	0.321088
	H5679	H	0.393106	0.564941	0.312261
	H5680	H	0.437741	0.643777	0.346418
	H5681	H	0.437423	0.862731	0.346296
	H5682	H	0.437415	0.143736	0.346355
	H5683	H	0.437829	0.362628	0.346498
	H5684	H	0.424827	0.643110	0.270515
	H5685	H	0.460242	0.643068	0.276542
	H5686	H	0.459930	0.862894	0.276525
	H5687	H	0.424151	0.862454	0.270236
	H5688	H	0.453671	0.642934	0.293310
	H5689	H	0.453358	0.862699	0.293289
	H5690	H	0.426637	0.643671	0.361950
	H5691	H	0.426352	0.862857	0.361838
	H5692	H	0.450770	0.440927	0.246931
	H5693	H	0.395359	0.440961	0.383839
	H5694	H	0.453983	0.441392	0.246337
	H5695	H	0.455823	0.441457	0.247416
	H5696	H	0.398666	0.441345	0.385617
	H5697	H	0.396621	0.441184	0.385532
	H5698	H	0.395427	0.564566	0.383869
	H5699	H	0.450779	0.564544	0.246964
	H5700	H	0.396758	0.564718	0.385536
	H5701	H	0.398688	0.564723	0.385592
	H5702	H	0.455802	0.564882	0.247431
	H5703	H	0.453906	0.564728	0.246347
	H5704	H	0.426178	0.143530	0.361814
	H5705	H	0.426579	0.362450	0.361991
	H5706	H	0.448578	0.064548	0.250284
	H5707	H	0.452772	0.064462	0.252015
	H5708	H	0.448273	0.065009	0.245939
	H5709	H	0.390994	0.862752	0.355763
	H5710	H	0.390925	0.642582	0.355693
	H5711	H	0.390852	0.363032	0.355728
	H5712	H	0.390817	0.143018	0.355707
	H5713	H	0.424497	0.144090	0.270339
	H5714	H	0.459919	0.142778	0.276455
	H5715	H	0.460091	0.362505	0.276533
	H5716	H	0.424642	0.363101	0.270365
	H5717	H	0.453379	0.142626	0.293232
	H5718	H	0.453556	0.362643	0.293296
	H5719	H	0.390731	0.064792	0.382805
	H5720	H	0.392012	0.064622	0.386725
	H5721	H	0.399874	0.064696	0.388741
	H5722	H	0.452843	0.941054	0.251986
	H5723	H	0.448575	0.941638	0.250292
	H5724	H	0.448322	0.941797	0.245943
	H5725	H	0.390778	0.941374	0.382807
	H5726	H	0.392066	0.941225	0.386717
	H5727	H	0.399889	0.941288	0.388765
	Zn5728	Zn	0.390501	0.680431	0.310615
	Zn5729	Zn	0.390499	0.825351	0.310625
	Zn5730	Zn	0.390542	0.180572	0.310635
	Zn5731	Zn	0.390477	0.325475	0.310631
	Zn5732	Zn	0.397817	0.680099	0.384103
	Zn5733	Zn	0.397762	0.825598	0.384097
	Zn5734	Zn	0.397747	0.180046	0.384057
	Zn5735	Zn	0.397714	0.325563	0.384086
	C5736	C	0.450289	0.752678	0.304658
	C5737	C	0.400712	0.752907	0.327604
	C5738	C	0.398004	0.752887	0.337946
	C5739	C	0.396049	0.690564	0.342672
	C5740	C	0.396121	0.815060	0.342719
	C5741	C	0.400611	0.253089	0.327615
	C5742	C	0.397915	0.253003	0.337950
	C5743	C	0.395938	0.190784	0.342665
	C5744	C	0.395942	0.315211	0.342682
	C5745	C	0.406124	0.753065	0.296230
	C5746	C	0.412672	0.752976	0.286826
	C5747	C	0.415554	0.814951	0.282325
	C5748	C	0.415941	0.691029	0.282480
	C5749	C	0.406181	0.253461	0.296252
	C5750	C	0.412816	0.253722	0.286879
	C5751	C	0.415849	0.315641	0.282415
	C5752	C	0.415779	0.191825	0.282396
	C5753	C	0.459450	0.043285	0.322435
	C5754	C	0.459461	0.962384	0.322442
	C5755	C	0.387132	0.043526	0.312050
	C5756	C	0.387088	0.962748	0.312059
	C5757	C	0.394440	0.043523	0.312002
	C5758	C	0.394399	0.962597	0.312010
	C5759	C	0.391957	0.462611	0.309437
	C5760	C	0.457515	0.462504	0.322062
	C5761	C	0.460966	0.462405	0.319892
	C5762	C	0.391942	0.543430	0.309418
	C5763	C	0.460985	0.543320	0.319892
	C5764	C	0.457526	0.543346	0.322063
	C5765	C	0.444686	0.753058	0.335967
	C5766	C	0.444693	0.253176	0.336024
	C5767	C	0.438024	0.753299	0.345337
	C5768	C	0.435183	0.691316	0.349846
	C5769	C	0.435007	0.815184	0.349778
	C5770	C	0.438004	0.253118	0.345364
	C5771	C	0.434962	0.191287	0.349804
	C5772	C	0.435182	0.314981	0.349883
	C5773	C	0.450254	0.252688	0.304599
	C5774	C	0.463271	0.753081	0.265208
	C5775	C	0.433057	0.752722	0.260484
	C5776	C	0.387741	0.752681	0.367080
	C5777	C	0.454972	0.690726	0.289563
	C5778	C	0.454818	0.814908	0.289564
	C5779	C	0.460529	0.752973	0.275534
	C5780	C	0.425083	0.752815	0.269361
	C5781	C	0.422090	0.690945	0.273850
	C5782	C	0.458671	0.690730	0.280266
	C5783	C	0.458515	0.815132	0.280267
	C5784	C	0.421707	0.814819	0.273697
	C5785	C	0.452962	0.752753	0.294309
	C5786	C	0.417786	0.753153	0.371731
	C5787	C	0.429046	0.691312	0.358478
	C5788	C	0.428873	0.815212	0.358410
	C5789	C	0.425686	0.753236	0.362809
	C5790	C	0.396324	0.462322	0.383499
	C5791	C	0.454481	0.462631	0.247232
	C5792	C	0.397631	0.462503	0.385178
	C5793	C	0.396366	0.543367	0.383527
	C5794	C	0.397674	0.543224	0.385177
	C5795	C	0.454435	0.543388	0.247232
	C5796	C	0.417710	0.252917	0.371714
	C5797	C	0.428798	0.191155	0.358423
	C5798	C	0.429010	0.314944	0.358505
	C5799	C	0.425629	0.253005	0.362818
	C5800	C	0.451328	0.043304	0.250370
	C5801	C	0.463282	0.252582	0.265153
	C5802	C	0.433204	0.253512	0.260532
	C5803	C	0.387671	0.253009	0.367068
	C5804	C	0.454836	0.190439	0.289511
	C5805	C	0.454943	0.314822	0.289556
	C5806	C	0.460563	0.252644	0.275500
	C5807	C	0.425243	0.253699	0.269417
	C5808	C	0.390462	0.752669	0.356738
	C5809	C	0.392419	0.814960	0.352021
	C5810	C	0.392352	0.690498	0.351973
	C5811	C	0.390317	0.253095	0.356714
	C5812	C	0.392245	0.315258	0.351983
	C5813	C	0.392219	0.190796	0.351967
	C5814	C	0.421957	0.191729	0.273780
	C5815	C	0.458543	0.190489	0.280212
	C5816	C	0.458663	0.314730	0.280264
	C5817	C	0.422046	0.315712	0.273800
	C5818	C	0.452954	0.252616	0.294277
	C5819	C	0.393029	0.043474	0.384592
	C5820	C	0.451081	0.043663	0.245925
	C5821	C	0.451355	0.962566	0.250361
	C5822	C	0.393044	0.962509	0.384588
	C5823	C	0.451100	0.962735	0.245931
	N5824	N	0.390639	0.070288	0.310609
	N5825	N	0.390590	0.935655	0.310633
	N5826	N	0.390544	0.435752	0.310618
	N5827	N	0.390537	0.570363	0.310623
	N5828	N	0.397665	0.435670	0.384100
	N5829	N	0.397717	0.570214	0.384114
	N5830	N	0.397629	0.070115	0.384073
	N5831	N	0.397674	0.935603	0.384078
	O5832	O	0.460886	0.695259	0.433988
	O5833	O	0.460821	0.811468	0.434066
	O5834	O	0.350405	0.694313	0.457346
	O5835	O	0.350383	0.810629	0.457336
	O5836	O	0.350387	0.194518	0.457301
	O5837	O	0.350404	0.310758	0.457319
	O5838	O	0.351594	0.694661	0.437395
	O5839	O	0.351630	0.811206	0.437413
	O5840	O	0.351590	0.194336	0.437446
	O5841	O	0.351615	0.311234	0.437447
	O5842	O	0.463904	0.695024	0.455125
	O5843	O	0.464002	0.811140	0.455181
	O5844	O	0.464147	0.194849	0.455265
	O5845	O	0.464023	0.311197	0.455256
	O5846	O	0.460768	0.194555	0.434012
	O5847	O	0.460770	0.310605	0.434011
	O5848	O	0.413071	0.694975	0.394954
	O5849	O	0.384816	0.694543	0.394869
	O5850	O	0.426846	0.694937	0.495822
	O5851	O	0.426975	0.811180	0.495851
	O5852	O	0.398212	0.694484	0.496362
	O5853	O	0.398141	0.810684	0.496423
	O5854	O	0.384721	0.811055	0.394809
	O5855	O	0.412989	0.811024	0.394955
	O5856	O	0.413073	0.194515	0.394885
	O5857	O	0.384873	0.194705	0.394888
	O5858	O	0.426904	0.195060	0.495923
	O5859	O	0.426724	0.311131	0.495800
	O5860	O	0.398093	0.194234	0.496439
	O5861	O	0.398153	0.310480	0.496402
	O5862	O	0.384791	0.311178	0.394882
	O5863	O	0.413076	0.310784	0.394874
	H5864	H	0.365716	0.644090	0.469867
	H5865	H	0.365793	0.860775	0.469790
	H5866	H	0.365792	0.143978	0.469774
	H5867	H	0.365752	0.361039	0.469848
	H5868	H	0.363572	0.862578	0.424257
	H5869	H	0.363732	0.643237	0.424323
	H5870	H	0.363566	0.362092	0.424306
	H5871	H	0.363950	0.143185	0.424432
	H5872	H	0.478042	0.064681	0.444086
	H5873	H	0.477226	0.064553	0.443521
	H5874	H	0.477234	0.940901	0.443470
	H5875	H	0.478123	0.941278	0.444108
	H5876	H	0.477651	0.064247	0.445093
	H5877	H	0.477752	0.941637	0.445221
	H5878	H	0.335372	0.064451	0.444558
	H5879	H	0.335353	0.941356	0.444562
	H5880	H	0.332987	0.064767	0.444945
	H5881	H	0.332989	0.940778	0.445044
	H5882	H	0.332261	0.064627	0.447271
	H5883	H	0.332356	0.941002	0.447280
	H5884	H	0.336673	0.441825	0.446890
	H5885	H	0.336371	0.441033	0.445923
	H5886	H	0.335261	0.441592	0.447642
	H5887	H	0.476314	0.441530	0.443336
	H5888	H	0.477878	0.441106	0.443798
	H5889	H	0.478112	0.441122	0.444630
	H5890	H	0.336431	0.564877	0.445945
	H5891	H	0.336672	0.564950	0.446888
	H5892	H	0.478162	0.564785	0.444626
	H5893	H	0.477945	0.564511	0.443767
	H5894	H	0.476315	0.564553	0.443299
	H5895	H	0.335171	0.564746	0.447619
	H5896	H	0.451885	0.645136	0.468058
	H5897	H	0.452203	0.860856	0.468210
	H5898	H	0.452113	0.144950	0.468243
	H5899	H	0.452036	0.361028	0.468189
	H5900	H	0.374984	0.643201	0.408876
	H5901	H	0.428386	0.644930	0.407459
	H5902	H	0.428350	0.861735	0.407487
	H5903	H	0.374812	0.862323	0.408799
	H5904	H	0.445331	0.645004	0.421574
	H5905	H	0.445371	0.861637	0.421593
	H5906	H	0.438677	0.644987	0.482774
	H5907	H	0.438956	0.860918	0.482899
	H5908	H	0.396371	0.440895	0.382760
	H5909	H	0.412176	0.441053	0.505229
	H5910	H	0.399154	0.440942	0.382903
	H5911	H	0.400074	0.441177	0.384129
	H5912	H	0.413009	0.441265	0.508389
	H5913	H	0.411379	0.441024	0.507234
	H5914	H	0.412248	0.564552	0.505232
	H5915	H	0.396459	0.564928	0.382771
	H5916	H	0.411386	0.564703	0.507234
	H5917	H	0.413022	0.564594	0.508414
	H5918	H	0.400044	0.564345	0.384117
	H5919	H	0.399123	0.564438	0.382896
	H5920	H	0.438877	0.144793	0.482897
	H5921	H	0.438772	0.361002	0.482872
	H5922	H	0.402508	0.064664	0.380788
	H5923	H	0.396817	0.064488	0.379344
	H5924	H	0.404265	0.064758	0.386173
	H5925	H	0.382823	0.860896	0.483893
	H5926	H	0.382733	0.643882	0.483925
	H5927	H	0.382711	0.360904	0.483958
	H5928	H	0.382725	0.143820	0.483915
	H5929	H	0.375173	0.143277	0.408935
	H5930	H	0.428280	0.144338	0.407458
	H5931	H	0.428542	0.360588	0.407356
	H5932	H	0.374723	0.362185	0.408809
	H5933	H	0.445231	0.144271	0.421595
	H5934	H	0.445501	0.360451	0.421484
	H5935	H	0.414186	0.064803	0.506430
	H5936	H	0.413716	0.064493	0.506384
	H5937	H	0.413392	0.064089	0.506728
	H5938	H	0.396833	0.941276	0.379308
	H5939	H	0.402483	0.941055	0.380776
	H5940	H	0.404351	0.941428	0.386152
	H5941	H	0.414207	0.940980	0.506448
	H5942	H	0.413736	0.941515	0.506409
	H5943	H	0.413467	0.941367	0.506731
	Zn5944	Zn	0.335048	0.680492	0.446527
	Zn5945	Zn	0.335115	0.825450	0.446511
	Zn5946	Zn	0.335006	0.180331	0.446515
	Zn5947	Zn	0.335093	0.325526	0.446513
	Zn5948	Zn	0.414010	0.680208	0.506723
	Zn5949	Zn	0.414004	0.825409	0.506700
	Zn5950	Zn	0.413966	0.180237	0.506748
	Zn5951	Zn	0.413982	0.325681	0.506722
	C5952	C	0.456796	0.753404	0.430812
	C5953	C	0.354424	0.752464	0.460565
	C5954	C	0.364703	0.752432	0.469020
	C5955	C	0.369481	0.691091	0.473006
	C5956	C	0.369541	0.813828	0.472963
	C5957	C	0.354459	0.252591	0.460517
	C5958	C	0.364791	0.252530	0.468939
	C5959	C	0.369563	0.191068	0.472925
	C5960	C	0.369546	0.313886	0.472957
	C5961	C	0.355060	0.752933	0.434133
	C5962	C	0.363022	0.752858	0.425263
	C5963	C	0.366224	0.814840	0.420874
	C5964	C	0.366336	0.690873	0.420921
	C5965	C	0.355069	0.252745	0.434206
	C5966	C	0.363109	0.252664	0.425330
	C5967	C	0.366224	0.314618	0.420911
	C5968	C	0.366441	0.190748	0.420979
	C5969	C	0.477388	0.043308	0.443965
	C5970	C	0.477420	0.962291	0.443974
	C5971	C	0.334342	0.043120	0.445241
	C5972	C	0.334357	0.962415	0.445251
	C5973	C	0.333636	0.043166	0.447506
	C5974	C	0.333687	0.962466	0.447511
	C5975	C	0.336101	0.462557	0.446435
	C5976	C	0.476030	0.462663	0.443761
	C5977	C	0.477618	0.462339	0.444238
	C5978	C	0.336112	0.543557	0.446433
	C5979	C	0.477651	0.543290	0.444227
	C5980	C	0.476012	0.543261	0.443751
	C5981	C	0.460808	0.753056	0.458510
	C5982	C	0.460907	0.252940	0.458596
	C5983	C	0.452762	0.753011	0.467277
	C5984	C	0.448998	0.691872	0.471378
	C5985	C	0.449165	0.814083	0.471454
	C5986	C	0.452840	0.252932	0.467365
	C5987	C	0.449175	0.191721	0.471514
	C5988	C	0.449122	0.314193	0.471491
	C5989	C	0.456694	0.252555	0.430816
	C5990	C	0.417089	0.753076	0.398175
	C5991	C	0.382118	0.752802	0.398449
	C5992	C	0.394098	0.752582	0.493196
	C5993	C	0.441569	0.692016	0.418440
	C5994	C	0.441571	0.814658	0.418454
	C5995	C	0.427393	0.753332	0.406600
	C5996	C	0.375449	0.752771	0.407816
	C5997	C	0.372500	0.690868	0.412302
	C5998	C	0.432166	0.692028	0.410603
	C5999	C	0.432152	0.814648	0.410623
	C6000	C	0.372387	0.814753	0.412256
	C6001	C	0.446383	0.753375	0.422425
	C6002	C	0.430056	0.753019	0.492492
	C6003	C	0.441706	0.691841	0.479539
	C6004	C	0.441865	0.814026	0.479609
	C6005	C	0.438127	0.752960	0.483734
	C6006	C	0.413492	0.462364	0.505498
	C6007	C	0.399073	0.462449	0.383670
	C6008	C	0.412646	0.462547	0.507523
	C6009	C	0.413505	0.543252	0.505501
	C6010	C	0.412664	0.543382	0.507511
	C6011	C	0.399067	0.543229	0.383682
	C6012	C	0.429963	0.253030	0.492515
	C6013	C	0.441834	0.191708	0.479646
	C6014	C	0.441777	0.314168	0.479632
	C6015	C	0.438085	0.252890	0.483765
	C6016	C	0.399111	0.043275	0.381118
	C6017	C	0.417115	0.252652	0.398101
	C6018	C	0.382186	0.252900	0.398504
	C6019	C	0.394069	0.252319	0.493209
	C6020	C	0.441484	0.191154	0.418428
	C6021	C	0.441632	0.313614	0.418379
	C6022	C	0.427385	0.252569	0.406567
	C6023	C	0.375542	0.252788	0.407867
	C6024	C	0.383671	0.752501	0.484826
	C6025	C	0.378957	0.813847	0.480795
	C6026	C	0.378906	0.691132	0.480824
	C6027	C	0.383736	0.252346	0.484789
	C6028	C	0.378946	0.313734	0.480800
	C6029	C	0.378960	0.191022	0.480771
	C6030	C	0.372661	0.190867	0.412369
	C6031	C	0.432092	0.191260	0.410589
	C6032	C	0.432239	0.313686	0.410533
	C6033	C	0.372417	0.314641	0.412297
	C6034	C	0.446301	0.252374	0.422418
	C6035	C	0.413932	0.043339	0.506522
	C6036	C	0.400896	0.043317	0.386558
	C6037	C	0.399133	0.962551	0.381105
	C6038	C	0.413953	0.962313	0.506528
	C6039	C	0.400926	0.962475	0.386551
	N6040	N	0.334988	0.070087	0.446522
	N6041	N	0.335021	0.935501	0.446526
	N6042	N	0.334995	0.435671	0.446535
	N6043	N	0.335002	0.570326	0.446524
	N6044	N	0.413958	0.435703	0.506712
	N6045	N	0.413990	0.570182	0.506728
	N6046	N	0.413911	0.070106	0.506735
	N6047	N	0.413954	0.935555	0.506737
	O6048	O	0.484620	0.695100	0.551835
	O6049	O	0.484400	0.811262	0.551933
	O6050	O	0.368156	0.694714	0.579020
	O6051	O	0.368114	0.810909	0.579082
	O6052	O	0.368224	0.194390	0.578992
	O6053	O	0.368179	0.310663	0.579054
	O6054	O	0.364492	0.694958	0.558388
	O6055	O	0.364458	0.811056	0.558376
	O6056	O	0.364455	0.194806	0.558392
	O6057	O	0.364320	0.310795	0.558324
	O6058	O	0.488715	0.694997	0.572643
	O6059	O	0.488698	0.810941	0.572574
	O6060	O	0.488783	0.194764	0.572683
	O6061	O	0.488862	0.310862	0.572697
	O6062	O	0.484495	0.195310	0.551911
	O6063	O	0.484419	0.311455	0.551930
	O6064	O	0.430511	0.695050	0.516561
	O6065	O	0.401418	0.694636	0.517630
	O6066	O	0.451236	0.695303	0.613111
	O6067	O	0.451235	0.811144	0.613064
	O6068	O	0.422151	0.694686	0.614395
	O6069	O	0.422134	0.810945	0.614461
	O6070	O	0.401391	0.810579	0.517619
	O6071	O	0.430515	0.810948	0.516514
	O6072	O	0.430594	0.195200	0.516473
	O6073	O	0.401399	0.194978	0.517705
	O6074	O	0.451100	0.194994	0.613070
	O6075	O	0.451203	0.311046	0.613101
	O6076	O	0.422011	0.194954	0.614512
	O6077	O	0.422004	0.310871	0.614544
	O6078	O	0.401354	0.310835	0.517643
	O6079	O	0.430495	0.311344	0.516540
	H6080	H	0.385359	0.644245	0.590377
	H6081	H	0.385419	0.861545	0.590430
	H6082	H	0.385508	0.143536	0.590411
	H6083	H	0.385662	0.361230	0.590214
	H6084	H	0.376601	0.860823	0.545475
	H6085	H	0.376379	0.644973	0.545394
	H6086	H	0.376307	0.361158	0.545365
	H6087	H	0.376469	0.144676	0.545439
	H6088	H	0.501277	0.065150	0.561797
	H6089	H	0.501475	0.064789	0.561636
	H6090	H	0.501438	0.941166	0.561629
	H6091	H	0.501254	0.941573	0.561816
	H6092	H	0.500882	0.064695	0.561807
	H6093	H	0.500826	0.941567	0.561772
	H6094	H	0.355027	0.064872	0.569710
	H6095	H	0.355139	0.940997	0.569678
	H6096	H	0.354136	0.064290	0.567779
	H6097	H	0.354191	0.941315	0.567767
	H6098	H	0.350259	0.064513	0.567014
	H6099	H	0.350244	0.941659	0.567038
	H6100	H	0.353344	0.440863	0.571212
	H6101	H	0.354908	0.441241	0.569725
	H6102	H	0.349509	0.441332	0.570864
	H6103	H	0.502754	0.441000	0.561618
	H6104	H	0.501661	0.441264	0.562673
	H6105	H	0.500218	0.441196	0.562532
	H6106	H	0.354856	0.564059	0.569767
	H6107	H	0.353246	0.564393	0.571197
	H6108	H	0.500319	0.564620	0.562569
	H6109	H	0.501696	0.564097	0.562662
	H6110	H	0.502787	0.564516	0.561670
	H6111	H	0.349546	0.564743	0.570834
	H6112	H	0.476486	0.645050	0.585490
	H6113	H	0.476668	0.861574	0.585492
	H6114	H	0.476650	0.144827	0.585566
	H6115	H	0.476800	0.361222	0.585628
	H6116	H	0.389503	0.644705	0.530646
	H6117	H	0.447805	0.644522	0.527909
	H6118	H	0.447790	0.861646	0.527878
	H6119	H	0.389725	0.860832	0.530724
	H6120	H	0.467202	0.644439	0.540560
	H6121	H	0.467168	0.861671	0.540561
	H6122	H	0.463144	0.645143	0.600143
	H6123	H	0.463307	0.861636	0.600130
	H6124	H	0.414448	0.441048	0.504892
	H6125	H	0.438595	0.441400	0.622751
	H6126	H	0.416660	0.441610	0.506489
	H6127	H	0.416108	0.441408	0.507987
	H6128	H	0.436964	0.441477	0.624867
	H6129	H	0.436699	0.441311	0.623664
	H6130	H	0.438593	0.564323	0.622773
	H6131	H	0.414480	0.564468	0.504930
	H6132	H	0.436709	0.564558	0.623716
	H6133	H	0.437012	0.564527	0.624869
	H6134	H	0.416086	0.564677	0.508001
	H6135	H	0.416722	0.564781	0.506514
	H6136	H	0.463165	0.145005	0.600128
	H6137	H	0.463318	0.361134	0.600204
	H6138	H	0.414188	0.064381	0.507052
	H6139	H	0.414463	0.064580	0.506845
	H6140	H	0.413559	0.064491	0.506984
	H6141	H	0.404727	0.861496	0.603183
	H6142	H	0.404698	0.643983	0.603110
	H6143	H	0.404816	0.361552	0.603031
	H6144	H	0.404674	0.144105	0.603236
	H6145	H	0.389622	0.144818	0.530715
	H6146	H	0.447791	0.144938	0.527880
	H6147	H	0.447885	0.361603	0.527826
	H6148	H	0.389436	0.361206	0.530652
	H6149	H	0.467064	0.145197	0.540639
	H6150	H	0.467121	0.361461	0.540584
	H6151	H	0.440124	0.064059	0.622196
	H6152	H	0.437316	0.063687	0.622057
	H6153	H	0.435434	0.064633	0.624223
	H6154	H	0.414468	0.941139	0.506829
	H6155	H	0.414182	0.941060	0.507062
	H6156	H	0.413632	0.940663	0.506993
	H6157	H	0.440234	0.940794	0.622146
	H6158	H	0.437397	0.941378	0.622070
	H6159	H	0.435444	0.941495	0.624208
	Zn6160	Zn	0.351583	0.680259	0.569222
	Zn6161	Zn	0.351584	0.825518	0.569270
	Zn6162	Zn	0.351509	0.180229	0.569271
	Zn6163	Zn	0.351572	0.325651	0.569295
	Zn6164	Zn	0.438815	0.680100	0.624118
	Zn6165	Zn	0.438831	0.825526	0.624124
	Zn6166	Zn	0.438738	0.179914	0.624146
	Zn6167	Zn	0.438821	0.325651	0.624170
	C6168	C	0.479994	0.753121	0.548951
	C6169	C	0.372624	0.752802	0.582006
	C6170	C	0.384281	0.752959	0.589655
	C6171	C	0.389695	0.691400	0.593232
	C6172	C	0.389737	0.814379	0.593262
	C6173	C	0.372733	0.252509	0.581943
	C6174	C	0.384408	0.252458	0.589572
	C6175	C	0.389805	0.190937	0.593222
	C6176	C	0.389887	0.314104	0.593120
	C6177	C	0.367672	0.753007	0.555051
	C6178	C	0.375791	0.752959	0.546314
	C6179	C	0.379504	0.814066	0.542176
	C6180	C	0.379375	0.691763	0.542129
	C6181	C	0.367553	0.252769	0.555012
	C6182	C	0.375643	0.252844	0.546267
	C6183	C	0.379289	0.314143	0.542115
	C6184	C	0.379378	0.191589	0.542150
	C6185	C	0.501309	0.043482	0.561704
	C6186	C	0.501302	0.962588	0.561682
	C6187	C	0.353788	0.043306	0.568863
	C6188	C	0.353826	0.962360	0.568864
	C6189	C	0.349831	0.043366	0.568119
	C6190	C	0.349860	0.962613	0.568114
	C6191	C	0.353431	0.462439	0.570147
	C6192	C	0.502125	0.462450	0.561309
	C6193	C	0.501011	0.462434	0.562341
	C6194	C	0.353420	0.543202	0.570164
	C6195	C	0.501025	0.543300	0.562345
	C6196	C	0.502110	0.543344	0.561323
	C6197	C	0.485556	0.753088	0.575957
	C6198	C	0.485654	0.252877	0.576021
	C6199	C	0.477389	0.753278	0.584673
	C6200	C	0.473542	0.692004	0.588765
	C6201	C	0.473652	0.814659	0.588758
	C6202	C	0.477539	0.253095	0.584766
	C6203	C	0.473737	0.191792	0.588849
	C6204	C	0.473818	0.314352	0.588886
	C6205	C	0.479917	0.253316	0.548996
	C6206	C	0.435059	0.753063	0.519453
	C6207	C	0.398313	0.752611	0.521011
	C6208	C	0.417594	0.752836	0.611528
	C6209	C	0.462855	0.691668	0.537757
	C6210	C	0.462868	0.814475	0.537727
	C6211	C	0.446723	0.753117	0.527060
	C6212	C	0.390370	0.752735	0.529823
	C6213	C	0.386641	0.691612	0.533952
	C6214	C	0.452148	0.691659	0.530688
	C6215	C	0.452156	0.814572	0.530658
	C6216	C	0.386759	0.813947	0.533995
	C6217	C	0.468336	0.753076	0.541333
	C6218	C	0.454398	0.753209	0.609747
	C6219	C	0.466158	0.692084	0.596885
	C6220	C	0.466254	0.814613	0.596874
	C6221	C	0.462499	0.753361	0.601016
	C6222	C	0.439243	0.462621	0.623313
	C6223	C	0.415742	0.462574	0.507099
	C6224	C	0.437351	0.462566	0.624243
	C6225	C	0.439217	0.543306	0.623306
	C6226	C	0.437348	0.543265	0.624236
	C6227	C	0.415760	0.543431	0.507104
	C6228	C	0.454326	0.253008	0.609752
	C6229	C	0.466272	0.191823	0.596932
	C6230	C	0.466359	0.314316	0.596974
	C6231	C	0.462553	0.253066	0.601061
	C6232	C	0.414201	0.043075	0.506911
	C6233	C	0.435066	0.253270	0.519432
	C6234	C	0.398268	0.252990	0.521047
	C6235	C	0.417512	0.252936	0.611593
	C6236	C	0.462817	0.192064	0.537767
	C6237	C	0.462846	0.314512	0.537742
	C6238	C	0.446730	0.253247	0.527052
	C6239	C	0.390274	0.253026	0.529825
	C6240	C	0.405886	0.752756	0.603937
	C6241	C	0.400434	0.814256	0.600345
	C6242	C	0.400406	0.691345	0.600300
	C6243	C	0.405898	0.252830	0.603929
	C6244	C	0.400527	0.314240	0.600233
	C6245	C	0.400462	0.191247	0.600332
	C6246	C	0.386653	0.191665	0.533986
	C6247	C	0.452127	0.192072	0.530688
	C6248	C	0.452159	0.314563	0.530659
	C6249	C	0.386561	0.314304	0.533950
	C6250	C	0.468278	0.253236	0.541364
	C6251	C	0.438737	0.042971	0.622679
	C6252	C	0.413584	0.043267	0.506840
	C6253	C	0.414202	0.962382	0.506906
	C6254	C	0.438781	0.962282	0.622668
	C6255	C	0.413621	0.962421	0.506834
	N6256	N	0.351552	0.070121	0.569251
	N6257	N	0.351615	0.935576	0.569268
	N6258	N	0.351616	0.435647	0.569258
	N6259	N	0.351615	0.570174	0.569243
	N6260	N	0.438731	0.435779	0.624169
	N6261	N	0.438724	0.570264	0.624158
	N6262	N	0.438743	0.070090	0.624115
	N6263	N	0.438784	0.935559	0.624141
	O6264	O	0.509299	0.695063	0.669224
	O6265	O	0.509534	0.811078	0.669109
	O6266	O	0.393100	0.695201	0.696301
	O6267	O	0.392967	0.811165	0.696376
	O6268	O	0.393104	0.195147	0.696260
	O6269	O	0.393171	0.311183	0.696253
	O6270	O	0.388696	0.694726	0.675562
	O6271	O	0.388757	0.810889	0.675595
	O6272	O	0.388694	0.194830	0.675538
	O6273	O	0.388684	0.310748	0.675589
	O6274	O	0.513131	0.695171	0.689882
	O6275	O	0.513200	0.810814	0.689896
	O6276	O	0.513190	0.193965	0.689939
	O6277	O	0.513106	0.310094	0.689894
	O6278	O	0.509265	0.194574	0.669231
	O6279	O	0.509324	0.310730	0.669251
	O6280	O	0.455490	0.695449	0.633800
	O6281	O	0.426402	0.694938	0.635160
	O6282	O	0.476057	0.694950	0.730529
	O6283	O	0.476024	0.811001	0.730536
	O6284	O	0.446901	0.694810	0.731725
	O6285	O	0.446931	0.811118	0.731738
	O6286	O	0.426254	0.810761	0.635133
	O6287	O	0.455493	0.811314	0.633794
	O6288	O	0.455531	0.195151	0.633743
	O6289	O	0.426545	0.195251	0.635235
	O6290	O	0.476106	0.194330	0.730572
	O6291	O	0.476043	0.310576	0.730492
	O6292	O	0.446748	0.195208	0.731785
	O6293	O	0.446874	0.311078	0.731745
	O6294	O	0.426509	0.310881	0.635244
	O6295	O	0.455547	0.311198	0.633784
	H6296	H	0.410339	0.644764	0.707667
	H6297	H	0.410322	0.861633	0.707701
	H6298	H	0.410355	0.145654	0.707611
	H6299	H	0.410382	0.360750	0.707617
	H6300	H	0.400796	0.860966	0.662677
	H6301	H	0.400920	0.644657	0.662727
	H6302	H	0.400803	0.360571	0.662668
	H6303	H	0.400600	0.145184	0.662550
	H6304	H	0.525785	0.064617	0.679623
	H6305	H	0.526592	0.064492	0.679503
	H6306	H	0.526548	0.941117	0.679504
	H6307	H	0.525752	0.940730	0.679595
	H6308	H	0.524927	0.064569	0.678986
	H6309	H	0.524953	0.941237	0.679005
	H6310	H	0.375090	0.064840	0.686281
	H6311	H	0.375114	0.941162	0.686301
	H6312	H	0.375190	0.064666	0.687079
	H6313	H	0.375178	0.941151	0.687054
	H6314	H	0.376644	0.064394	0.687593
	H6315	H	0.376640	0.941290	0.687559
	H6316	H	0.375375	0.441127	0.687262
	H6317	H	0.376490	0.440616	0.687540
	H6318	H	0.375182	0.441255	0.686257
	H6319	H	0.526425	0.441260	0.678209
	H6320	H	0.527145	0.440905	0.679140
	H6321	H	0.526522	0.441315	0.679683
	H6322	H	0.376500	0.564593	0.687599
	H6323	H	0.375398	0.564656	0.687272
	H6324	H	0.526524	0.564122	0.679676
	H6325	H	0.527113	0.564704	0.679122
	H6326	H	0.526491	0.564584	0.678247
	H6327	H	0.375144	0.564438	0.686228
	H6328	H	0.501208	0.644916	0.702859
	H6329	H	0.501212	0.860759	0.702862
	H6330	H	0.501319	0.143774	0.702965
	H6331	H	0.501132	0.360553	0.702823
	H6332	H	0.414380	0.644681	0.648136
	H6333	H	0.472874	0.645062	0.645070
	H6334	H	0.472687	0.861143	0.645190
	H6335	H	0.414238	0.861226	0.648076
	H6336	H	0.492091	0.644959	0.657848
	H6337	H	0.491947	0.861159	0.657960
	H6338	H	0.487954	0.645136	0.717543
	H6339	H	0.487962	0.860648	0.717545
	H6340	H	0.440206	0.441488	0.623278
	H6341	H	0.462304	0.441223	0.741102
	H6342	H	0.440613	0.441149	0.624860
	H6343	H	0.439203	0.441172	0.625512
	H6344	H	0.463748	0.441098	0.742284
	H6345	H	0.462693	0.441100	0.742060
	H6346	H	0.462297	0.564783	0.741099
	H6347	H	0.440227	0.564897	0.623228
	H6348	H	0.462703	0.564261	0.742081
	H6349	H	0.463732	0.564197	0.742290
	H6350	H	0.439224	0.564696	0.625514
	H6351	H	0.440597	0.565097	0.624859
	H6352	H	0.488099	0.144049	0.717662
	H6353	H	0.487967	0.360745	0.717546
	H6354	H	0.440653	0.065125	0.626026
	H6355	H	0.442051	0.064421	0.624453
	H6356	H	0.436848	0.065061	0.625907
	H6357	H	0.429581	0.861675	0.720456
	H6358	H	0.429587	0.644710	0.720428
	H6359	H	0.429567	0.360816	0.720420
	H6360	H	0.429553	0.145384	0.720415
	H6361	H	0.414150	0.145453	0.648003
	H6362	H	0.472798	0.144621	0.645089
	H6363	H	0.472797	0.361169	0.645152
	H6364	H	0.414329	0.360333	0.648120
	H6365	H	0.492039	0.144733	0.657847
	H6366	H	0.492048	0.360993	0.657946
	H6367	H	0.463082	0.064703	0.741497
	H6368	H	0.463336	0.064860	0.741722
	H6369	H	0.463874	0.064618	0.741641
	H6370	H	0.442153	0.941086	0.624487
	H6371	H	0.440713	0.941621	0.626012
	H6372	H	0.436886	0.941150	0.625934
	H6373	H	0.463067	0.941597	0.741476
	H6374	H	0.463233	0.941432	0.741685
	H6375	H	0.463736	0.941021	0.741682
	Zn6376	Zn	0.376365	0.680018	0.686678
	Zn6377	Zn	0.376316	0.825658	0.686631
	Zn6378	Zn	0.376401	0.180080	0.686676
	Zn6379	Zn	0.376333	0.325662	0.686649
	Zn6380	Zn	0.463486	0.680139	0.741481
	Zn6381	Zn	0.463490	0.825695	0.741497
	Zn6382	Zn	0.463487	0.180041	0.741471
	Zn6383	Zn	0.463466	0.325653	0.741449
	C6384	C	0.504889	0.753127	0.666255
	C6385	C	0.397550	0.753177	0.699267
	C6386	C	0.409260	0.753169	0.706873
	C6387	C	0.414671	0.691817	0.710482
	C6388	C	0.414646	0.814561	0.710497
	C6389	C	0.397629	0.253178	0.699195
	C6390	C	0.409230	0.253178	0.706855
	C6391	C	0.414639	0.192285	0.710451
	C6392	C	0.414664	0.314043	0.710464
	C6393	C	0.391942	0.752815	0.672263
	C6394	C	0.400099	0.752868	0.663550
	C6395	C	0.403803	0.814127	0.659429
	C6396	C	0.403875	0.691611	0.659450
	C6397	C	0.391843	0.252852	0.672215
	C6398	C	0.399986	0.252890	0.663500
	C6399	C	0.403827	0.313835	0.659429
	C6400	C	0.403713	0.191885	0.659361
	C6401	C	0.526121	0.043391	0.679402
	C6402	C	0.526124	0.962401	0.679387
	C6403	C	0.375462	0.043298	0.686667
	C6404	C	0.375455	0.962278	0.686670
	C6405	C	0.376936	0.043254	0.687191
	C6406	C	0.376910	0.962420	0.687189
	C6407	C	0.376050	0.462412	0.687192
	C6408	C	0.525926	0.462787	0.678390
	C6409	C	0.526586	0.462322	0.679270
	C6410	C	0.376055	0.543325	0.687233
	C6411	C	0.526573	0.543198	0.679293
	C6412	C	0.525917	0.543510	0.678390
	C6413	C	0.510015	0.753010	0.693245
	C6414	C	0.509994	0.252058	0.693260
	C6415	C	0.501928	0.752925	0.701987
	C6416	C	0.498202	0.691805	0.706113
	C6417	C	0.498221	0.814035	0.706115
	C6418	C	0.501973	0.252152	0.702033
	C6419	C	0.498336	0.190870	0.706199
	C6420	C	0.498251	0.313574	0.706130
	C6421	C	0.504758	0.252707	0.666333
	C6422	C	0.460008	0.753353	0.636721
	C6423	C	0.423184	0.752863	0.638510
	C6424	C	0.442409	0.753035	0.728813
	C6425	C	0.487847	0.691933	0.654999
	C6426	C	0.487775	0.814180	0.655052
	C6427	C	0.471706	0.753157	0.644338
	C6428	C	0.415043	0.752984	0.647234
	C6429	C	0.411302	0.691704	0.651352
	C6430	C	0.477155	0.691961	0.647921
	C6431	C	0.477071	0.814293	0.647985
	C6432	C	0.411226	0.814218	0.651332
	C6433	C	0.493275	0.753021	0.658620
	C6434	C	0.479216	0.752948	0.727187
	C6435	C	0.490903	0.691752	0.714265
	C6436	C	0.490934	0.813993	0.714279
	C6437	C	0.487245	0.752867	0.718415
	C6438	C	0.462902	0.462725	0.741010
	C6439	C	0.439600	0.462571	0.624916
	C6440	C	0.463310	0.462394	0.741958
	C6441	C	0.462903	0.543500	0.741025
	C6442	C	0.463310	0.543187	0.741983
	C6443	C	0.439586	0.543790	0.624905
	C6444	C	0.479223	0.252430	0.727183
	C6445	C	0.491032	0.190961	0.714349
	C6446	C	0.490959	0.313725	0.714285
	C6447	C	0.487306	0.252366	0.718441
	C6448	C	0.440650	0.043404	0.624963
	C6449	C	0.460055	0.253107	0.636693
	C6450	C	0.423296	0.253001	0.638550
	C6451	C	0.442293	0.253194	0.728846
	C6452	C	0.487727	0.191698	0.655044
	C6453	C	0.487731	0.314097	0.655093
	C6454	C	0.471671	0.252956	0.644343
	C6455	C	0.415070	0.252819	0.647238
	C6456	C	0.430786	0.753252	0.721168
	C6457	C	0.425324	0.814653	0.717582
	C6458	C	0.425335	0.691854	0.717578
	C6459	C	0.430669	0.253174	0.721200
	C6460	C	0.425292	0.314158	0.717579
	C6461	C	0.425270	0.192226	0.717565
	C6462	C	0.411192	0.191939	0.651283
	C6463	C	0.477074	0.191664	0.647947
	C6464	C	0.477084	0.314150	0.647989
	C6465	C	0.411298	0.313690	0.651348
	C6466	C	0.493126	0.252875	0.658707
	C6467	C	0.463271	0.043437	0.741543
	C6468	C	0.436814	0.043522	0.624821
	C6469	C	0.440705	0.962597	0.624984
	C6470	C	0.463269	0.962618	0.741544
	C6471	C	0.436834	0.962545	0.624837
	N6472	N	0.376412	0.070157	0.686655
	N6473	N	0.376375	0.935629	0.686649
	N6474	N	0.376390	0.435445	0.686653
	N6475	N	0.376377	0.569954	0.686677
	N6476	N	0.463511	0.435716	0.741427
	N6477	N	0.463500	0.570219	0.741463
	N6478	N	0.463525	0.070220	0.741472
	N6479	N	0.463504	0.935722	0.741499
	O6480	O	0.527198	0.694749	0.790827
	O6481	O	0.527097	0.811074	0.790803
	O6482	O	0.417010	0.694593	0.814275
	O6483	O	0.416930	0.810702	0.814350
	O6484	O	0.416975	0.194773	0.814264
	O6485	O	0.416910	0.310860	0.814341
	O6486	O	0.413514	0.695002	0.793076
	O6487	O	0.413697	0.810871	0.793194
	O6488	O	0.413607	0.195190	0.793052
	O6489	O	0.413514	0.311213	0.793040
	O6490	O	0.526028	0.694653	0.810814
	O6491	O	0.525977	0.811428	0.810752
	O6492	O	0.525950	0.194383	0.810704
	O6493	O	0.525999	0.311133	0.810770
	O6494	O	0.527159	0.194795	0.790771
	O6495	O	0.527053	0.310908	0.790850
	O6496	O	0.479364	0.694810	0.751746
	O6497	O	0.450658	0.695213	0.752408
	O6498	O	0.492997	0.694865	0.853370
	O6499	O	0.492885	0.811309	0.853345
	O6500	O	0.464834	0.694167	0.853353
	O6501	O	0.464757	0.810517	0.853366
	O6502	O	0.450794	0.811247	0.752497
	O6503	O	0.479350	0.810885	0.751778
	O6504	O	0.479369	0.194992	0.751742
	O6505	O	0.450785	0.195073	0.752418
	O6506	O	0.493110	0.193989	0.853396
	O6507	O	0.493089	0.310380	0.853402
	O6508	O	0.464793	0.194968	0.853330
	O6509	O	0.464800	0.311371	0.853339
	O6510	O	0.450758	0.311341	0.752459
	O6511	O	0.479388	0.311158	0.751722
	H6512	H	0.432541	0.643886	0.826680
	H6513	H	0.432260	0.861063	0.826831
	H6514	H	0.432349	0.144476	0.826813
	H6515	H	0.432244	0.361469	0.826828
	H6516	H	0.425485	0.861200	0.780114
	H6517	H	0.425384	0.645103	0.780077
	H6518	H	0.425351	0.361423	0.780011
	H6519	H	0.425742	0.144805	0.780159
	H6520	H	0.541346	0.064828	0.803645
	H6521	H	0.544199	0.064488	0.803643
	H6522	H	0.544149	0.941265	0.803661
	H6523	H	0.541259	0.941064	0.803627
	H6524	H	0.539144	0.064695	0.801360
	H6525	H	0.539108	0.941114	0.801336
	H6526	H	0.401045	0.064618	0.805517
	H6527	H	0.401129	0.941193	0.805541
	H6528	H	0.402789	0.064593	0.805016
	H6529	H	0.402812	0.941187	0.805027
	H6530	H	0.402878	0.064256	0.803270
	H6531	H	0.402893	0.941455	0.803332
	H6532	H	0.398270	0.441220	0.801498
	H6533	H	0.396547	0.440983	0.803700
	H6534	H	0.403516	0.441427	0.801535
	H6535	H	0.547881	0.440894	0.803991
	H6536	H	0.541290	0.441127	0.805679
	H6537	H	0.536999	0.440892	0.803394
	H6538	H	0.396518	0.564606	0.803706
	H6539	H	0.398324	0.564537	0.801528
	H6540	H	0.536997	0.564423	0.803409
	H6541	H	0.541302	0.564266	0.805727
	H6542	H	0.547930	0.564042	0.803971
	H6543	H	0.403498	0.564751	0.801601
	H6544	H	0.513938	0.643537	0.823888
	H6545	H	0.513797	0.862772	0.823810
	H6546	H	0.513854	0.142764	0.823802
	H6547	H	0.513952	0.362097	0.823874
	H6548	H	0.438601	0.645006	0.765375
	H6549	H	0.494785	0.644174	0.764251
	H6550	H	0.494808	0.861398	0.764180
	H6551	H	0.438698	0.861338	0.765423
	H6552	H	0.511749	0.644127	0.778364
	H6553	H	0.511808	0.861604	0.778302
	H6554	H	0.502711	0.643525	0.839368
	H6555	H	0.502580	0.862691	0.839306
	H6556	H	0.463057	0.441492	0.740603
	H6557	H	0.477128	0.441062	0.864512
	H6558	H	0.464513	0.441341	0.740888
	H6559	H	0.464767	0.441447	0.741618
	H6560	H	0.482243	0.441518	0.865746
	H6561	H	0.479852	0.441373	0.866186
	H6562	H	0.477174	0.564677	0.864562
	H6563	H	0.463032	0.564891	0.740651
	H6564	H	0.479824	0.564550	0.866172
	H6565	H	0.482286	0.564577	0.865771
	H6566	H	0.464784	0.564880	0.741644
	H6567	H	0.464516	0.564990	0.740957
	H6568	H	0.502759	0.142597	0.839325
	H6569	H	0.502848	0.361803	0.839414
	H6570	H	0.463644	0.064628	0.741132
	H6571	H	0.463240	0.064274	0.741145
	H6572	H	0.463980	0.064635	0.741429
	H6573	H	0.449271	0.860847	0.840931
	H6574	H	0.449552	0.643846	0.840794
	H6575	H	0.449254	0.361589	0.840918
	H6576	H	0.449362	0.144704	0.840902
	H6577	H	0.438940	0.144660	0.765467
	H6578	H	0.494639	0.144723	0.764256
	H6579	H	0.494711	0.361207	0.764246
	H6580	H	0.438584	0.361511	0.765357
	H6581	H	0.511629	0.144605	0.778348
	H6582	H	0.511710	0.360996	0.778352
	H6583	H	0.480638	0.064716	0.862749
	H6584	H	0.478873	0.064707	0.862935
	H6585	H	0.477976	0.065013	0.864312
	H6586	H	0.463244	0.941496	0.741218
	H6587	H	0.463630	0.941345	0.741188
	H6588	H	0.463938	0.941116	0.741472
	H6589	H	0.480593	0.941219	0.862804
	H6590	H	0.478909	0.941463	0.862915
	H6591	H	0.477995	0.941398	0.864335
	Zn6592	Zn	0.401063	0.680141	0.804081
	Zn6593	Zn	0.401101	0.825502	0.804097
	Zn6594	Zn	0.400988	0.180130	0.804001
	Zn6595	Zn	0.401075	0.325600	0.804027
	Zn6596	Zn	0.480183	0.680495	0.864214
	Zn6597	Zn	0.480080	0.825384	0.864174
	Zn6598	Zn	0.480044	0.180452	0.864137
	Zn6599	Zn	0.480101	0.325328	0.864154
	C6600	C	0.523072	0.752814	0.787614
	C6601	C	0.421023	0.752567	0.817526
	C6602	C	0.431411	0.752405	0.825921
	C6603	C	0.436282	0.691011	0.829862
	C6604	C	0.436118	0.813840	0.829937
	C6605	C	0.420981	0.252781	0.817528
	C6606	C	0.431329	0.252872	0.825953
	C6607	C	0.436133	0.191608	0.829942
	C6608	C	0.436085	0.314318	0.829947
	C6609	C	0.416708	0.752983	0.789756
	C6610	C	0.424749	0.753142	0.780968
	C6611	C	0.428474	0.814379	0.776844
	C6612	C	0.428408	0.691930	0.776821
	C6613	C	0.416716	0.253229	0.789696
	C6614	C	0.424791	0.253140	0.780944
	C6615	C	0.428404	0.314559	0.776790
	C6616	C	0.428590	0.191743	0.776841
	C6617	C	0.542736	0.043177	0.803102
	C6618	C	0.542714	0.962355	0.803105
	C6619	C	0.401667	0.043297	0.804930
	C6620	C	0.401704	0.962414	0.804959
	C6621	C	0.401801	0.043196	0.803208
	C6622	C	0.401799	0.962535	0.803240
	C6623	C	0.398362	0.462310	0.802970
	C6624	C	0.546702	0.462115	0.802073
	C6625	C	0.540038	0.462275	0.803788
	C6626	C	0.398385	0.543332	0.802982
	C6627	C	0.540068	0.543216	0.803813
	C6628	C	0.546729	0.543083	0.802088
	C6629	C	0.522535	0.753101	0.814038
	C6630	C	0.522554	0.252706	0.814011
	C6631	C	0.514580	0.753124	0.822923
	C6632	C	0.511344	0.691207	0.827299
	C6633	C	0.511277	0.815147	0.827259
	C6634	C	0.514675	0.252514	0.822919
	C6635	C	0.511355	0.190401	0.827256
	C6636	C	0.511413	0.314410	0.827304
	C6637	C	0.523039	0.252858	0.787614
	C6638	C	0.483392	0.752798	0.754983
	C6639	C	0.447535	0.753189	0.755790
	C6640	C	0.460741	0.752329	0.850148
	C6641	C	0.507970	0.691325	0.775218
	C6642	C	0.507981	0.814415	0.775187
	C6643	C	0.493748	0.752776	0.763399
	C6644	C	0.439458	0.753128	0.764536
	C6645	C	0.435703	0.691907	0.768662
	C6646	C	0.498580	0.691306	0.767378
	C6647	C	0.498589	0.814350	0.767342
	C6648	C	0.435762	0.814373	0.768687
	C6649	C	0.512734	0.752835	0.779191
	C6650	C	0.495561	0.753069	0.849732
	C6651	C	0.505185	0.691205	0.835921
	C6652	C	0.505114	0.815087	0.835884
	C6653	C	0.502165	0.753118	0.840361
	C6654	C	0.478151	0.462559	0.863807
	C6655	C	0.464349	0.462634	0.741302
	C6656	C	0.480848	0.462556	0.865510
	C6657	C	0.478201	0.543548	0.863830
	C6658	C	0.480879	0.543185	0.865532
	C6659	C	0.464351	0.543599	0.741331
	C6660	C	0.495760	0.252165	0.849773
	C6661	C	0.505265	0.190274	0.835902
	C6662	C	0.505312	0.314228	0.835942
	C6663	C	0.502378	0.252192	0.840403
	C6664	C	0.463474	0.043350	0.741219
	C6665	C	0.483425	0.253103	0.754949
	C6666	C	0.447600	0.253150	0.755778
	C6667	C	0.460698	0.253196	0.850144
	C6668	C	0.507906	0.191650	0.775199
	C6669	C	0.507964	0.314075	0.775192
	C6670	C	0.493782	0.252983	0.763359
	C6671	C	0.439517	0.253083	0.764527
	C6672	C	0.450434	0.752336	0.841718
	C6673	C	0.445542	0.813717	0.837765
	C6674	C	0.445707	0.691028	0.837687
	C6675	C	0.450326	0.253120	0.841751
	C6676	C	0.445494	0.314429	0.837782
	C6677	C	0.445542	0.191778	0.837773
	C6678	C	0.435929	0.191693	0.768700
	C6679	C	0.498506	0.191720	0.767359
	C6680	C	0.498551	0.314179	0.767354
	C6681	C	0.435726	0.314462	0.768640
	C6682	C	0.512741	0.252805	0.779171
	C6683	C	0.479855	0.043300	0.863183
	C6684	C	0.463820	0.043388	0.741508
	C6685	C	0.463486	0.962600	0.741244
	C6686	C	0.479874	0.962590	0.863189
	C6687	C	0.463753	0.962382	0.741536
	N6688	N	0.401001	0.069978	0.804008
	N6689	N	0.401051	0.935434	0.804065
	N6690	N	0.401051	0.435655	0.804026
	N6691	N	0.401036	0.570162	0.804058
	N6692	N	0.480183	0.435616	0.864158
	N6693	N	0.480239	0.570243	0.864204
	N6694	N	0.480090	0.070256	0.864087
	N6695	N	0.480105	0.935661	0.864125
	O6696	O	0.476663	0.694546	0.924715
	O6697	O	0.476715	0.811267	0.924734
	O6698	O	0.428249	0.693879	0.939562
	O6699	O	0.428275	0.810512	0.939600
	O6700	O	0.428245	0.194600	0.939568
	O6701	O	0.428269	0.311405	0.939580
	O6702	O	0.430350	0.694740	0.915812
	O6703	O	0.430514	0.811348	0.915885
	O6704	O	0.430503	0.194405	0.915883
	O6705	O	0.430445	0.310812	0.915861
	O6706	O	0.474374	0.695033	0.948384
	O6707	O	0.474440	0.811444	0.948419
	O6708	O	0.474296	0.195187	0.948372
	O6709	O	0.474464	0.311446	0.948435
	O6710	O	0.476449	0.195132	0.924679
	O6711	O	0.476652	0.311879	0.924655
	O6712	O	0.490747	0.695028	0.877090
	O6713	O	0.463585	0.694437	0.873266
	O6714	O	0.441410	0.695024	0.991024
	O6715	O	0.441341	0.811639	0.991011
	O6716	O	0.414115	0.694025	0.987211
	O6717	O	0.414213	0.811039	0.987185
	O6718	O	0.463548	0.811114	0.873243
	O6719	O	0.490751	0.811820	0.877087
	O6720	O	0.490638	0.193951	0.877111
	O6721	O	0.463536	0.194447	0.873272
	O6722	O	0.441420	0.194615	0.991020
	O6723	O	0.441372	0.311411	0.991040
	O6724	O	0.414218	0.194503	0.987194
	O6725	O	0.414055	0.311475	0.987187
	O6726	O	0.463542	0.311071	0.873270
	O6727	O	0.490840	0.311027	0.877048
	H6728	H	0.424382	0.642116	0.954974
	H6729	H	0.424648	0.862030	0.955033
	H6730	H	0.424514	0.142580	0.955024
	H6731	H	0.424480	0.362598	0.954989
	H6732	H	0.440322	0.862426	0.901862
	H6733	H	0.440046	0.643741	0.901765
	H6734	H	0.440152	0.362301	0.901842
	H6735	H	0.440433	0.142974	0.901920
	H6736	H	0.481300	0.064897	0.938701
	H6737	H	0.484880	0.064372	0.941306
	H6738	H	0.484933	0.941379	0.941320
	H6739	H	0.481342	0.941223	0.938716
	H6740	H	0.483340	0.064739	0.934164
	H6741	H	0.483364	0.941536	0.934162
	H6742	H	0.420489	0.064268	0.929137
	H6743	H	0.420490	0.941061	0.929155
	H6744	H	0.422119	0.064303	0.926912
	H6745	H	0.422134	0.941154	0.926977
	H6746	H	0.419141	0.064390	0.923929
	H6747	H	0.419262	0.941300	0.923995
	H6748	H	0.416818	0.441141	0.928753
	H6749	H	0.419567	0.440853	0.928474
	H6750	H	0.414258	0.441524	0.926779
	H6751	H	0.492567	0.441126	0.932943
	H6752	H	0.495982	0.441556	0.939621
	H6753	H	0.490958	0.441378	0.943299
	H6754	H	0.419651	0.564792	0.928488
	H6755	H	0.416840	0.564632	0.928740
	H6756	H	0.490972	0.564867	0.943298
	H6757	H	0.495941	0.564653	0.939607
	H6758	H	0.492580	0.564825	0.932955
	H6759	H	0.414231	0.563926	0.926808
	H6760	H	0.464688	0.643962	0.962442
	H6761	H	0.464752	0.862818	0.962450
	H6762	H	0.464516	0.143497	0.962446
	H6763	H	0.464824	0.362936	0.962595
	H6764	H	0.451264	0.643567	0.886278
	H6765	H	0.486890	0.643362	0.892497
	H6766	H	0.486779	0.863170	0.892530
	H6767	H	0.451517	0.862455	0.886353
	H6768	H	0.480480	0.643002	0.909281
	H6769	H	0.480379	0.862896	0.909324
	H6770	H	0.453460	0.643779	0.977921
	H6771	H	0.453526	0.862841	0.977940
	H6772	H	0.477683	0.441250	0.862817
	H6773	H	0.426237	0.442075	1.002657
	H6774	H	0.481019	0.441396	0.862265
	H6775	H	0.482934	0.441694	0.863429
	H6776	H	0.427404	0.441297	0.998127
	H6777	H	0.428873	0.441382	1.000274
	H6778	H	0.426282	0.564734	1.002656
	H6779	H	0.477692	0.564699	0.862853
	H6780	H	0.428915	0.565124	1.000313
	H6781	H	0.427533	0.564792	0.998163
	H6782	H	0.483013	0.565260	0.863490
	H6783	H	0.481104	0.564923	0.862283
	H6784	H	0.453452	0.143558	0.977973
	H6785	H	0.453743	0.362420	0.978124
	H6786	H	0.481473	0.064230	0.865158
	H6787	H	0.482154	0.064299	0.864106
	H6788	H	0.479080	0.064403	0.865276
	H6789	H	0.418228	0.862260	0.971793
	H6790	H	0.417876	0.642381	0.971786
	H6791	H	0.417913	0.362711	0.971759
	H6792	H	0.417952	0.142792	0.971809
	H6793	H	0.451591	0.143009	0.886431
	H6794	H	0.486845	0.142895	0.892486
	H6795	H	0.487054	0.362554	0.892473
	H6796	H	0.451317	0.362478	0.886352
	H6797	H	0.480282	0.142998	0.909257
	H6798	H	0.480491	0.362933	0.909244
	H6799	H	0.429414	0.064741	1.002105
	H6800	H	0.429857	0.065376	0.999104
	H6801	H	0.424878	0.064404	0.996529
	H6802	H	0.482208	0.940499	0.864145
	H6803	H	0.481512	0.941254	0.865171
	H6804	H	0.479082	0.941338	0.865386
	H6805	H	0.429434	0.941717	1.002092
	H6806	H	0.429916	0.941305	0.999134
	H6807	H	0.424968	0.941104	0.996529
	Zn6808	Zn	0.417558	0.679888	0.926661
	Zn6809	Zn	0.417623	0.825466	0.926735
	Zn6810	Zn	0.417538	0.180018	0.926657
	Zn6811	Zn	0.417592	0.325678	0.926668
	Zn6812	Zn	0.424954	0.680445	1.000122
	Zn6813	Zn	0.424876	0.825767	1.000120
	Zn6814	Zn	0.424822	0.180471	1.000075
	Zn6815	Zn	0.424808	0.325904	1.000067
	C6816	C	0.477243	0.752943	0.920636
	C6817	C	0.427713	0.752090	0.943682
	C6818	C	0.425052	0.752050	0.954018
	C6819	C	0.423031	0.689896	0.958740
	C6820	C	0.423192	0.814312	0.958755
	C6821	C	0.427696	0.252937	0.943662
	C6822	C	0.424994	0.252633	0.953995
	C6823	C	0.423094	0.190418	0.958754
	C6824	C	0.423079	0.314859	0.958733
	C6825	C	0.433044	0.753086	0.912229
	C6826	C	0.439654	0.753169	0.902836
	C6827	C	0.442709	0.814956	0.898382
	C6828	C	0.442550	0.691311	0.898326
	C6829	C	0.433139	0.252631	0.912261
	C6830	C	0.439768	0.252725	0.902891
	C6831	C	0.442676	0.314744	0.898416
	C6832	C	0.442818	0.190637	0.898458
	C6833	C	0.484142	0.043621	0.939365
	C6834	C	0.484160	0.962557	0.939369
	C6835	C	0.420350	0.043222	0.927703
	C6836	C	0.420367	0.962381	0.927746
	C6837	C	0.417397	0.043274	0.924717
	C6838	C	0.417448	0.962427	0.924741
	C6839	C	0.418065	0.462208	0.928099
	C6840	C	0.488433	0.462707	0.933673
	C6841	C	0.491813	0.462643	0.940426
	C6842	C	0.418070	0.543375	0.928105
	C6843	C	0.491809	0.543320	0.940445
	C6844	C	0.488424	0.543752	0.933694
	C6845	C	0.471772	0.753219	0.952025
	C6846	C	0.471760	0.253317	0.952047
	C6847	C	0.465141	0.753325	0.961401
	C6848	C	0.462169	0.691437	0.965873
	C6849	C	0.462209	0.815176	0.965886
	C6850	C	0.465219	0.253254	0.961450
	C6851	C	0.462151	0.191270	0.965892
	C6852	C	0.462329	0.315058	0.965984
	C6853	C	0.477101	0.253386	0.920579
	C6854	C	0.490174	0.753462	0.881165
	C6855	C	0.460092	0.752790	0.876507
	C6856	C	0.414731	0.752467	0.983138
	C6857	C	0.481853	0.690857	0.905554
	C6858	C	0.481788	0.815210	0.905579
	C6859	C	0.487438	0.753285	0.891502
	C6860	C	0.452090	0.753004	0.885377
	C6861	C	0.448751	0.691130	0.889717
	C6862	C	0.485518	0.691060	0.896245
	C6863	C	0.485454	0.815308	0.896269
	C6864	C	0.448883	0.814927	0.889762
	C6865	C	0.479902	0.752977	0.910308
	C6866	C	0.444847	0.753365	0.987760
	C6867	C	0.456027	0.691398	0.974502
	C6868	C	0.456067	0.815252	0.974512
	C6869	C	0.452780	0.753392	0.978882
	C6870	C	0.424606	0.462849	1.001861
	C6871	C	0.481557	0.462658	0.863201
	C6872	C	0.427268	0.462637	0.999427
	C6873	C	0.424610	0.543474	1.001865
	C6874	C	0.427313	0.543775	0.999452
	C6875	C	0.481604	0.543650	0.863218
	C6876	C	0.444893	0.253068	0.987804
	C6877	C	0.456041	0.191091	0.974536
	C6878	C	0.456213	0.315033	0.974623
	C6879	C	0.452888	0.253069	0.978935
	C6880	C	0.481354	0.043253	0.864510
	C6881	C	0.490200	0.252623	0.881146
	C6882	C	0.460086	0.252762	0.876541
	C6883	C	0.414669	0.253020	0.983122
	C6884	C	0.481762	0.190733	0.905526
	C6885	C	0.481868	0.315127	0.905515
	C6886	C	0.487460	0.252762	0.891483
	C6887	C	0.452161	0.252740	0.885435
	C6888	C	0.417490	0.752287	0.972801
	C6889	C	0.419499	0.814347	0.968051
	C6890	C	0.419324	0.690062	0.968038
	C6891	C	0.417387	0.252823	0.972772
	C6892	C	0.419341	0.314926	0.968025
	C6893	C	0.419360	0.190533	0.968053
	C6894	C	0.448948	0.190704	0.889830
	C6895	C	0.485487	0.190652	0.896229
	C6896	C	0.485610	0.314948	0.896223
	C6897	C	0.448817	0.314741	0.889786
	C6898	C	0.479841	0.253057	0.910244
	C6899	C	0.428358	0.043694	1.000479
	C6900	C	0.478946	0.043393	0.864635
	C6901	C	0.481393	0.962307	0.864525
	C6902	C	0.428375	0.962684	1.000472
	C6903	C	0.478960	0.962477	0.864667
	N6904	N	0.417608	0.070183	0.926694
	N6905	N	0.417658	0.935635	0.926743
	N6906	N	0.417660	0.435467	0.926620
	N6907	N	0.417606	0.569944	0.926642
	N6908	N	0.424788	0.435970	1.000082
	N6909	N	0.424860	0.570512	1.000077
	N6910	N	0.424744	0.070380	1.000106
	N6911	N	0.424798	0.935838	1.000094
	O6912	O	0.625342	0.694761	0.049719
	O6913	O	0.625416	0.811110	0.049685
	O6914	O	0.517031	0.695508	0.072087
	O6915	O	0.517189	0.811487	0.072088
	O6916	O	0.517101	0.194955	0.072118
	O6917	O	0.517258	0.311090	0.072105
	O6918	O	0.514844	0.694934	0.050840
	O6919	O	0.514775	0.811182	0.050871
	O6920	O	0.514632	0.195021	0.050777
	O6921	O	0.514786	0.311079	0.050870
	O6922	O	0.623895	0.694572	0.069692
	O6923	O	0.623988	0.811098	0.069749
	O6924	O	0.623903	0.194148	0.069656
	O6925	O	0.624007	0.310707	0.069745
	O6926	O	0.625378	0.194525	0.049744
	O6927	O	0.625466	0.310716	0.049753
	O6928	O	0.579449	0.695315	0.009680
	O6929	O	0.550936	0.694800	0.009756
	O6930	O	0.591023	0.694748	0.112405
	O6931	O	0.591041	0.811257	0.112355
	O6932	O	0.562902	0.694761	0.112188
	O6933	O	0.563027	0.810903	0.112220
	O6934	O	0.550847	0.810891	0.009737
	O6935	O	0.579520	0.811640	0.009609
	O6936	O	0.579493	0.195250	0.009623
	O6937	O	0.551026	0.195024	0.009774
	O6938	O	0.591062	0.194658	0.112372
	O6939	O	0.590963	0.310770	0.112310
	O6940	O	0.562943	0.194573	0.112323
	O6941	O	0.563110	0.310876	0.112233
	O6942	O	0.550951	0.311077	0.009758
	O6943	O	0.579618	0.311508	0.009618
	H6944	H	0.531942	0.645098	0.084842
	H6945	H	0.531947	0.861464	0.084933
	H6946	H	0.531955	0.144053	0.084883
	H6947	H	0.532124	0.361702	0.084932
	H6948	H	0.526342	0.861570	0.037717
	H6949	H	0.526562	0.644822	0.037755
	H6950	H	0.526694	0.361610	0.037864
	H6951	H	0.526221	0.144299	0.037617
	H6952	H	0.630113	0.064987	0.062887
	H6953	H	0.636820	0.065080	0.067569
	H6954	H	0.636855	0.941408	0.067498
	H6955	H	0.630118	0.941494	0.062850
	H6956	H	0.633286	0.065231	0.054686
	H6957	H	0.633288	0.941897	0.054698
	H6958	H	0.502889	0.064471	0.060887
	H6959	H	0.502913	0.941085	0.060911
	H6960	H	0.501642	0.064806	0.060427
	H6961	H	0.501675	0.941266	0.060416
	H6962	H	0.500074	0.063963	0.061032
	H6963	H	0.500072	0.941086	0.061074
	H6964	H	0.498279	0.440769	0.062170
	H6965	H	0.500274	0.441039	0.063625
	H6966	H	0.499450	0.441056	0.059642
	H6967	H	0.643478	0.441328	0.060015
	H6968	H	0.642555	0.441689	0.062361
	H6969	H	0.640006	0.441665	0.062711
	H6970	H	0.500256	0.563938	0.063610
	H6971	H	0.498276	0.564347	0.062129
	H6972	H	0.639966	0.564910	0.062672
	H6973	H	0.642529	0.564886	0.062401
	H6974	H	0.643457	0.564741	0.060029
	H6975	H	0.499425	0.565033	0.059626
	H6976	H	0.611937	0.643119	0.082895
	H6977	H	0.611788	0.862096	0.082805
	H6978	H	0.611752	0.142816	0.082770
	H6979	H	0.611840	0.361910	0.082770
	H6980	H	0.539340	0.644862	0.022883
	H6981	H	0.594252	0.644614	0.022427
	H6982	H	0.594390	0.862028	0.022396
	H6983	H	0.539144	0.861443	0.022870
	H6984	H	0.610483	0.644720	0.036968
	H6985	H	0.610619	0.861436	0.036884
	H6986	H	0.600838	0.643338	0.098422
	H6987	H	0.600694	0.862111	0.098324
	H6988	H	0.562576	0.441454	0.000517
	H6989	H	0.576845	0.441490	0.121640
	H6990	H	0.561323	0.441367	-0.001492
	H6991	H	0.562767	0.440975	-0.002650
	H6992	H	0.576845	0.441266	0.124633
	H6993	H	0.575573	0.441200	0.123377
	H6994	H	0.576776	0.565241	0.121639
	H6995	H	0.562519	0.564507	0.000474
	H6996	H	0.575561	0.565033	0.123375
	H6997	H	0.576794	0.564668	0.124624
	H6998	H	0.562799	0.564856	-0.002669
	H6999	H	0.561384	0.564308	-0.001538
	H7000	H	0.600722	0.142977	0.098300
	H7001	H	0.600766	0.362138	0.098272
	H7002	H	0.561435	0.064539	0.000302
	H7003	H	0.564055	0.064416	0.001229
	H7004	H	0.561107	0.064836	-0.002327
	H7005	H	0.548187	0.861223	0.099419
	H7006	H	0.548186	0.645058	0.099320
	H7007	H	0.548341	0.361389	0.099410
	H7008	H	0.548220	0.143895	0.099400
	H7009	H	0.539029	0.144588	0.022746
	H7010	H	0.594375	0.144305	0.022403
	H7011	H	0.594440	0.361908	0.022428
	H7012	H	0.539522	0.361594	0.022999
	H7013	H	0.610620	0.144135	0.036925
	H7014	H	0.610643	0.361783	0.036940
	H7015	H	0.573537	0.064860	0.125860
	H7016	H	0.578362	0.064519	0.127403
	H7017	H	0.584179	0.064514	0.124640
	H7018	H	0.564098	0.941348	0.001251
	H7019	H	0.561515	0.941053	0.000358
	H7020	H	0.561100	0.941633	-0.002283
	H7021	H	0.573510	0.941365	0.125824
	H7022	H	0.578411	0.941321	0.127394
	H7023	H	0.584113	0.941068	0.124612
	Zn7024	Zn	0.501654	0.680064	0.061522
	Zn7025	Zn	0.501623	0.825592	0.061549
	Zn7026	Zn	0.501567	0.180090	0.061522
	Zn7027	Zn	0.501634	0.325614	0.061580
	Zn7028	Zn	0.578056	0.680346	0.123165
	Zn7029	Zn	0.578129	0.825551	0.123163
	Zn7030	Zn	0.578139	0.180331	0.123228
	Zn7031	Zn	0.578100	0.325595	0.123174
	C7032	C	0.621445	0.752912	0.046424
	C7033	C	0.521018	0.753395	0.075385
	C7034	C	0.530968	0.753280	0.084007
	C7035	C	0.535548	0.692024	0.088076
	C7036	C	0.535532	0.814440	0.088141
	C7037	C	0.521087	0.252941	0.075415
	C7038	C	0.531009	0.252786	0.084073
	C7039	C	0.535588	0.191180	0.088143
	C7040	C	0.535671	0.314320	0.088161
	C7041	C	0.517896	0.753152	0.047473
	C7042	C	0.525734	0.753171	0.038626
	C7043	C	0.529256	0.814570	0.034426
	C7044	C	0.529381	0.691823	0.034439
	C7045	C	0.517846	0.253027	0.047466
	C7046	C	0.525738	0.252924	0.038638
	C7047	C	0.529438	0.314410	0.034507
	C7048	C	0.529172	0.191520	0.034356
	C7049	C	0.635363	0.043714	0.064022
	C7050	C	0.635352	0.962834	0.064011
	C7051	C	0.502084	0.043339	0.060891
	C7052	C	0.502094	0.962370	0.060886
	C7053	C	0.500486	0.043148	0.061519
	C7054	C	0.500476	0.962403	0.061533
	C7055	C	0.499848	0.462324	0.062554
	C7056	C	0.642067	0.462558	0.059736
	C7057	C	0.641120	0.462829	0.062052
	C7058	C	0.499870	0.543046	0.062537
	C7059	C	0.641109	0.543693	0.062036
	C7060	C	0.642053	0.543476	0.059708
	C7061	C	0.620509	0.752827	0.072999
	C7062	C	0.620487	0.252340	0.072953
	C7063	C	0.612570	0.752670	0.081884
	C7064	C	0.609379	0.690764	0.086299
	C7065	C	0.609296	0.814468	0.086241
	C7066	C	0.612562	0.252336	0.081845
	C7067	C	0.609253	0.190516	0.086200
	C7068	C	0.609294	0.314313	0.086201
	C7069	C	0.621538	0.252703	0.046444
	C7070	C	0.583363	0.753502	0.012948
	C7071	C	0.547786	0.752858	0.013125
	C7072	C	0.559044	0.752969	0.108909
	C7073	C	0.606908	0.691655	0.033702
	C7074	C	0.606971	0.814517	0.033664
	C7075	C	0.593341	0.753286	0.021559
	C7076	C	0.539912	0.753127	0.021979
	C7077	C	0.536410	0.691794	0.026173
	C7078	C	0.597895	0.691734	0.025660
	C7079	C	0.597967	0.814735	0.025622
	C7080	C	0.536298	0.814493	0.026168
	C7081	C	0.611500	0.753022	0.037785
	C7082	C	0.593625	0.752926	0.108744
	C7083	C	0.603251	0.690773	0.094931
	C7084	C	0.603164	0.814544	0.094876
	C7085	C	0.600206	0.752757	0.099348
	C7086	C	0.577993	0.462567	0.122022
	C7087	C	0.562587	0.462381	-0.001790
	C7088	C	0.576753	0.462551	0.123794
	C7089	C	0.577977	0.543480	0.122035
	C7090	C	0.576736	0.543613	0.123795
	C7091	C	0.562622	0.543338	-0.001812
	C7092	C	0.593653	0.252682	0.108698
	C7093	C	0.603151	0.190610	0.094840
	C7094	C	0.603188	0.314417	0.094837
	C7095	C	0.600192	0.252540	0.099313
	C7096	C	0.563099	0.043264	0.000305
	C7097	C	0.583493	0.253294	0.012909
	C7098	C	0.547873	0.253062	0.013151
	C7099	C	0.559106	0.252646	0.108987
	C7100	C	0.607030	0.191394	0.033683
	C7101	C	0.607044	0.314504	0.033702
	C7102	C	0.593461	0.253007	0.021544
	C7103	C	0.539976	0.253138	0.021995
	C7104	C	0.549134	0.753135	0.100264
	C7105	C	0.544565	0.814339	0.096177
	C7106	C	0.544557	0.691995	0.096127
	C7107	C	0.549179	0.252542	0.100336
	C7108	C	0.544652	0.314204	0.096222
	C7109	C	0.544575	0.191101	0.096205
	C7110	C	0.536267	0.191621	0.026113
	C7111	C	0.598033	0.191398	0.025633
	C7112	C	0.598052	0.314554	0.025650
	C7113	C	0.536535	0.314544	0.026263
	C7114	C	0.611640	0.252891	0.037787
	C7115	C	0.576539	0.043368	0.125749
	C7116	C	0.562759	0.043589	-0.002347
	C7117	C	0.563148	0.962406	0.000327
	C7118	C	0.576567	0.962378	0.125727
	C7119	C	0.562750	0.962868	-0.002328
	N7120	N	0.501583	0.070181	0.061547
	N7121	N	0.501603	0.935664	0.061542
	N7122	N	0.501543	0.435591	0.061541
	N7123	N	0.501542	0.570102	0.061524
	N7124	N	0.578165	0.435728	0.123168
	N7125	N	0.578135	0.570280	0.123162
	N7126	N	0.578208	0.070356	0.123217
	N7127	N	0.578187	0.935826	0.123201
	O7128	O	0.574443	0.694876	0.183633
	O7129	O	0.574690	0.811751	0.183637
	O7130	O	0.526371	0.694716	0.198602
	O7131	O	0.526379	0.811579	0.198579
	O7132	O	0.526367	0.194615	0.198609
	O7133	O	0.526490	0.311566	0.198586
	O7134	O	0.528613	0.694955	0.174898
	O7135	O	0.528723	0.811434	0.174959
	O7136	O	0.528774	0.195082	0.174961
	O7137	O	0.528599	0.311380	0.174897
	O7138	O	0.572213	0.695318	0.207351
	O7139	O	0.572238	0.811662	0.207352
	O7140	O	0.572190	0.194990	0.207301
	O7141	O	0.572269	0.311387	0.207341
	O7142	O	0.574598	0.194184	0.183666
	O7143	O	0.574467	0.310984	0.183636
	O7144	O	0.588739	0.694213	0.136071
	O7145	O	0.561500	0.694674	0.132225
	O7146	O	0.539358	0.694865	0.250038
	O7147	O	0.539246	0.811530	0.249994
	O7148	O	0.512105	0.694082	0.246175
	O7149	O	0.512038	0.810821	0.246209
	O7150	O	0.561689	0.811382	0.132301
	O7151	O	0.588828	0.811021	0.136046
	O7152	O	0.588932	0.194451	0.136081
	O7153	O	0.561609	0.194601	0.132316
	O7154	O	0.539337	0.194323	0.250016
	O7155	O	0.539374	0.311010	0.250038
	O7156	O	0.512049	0.194341	0.246203
	O7157	O	0.512136	0.311056	0.246229
	O7158	O	0.561522	0.311402	0.132243
	O7159	O	0.588812	0.311128	0.136089
	H7160	H	0.522592	0.643104	0.214015
	H7161	H	0.522433	0.862967	0.214039
	H7162	H	0.522633	0.143452	0.214000
	H7163	H	0.522563	0.362871	0.214063
	H7164	H	0.538408	0.862893	0.160862
	H7165	H	0.538316	0.644007	0.160864
	H7166	H	0.538211	0.362597	0.160830
	H7167	H	0.538387	0.143598	0.160924
	H7168	H	0.584486	0.064933	0.202794
	H7169	H	0.591823	0.064135	0.201217
	H7170	H	0.591805	0.941273	0.201164
	H7171	H	0.584452	0.940828	0.202755
	H7172	H	0.576214	0.064859	0.197920
	H7173	H	0.576233	0.940704	0.197896
	H7174	H	0.510438	0.064469	0.187497
	H7175	H	0.510318	0.941687	0.187447
	H7176	H	0.514604	0.064783	0.189664
	H7177	H	0.514486	0.941271	0.189678
	H7178	H	0.520981	0.065143	0.187969
	H7179	H	0.520958	0.941188	0.187961
	H7180	H	0.513773	0.441071	0.190617
	H7181	H	0.520199	0.441171	0.190095
	H7182	H	0.507960	0.441526	0.185885
	H7183	H	0.587282	0.440984	0.198203
	H7184	H	0.583673	0.440676	0.198341
	H7185	H	0.582121	0.441229	0.196910
	H7186	H	0.520177	0.564748	0.190147
	H7187	H	0.513777	0.564810	0.190611
	H7188	H	0.582024	0.564270	0.196882
	H7189	H	0.583666	0.564532	0.198314
	H7190	H	0.587210	0.564669	0.198160
	H7191	H	0.507918	0.564451	0.185873
	H7192	H	0.562377	0.643785	0.221346
	H7193	H	0.562429	0.863231	0.221389
	H7194	H	0.562429	0.143530	0.221325
	H7195	H	0.562507	0.362800	0.221412
	H7196	H	0.549423	0.643744	0.145355
	H7197	H	0.584858	0.643124	0.151486
	H7198	H	0.584988	0.862687	0.151461
	H7199	H	0.549542	0.862771	0.145367
	H7200	H	0.578304	0.643250	0.168244
	H7201	H	0.578460	0.862972	0.168222
	H7202	H	0.551304	0.643917	0.236861
	H7203	H	0.551352	0.863005	0.236916
	H7204	H	0.578990	0.441112	0.121563
	H7205	H	0.527478	0.441197	0.262076
	H7206	H	0.580722	0.441289	0.123289
	H7207	H	0.579841	0.441793	0.124535
	H7208	H	0.524218	0.440805	0.255021
	H7209	H	0.528401	0.440935	0.257380
	H7210	H	0.527490	0.563835	0.262115
	H7211	H	0.578960	0.564624	0.121595
	H7212	H	0.528380	0.563997	0.257381
	H7213	H	0.524190	0.564516	0.255061
	H7214	H	0.579789	0.564651	0.124523
	H7215	H	0.580718	0.564654	0.123265
	H7216	H	0.551337	0.143410	0.236864
	H7217	H	0.551430	0.362484	0.236915
	H7218	H	0.576731	0.064769	0.119044
	H7219	H	0.572544	0.064471	0.121044
	H7220	H	0.583407	0.064771	0.121132
	H7221	H	0.515842	0.862594	0.230804
	H7222	H	0.516008	0.642901	0.230765
	H7223	H	0.515944	0.362809	0.230793
	H7224	H	0.515941	0.142960	0.230757
	H7225	H	0.549553	0.143563	0.145408
	H7226	H	0.585113	0.142842	0.151545
	H7227	H	0.584856	0.362479	0.151489
	H7228	H	0.549330	0.362672	0.145341
	H7229	H	0.578529	0.142877	0.168284
	H7230	H	0.578277	0.362446	0.168240
	H7231	H	0.517494	0.064398	0.259449
	H7232	H	0.519943	0.064485	0.262034
	H7233	H	0.526111	0.064531	0.262036
	H7234	H	0.572516	0.941342	0.121076
	H7235	H	0.576717	0.941329	0.119041
	H7236	H	0.583407	0.941187	0.121138
	H7237	H	0.517475	0.940996	0.259425
	H7238	H	0.519929	0.941417	0.262054
	H7239	H	0.526071	0.941196	0.262087
	Zn7240	Zn	0.515685	0.680498	0.185706
	Zn7241	Zn	0.515625	0.825359	0.185710
	Zn7242	Zn	0.515719	0.180575	0.185697
	Zn7243	Zn	0.515679	0.325518	0.185715
	Zn7244	Zn	0.522872	0.680098	0.259124
	Zn7245	Zn	0.522715	0.825244	0.259131
	Zn7246	Zn	0.522846	0.180205	0.259113
	Zn7247	Zn	0.522827	0.325305	0.259098
	C7248	C	0.575128	0.753315	0.179558
	C7249	C	0.525798	0.753189	0.202657
	C7250	C	0.523027	0.753109	0.212988
	C7251	C	0.521121	0.690900	0.217733
	C7252	C	0.521037	0.815113	0.217747
	C7253	C	0.525832	0.253145	0.202671
	C7254	C	0.523110	0.253099	0.213017
	C7255	C	0.521149	0.190979	0.217746
	C7256	C	0.521114	0.315064	0.217774
	C7257	C	0.531287	0.753239	0.171295
	C7258	C	0.537882	0.753387	0.161908
	C7259	C	0.540828	0.815235	0.157414
	C7260	C	0.540798	0.691453	0.157421
	C7261	C	0.531313	0.253223	0.171301
	C7262	C	0.537875	0.253074	0.161910
	C7263	C	0.540747	0.314984	0.157414
	C7264	C	0.540853	0.191168	0.157458
	C7265	C	0.587317	0.043206	0.200581
	C7266	C	0.587316	0.962343	0.200556
	C7267	C	0.513408	0.043356	0.187824
	C7268	C	0.513321	0.962747	0.187819
	C7269	C	0.519815	0.043491	0.186134
	C7270	C	0.519806	0.962510	0.186127
	C7271	C	0.516665	0.462425	0.189141
	C7272	C	0.587077	0.462407	0.197168
	C7273	C	0.583452	0.462242	0.197337
	C7274	C	0.516665	0.543555	0.189147
	C7275	C	0.583406	0.543179	0.197331
	C7276	C	0.586992	0.543133	0.197159
	C7277	C	0.569591	0.753512	0.210988
	C7278	C	0.569565	0.253214	0.210946
	C7279	C	0.563064	0.753581	0.220381
	C7280	C	0.560028	0.691616	0.224826
	C7281	C	0.560060	0.815507	0.224857
	C7282	C	0.562955	0.253079	0.220325
	C7283	C	0.560002	0.191171	0.224794
	C7284	C	0.560034	0.314953	0.224828
	C7285	C	0.575092	0.252543	0.179571
	C7286	C	0.588212	0.752695	0.140135
	C7287	C	0.558157	0.753077	0.135529
	C7288	C	0.512644	0.752536	0.242097
	C7289	C	0.579745	0.690977	0.164499
	C7290	C	0.579821	0.815281	0.164488
	C7291	C	0.585506	0.752978	0.150475
	C7292	C	0.550217	0.753248	0.144418
	C7293	C	0.546929	0.691360	0.148787
	C7294	C	0.583510	0.690885	0.155216
	C7295	C	0.583573	0.815074	0.155207
	C7296	C	0.546984	0.815189	0.148790
	C7297	C	0.577802	0.753260	0.169218
	C7298	C	0.542754	0.753214	0.246756
	C7299	C	0.553908	0.691594	0.233461
	C7300	C	0.553935	0.815365	0.233491
	C7301	C	0.550708	0.753417	0.237866
	C7302	C	0.524405	0.462094	0.261767
	C7303	C	0.579736	0.462772	0.123710
	C7304	C	0.525324	0.462236	0.256963
	C7305	C	0.524408	0.542920	0.261785
	C7306	C	0.525341	0.543135	0.256963
	C7307	C	0.579716	0.543355	0.123712
	C7308	C	0.542781	0.252682	0.246752
	C7309	C	0.553882	0.191077	0.233432
	C7310	C	0.553925	0.314817	0.233463
	C7311	C	0.550686	0.252864	0.237848
	C7312	C	0.575573	0.043403	0.120895
	C7313	C	0.588300	0.252755	0.140177
	C7314	C	0.558083	0.253051	0.135525
	C7315	C	0.512684	0.252725	0.242129
	C7316	C	0.579895	0.190583	0.164536
	C7317	C	0.579746	0.314656	0.164512
	C7318	C	0.585551	0.252735	0.150496
	C7319	C	0.550163	0.253045	0.144423
	C7320	C	0.515394	0.752773	0.231762
	C7321	C	0.517321	0.815035	0.227045
	C7322	C	0.517409	0.690695	0.227029
	C7323	C	0.515398	0.252771	0.231794
	C7324	C	0.517401	0.314943	0.227071
	C7325	C	0.517418	0.190752	0.227044
	C7326	C	0.546961	0.191131	0.148822
	C7327	C	0.583666	0.190640	0.155254
	C7328	C	0.583508	0.314705	0.155227
	C7329	C	0.546842	0.314960	0.148773
	C7330	C	0.577847	0.252572	0.169249
	C7331	C	0.519757	0.043168	0.260303
	C7332	C	0.582325	0.043399	0.122987
	C7333	C	0.575553	0.962812	0.120886
	C7334	C	0.519712	0.962362	0.260311
	C7335	C	0.582308	0.962487	0.122964
	N7336	N	0.515796	0.070152	0.185686
	N7337	N	0.515720	0.935539	0.185660
	N7338	N	0.515739	0.435768	0.185689
	N7339	N	0.515763	0.570369	0.185697
	N7340	N	0.522798	0.435377	0.259095
	N7341	N	0.522784	0.569949	0.259081
	N7342	N	0.522762	0.069899	0.259104
	N7343	N	0.522702	0.935337	0.259117
	O7344	O	0.585856	0.694974	0.309003
	O7345	O	0.585952	0.811256	0.308929
	O7346	O	0.475603	0.694887	0.332528
	O7347	O	0.475645	0.810995	0.332462
	O7348	O	0.475634	0.194990	0.332465
	O7349	O	0.475689	0.311191	0.332463
	O7350	O	0.476918	0.693916	0.312555
	O7351	O	0.476933	0.810557	0.312492
	O7352	O	0.476820	0.194423	0.312494
	O7353	O	0.476776	0.311105	0.312454
	O7354	O	0.589061	0.694978	0.330291
	O7355	O	0.588948	0.811030	0.330204
	O7356	O	0.589012	0.195016	0.330206
	O7357	O	0.589231	0.311095	0.330270
	O7358	O	0.585804	0.195088	0.309064
	O7359	O	0.585888	0.311194	0.309009
	O7360	O	0.538152	0.694867	0.269920
	O7361	O	0.509896	0.693637	0.269926
	O7362	O	0.552057	0.695394	0.370959
	O7363	O	0.552132	0.811812	0.370988
	O7364	O	0.523460	0.695028	0.371524
	O7365	O	0.523387	0.811019	0.371583
	O7366	O	0.509759	0.810081	0.269859
	O7367	O	0.538058	0.811192	0.269902
	O7368	O	0.538199	0.194563	0.269879
	O7369	O	0.509885	0.194550	0.269865
	O7370	O	0.552060	0.195090	0.370899
	O7371	O	0.552246	0.311170	0.370961
	O7372	O	0.523525	0.195441	0.371510
	O7373	O	0.523371	0.311495	0.371583
	O7374	O	0.509944	0.310892	0.269914
	O7375	O	0.538147	0.310819	0.269888
	H7376	H	0.491154	0.645069	0.344938
	H7377	H	0.490957	0.860807	0.344971
	H7378	H	0.490908	0.145046	0.345045
	H7379	H	0.491007	0.361285	0.344967
	H7380	H	0.489121	0.861554	0.299449
	H7381	H	0.488905	0.642470	0.299427
	H7382	H	0.488848	0.362381	0.299346
	H7383	H	0.488939	0.143025	0.299409
	H7384	H	0.607238	0.064710	0.319277
	H7385	H	0.604836	0.065025	0.316497
	H7386	H	0.604945	0.941587	0.316433
	H7387	H	0.607151	0.941370	0.319239
	H7388	H	0.604009	0.064373	0.322763
	H7389	H	0.604010	0.941247	0.322735
	H7390	H	0.462346	0.064382	0.322482
	H7391	H	0.462387	0.941290	0.322518
	H7392	H	0.462515	0.064086	0.321206
	H7393	H	0.462604	0.941093	0.321221
	H7394	H	0.460322	0.064909	0.320142
	H7395	H	0.460427	0.940731	0.320120
	H7396	H	0.461748	0.440805	0.324385
	H7397	H	0.464302	0.441488	0.322809
	H7398	H	0.457045	0.440849	0.323350
	H7399	H	0.601155	0.441104	0.320308
	H7400	H	0.600154	0.441748	0.319316
	H7401	H	0.600663	0.441426	0.318547
	H7402	H	0.464311	0.564176	0.322737
	H7403	H	0.461846	0.564808	0.324409
	H7404	H	0.600660	0.565284	0.318575
	H7405	H	0.600156	0.564752	0.319301
	H7406	H	0.601143	0.564228	0.320313
	H7407	H	0.457077	0.564801	0.323349
	H7408	H	0.577204	0.644437	0.343316
	H7409	H	0.577087	0.862344	0.343240
	H7410	H	0.577103	0.144700	0.343194
	H7411	H	0.577323	0.361663	0.343288
	H7412	H	0.500003	0.642409	0.283910
	H7413	H	0.553645	0.644709	0.282313
	H7414	H	0.553484	0.861643	0.282398
	H7415	H	0.500204	0.861395	0.283904
	H7416	H	0.570633	0.644553	0.296412
	H7417	H	0.570542	0.861468	0.296490
	H7418	H	0.564088	0.644714	0.358058
	H7419	H	0.563986	0.862345	0.357980
	H7420	H	0.522611	0.440523	0.263329
	H7421	H	0.538756	0.440941	0.380676
	H7422	H	0.516841	0.440685	0.260147
	H7423	H	0.517430	0.441136	0.256633
	H7424	H	0.538044	0.441109	0.382681
	H7425	H	0.537433	0.441025	0.381704
	H7426	H	0.538855	0.564817	0.380645
	H7427	H	0.522611	0.564393	0.263348
	H7428	H	0.537509	0.564580	0.381666
	H7429	H	0.537977	0.564237	0.382626
	H7430	H	0.517456	0.564516	0.256658
	H7431	H	0.516715	0.564649	0.260144
	H7432	H	0.563981	0.144845	0.357919
	H7433	H	0.564204	0.361232	0.358024
	H7434	H	0.524741	0.064285	0.255895
	H7435	H	0.520253	0.064279	0.255853
	H7436	H	0.528138	0.064973	0.259412
	H7437	H	0.507999	0.861288	0.359076
	H7438	H	0.508228	0.645107	0.358980
	H7439	H	0.507983	0.361361	0.359062
	H7440	H	0.507943	0.145308	0.359142
	H7441	H	0.500142	0.143035	0.283911
	H7442	H	0.553572	0.144503	0.282340
	H7443	H	0.553583	0.361071	0.282364
	H7444	H	0.499991	0.362332	0.283860
	H7445	H	0.570539	0.144445	0.296476
	H7446	H	0.570515	0.361304	0.296481
	H7447	H	0.537314	0.064702	0.380150
	H7448	H	0.536091	0.064334	0.381678
	H7449	H	0.538085	0.064512	0.383810
	H7450	H	0.520227	0.941023	0.255834
	H7451	H	0.524747	0.940738	0.255886
	H7452	H	0.528101	0.940623	0.259458
	H7453	H	0.537307	0.941144	0.380094
	H7454	H	0.536097	0.941149	0.381654
	H7455	H	0.538054	0.941165	0.383794
	Zn7456	Zn	0.460426	0.680194	0.321652
	Zn7457	Zn	0.460460	0.825419	0.321634
	Zn7458	Zn	0.460342	0.180279	0.321616
	Zn7459	Zn	0.460345	0.325552	0.321630
	Zn7460	Zn	0.539264	0.680188	0.381856
	Zn7461	Zn	0.539255	0.825560	0.381882
	Zn7462	Zn	0.539303	0.180265	0.381859
	Zn7463	Zn	0.539320	0.325416	0.381870
	C7464	C	0.581858	0.753043	0.305758
	C7465	C	0.479700	0.752974	0.335690
	C7466	C	0.489987	0.752937	0.344140
	C7467	C	0.494862	0.691899	0.348109
	C7468	C	0.494751	0.814087	0.348128
	C7469	C	0.479702	0.253067	0.335692
	C7470	C	0.490044	0.253131	0.344109
	C7471	C	0.494776	0.192057	0.348137
	C7472	C	0.494836	0.314326	0.348090
	C7473	C	0.480380	0.752118	0.309262
	C7474	C	0.488287	0.752028	0.300365
	C7475	C	0.491584	0.813936	0.296002
	C7476	C	0.491460	0.690092	0.295990
	C7477	C	0.480261	0.252716	0.309220
	C7478	C	0.488221	0.252668	0.300344
	C7479	C	0.491424	0.314664	0.295948
	C7480	C	0.491479	0.190720	0.295976
	C7481	C	0.604922	0.043443	0.318255
	C7482	C	0.604913	0.962582	0.318251
	C7483	C	0.461850	0.043006	0.321780
	C7484	C	0.461904	0.962516	0.321802
	C7485	C	0.459642	0.043309	0.320669
	C7486	C	0.459711	0.962225	0.320665
	C7487	C	0.462251	0.462211	0.323075
	C7488	C	0.601763	0.462511	0.320057
	C7489	C	0.600743	0.462680	0.319035
	C7490	C	0.462301	0.543035	0.323087
	C7491	C	0.600735	0.543517	0.319032
	C7492	C	0.601753	0.543308	0.320049
	C7493	C	0.585874	0.753135	0.333618
	C7494	C	0.585968	0.253093	0.333592
	C7495	C	0.577902	0.753409	0.342400
	C7496	C	0.574280	0.691783	0.346577
	C7497	C	0.574210	0.815086	0.346533
	C7498	C	0.577882	0.253169	0.342329
	C7499	C	0.574178	0.191738	0.346463
	C7500	C	0.574296	0.314551	0.346516
	C7501	C	0.581807	0.253104	0.305809
	C7502	C	0.542164	0.753102	0.273123
	C7503	C	0.507200	0.751896	0.273510
	C7504	C	0.519375	0.753055	0.368330
	C7505	C	0.566748	0.691645	0.293342
	C7506	C	0.566679	0.814365	0.293380
	C7507	C	0.552463	0.753182	0.281571
	C7508	C	0.500616	0.751971	0.282894
	C7509	C	0.497582	0.690075	0.287359
	C7510	C	0.557322	0.691757	0.285515
	C7511	C	0.557234	0.814520	0.285558
	C7512	C	0.497693	0.813874	0.287357
	C7513	C	0.571469	0.752960	0.297373
	C7514	C	0.555236	0.753584	0.367626
	C7515	C	0.567047	0.691885	0.354762
	C7516	C	0.566975	0.815158	0.354714
	C7517	C	0.563319	0.753549	0.358872
	C7518	C	0.539484	0.462428	0.381046
	C7519	C	0.518564	0.462226	0.258587
	C7520	C	0.538171	0.462426	0.382106
	C7521	C	0.539460	0.543344	0.381061
	C7522	C	0.538157	0.543253	0.382063
	C7523	C	0.518564	0.543114	0.258591
	C7524	C	0.555290	0.253132	0.367576
	C7525	C	0.566920	0.191723	0.354634
	C7526	C	0.567054	0.314398	0.354691
	C7527	C	0.563300	0.253044	0.358799
	C7528	C	0.522544	0.043030	0.256719
	C7529	C	0.542210	0.252721	0.273101
	C7530	C	0.507277	0.252679	0.273523
	C7531	C	0.519390	0.253459	0.368337
	C7532	C	0.566759	0.191596	0.293343
	C7533	C	0.566742	0.314114	0.293350
	C7534	C	0.552553	0.252725	0.281516
	C7535	C	0.500623	0.252685	0.282883
	C7536	C	0.508996	0.753122	0.359942
	C7537	C	0.504170	0.814252	0.355959
	C7538	C	0.504302	0.691993	0.355920
	C7539	C	0.509014	0.253409	0.359930
	C7540	C	0.504245	0.314439	0.355928
	C7541	C	0.504206	0.192180	0.355970
	C7542	C	0.497654	0.190748	0.287356
	C7543	C	0.557358	0.191474	0.285495
	C7544	C	0.557353	0.314058	0.285503
	C7545	C	0.497603	0.314680	0.287333
	C7546	C	0.571489	0.252881	0.297373
	C7547	C	0.537379	0.043377	0.381154
	C7548	C	0.525937	0.043174	0.260303
	C7549	C	0.522523	0.962283	0.256705
	C7550	C	0.537371	0.962484	0.381130
	C7551	C	0.525925	0.962090	0.260321
	N7552	N	0.460289	0.070052	0.321611
	N7553	N	0.460365	0.935424	0.321626
	N7554	N	0.460214	0.435597	0.321690
	N7555	N	0.460264	0.570108	0.321678
	N7556	N	0.539284	0.435607	0.381871
	N7557	N	0.539249	0.570113	0.381847
	N7558	N	0.539282	0.070297	0.381892
	N7559	N	0.539260	0.935748	0.381880
	O7560	O	0.609702	0.694109	0.427035
	O7561	O	0.609614	0.810188	0.427088
	O7562	O	0.493154	0.694675	0.454147
	O7563	O	0.493266	0.810781	0.454129
	O7564	O	0.493257	0.195086	0.454077
	O7565	O	0.493118	0.311210	0.454117
	O7566	O	0.489548	0.694330	0.433438
	O7567	O	0.489578	0.810602	0.433442
	O7568	O	0.489479	0.194624	0.433372
	O7569	O	0.489406	0.310779	0.433314
	O7570	O	0.614045	0.695093	0.447846
	O7571	O	0.613891	0.810926	0.447769
	O7572	O	0.613976	0.194957	0.447735
	O7573	O	0.613981	0.310887	0.447782
	O7574	O	0.609695	0.194659	0.427075
	O7575	O	0.609763	0.310549	0.427013
	O7576	O	0.555822	0.694679	0.391638
	O7577	O	0.526609	0.694729	0.392741
	O7578	O	0.576226	0.694563	0.488159
	O7579	O	0.576209	0.810671	0.488109
	O7580	O	0.547076	0.694623	0.489480
	O7581	O	0.547155	0.810769	0.489487
	O7582	O	0.526462	0.810867	0.392681
	O7583	O	0.555782	0.810847	0.391693
	O7584	O	0.555786	0.194570	0.391692
	O7585	O	0.526696	0.195341	0.392751
	O7586	O	0.576230	0.194803	0.488121
	O7587	O	0.576187	0.310714	0.488139
	O7588	O	0.547089	0.195053	0.489523
	O7589	O	0.547124	0.311006	0.489519
	O7590	O	0.526646	0.311161	0.392719
	O7591	O	0.556034	0.310612	0.391522
	H7592	H	0.510452	0.644417	0.465446
	H7593	H	0.510542	0.860680	0.465452
	H7594	H	0.510590	0.145088	0.465355
	H7595	H	0.510470	0.361369	0.465419
	H7596	H	0.501526	0.861213	0.420465
	H7597	H	0.501607	0.644100	0.420527
	H7598	H	0.501415	0.361309	0.420389
	H7599	H	0.501394	0.144754	0.420400
	H7600	H	0.629763	0.064825	0.437288
	H7601	H	0.629122	0.064391	0.435383
	H7602	H	0.629045	0.941218	0.435325
	H7603	H	0.629742	0.941035	0.437239
	H7604	H	0.626867	0.064899	0.438990
	H7605	H	0.626904	0.941335	0.438980
	H7606	H	0.475633	0.064086	0.443750
	H7607	H	0.475607	0.941297	0.443752
	H7608	H	0.475405	0.064714	0.444496
	H7609	H	0.475330	0.941058	0.444528
	H7610	H	0.476585	0.064721	0.445302
	H7611	H	0.476480	0.941060	0.445353
	H7612	H	0.475608	0.441140	0.444924
	H7613	H	0.476726	0.441179	0.445296
	H7614	H	0.475374	0.441375	0.443802
	H7615	H	0.627267	0.441237	0.437603
	H7616	H	0.625472	0.441396	0.437539
	H7617	H	0.624808	0.441403	0.436745
	H7618	H	0.476778	0.564588	0.445336
	H7619	H	0.475547	0.564604	0.444985
	H7620	H	0.624821	0.564797	0.436775
	H7621	H	0.625512	0.564961	0.437511
	H7622	H	0.627282	0.564789	0.437589
	H7623	H	0.475304	0.564645	0.443792
	H7624	H	0.601809	0.644902	0.460668
	H7625	H	0.602012	0.860782	0.460757
	H7626	H	0.601781	0.144622	0.460669
	H7627	H	0.601815	0.360935	0.460680
	H7628	H	0.514724	0.643981	0.405812
	H7629	H	0.573168	0.644547	0.402910
	H7630	H	0.572975	0.860385	0.403071
	H7631	H	0.514615	0.861554	0.405728
	H7632	H	0.592394	0.643793	0.415684
	H7633	H	0.592252	0.860463	0.415810
	H7634	H	0.588300	0.644513	0.475230
	H7635	H	0.588513	0.860702	0.475331
	H7636	H	0.540337	0.441524	0.380866
	H7637	H	0.562510	0.441477	0.499560
	H7638	H	0.541075	0.441496	0.382186
	H7639	H	0.540133	0.441043	0.382972
	H7640	H	0.564934	0.441341	0.499755
	H7641	H	0.563929	0.440998	0.500103
	H7642	H	0.562387	0.564561	0.499512
	H7643	H	0.540321	0.564695	0.380908
	H7644	H	0.563884	0.564604	0.500144
	H7645	H	0.564879	0.564772	0.499743
	H7646	H	0.539966	0.564569	0.382910
	H7647	H	0.540920	0.564519	0.382198
	H7648	H	0.588305	0.144891	0.475236
	H7649	H	0.588355	0.360581	0.475277
	H7650	H	0.542405	0.064911	0.381707
	H7651	H	0.540947	0.064751	0.380155
	H7652	H	0.540732	0.064366	0.383805
	H7653	H	0.529798	0.860495	0.478191
	H7654	H	0.529736	0.644503	0.478204
	H7655	H	0.529733	0.361342	0.478171
	H7656	H	0.529888	0.145035	0.478124
	H7657	H	0.514676	0.144886	0.405710
	H7658	H	0.573144	0.144095	0.403008
	H7659	H	0.573205	0.360951	0.402926
	H7660	H	0.514632	0.361462	0.405709
	H7661	H	0.592370	0.144364	0.415808
	H7662	H	0.592387	0.360985	0.415730
	H7663	H	0.566602	0.064584	0.498526
	H7664	H	0.564716	0.064405	0.497329
	H7665	H	0.561389	0.064782	0.497906
	H7666	H	0.540989	0.941540	0.380213
	H7667	H	0.542374	0.941277	0.381757
	H7668	H	0.540675	0.941380	0.383817
	H7669	H	0.566580	0.941272	0.498510
	H7670	H	0.564681	0.940958	0.497328
	H7671	H	0.561493	0.940857	0.497859
	Zn7672	Zn	0.476654	0.680206	0.444312
	Zn7673	Zn	0.476732	0.825568	0.444343
	Zn7674	Zn	0.476688	0.180267	0.444289
	Zn7675	Zn	0.476638	0.325605	0.444280
	Zn7676	Zn	0.563719	0.680140	0.499181
	Zn7677	Zn	0.563783	0.825639	0.499191
	Zn7678	Zn	0.563781	0.180160	0.499191
	Zn7679	Zn	0.563871	0.325598	0.499215
	C7680	C	0.605131	0.752138	0.424135
	C7681	C	0.497692	0.752694	0.457071
	C7682	C	0.509349	0.752579	0.464685
	C7683	C	0.514762	0.691308	0.468272
	C7684	C	0.514812	0.813733	0.468283
	C7685	C	0.497698	0.253249	0.457033
	C7686	C	0.509315	0.253182	0.464680
	C7687	C	0.514827	0.192086	0.468242
	C7688	C	0.514747	0.314351	0.468275
	C7689	C	0.492730	0.752491	0.430106
	C7690	C	0.500773	0.752652	0.421323
	C7691	C	0.504425	0.814230	0.417166
	C7692	C	0.504462	0.691158	0.417199
	C7693	C	0.492587	0.252697	0.429992
	C7694	C	0.500705	0.252915	0.421261
	C7695	C	0.504407	0.314310	0.417123
	C7696	C	0.504408	0.191654	0.417135
	C7697	C	0.628634	0.043428	0.436400
	C7698	C	0.628594	0.962460	0.436397
	C7699	C	0.475832	0.043206	0.444199
	C7700	C	0.475804	0.962510	0.444211
	C7701	C	0.476993	0.043363	0.445007
	C7702	C	0.476998	0.962616	0.445064
	C7703	C	0.476278	0.462372	0.444901
	C7704	C	0.627289	0.462551	0.437080
	C7705	C	0.625465	0.462746	0.437037
	C7706	C	0.476289	0.543399	0.444929
	C7707	C	0.625481	0.543524	0.437042
	C7708	C	0.627259	0.543395	0.437063
	C7709	C	0.610807	0.753008	0.451158
	C7710	C	0.610779	0.252875	0.451089
	C7711	C	0.602626	0.752919	0.459856
	C7712	C	0.598815	0.691679	0.463932
	C7713	C	0.598925	0.813968	0.463983
	C7714	C	0.602553	0.252791	0.459774
	C7715	C	0.598771	0.191624	0.463880
	C7716	C	0.598797	0.313889	0.463899
	C7717	C	0.605211	0.252605	0.424114
	C7718	C	0.560303	0.752703	0.394601
	C7719	C	0.523408	0.752768	0.396079
	C7720	C	0.542549	0.752702	0.486606
	C7721	C	0.588094	0.691011	0.412877
	C7722	C	0.588012	0.813437	0.412944
	C7723	C	0.571953	0.752546	0.402215
	C7724	C	0.515353	0.752752	0.404834
	C7725	C	0.511738	0.691213	0.409036
	C7726	C	0.577438	0.691261	0.405773
	C7727	C	0.577346	0.813545	0.405859
	C7728	C	0.511677	0.814324	0.408986
	C7729	C	0.593496	0.752184	0.416513
	C7730	C	0.579424	0.752560	0.484814
	C7731	C	0.591369	0.691511	0.472019
	C7732	C	0.591478	0.813849	0.472068
	C7733	C	0.587632	0.752646	0.476134
	C7734	C	0.562817	0.462566	0.499151
	C7735	C	0.540237	0.462520	0.382380
	C7736	C	0.564253	0.462347	0.499750
	C7737	C	0.562768	0.543327	0.499136
	C7738	C	0.564219	0.543329	0.499736
	C7739	C	0.540172	0.543337	0.382373
	C7740	C	0.579396	0.252801	0.484788
	C7741	C	0.591316	0.191626	0.471971
	C7742	C	0.591351	0.313870	0.471993
	C7743	C	0.587552	0.252747	0.476073
	C7744	C	0.541033	0.043538	0.381181
	C7745	C	0.560428	0.252534	0.394537
	C7746	C	0.523502	0.253283	0.396086
	C7747	C	0.542547	0.253101	0.486617
	C7748	C	0.588124	0.191366	0.412921
	C7749	C	0.588151	0.313894	0.412874
	C7750	C	0.572070	0.252504	0.402169
	C7751	C	0.515463	0.253143	0.404848
	C7752	C	0.530851	0.752587	0.478992
	C7753	C	0.525502	0.813707	0.475365
	C7754	C	0.525460	0.691357	0.475352
	C7755	C	0.530858	0.253151	0.478998
	C7756	C	0.525427	0.314325	0.475361
	C7757	C	0.525518	0.192004	0.475329
	C7758	C	0.511740	0.191850	0.408991
	C7759	C	0.577461	0.191244	0.405817
	C7760	C	0.577496	0.313842	0.405764
	C7761	C	0.511736	0.314362	0.408978
	C7762	C	0.593579	0.252623	0.416495
	C7763	C	0.565144	0.043256	0.498266
	C7764	C	0.539363	0.043212	0.383287
	C7765	C	0.541040	0.962639	0.381182
	C7766	C	0.565161	0.962535	0.498263
	C7767	C	0.539337	0.962519	0.383274
	N7768	N	0.476727	0.070208	0.444352
	N7769	N	0.476746	0.935640	0.444397
	N7770	N	0.476640	0.435468	0.444283
	N7771	N	0.476641	0.569986	0.444285
	N7772	N	0.563781	0.435583	0.499186
	N7773	N	0.563729	0.570117	0.499162
	N7774	N	0.563818	0.070185	0.499203
	N7775	N	0.563819	0.935700	0.499168
	O7776	O	0.634500	0.694806	0.544151
	O7777	O	0.634427	0.810856	0.544179
	O7778	O	0.517808	0.694731	0.571288
	O7779	O	0.517886	0.810832	0.571197
	O7780	O	0.517795	0.194885	0.571306
	O7781	O	0.517870	0.310860	0.571215
	O7782	O	0.513593	0.694819	0.550584
	O7783	O	0.513856	0.810957	0.550657
	O7784	O	0.513584	0.194644	0.550566
	O7785	O	0.513599	0.310567	0.550584
	O7786	O	0.638154	0.694647	0.564973
	O7787	O	0.638087	0.810849	0.564910
	O7788	O	0.638033	0.195092	0.564853
	O7789	O	0.638025	0.311189	0.564877
	O7790	O	0.634526	0.195410	0.544162
	O7791	O	0.634396	0.311511	0.544214
	O7792	O	0.580481	0.694871	0.508838
	O7793	O	0.551218	0.694355	0.510198
	O7794	O	0.600961	0.694820	0.605593
	O7795	O	0.600956	0.810767	0.605555
	O7796	O	0.571781	0.694290	0.606559
	O7797	O	0.571679	0.810429	0.606672
	O7798	O	0.551270	0.810238	0.510196
	O7799	O	0.580416	0.810856	0.508911
	O7800	O	0.580532	0.194735	0.508856
	O7801	O	0.551374	0.194506	0.510251
	O7802	O	0.601000	0.195004	0.605526
	O7803	O	0.600973	0.311040	0.605560
	O7804	O	0.571700	0.194815	0.606671
	O7805	O	0.571760	0.310834	0.606654
	O7806	O	0.551463	0.310380	0.510260
	O7807	O	0.580476	0.310992	0.508905
	H7808	H	0.535230	0.643896	0.582493
	H7809	H	0.535173	0.861417	0.582545
	H7810	H	0.535199	0.144495	0.582566
	H7811	H	0.535270	0.361341	0.582497
	H7812	H	0.525645	0.860664	0.537635
	H7813	H	0.525890	0.644691	0.537762
	H7814	H	0.525769	0.360436	0.537680
	H7815	H	0.525669	0.144661	0.537646
	H7816	H	0.655454	0.064629	0.551194
	H7817	H	0.650435	0.064326	0.549752
	H7818	H	0.650424	0.941130	0.549736
	H7819	H	0.655450	0.941320	0.551177
	H7820	H	0.656704	0.064824	0.556074
	H7821	H	0.656645	0.941005	0.556080
	H7822	H	0.501316	0.063890	0.561385
	H7823	H	0.501225	0.940585	0.561386
	H7824	H	0.500928	0.064059	0.561342
	H7825	H	0.500944	0.940880	0.561367
	H7826	H	0.500671	0.064632	0.561611
	H7827	H	0.500731	0.941417	0.561557
	H7828	H	0.500224	0.441284	0.560548
	H7829	H	0.499361	0.441317	0.561324
	H7830	H	0.502147	0.441324	0.560734
	H7831	H	0.648837	0.441182	0.554689
	H7832	H	0.649171	0.441383	0.552881
	H7833	H	0.651059	0.441438	0.552404
	H7834	H	0.499485	0.564832	0.561343
	H7835	H	0.500206	0.564199	0.560610
	H7836	H	0.651122	0.564973	0.552422
	H7837	H	0.649191	0.565063	0.552917
	H7838	H	0.648914	0.564370	0.554701
	H7839	H	0.502184	0.564267	0.560791
	H7840	H	0.626283	0.644651	0.577934
	H7841	H	0.626152	0.861043	0.577876
	H7842	H	0.625990	0.144761	0.577770
	H7843	H	0.626215	0.361717	0.577914
	H7844	H	0.539296	0.644590	0.523151
	H7845	H	0.597783	0.644535	0.520225
	H7846	H	0.597782	0.860711	0.520159
	H7847	H	0.539055	0.860407	0.523045
	H7848	H	0.617112	0.644504	0.532935
	H7849	H	0.617138	0.860966	0.532877
	H7850	H	0.613054	0.644356	0.592644
	H7851	H	0.612973	0.861124	0.592573
	H7852	H	0.562500	0.441618	0.498753
	H7853	H	0.587678	0.441053	0.615761
	H7854	H	0.563866	0.440883	0.498244
	H7855	H	0.564965	0.441160	0.498673
	H7856	H	0.587670	0.441090	0.617249
	H7857	H	0.587075	0.441016	0.616629
	H7858	H	0.587623	0.564414	0.615739
	H7859	H	0.562476	0.564902	0.498714
	H7860	H	0.586971	0.564521	0.616590
	H7861	H	0.587598	0.564543	0.617260
	H7862	H	0.564861	0.564036	0.498651
	H7863	H	0.563826	0.564368	0.498223
	H7864	H	0.612765	0.144654	0.592441
	H7865	H	0.613027	0.361793	0.592610
	H7866	H	0.563377	0.064550	0.501174
	H7867	H	0.565795	0.064832	0.500747
	H7868	H	0.560914	0.064547	0.499491
	H7869	H	0.554422	0.861316	0.595302
	H7870	H	0.554473	0.643775	0.595251
	H7871	H	0.554452	0.361575	0.595256
	H7872	H	0.554467	0.144487	0.595310
	H7873	H	0.539166	0.144664	0.523080
	H7874	H	0.597796	0.144508	0.520158
	H7875	H	0.597930	0.361859	0.520108
	H7876	H	0.539287	0.360058	0.523092
	H7877	H	0.617113	0.144582	0.532919
	H7878	H	0.617227	0.361988	0.532840
	H7879	H	0.587336	0.064324	0.617001
	H7880	H	0.588376	0.064458	0.617343
	H7881	H	0.589589	0.064408	0.616742
	H7882	H	0.565778	0.941433	0.500752
	H7883	H	0.563413	0.941529	0.501099
	H7884	H	0.560938	0.940985	0.499467
	H7885	H	0.587378	0.941419	0.617043
	H7886	H	0.588431	0.940657	0.617344
	H7887	H	0.589557	0.940898	0.616748
	Zn7888	Zn	0.501126	0.680281	0.561612
	Zn7889	Zn	0.501152	0.825635	0.561590
	Zn7890	Zn	0.501122	0.180209	0.561639
	Zn7891	Zn	0.501139	0.325547	0.561590
	Zn7892	Zn	0.588205	0.679983	0.616420
	Zn7893	Zn	0.588249	0.825619	0.616445
	Zn7894	Zn	0.588294	0.179986	0.616426
	Zn7895	Zn	0.588313	0.325806	0.616485
	C7896	C	0.629894	0.752795	0.541281
	C7897	C	0.522373	0.752796	0.574158
	C7898	C	0.534080	0.752738	0.581743
	C7899	C	0.539535	0.691087	0.585326
	C7900	C	0.539507	0.814199	0.585349
	C7901	C	0.522367	0.252889	0.574183
	C7902	C	0.534040	0.252912	0.581806
	C7903	C	0.539486	0.191536	0.585408
	C7904	C	0.539513	0.314312	0.585364
	C7905	C	0.516888	0.752806	0.547278
	C7906	C	0.524973	0.752649	0.538535
	C7907	C	0.528669	0.813788	0.534396
	C7908	C	0.528779	0.691398	0.534460
	C7909	C	0.516752	0.252591	0.547225
	C7910	C	0.524943	0.252565	0.538523
	C7911	C	0.528771	0.313569	0.534433
	C7912	C	0.528687	0.191447	0.534410
	C7913	C	0.652435	0.043212	0.551404
	C7914	C	0.652412	0.962528	0.551402
	C7915	C	0.501094	0.042994	0.561425
	C7916	C	0.501088	0.962157	0.561424
	C7917	C	0.500862	0.043483	0.561678
	C7918	C	0.500859	0.962730	0.561659
	C7919	C	0.500155	0.462407	0.561111
	C7920	C	0.650016	0.462723	0.554855
	C7921	C	0.650381	0.462667	0.553014
	C7922	C	0.500180	0.543233	0.561148
	C7923	C	0.650390	0.543630	0.553029
	C7924	C	0.650034	0.543385	0.554841
	C7925	C	0.634928	0.752782	0.568275
	C7926	C	0.634852	0.253138	0.568202
	C7927	C	0.626809	0.752772	0.577002
	C7928	C	0.623214	0.691485	0.581183
	C7929	C	0.623148	0.814085	0.581142
	C7930	C	0.626778	0.253235	0.576959
	C7931	C	0.623072	0.191777	0.581067
	C7932	C	0.623190	0.314688	0.581150
	C7933	C	0.629934	0.253384	0.541267
	C7934	C	0.584941	0.752817	0.511832
	C7935	C	0.548054	0.752386	0.513521
	C7936	C	0.567211	0.752397	0.603693
	C7937	C	0.612820	0.691500	0.530082
	C7938	C	0.612820	0.813940	0.530048
	C7939	C	0.596633	0.752734	0.519430
	C7940	C	0.539855	0.752512	0.522209
	C7941	C	0.536192	0.691415	0.526357
	C7942	C	0.602113	0.691523	0.523022
	C7943	C	0.602115	0.813875	0.522986
	C7944	C	0.536068	0.813652	0.526297
	C7945	C	0.618223	0.752744	0.533672
	C7946	C	0.604079	0.752732	0.602203
	C7947	C	0.615928	0.691370	0.589344
	C7948	C	0.615877	0.814070	0.589305
	C7949	C	0.612120	0.752709	0.593438
	C7950	C	0.588234	0.462442	0.615937
	C7951	C	0.564216	0.462457	0.498642
	C7952	C	0.587603	0.462350	0.616808
	C7953	C	0.588195	0.543212	0.615924
	C7954	C	0.587543	0.543365	0.616810
	C7955	C	0.564204	0.543195	0.498636
	C7956	C	0.604122	0.253148	0.602172
	C7957	C	0.615779	0.191776	0.589221
	C7958	C	0.615921	0.314678	0.589316
	C7959	C	0.612159	0.253245	0.593422
	C7960	C	0.564391	0.043415	0.500476
	C7961	C	0.585018	0.252846	0.511799
	C7962	C	0.548179	0.252433	0.513565
	C7963	C	0.567217	0.252891	0.603740
	C7964	C	0.612793	0.191740	0.530076
	C7965	C	0.612869	0.314693	0.530042
	C7966	C	0.596686	0.253023	0.519408
	C7967	C	0.539956	0.252308	0.522240
	C7968	C	0.555624	0.752528	0.596039
	C7969	C	0.550172	0.814089	0.592436
	C7970	C	0.550209	0.690969	0.592409
	C7971	C	0.555588	0.253010	0.596099
	C7972	C	0.550186	0.314300	0.592445
	C7973	C	0.550161	0.191612	0.592490
	C7974	C	0.536147	0.191337	0.526329
	C7975	C	0.602099	0.191689	0.523002
	C7976	C	0.602172	0.314616	0.522975
	C7977	C	0.536222	0.313415	0.526346
	C7978	C	0.618261	0.253188	0.533658
	C7979	C	0.587996	0.043156	0.616976
	C7980	C	0.561842	0.043399	0.498815
	C7981	C	0.564372	0.962518	0.500472
	C7982	C	0.588005	0.962234	0.616990
	C7983	C	0.561866	0.962396	0.498800
	N7984	N	0.501083	0.070176	0.561602
	N7985	N	0.501070	0.935676	0.561592
	N7986	N	0.501077	0.435709	0.561591
	N7987	N	0.501108	0.570232	0.561633
	N7988	N	0.588321	0.435678	0.616516
	N7989	N	0.588277	0.570105	0.616513
	N7990	N	0.588306	0.070057	0.616429
	N7991	N	0.588308	0.935558	0.616450
	O7992	O	0.652023	0.694728	0.665778
	O7993	O	0.652068	0.810994	0.665726
	O7994	O	0.541824	0.694760	0.689211
	O7995	O	0.541776	0.810619	0.689264
	O7996	O	0.541874	0.195384	0.689206
	O7997	O	0.541772	0.311237	0.689277
	O7998	O	0.538556	0.694364	0.668082
	O7999	O	0.538577	0.810301	0.668060
	O8000	O	0.538543	0.194974	0.668079
	O8001	O	0.538425	0.311158	0.667993
	O8002	O	0.650857	0.694411	0.685741
	O8003	O	0.650869	0.811176	0.685700
	O8004	O	0.650792	0.194562	0.685665
	O8005	O	0.650867	0.311142	0.685721
	O8006	O	0.652005	0.194489	0.665745
	O8007	O	0.652028	0.310781	0.665783
	O8008	O	0.604101	0.694818	0.626754
	O8009	O	0.575387	0.694827	0.627332
	O8010	O	0.617761	0.694974	0.728318
	O8011	O	0.617844	0.811469	0.728317
	O8012	O	0.589602	0.694881	0.728335
	O8013	O	0.589525	0.811072	0.728308
	O8014	O	0.575315	0.810941	0.627290
	O8015	O	0.604133	0.811169	0.626741
	O8016	O	0.604216	0.194483	0.626662
	O8017	O	0.575579	0.194942	0.627403
	O8018	O	0.617722	0.194852	0.728323
	O8019	O	0.617977	0.311065	0.728377
	O8020	O	0.589643	0.195348	0.728258
	O8021	O	0.589657	0.311555	0.728302
	O8022	O	0.575546	0.311028	0.627392
	O8023	O	0.604138	0.310603	0.626787
	H8024	H	0.557127	0.644141	0.701778
	H8025	H	0.557233	0.860945	0.701708
	H8026	H	0.557283	0.144967	0.701715
	H8027	H	0.557271	0.361721	0.701659
	H8028	H	0.550473	0.860322	0.655121
	H8029	H	0.550443	0.644362	0.655021
	H8030	H	0.550311	0.361221	0.655000
	H8031	H	0.550431	0.144638	0.655077
	H8032	H	0.666179	0.064343	0.676449
	H8033	H	0.666488	0.064431	0.677101
	H8034	H	0.666540	0.941192	0.677127
	H8035	H	0.666216	0.941010	0.676395
	H8036	H	0.667066	0.064819	0.675812
	H8037	H	0.667142	0.941280	0.675799
	H8038	H	0.526870	0.064605	0.678743
	H8039	H	0.526869	0.941126	0.678766
	H8040	H	0.526295	0.064702	0.678362
	H8041	H	0.526297	0.941439	0.678346
	H8042	H	0.525162	0.064078	0.678437
	H8043	H	0.525188	0.941689	0.678454
	H8044	H	0.524670	0.441239	0.678889
	H8045	H	0.525150	0.441076	0.679549
	H8046	H	0.525392	0.441571	0.678145
	H8047	H	0.663735	0.441361	0.680110
	H8048	H	0.660972	0.441440	0.675294
	H8049	H	0.664419	0.441436	0.672499
	H8050	H	0.525080	0.564451	0.679559
	H8051	H	0.524595	0.564973	0.678918
	H8052	H	0.664450	0.565000	0.672572
	H8053	H	0.660979	0.564744	0.675332
	H8054	H	0.663764	0.564661	0.680085
	H8055	H	0.525363	0.564666	0.678139
	H8056	H	0.638650	0.643192	0.698816
	H8057	H	0.638966	0.862437	0.698852
	H8058	H	0.638628	0.143160	0.698778
	H8059	H	0.638672	0.362425	0.698766
	H8060	H	0.563509	0.644812	0.640287
	H8061	H	0.619534	0.644131	0.639203
	H8062	H	0.619655	0.861975	0.639174
	H8063	H	0.563556	0.860557	0.640347
	H8064	H	0.636609	0.643747	0.653279
	H8065	H	0.636688	0.861921	0.653242
	H8066	H	0.627435	0.643505	0.714308
	H8067	H	0.627757	0.862583	0.714333
	H8068	H	0.588769	0.441145	0.615786
	H8069	H	0.605357	0.440799	0.743145
	H8070	H	0.589559	0.441561	0.616601
	H8071	H	0.589118	0.441367	0.617190
	H8072	H	0.610030	0.441293	0.737145
	H8073	H	0.610777	0.441000	0.740479
	H8074	H	0.605307	0.564205	0.743182
	H8075	H	0.588728	0.564350	0.615702
	H8076	H	0.610779	0.564690	0.740504
	H8077	H	0.609952	0.564384	0.737138
	H8078	H	0.589131	0.564402	0.617244
	H8079	H	0.589580	0.564881	0.616533
	H8080	H	0.627498	0.143288	0.714300
	H8081	H	0.627553	0.362520	0.714279
	H8082	H	0.587976	0.064343	0.615562
	H8083	H	0.587148	0.064353	0.615988
	H8084	H	0.589408	0.064405	0.615987
	H8085	H	0.574238	0.860933	0.715807
	H8086	H	0.574108	0.644261	0.715888
	H8087	H	0.574269	0.362063	0.715763
	H8088	H	0.574261	0.145077	0.715812
	H8089	H	0.563683	0.144728	0.640422
	H8090	H	0.619695	0.143961	0.639140
	H8091	H	0.619684	0.361049	0.639203
	H8092	H	0.563592	0.361147	0.640325
	H8093	H	0.636734	0.144246	0.653244
	H8094	H	0.636684	0.361130	0.653285
	H8095	H	0.600058	0.064532	0.735322
	H8096	H	0.597750	0.064703	0.739003
	H8097	H	0.602757	0.064632	0.743563
	H8098	H	0.587135	0.941086	0.616016
	H8099	H	0.587994	0.940870	0.615591
	H8100	H	0.589428	0.941534	0.616026
	H8101	H	0.599986	0.941453	0.735251
	H8102	H	0.597664	0.941400	0.738958
	H8103	H	0.602770	0.940885	0.743537
	Zn8104	Zn	0.525886	0.680119	0.678957
	Zn8105	Zn	0.525994	0.825630	0.678958
	Zn8106	Zn	0.525947	0.180164	0.678978
	Zn8107	Zn	0.525904	0.325709	0.678994
	Zn8108	Zn	0.604918	0.680207	0.739161
	Zn8109	Zn	0.604822	0.825288	0.739096
	Zn8110	Zn	0.604921	0.180261	0.739113
	Zn8111	Zn	0.605023	0.325224	0.739112
	C8112	C	0.648005	0.752800	0.662524
	C8113	C	0.545840	0.752608	0.692465
	C8114	C	0.556189	0.752566	0.700875
	C8115	C	0.560957	0.691240	0.704882
	C8116	C	0.561012	0.813852	0.704842
	C8117	C	0.545861	0.253294	0.692470
	C8118	C	0.556222	0.253332	0.700880
	C8119	C	0.561079	0.192033	0.704848
	C8120	C	0.561054	0.314685	0.704822
	C8121	C	0.541660	0.752264	0.664698
	C8122	C	0.549635	0.752319	0.655917
	C8123	C	0.553346	0.813474	0.651808
	C8124	C	0.553326	0.691357	0.651755
	C8125	C	0.541607	0.253058	0.664669
	C8126	C	0.549647	0.252990	0.655904
	C8127	C	0.553330	0.314233	0.651751
	C8128	C	0.553383	0.191610	0.651808
	C8129	C	0.666627	0.043418	0.676726
	C8130	C	0.666659	0.962663	0.676731
	C8131	C	0.526401	0.043387	0.678640
	C8132	C	0.526415	0.962474	0.678633
	C8133	C	0.525279	0.043219	0.678792
	C8134	C	0.525290	0.962610	0.678794
	C8135	C	0.525164	0.462362	0.679141
	C8136	C	0.666710	0.462632	0.679471
	C8137	C	0.663974	0.462397	0.674645
	C8138	C	0.525113	0.543289	0.679157
	C8139	C	0.663970	0.543446	0.674642
	C8140	C	0.666729	0.543569	0.679472
	C8141	C	0.647397	0.752802	0.688971
	C8142	C	0.647362	0.252824	0.688952
	C8143	C	0.639466	0.752807	0.697866
	C8144	C	0.636165	0.690879	0.702249
	C8145	C	0.636340	0.814831	0.702259
	C8146	C	0.639413	0.252848	0.697846
	C8147	C	0.636150	0.190916	0.702234
	C8148	C	0.636168	0.314810	0.702223
	C8149	C	0.647968	0.252706	0.662549
	C8150	C	0.608184	0.753006	0.629952
	C8151	C	0.572198	0.752901	0.630659
	C8152	C	0.585497	0.752867	0.725111
	C8153	C	0.632823	0.691131	0.650143
	C8154	C	0.632875	0.814586	0.650117
	C8155	C	0.618577	0.753031	0.638336
	C8156	C	0.564189	0.752788	0.639441
	C8157	C	0.560561	0.691535	0.643583
	C8158	C	0.623370	0.691362	0.642328
	C8159	C	0.623422	0.814622	0.642304
	C8160	C	0.560581	0.813809	0.643624
	C8161	C	0.637637	0.752772	0.654113
	C8162	C	0.620421	0.753168	0.724695
	C8163	C	0.629996	0.691047	0.710869
	C8164	C	0.630177	0.814875	0.710881
	C8165	C	0.627090	0.753022	0.715329
	C8166	C	0.603566	0.462301	0.741579
	C8167	C	0.589057	0.462620	0.616794
	C8168	C	0.609013	0.462348	0.738905
	C8169	C	0.603540	0.543063	0.741592
	C8170	C	0.608991	0.543218	0.738910
	C8171	C	0.589052	0.543324	0.616792
	C8172	C	0.620464	0.252892	0.724706
	C8173	C	0.629996	0.190986	0.710862
	C8174	C	0.630024	0.314765	0.710853
	C8175	C	0.627041	0.252890	0.715332
	C8176	C	0.587779	0.043210	0.615955
	C8177	C	0.608269	0.252439	0.629909
	C8178	C	0.572384	0.252973	0.630734
	C8179	C	0.585580	0.253556	0.725072
	C8180	C	0.632847	0.191213	0.650122
	C8181	C	0.632830	0.314125	0.650163
	C8182	C	0.618615	0.252459	0.638317
	C8183	C	0.564347	0.252927	0.639481
	C8184	C	0.575194	0.752714	0.716679
	C8185	C	0.570423	0.813930	0.712676
	C8186	C	0.570367	0.691342	0.712720
	C8187	C	0.575252	0.253638	0.716662
	C8188	C	0.570467	0.314932	0.712658
	C8189	C	0.570482	0.192184	0.712681
	C8190	C	0.560689	0.191625	0.643654
	C8191	C	0.623412	0.191110	0.642299
	C8192	C	0.623413	0.313920	0.642333
	C8193	C	0.560640	0.314215	0.643601
	C8194	C	0.637599	0.252724	0.654128
	C8195	C	0.600516	0.043184	0.737647
	C8196	C	0.589205	0.043167	0.616372
	C8197	C	0.587761	0.962362	0.615968
	C8198	C	0.600489	0.962528	0.737642
	C8199	C	0.589197	0.962461	0.616392
	N8200	N	0.525944	0.070218	0.678939
	N8201	N	0.525954	0.935705	0.678937
	N8202	N	0.525908	0.435671	0.678930
	N8203	N	0.525886	0.570168	0.678937
	N8204	N	0.605037	0.435519	0.739156
	N8205	N	0.604985	0.570121	0.739168
	N8206	N	0.605012	0.070086	0.739082
	N8207	N	0.604967	0.935526	0.739062
	O8208	O	0.601645	0.694747	0.799680
	O8209	O	0.601606	0.811644	0.799630
	O8210	O	0.553220	0.694661	0.814540
	O8211	O	0.553255	0.811601	0.814493
	O8212	O	0.553058	0.194318	0.814524
	O8213	O	0.553177	0.311058	0.814528
	O8214	O	0.555405	0.694365	0.790835
	O8215	O	0.555441	0.810808	0.790843
	O8216	O	0.555380	0.194567	0.790809
	O8217	O	0.555426	0.310859	0.790857
	O8218	O	0.599159	0.694986	0.823295
	O8219	O	0.599213	0.811579	0.823334
	O8220	O	0.599231	0.194480	0.823326
	O8221	O	0.599136	0.310984	0.823267
	O8222	O	0.601508	0.193700	0.799729
	O8223	O	0.601555	0.310561	0.799696
	O8224	O	0.615504	0.694679	0.752040
	O8225	O	0.588474	0.694142	0.748278
	O8226	O	0.566081	0.694264	0.865887
	O8227	O	0.566280	0.811008	0.865970
	O8228	O	0.538892	0.694972	0.862093
	O8229	O	0.539083	0.811799	0.862097
	O8230	O	0.588318	0.810887	0.748166
	O8231	O	0.615585	0.811618	0.751988
	O8232	O	0.615433	0.193619	0.752059
	O8233	O	0.588384	0.194858	0.748198
	O8234	O	0.566154	0.194974	0.865954
	O8235	O	0.566099	0.311750	0.865924
	O8236	O	0.539006	0.194204	0.862139
	O8237	O	0.538996	0.311055	0.862108
	O8238	O	0.588503	0.311527	0.748226
	O8239	O	0.615631	0.310331	0.752056
	H8240	H	0.549383	0.643650	0.829900
	H8241	H	0.549445	0.863203	0.829926
	H8242	H	0.549429	0.142703	0.829958
	H8243	H	0.549368	0.362634	0.829949
	H8244	H	0.565065	0.862149	0.776826
	H8245	H	0.565205	0.643163	0.776843
	H8246	H	0.565316	0.362481	0.776880
	H8247	H	0.565345	0.143591	0.776862
	H8248	H	0.613141	0.064593	0.813794
	H8249	H	0.614126	0.064572	0.812955
	H8250	H	0.614004	0.940943	0.812877
	H8251	H	0.613098	0.941063	0.813749
	H8252	H	0.610925	0.064504	0.813532
	H8253	H	0.610909	0.941369	0.813429
	H8254	H	0.545925	0.064433	0.801303
	H8255	H	0.545988	0.940729	0.801376
	H8256	H	0.544332	0.064214	0.799713
	H8257	H	0.544388	0.940523	0.799639
	H8258	H	0.540351	0.064087	0.799663
	H8259	H	0.540372	0.941143	0.799614
	H8260	H	0.542579	0.440962	0.797388
	H8261	H	0.537747	0.441088	0.798678
	H8262	H	0.548450	0.440478	0.800481
	H8263	H	0.606586	0.441222	0.813470
	H8264	H	0.608702	0.440968	0.809317
	H8265	H	0.613529	0.441000	0.808859
	H8266	H	0.537745	0.564136	0.798674
	H8267	H	0.542590	0.564607	0.797410
	H8268	H	0.613513	0.564403	0.808867
	H8269	H	0.608749	0.564643	0.809333
	H8270	H	0.606588	0.564548	0.813512
	H8271	H	0.548483	0.564706	0.800524
	H8272	H	0.589230	0.643584	0.837237
	H8273	H	0.589689	0.862689	0.837485
	H8274	H	0.589381	0.143365	0.837341
	H8275	H	0.589267	0.362820	0.837265
	H8276	H	0.576283	0.643245	0.761291
	H8277	H	0.611831	0.643318	0.767466
	H8278	H	0.611797	0.863117	0.767425
	H8279	H	0.576107	0.862355	0.761291
	H8280	H	0.605380	0.643200	0.784250
	H8281	H	0.605356	0.863097	0.784213
	H8282	H	0.577987	0.643133	0.852704
	H8283	H	0.578505	0.862257	0.852985
	H8284	H	0.600703	0.441021	0.741724
	H8285	H	0.550404	0.441383	0.879827
	H8286	H	0.599588	0.440719	0.737132
	H8287	H	0.603564	0.441189	0.735142
	H8288	H	0.555434	0.441849	0.872411
	H8289	H	0.556549	0.441032	0.876448
	H8290	H	0.550454	0.564700	0.879842
	H8291	H	0.600594	0.564478	0.741733
	H8292	H	0.556711	0.564903	0.876445
	H8293	H	0.555408	0.564805	0.872380
	H8294	H	0.603548	0.564456	0.735157
	H8295	H	0.599613	0.564401	0.737129
	H8296	H	0.578241	0.143765	0.852845
	H8297	H	0.578108	0.362888	0.852766
	H8298	H	0.612045	0.064508	0.738314
	H8299	H	0.608355	0.064410	0.734949
	H8300	H	0.608793	0.064629	0.743305
	H8301	H	0.542910	0.863228	0.846691
	H8302	H	0.542830	0.643486	0.846661
	H8303	H	0.542776	0.362383	0.846703
	H8304	H	0.542840	0.142701	0.846713
	H8305	H	0.576517	0.143598	0.761359
	H8306	H	0.611852	0.142359	0.767497
	H8307	H	0.611780	0.361823	0.767516
	H8308	H	0.576464	0.362801	0.761384
	H8309	H	0.605318	0.142096	0.784263
	H8310	H	0.605321	0.361427	0.784307
	H8311	H	0.543779	0.064529	0.877463
	H8312	H	0.548862	0.064418	0.879695
	H8313	H	0.555953	0.064985	0.877452
	H8314	H	0.608279	0.941097	0.734923
	H8315	H	0.611904	0.940998	0.738249
	H8316	H	0.608746	0.940577	0.743264
	H8317	H	0.543980	0.940851	0.877477
	H8318	H	0.548944	0.940823	0.879670
	H8319	H	0.555986	0.940904	0.877410
	Zn8320	Zn	0.542492	0.680392	0.801651
	Zn8321	Zn	0.542443	0.825275	0.801598
	Zn8322	Zn	0.542511	0.180273	0.801609
	Zn8323	Zn	0.542462	0.325149	0.801619
	Zn8324	Zn	0.549630	0.680698	0.875038
	Zn8325	Zn	0.549709	0.825410	0.875028
	Zn8326	Zn	0.549657	0.180743	0.875042
	Zn8327	Zn	0.549608	0.325506	0.875006
	C8328	C	0.602153	0.753089	0.795577
	C8329	C	0.552644	0.753195	0.818590
	C8330	C	0.549881	0.753329	0.828920
	C8331	C	0.547916	0.691273	0.833648
	C8332	C	0.547969	0.815474	0.833667
	C8333	C	0.552548	0.252706	0.818613
	C8334	C	0.549806	0.252666	0.828927
	C8335	C	0.547921	0.190454	0.833673
	C8336	C	0.547891	0.314831	0.833668
	C8337	C	0.558100	0.752597	0.787232
	C8338	C	0.564702	0.752640	0.777855
	C8339	C	0.567551	0.814640	0.773375
	C8340	C	0.567631	0.690756	0.773373
	C8341	C	0.558071	0.252783	0.787207
	C8342	C	0.564701	0.252981	0.777844
	C8343	C	0.567757	0.314916	0.773414
	C8344	C	0.567767	0.191187	0.773399
	C8345	C	0.613232	0.043352	0.813162
	C8346	C	0.613174	0.962421	0.813132
	C8347	C	0.544507	0.043124	0.800784
	C8348	C	0.544534	0.962042	0.800789
	C8349	C	0.540538	0.043110	0.800792
	C8350	C	0.540525	0.962442	0.800761
	C8351	C	0.540798	0.462290	0.798973
	C8352	C	0.609252	0.462422	0.814173
	C8353	C	0.611369	0.462225	0.809996
	C8354	C	0.540807	0.543006	0.798988
	C8355	C	0.611361	0.543244	0.810002
	C8356	C	0.609248	0.543320	0.814189
	C8357	C	0.596622	0.753284	0.826959
	C8358	C	0.596513	0.252808	0.826898
	C8359	C	0.590022	0.753151	0.836360
	C8360	C	0.586884	0.691110	0.840748
	C8361	C	0.587160	0.814953	0.840896
	C8362	C	0.589905	0.253014	0.836285
	C8363	C	0.586950	0.191098	0.840776
	C8364	C	0.586862	0.315098	0.840729
	C8365	C	0.602088	0.252036	0.795634
	C8366	C	0.614989	0.753267	0.756094
	C8367	C	0.584972	0.752591	0.751496
	C8368	C	0.539545	0.753314	0.858017
	C8369	C	0.606713	0.690975	0.780496
	C8370	C	0.606700	0.815298	0.780471
	C8371	C	0.612311	0.753170	0.766434
	C8372	C	0.577022	0.752788	0.760385
	C8373	C	0.573767	0.690838	0.764744
	C8374	C	0.610399	0.691081	0.771197
	C8375	C	0.610390	0.815375	0.771171
	C8376	C	0.573662	0.814700	0.764742
	C8377	C	0.604756	0.753069	0.785224
	C8378	C	0.569653	0.752648	0.862686
	C8379	C	0.580735	0.690850	0.849384
	C8380	C	0.580986	0.814799	0.849519
	C8381	C	0.577685	0.752755	0.853843
	C8382	C	0.548012	0.462803	0.878041
	C8383	C	0.602516	0.462324	0.736937
	C8384	C	0.554266	0.462487	0.874579
	C8385	C	0.548039	0.543407	0.878055
	C8386	C	0.554316	0.543430	0.874577
	C8387	C	0.602494	0.543216	0.736945
	C8388	C	0.569592	0.253381	0.862680
	C8389	C	0.580813	0.191327	0.849406
	C8390	C	0.580732	0.315246	0.849366
	C8391	C	0.577511	0.253297	0.853762
	C8392	C	0.608836	0.043252	0.737266
	C8393	C	0.615005	0.252025	0.756150
	C8394	C	0.584995	0.253241	0.751476
	C8395	C	0.539541	0.252552	0.858037
	C8396	C	0.606702	0.189894	0.780519
	C8397	C	0.606690	0.313942	0.780551
	C8398	C	0.612310	0.252157	0.766480
	C8399	C	0.577117	0.253224	0.760391
	C8400	C	0.542219	0.753296	0.847679
	C8401	C	0.544239	0.815409	0.842963
	C8402	C	0.544179	0.691255	0.842940
	C8403	C	0.542236	0.252580	0.847703
	C8404	C	0.544201	0.314707	0.842968
	C8405	C	0.544244	0.190448	0.842977
	C8406	C	0.573919	0.191302	0.764774
	C8407	C	0.610387	0.189983	0.771220
	C8408	C	0.610380	0.314078	0.771248
	C8409	C	0.573920	0.315083	0.764791
	C8410	C	0.604766	0.251907	0.785282
	C8411	C	0.547174	0.043354	0.877657
	C8412	C	0.605590	0.043373	0.742293
	C8413	C	0.608803	0.962365	0.737245
	C8414	C	0.547219	0.962450	0.877654
	C8415	C	0.605595	0.962303	0.742268
	N8416	N	0.542584	0.069994	0.801552
	N8417	N	0.542580	0.935376	0.801545
	N8418	N	0.542553	0.435406	0.801611
	N8419	N	0.542576	0.570060	0.801621
	N8420	N	0.549554	0.435569	0.875018
	N8421	N	0.549605	0.570217	0.875012
	N8422	N	0.549614	0.070459	0.875067
	N8423	N	0.549673	0.935813	0.875042
	O8424	O	0.610921	0.694567	0.925938
	O8425	O	0.610895	0.810674	0.925919
	O8426	O	0.502481	0.694924	0.948485
	O8427	O	0.502378	0.811026	0.948521
	O8428	O	0.502519	0.194660	0.948467
	O8429	O	0.502504	0.310747	0.948479
	O8430	O	0.503936	0.694799	0.928568
	O8431	O	0.503822	0.811663	0.928459
	O8432	O	0.503709	0.194303	0.928471
	O8433	O	0.503754	0.311155	0.928461
	O8434	O	0.613275	0.694633	0.947238
	O8435	O	0.613316	0.810803	0.947188
	O8436	O	0.613263	0.194984	0.947259
	O8437	O	0.613236	0.310976	0.947195
	O8438	O	0.610995	0.195054	0.925909
	O8439	O	0.610889	0.311312	0.925978
	O8440	O	0.564751	0.694654	0.885994
	O8441	O	0.536692	0.695107	0.885790
	O8442	O	0.577234	0.694836	0.988355
	O8443	O	0.577354	0.810904	0.988349
	O8444	O	0.548612	0.694955	0.988459
	O8445	O	0.548570	0.811348	0.988521
	O8446	O	0.536759	0.811378	0.885822
	O8447	O	0.564799	0.810827	0.885988
	O8448	O	0.564824	0.195057	0.885937
	O8449	O	0.536657	0.194506	0.885848
	O8450	O	0.577186	0.195362	0.988346
	O8451	O	0.577209	0.311141	0.988345
	O8452	O	0.548529	0.195354	0.988504
	O8453	O	0.548506	0.311236	0.988543
	O8454	O	0.536749	0.311015	0.885870
	O8455	O	0.564688	0.311484	0.885983
	H8456	H	0.517376	0.644910	0.961208
	H8457	H	0.517219	0.860907	0.961315
	H8458	H	0.517341	0.144956	0.961327
	H8459	H	0.517448	0.360849	0.961202
	H8460	H	0.515886	0.862795	0.915334
	H8461	H	0.516099	0.643495	0.915430
	H8462	H	0.516023	0.362275	0.915443
	H8463	H	0.515670	0.143104	0.915325
	H8464	H	0.622613	0.064683	0.933927
	H8465	H	0.621176	0.064799	0.936643
	H8466	H	0.621140	0.941244	0.936613
	H8467	H	0.622549	0.941430	0.933874
	H8468	H	0.628528	0.064200	0.933360
	H8469	H	0.628460	0.941340	0.933313
	H8470	H	0.491883	0.064245	0.940528
	H8471	H	0.491952	0.941540	0.940524
	H8472	H	0.493373	0.065199	0.937171
	H8473	H	0.493407	0.941341	0.937221
	H8474	H	0.488398	0.065037	0.933540
	H8475	H	0.488380	0.940966	0.933584
	H8476	H	0.478250	0.441300	0.936646
	H8477	H	0.480785	0.441404	0.941517
	H8478	H	0.485131	0.441268	0.931627
	H8479	H	0.624819	0.441017	0.935715
	H8480	H	0.626903	0.441441	0.935258
	H8481	H	0.628280	0.441352	0.936003
	H8482	H	0.480780	0.564741	0.941531
	H8483	H	0.478238	0.565045	0.936617
	H8484	H	0.628320	0.564629	0.936068
	H8485	H	0.627059	0.564260	0.935228
	H8486	H	0.624756	0.564491	0.935653
	H8487	H	0.485127	0.565091	0.931654
	H8488	H	0.601533	0.644685	0.960328
	H8489	H	0.601747	0.860894	0.960335
	H8490	H	0.601509	0.144744	0.960318
	H8491	H	0.601585	0.361571	0.960315
	H8492	H	0.527172	0.643705	0.899906
	H8493	H	0.579572	0.644479	0.898776
	H8494	H	0.579762	0.860734	0.898680
	H8495	H	0.526980	0.862547	0.899837
	H8496	H	0.595984	0.644403	0.913190
	H8497	H	0.596160	0.860756	0.913111
	H8498	H	0.588741	0.644883	0.975210
	H8499	H	0.588968	0.861027	0.975224
	H8500	H	0.544600	0.441556	0.878361
	H8501	H	0.564883	0.441168	1.000816
	H8502	H	0.542987	0.441204	0.872846
	H8503	H	0.547503	0.441883	0.870351
	H8504	H	0.565952	0.441651	0.997721
	H8505	H	0.566835	0.441575	0.999200
	H8506	H	0.564825	0.565350	1.000805
	H8507	H	0.544658	0.564908	0.878384
	H8508	H	0.566797	0.564571	0.999267
	H8509	H	0.565965	0.564531	0.997786
	H8510	H	0.547548	0.564656	0.870352
	H8511	H	0.543010	0.565222	0.872819
	H8512	H	0.588786	0.145046	0.975189
	H8513	H	0.588840	0.361491	0.975205
	H8514	H	0.549200	0.064376	0.870351
	H8515	H	0.544022	0.064803	0.872035
	H8516	H	0.556111	0.064706	0.873455
	H8517	H	0.533657	0.860930	0.975724
	H8518	H	0.533788	0.645118	0.975652
	H8519	H	0.533748	0.361118	0.975665
	H8520	H	0.533649	0.145201	0.975792
	H8521	H	0.526770	0.143192	0.899805
	H8522	H	0.579727	0.144744	0.898718
	H8523	H	0.579611	0.362126	0.898789
	H8524	H	0.527165	0.362229	0.899917
	H8525	H	0.596112	0.144514	0.913142
	H8526	H	0.596024	0.361949	0.913251
	H8527	H	0.567270	0.064249	0.999885
	H8528	H	0.567039	0.064816	0.997947
	H8529	H	0.563426	0.064991	0.996689
	H8530	H	0.544047	0.941335	0.872053
	H8531	H	0.549246	0.941611	0.870366
	H8532	H	0.556145	0.941191	0.873444
	H8533	H	0.567359	0.941606	0.999896
	H8534	H	0.567057	0.941365	0.997948
	H8535	H	0.563464	0.941410	0.996693
	Zn8536	Zn	0.487309	0.680480	0.937596
	Zn8537	Zn	0.487307	0.825730	0.937608
	Zn8538	Zn	0.487227	0.180660	0.937560
	Zn8539	Zn	0.487306	0.325886	0.937571
	Zn8540	Zn	0.564027	0.680005	0.999037
	Zn8541	Zn	0.564088	0.825618	0.999049
	Zn8542	Zn	0.564065	0.180282	0.999040
	Zn8543	Zn	0.564078	0.325721	0.999083
	C8544	C	0.606990	0.752587	0.922637
	C8545	C	0.506357	0.752986	0.951778
	C8546	C	0.516288	0.752910	0.960415
	C8547	C	0.520952	0.691820	0.964469
	C8548	C	0.520869	0.814017	0.964527
	C8549	C	0.506474	0.252726	0.951740
	C8550	C	0.516380	0.252836	0.960376
	C8551	C	0.520943	0.191937	0.964528
	C8552	C	0.521007	0.313938	0.964453
	C8553	C	0.507293	0.753135	0.925242
	C8554	C	0.515241	0.753088	0.916353
	C8555	C	0.518452	0.815072	0.911946
	C8556	C	0.518568	0.691263	0.911997
	C8557	C	0.507166	0.252660	0.925216
	C8558	C	0.515086	0.252673	0.916322
	C8559	C	0.518486	0.314686	0.911989
	C8560	C	0.518292	0.190733	0.911928
	C8561	C	0.623056	0.043458	0.935585
	C8562	C	0.623028	0.962426	0.935584
	C8563	C	0.491165	0.043486	0.938508
	C8564	C	0.491185	0.962767	0.938500
	C8565	C	0.486163	0.043549	0.934828
	C8566	C	0.486191	0.962702	0.934828
	C8567	C	0.481521	0.462816	0.938670
	C8568	C	0.625138	0.462281	0.936319
	C8569	C	0.627323	0.462587	0.935870
	C8570	C	0.481541	0.543604	0.938675
	C8571	C	0.627368	0.543344	0.935883
	C8572	C	0.625108	0.543350	0.936306
	C8573	C	0.610179	0.752764	0.950589
	C8574	C	0.610157	0.253086	0.950614
	C8575	C	0.602368	0.752770	0.959451
	C8576	C	0.598729	0.691661	0.963646
	C8577	C	0.598858	0.813978	0.963640
	C8578	C	0.602335	0.253232	0.959457
	C8579	C	0.598711	0.191915	0.963632
	C8580	C	0.598743	0.314581	0.963627
	C8581	C	0.607028	0.253207	0.922652
	C8582	C	0.568702	0.752719	0.889275
	C8583	C	0.534104	0.753234	0.889446
	C8584	C	0.544647	0.753210	0.985210
	C8585	C	0.592324	0.691377	0.909987
	C8586	C	0.592422	0.813823	0.909939
	C8587	C	0.578654	0.752639	0.897885
	C8588	C	0.527512	0.753142	0.898836
	C8589	C	0.524691	0.691323	0.903359
	C8590	C	0.583236	0.691376	0.901987
	C8591	C	0.583325	0.813854	0.901937
	C8592	C	0.524573	0.815060	0.903309
	C8593	C	0.596954	0.752643	0.914051
	C8594	C	0.580388	0.752815	0.984969
	C8595	C	0.591705	0.691586	0.971915
	C8596	C	0.591845	0.814110	0.971915
	C8597	C	0.588239	0.752884	0.976123
	C8598	C	0.563808	0.462490	1.000236
	C8599	C	0.546329	0.462727	0.872503
	C8600	C	0.565769	0.462891	0.998618
	C8601	C	0.563784	0.543478	1.000210
	C8602	C	0.565784	0.543371	0.998640
	C8603	C	0.546364	0.543694	0.872520
	C8604	C	0.580322	0.253268	0.984961
	C8605	C	0.591680	0.192009	0.971902
	C8606	C	0.591711	0.314532	0.971901
	C8607	C	0.588173	0.253330	0.976113
	C8608	C	0.547377	0.043332	0.872215
	C8609	C	0.568726	0.253314	0.889219
	C8610	C	0.534002	0.252783	0.889461
	C8611	C	0.544592	0.253342	0.985228
	C8612	C	0.592455	0.191698	0.909938
	C8613	C	0.592407	0.314899	0.909994
	C8614	C	0.578749	0.253459	0.897845
	C8615	C	0.527437	0.252708	0.898862
	C8616	C	0.534593	0.753005	0.976612
	C8617	C	0.529977	0.814064	0.972526
	C8618	C	0.530042	0.691932	0.972480
	C8619	C	0.534603	0.253206	0.976608
	C8620	C	0.530052	0.314212	0.972485
	C8621	C	0.529988	0.192004	0.972555
	C8622	C	0.524397	0.190695	0.903292
	C8623	C	0.583377	0.191900	0.901922
	C8624	C	0.583318	0.314910	0.901975
	C8625	C	0.524601	0.314725	0.903349
	C8626	C	0.597081	0.253265	0.914025
	C8627	C	0.566344	0.043546	0.998917
	C8628	C	0.554318	0.043486	0.875347
	C8629	C	0.547395	0.962628	0.872225
	C8630	C	0.566366	0.962615	0.998925
	C8631	C	0.554343	0.962375	0.875335
	N8632	N	0.487134	0.070522	0.937554
	N8633	N	0.487181	0.935905	0.937575
	N8634	N	0.487210	0.435895	0.937570
	N8635	N	0.487201	0.570412	0.937604
	N8636	N	0.564039	0.435668	0.999016
	N8637	N	0.564052	0.570114	0.999031
	N8638	N	0.564046	0.070319	0.998959
	N8639	N	0.564074	0.935825	0.998965
	O8640	O	0.699558	0.694335	0.058660
	O8641	O	0.699293	0.811070	0.058632
	O8642	O	0.651292	0.694584	0.073491
	O8643	O	0.651206	0.811160	0.073548
	O8644	O	0.651278	0.194402	0.073617
	O8645	O	0.651060	0.311208	0.073625
	O8646	O	0.653553	0.694570	0.049911
	O8647	O	0.653554	0.810986	0.049957
	O8648	O	0.653451	0.194690	0.049904
	O8649	O	0.653305	0.311227	0.049830
	O8650	O	0.697061	0.694689	0.082315
	O8651	O	0.697211	0.811016	0.082293
	O8652	O	0.697046	0.194872	0.082286
	O8653	O	0.697311	0.311271	0.082388
	O8654	O	0.699609	0.194269	0.058612
	O8655	O	0.699521	0.311136	0.058637
	O8656	O	0.713534	0.694736	0.011007
	O8657	O	0.686280	0.695176	0.007199
	O8658	O	0.664182	0.694675	0.124915
	O8659	O	0.664184	0.811237	0.124957
	O8660	O	0.637170	0.694727	0.121154
	O8661	O	0.636980	0.811502	0.121141
	O8662	O	0.686315	0.811781	0.007252
	O8663	O	0.713486	0.811353	0.011017
	O8664	O	0.713614	0.194530	0.010976
	O8665	O	0.686352	0.194752	0.007225
	O8666	O	0.664347	0.194577	0.125011
	O8667	O	0.664249	0.311243	0.125025
	O8668	O	0.637116	0.194544	0.121229
	O8669	O	0.637019	0.311386	0.121189
	O8670	O	0.686355	0.311571	0.007226
	O8671	O	0.713535	0.311559	0.010995
	H8672	H	0.647476	0.642871	0.088983
	H8673	H	0.647406	0.862661	0.088954
	H8674	H	0.647374	0.142849	0.089049
	H8675	H	0.647428	0.362672	0.089028
	H8676	H	0.663196	0.862356	0.035917
	H8677	H	0.663446	0.643276	0.035917
	H8678	H	0.663008	0.362573	0.035786
	H8679	H	0.663137	0.143287	0.035809
	H8680	H	0.713686	0.064300	0.070555
	H8681	H	0.711059	0.064327	0.069028
	H8682	H	0.711154	0.941501	0.068966
	H8683	H	0.713719	0.940936	0.070534
	H8684	H	0.712970	0.064496	0.073581
	H8685	H	0.713014	0.940966	0.073490
	H8686	H	0.649313	0.064555	0.065718
	H8687	H	0.649185	0.940825	0.065707
	H8688	H	0.651617	0.064524	0.059726
	H8689	H	0.651558	0.941291	0.059699
	H8690	H	0.642363	0.064566	0.053274
	H8691	H	0.642412	0.941200	0.053314
	H8692	H	0.638169	0.441236	0.059217
	H8693	H	0.637484	0.441505	0.060913
	H8694	H	0.641611	0.441165	0.058785
	H8695	H	0.708020	0.441378	0.068651
	H8696	H	0.713401	0.441152	0.069447
	H8697	H	0.714780	0.441095	0.071977
	H8698	H	0.637388	0.564592	0.060898
	H8699	H	0.638103	0.564978	0.059199
	H8700	H	0.714796	0.564203	0.071992
	H8701	H	0.713436	0.564780	0.069424
	H8702	H	0.708030	0.564514	0.068649
	H8703	H	0.641587	0.564831	0.058707
	H8704	H	0.687562	0.643762	0.096403
	H8705	H	0.687301	0.862496	0.096334
	H8706	H	0.687433	0.143637	0.096343
	H8707	H	0.687582	0.362895	0.096421
	H8708	H	0.674463	0.643647	0.020383
	H8709	H	0.709918	0.642940	0.026496
	H8710	H	0.709715	0.862776	0.026415
	H8711	H	0.674182	0.862802	0.020379
	H8712	H	0.703365	0.643051	0.043249
	H8713	H	0.703232	0.862679	0.043185
	H8714	H	0.676381	0.643708	0.111910
	H8715	H	0.676180	0.862629	0.111814
	H8716	H	0.706675	0.441896	-0.000608
	H8717	H	0.644737	0.441489	0.134360
	H8718	H	0.702570	0.441111	0.000908
	H8719	H	0.699449	0.441021	-0.000378
	H8720	H	0.649562	0.441097	0.135712
	H8721	H	0.647174	0.441525	0.136058
	H8722	H	0.644824	0.564573	0.134289
	H8723	H	0.706725	0.564197	-0.000559
	H8724	H	0.647266	0.564541	0.136072
	H8725	H	0.649683	0.564881	0.135696
	H8726	H	0.699474	0.565110	-0.000334
	H8727	H	0.702574	0.564745	0.000938
	H8728	H	0.676282	0.143416	0.111835
	H8729	H	0.676409	0.363021	0.111914
	H8730	H	0.709933	0.064299	-0.001853
	H8731	H	0.707237	0.064314	-0.005448
	H8732	H	0.705549	0.064904	0.002568
	H8733	H	0.640871	0.862756	0.105712
	H8734	H	0.640939	0.643176	0.105771
	H8735	H	0.640916	0.362920	0.105805
	H8736	H	0.640813	0.143088	0.105813
	H8737	H	0.674239	0.143518	0.020268
	H8738	H	0.709741	0.142878	0.026378
	H8739	H	0.709831	0.362603	0.026433
	H8740	H	0.674119	0.362832	0.020296
	H8741	H	0.703304	0.142888	0.043179
	H8742	H	0.703380	0.362512	0.043216
	H8743	H	0.650567	0.064423	0.136732
	H8744	H	0.652370	0.064519	0.134428
	H8745	H	0.649495	0.064493	0.131363
	H8746	H	0.707141	0.941144	-0.005409
	H8747	H	0.709845	0.941004	-0.001828
	H8748	H	0.705485	0.941033	0.002535
	H8749	H	0.650564	0.941581	0.136646
	H8750	H	0.652258	0.940951	0.134429
	H8751	H	0.649439	0.940708	0.131390
	Zn8752	Zn	0.640473	0.680524	0.060622
	Zn8753	Zn	0.640502	0.825721	0.060620
	Zn8754	Zn	0.640607	0.180687	0.060711
	Zn8755	Zn	0.640571	0.325691	0.060696
	Zn8756	Zn	0.647772	0.680399	0.134061
	Zn8757	Zn	0.647716	0.825445	0.134085
	Zn8758	Zn	0.647765	0.180212	0.134087
	Zn8759	Zn	0.647707	0.325410	0.134089
	C8760	C	0.700002	0.752731	0.054561
	C8761	C	0.650659	0.752770	0.077607
	C8762	C	0.647984	0.752720	0.087934
	C8763	C	0.646064	0.690695	0.092698
	C8764	C	0.646016	0.814854	0.092681
	C8765	C	0.650624	0.252755	0.077706
	C8766	C	0.647922	0.252815	0.088046
	C8767	C	0.645966	0.190669	0.092790
	C8768	C	0.646010	0.315039	0.092778
	C8769	C	0.656180	0.752821	0.046305
	C8770	C	0.662738	0.752815	0.036912
	C8771	C	0.665639	0.814798	0.032455
	C8772	C	0.665803	0.691003	0.032451
	C8773	C	0.655999	0.252919	0.046230
	C8774	C	0.662596	0.252884	0.036835
	C8775	C	0.665487	0.314927	0.032353
	C8776	C	0.665560	0.190872	0.032358
	C8777	C	0.711780	0.043178	0.070245
	C8778	C	0.711806	0.962529	0.070223
	C8779	C	0.647901	0.043257	0.062196
	C8780	C	0.647838	0.962490	0.062170
	C8781	C	0.638609	0.043584	0.055750
	C8782	C	0.638591	0.962715	0.055748
	C8783	C	0.638579	0.462542	0.060221
	C8784	C	0.707626	0.462601	0.070122
	C8785	C	0.712992	0.462424	0.070908
	C8786	C	0.638533	0.543401	0.060212
	C8787	C	0.713015	0.543254	0.070941
	C8788	C	0.707614	0.543397	0.070130
	C8789	C	0.694577	0.753000	0.085956
	C8790	C	0.694588	0.253082	0.085976
	C8791	C	0.687955	0.753046	0.095326
	C8792	C	0.685042	0.691274	0.099827
	C8793	C	0.684930	0.814905	0.099780
	C8794	C	0.688004	0.253210	0.095377
	C8795	C	0.684989	0.191207	0.099809
	C8796	C	0.685073	0.315224	0.099860
	C8797	C	0.700117	0.252757	0.054541
	C8798	C	0.712992	0.752992	0.015105
	C8799	C	0.682867	0.753445	0.010498
	C8800	C	0.637639	0.753144	0.117058
	C8801	C	0.704737	0.690828	0.039508
	C8802	C	0.704627	0.814965	0.039453
	C8803	C	0.710329	0.752889	0.025443
	C8804	C	0.675000	0.753227	0.019409
	C8805	C	0.671878	0.691205	0.023799
	C8806	C	0.708453	0.690772	0.030211
	C8807	C	0.708356	0.815000	0.030158
	C8808	C	0.671723	0.814967	0.023807
	C8809	C	0.702746	0.752920	0.044233
	C8810	C	0.667645	0.753023	0.121679
	C8811	C	0.678919	0.691236	0.108465
	C8812	C	0.678818	0.815055	0.108416
	C8813	C	0.675637	0.753148	0.112806
	C8814	C	0.645728	0.462502	0.133693
	C8815	C	0.701532	0.462236	-0.000281
	C8816	C	0.648187	0.462483	0.135412
	C8817	C	0.645772	0.543355	0.133673
	C8818	C	0.648186	0.543341	0.135405
	C8819	C	0.701535	0.543540	-0.000265
	C8820	C	0.667751	0.253001	0.121754
	C8821	C	0.678870	0.191201	0.108450
	C8822	C	0.678941	0.315224	0.108497
	C8823	C	0.675665	0.253162	0.112854
	C8824	C	0.707124	0.043319	-0.003180
	C8825	C	0.713009	0.252998	0.015056
	C8826	C	0.682926	0.253164	0.010488
	C8827	C	0.637630	0.252920	0.117136
	C8828	C	0.704715	0.190495	0.039441
	C8829	C	0.704766	0.314832	0.039471
	C8830	C	0.710341	0.252799	0.025395
	C8831	C	0.674976	0.253122	0.019375
	C8832	C	0.640345	0.753043	0.106714
	C8833	C	0.642283	0.815031	0.101972
	C8834	C	0.642324	0.690842	0.101993
	C8835	C	0.640334	0.252984	0.106816
	C8836	C	0.642298	0.315126	0.102075
	C8837	C	0.642254	0.190813	0.102086
	C8838	C	0.671715	0.191054	0.023728
	C8839	C	0.708401	0.190540	0.030129
	C8840	C	0.708452	0.314813	0.030163
	C8841	C	0.671662	0.315096	0.023736
	C8842	C	0.702805	0.252696	0.044193
	C8843	C	0.650429	0.043311	0.135184
	C8844	C	0.702658	0.043448	0.001242
	C8845	C	0.707069	0.962526	-0.003173
	C8846	C	0.650432	0.962622	0.135152
	C8847	C	0.702660	0.962382	0.001222
	N8848	N	0.640625	0.070558	0.060675
	N8849	N	0.640588	0.935970	0.060658
	N8850	N	0.640590	0.435713	0.060679
	N8851	N	0.640549	0.570235	0.060661
	N8852	N	0.647649	0.435591	0.134121
	N8853	N	0.647721	0.570148	0.134095
	N8854	N	0.647675	0.070137	0.134112
	N8855	N	0.647651	0.935591	0.134112
	O8856	O	0.710731	0.694927	0.184071
	O8857	O	0.710800	0.810809	0.184003
	O8858	O	0.600349	0.694412	0.207435
	O8859	O	0.600531	0.810519	0.207391
	O8860	O	0.600453	0.194696	0.207408
	O8861	O	0.600472	0.310948	0.207392
	O8862	O	0.601603	0.694233	0.187424
	O8863	O	0.601815	0.810957	0.187484
	O8864	O	0.601758	0.194341	0.187508
	O8865	O	0.601653	0.311077	0.187439
	O8866	O	0.714092	0.695141	0.205249
	O8867	O	0.714096	0.811205	0.205245
	O8868	O	0.713998	0.195222	0.205233
	O8869	O	0.714097	0.311370	0.205280
	O8870	O	0.710711	0.194998	0.184078
	O8871	O	0.710905	0.311211	0.183940
	O8872	O	0.663028	0.694916	0.144907
	O8873	O	0.634815	0.694297	0.144843
	O8874	O	0.677087	0.695105	0.245923
	O8875	O	0.677044	0.810985	0.245936
	O8876	O	0.648318	0.694378	0.246443
	O8877	O	0.648252	0.810389	0.246481
	O8878	O	0.634827	0.810609	0.144870
	O8879	O	0.662980	0.810995	0.144915
	O8880	O	0.662999	0.194754	0.144929
	O8881	O	0.634817	0.194329	0.144906
	O8882	O	0.676999	0.195323	0.245913
	O8883	O	0.676817	0.311394	0.245845
	O8884	O	0.648199	0.194585	0.246518
	O8885	O	0.648207	0.310772	0.246494
	O8886	O	0.634801	0.310802	0.144899
	O8887	O	0.663057	0.310883	0.144901
	H8888	H	0.615800	0.643739	0.219917
	H8889	H	0.615947	0.860548	0.219860
	H8890	H	0.615881	0.144803	0.219829
	H8891	H	0.615841	0.360757	0.219919
	H8892	H	0.613706	0.862003	0.174297
	H8893	H	0.613912	0.642711	0.174361
	H8894	H	0.613815	0.362174	0.174387
	H8895	H	0.613938	0.142882	0.174436
	H8896	H	0.724630	0.064252	0.194801
	H8897	H	0.725960	0.064127	0.195693
	H8898	H	0.725886	0.940921	0.195651
	H8899	H	0.724593	0.940857	0.194749
	H8900	H	0.725268	0.064403	0.193195
	H8901	H	0.725283	0.940890	0.193167
	H8902	H	0.593554	0.064333	0.194271
	H8903	H	0.593547	0.941140	0.194245
	H8904	H	0.587521	0.064275	0.190680
	H8905	H	0.587517	0.940995	0.190689
	H8906	H	0.577406	0.064395	0.192844
	H8907	H	0.577472	0.941208	0.192835
	H8908	H	0.586045	0.441254	0.194571
	H8909	H	0.583422	0.441350	0.194712
	H8910	H	0.588325	0.441277	0.196573
	H8911	H	0.728001	0.441185	0.196831
	H8912	H	0.723643	0.441560	0.195941
	H8913	H	0.722626	0.441241	0.193810
	H8914	H	0.583392	0.564778	0.194746
	H8915	H	0.586050	0.564579	0.194648
	H8916	H	0.722713	0.564115	0.193817
	H8917	H	0.723705	0.564590	0.195920
	H8918	H	0.728053	0.564442	0.196784
	H8919	H	0.588231	0.564454	0.196577
	H8920	H	0.702100	0.645418	0.218210
	H8921	H	0.702087	0.861444	0.218193
	H8922	H	0.702138	0.145586	0.218250
	H8923	H	0.702083	0.361418	0.218220
	H8924	H	0.625144	0.642795	0.158903
	H8925	H	0.678237	0.644800	0.157529
	H8926	H	0.678396	0.860922	0.157379
	H8927	H	0.624931	0.861876	0.158837
	H8928	H	0.695235	0.644833	0.171616
	H8929	H	0.695428	0.861147	0.171471
	H8930	H	0.688927	0.645267	0.232909
	H8931	H	0.688923	0.861419	0.232900
	H8932	H	0.645369	0.441237	0.132755
	H8933	H	0.665805	0.441123	0.255460
	H8934	H	0.648715	0.441212	0.132258
	H8935	H	0.650483	0.440866	0.133543
	H8936	H	0.661379	0.441370	0.256312
	H8937	H	0.662712	0.441306	0.255130
	H8938	H	0.665905	0.563927	0.255479
	H8939	H	0.645479	0.564949	0.132750
	H8940	H	0.662756	0.564348	0.255107
	H8941	H	0.661470	0.564540	0.256352
	H8942	H	0.650534	0.564360	0.133559
	H8943	H	0.648773	0.564493	0.132267
	H8944	H	0.688956	0.145581	0.232955
	H8945	H	0.688916	0.361357	0.232933
	H8946	H	0.643178	0.064420	0.134382
	H8947	H	0.645238	0.064787	0.136574
	H8948	H	0.645629	0.064171	0.131272
	H8949	H	0.632929	0.860869	0.233963
	H8950	H	0.632863	0.643651	0.234011
	H8951	H	0.632818	0.360599	0.234048
	H8952	H	0.632844	0.144577	0.233950
	H8953	H	0.625186	0.142670	0.158956
	H8954	H	0.678305	0.144545	0.157443
	H8955	H	0.678429	0.361129	0.157436
	H8956	H	0.625060	0.362098	0.158922
	H8957	H	0.695263	0.144339	0.171569
	H8958	H	0.695367	0.361246	0.171565
	H8959	H	0.665135	0.064703	0.256810
	H8960	H	0.664844	0.064073	0.256290
	H8961	H	0.663649	0.064369	0.256125
	H8962	H	0.645265	0.941337	0.136624
	H8963	H	0.643125	0.941010	0.134356
	H8964	H	0.645626	0.940839	0.131343
	H8965	H	0.665124	0.941011	0.256862
	H8966	H	0.664749	0.940854	0.256333
	H8967	H	0.663684	0.940840	0.256166
	Zn8968	Zn	0.585054	0.680310	0.196551
	Zn8969	Zn	0.585238	0.825384	0.196558
	Zn8970	Zn	0.585225	0.180173	0.196595
	Zn8971	Zn	0.585218	0.325331	0.196536
	Zn8972	Zn	0.664201	0.680063	0.256785
	Zn8973	Zn	0.664016	0.825666	0.256797
	Zn8974	Zn	0.664179	0.180138	0.256751
	Zn8975	Zn	0.664013	0.325797	0.256787
	C8976	C	0.706725	0.752846	0.180807
	C8977	C	0.604492	0.752357	0.210634
	C8978	C	0.614816	0.752148	0.219067
	C8979	C	0.619606	0.690774	0.223063
	C8980	C	0.619670	0.813460	0.223028
	C8981	C	0.604508	0.252820	0.210612
	C8982	C	0.614834	0.252796	0.219041
	C8983	C	0.619641	0.191557	0.223000
	C8984	C	0.619617	0.313861	0.223047
	C8985	C	0.605160	0.752550	0.184192
	C8986	C	0.613172	0.752435	0.175339
	C8987	C	0.616341	0.814276	0.170918
	C8988	C	0.616462	0.690493	0.170961
	C8989	C	0.605150	0.252678	0.184204
	C8990	C	0.613084	0.252560	0.175293
	C8991	C	0.616376	0.314536	0.170949
	C8992	C	0.616444	0.190410	0.170971
	C8993	C	0.725653	0.043006	0.195019
	C8994	C	0.725605	0.962186	0.194998
	C8995	C	0.589078	0.043169	0.193568
	C8996	C	0.589069	0.962337	0.193557
	C8997	C	0.578978	0.043082	0.195708
	C8998	C	0.578997	0.962240	0.195690
	C8999	C	0.584819	0.462378	0.195157
	C9000	C	0.728478	0.462554	0.195591
	C9001	C	0.724039	0.462500	0.194721
	C9002	C	0.584789	0.543287	0.195173
	C9003	C	0.724075	0.543160	0.194720
	C9004	C	0.728478	0.543267	0.195584
	C9005	C	0.710950	0.753222	0.208603
	C9006	C	0.710902	0.253312	0.208605
	C9007	C	0.702884	0.753309	0.217367
	C9008	C	0.699176	0.692159	0.221494
	C9009	C	0.699147	0.814572	0.221473
	C9010	C	0.702812	0.253435	0.217354
	C9011	C	0.699166	0.192376	0.221507
	C9012	C	0.699156	0.314616	0.221492
	C9013	C	0.706752	0.252976	0.180781
	C9014	C	0.667049	0.752934	0.148131
	C9015	C	0.632216	0.752448	0.148496
	C9016	C	0.644230	0.752390	0.243246
	C9017	C	0.691500	0.691807	0.168458
	C9018	C	0.691600	0.814144	0.168374
	C9019	C	0.677364	0.752860	0.156567
	C9020	C	0.625555	0.752418	0.157863
	C9021	C	0.622633	0.690445	0.162339
	C9022	C	0.682081	0.691845	0.160625
	C9023	C	0.682183	0.814021	0.160533
	C9024	C	0.622505	0.814319	0.162299
	C9025	C	0.696329	0.752971	0.172415
	C9026	C	0.680220	0.753105	0.242580
	C9027	C	0.691920	0.692086	0.229669
	C9028	C	0.691903	0.814572	0.229650
	C9029	C	0.688265	0.753312	0.233822
	C9030	C	0.665714	0.462208	0.256321
	C9031	C	0.649068	0.462499	0.133220
	C9032	C	0.662565	0.462469	0.255988
	C9033	C	0.665762	0.542994	0.256320
	C9034	C	0.662612	0.543209	0.255996
	C9035	C	0.649089	0.543361	0.133218
	C9036	C	0.680081	0.253395	0.242544
	C9037	C	0.691877	0.192414	0.229658
	C9038	C	0.691858	0.314608	0.229648
	C9039	C	0.688155	0.253511	0.233784
	C9040	C	0.645099	0.043283	0.135124
	C9041	C	0.667102	0.252837	0.148124
	C9042	C	0.632152	0.252570	0.148511
	C9043	C	0.644137	0.252622	0.243296
	C9044	C	0.691501	0.191490	0.168424
	C9045	C	0.691579	0.314128	0.168417
	C9046	C	0.677392	0.252871	0.156552
	C9047	C	0.625479	0.252431	0.157843
	C9048	C	0.633843	0.752269	0.234858
	C9049	C	0.629090	0.813586	0.230854
	C9050	C	0.629041	0.690822	0.230890
	C9051	C	0.633783	0.252589	0.234874
	C9052	C	0.629031	0.313714	0.230888
	C9053	C	0.629040	0.191538	0.230838
	C9054	C	0.622617	0.190364	0.162348
	C9055	C	0.682117	0.191568	0.160577
	C9056	C	0.682187	0.314103	0.160574
	C9057	C	0.622549	0.314441	0.162330
	C9058	C	0.696354	0.252800	0.172389
	C9059	C	0.664767	0.043248	0.256630
	C9060	C	0.647582	0.043058	0.132050
	C9061	C	0.645104	0.962382	0.135126
	C9062	C	0.664717	0.962257	0.256658
	C9063	C	0.647555	0.962153	0.132058
	N9064	N	0.585114	0.069967	0.196604
	N9065	N	0.585128	0.935454	0.196559
	N9066	N	0.585107	0.435398	0.196537
	N9067	N	0.585030	0.569984	0.196542
	N9068	N	0.664034	0.435590	0.256760
	N9069	N	0.664113	0.570056	0.256754
	N9070	N	0.664149	0.070161	0.256717
	N9071	N	0.664091	0.935628	0.256753
	O9072	O	0.734514	0.694858	0.301973
	O9073	O	0.734485	0.811002	0.302020
	O9074	O	0.618219	0.695059	0.329118
	O9075	O	0.618259	0.811231	0.329094
	O9076	O	0.618321	0.194908	0.329116
	O9077	O	0.618288	0.310631	0.329109
	O9078	O	0.614498	0.694580	0.308412
	O9079	O	0.614576	0.810779	0.308469
	O9080	O	0.614480	0.194647	0.308445
	O9081	O	0.614455	0.310556	0.308338
	O9082	O	0.738858	0.694827	0.322742
	O9083	O	0.738984	0.810604	0.322719
	O9084	O	0.738800	0.194619	0.322699
	O9085	O	0.738940	0.310772	0.322734
	O9086	O	0.734413	0.195309	0.301977
	O9087	O	0.734414	0.311402	0.302019
	O9088	O	0.680717	0.694807	0.266571
	O9089	O	0.651541	0.694643	0.267699
	O9090	O	0.701320	0.694891	0.363118
	O9091	O	0.701279	0.810921	0.363135
	O9092	O	0.672200	0.694992	0.364493
	O9093	O	0.672143	0.810892	0.364530
	O9094	O	0.651347	0.810623	0.267708
	O9095	O	0.680615	0.810995	0.266564
	O9096	O	0.680845	0.195191	0.266441
	O9097	O	0.651583	0.194597	0.267711
	O9098	O	0.701253	0.194530	0.363119
	O9099	O	0.701163	0.310465	0.363050
	O9100	O	0.672043	0.195061	0.364589
	O9101	O	0.672151	0.310945	0.364541
	O9102	O	0.651594	0.310420	0.267758
	O9103	O	0.680698	0.311071	0.266491
	H9104	H	0.635667	0.644671	0.340395
	H9105	H	0.635518	0.861559	0.340492
	H9106	H	0.635567	0.145045	0.340507
	H9107	H	0.635547	0.360385	0.340468
	H9108	H	0.626279	0.860526	0.295400
	H9109	H	0.626486	0.644422	0.295435
	H9110	H	0.626563	0.360234	0.295434
	H9111	H	0.626543	0.144581	0.295514
	H9112	H	0.751600	0.064216	0.315386
	H9113	H	0.755732	0.063981	0.313935
	H9114	H	0.755705	0.941222	0.314026
	H9115	H	0.751592	0.940959	0.315356
	H9116	H	0.746032	0.064506	0.312926
	H9117	H	0.746071	0.940935	0.312944
	H9118	H	0.598608	0.064494	0.316207
	H9119	H	0.598585	0.941378	0.316215
	H9120	H	0.596242	0.064630	0.318791
	H9121	H	0.596240	0.941259	0.318778
	H9122	H	0.599403	0.064741	0.322601
	H9123	H	0.599454	0.940951	0.322600
	H9124	H	0.603231	0.441402	0.319229
	H9125	H	0.602477	0.441223	0.318504
	H9126	H	0.602410	0.441348	0.320298
	H9127	H	0.751324	0.441180	0.309130
	H9128	H	0.754779	0.440940	0.310974
	H9129	H	0.754410	0.441387	0.313019
	H9130	H	0.602448	0.564684	0.318535
	H9131	H	0.603161	0.564778	0.319276
	H9132	H	0.754334	0.564477	0.313104
	H9133	H	0.754755	0.564622	0.311010
	H9134	H	0.751296	0.564456	0.309136
	H9135	H	0.602442	0.564500	0.320304
	H9136	H	0.726776	0.645061	0.335618
	H9137	H	0.726871	0.860918	0.335602
	H9138	H	0.726959	0.144414	0.335696
	H9139	H	0.726780	0.361194	0.335599
	H9140	H	0.639633	0.644326	0.280702
	H9141	H	0.698066	0.644587	0.277827
	H9142	H	0.697957	0.861484	0.277826
	H9143	H	0.639435	0.860469	0.280694
	H9144	H	0.717312	0.644494	0.290599
	H9145	H	0.717228	0.861645	0.290614
	H9146	H	0.713349	0.645202	0.350239
	H9147	H	0.713469	0.860873	0.350205
	H9148	H	0.666758	0.440746	0.256914
	H9149	H	0.687399	0.440975	0.375508
	H9150	H	0.664954	0.440966	0.258522
	H9151	H	0.662599	0.441334	0.258252
	H9152	H	0.691422	0.441217	0.374395
	H9153	H	0.690350	0.441102	0.375589
	H9154	H	0.687445	0.564716	0.375443
	H9155	H	0.666855	0.564487	0.256887
	H9156	H	0.690351	0.564532	0.375572
	H9157	H	0.691420	0.564330	0.374374
	H9158	H	0.662786	0.564590	0.258292
	H9159	H	0.665016	0.564734	0.258508
	H9160	H	0.713464	0.144494	0.350247
	H9161	H	0.713292	0.360847	0.350189
	H9162	H	0.663663	0.064708	0.257296
	H9163	H	0.664416	0.064772	0.257377
	H9164	H	0.663168	0.064805	0.256572
	H9165	H	0.654742	0.861442	0.353271
	H9166	H	0.654936	0.644848	0.353150
	H9167	H	0.654814	0.360605	0.353212
	H9168	H	0.654832	0.144833	0.353220
	H9169	H	0.639751	0.144390	0.280788
	H9170	H	0.697932	0.145451	0.277882
	H9171	H	0.698013	0.361379	0.277792
	H9172	H	0.639749	0.360237	0.280754
	H9173	H	0.717122	0.145616	0.290710
	H9174	H	0.717175	0.361500	0.290628
	H9175	H	0.689960	0.064245	0.371014
	H9176	H	0.685900	0.064771	0.371425
	H9177	H	0.684240	0.064503	0.374951
	H9178	H	0.664383	0.941526	0.257423
	H9179	H	0.663557	0.941505	0.257301
	H9180	H	0.663101	0.941318	0.256563
	H9181	H	0.689976	0.941006	0.371018
	H9182	H	0.685908	0.941418	0.371463
	H9183	H	0.684254	0.941613	0.374968
	Zn9184	Zn	0.601621	0.680291	0.319374
	Zn9185	Zn	0.601657	0.825672	0.319325
	Zn9186	Zn	0.601681	0.180208	0.319352
	Zn9187	Zn	0.601680	0.325709	0.319309
	Zn9188	Zn	0.688924	0.679929	0.374151
	Zn9189	Zn	0.688835	0.825585	0.374197
	Zn9190	Zn	0.688841	0.179952	0.374146
	Zn9191	Zn	0.688815	0.325594	0.374182
	C9192	C	0.729956	0.752968	0.299088
	C9193	C	0.622763	0.753147	0.332025
	C9194	C	0.634467	0.753167	0.339624
	C9195	C	0.639942	0.691888	0.343218
	C9196	C	0.639854	0.814434	0.343272
	C9197	C	0.622816	0.252812	0.332046
	C9198	C	0.634450	0.252845	0.339684
	C9199	C	0.639877	0.191780	0.343306
	C9200	C	0.639857	0.313744	0.343312
	C9201	C	0.617666	0.752702	0.305075
	C9202	C	0.625720	0.752534	0.296318
	C9203	C	0.629330	0.813760	0.292159
	C9204	C	0.629435	0.691297	0.292168
	C9205	C	0.617689	0.252423	0.305070
	C9206	C	0.625817	0.252320	0.296332
	C9207	C	0.629506	0.313371	0.292174
	C9208	C	0.629500	0.191274	0.292218
	C9209	C	0.752990	0.043025	0.313851
	C9210	C	0.753003	0.962429	0.313871
	C9211	C	0.598547	0.043317	0.318000
	C9212	C	0.598535	0.962607	0.317984
	C9213	C	0.601699	0.043358	0.321812
	C9214	C	0.601698	0.962340	0.321802
	C9215	C	0.602535	0.462557	0.319005
	C9216	C	0.750219	0.462631	0.310026
	C9217	C	0.753680	0.462341	0.311903
	C9218	C	0.602516	0.543457	0.319016
	C9219	C	0.753667	0.543283	0.311930
	C9220	C	0.750230	0.543369	0.310042
	C9221	C	0.735717	0.752827	0.326061
	C9222	C	0.735708	0.252769	0.326049
	C9223	C	0.727569	0.752988	0.334765
	C9224	C	0.723789	0.691895	0.338877
	C9225	C	0.723847	0.814150	0.338861
	C9226	C	0.727509	0.252892	0.334747
	C9227	C	0.723838	0.191519	0.338886
	C9228	C	0.723747	0.314179	0.338839
	C9229	C	0.729903	0.253393	0.299073
	C9230	C	0.685171	0.753030	0.269497
	C9231	C	0.648278	0.752474	0.271047
	C9232	C	0.667656	0.753013	0.361573
	C9233	C	0.713000	0.691644	0.287786
	C9234	C	0.712943	0.814467	0.287789
	C9235	C	0.696852	0.753068	0.277113
	C9236	C	0.640311	0.752336	0.279843
	C9237	C	0.636729	0.691180	0.284006
	C9238	C	0.702329	0.691678	0.280699
	C9239	C	0.702264	0.814498	0.280700
	C9240	C	0.636609	0.813563	0.283994
	C9241	C	0.718326	0.753063	0.291452
	C9242	C	0.704463	0.752987	0.359782
	C9243	C	0.716386	0.691998	0.346988
	C9244	C	0.716448	0.814076	0.346969
	C9245	C	0.712645	0.753045	0.351087
	C9246	C	0.687392	0.462217	0.374689
	C9247	C	0.663887	0.462481	0.257971
	C9248	C	0.690364	0.462540	0.374783
	C9249	C	0.687430	0.543274	0.374661
	C9250	C	0.690371	0.543177	0.374773
	C9251	C	0.663960	0.543395	0.257973
	C9252	C	0.704399	0.252486	0.359750
	C9253	C	0.716376	0.191380	0.346969
	C9254	C	0.716291	0.314025	0.346929
	C9255	C	0.712544	0.252648	0.351042
	C9256	C	0.664051	0.043304	0.257190
	C9257	C	0.685268	0.253216	0.269401
	C9258	C	0.648485	0.252456	0.271115
	C9259	C	0.667589	0.252993	0.361642
	C9260	C	0.712905	0.192379	0.287810
	C9261	C	0.712940	0.314610	0.287757
	C9262	C	0.696913	0.253360	0.277034
	C9263	C	0.640457	0.252286	0.279880
	C9264	C	0.656033	0.753185	0.353920
	C9265	C	0.650529	0.814531	0.350360
	C9266	C	0.650640	0.691846	0.350294
	C9267	C	0.655950	0.252817	0.354006
	C9268	C	0.650523	0.313713	0.350397
	C9269	C	0.650536	0.191783	0.350401
	C9270	C	0.636791	0.191233	0.284050
	C9271	C	0.702279	0.192371	0.280691
	C9272	C	0.702319	0.314507	0.280636
	C9273	C	0.636791	0.313381	0.284013
	C9274	C	0.718320	0.253480	0.291404
	C9275	C	0.688208	0.043352	0.372005
	C9276	C	0.663613	0.043236	0.256468
	C9277	C	0.663998	0.962682	0.257222
	C9278	C	0.688191	0.962273	0.372010
	C9279	C	0.663599	0.962404	0.256489
	N9280	N	0.601698	0.070100	0.319361
	N9281	N	0.601698	0.935614	0.319361
	N9282	N	0.601672	0.435698	0.319363
	N9283	N	0.601666	0.570190	0.319372
	N9284	N	0.688874	0.435482	0.374152
	N9285	N	0.688905	0.569968	0.374125
	N9286	N	0.688894	0.070017	0.374163
	N9287	N	0.688885	0.935531	0.374185
	O9288	O	0.759374	0.695171	0.419257
	O9289	O	0.759432	0.811209	0.419324
	O9290	O	0.642984	0.695211	0.446426
	O9291	O	0.643141	0.811250	0.446316
	O9292	O	0.643111	0.195436	0.446400
	O9293	O	0.643046	0.311472	0.446431
	O9294	O	0.638809	0.695110	0.425676
	O9295	O	0.638590	0.811029	0.425569
	O9296	O	0.638878	0.195064	0.425642
	O9297	O	0.638751	0.310993	0.425627
	O9298	O	0.763236	0.694397	0.439928
	O9299	O	0.763117	0.810823	0.439927
	O9300	O	0.763177	0.195227	0.439887
	O9301	O	0.763256	0.311087	0.439952
	O9302	O	0.759365	0.194612	0.419307
	O9303	O	0.759448	0.310619	0.419256
	O9304	O	0.705542	0.695163	0.383860
	O9305	O	0.676502	0.694801	0.385263
	O9306	O	0.726287	0.694681	0.480689
	O9307	O	0.726388	0.810875	0.480696
	O9308	O	0.697008	0.695230	0.481718
	O9309	O	0.697118	0.811512	0.481722
	O9310	O	0.676445	0.810976	0.385263
	O9311	O	0.705606	0.811183	0.383825
	O9312	O	0.705664	0.194862	0.383763
	O9313	O	0.676517	0.195381	0.385224
	O9314	O	0.726078	0.194946	0.480632
	O9315	O	0.726132	0.310834	0.480628
	O9316	O	0.696923	0.195147	0.481843
	O9317	O	0.697068	0.311455	0.481810
	O9318	O	0.676712	0.311391	0.385403
	O9319	O	0.705556	0.310937	0.383808
	H9320	H	0.660307	0.644630	0.457735
	H9321	H	0.660517	0.862184	0.457669
	H9322	H	0.660443	0.145119	0.457731
	H9323	H	0.660453	0.361899	0.457743
	H9324	H	0.650620	0.861091	0.412625
	H9325	H	0.650984	0.644415	0.412771
	H9326	H	0.651077	0.361289	0.412860
	H9327	H	0.650892	0.144845	0.412707
	H9328	H	0.771978	0.064361	0.429570
	H9329	H	0.774192	0.064742	0.431420
	H9330	H	0.774170	0.941368	0.431448
	H9331	H	0.771961	0.941562	0.429546
	H9332	H	0.773652	0.064578	0.426606
	H9333	H	0.773751	0.941756	0.426675
	H9334	H	0.625277	0.064569	0.434484
	H9335	H	0.625244	0.941278	0.434479
	H9336	H	0.623199	0.064474	0.435702
	H9337	H	0.623115	0.941008	0.435706
	H9338	H	0.624091	0.064453	0.438280
	H9339	H	0.624142	0.941199	0.438342
	H9340	H	0.627043	0.441508	0.435750
	H9341	H	0.625661	0.441347	0.435759
	H9342	H	0.627925	0.441346	0.436863
	H9343	H	0.777675	0.441087	0.427871
	H9344	H	0.778226	0.441073	0.429670
	H9345	H	0.776701	0.441263	0.430431
	H9346	H	0.625649	0.564723	0.435787
	H9347	H	0.626943	0.564218	0.435802
	H9348	H	0.776780	0.564717	0.430462
	H9349	H	0.778158	0.564514	0.429673
	H9350	H	0.777671	0.564944	0.427862
	H9351	H	0.627900	0.564320	0.436802
	H9352	H	0.750996	0.643844	0.452816
	H9353	H	0.751254	0.861275	0.452923
	H9354	H	0.751294	0.144857	0.452957
	H9355	H	0.751290	0.360992	0.452947
	H9356	H	0.664418	0.644406	0.398160
	H9357	H	0.722851	0.644936	0.395167
	H9358	H	0.722738	0.861150	0.395278
	H9359	H	0.664064	0.860987	0.398044
	H9360	H	0.742124	0.645112	0.407898
	H9361	H	0.742026	0.861434	0.408020
	H9362	H	0.737907	0.644265	0.467572
	H9363	H	0.738173	0.861431	0.467671
	H9364	H	0.686296	0.441125	0.374238
	H9365	H	0.714443	0.441129	0.494972
	H9366	H	0.687779	0.441397	0.372540
	H9367	H	0.689905	0.441174	0.372651
	H9368	H	0.717757	0.441437	0.489650
	H9369	H	0.718774	0.441395	0.492503
	H9370	H	0.714392	0.564598	0.494953
	H9371	H	0.686393	0.564224	0.374210
	H9372	H	0.718717	0.564614	0.492471
	H9373	H	0.717775	0.564940	0.489622
	H9374	H	0.689946	0.564550	0.372642
	H9375	H	0.687809	0.564479	0.372574
	H9376	H	0.738073	0.145105	0.467646
	H9377	H	0.738079	0.360880	0.467632
	H9378	H	0.692483	0.064589	0.376507
	H9379	H	0.693752	0.064158	0.373981
	H9380	H	0.687019	0.064845	0.377091
	H9381	H	0.679859	0.862060	0.470392
	H9382	H	0.679623	0.644563	0.470447
	H9383	H	0.679720	0.361743	0.470507
	H9384	H	0.679703	0.145047	0.470492
	H9385	H	0.664335	0.145058	0.398114
	H9386	H	0.722754	0.144206	0.395234
	H9387	H	0.722952	0.361488	0.395120
	H9388	H	0.664558	0.361349	0.398259
	H9389	H	0.741961	0.144127	0.408033
	H9390	H	0.742176	0.361222	0.407894
	H9391	H	0.713874	0.064627	0.489612
	H9392	H	0.711470	0.064517	0.490065
	H9393	H	0.710878	0.064379	0.492356
	H9394	H	0.693791	0.941269	0.373944
	H9395	H	0.692488	0.940844	0.376576
	H9396	H	0.686991	0.941310	0.377137
	H9397	H	0.713832	0.941515	0.489603
	H9398	H	0.711482	0.941308	0.490136
	H9399	H	0.710961	0.941213	0.492356
	Zn9400	Zn	0.626382	0.680268	0.436724
	Zn9401	Zn	0.626334	0.825600	0.436712
	Zn9402	Zn	0.626445	0.180213	0.436682
	Zn9403	Zn	0.626423	0.325799	0.436698
	Zn9404	Zn	0.713566	0.680162	0.491554
	Zn9405	Zn	0.713652	0.825694	0.491591
	Zn9406	Zn	0.713505	0.180174	0.491579
	Zn9407	Zn	0.713691	0.325754	0.491589
	C9408	C	0.754884	0.753320	0.416369
	C9409	C	0.647580	0.753278	0.449310
	C9410	C	0.659244	0.753449	0.456935
	C9411	C	0.664655	0.691864	0.460535
	C9412	C	0.664797	0.814915	0.460503
	C9413	C	0.647590	0.253471	0.449347
	C9414	C	0.659274	0.253503	0.456948
	C9415	C	0.664727	0.192208	0.460555
	C9416	C	0.664737	0.314756	0.460563
	C9417	C	0.641864	0.753026	0.422273
	C9418	C	0.650071	0.752765	0.413584
	C9419	C	0.653727	0.814066	0.409426
	C9420	C	0.653943	0.691333	0.409509
	C9421	C	0.642004	0.253075	0.422309
	C9422	C	0.650168	0.253117	0.413609
	C9423	C	0.654000	0.314425	0.409558
	C9424	C	0.653895	0.191862	0.409470
	C9425	C	0.773852	0.043358	0.430110
	C9426	C	0.773878	0.962470	0.430113
	C9427	C	0.624818	0.043266	0.435492
	C9428	C	0.624777	0.962370	0.435513
	C9429	C	0.625748	0.043251	0.438114
	C9430	C	0.625760	0.962580	0.438133
	C9431	C	0.626359	0.462571	0.436005
	C9432	C	0.776589	0.462472	0.427999
	C9433	C	0.777104	0.462452	0.429779
	C9434	C	0.626315	0.543372	0.436028
	C9435	C	0.777100	0.543344	0.429766
	C9436	C	0.776576	0.543619	0.427986
	C9437	C	0.759990	0.752574	0.443257
	C9438	C	0.760082	0.253104	0.443285
	C9439	C	0.751967	0.752657	0.452032
	C9440	C	0.748215	0.691105	0.456154
	C9441	C	0.748360	0.814239	0.456217
	C9442	C	0.752030	0.252888	0.452061
	C9443	C	0.748330	0.191726	0.456210
	C9444	C	0.748339	0.314036	0.456213
	C9445	C	0.754891	0.252606	0.416356
	C9446	C	0.710082	0.753130	0.386766
	C9447	C	0.673285	0.752814	0.388596
	C9448	C	0.692544	0.753418	0.478806
	C9449	C	0.737827	0.691991	0.405071
	C9450	C	0.737785	0.814421	0.405138
	C9451	C	0.721731	0.753080	0.394404
	C9452	C	0.665107	0.752664	0.397302
	C9453	C	0.661413	0.691332	0.401424
	C9454	C	0.727126	0.691888	0.397999
	C9455	C	0.727093	0.814275	0.398063
	C9456	C	0.661194	0.814005	0.401344
	C9457	C	0.743273	0.753253	0.408702
	C9458	C	0.729439	0.752802	0.477319
	C9459	C	0.740974	0.691289	0.464343
	C9460	C	0.741123	0.814297	0.464398
	C9461	C	0.737454	0.752877	0.468540
	C9462	C	0.712753	0.462445	0.493710
	C9463	C	0.688872	0.462358	0.373022
	C9464	C	0.717069	0.462538	0.491195
	C9465	C	0.712741	0.543204	0.493699
	C9466	C	0.717048	0.543412	0.491178
	C9467	C	0.688897	0.543149	0.373014
	C9468	C	0.729281	0.252853	0.477285
	C9469	C	0.741018	0.191769	0.464368
	C9470	C	0.741022	0.313976	0.464370
	C9471	C	0.737337	0.252849	0.468527
	C9472	C	0.692005	0.043127	0.374970
	C9473	C	0.710108	0.252936	0.386727
	C9474	C	0.673426	0.253257	0.388644
	C9475	C	0.692462	0.253353	0.478912
	C9476	C	0.737761	0.191314	0.405145
	C9477	C	0.737865	0.314112	0.405063
	C9478	C	0.721756	0.252839	0.394375
	C9479	C	0.665182	0.253263	0.397329
	C9480	C	0.680889	0.753362	0.471173
	C9481	C	0.675511	0.814944	0.467569
	C9482	C	0.675371	0.691836	0.467598
	C9483	C	0.680810	0.253285	0.471264
	C9484	C	0.675419	0.314646	0.467649
	C9485	C	0.675403	0.192080	0.467636
	C9486	C	0.661360	0.191909	0.401385
	C9487	C	0.727100	0.191348	0.398043
	C9488	C	0.727203	0.314294	0.397971
	C9489	C	0.661472	0.314438	0.401476
	C9490	C	0.743261	0.252680	0.408715
	C9491	C	0.712902	0.043235	0.490316
	C9492	C	0.686479	0.043252	0.375544
	C9493	C	0.692026	0.962325	0.374982
	C9494	C	0.712928	0.962542	0.490320
	C9495	C	0.686472	0.962562	0.375565
	N9496	N	0.626402	0.070164	0.436695
	N9497	N	0.626383	0.935591	0.436700
	N9498	N	0.626390	0.435820	0.436726
	N9499	N	0.626391	0.570294	0.436734
	N9500	N	0.713756	0.435626	0.491589
	N9501	N	0.713727	0.570084	0.491566
	N9502	N	0.713572	0.070137	0.491603
	N9503	N	0.713599	0.935604	0.491601
	O9504	O	0.777344	0.694386	0.540900
	O9505	O	0.777308	0.810597	0.540943
	O9506	O	0.666784	0.694842	0.564378
	O9507	O	0.666862	0.811063	0.564258
	O9508	O	0.666876	0.194856	0.564343
	O9509	O	0.666810	0.310720	0.564320
	O9510	O	0.663600	0.694647	0.543093
	O9511	O	0.663474	0.810673	0.543068
	O9512	O	0.663629	0.195197	0.543136
	O9513	O	0.663671	0.311231	0.543117
	O9514	O	0.776150	0.694561	0.560807
	O9515	O	0.776106	0.811176	0.560779
	O9516	O	0.776223	0.194847	0.560911
	O9517	O	0.776181	0.311567	0.560843
	O9518	O	0.777253	0.194551	0.540950
	O9519	O	0.777308	0.310902	0.540905
	O9520	O	0.729508	0.694509	0.501832
	O9521	O	0.700811	0.694504	0.502443
	O9522	O	0.742867	0.694398	0.603350
	O9523	O	0.742999	0.810847	0.603431
	O9524	O	0.714669	0.694796	0.603352
	O9525	O	0.714757	0.811133	0.603325
	O9526	O	0.700660	0.810404	0.502436
	O9527	O	0.729441	0.810453	0.501852
	O9528	O	0.729501	0.194754	0.501841
	O9529	O	0.700798	0.194843	0.502526
	O9530	O	0.742916	0.195173	0.603349
	O9531	O	0.742850	0.311556	0.603366
	O9532	O	0.714791	0.194858	0.603301
	O9533	O	0.714689	0.311016	0.603369
	O9534	O	0.700850	0.311148	0.502538
	O9535	O	0.729550	0.310840	0.501816
	H9536	H	0.682208	0.644653	0.576815
	H9537	H	0.682381	0.861881	0.576715
	H9538	H	0.682457	0.144537	0.576740
	H9539	H	0.682200	0.361116	0.576817
	H9540	H	0.675499	0.860878	0.530105
	H9541	H	0.675619	0.644357	0.530107
	H9542	H	0.675441	0.361334	0.530077
	H9543	H	0.675638	0.145107	0.530187
	H9544	H	0.797891	0.064651	0.553035
	H9545	H	0.797361	0.064394	0.549940
	H9546	H	0.797347	0.941515	0.549941
	H9547	H	0.797895	0.941053	0.553024
	H9548	H	0.792754	0.064571	0.555393
	H9549	H	0.792808	0.941003	0.555415
	H9550	H	0.644819	0.064585	0.552621
	H9551	H	0.644789	0.940935	0.552616
	H9552	H	0.645681	0.064534	0.556148
	H9553	H	0.645675	0.941384	0.556175
	H9554	H	0.652572	0.064548	0.558190
	H9555	H	0.652476	0.941186	0.558168
	H9556	H	0.653048	0.441536	0.554940
	H9557	H	0.653321	0.441704	0.553622
	H9558	H	0.650477	0.441483	0.555586
	H9559	H	0.794919	0.440754	0.549753
	H9560	H	0.796376	0.441257	0.552593
	H9561	H	0.794280	0.441174	0.554111
	H9562	H	0.653311	0.564699	0.553640
	H9563	H	0.652984	0.564732	0.554957
	H9564	H	0.794353	0.564515	0.554050
	H9565	H	0.796312	0.564538	0.552566
	H9566	H	0.794876	0.564424	0.549737
	H9567	H	0.650508	0.564682	0.555553
	H9568	H	0.763783	0.643364	0.573781
	H9569	H	0.764141	0.862614	0.573968
	H9570	H	0.763886	0.143653	0.573875
	H9571	H	0.764177	0.362796	0.573953
	H9572	H	0.688794	0.644366	0.515420
	H9573	H	0.745055	0.644231	0.514256
	H9574	H	0.744835	0.860261	0.514317
	H9575	H	0.688689	0.860524	0.515402
	H9576	H	0.762042	0.644611	0.528387
	H9577	H	0.761757	0.860475	0.528443
	H9578	H	0.752557	0.643152	0.589265
	H9579	H	0.752939	0.862305	0.589467
	H9580	H	0.710341	0.441161	0.493972
	H9581	H	0.737133	0.441717	0.613148
	H9582	H	0.709014	0.440852	0.490127
	H9583	H	0.712219	0.441055	0.488274
	H9584	H	0.724796	0.440930	0.610582
	H9585	H	0.730578	0.441246	0.609293
	H9586	H	0.737160	0.564666	0.613126
	H9587	H	0.710319	0.564407	0.493964
	H9588	H	0.730552	0.564277	0.609239
	H9589	H	0.724825	0.564687	0.610521
	H9590	H	0.712158	0.564537	0.488281
	H9591	H	0.709034	0.564405	0.490055
	H9592	H	0.752530	0.143920	0.589305
	H9593	H	0.752783	0.362892	0.589377
	H9594	H	0.716099	0.064582	0.492854
	H9595	H	0.716489	0.064870	0.491186
	H9596	H	0.712812	0.064356	0.493495
	H9597	H	0.699447	0.861700	0.590802
	H9598	H	0.699268	0.644488	0.590884
	H9599	H	0.699289	0.361313	0.590864
	H9600	H	0.699538	0.144600	0.590784
	H9601	H	0.688881	0.144968	0.515518
	H9602	H	0.744852	0.143968	0.514385
	H9603	H	0.744992	0.361379	0.514273
	H9604	H	0.688690	0.361430	0.515395
	H9605	H	0.761797	0.144266	0.528542
	H9606	H	0.761908	0.361619	0.528387
	H9607	H	0.728521	0.064393	0.614077
	H9608	H	0.729071	0.064492	0.614856
	H9609	H	0.730837	0.064922	0.614998
	H9610	H	0.716482	0.941157	0.491166
	H9611	H	0.716114	0.940878	0.492866
	H9612	H	0.712887	0.941198	0.493514
	H9613	H	0.728531	0.941502	0.614077
	H9614	H	0.729142	0.941085	0.614888
	H9615	H	0.730780	0.941342	0.615036
	Zn9616	Zn	0.651007	0.680181	0.554048
	Zn9617	Zn	0.650932	0.825573	0.554009
	Zn9618	Zn	0.651013	0.180170	0.554034
	Zn9619	Zn	0.651000	0.325915	0.554023
	Zn9620	Zn	0.729939	0.680254	0.614187
	Zn9621	Zn	0.729964	0.825584	0.614176
	Zn9622	Zn	0.730046	0.180236	0.614163
	Zn9623	Zn	0.730030	0.325449	0.614213
	C9624	C	0.773259	0.752513	0.537714
	C9625	C	0.670877	0.753086	0.567537
	C9626	C	0.681305	0.753274	0.575915
	C9627	C	0.686078	0.691847	0.579914
	C9628	C	0.686180	0.814650	0.579860
	C9629	C	0.670924	0.252830	0.567535
	C9630	C	0.681323	0.252838	0.575921
	C9631	C	0.686195	0.191599	0.579894
	C9632	C	0.686053	0.314139	0.579929
	C9633	C	0.666714	0.752687	0.539726
	C9634	C	0.674794	0.752645	0.530977
	C9635	C	0.678441	0.813884	0.526835
	C9636	C	0.678539	0.691358	0.526839
	C9637	C	0.666774	0.253188	0.539760
	C9638	C	0.674761	0.253226	0.530980
	C9639	C	0.678422	0.314531	0.526818
	C9640	C	0.678531	0.191962	0.526882
	C9641	C	0.796325	0.043205	0.551540
	C9642	C	0.796353	0.962404	0.551554
	C9643	C	0.646757	0.043157	0.554299
	C9644	C	0.646757	0.962248	0.554292
	C9645	C	0.653661	0.043490	0.556297
	C9646	C	0.653631	0.962580	0.556303
	C9647	C	0.652608	0.462603	0.554220
	C9648	C	0.793182	0.462451	0.550104
	C9649	C	0.794669	0.462489	0.552940
	C9650	C	0.652605	0.543483	0.554230
	C9651	C	0.794689	0.543084	0.552901
	C9652	C	0.793208	0.543230	0.550109
	C9653	C	0.772631	0.752896	0.564035
	C9654	C	0.772753	0.253264	0.564141
	C9655	C	0.764608	0.752986	0.572886
	C9656	C	0.761255	0.690973	0.577220
	C9657	C	0.761473	0.814914	0.577334
	C9658	C	0.764657	0.253242	0.572936
	C9659	C	0.761275	0.191327	0.577268
	C9660	C	0.761430	0.315182	0.577314
	C9661	C	0.773232	0.252727	0.537711
	C9662	C	0.733561	0.752471	0.505048
	C9663	C	0.697588	0.752361	0.505790
	C9664	C	0.710657	0.752980	0.600120
	C9665	C	0.758190	0.691395	0.525286
	C9666	C	0.758046	0.813520	0.525313
	C9667	C	0.743909	0.752268	0.513484
	C9668	C	0.689505	0.752427	0.514539
	C9669	C	0.685853	0.691232	0.518691
	C9670	C	0.748766	0.691188	0.517453
	C9671	C	0.748620	0.813420	0.517483
	C9672	C	0.685753	0.813751	0.518679
	C9673	C	0.762892	0.752543	0.529315
	C9674	C	0.745563	0.752658	0.599754
	C9675	C	0.755086	0.690881	0.585846
	C9676	C	0.755304	0.814761	0.585962
	C9677	C	0.752193	0.752743	0.590363
	C9678	C	0.734956	0.462705	0.614896
	C9679	C	0.711443	0.462341	0.489818
	C9680	C	0.728368	0.462408	0.611058
	C9681	C	0.734945	0.543409	0.614894
	C9682	C	0.728345	0.543385	0.611025
	C9683	C	0.711422	0.543343	0.489806
	C9684	C	0.745494	0.253395	0.599716
	C9685	C	0.755059	0.191483	0.585869
	C9686	C	0.755210	0.315197	0.585915
	C9687	C	0.752107	0.253373	0.590337
	C9688	C	0.715587	0.043343	0.491910
	C9689	C	0.733573	0.252713	0.505048
	C9690	C	0.697651	0.253048	0.505871
	C9691	C	0.710701	0.252960	0.600118
	C9692	C	0.758108	0.191266	0.525334
	C9693	C	0.758165	0.314331	0.525249
	C9694	C	0.743998	0.252501	0.513424
	C9695	C	0.689477	0.253233	0.514567
	C9696	C	0.700361	0.753107	0.591696
	C9697	C	0.695628	0.814564	0.587677
	C9698	C	0.695538	0.691721	0.587727
	C9699	C	0.700335	0.252924	0.591717
	C9700	C	0.695495	0.314189	0.587746
	C9701	C	0.695641	0.191643	0.587707
	C9702	C	0.685818	0.191938	0.518724
	C9703	C	0.748712	0.191171	0.517482
	C9704	C	0.748781	0.314086	0.517395
	C9705	C	0.685719	0.314523	0.518658
	C9706	C	0.762936	0.252853	0.529272
	C9707	C	0.729171	0.043364	0.614387
	C9708	C	0.712343	0.043257	0.492582
	C9709	C	0.715610	0.962253	0.491887
	C9710	C	0.729155	0.962672	0.614390
	C9711	C	0.712380	0.962547	0.492583
	N9712	N	0.650939	0.070181	0.553988
	N9713	N	0.650903	0.935626	0.553981
	N9714	N	0.651007	0.435857	0.554014
	N9715	N	0.651040	0.570305	0.554025
	N9716	N	0.730128	0.435572	0.614204
	N9717	N	0.730086	0.570131	0.614170
	N9718	N	0.730025	0.070305	0.614132
	N9719	N	0.730011	0.935780	0.614157
	O9720	O	0.726523	0.694771	0.674648
	O9721	O	0.726383	0.811452	0.674690
	O9722	O	0.678009	0.694430	0.689500
	O9723	O	0.677982	0.811470	0.689553
	O9724	O	0.678064	0.194520	0.689444
	O9725	O	0.678016	0.311390	0.689467
	O9726	O	0.680244	0.694411	0.665809
	O9727	O	0.680233	0.810842	0.665828
	O9728	O	0.680358	0.194658	0.665875
	O9729	O	0.680286	0.311128	0.665815
	O9730	O	0.724264	0.695175	0.698364
	O9731	O	0.724252	0.811713	0.698369
	O9732	O	0.724281	0.194465	0.698376
	O9733	O	0.724169	0.310803	0.698356
	O9734	O	0.726529	0.194417	0.674689
	O9735	O	0.726472	0.311121	0.674705
	O9736	O	0.740646	0.694430	0.627084
	O9737	O	0.713402	0.694878	0.623247
	O9738	O	0.691221	0.694733	0.740978
	O9739	O	0.691062	0.811509	0.740914
	O9740	O	0.663921	0.694913	0.737137
	O9741	O	0.663868	0.811810	0.737127
	O9742	O	0.713502	0.811597	0.623339
	O9743	O	0.740693	0.811457	0.627078
	O9744	O	0.740766	0.194714	0.627050
	O9745	O	0.713565	0.194412	0.623278
	O9746	O	0.691129	0.194838	0.740955
	O9747	O	0.691117	0.311465	0.740892
	O9748	O	0.664006	0.194438	0.737096
	O9749	O	0.663963	0.311367	0.737129
	O9750	O	0.713404	0.311087	0.623270
	O9751	O	0.740668	0.311549	0.627104
	H9752	H	0.674138	0.642784	0.704952
	H9753	H	0.674117	0.862834	0.704927
	H9754	H	0.674324	0.143046	0.704899
	H9755	H	0.674263	0.362801	0.704881
	H9756	H	0.690100	0.862180	0.651871
	H9757	H	0.689991	0.642749	0.651712
	H9758	H	0.690030	0.362224	0.651800
	H9759	H	0.690382	0.143030	0.651921
	H9760	H	0.735212	0.065031	0.693857
	H9761	H	0.743184	0.064410	0.692935
	H9762	H	0.743208	0.941228	0.692901
	H9763	H	0.735257	0.941442	0.693870
	H9764	H	0.727634	0.065005	0.688069
	H9765	H	0.727651	0.941588	0.688060
	H9766	H	0.667844	0.064925	0.677351
	H9767	H	0.667913	0.941218	0.677372
	H9768	H	0.668528	0.064714	0.676895
	H9769	H	0.668547	0.941130	0.676866
	H9770	H	0.668034	0.064725	0.675968
	H9771	H	0.668140	0.941528	0.675959
	H9772	H	0.673921	0.441430	0.677127
	H9773	H	0.671907	0.441563	0.673638
	H9774	H	0.669153	0.440831	0.680865
	H9775	H	0.734399	0.441795	0.689508
	H9776	H	0.733477	0.441742	0.686347
	H9777	H	0.736084	0.441577	0.684989
	H9778	H	0.671938	0.564610	0.673618
	H9779	H	0.673973	0.565044	0.677125
	H9780	H	0.736050	0.564869	0.684999
	H9781	H	0.733506	0.564298	0.686370
	H9782	H	0.734445	0.564412	0.689480
	H9783	H	0.669203	0.564818	0.680891
	H9784	H	0.714810	0.643847	0.712470
	H9785	H	0.714539	0.863121	0.712425
	H9786	H	0.714470	0.143194	0.712373
	H9787	H	0.714435	0.362255	0.712345
	H9788	H	0.701285	0.643216	0.636261
	H9789	H	0.736992	0.642907	0.642508
	H9790	H	0.736763	0.863060	0.642476
	H9791	H	0.701400	0.862544	0.636420
	H9792	H	0.730494	0.642899	0.659253
	H9793	H	0.730249	0.863082	0.659252
	H9794	H	0.703505	0.643717	0.727956
	H9795	H	0.703277	0.862946	0.727871
	H9796	H	0.736166	0.441185	0.617158
	H9797	H	0.672355	0.440990	0.748710
	H9798	H	0.728285	0.441326	0.618874
	H9799	H	0.723478	0.440880	0.616050
	H9800	H	0.674167	0.441384	0.751867
	H9801	H	0.672175	0.441150	0.750922
	H9802	H	0.672283	0.564797	0.748704
	H9803	H	0.736157	0.565195	0.617160
	H9804	H	0.672136	0.564897	0.750950
	H9805	H	0.674182	0.564559	0.751892
	H9806	H	0.723404	0.564388	0.616002
	H9807	H	0.728155	0.564963	0.618875
	H9808	H	0.703238	0.143159	0.727856
	H9809	H	0.703240	0.362398	0.727804
	H9810	H	0.730733	0.064575	0.613279
	H9811	H	0.729469	0.064839	0.613166
	H9812	H	0.731434	0.064738	0.614342
	H9813	H	0.667635	0.862831	0.721711
	H9814	H	0.667671	0.642992	0.721701
	H9815	H	0.667858	0.362888	0.721681
	H9816	H	0.667827	0.143031	0.721671
	H9817	H	0.701594	0.142930	0.636431
	H9818	H	0.736934	0.142861	0.642501
	H9819	H	0.736864	0.362840	0.642500
	H9820	H	0.701203	0.362323	0.636308
	H9821	H	0.730330	0.142883	0.659245
	H9822	H	0.730279	0.362669	0.659266
	H9823	H	0.675888	0.065110	0.753174
	H9824	H	0.679007	0.064573	0.751529
	H9825	H	0.677917	0.064566	0.747911
	H9826	H	0.729494	0.941246	0.613215
	H9827	H	0.730717	0.941175	0.613285
	H9828	H	0.731460	0.941379	0.614359
	H9829	H	0.675923	0.941429	0.753210
	H9830	H	0.678944	0.941153	0.751516
	H9831	H	0.677923	0.940867	0.747905
	Zn9832	Zn	0.667318	0.680260	0.676605
	Zn9833	Zn	0.667353	0.825587	0.676603
	Zn9834	Zn	0.667298	0.180216	0.676579
	Zn9835	Zn	0.667321	0.325616	0.676571
	Zn9836	Zn	0.674628	0.680266	0.750004
	Zn9837	Zn	0.674610	0.825689	0.750047
	Zn9838	Zn	0.674634	0.180367	0.750019
	Zn9839	Zn	0.674655	0.325579	0.750062
	C9840	C	0.727044	0.753206	0.670576
	C9841	C	0.677440	0.752834	0.693588
	C9842	C	0.674759	0.752810	0.703924
	C9843	C	0.672795	0.690716	0.708667
	C9844	C	0.672770	0.814987	0.708663
	C9845	C	0.677490	0.252913	0.693535
	C9846	C	0.674807	0.252863	0.703890
	C9847	C	0.672897	0.190736	0.708632
	C9848	C	0.672876	0.315076	0.708629
	C9849	C	0.682870	0.752637	0.662191
	C9850	C	0.689523	0.752513	0.652815
	C9851	C	0.692531	0.814583	0.648382
	C9852	C	0.692477	0.690588	0.648299
	C9853	C	0.682956	0.252811	0.662220
	C9854	C	0.689605	0.252595	0.652839
	C9855	C	0.692529	0.314514	0.648356
	C9856	C	0.692740	0.190676	0.648423
	C9857	C	0.738649	0.043430	0.691871
	C9858	C	0.738663	0.962646	0.691861
	C9859	C	0.667987	0.043514	0.676984
	C9860	C	0.668027	0.962463	0.677002
	C9861	C	0.667553	0.043306	0.676077
	C9862	C	0.667598	0.962493	0.676092
	C9863	C	0.671492	0.462853	0.675702
	C9864	C	0.736271	0.462568	0.689285
	C9865	C	0.735350	0.462807	0.686184
	C9866	C	0.671489	0.543463	0.675703
	C9867	C	0.735369	0.543470	0.686197
	C9868	C	0.736297	0.543463	0.689284
	C9869	C	0.721648	0.753418	0.701992
	C9870	C	0.721620	0.252629	0.702006
	C9871	C	0.714984	0.753420	0.711352
	C9872	C	0.712137	0.691427	0.715854
	C9873	C	0.712004	0.815359	0.715821
	C9874	C	0.714980	0.252719	0.711367
	C9875	C	0.711965	0.190750	0.715813
	C9876	C	0.711958	0.314674	0.715796
	C9877	C	0.727061	0.252775	0.670601
	C9878	C	0.740084	0.752996	0.631146
	C9879	C	0.710024	0.753183	0.626562
	C9880	C	0.664471	0.753330	0.733046
	C9881	C	0.731825	0.690774	0.655523
	C9882	C	0.731692	0.815235	0.655517
	C9883	C	0.737433	0.752938	0.641489
	C9884	C	0.701978	0.752926	0.635385
	C9885	C	0.698688	0.690781	0.639698
	C9886	C	0.735563	0.690751	0.646233
	C9887	C	0.735445	0.815200	0.646232
	C9888	C	0.698746	0.814805	0.639785
	C9889	C	0.729757	0.752986	0.660247
	C9890	C	0.694622	0.753156	0.737701
	C9891	C	0.705988	0.691290	0.724486
	C9892	C	0.705840	0.815329	0.724444
	C9893	C	0.702591	0.753248	0.728808
	C9894	C	0.673696	0.462463	0.748833
	C9895	C	0.727012	0.462448	0.616612
	C9896	C	0.673488	0.462657	0.751040
	C9897	C	0.673674	0.543264	0.748828
	C9898	C	0.673469	0.543484	0.751046
	C9899	C	0.726953	0.543310	0.616584
	C9900	C	0.694588	0.253054	0.737664
	C9901	C	0.705774	0.190872	0.724422
	C9902	C	0.705768	0.314677	0.724400
	C9903	C	0.702509	0.252826	0.728789
	C9904	C	0.730113	0.043334	0.613468
	C9905	C	0.740163	0.252994	0.631153
	C9906	C	0.710009	0.252672	0.626525
	C9907	C	0.664529	0.252978	0.733038
	C9908	C	0.731803	0.190696	0.655526
	C9909	C	0.731763	0.314939	0.655530
	C9910	C	0.737480	0.252810	0.641489
	C9911	C	0.702041	0.252589	0.635391
	C9912	C	0.667151	0.753026	0.722700
	C9913	C	0.669062	0.815169	0.717962
	C9914	C	0.669089	0.690790	0.717966
	C9915	C	0.667218	0.252959	0.722676
	C9916	C	0.669178	0.315114	0.717934
	C9917	C	0.669188	0.190811	0.717930
	C9918	C	0.698909	0.190617	0.639809
	C9919	C	0.735529	0.190705	0.646231
	C9920	C	0.735492	0.314926	0.646230
	C9921	C	0.698695	0.314542	0.639741
	C9922	C	0.729842	0.252790	0.660272
	C9923	C	0.676655	0.043485	0.751733
	C9924	C	0.730888	0.043454	0.614528
	C9925	C	0.730104	0.962434	0.613477
	C9926	C	0.676651	0.962547	0.751740
	C9927	C	0.730874	0.962547	0.614541
	N9928	N	0.667400	0.070330	0.676601
	N9929	N	0.667449	0.935811	0.676605
	N9930	N	0.667374	0.435700	0.676608
	N9931	N	0.667378	0.570235	0.676605
	N9932	N	0.674604	0.435731	0.750009
	N9933	N	0.674567	0.570303	0.749999
	N9934	N	0.674576	0.070283	0.750028
	N9935	N	0.674544	0.935779	0.750037
	O9936	O	0.735959	0.695057	0.800976
	O9937	O	0.735917	0.811108	0.800928
	O9938	O	0.627303	0.695222	0.823510
	O9939	O	0.627453	0.811471	0.823434
	O9940	O	0.627427	0.195768	0.823478
	O9941	O	0.627274	0.312085	0.823516
	O9942	O	0.628786	0.694610	0.803510
	O9943	O	0.628763	0.811113	0.803487
	O9944	O	0.628793	0.195008	0.803542
	O9945	O	0.628756	0.311664	0.803473
	O9946	O	0.738366	0.694753	0.822251
	O9947	O	0.738297	0.810633	0.822175
	O9948	O	0.738226	0.194873	0.822193
	O9949	O	0.738274	0.310841	0.822211
	O9950	O	0.735977	0.194479	0.800901
	O9951	O	0.735892	0.310523	0.800945
	O9952	O	0.689737	0.694668	0.760969
	O9953	O	0.661618	0.694745	0.760750
	O9954	O	0.702111	0.694564	0.863317
	O9955	O	0.702156	0.810723	0.863327
	O9956	O	0.673412	0.694840	0.863497
	O9957	O	0.673559	0.811015	0.863475
	O9958	O	0.661734	0.811098	0.760844
	O9959	O	0.689794	0.810781	0.760927
	O9960	O	0.689878	0.194260	0.760945
	O9961	O	0.661746	0.194639	0.760845
	O9962	O	0.702094	0.194878	0.863279
	O9963	O	0.702158	0.310860	0.863305
	O9964	O	0.673389	0.195237	0.863474
	O9965	O	0.673521	0.311403	0.863486
	O9966	O	0.661695	0.310951	0.760821
	O9967	O	0.689796	0.310545	0.760968
	H9968	H	0.642114	0.645096	0.836347
	H9969	H	0.642391	0.861511	0.836222
	H9970	H	0.642272	0.145697	0.836224
	H9971	H	0.642016	0.362329	0.836373
	H9972	H	0.640929	0.862274	0.790378
	H9973	H	0.640533	0.643413	0.790281
	H9974	H	0.640811	0.362821	0.790321
	H9975	H	0.640828	0.143540	0.790423
	H9976	H	0.749483	0.064898	0.811825
	H9977	H	0.750597	0.064576	0.812701
	H9978	H	0.750611	0.941300	0.812673
	H9979	H	0.749468	0.941316	0.811768
	H9980	H	0.750223	0.064360	0.810397
	H9981	H	0.750242	0.941069	0.810364
	H9982	H	0.613245	0.064691	0.811574
	H9983	H	0.613133	0.941071	0.811553
	H9984	H	0.611651	0.064696	0.811383
	H9985	H	0.611629	0.941549	0.811359
	H9986	H	0.610345	0.064279	0.812549
	H9987	H	0.610313	0.941456	0.812469
	H9988	H	0.616401	0.441179	0.815369
	H9989	H	0.617956	0.441434	0.812308
	H9990	H	0.609906	0.441110	0.816029
	H9991	H	0.754333	0.440902	0.812925
	H9992	H	0.750533	0.441411	0.813704
	H9993	H	0.748318	0.441432	0.812358
	H9994	H	0.618001	0.564309	0.812343
	H9995	H	0.616468	0.564627	0.815432
	H9996	H	0.748371	0.564655	0.812352
	H9997	H	0.750539	0.564522	0.813674
	H9998	H	0.754312	0.564409	0.812871
	H9999	H	0.609866	0.564698	0.816064
	H10000	H	0.726538	0.644843	0.835327
	H10001	H	0.726779	0.860460	0.835366
	H10002	H	0.726786	0.145452	0.835356
	H10003	H	0.726569	0.360434	0.835345
	H10004	H	0.651634	0.643478	0.774739
	H10005	H	0.704758	0.644610	0.773727
	H10006	H	0.704714	0.861146	0.773702
	H10007	H	0.652045	0.862089	0.774883
	H10008	H	0.721146	0.644503	0.788143
	H10009	H	0.721090	0.861320	0.788165
	H10010	H	0.713744	0.644997	0.850194
	H10011	H	0.713932	0.860512	0.850212
	H10012	H	0.674526	0.441064	0.748117
	H10013	H	0.687757	0.441434	0.874061
	H10014	H	0.677313	0.440923	0.749438
	H10015	H	0.677159	0.441320	0.751032
	H10016	H	0.689821	0.441205	0.874821
	H10017	H	0.688756	0.441036	0.874877
	H10018	H	0.687713	0.564986	0.874024
	H10019	H	0.674489	0.564331	0.748077
	H10020	H	0.688661	0.564914	0.874856
	H10021	H	0.689810	0.564206	0.874777
	H10022	H	0.677128	0.564620	0.751035
	H10023	H	0.677242	0.564452	0.749418
	H10024	H	0.713964	0.145052	0.850231
	H10025	H	0.713763	0.360511	0.850209
	H10026	H	0.670037	0.064720	0.749099
	H10027	H	0.670713	0.064688	0.751708
	H10028	H	0.674131	0.065059	0.746877
	H10029	H	0.658782	0.861556	0.850664
	H10030	H	0.658482	0.645194	0.850748
	H10031	H	0.658358	0.361992	0.850823
	H10032	H	0.658595	0.145493	0.850673
	H10033	H	0.651907	0.143389	0.774880
	H10034	H	0.704686	0.144209	0.773711
	H10035	H	0.704673	0.360927	0.773748
	H10036	H	0.651856	0.362353	0.774799
	H10037	H	0.721031	0.144139	0.788179
	H10038	H	0.721023	0.360691	0.788215
	H10039	H	0.687251	0.064500	0.872691
	H10040	H	0.686393	0.064378	0.873948
	H10041	H	0.688178	0.064316	0.875650
	H10042	H	0.670652	0.941743	0.751726
	H10043	H	0.669871	0.941803	0.749059
	H10044	H	0.674066	0.941091	0.746825
	H10045	H	0.687269	0.941152	0.872641
	H10046	H	0.686385	0.940986	0.873978
	H10047	H	0.688127	0.941052	0.875611
	Zn10048	Zn	0.612239	0.680236	0.812604
	Zn10049	Zn	0.612187	0.825360	0.812543
	Zn10050	Zn	0.612297	0.180290	0.812652
	Zn10051	Zn	0.612183	0.325303	0.812541
	Zn10052	Zn	0.688966	0.680183	0.874033
	Zn10053	Zn	0.688987	0.825623	0.874032
	Zn10054	Zn	0.688930	0.180087	0.873973
	Zn10055	Zn	0.689074	0.325729	0.874043
	C10056	C	0.731988	0.752992	0.797689
	C10057	C	0.631330	0.753347	0.826744
	C10058	C	0.641316	0.753396	0.835368
	C10059	C	0.645800	0.692134	0.839517
	C10060	C	0.645967	0.814630	0.839457
	C10061	C	0.631309	0.253995	0.826765
	C10062	C	0.641323	0.253995	0.835374
	C10063	C	0.645896	0.192705	0.839457
	C10064	C	0.645778	0.315270	0.839534
	C10065	C	0.632215	0.752852	0.800224
	C10066	C	0.640144	0.752765	0.791340
	C10067	C	0.643434	0.814571	0.786963
	C10068	C	0.643225	0.691013	0.786901
	C10069	C	0.632225	0.253257	0.800240
	C10070	C	0.640114	0.253098	0.791338
	C10071	C	0.643325	0.314952	0.786915
	C10072	C	0.643336	0.191163	0.786966
	C10073	C	0.750401	0.043483	0.812050
	C10074	C	0.750398	0.962523	0.812039
	C10075	C	0.612334	0.043383	0.811773
	C10076	C	0.612292	0.962488	0.811743
	C10077	C	0.611024	0.043286	0.812919
	C10078	C	0.610993	0.962624	0.812883
	C10079	C	0.615855	0.462602	0.813514
	C10080	C	0.753718	0.462277	0.811832
	C10081	C	0.749956	0.462461	0.812610
	C10082	C	0.615856	0.543320	0.813527
	C10083	C	0.749977	0.543296	0.812603
	C10084	C	0.753707	0.543310	0.811827
	C10085	C	0.735199	0.752750	0.825585
	C10086	C	0.735133	0.252861	0.825583
	C10087	C	0.727383	0.752714	0.834446
	C10088	C	0.723754	0.691657	0.838647
	C10089	C	0.723885	0.813748	0.838668
	C10090	C	0.727274	0.252959	0.834446
	C10091	C	0.723812	0.191921	0.838652
	C10092	C	0.723703	0.313859	0.838649
	C10093	C	0.732006	0.252463	0.797640
	C10094	C	0.693711	0.752758	0.764241
	C10095	C	0.659040	0.752852	0.764426
	C10096	C	0.669580	0.753060	0.860191
	C10097	C	0.717431	0.691612	0.784974
	C10098	C	0.717403	0.814225	0.784980
	C10099	C	0.703699	0.752906	0.772879
	C10100	C	0.652449	0.752737	0.773822
	C10101	C	0.649341	0.690991	0.778252
	C10102	C	0.708345	0.691681	0.776963
	C10103	C	0.708315	0.814161	0.776962
	C10104	C	0.649572	0.814505	0.778329
	C10105	C	0.721962	0.752961	0.789096
	C10106	C	0.705212	0.752699	0.859930
	C10107	C	0.716683	0.691657	0.846906
	C10108	C	0.716820	0.813754	0.846930
	C10109	C	0.713163	0.752735	0.851109
	C10110	C	0.688270	0.462566	0.873801
	C10111	C	0.676483	0.462366	0.750169
	C10112	C	0.689220	0.462444	0.874643
	C10113	C	0.688225	0.543415	0.873790
	C10114	C	0.689200	0.543372	0.874632
	C10115	C	0.676467	0.543219	0.750169
	C10116	C	0.705239	0.252799	0.859924
	C10117	C	0.716732	0.191727	0.846908
	C10118	C	0.716637	0.313735	0.846905
	C10119	C	0.713100	0.252702	0.851089
	C10120	C	0.671454	0.043466	0.750308
	C10121	C	0.693763	0.252448	0.764241
	C10122	C	0.659065	0.252810	0.764458
	C10123	C	0.669542	0.253450	0.860199
	C10124	C	0.717410	0.191109	0.784956
	C10125	C	0.717399	0.313808	0.784972
	C10126	C	0.703753	0.252601	0.772854
	C10127	C	0.652454	0.252875	0.773842
	C10128	C	0.659554	0.753422	0.851602
	C10129	C	0.655033	0.814608	0.847479
	C10130	C	0.654880	0.692186	0.847534
	C10131	C	0.659550	0.253752	0.851588
	C10132	C	0.654837	0.315136	0.847558
	C10133	C	0.654956	0.192611	0.847476
	C10134	C	0.649472	0.191070	0.778332
	C10135	C	0.708362	0.191231	0.776924
	C10136	C	0.708354	0.313900	0.776944
	C10137	C	0.649462	0.314818	0.778289
	C10138	C	0.721996	0.252432	0.789037
	C10139	C	0.687377	0.043174	0.873491
	C10140	C	0.675616	0.043493	0.748078
	C10141	C	0.671390	0.962954	0.750308
	C10142	C	0.687403	0.962243	0.873500
	C10143	C	0.675592	0.962420	0.748068
	N10144	N	0.612204	0.070267	0.812622
	N10145	N	0.612143	0.935662	0.812564
	N10146	N	0.612147	0.435543	0.812534
	N10147	N	0.612133	0.570094	0.812564
	N10148	N	0.689107	0.435591	0.874065
	N10149	N	0.689059	0.570082	0.874032
	N10150	N	0.688970	0.070119	0.874044
	N10151	N	0.688980	0.935645	0.874059
	O10152	O	0.750379	0.694494	0.924745
	O10153	O	0.750369	0.810566	0.924705
	O10154	O	0.641941	0.694977	0.947096
	O10155	O	0.641986	0.811166	0.947020
	O10156	O	0.641826	0.194619	0.947062
	O10157	O	0.641887	0.310753	0.947061
	O10158	O	0.639543	0.694631	0.925797
	O10159	O	0.639602	0.810833	0.925814
	O10160	O	0.639557	0.195359	0.925782
	O10161	O	0.639560	0.311376	0.925774
	O10162	O	0.749056	0.694369	0.944793
	O10163	O	0.749002	0.811102	0.944759
	O10164	O	0.749007	0.194240	0.944748
	O10165	O	0.748844	0.310894	0.944715
	O10166	O	0.750432	0.194178	0.924645
	O10167	O	0.750299	0.310617	0.924670
	O10168	O	0.704465	0.694515	0.884577
	O10169	O	0.675724	0.694668	0.884705
	O10170	O	0.715727	0.694148	0.987289
	O10171	O	0.715831	0.810464	0.987354
	O10172	O	0.687764	0.695023	0.987171
	O10173	O	0.687780	0.811398	0.987189
	O10174	O	0.675827	0.810920	0.884782
	O10175	O	0.704460	0.810666	0.884611
	O10176	O	0.704485	0.193956	0.884559
	O10177	O	0.675739	0.194963	0.884688
	O10178	O	0.715822	0.194828	0.987336
	O10179	O	0.715916	0.311207	0.987368
	O10180	O	0.687723	0.194469	0.987173
	O10181	O	0.687693	0.310674	0.987195
	O10182	O	0.675951	0.311009	0.884760
	O10183	O	0.704487	0.310041	0.884621
	H10184	H	0.656785	0.645370	0.959812
	H10185	H	0.656791	0.861737	0.959866
	H10186	H	0.656700	0.144223	0.959869
	H10187	H	0.656583	0.360821	0.959912
	H10188	H	0.651327	0.860860	0.912711
	H10189	H	0.651253	0.644524	0.912729
	H10190	H	0.651306	0.361766	0.912641
	H10191	H	0.651321	0.144680	0.912702
	H10192	H	0.765266	0.064650	0.932746
	H10193	H	0.762057	0.064325	0.933790
	H10194	H	0.761972	0.940977	0.933788
	H10195	H	0.765220	0.940972	0.932729
	H10196	H	0.769502	0.064369	0.934669
	H10197	H	0.769455	0.940625	0.934675
	H10198	H	0.625100	0.064383	0.939801
	H10199	H	0.625188	0.941183	0.939813
	H10200	H	0.629469	0.064492	0.939438
	H10201	H	0.629447	0.941210	0.939380
	H10202	H	0.631395	0.064355	0.935716
	H10203	H	0.631381	0.940957	0.935653
	H10204	H	0.626275	0.441216	0.937849
	H10205	H	0.627867	0.441345	0.937496
	H10206	H	0.624541	0.441087	0.936795
	H10207	H	0.760212	0.440852	0.935305
	H10208	H	0.763869	0.440978	0.932243
	H10209	H	0.768261	0.441554	0.932768
	H10210	H	0.627855	0.564861	0.937576
	H10211	H	0.626215	0.564533	0.937912
	H10212	H	0.768370	0.564467	0.932838
	H10213	H	0.763936	0.564574	0.932280
	H10214	H	0.760194	0.564322	0.935260
	H10215	H	0.624434	0.564835	0.936750
	H10216	H	0.736738	0.643159	0.957788
	H10217	H	0.736867	0.862296	0.957836
	H10218	H	0.736800	0.142954	0.957848
	H10219	H	0.736744	0.362264	0.957770
	H10220	H	0.664119	0.644320	0.897856
	H10221	H	0.719171	0.644042	0.897501
	H10222	H	0.719362	0.860129	0.897350
	H10223	H	0.664155	0.860860	0.897863
	H10224	H	0.735432	0.644006	0.911963
	H10225	H	0.735628	0.860506	0.911837
	H10226	H	0.725520	0.643150	0.973249
	H10227	H	0.725588	0.862039	0.973313
	H10228	H	0.688191	0.441483	0.873381
	H10229	H	0.706643	0.440994	0.997049
	H10230	H	0.689724	0.441109	0.873287
	H10231	H	0.690381	0.440959	0.873896
	H10232	H	0.699260	0.441657	0.996401
	H10233	H	0.702315	0.441395	0.995301
	H10234	H	0.706606	0.564997	0.997055
	H10235	H	0.688123	0.565013	0.873336
	H10236	H	0.702333	0.564860	0.995265
	H10237	H	0.699287	0.564577	0.996440
	H10238	H	0.690412	0.564182	0.873868
	H10239	H	0.689632	0.564486	0.873259
	H10240	H	0.725761	0.143199	0.973378
	H10241	H	0.725670	0.362569	0.973315
	H10242	H	0.691449	0.064440	0.873752
	H10243	H	0.690220	0.064225	0.872576
	H10244	H	0.690344	0.064837	0.875526
	H10245	H	0.673020	0.861473	0.974393
	H10246	H	0.673031	0.645085	0.974317
	H10247	H	0.672808	0.361172	0.974416
	H10248	H	0.672903	0.144107	0.974381
	H10249	H	0.664183	0.144575	0.897837
	H10250	H	0.719257	0.143218	0.897398
	H10251	H	0.719266	0.360254	0.897387
	H10252	H	0.664175	0.361489	0.897795
	H10253	H	0.735553	0.143525	0.911893
	H10254	H	0.735550	0.360318	0.911886
	H10255	H	0.699086	0.064294	0.993889
	H10256	H	0.695825	0.064549	0.997147
	H10257	H	0.699589	0.064728	1.002123
	H10258	H	0.690233	0.940920	0.872577
	H10259	H	0.691486	0.941027	0.873839
	H10260	H	0.690293	0.941303	0.875602
	H10261	H	0.699102	0.941249	0.993961
	H10262	H	0.695815	0.941357	0.997194
	H10263	H	0.699600	0.941087	1.002111
	Zn10264	Zn	0.626437	0.680148	0.936549
	Zn10265	Zn	0.626382	0.825559	0.936468
	Zn10266	Zn	0.626412	0.180212	0.936521
	Zn10267	Zn	0.626440	0.325572	0.936498
	Zn10268	Zn	0.702859	0.680489	0.998142
	Zn10269	Zn	0.702889	0.825369	0.998119
	Zn10270	Zn	0.702896	0.180488	0.998112
	Zn10271	Zn	0.702824	0.325282	0.998094
	C10272	C	0.746463	0.752472	0.921417
	C10273	C	0.645875	0.753197	0.950350
	C10274	C	0.655815	0.753504	0.959003
	C10275	C	0.660378	0.692189	0.963074
	C10276	C	0.660405	0.814741	0.963106
	C10277	C	0.645749	0.252632	0.950370
	C10278	C	0.655717	0.252549	0.959011
	C10279	C	0.660329	0.191237	0.963094
	C10280	C	0.660258	0.313844	0.963119
	C10281	C	0.642662	0.752726	0.922425
	C10282	C	0.650542	0.752662	0.913586
	C10283	C	0.654175	0.813935	0.909403
	C10284	C	0.654149	0.691357	0.909412
	C10285	C	0.642721	0.253320	0.922419
	C10286	C	0.650598	0.253178	0.913561
	C10287	C	0.654168	0.314585	0.909343
	C10288	C	0.654152	0.191726	0.909367
	C10289	C	0.764183	0.043116	0.933896
	C10290	C	0.764142	0.962327	0.933888
	C10291	C	0.627038	0.043281	0.938799
	C10292	C	0.627050	0.962460	0.938778
	C10293	C	0.628999	0.043172	0.935034
	C10294	C	0.628983	0.962476	0.935012
	C10295	C	0.626915	0.462580	0.937387
	C10296	C	0.762238	0.462387	0.936443
	C10297	C	0.765950	0.462374	0.933360
	C10298	C	0.626899	0.543279	0.937421
	C10299	C	0.766016	0.543188	0.933370
	C10300	C	0.762267	0.543128	0.936432
	C10301	C	0.745565	0.752719	0.948028
	C10302	C	0.745473	0.252504	0.947997
	C10303	C	0.737572	0.752701	0.956894
	C10304	C	0.734212	0.690753	0.961221
	C10305	C	0.734269	0.814649	0.961247
	C10306	C	0.737540	0.252586	0.956902
	C10307	C	0.734276	0.190635	0.961267
	C10308	C	0.734251	0.314668	0.961237
	C10309	C	0.746429	0.252284	0.921388
	C10310	C	0.708380	0.752497	0.887890
	C10311	C	0.672667	0.752743	0.888115
	C10312	C	0.683861	0.753244	0.983896
	C10313	C	0.731908	0.691016	0.908705
	C10314	C	0.732012	0.813406	0.908627
	C10315	C	0.718392	0.752196	0.896494
	C10316	C	0.664777	0.752607	0.896959
	C10317	C	0.661212	0.691288	0.901150
	C10318	C	0.722903	0.691018	0.900655
	C10319	C	0.723008	0.813257	0.900575
	C10320	C	0.661240	0.813937	0.901149
	C10321	C	0.736585	0.752294	0.912747
	C10322	C	0.718450	0.752368	0.983704
	C10323	C	0.728024	0.690746	0.969835
	C10324	C	0.728071	0.814520	0.969863
	C10325	C	0.725093	0.752619	0.974335
	C10326	C	0.705685	0.462785	0.998201
	C10327	C	0.689802	0.462488	0.873706
	C10328	C	0.701376	0.462754	0.996453
	C10329	C	0.705701	0.543438	0.998225
	C10330	C	0.701375	0.543319	0.996467
	C10331	C	0.689759	0.543256	0.873685
	C10332	C	0.718521	0.253024	0.983727
	C10333	C	0.728138	0.190830	0.969900
	C10334	C	0.728117	0.314918	0.969869
	C10335	C	0.725114	0.252993	0.974344
	C10336	C	0.690332	0.043245	0.873391
	C10337	C	0.708387	0.251869	0.887895
	C10338	C	0.672730	0.253041	0.888099
	C10339	C	0.683774	0.252591	0.983899
	C10340	C	0.731939	0.190467	0.908654
	C10341	C	0.731931	0.313257	0.908651
	C10342	C	0.718341	0.251673	0.896522
	C10343	C	0.664839	0.253038	0.896923
	C10344	C	0.673930	0.753361	0.975256
	C10345	C	0.669385	0.814644	0.971165
	C10346	C	0.669369	0.692121	0.971125
	C10347	C	0.673883	0.252629	0.975256
	C10348	C	0.669259	0.313945	0.971165
	C10349	C	0.669340	0.191296	0.971146
	C10350	C	0.661269	0.191674	0.901129
	C10351	C	0.722915	0.190350	0.900617
	C10352	C	0.722911	0.313141	0.900612
	C10353	C	0.661276	0.314468	0.901103
	C10354	C	0.736502	0.251922	0.912745
	C10355	C	0.698919	0.043342	0.996209
	C10356	C	0.689155	0.043314	0.875177
	C10357	C	0.690374	0.962361	0.873417
	C10358	C	0.698918	0.962542	0.996233
	C10359	C	0.689142	0.962576	0.875193
	N10360	N	0.626408	0.070224	0.936502
	N10361	N	0.626398	0.935659	0.936471
	N10362	N	0.626427	0.435595	0.936506
	N10363	N	0.626424	0.570093	0.936532
	N10364	N	0.702854	0.435481	0.998131
	N10365	N	0.702858	0.570151	0.998150
	N10366	N	0.702937	0.070447	0.998095
	N10367	N	0.702893	0.935820	0.998103
	O10368	O	0.835816	0.694291	0.059027
	O10369	O	0.835834	0.810388	0.059019
	O10370	O	0.725430	0.694809	0.082382
	O10371	O	0.725311	0.811101	0.082454
	O10372	O	0.725373	0.194543	0.082409
	O10373	O	0.725397	0.310864	0.082384
	O10374	O	0.726703	0.694579	0.062494
	O10375	O	0.726577	0.811309	0.062426
	O10376	O	0.726614	0.194087	0.062480
	O10377	O	0.726724	0.310870	0.062466
	O10378	O	0.839000	0.695236	0.080187
	O10379	O	0.838948	0.811311	0.080198
	O10380	O	0.838975	0.195398	0.080227
	O10381	O	0.839048	0.311411	0.080238
	O10382	O	0.835945	0.194421	0.058998
	O10383	O	0.835743	0.310820	0.059037
	O10384	O	0.788106	0.694189	0.019894
	O10385	O	0.759783	0.694627	0.019857
	O10386	O	0.802050	0.695058	0.120904
	O10387	O	0.801870	0.811185	0.120809
	O10388	O	0.773173	0.694963	0.121462
	O10389	O	0.773207	0.811207	0.121473
	O10390	O	0.759951	0.811196	0.019977
	O10391	O	0.788099	0.810325	0.019912
	O10392	O	0.788111	0.194518	0.019876
	O10393	O	0.759712	0.194051	0.019856
	O10394	O	0.801927	0.195280	0.120887
	O10395	O	0.801900	0.311307	0.120877
	O10396	O	0.773178	0.194585	0.121469
	O10397	O	0.773175	0.310754	0.121444
	O10398	O	0.759803	0.310498	0.019893
	O10399	O	0.787914	0.310656	0.020044
	H10400	H	0.740865	0.644556	0.094856
	H10401	H	0.740756	0.861623	0.094906
	H10402	H	0.740465	0.144266	0.095005
	H10403	H	0.740881	0.361166	0.094806
	H10404	H	0.738525	0.862558	0.049291
	H10405	H	0.738733	0.642883	0.049360
	H10406	H	0.738719	0.361965	0.049361
	H10407	H	0.738805	0.142394	0.049433
	H10408	H	0.852359	0.063779	0.067404
	H10409	H	0.849920	0.064364	0.067663
	H10410	H	0.849867	0.941099	0.067635
	H10411	H	0.852345	0.941175	0.067364
	H10412	H	0.854689	0.064204	0.069176
	H10413	H	0.854694	0.941073	0.069149
	H10414	H	0.706774	0.064979	0.069952
	H10415	H	0.706877	0.941592	0.069921
	H10416	H	0.706240	0.065054	0.072114
	H10417	H	0.706278	0.941417	0.072066
	H10418	H	0.709790	0.064542	0.074256
	H10419	H	0.709829	0.941192	0.074227
	H10420	H	0.707487	0.440710	0.074054
	H10421	H	0.711444	0.441050	0.074610
	H10422	H	0.705534	0.441232	0.070577
	H10423	H	0.854874	0.440942	0.069215
	H10424	H	0.853083	0.441439	0.071337
	H10425	H	0.850287	0.441368	0.071215
	H10426	H	0.711326	0.564365	0.074620
	H10427	H	0.707495	0.564741	0.074080
	H10428	H	0.850290	0.564442	0.071261
	H10429	H	0.853072	0.564548	0.071401
	H10430	H	0.855014	0.564528	0.069200
	H10431	H	0.705564	0.565136	0.070583
	H10432	H	0.827085	0.644981	0.093156
	H10433	H	0.827171	0.861660	0.093225
	H10434	H	0.826880	0.145657	0.093142
	H10435	H	0.827202	0.361188	0.093290
	H10436	H	0.749934	0.642902	0.033877
	H10437	H	0.803312	0.644253	0.032470
	H10438	H	0.803477	0.860087	0.032407
	H10439	H	0.749742	0.862496	0.033810
	H10440	H	0.820263	0.643926	0.046596
	H10441	H	0.820451	0.860182	0.046539
	H10442	H	0.813894	0.644872	0.107849
	H10443	H	0.814019	0.861660	0.107950
	H10444	H	0.776414	0.441543	0.010161
	H10445	H	0.792512	0.441041	0.133914
	H10446	H	0.772740	0.441495	0.011764
	H10447	H	0.769711	0.440963	0.010805
	H10448	H	0.789929	0.440956	0.128731
	H10449	H	0.793107	0.440789	0.130434
	H10450	H	0.792555	0.564713	0.133956
	H10451	H	0.776389	0.564486	0.010111
	H10452	H	0.793186	0.564313	0.130404
	H10453	H	0.790006	0.564351	0.128729
	H10454	H	0.769698	0.564926	0.010710
	H10455	H	0.772682	0.564564	0.011694
	H10456	H	0.813683	0.145341	0.107849
	H10457	H	0.813986	0.361361	0.107981
	H10458	H	0.770902	0.064350	0.014857
	H10459	H	0.778074	0.064430	0.014052
	H10460	H	0.764000	0.064962	0.009509
	H10461	H	0.757775	0.861811	0.109007
	H10462	H	0.757868	0.644829	0.108959
	H10463	H	0.757908	0.361291	0.108898
	H10464	H	0.757544	0.144041	0.109084
	H10465	H	0.749965	0.142362	0.033919
	H10466	H	0.803531	0.143910	0.032354
	H10467	H	0.803283	0.361030	0.032541
	H10468	H	0.749880	0.361662	0.033851
	H10469	H	0.820559	0.143692	0.046459
	H10470	H	0.820355	0.360987	0.046628
	H10471	H	0.787051	0.064830	0.131779
	H10472	H	0.787892	0.065147	0.132825
	H10473	H	0.790228	0.064976	0.133010
	H10474	H	0.778078	0.940833	0.014006
	H10475	H	0.770829	0.941033	0.014840
	H10476	H	0.763955	0.941251	0.009497
	H10477	H	0.787142	0.941438	0.131766
	H10478	H	0.787947	0.941554	0.132801
	H10479	H	0.790250	0.941301	0.132992
	Zn10480	Zn	0.710115	0.680392	0.071575
	Zn10481	Zn	0.710136	0.825222	0.071539
	Zn10482	Zn	0.710071	0.180462	0.071581
	Zn10483	Zn	0.710127	0.325161	0.071512
	Zn10484	Zn	0.789062	0.680216	0.131717
	Zn10485	Zn	0.789116	0.825654	0.131760
	Zn10486	Zn	0.789041	0.180328	0.131761
	Zn10487	Zn	0.788971	0.325543	0.131757
	C10488	C	0.831753	0.752311	0.055826
	C10489	C	0.729470	0.752946	0.085608
	C10490	C	0.739811	0.753089	0.094019
	C10491	C	0.744600	0.691772	0.098019
	C10492	C	0.744548	0.814561	0.098037
	C10493	C	0.729444	0.252748	0.085608
	C10494	C	0.739762	0.252727	0.094046
	C10495	C	0.744390	0.191311	0.098101
	C10496	C	0.744619	0.314103	0.097985
	C10497	C	0.730085	0.752873	0.059194
	C10498	C	0.738001	0.752687	0.050292
	C10499	C	0.741176	0.814838	0.045903
	C10500	C	0.741294	0.690656	0.045935
	C10501	C	0.730131	0.252372	0.059230
	C10502	C	0.738073	0.252278	0.050359
	C10503	C	0.741265	0.314202	0.045949
	C10504	C	0.741317	0.190131	0.045996
	C10505	C	0.851306	0.042975	0.068009
	C10506	C	0.851292	0.962266	0.067979
	C10507	C	0.707439	0.043589	0.071166
	C10508	C	0.707474	0.962645	0.071133
	C10509	C	0.711030	0.043292	0.073286
	C10510	C	0.711044	0.962327	0.073250
	C10511	C	0.709567	0.462275	0.073588
	C10512	C	0.853554	0.462367	0.068620
	C10513	C	0.851652	0.462396	0.070772
	C10514	C	0.709574	0.543199	0.073610
	C10515	C	0.851672	0.543085	0.070807
	C10516	C	0.853590	0.543338	0.068634
	C10517	C	0.835806	0.753271	0.083536
	C10518	C	0.835870	0.253440	0.083604
	C10519	C	0.827798	0.753342	0.092307
	C10520	C	0.824150	0.691913	0.096443
	C10521	C	0.824223	0.814755	0.096507
	C10522	C	0.827789	0.253432	0.092364
	C10523	C	0.823984	0.192339	0.096452
	C10524	C	0.824169	0.314480	0.096539
	C10525	C	0.831788	0.252496	0.055809
	C10526	C	0.792129	0.752261	0.023139
	C10527	C	0.757224	0.752836	0.023530
	C10528	C	0.769176	0.753175	0.118238
	C10529	C	0.816529	0.690978	0.043470
	C10530	C	0.816621	0.813300	0.043439
	C10531	C	0.802403	0.752196	0.031613
	C10532	C	0.750518	0.752738	0.032885
	C10533	C	0.747485	0.690668	0.037320
	C10534	C	0.807122	0.691060	0.035633
	C10535	C	0.807212	0.813305	0.035597
	C10536	C	0.747369	0.814795	0.037292
	C10537	C	0.821354	0.752144	0.047452
	C10538	C	0.805112	0.753132	0.117510
	C10539	C	0.816853	0.691904	0.104598
	C10540	C	0.816927	0.814656	0.104661
	C10541	C	0.813209	0.753190	0.108771
	C10542	C	0.790263	0.462556	0.133698
	C10543	C	0.771540	0.462470	0.010714
	C10544	C	0.790879	0.462207	0.130155
	C10545	C	0.790276	0.543307	0.133709
	C10546	C	0.790943	0.543022	0.130153
	C10547	C	0.771539	0.543397	0.010670
	C10548	C	0.805068	0.253303	0.117547
	C10549	C	0.816694	0.192232	0.104610
	C10550	C	0.816860	0.314502	0.104687
	C10551	C	0.813097	0.253381	0.108794
	C10552	C	0.773971	0.043278	0.013039
	C10553	C	0.792076	0.252530	0.023169
	C10554	C	0.757105	0.252245	0.023509
	C10555	C	0.769124	0.252670	0.118248
	C10556	C	0.816682	0.190906	0.043374
	C10557	C	0.816557	0.313844	0.043469
	C10558	C	0.802394	0.252437	0.031609
	C10559	C	0.750444	0.252114	0.032884
	C10560	C	0.758779	0.753373	0.109842
	C10561	C	0.753985	0.814759	0.105858
	C10562	C	0.754030	0.691886	0.105843
	C10563	C	0.758748	0.252692	0.109852
	C10564	C	0.754043	0.314144	0.105809
	C10565	C	0.753832	0.191221	0.105917
	C10566	C	0.747487	0.190117	0.037374
	C10567	C	0.807239	0.190996	0.035553
	C10568	C	0.807105	0.313901	0.035651
	C10569	C	0.747428	0.314096	0.037326
	C10570	C	0.821391	0.252324	0.047420
	C10571	C	0.787937	0.043554	0.132170
	C10572	C	0.767104	0.043585	0.007718
	C10573	C	0.773975	0.962255	0.013021
	C10574	C	0.787943	0.962685	0.132172
	C10575	C	0.767105	0.962443	0.007698
	N10576	N	0.710047	0.070173	0.071574
	N10577	N	0.710108	0.935529	0.071516
	N10578	N	0.710033	0.435521	0.071524
	N10579	N	0.710051	0.570193	0.071549
	N10580	N	0.789041	0.435626	0.131781
	N10581	N	0.789067	0.570153	0.131762
	N10582	N	0.789139	0.070149	0.131800
	N10583	N	0.789151	0.935601	0.131787
	O10584	O	0.859483	0.694488	0.176993
	O10585	O	0.859514	0.810477	0.176934
	O10586	O	0.743289	0.694718	0.204061
	O10587	O	0.743318	0.810546	0.204072
	O10588	O	0.743272	0.195146	0.204073
	O10589	O	0.743186	0.311060	0.204086
	O10590	O	0.739275	0.694235	0.183257
	O10591	O	0.739380	0.810357	0.183365
	O10592	O	0.739568	0.193995	0.183406
	O10593	O	0.739463	0.310187	0.183372
	O10594	O	0.863818	0.694883	0.197741
	O10595	O	0.863846	0.810867	0.197695
	O10596	O	0.863987	0.194669	0.197737
	O10597	O	0.863879	0.310611	0.197714
	O10598	O	0.859589	0.195030	0.176940
	O10599	O	0.859592	0.311139	0.176897
	O10600	O	0.805668	0.694587	0.141491
	O10601	O	0.776384	0.694358	0.142653
	O10602	O	0.826327	0.695166	0.238190
	O10603	O	0.826267	0.811073	0.238150
	O10604	O	0.797259	0.694698	0.239500
	O10605	O	0.797148	0.810621	0.239531
	O10606	O	0.776521	0.810449	0.142718
	O10607	O	0.805631	0.810773	0.141561
	O10608	O	0.805600	0.195151	0.141554
	O10609	O	0.776438	0.194369	0.142676
	O10610	O	0.826120	0.194629	0.238071
	O10611	O	0.826300	0.310755	0.238142
	O10612	O	0.797161	0.195621	0.239475
	O10613	O	0.797125	0.311391	0.239482
	O10614	O	0.776482	0.310371	0.142681
	O10615	O	0.805486	0.311118	0.141628
	H10616	H	0.760752	0.644706	0.215343
	H10617	H	0.760434	0.860285	0.215510
	H10618	H	0.760460	0.145578	0.215472
	H10619	H	0.760586	0.361163	0.215361
	H10620	H	0.751414	0.860726	0.170411
	H10621	H	0.751329	0.643980	0.170369
	H10622	H	0.751557	0.360144	0.170445
	H10623	H	0.751423	0.144289	0.170424
	H10624	H	0.878377	0.064520	0.185769
	H10625	H	0.876578	0.064538	0.184936
	H10626	H	0.876567	0.941172	0.184940
	H10627	H	0.878411	0.941281	0.185755
	H10628	H	0.878313	0.064094	0.187707
	H10629	H	0.878275	0.940989	0.187676
	H10630	H	0.728382	0.064581	0.195331
	H10631	H	0.728261	0.940967	0.195334
	H10632	H	0.728803	0.064318	0.194168
	H10633	H	0.728755	0.940986	0.194183
	H10634	H	0.727048	0.064525	0.192879
	H10635	H	0.727030	0.941433	0.192943
	H10636	H	0.728983	0.441070	0.192332
	H10637	H	0.725771	0.440983	0.191707
	H10638	H	0.730284	0.441143	0.195269
	H10639	H	0.873224	0.441125	0.185072
	H10640	H	0.877162	0.441135	0.184279
	H10641	H	0.879465	0.441155	0.185729
	H10642	H	0.725861	0.564414	0.191696
	H10643	H	0.729023	0.564723	0.192400
	H10644	H	0.879548	0.564611	0.185717
	H10645	H	0.877154	0.564557	0.184270
	H10646	H	0.873212	0.564369	0.185075
	H10647	H	0.730307	0.564556	0.195264
	H10648	H	0.851765	0.644647	0.210683
	H10649	H	0.851620	0.861332	0.210536
	H10650	H	0.851755	0.144290	0.210587
	H10651	H	0.851745	0.360939	0.210578
	H10652	H	0.764537	0.643870	0.155669
	H10653	H	0.822979	0.643804	0.152837
	H10654	H	0.822979	0.860925	0.152833
	H10655	H	0.764575	0.860493	0.155706
	H10656	H	0.842235	0.643811	0.165603
	H10657	H	0.842279	0.860765	0.165592
	H10658	H	0.838392	0.644949	0.225290
	H10659	H	0.838234	0.861190	0.225177
	H10660	H	0.788976	0.441808	0.134859
	H10661	H	0.812931	0.441034	0.249712
	H10662	H	0.784600	0.441143	0.132549
	H10663	H	0.785100	0.440553	0.130017
	H10664	H	0.814958	0.441346	0.249450
	H10665	H	0.814308	0.441220	0.249936
	H10666	H	0.812981	0.564532	0.249694
	H10667	H	0.788916	0.564694	0.134872
	H10668	H	0.814240	0.564608	0.249922
	H10669	H	0.814960	0.564514	0.249499
	H10670	H	0.785089	0.564277	0.129878
	H10671	H	0.784583	0.564564	0.132509
	H10672	H	0.838332	0.144372	0.225185
	H10673	H	0.838287	0.360906	0.225186
	H10674	H	0.790165	0.064278	0.130670
	H10675	H	0.788469	0.064513	0.130529
	H10676	H	0.791215	0.064223	0.132087
	H10677	H	0.779683	0.860384	0.228296
	H10678	H	0.780001	0.644664	0.228117
	H10679	H	0.779873	0.361354	0.228096
	H10680	H	0.779753	0.145307	0.228193
	H10681	H	0.764560	0.144300	0.155689
	H10682	H	0.823019	0.144935	0.152796
	H10683	H	0.823046	0.361482	0.152850
	H10684	H	0.764712	0.360016	0.155723
	H10685	H	0.842303	0.144679	0.165547
	H10686	H	0.842285	0.361359	0.165606
	H10687	H	0.814908	0.065066	0.248147
	H10688	H	0.813372	0.065029	0.247868
	H10689	H	0.811799	0.064185	0.248987
	H10690	H	0.788439	0.941135	0.130498
	H10691	H	0.790154	0.940853	0.130634
	H10692	H	0.791212	0.940803	0.132065
	H10693	H	0.814956	0.941343	0.248139
	H10694	H	0.813356	0.941489	0.247920
	H10695	H	0.811882	0.941531	0.249020
	Zn10696	Zn	0.726693	0.680185	0.194320
	Zn10697	Zn	0.726671	0.825407	0.194298
	Zn10698	Zn	0.726723	0.180097	0.194327
	Zn10699	Zn	0.726631	0.325618	0.194302
	Zn10700	Zn	0.813956	0.680172	0.249242
	Zn10701	Zn	0.813901	0.825785	0.249225
	Zn10702	Zn	0.813812	0.180410	0.249183
	Zn10703	Zn	0.813814	0.325570	0.249178
	C10704	C	0.855004	0.752436	0.174035
	C10705	C	0.747798	0.752559	0.207031
	C10706	C	0.759439	0.752537	0.214687
	C10707	C	0.764967	0.691546	0.218230
	C10708	C	0.764795	0.813525	0.218334
	C10709	C	0.747743	0.253184	0.207003
	C10710	C	0.759440	0.253398	0.214613
	C10711	C	0.764824	0.192313	0.218254
	C10712	C	0.764893	0.314398	0.218200
	C10713	C	0.742533	0.752374	0.179993
	C10714	C	0.750689	0.752335	0.171277
	C10715	C	0.754364	0.813708	0.167144
	C10716	C	0.754347	0.690829	0.167123
	C10717	C	0.742678	0.252119	0.180045
	C10718	C	0.750765	0.252213	0.171301
	C10719	C	0.754493	0.313260	0.167163
	C10720	C	0.754423	0.191063	0.167162
	C10721	C	0.877172	0.043211	0.185691
	C10722	C	0.877163	0.962360	0.185674
	C10723	C	0.728069	0.043172	0.194643
	C10724	C	0.728016	0.962239	0.194650
	C10725	C	0.726273	0.043148	0.193405
	C10726	C	0.726273	0.962356	0.193402
	C10727	C	0.727158	0.462257	0.192634
	C10728	C	0.873802	0.462338	0.186183
	C10729	C	0.877751	0.462390	0.185401
	C10730	C	0.727181	0.543399	0.192638
	C10731	C	0.877760	0.543257	0.185399
	C10732	C	0.873802	0.543251	0.186181
	C10733	C	0.860655	0.752912	0.201056
	C10734	C	0.860767	0.252634	0.201069
	C10735	C	0.852439	0.752951	0.209748
	C10736	C	0.848729	0.691706	0.213902
	C10737	C	0.848662	0.814356	0.213821
	C10738	C	0.852575	0.252627	0.209768
	C10739	C	0.848775	0.191286	0.213848
	C10740	C	0.848756	0.313967	0.213845
	C10741	C	0.855066	0.253004	0.173998
	C10742	C	0.810174	0.752617	0.144442
	C10743	C	0.773351	0.752349	0.146064
	C10744	C	0.792657	0.752610	0.236601
	C10745	C	0.837956	0.690884	0.162768
	C10746	C	0.837972	0.813752	0.162757
	C10747	C	0.821857	0.752505	0.152068
	C10748	C	0.765367	0.752176	0.154848
	C10749	C	0.761653	0.690821	0.158973
	C10750	C	0.827279	0.690901	0.155674
	C10751	C	0.827292	0.813903	0.155663
	C10752	C	0.761668	0.813596	0.158994
	C10753	C	0.843365	0.752360	0.166388
	C10754	C	0.829460	0.753089	0.234827
	C10755	C	0.841323	0.691799	0.222011
	C10756	C	0.841260	0.814353	0.221936
	C10757	C	0.837571	0.753106	0.226101
	C10758	C	0.813079	0.462287	0.249354
	C10759	C	0.785953	0.462323	0.131393
	C10760	C	0.814428	0.462516	0.249575
	C10761	C	0.813126	0.543226	0.249338
	C10762	C	0.814432	0.543265	0.249586
	C10763	C	0.785962	0.543334	0.131350
	C10764	C	0.829368	0.252687	0.234755
	C10765	C	0.841306	0.191303	0.221933
	C10766	C	0.841298	0.313966	0.221933
	C10767	C	0.837538	0.252662	0.226046
	C10768	C	0.789264	0.043236	0.130902
	C10769	C	0.810090	0.253194	0.144512
	C10770	C	0.773350	0.252295	0.146049
	C10771	C	0.792615	0.253472	0.236552
	C10772	C	0.838016	0.191685	0.162727
	C10773	C	0.838012	0.314305	0.162755
	C10774	C	0.821819	0.253220	0.152101
	C10775	C	0.765368	0.252132	0.154837
	C10776	C	0.780990	0.752522	0.229000
	C10777	C	0.775478	0.813530	0.225421
	C10778	C	0.775651	0.691541	0.225317
	C10779	C	0.780991	0.253443	0.228907
	C10780	C	0.775575	0.314500	0.225277
	C10781	C	0.775510	0.192277	0.225337
	C10782	C	0.761672	0.191024	0.158983
	C10783	C	0.827304	0.191850	0.155660
	C10784	C	0.827300	0.314424	0.155694
	C10785	C	0.761749	0.313245	0.158988
	C10786	C	0.843434	0.252919	0.166365
	C10787	C	0.814047	0.043662	0.248309
	C10788	C	0.790314	0.043269	0.132353
	C10789	C	0.789263	0.962370	0.130907
	C10790	C	0.814042	0.962459	0.248331
	C10791	C	0.790325	0.962433	0.132338
	N10792	N	0.726662	0.070022	0.194330
	N10793	N	0.726624	0.935474	0.194325
	N10794	N	0.726507	0.435598	0.194282
	N10795	N	0.726573	0.570110	0.194285
	N10796	N	0.813799	0.435624	0.249198
	N10797	N	0.813846	0.570157	0.249204
	N10798	N	0.813803	0.070278	0.249184
	N10799	N	0.813821	0.935757	0.249190
	O10800	O	0.884474	0.694359	0.294274
	O10801	O	0.884395	0.810325	0.294302
	O10802	O	0.768052	0.694962	0.321253
	O10803	O	0.768061	0.811027	0.321265
	O10804	O	0.767892	0.194907	0.321275
	O10805	O	0.768016	0.310933	0.321246
	O10806	O	0.763573	0.695380	0.300579
	O10807	O	0.763520	0.811378	0.300489
	O10808	O	0.763651	0.194758	0.300592
	O10809	O	0.763681	0.310774	0.300587
	O10810	O	0.888202	0.695048	0.314962
	O10811	O	0.888101	0.810984	0.314875
	O10812	O	0.888237	0.194634	0.314947
	O10813	O	0.888220	0.310687	0.314955
	O10814	O	0.884464	0.195238	0.294241
	O10815	O	0.884461	0.311396	0.294238
	O10816	O	0.830691	0.694719	0.258838
	O10817	O	0.801437	0.694910	0.260262
	O10818	O	0.851052	0.695067	0.355560
	O10819	O	0.851068	0.810937	0.355585
	O10820	O	0.821908	0.694711	0.356709
	O10821	O	0.821947	0.810661	0.356631
	O10822	O	0.801470	0.810781	0.260251
	O10823	O	0.830576	0.810851	0.258922
	O10824	O	0.830520	0.194836	0.258890
	O10825	O	0.801362	0.195016	0.260214
	O10826	O	0.851020	0.194396	0.355563
	O10827	O	0.850936	0.310486	0.355523
	O10828	O	0.821786	0.194582	0.356724
	O10829	O	0.821837	0.310642	0.356713
	O10830	O	0.801346	0.310972	0.260222
	O10831	O	0.830474	0.311018	0.258870
	H10832	H	0.785225	0.644407	0.332628
	H10833	H	0.785348	0.861303	0.332597
	H10834	H	0.785242	0.144344	0.332624
	H10835	H	0.785227	0.361082	0.332660
	H10836	H	0.775685	0.861128	0.287601
	H10837	H	0.775693	0.645303	0.287686
	H10838	H	0.775889	0.360329	0.287763
	H10839	H	0.775779	0.145141	0.287682
	H10840	H	0.900621	0.064556	0.306784
	H10841	H	0.903959	0.064427	0.306123
	H10842	H	0.903934	0.941149	0.306125
	H10843	H	0.900636	0.940990	0.306754
	H10844	H	0.896914	0.064744	0.304522
	H10845	H	0.896848	0.941414	0.304536
	H10846	H	0.755798	0.065115	0.309682
	H10847	H	0.755841	0.941556	0.309743
	H10848	H	0.751725	0.065229	0.307894
	H10849	H	0.751824	0.941516	0.307924
	H10850	H	0.746063	0.064358	0.309784
	H10851	H	0.746169	0.941144	0.309799
	H10852	H	0.747884	0.440718	0.312641
	H10853	H	0.750416	0.441615	0.314021
	H10854	H	0.748421	0.441616	0.309776
	H10855	H	0.903194	0.441295	0.302520
	H10856	H	0.904027	0.441230	0.304981
	H10857	H	0.902168	0.441283	0.306158
	H10858	H	0.750386	0.564159	0.314037
	H10859	H	0.747869	0.564869	0.312631
	H10860	H	0.902098	0.564494	0.306208
	H10861	H	0.904058	0.564487	0.304995
	H10862	H	0.903118	0.564321	0.302550
	H10863	H	0.748434	0.564977	0.309870
	H10864	H	0.876232	0.645570	0.327902
	H10865	H	0.876182	0.860889	0.327883
	H10866	H	0.876313	0.144191	0.327911
	H10867	H	0.876269	0.360972	0.327912
	H10868	H	0.789266	0.645123	0.273129
	H10869	H	0.848070	0.643956	0.270083
	H10870	H	0.847854	0.861181	0.270192
	H10871	H	0.789269	0.861031	0.273073
	H10872	H	0.867275	0.643808	0.282853
	H10873	H	0.867097	0.861191	0.282985
	H10874	H	0.863030	0.645414	0.342609
	H10875	H	0.863022	0.860843	0.342597
	H10876	H	0.812612	0.440865	0.249071
	H10877	H	0.840244	0.440865	0.364527
	H10878	H	0.813471	0.441235	0.248400
	H10879	H	0.814468	0.441450	0.248594
	H10880	H	0.834909	0.440563	0.366399
	H10881	H	0.836105	0.440907	0.364585
	H10882	H	0.840260	0.564628	0.364489
	H10883	H	0.812713	0.564569	0.249054
	H10884	H	0.836087	0.564211	0.364596
	H10885	H	0.834845	0.564575	0.366399
	H10886	H	0.814589	0.564554	0.248628
	H10887	H	0.813645	0.564636	0.248460
	H10888	H	0.862994	0.144100	0.342552
	H10889	H	0.862975	0.360959	0.342588
	H10890	H	0.814603	0.064932	0.250413
	H10891	H	0.815710	0.064308	0.249614
	H10892	H	0.812358	0.064803	0.250061
	H10893	H	0.804650	0.860964	0.345350
	H10894	H	0.804504	0.644192	0.345376
	H10895	H	0.804439	0.361238	0.345425
	H10896	H	0.804490	0.144064	0.345399
	H10897	H	0.789225	0.144907	0.273113
	H10898	H	0.847815	0.145067	0.270247
	H10899	H	0.847853	0.361229	0.270167
	H10900	H	0.789307	0.360961	0.273148
	H10901	H	0.867097	0.145185	0.282983
	H10902	H	0.867133	0.361444	0.282904
	H10903	H	0.835626	0.064684	0.366151
	H10904	H	0.836294	0.064546	0.367666
	H10905	H	0.839425	0.064645	0.368282
	H10906	H	0.815690	0.941471	0.249621
	H10907	H	0.814624	0.941118	0.250417
	H10908	H	0.812456	0.941094	0.250067
	H10909	H	0.835685	0.941097	0.366137
	H10910	H	0.836391	0.941536	0.367676
	H10911	H	0.839415	0.941215	0.368206
	Zn10912	Zn	0.751215	0.680053	0.311661
	Zn10913	Zn	0.751308	0.825531	0.311680
	Zn10914	Zn	0.751144	0.180015	0.311577
	Zn10915	Zn	0.751255	0.325659	0.311601
	Zn10916	Zn	0.838489	0.680075	0.366483
	Zn10917	Zn	0.838457	0.825692	0.366475
	Zn10918	Zn	0.838470	0.180202	0.366487
	Zn10919	Zn	0.838410	0.325625	0.366453
	C10920	C	0.879931	0.752336	0.291352
	C10921	C	0.772556	0.752975	0.324198
	C10922	C	0.784156	0.752868	0.331852
	C10923	C	0.789552	0.691494	0.335466
	C10924	C	0.789606	0.814130	0.335451
	C10925	C	0.772449	0.252863	0.324209
	C10926	C	0.784114	0.252744	0.331843
	C10927	C	0.789563	0.191369	0.335446
	C10928	C	0.789556	0.313991	0.335460
	C10929	C	0.766739	0.753278	0.297197
	C10930	C	0.774926	0.753123	0.288498
	C10931	C	0.778714	0.814240	0.284381
	C10932	C	0.778712	0.692024	0.284416
	C10933	C	0.766870	0.252741	0.297258
	C10934	C	0.775094	0.252739	0.288570
	C10935	C	0.778886	0.313835	0.284483
	C10936	C	0.778828	0.191715	0.284445
	C10937	C	0.901948	0.043445	0.305795
	C10938	C	0.901957	0.962537	0.305796
	C10939	C	0.753074	0.043530	0.309511
	C10940	C	0.753125	0.962510	0.309544
	C10941	C	0.747414	0.043307	0.311419
	C10942	C	0.747458	0.962413	0.311426
	C10943	C	0.749681	0.462537	0.312879
	C10944	C	0.901644	0.462574	0.302712
	C10945	C	0.902573	0.462393	0.305171
	C10946	C	0.749665	0.543389	0.312888
	C10947	C	0.902541	0.543217	0.305184
	C10948	C	0.901620	0.543381	0.302732
	C10949	C	0.884970	0.753097	0.318257
	C10950	C	0.885050	0.252650	0.318293
	C10951	C	0.876902	0.753278	0.327003
	C10952	C	0.873252	0.692267	0.331160
	C10953	C	0.873224	0.814146	0.331148
	C10954	C	0.877015	0.252667	0.327063
	C10955	C	0.873317	0.191231	0.331180
	C10956	C	0.873306	0.313990	0.331197
	C10957	C	0.879919	0.253353	0.291330
	C10958	C	0.835161	0.752788	0.261796
	C10959	C	0.798268	0.752904	0.263585
	C10960	C	0.817383	0.752583	0.353753
	C10961	C	0.862936	0.691068	0.280064
	C10962	C	0.862832	0.814008	0.280126
	C10963	C	0.846810	0.752671	0.269415
	C10964	C	0.790024	0.753009	0.272257
	C10965	C	0.786210	0.691934	0.276343
	C10966	C	0.852298	0.691162	0.272970
	C10967	C	0.852176	0.814088	0.273033
	C10968	C	0.786220	0.814230	0.276316
	C10969	C	0.868301	0.752473	0.283718
	C10970	C	0.854211	0.753044	0.352221
	C10971	C	0.865965	0.692140	0.339323
	C10972	C	0.865955	0.814162	0.339311
	C10973	C	0.862271	0.753150	0.343458
	C10974	C	0.840404	0.462435	0.365639
	C10975	C	0.813978	0.462541	0.248698
	C10976	C	0.836271	0.462200	0.365766
	C10977	C	0.840421	0.543399	0.365629
	C10978	C	0.836277	0.543178	0.365766
	C10979	C	0.814026	0.543372	0.248710
	C10980	C	0.854126	0.252429	0.352191
	C10981	C	0.865978	0.191153	0.339321
	C10982	C	0.865967	0.313863	0.339340
	C10983	C	0.862249	0.252477	0.343462
	C10984	C	0.814808	0.043449	0.249786
	C10985	C	0.834996	0.253007	0.261811
	C10986	C	0.798164	0.252999	0.263543
	C10987	C	0.817250	0.252633	0.353818
	C10988	C	0.862818	0.192106	0.280122
	C10989	C	0.862823	0.314543	0.280082
	C10990	C	0.846681	0.253159	0.269422
	C10991	C	0.790015	0.252925	0.272247
	C10992	C	0.805688	0.752588	0.346162
	C10993	C	0.800285	0.813952	0.342533
	C10994	C	0.800223	0.691338	0.342553
	C10995	C	0.805635	0.252662	0.346169
	C10996	C	0.800225	0.314096	0.342543
	C10997	C	0.800243	0.191203	0.342537
	C10998	C	0.786262	0.191811	0.276352
	C10999	C	0.852118	0.192084	0.273048
	C11000	C	0.852129	0.314314	0.273008
	C11001	C	0.786301	0.313983	0.276376
	C11002	C	0.868240	0.253375	0.283707
	C11003	C	0.836617	0.043323	0.366816
	C11004	C	0.812554	0.043232	0.249424
	C11005	C	0.814825	0.962640	0.249785
	C11006	C	0.836650	0.962606	0.366816
	C11007	C	0.812608	0.962667	0.249441
	N11008	N	0.751140	0.070099	0.311584
	N11009	N	0.751189	0.935584	0.311612
	N11010	N	0.751235	0.435726	0.311617
	N11011	N	0.751218	0.570223	0.311638
	N11012	N	0.838489	0.435600	0.366508
	N11013	N	0.838498	0.570137	0.366486
	N11014	N	0.838434	0.070153	0.366503
	N11015	N	0.838433	0.935698	0.366491
	O11016	O	0.902191	0.694550	0.415813
	O11017	O	0.902050	0.810674	0.415858
	O11018	O	0.791889	0.694590	0.439342
	O11019	O	0.791896	0.810645	0.439315
	O11020	O	0.792059	0.195046	0.439221
	O11021	O	0.791806	0.311133	0.439356
	O11022	O	0.788525	0.695404	0.418076
	O11023	O	0.788599	0.811436	0.418070
	O11024	O	0.788609	0.194930	0.418111
	O11025	O	0.788549	0.310850	0.418070
	O11026	O	0.900901	0.694265	0.435716
	O11027	O	0.900964	0.811037	0.435748
	O11028	O	0.900998	0.194835	0.435780
	O11029	O	0.901116	0.311444	0.435840
	O11030	O	0.902151	0.195135	0.415846
	O11031	O	0.902138	0.311471	0.415842
	O11032	O	0.854348	0.694698	0.376774
	O11033	O	0.825612	0.695287	0.377380
	O11034	O	0.867991	0.694625	0.478346
	O11035	O	0.867938	0.810903	0.478351
	O11036	O	0.839817	0.694666	0.478326
	O11037	O	0.839741	0.810826	0.478346
	O11038	O	0.825731	0.811348	0.377428
	O11039	O	0.854354	0.810915	0.376774
	O11040	O	0.854319	0.195022	0.376783
	O11041	O	0.825670	0.194859	0.377401
	O11042	O	0.868028	0.194654	0.478384
	O11043	O	0.867952	0.311177	0.478378
	O11044	O	0.839709	0.194714	0.478416
	O11045	O	0.839750	0.311103	0.478366
	O11046	O	0.825637	0.310839	0.377388
	O11047	O	0.854322	0.311147	0.376749
	H11048	H	0.807412	0.644502	0.451748
	H11049	H	0.807364	0.860728	0.451792
	H11050	H	0.807287	0.144738	0.451794
	H11051	H	0.807457	0.361572	0.451719
	H11052	H	0.800601	0.861911	0.405059
	H11053	H	0.800298	0.644948	0.405045
	H11054	H	0.800349	0.360718	0.405042
	H11055	H	0.800656	0.144604	0.405109
	H11056	H	0.920124	0.064295	0.422085
	H11057	H	0.913865	0.064569	0.422149
	H11058	H	0.913888	0.940820	0.422099
	H11059	H	0.920129	0.941399	0.422050
	H11060	H	0.924892	0.064334	0.427067
	H11061	H	0.924864	0.941135	0.427073
	H11062	H	0.778883	0.064485	0.431146
	H11063	H	0.778895	0.941112	0.431166
	H11064	H	0.780092	0.064655	0.429034
	H11065	H	0.780160	0.941003	0.429043
	H11066	H	0.777113	0.065069	0.426412
	H11067	H	0.777138	0.941282	0.426453
	H11068	H	0.773799	0.441480	0.428504
	H11069	H	0.774160	0.441381	0.429807
	H11070	H	0.775859	0.441046	0.427399
	H11071	H	0.923311	0.440843	0.420558
	H11072	H	0.928360	0.440794	0.428568
	H11073	H	0.922771	0.441244	0.433310
	H11074	H	0.774179	0.564291	0.429805
	H11075	H	0.773767	0.564556	0.428521
	H11076	H	0.922837	0.564344	0.433242
	H11077	H	0.928360	0.564508	0.428525
	H11078	H	0.923233	0.564665	0.420567
	H11079	H	0.775815	0.564907	0.427403
	H11080	H	0.888865	0.643139	0.448847
	H11081	H	0.888719	0.862164	0.448812
	H11082	H	0.888827	0.143442	0.448831
	H11083	H	0.889146	0.362590	0.448943
	H11084	H	0.813561	0.644598	0.390369
	H11085	H	0.869702	0.644517	0.389283
	H11086	H	0.869774	0.861188	0.389279
	H11087	H	0.813817	0.861734	0.390389
	H11088	H	0.886736	0.644434	0.403367
	H11089	H	0.886746	0.860829	0.403378
	H11090	H	0.877705	0.643152	0.464350
	H11091	H	0.877638	0.862397	0.464325
	H11092	H	0.841976	0.441404	0.366232
	H11093	H	0.853146	0.440911	0.488109
	H11094	H	0.840297	0.441690	0.368618
	H11095	H	0.837263	0.441029	0.368728
	H11096	H	0.854739	0.441103	0.490776
	H11097	H	0.853079	0.440659	0.489931
	H11098	H	0.853162	0.564593	0.488072
	H11099	H	0.842030	0.564660	0.366168
	H11100	H	0.853044	0.564113	0.489909
	H11101	H	0.854759	0.563898	0.490772
	H11102	H	0.837320	0.564596	0.368714
	H11103	H	0.840308	0.564505	0.368637
	H11104	H	0.877610	0.143431	0.464320
	H11105	H	0.877914	0.362499	0.464431
	H11106	H	0.840149	0.064296	0.365147
	H11107	H	0.837916	0.064882	0.364688
	H11108	H	0.841077	0.064523	0.367232
	H11109	H	0.824378	0.860702	0.465884
	H11110	H	0.824462	0.644564	0.465830
	H11111	H	0.824444	0.361375	0.465816
	H11112	H	0.824330	0.144336	0.465867
	H11113	H	0.813812	0.144911	0.390392
	H11114	H	0.869676	0.144637	0.389265
	H11115	H	0.869699	0.361622	0.389250
	H11116	H	0.813524	0.360733	0.390333
	H11117	H	0.886692	0.144526	0.403376
	H11118	H	0.886711	0.361835	0.403342
	H11119	H	0.854909	0.063937	0.492991
	H11120	H	0.859303	0.064499	0.491881
	H11121	H	0.860174	0.065116	0.487501
	H11122	H	0.837843	0.940997	0.364725
	H11123	H	0.840145	0.941273	0.365122
	H11124	H	0.841004	0.941602	0.367188
	H11125	H	0.854908	0.940802	0.492917
	H11126	H	0.859341	0.941107	0.491888
	H11127	H	0.860117	0.941092	0.487522
	Zn11128	Zn	0.776010	0.680066	0.429003
	Zn11129	Zn	0.776029	0.825780	0.429072
	Zn11130	Zn	0.776013	0.180042	0.429041
	Zn11131	Zn	0.776034	0.325908	0.429016
	Zn11132	Zn	0.855046	0.680341	0.489159
	Zn11133	Zn	0.855072	0.825412	0.489178
	Zn11134	Zn	0.855112	0.180238	0.489187
	Zn11135	Zn	0.855089	0.325446	0.489198
	C11136	C	0.898088	0.752593	0.412613
	C11137	C	0.795993	0.752631	0.442512
	C11138	C	0.806373	0.752613	0.450903
	C11139	C	0.811164	0.691519	0.454900
	C11140	C	0.811124	0.813789	0.454918
	C11141	C	0.796005	0.253082	0.442489
	C11142	C	0.806401	0.253157	0.450901
	C11143	C	0.811155	0.191734	0.454904
	C11144	C	0.811220	0.314462	0.454877
	C11145	C	0.791685	0.753388	0.414700
	C11146	C	0.799751	0.753374	0.405944
	C11147	C	0.803512	0.814797	0.401804
	C11148	C	0.803333	0.691903	0.401794
	C11149	C	0.791734	0.252797	0.414738
	C11150	C	0.799772	0.252609	0.405961
	C11151	C	0.803350	0.313864	0.401792
	C11152	C	0.803520	0.191506	0.401819
	C11153	C	0.917132	0.043236	0.423299
	C11154	C	0.917146	0.962396	0.423279
	C11155	C	0.778572	0.043376	0.429808
	C11156	C	0.778611	0.962546	0.429822
	C11157	C	0.775559	0.043374	0.427191
	C11158	C	0.775605	0.962659	0.427194
	C11159	C	0.774540	0.462680	0.429107
	C11160	C	0.918430	0.462241	0.421795
	C11161	C	0.923495	0.462328	0.429795
	C11162	C	0.774546	0.543246	0.429106
	C11163	C	0.923520	0.543176	0.429769
	C11164	C	0.918389	0.543137	0.421783
	C11165	C	0.897456	0.752647	0.438981
	C11166	C	0.897571	0.253129	0.439053
	C11167	C	0.889510	0.752610	0.447866
	C11168	C	0.886268	0.690746	0.452248
	C11169	C	0.886194	0.814541	0.452227
	C11170	C	0.889620	0.253028	0.447927
	C11171	C	0.886291	0.191032	0.452266
	C11172	C	0.886456	0.314917	0.452325
	C11173	C	0.898087	0.253273	0.412635
	C11174	C	0.858438	0.752813	0.379965
	C11175	C	0.822474	0.753274	0.380737
	C11176	C	0.835731	0.752709	0.475112
	C11177	C	0.882922	0.691381	0.400236
	C11178	C	0.882936	0.813900	0.400240
	C11179	C	0.868770	0.752802	0.388389
	C11180	C	0.814421	0.753177	0.389493
	C11181	C	0.810665	0.691792	0.393646
	C11182	C	0.873491	0.691542	0.392405
	C11183	C	0.873530	0.813980	0.392405
	C11184	C	0.810840	0.814661	0.393658
	C11185	C	0.887735	0.752590	0.404202
	C11186	C	0.870583	0.752829	0.474708
	C11187	C	0.880153	0.690751	0.460888
	C11188	C	0.880080	0.814656	0.460864
	C11189	C	0.877120	0.752749	0.465317
	C11190	C	0.854370	0.462429	0.488173
	C11191	C	0.838692	0.462606	0.368102
	C11192	C	0.854258	0.462304	0.490039
	C11193	C	0.854343	0.543209	0.488151
	C11194	C	0.854260	0.543084	0.490027
	C11195	C	0.838716	0.543231	0.368112
	C11196	C	0.870597	0.252955	0.474740
	C11197	C	0.880130	0.191042	0.460886
	C11198	C	0.880287	0.314896	0.460946
	C11199	C	0.877192	0.252961	0.465358
	C11200	C	0.838842	0.043268	0.365348
	C11201	C	0.858383	0.253123	0.379977
	C11202	C	0.822499	0.252834	0.380745
	C11203	C	0.835678	0.252864	0.475179
	C11204	C	0.882966	0.191753	0.400217
	C11205	C	0.882964	0.314611	0.400201
	C11206	C	0.868782	0.253082	0.388368
	C11207	C	0.814421	0.252803	0.389497
	C11208	C	0.825408	0.752675	0.466688
	C11209	C	0.820564	0.813771	0.462735
	C11210	C	0.820617	0.691513	0.462713
	C11211	C	0.825392	0.252802	0.466727
	C11212	C	0.820628	0.314284	0.462715
	C11213	C	0.820548	0.191505	0.462749
	C11214	C	0.810808	0.191656	0.393660
	C11215	C	0.873559	0.191695	0.392377
	C11216	C	0.873552	0.314535	0.392360
	C11217	C	0.810649	0.313876	0.393631
	C11218	C	0.887770	0.253201	0.404188
	C11219	C	0.856609	0.042920	0.491575
	C11220	C	0.839743	0.043465	0.367423
	C11221	C	0.838836	0.962463	0.365346
	C11222	C	0.856598	0.962322	0.491570
	C11223	C	0.839744	0.962506	0.367405
	N11224	N	0.776008	0.070116	0.429030
	N11225	N	0.776041	0.935630	0.429051
	N11226	N	0.776098	0.435773	0.428969
	N11227	N	0.776088	0.570223	0.428948
	N11228	N	0.855126	0.435602	0.489186
	N11229	N	0.855063	0.570169	0.489157
	N11230	N	0.855119	0.069962	0.489146
	N11231	N	0.855109	0.935335	0.489153
	O11232	O	0.851693	0.694766	0.549725
	O11233	O	0.851663	0.811522	0.549751
	O11234	O	0.803233	0.694973	0.564649
	O11235	O	0.803445	0.811932	0.564640
	O11236	O	0.803373	0.194417	0.564599
	O11237	O	0.803496	0.311296	0.564619
	O11238	O	0.805686	0.694906	0.540976
	O11239	O	0.805551	0.811425	0.540893
	O11240	O	0.805563	0.194729	0.540921
	O11241	O	0.805531	0.311036	0.540909
	O11242	O	0.849408	0.694215	0.573413
	O11243	O	0.849468	0.810696	0.573441
	O11244	O	0.849511	0.194834	0.573449
	O11245	O	0.849384	0.311250	0.573349
	O11246	O	0.851736	0.194636	0.549694
	O11247	O	0.851766	0.311618	0.549687
	O11248	O	0.865729	0.694458	0.502101
	O11249	O	0.838623	0.694256	0.498328
	O11250	O	0.816469	0.694275	0.616058
	O11251	O	0.816444	0.810887	0.616060
	O11252	O	0.789074	0.695320	0.612188
	O11253	O	0.789256	0.812027	0.612218
	O11254	O	0.838594	0.811002	0.498294
	O11255	O	0.865810	0.811279	0.502106
	O11256	O	0.865799	0.194557	0.502068
	O11257	O	0.838517	0.194442	0.498257
	O11258	O	0.816360	0.195001	0.615973
	O11259	O	0.816373	0.311700	0.616014
	O11260	O	0.789049	0.194473	0.612223
	O11261	O	0.789229	0.311315	0.612196
	O11262	O	0.838535	0.311123	0.498263
	O11263	O	0.865815	0.311506	0.502106
	H11264	H	0.799336	0.643645	0.579980
	H11265	H	0.799590	0.863720	0.580039
	H11266	H	0.799521	0.142881	0.579998
	H11267	H	0.799640	0.362866	0.580040
	H11268	H	0.815186	0.862588	0.526803
	H11269	H	0.815430	0.642960	0.526967
	H11270	H	0.815370	0.362313	0.526887
	H11271	H	0.815169	0.143416	0.526831
	H11272	H	0.860285	0.064867	0.560123
	H11273	H	0.858262	0.064733	0.561966
	H11274	H	0.858276	0.940917	0.561971
	H11275	H	0.860278	0.941041	0.560139
	H11276	H	0.865095	0.064690	0.560601
	H11277	H	0.865128	0.941233	0.560598
	H11278	H	0.791429	0.064585	0.548021
	H11279	H	0.791459	0.941245	0.547980
	H11280	H	0.787718	0.064698	0.549763
	H11281	H	0.787709	0.940952	0.549766
	H11282	H	0.788552	0.064812	0.553964
	H11283	H	0.788497	0.941418	0.554011
	H11284	H	0.788866	0.441664	0.551355
	H11285	H	0.789926	0.441132	0.553418
	H11286	H	0.791716	0.441224	0.549278
	H11287	H	0.860632	0.441462	0.559582
	H11288	H	0.866027	0.441691	0.560660
	H11289	H	0.867122	0.441316	0.563336
	H11290	H	0.790060	0.565160	0.553431
	H11291	H	0.788951	0.564918	0.551363
	H11292	H	0.867105	0.564969	0.563390
	H11293	H	0.866013	0.564574	0.560708
	H11294	H	0.860707	0.564556	0.559578
	H11295	H	0.791790	0.564110	0.549257
	H11296	H	0.839750	0.643045	0.587446
	H11297	H	0.839623	0.862120	0.587414
	H11298	H	0.839908	0.143604	0.587519
	H11299	H	0.839349	0.362928	0.587282
	H11300	H	0.826546	0.643042	0.511433
	H11301	H	0.861855	0.643126	0.517534
	H11302	H	0.862043	0.862827	0.517564
	H11303	H	0.826342	0.862274	0.511292
	H11304	H	0.855324	0.643093	0.534277
	H11305	H	0.855559	0.862915	0.534349
	H11306	H	0.828633	0.642883	0.602939
	H11307	H	0.828489	0.862143	0.602929
	H11308	H	0.855011	0.441536	0.487516
	H11309	H	0.795758	0.441303	0.626852
	H11310	H	0.857345	0.440851	0.488645
	H11311	H	0.857207	0.441039	0.489986
	H11312	H	0.804293	0.441235	0.626604
	H11313	H	0.801123	0.441446	0.628335
	H11314	H	0.795787	0.564328	0.626828
	H11315	H	0.854937	0.564283	0.487522
	H11316	H	0.801119	0.564509	0.628301
	H11317	H	0.804195	0.564631	0.626524
	H11318	H	0.857189	0.564730	0.489896
	H11319	H	0.857262	0.564412	0.488591
	H11320	H	0.828746	0.143956	0.603025
	H11321	H	0.828220	0.362981	0.602790
	H11322	H	0.850148	0.064719	0.486923
	H11323	H	0.849598	0.064686	0.490156
	H11324	H	0.856275	0.064392	0.485431
	H11325	H	0.793029	0.863713	0.596812
	H11326	H	0.792773	0.643796	0.596748
	H11327	H	0.792950	0.362716	0.596765
	H11328	H	0.792851	0.142784	0.596762
	H11329	H	0.826287	0.143386	0.511330
	H11330	H	0.861905	0.142718	0.517495
	H11331	H	0.862127	0.363088	0.517505
	H11332	H	0.826494	0.362397	0.511393
	H11333	H	0.855433	0.142889	0.534258
	H11334	H	0.855654	0.363302	0.534286
	H11335	H	0.789582	0.064741	0.622837
	H11336	H	0.791099	0.064463	0.628734
	H11337	H	0.802560	0.064599	0.632053
	H11338	H	0.849594	0.941086	0.490133
	H11339	H	0.850172	0.941465	0.486920
	H11340	H	0.856246	0.941296	0.485451
	H11341	H	0.789637	0.940798	0.622856
	H11342	H	0.791068	0.941074	0.628766
	H11343	H	0.802631	0.940999	0.632128
	Zn11344	Zn	0.792728	0.680119	0.551748
	Zn11345	Zn	0.792673	0.825435	0.551717
	Zn11346	Zn	0.792617	0.180014	0.551704
	Zn11347	Zn	0.792649	0.325464	0.551711
	Zn11348	Zn	0.799778	0.680285	0.625041
	Zn11349	Zn	0.799900	0.825241	0.625156
	Zn11350	Zn	0.799855	0.180278	0.625061
	Zn11351	Zn	0.799873	0.325197	0.625158
	C11352	C	0.852200	0.753164	0.545642
	C11353	C	0.802799	0.753513	0.568713
	C11354	C	0.800034	0.753648	0.579019
	C11355	C	0.797974	0.691523	0.583727
	C11356	C	0.798106	0.815867	0.583760
	C11357	C	0.802850	0.252867	0.568683
	C11358	C	0.800141	0.252823	0.579021
	C11359	C	0.798116	0.190689	0.583747
	C11360	C	0.798182	0.314985	0.583761
	C11361	C	0.808172	0.753112	0.537276
	C11362	C	0.814718	0.752877	0.527884
	C11363	C	0.817679	0.814821	0.523393
	C11364	C	0.817831	0.690726	0.523484
	C11365	C	0.808148	0.252871	0.537270
	C11366	C	0.814765	0.252843	0.527883
	C11367	C	0.817774	0.314744	0.523428
	C11368	C	0.817665	0.190960	0.523393
	C11369	C	0.860033	0.043480	0.561480
	C11370	C	0.860047	0.962311	0.561501
	C11371	C	0.790421	0.043380	0.549631
	C11372	C	0.790429	0.962399	0.549623
	C11373	C	0.791191	0.043287	0.553892
	C11374	C	0.791195	0.962589	0.553919
	C11375	C	0.790341	0.462500	0.552228
	C11376	C	0.860041	0.462326	0.561035
	C11377	C	0.865439	0.462641	0.562180
	C11378	C	0.790389	0.543618	0.552231
	C11379	C	0.865438	0.543420	0.562183
	C11380	C	0.860029	0.543265	0.561048
	C11381	C	0.846759	0.752475	0.577034
	C11382	C	0.846796	0.253145	0.577014
	C11383	C	0.840113	0.752478	0.586397
	C11384	C	0.837244	0.690615	0.590884
	C11385	C	0.837181	0.814416	0.590877
	C11386	C	0.840190	0.253256	0.586382
	C11387	C	0.837379	0.191357	0.590924
	C11388	C	0.837078	0.315303	0.590795
	C11389	C	0.852308	0.253161	0.545623
	C11390	C	0.865206	0.752866	0.506186
	C11391	C	0.835095	0.752648	0.501544
	C11392	C	0.789765	0.753684	0.608111
	C11393	C	0.856778	0.690864	0.530558
	C11394	C	0.856892	0.815088	0.530588
	C11395	C	0.862509	0.752946	0.516527
	C11396	C	0.827112	0.752718	0.510436
	C11397	C	0.823967	0.690606	0.514849
	C11398	C	0.860509	0.690887	0.521268
	C11399	C	0.860621	0.815070	0.521293
	C11400	C	0.823823	0.814707	0.514769
	C11401	C	0.854891	0.753009	0.535303
	C11402	C	0.819839	0.752561	0.612756
	C11403	C	0.831101	0.690547	0.599508
	C11404	C	0.831028	0.814482	0.599503
	C11405	C	0.827738	0.752459	0.603859
	C11406	C	0.796539	0.462450	0.625370
	C11407	C	0.856739	0.462192	0.489269
	C11408	C	0.801904	0.462465	0.626842
	C11409	C	0.796508	0.543315	0.625363
	C11410	C	0.801869	0.543383	0.626799
	C11411	C	0.856707	0.543272	0.489226
	C11412	C	0.819777	0.253400	0.612703
	C11413	C	0.831195	0.191412	0.599539
	C11414	C	0.830907	0.315354	0.599413
	C11415	C	0.827793	0.253421	0.603836
	C11416	C	0.851272	0.043303	0.488707
	C11417	C	0.865242	0.252967	0.506174
	C11418	C	0.835065	0.252779	0.501521
	C11419	C	0.789704	0.252828	0.608118
	C11420	C	0.856860	0.190793	0.530537
	C11421	C	0.856960	0.315403	0.530544
	C11422	C	0.862555	0.252936	0.516510
	C11423	C	0.827090	0.252852	0.510387
	C11424	C	0.792405	0.753730	0.597771
	C11425	C	0.794362	0.815907	0.593047
	C11426	C	0.794243	0.691569	0.593011
	C11427	C	0.792392	0.252733	0.597773
	C11428	C	0.794407	0.314916	0.593041
	C11429	C	0.794349	0.190573	0.593034
	C11430	C	0.823786	0.190940	0.514758
	C11431	C	0.860555	0.190667	0.521234
	C11432	C	0.860678	0.315320	0.521250
	C11433	C	0.823909	0.314723	0.514794
	C11434	C	0.854970	0.253129	0.535278
	C11435	C	0.792824	0.043253	0.625608
	C11436	C	0.857414	0.043397	0.487188
	C11437	C	0.851290	0.962169	0.488707
	C11438	C	0.792824	0.962433	0.625630
	C11439	C	0.857408	0.962503	0.487200
	N11440	N	0.792666	0.070126	0.551664
	N11441	N	0.792685	0.935544	0.551704
	N11442	N	0.792709	0.435706	0.551758
	N11443	N	0.792755	0.570236	0.551740
	N11444	N	0.799713	0.435409	0.625091
	N11445	N	0.799679	0.570016	0.625048
	N11446	N	0.799780	0.070283	0.625103
	N11447	N	0.799809	0.935655	0.625144
	O11448	O	0.860995	0.694657	0.676045
	O11449	O	0.861155	0.810833	0.675946
	O11450	O	0.752382	0.694833	0.698484
	O11451	O	0.752446	0.811163	0.698454
	O11452	O	0.752427	0.195245	0.698464
	O11453	O	0.752263	0.311468	0.698539
	O11454	O	0.753633	0.693888	0.678376
	O11455	O	0.753768	0.810566	0.678444
	O11456	O	0.753795	0.194613	0.678515
	O11457	O	0.753707	0.311341	0.678507
	O11458	O	0.863499	0.695410	0.697249
	O11459	O	0.863432	0.811528	0.697206
	O11460	O	0.863597	0.194289	0.697363
	O11461	O	0.863362	0.310568	0.697196
	O11462	O	0.861229	0.193943	0.675951
	O11463	O	0.860942	0.310078	0.676100
	O11464	O	0.814928	0.694077	0.635994
	O11465	O	0.786894	0.694744	0.635852
	O11466	O	0.827153	0.695201	0.738256
	O11467	O	0.827225	0.811465	0.738329
	O11468	O	0.798586	0.694958	0.738434
	O11469	O	0.798452	0.811378	0.738460
	O11470	O	0.786878	0.811216	0.635904
	O11471	O	0.815119	0.810210	0.635958
	O11472	O	0.815081	0.194309	0.635957
	O11473	O	0.786887	0.194427	0.635897
	O11474	O	0.826950	0.194536	0.738227
	O11475	O	0.827183	0.310779	0.738368
	O11476	O	0.798492	0.195386	0.738503
	O11477	O	0.798524	0.311440	0.738503
	O11478	O	0.786804	0.310906	0.635861
	O11479	O	0.814879	0.310557	0.636098
	H11480	H	0.767236	0.644680	0.711262
	H11481	H	0.767382	0.861479	0.711200
	H11482	H	0.767263	0.145152	0.711291
	H11483	H	0.767270	0.361673	0.711233
	H11484	H	0.766022	0.862189	0.665417
	H11485	H	0.765585	0.642755	0.665243
	H11486	H	0.765971	0.362643	0.665418
	H11487	H	0.765851	0.143591	0.665410
	H11488	H	0.876276	0.064312	0.685387
	H11489	H	0.875155	0.064171	0.685872
	H11490	H	0.875181	0.941325	0.685869
	H11491	H	0.876338	0.940597	0.685393
	H11492	H	0.878083	0.064560	0.686029
	H11493	H	0.878116	0.941082	0.685984
	H11494	H	0.746467	0.064592	0.685969
	H11495	H	0.746487	0.941286	0.685959
	H11496	H	0.740947	0.064961	0.681739
	H11497	H	0.740950	0.941210	0.681703
	H11498	H	0.730011	0.064563	0.682945
	H11499	H	0.730035	0.941222	0.682930
	H11500	H	0.741096	0.441114	0.688406
	H11501	H	0.740444	0.441364	0.686209
	H11502	H	0.737574	0.441161	0.690315
	H11503	H	0.877576	0.440609	0.686703
	H11504	H	0.876693	0.441663	0.687188
	H11505	H	0.875996	0.440963	0.686952
	H11506	H	0.740390	0.565031	0.686134
	H11507	H	0.741101	0.565248	0.688388
	H11508	H	0.875910	0.564585	0.687036
	H11509	H	0.876748	0.564584	0.687217
	H11510	H	0.877542	0.564431	0.686720
	H11511	H	0.737662	0.565202	0.690279
	H11512	H	0.851692	0.645876	0.710306
	H11513	H	0.851752	0.861503	0.710341
	H11514	H	0.851762	0.144057	0.710411
	H11515	H	0.851798	0.361546	0.710371
	H11516	H	0.776915	0.642907	0.649783
	H11517	H	0.829744	0.644024	0.648861
	H11518	H	0.829955	0.860183	0.648710
	H11519	H	0.777297	0.862455	0.649995
	H11520	H	0.846131	0.644396	0.663279
	H11521	H	0.846355	0.860376	0.663135
	H11522	H	0.838797	0.645804	0.725114
	H11523	H	0.838894	0.861549	0.725211
	H11524	H	0.794995	0.440916	0.624097
	H11525	H	0.818707	0.441337	0.750196
	H11526	H	0.799310	0.440847	0.621845
	H11527	H	0.803163	0.441131	0.622925
	H11528	H	0.812983	0.441266	0.745953
	H11529	H	0.816864	0.441157	0.746605
	H11530	H	0.818681	0.564663	0.750113
	H11531	H	0.795020	0.565031	0.624107
	H11532	H	0.816910	0.564599	0.746560
	H11533	H	0.812997	0.564435	0.745876
	H11534	H	0.803125	0.564604	0.622856
	H11535	H	0.799223	0.564518	0.621766
	H11536	H	0.838838	0.144103	0.725219
	H11537	H	0.838915	0.361514	0.725213
	H11538	H	0.807418	0.064153	0.620413
	H11539	H	0.798981	0.064643	0.618020
	H11540	H	0.809396	0.064237	0.628506
	H11541	H	0.783781	0.861597	0.725616
	H11542	H	0.783643	0.644539	0.725704
	H11543	H	0.783685	0.361949	0.725649
	H11544	H	0.783655	0.145365	0.725708
	H11545	H	0.777099	0.143320	0.649931
	H11546	H	0.830157	0.144141	0.648680
	H11547	H	0.829650	0.360261	0.648899
	H11548	H	0.777145	0.362523	0.649925
	H11549	H	0.846478	0.144045	0.663123
	H11550	H	0.846002	0.360266	0.663337
	H11551	H	0.813310	0.064449	0.749521
	H11552	H	0.814167	0.063923	0.749725
	H11553	H	0.815018	0.064299	0.749189
	H11554	H	0.799075	0.941127	0.618004
	H11555	H	0.807355	0.941285	0.620455
	H11556	H	0.809417	0.941126	0.628491
	H11557	H	0.813322	0.940950	0.749503
	H11558	H	0.814077	0.940827	0.749688
	H11559	H	0.814936	0.941153	0.749183
	Zn11560	Zn	0.737216	0.680410	0.687555
	Zn11561	Zn	0.737288	0.825633	0.687561
	Zn11562	Zn	0.737235	0.180462	0.687575
	Zn11563	Zn	0.737174	0.325493	0.687604
	Zn11564	Zn	0.814101	0.680224	0.748988
	Zn11565	Zn	0.813938	0.825343	0.749039
	Zn11566	Zn	0.814042	0.180255	0.749044
	Zn11567	Zn	0.814025	0.325341	0.749100
	C11568	C	0.857182	0.752698	0.672689
	C11569	C	0.756343	0.752974	0.701761
	C11570	C	0.766286	0.753043	0.710410
	C11571	C	0.770873	0.691680	0.714508
	C11572	C	0.770949	0.814487	0.714460
	C11573	C	0.756312	0.253366	0.701773
	C11574	C	0.766301	0.253386	0.710381
	C11575	C	0.770933	0.192163	0.714480
	C11576	C	0.770913	0.314797	0.714456
	C11577	C	0.757134	0.752238	0.675134
	C11578	C	0.765204	0.752408	0.666309
	C11579	C	0.768554	0.814467	0.661984
	C11580	C	0.768331	0.690459	0.661886
	C11581	C	0.757210	0.252993	0.675250
	C11582	C	0.765155	0.252953	0.666349
	C11583	C	0.768483	0.314857	0.661989
	C11584	C	0.768433	0.191084	0.661982
	C11585	C	0.875948	0.043275	0.685871
	C11586	C	0.875980	0.962384	0.685848
	C11587	C	0.741993	0.043546	0.684821
	C11588	C	0.741981	0.962546	0.684803
	C11589	C	0.731005	0.043653	0.686042
	C11590	C	0.731009	0.962889	0.686046
	C11591	C	0.739778	0.462533	0.687363
	C11592	C	0.877284	0.462040	0.686479
	C11593	C	0.876411	0.462618	0.686945
	C11594	C	0.739776	0.543515	0.687341
	C11595	C	0.876389	0.543245	0.686954
	C11596	C	0.877251	0.543211	0.686466
	C11597	C	0.860334	0.753506	0.700596
	C11598	C	0.860376	0.252583	0.700653
	C11599	C	0.852476	0.753657	0.709444
	C11600	C	0.848873	0.692685	0.713631
	C11601	C	0.848904	0.814776	0.713656
	C11602	C	0.852468	0.252797	0.709487
	C11603	C	0.848865	0.191282	0.713684
	C11604	C	0.848907	0.314392	0.713673
	C11605	C	0.857166	0.252073	0.672732
	C11606	C	0.818960	0.752043	0.639257
	C11607	C	0.784279	0.752875	0.639514
	C11608	C	0.794614	0.753141	0.735162
	C11609	C	0.842528	0.691196	0.660027
	C11610	C	0.842631	0.813453	0.659955
	C11611	C	0.828943	0.752051	0.647862
	C11612	C	0.777613	0.752671	0.648860
	C11613	C	0.774519	0.690655	0.653268
	C11614	C	0.833443	0.691027	0.652016
	C11615	C	0.833559	0.813233	0.651936
	C11616	C	0.774720	0.814578	0.653368
	C11617	C	0.847174	0.752376	0.664085
	C11618	C	0.830296	0.753438	0.734920
	C11619	C	0.841778	0.692711	0.721875
	C11620	C	0.841819	0.814806	0.721907
	C11621	C	0.838255	0.753712	0.726100
	C11622	C	0.816467	0.462264	0.750582
	C11623	C	0.800842	0.462305	0.623057
	C11624	C	0.814714	0.462578	0.746991
	C11625	C	0.816506	0.543050	0.750550
	C11626	C	0.814738	0.543240	0.746972
	C11627	C	0.800811	0.543105	0.623033
	C11628	C	0.830191	0.252759	0.734921
	C11629	C	0.841743	0.191193	0.721924
	C11630	C	0.841799	0.314421	0.721916
	C11631	C	0.838145	0.252802	0.726101
	C11632	C	0.802293	0.043153	0.620751
	C11633	C	0.818954	0.252378	0.639285
	C11634	C	0.784175	0.252690	0.639497
	C11635	C	0.794592	0.253466	0.735210
	C11636	C	0.842681	0.190982	0.659990
	C11637	C	0.842409	0.313276	0.660098
	C11638	C	0.828916	0.252200	0.647915
	C11639	C	0.777549	0.252801	0.648875
	C11640	C	0.784557	0.753072	0.726594
	C11641	C	0.780011	0.814502	0.722478
	C11642	C	0.779942	0.691666	0.722519
	C11643	C	0.784603	0.253615	0.726578
	C11644	C	0.779995	0.314862	0.722476
	C11645	C	0.779978	0.192329	0.722513
	C11646	C	0.774578	0.190966	0.653352
	C11647	C	0.833645	0.190974	0.651957
	C11648	C	0.833373	0.313341	0.652065
	C11649	C	0.774639	0.314845	0.653356
	C11650	C	0.847144	0.252154	0.664134
	C11651	C	0.813828	0.043144	0.749438
	C11652	C	0.804359	0.043281	0.628909
	C11653	C	0.802288	0.962639	0.620773
	C11654	C	0.813800	0.962239	0.749439
	C11655	C	0.804357	0.962207	0.628928
	N11656	N	0.737230	0.070559	0.687568
	N11657	N	0.737239	0.936019	0.687547
	N11658	N	0.737130	0.435566	0.687630
	N11659	N	0.737164	0.570135	0.687613
	N11660	N	0.814087	0.435460	0.749075
	N11661	N	0.814140	0.570021	0.749036
	N11662	N	0.814037	0.070108	0.749038
	N11663	N	0.813976	0.935567	0.749041
	O11664	O	0.875319	0.694441	0.799728
	O11665	O	0.875393	0.810599	0.799677
	O11666	O	0.766901	0.695027	0.822017
	O11667	O	0.766892	0.810941	0.822029
	O11668	O	0.766948	0.195495	0.822031
	O11669	O	0.766864	0.311629	0.822075
	O11670	O	0.764607	0.694708	0.800777
	O11671	O	0.764531	0.810675	0.800748
	O11672	O	0.764580	0.194598	0.800791
	O11673	O	0.764585	0.310677	0.800809
	O11674	O	0.873912	0.694308	0.819729
	O11675	O	0.873882	0.811064	0.819687
	O11676	O	0.873990	0.193840	0.819735
	O11677	O	0.873916	0.310515	0.819711
	O11678	O	0.875452	0.194248	0.799711
	O11679	O	0.875426	0.310291	0.799677
	O11680	O	0.829398	0.694892	0.759645
	O11681	O	0.800990	0.694671	0.759728
	O11682	O	0.840951	0.694451	0.862348
	O11683	O	0.840891	0.810959	0.862341
	O11684	O	0.812788	0.694925	0.862108
	O11685	O	0.812758	0.811274	0.862147
	O11686	O	0.800763	0.810740	0.759703
	O11687	O	0.829572	0.810887	0.759496
	O11688	O	0.829427	0.194411	0.759630
	O11689	O	0.800743	0.194988	0.759697
	O11690	O	0.840863	0.193895	0.862351
	O11691	O	0.840953	0.310331	0.862377
	O11692	O	0.812682	0.195147	0.862160
	O11693	O	0.812838	0.311549	0.862177
	O11694	O	0.800952	0.311094	0.759827
	O11695	O	0.829469	0.310435	0.759630
	H11696	H	0.781668	0.645001	0.834826
	H11697	H	0.781664	0.861427	0.834845
	H11698	H	0.781722	0.145324	0.834872
	H11699	H	0.781683	0.362131	0.834881
	H11700	H	0.776271	0.860719	0.787663
	H11701	H	0.776271	0.644273	0.787654
	H11702	H	0.776206	0.360765	0.787691
	H11703	H	0.776319	0.144362	0.787714
	H11704	H	0.884689	0.064079	0.811373
	H11705	H	0.887883	0.064502	0.814137
	H11706	H	0.887895	0.940780	0.814176
	H11707	H	0.884637	0.940946	0.811328
	H11708	H	0.887100	0.064437	0.807154
	H11709	H	0.887065	0.940926	0.807141
	H11710	H	0.752849	0.064213	0.812460
	H11711	H	0.752914	0.941548	0.812488
	H11712	H	0.753400	0.064779	0.811424
	H11713	H	0.753453	0.941226	0.811409
	H11714	H	0.751854	0.064664	0.810243
	H11715	H	0.751970	0.940662	0.810194
	H11716	H	0.751667	0.441067	0.809151
	H11717	H	0.748945	0.441322	0.809758
	H11718	H	0.754786	0.440907	0.810979
	H11719	H	0.888084	0.441229	0.813890
	H11720	H	0.884839	0.441168	0.810005
	H11721	H	0.887239	0.440892	0.807324
	H11722	H	0.749011	0.564372	0.809787
	H11723	H	0.751705	0.564541	0.809214
	H11724	H	0.887357	0.564705	0.807341
	H11725	H	0.884899	0.563991	0.809978
	H11726	H	0.888074	0.564210	0.813831
	H11727	H	0.754753	0.564760	0.810998
	H11728	H	0.861897	0.643183	0.832806
	H11729	H	0.861768	0.862525	0.832794
	H11730	H	0.861669	0.142301	0.832792
	H11731	H	0.861883	0.361866	0.832884
	H11732	H	0.789108	0.644342	0.772785
	H11733	H	0.844152	0.645159	0.772471
	H11734	H	0.844372	0.860405	0.772374
	H11735	H	0.789117	0.860665	0.772784
	H11736	H	0.860334	0.645121	0.787000
	H11737	H	0.860567	0.860096	0.786903
	H11738	H	0.850855	0.643196	0.848388
	H11739	H	0.850722	0.862397	0.848338
	H11740	H	0.816007	0.441050	0.752052
	H11741	H	0.827094	0.441217	0.875405
	H11742	H	0.810609	0.440741	0.751126
	H11743	H	0.809375	0.441060	0.748537
	H11744	H	0.831432	0.441031	0.872562
	H11745	H	0.831055	0.441055	0.874525
	H11746	H	0.827139	0.564501	0.875396
	H11747	H	0.816048	0.564165	0.752038
	H11748	H	0.830978	0.564452	0.874549
	H11749	H	0.831410	0.564338	0.872566
	H11750	H	0.809322	0.564888	0.748507
	H11751	H	0.810665	0.564435	0.751146
	H11752	H	0.850588	0.142420	0.848315
	H11753	H	0.850840	0.361610	0.848416
	H11754	H	0.813629	0.064555	0.748384
	H11755	H	0.813080	0.064469	0.748750
	H11756	H	0.814857	0.064550	0.748664
	H11757	H	0.797976	0.861275	0.849318
	H11758	H	0.797966	0.644977	0.849302
	H11759	H	0.798024	0.362065	0.849361
	H11760	H	0.798019	0.145395	0.849343
	H11761	H	0.789155	0.144731	0.772852
	H11762	H	0.844297	0.144401	0.772445
	H11763	H	0.844294	0.360178	0.772439
	H11764	H	0.789048	0.360819	0.772834
	H11765	H	0.860629	0.144403	0.786904
	H11766	H	0.860625	0.359852	0.786887
	H11767	H	0.823153	0.064465	0.874433
	H11768	H	0.826563	0.064528	0.876499
	H11769	H	0.832287	0.064768	0.875215
	H11770	H	0.813085	0.940970	0.748732
	H11771	H	0.813665	0.941185	0.748423
	H11772	H	0.814730	0.941117	0.748637
	H11773	H	0.823221	0.941310	0.874477
	H11774	H	0.826632	0.940744	0.876468
	H11775	H	0.832260	0.940874	0.875213
	Zn11776	Zn	0.751435	0.680228	0.811478
	Zn11777	Zn	0.751459	0.825553	0.811489
	Zn11778	Zn	0.751414	0.180388	0.811515
	Zn11779	Zn	0.751419	0.325534	0.811476
	Zn11780	Zn	0.827889	0.680418	0.873106
	Zn11781	Zn	0.827908	0.825240	0.873144
	Zn11782	Zn	0.827749	0.180359	0.873077
	Zn11783	Zn	0.827987	0.325106	0.873125
	C11784	C	0.871449	0.752459	0.796404
	C11785	C	0.770786	0.752999	0.825333
	C11786	C	0.780700	0.753159	0.833986
	C11787	C	0.785267	0.691946	0.838079
	C11788	C	0.785271	0.814426	0.838081
	C11789	C	0.770858	0.253624	0.825332
	C11790	C	0.780796	0.253734	0.833979
	C11791	C	0.785357	0.192416	0.838079
	C11792	C	0.785339	0.315115	0.838091
	C11793	C	0.767671	0.752697	0.797383
	C11794	C	0.775564	0.752630	0.788538
	C11795	C	0.779144	0.813911	0.784347
	C11796	C	0.779141	0.691264	0.784346
	C11797	C	0.767710	0.252614	0.797440
	C11798	C	0.775539	0.252562	0.788580
	C11799	C	0.779082	0.313914	0.784380
	C11800	C	0.779097	0.191346	0.784370
	C11801	C	0.887412	0.043084	0.812200
	C11802	C	0.887405	0.962255	0.812198
	C11803	C	0.752693	0.043205	0.811840
	C11804	C	0.752721	0.962509	0.811823
	C11805	C	0.751149	0.043350	0.810625
	C11806	C	0.751167	0.962386	0.810595
	C11807	C	0.750617	0.462546	0.810001
	C11808	C	0.890459	0.462208	0.813107
	C11809	C	0.887257	0.462331	0.809181
	C11810	C	0.750631	0.543338	0.810011
	C11811	C	0.887314	0.543262	0.809169
	C11812	C	0.890483	0.543247	0.813093
	C11813	C	0.870449	0.752696	0.822970
	C11814	C	0.870469	0.252138	0.822971
	C11815	C	0.862537	0.752729	0.831880
	C11816	C	0.859329	0.690756	0.836252
	C11817	C	0.859258	0.814725	0.836233
	C11818	C	0.862489	0.252155	0.831852
	C11819	C	0.859148	0.190169	0.836203
	C11820	C	0.859273	0.314081	0.836255
	C11821	C	0.871502	0.252186	0.796408
	C11822	C	0.833397	0.752948	0.762874
	C11823	C	0.797757	0.752578	0.763081
	C11824	C	0.808814	0.753121	0.858854
	C11825	C	0.856788	0.691783	0.783740
	C11826	C	0.856921	0.813505	0.783680
	C11827	C	0.843321	0.752851	0.771529
	C11828	C	0.789822	0.752514	0.771907
	C11829	C	0.786240	0.691299	0.776097
	C11830	C	0.847772	0.691924	0.775691
	C11831	C	0.847917	0.813653	0.775629
	C11832	C	0.786246	0.813731	0.776099
	C11833	C	0.861473	0.752581	0.787785
	C11834	C	0.843597	0.752733	0.858737
	C11835	C	0.853212	0.690811	0.844892
	C11836	C	0.853147	0.814654	0.844872
	C11837	C	0.850208	0.752713	0.849348
	C11838	C	0.826485	0.462375	0.874293
	C11839	C	0.811061	0.462155	0.749627
	C11840	C	0.830421	0.462254	0.873439
	C11841	C	0.826471	0.543286	0.874292
	C11842	C	0.830380	0.542999	0.873438
	C11843	C	0.811074	0.543310	0.749604
	C11844	C	0.843556	0.252093	0.858737
	C11845	C	0.853027	0.190057	0.844843
	C11846	C	0.853162	0.314024	0.844902
	C11847	C	0.850089	0.252020	0.849323
	C11848	C	0.813539	0.043051	0.748679
	C11849	C	0.833391	0.252387	0.762914
	C11850	C	0.797757	0.252955	0.763148
	C11851	C	0.808860	0.253500	0.858885
	C11852	C	0.856988	0.191211	0.783682
	C11853	C	0.856984	0.313143	0.783674
	C11854	C	0.843355	0.252304	0.771547
	C11855	C	0.789798	0.252825	0.771955
	C11856	C	0.798842	0.753155	0.850244
	C11857	C	0.794295	0.814331	0.846130
	C11858	C	0.794288	0.691989	0.846124
	C11859	C	0.798947	0.253699	0.850226
	C11860	C	0.794355	0.315049	0.846136
	C11861	C	0.794359	0.192422	0.846126
	C11862	C	0.786194	0.191599	0.776126
	C11863	C	0.847932	0.191224	0.775655
	C11864	C	0.847929	0.313233	0.775648
	C11865	C	0.786178	0.313943	0.776138
	C11866	C	0.861597	0.252135	0.787768
	C11867	C	0.825686	0.043228	0.874862
	C11868	C	0.814678	0.043281	0.748933
	C11869	C	0.813525	0.962212	0.748694
	C11870	C	0.825724	0.962421	0.874883
	C11871	C	0.814620	0.962305	0.748940
	N11872	N	0.751434	0.070242	0.811518
	N11873	N	0.751466	0.935667	0.811482
	N11874	N	0.751468	0.435513	0.811490
	N11875	N	0.751457	0.570075	0.811487
	N11876	N	0.828005	0.435385	0.873092
	N11877	N	0.827968	0.570053	0.873102
	N11878	N	0.827908	0.070202	0.873100
	N11879	N	0.827986	0.935529	0.873124
	O11880	O	0.824236	0.694261	0.933565
	O11881	O	0.824306	0.811203	0.933573
	O11882	O	0.776115	0.694687	0.948621
	O11883	O	0.776142	0.811480	0.948575
	O11884	O	0.776192	0.194997	0.948613
	O11885	O	0.776040	0.311754	0.948584
	O11886	O	0.778443	0.694536	0.924868
	O11887	O	0.778465	0.810931	0.924898
	O11888	O	0.778461	0.195378	0.924857
	O11889	O	0.778368	0.311651	0.924836
	O11890	O	0.822121	0.694862	0.957318
	O11891	O	0.822153	0.811305	0.957338
	O11892	O	0.822195	0.194849	0.957347
	O11893	O	0.822084	0.311118	0.957324
	O11894	O	0.824198	0.194012	0.933600
	O11895	O	0.824279	0.310841	0.933622
	O11896	O	0.838528	0.694113	0.886008
	O11897	O	0.811330	0.694319	0.882202
	O11898	O	0.789261	0.694006	0.999945
	O11899	O	0.789307	0.810684	1.000004
	O11900	O	0.762082	0.695227	0.996210
	O11901	O	0.762010	0.811991	0.996247
	O11902	O	0.811298	0.811212	0.882174
	O11903	O	0.838622	0.810852	0.886011
	O11904	O	0.838483	0.194018	0.885975
	O11905	O	0.811327	0.194876	0.882223
	O11906	O	0.789189	0.194823	0.999922
	O11907	O	0.789236	0.311382	0.999996
	O11908	O	0.762152	0.194188	0.996227
	O11909	O	0.762110	0.310984	0.996217
	O11910	O	0.811469	0.311639	0.882242
	O11911	O	0.838634	0.310904	0.886042
	H11912	H	0.772207	0.643802	0.964001
	H11913	H	0.772470	0.863701	0.964079
	H11914	H	0.772449	0.143074	0.964022
	H11915	H	0.772256	0.363162	0.964015
	H11916	H	0.788356	0.862486	0.910930
	H11917	H	0.787987	0.643118	0.910786
	H11918	H	0.788017	0.363263	0.910777
	H11919	H	0.788275	0.144066	0.910874
	H11920	H	0.834951	0.064586	0.954528
	H11921	H	0.844142	0.064256	0.952063
	H11922	H	0.844071	0.940870	0.952062
	H11923	H	0.834887	0.940996	0.954563
	H11924	H	0.823634	0.064358	0.948755
	H11925	H	0.823583	0.941068	0.948696
	H11926	H	0.761922	0.064534	0.937079
	H11927	H	0.761872	0.941203	0.937081
	H11928	H	0.765024	0.064384	0.938486
	H11929	H	0.764958	0.941167	0.938521
	H11930	H	0.769433	0.064351	0.937052
	H11931	H	0.769381	0.940909	0.937064
	H11932	H	0.767920	0.440873	0.938865
	H11933	H	0.770613	0.440817	0.936678
	H11934	H	0.761863	0.441275	0.938120
	H11935	H	0.827781	0.440871	0.943902
	H11936	H	0.835795	0.440835	0.941210
	H11937	H	0.841460	0.441238	0.943757
	H11938	H	0.770632	0.564381	0.936699
	H11939	H	0.767920	0.564235	0.938884
	H11940	H	0.841483	0.564562	0.943679
	H11941	H	0.835652	0.564835	0.941185
	H11942	H	0.827672	0.564310	0.943901
	H11943	H	0.761864	0.564414	0.938096
	H11944	H	0.812305	0.643476	0.971281
	H11945	H	0.812703	0.862205	0.971495
	H11946	H	0.812682	0.143648	0.971444
	H11947	H	0.812268	0.362608	0.971316
	H11948	H	0.799060	0.643049	0.895242
	H11949	H	0.834848	0.642626	0.901424
	H11950	H	0.834778	0.862521	0.901403
	H11951	H	0.799382	0.862601	0.895356
	H11952	H	0.828271	0.642732	0.918171
	H11953	H	0.828210	0.862569	0.918171
	H11954	H	0.801202	0.643273	0.986790
	H11955	H	0.801592	0.862049	0.986995
	H11956	H	0.824719	0.441221	0.874010
	H11957	H	0.776065	0.441137	1.007901
	H11958	H	0.825307	0.441009	0.871340
	H11959	H	0.828174	0.440815	0.870654
	H11960	H	0.769184	0.441331	1.007715
	H11961	H	0.771897	0.441391	1.006544
	H11962	H	0.775986	0.564845	1.007883
	H11963	H	0.824724	0.564726	0.874024
	H11964	H	0.771914	0.564543	1.006522
	H11965	H	0.769273	0.564773	1.007694
	H11966	H	0.828084	0.564584	0.870691
	H11967	H	0.825265	0.564245	0.871353
	H11968	H	0.801618	0.143612	0.986952
	H11969	H	0.801198	0.362732	0.986846
	H11970	H	0.828165	0.064281	0.869601
	H11971	H	0.824077	0.064692	0.870554
	H11972	H	0.832957	0.064383	0.872366
	H11973	H	0.765869	0.863689	0.980819
	H11974	H	0.765627	0.643767	0.980760
	H11975	H	0.765751	0.362706	0.980770
	H11976	H	0.765847	0.142919	0.980808
	H11977	H	0.799348	0.143837	0.895372
	H11978	H	0.834835	0.142340	0.901399
	H11979	H	0.834772	0.362307	0.901452
	H11980	H	0.799142	0.363033	0.895264
	H11981	H	0.828132	0.142347	0.918149
	H11982	H	0.828065	0.362279	0.918184
	H11983	H	0.781179	0.064365	1.007725
	H11984	H	0.776210	0.064277	1.003832
	H11985	H	0.766260	0.065021	1.004913
	H11986	H	0.824087	0.941136	0.870585
	H11987	H	0.828263	0.941000	0.869621
	H11988	H	0.832946	0.941327	0.872354
	H11989	H	0.781123	0.941208	1.007718
	H11990	H	0.776207	0.941154	1.003856
	H11991	H	0.766282	0.940984	1.004882
	Zn11992	Zn	0.765561	0.680454	0.935672
	Zn11993	Zn	0.765439	0.825233	0.935646
	Zn11994	Zn	0.765527	0.180309	0.935650
	Zn11995	Zn	0.765386	0.325182	0.935649
	Zn11996	Zn	0.772727	0.680476	1.009095
	Zn11997	Zn	0.772770	0.825343	1.009098
	Zn11998	Zn	0.772787	0.180336	1.009101
	Zn11999	Zn	0.772753	0.325228	1.009135
	C12000	C	0.824863	0.752716	0.929497
	C12001	C	0.775559	0.753215	0.952679
	C12002	C	0.772825	0.753672	0.963016
	C12003	C	0.770826	0.691572	0.967737
	C12004	C	0.770929	0.815836	0.967770
	C12005	C	0.775553	0.253379	0.952684
	C12006	C	0.772806	0.253097	0.962992
	C12007	C	0.770931	0.190830	0.967745
	C12008	C	0.770859	0.315230	0.967727
	C12009	C	0.781026	0.752781	0.921231
	C12010	C	0.787616	0.752777	0.911819
	C12011	C	0.790725	0.814841	0.907414
	C12012	C	0.790527	0.690724	0.907344
	C12013	C	0.781052	0.253593	0.921220
	C12014	C	0.787590	0.253737	0.911838
	C12015	C	0.790514	0.315597	0.907345
	C12016	C	0.790650	0.191733	0.907411
	C12017	C	0.838303	0.043193	0.951508
	C12018	C	0.838266	0.962142	0.951504
	C12019	C	0.764055	0.043089	0.937227
	C12020	C	0.764009	0.962322	0.937220
	C12021	C	0.768448	0.043131	0.935803
	C12022	C	0.768415	0.962124	0.935808
	C12023	C	0.768299	0.462221	0.937225
	C12024	C	0.829585	0.462269	0.946207
	C12025	C	0.837616	0.462355	0.943526
	C12026	C	0.768316	0.543172	0.937244
	C12027	C	0.837594	0.543254	0.943495
	C12028	C	0.829548	0.542920	0.946224
	C12029	C	0.819533	0.753070	0.960964
	C12030	C	0.819492	0.253011	0.960964
	C12031	C	0.813019	0.752952	0.970360
	C12032	C	0.809964	0.690975	0.974775
	C12033	C	0.810165	0.814685	0.974887
	C12034	C	0.812951	0.253096	0.970356
	C12035	C	0.810133	0.191252	0.974855
	C12036	C	0.809909	0.314981	0.974801
	C12037	C	0.824793	0.252412	0.929520
	C12038	C	0.837995	0.752457	0.890087
	C12039	C	0.807872	0.752808	0.885444
	C12040	C	0.762601	0.753703	0.992146
	C12041	C	0.829613	0.690510	0.914419
	C12042	C	0.829577	0.814796	0.914423
	C12043	C	0.835248	0.752520	0.900399
	C12044	C	0.799927	0.752869	0.894342
	C12045	C	0.796624	0.690744	0.898692
	C12046	C	0.833338	0.690423	0.905131
	C12047	C	0.833304	0.814721	0.905125
	C12048	C	0.796818	0.814876	0.898767
	C12049	C	0.827618	0.752640	0.919158
	C12050	C	0.792747	0.752419	0.996718
	C12051	C	0.803858	0.690777	0.983410
	C12052	C	0.804045	0.814522	0.983521
	C12053	C	0.800690	0.752657	0.987832
	C12054	C	0.775249	0.462425	1.009053
	C12055	C	0.827109	0.462310	0.871551
	C12056	C	0.771056	0.462611	1.007643
	C12057	C	0.775238	0.543437	1.009039
	C12058	C	0.771091	0.543275	1.007639
	C12059	C	0.827080	0.543209	0.871565
	C12060	C	0.792636	0.253158	0.996680
	C12061	C	0.803995	0.191264	0.983479
	C12062	C	0.803770	0.315051	0.983427
	C12063	C	0.800562	0.253117	0.987794
	C12064	C	0.826621	0.043228	0.870891
	C12065	C	0.838013	0.252356	0.890090
	C12066	C	0.807911	0.253381	0.885487
	C12067	C	0.762654	0.252583	0.992133
	C12068	C	0.829586	0.190150	0.914423
	C12069	C	0.829513	0.314506	0.914448
	C12070	C	0.835312	0.252337	0.900418
	C12071	C	0.799965	0.253563	0.894381
	C12072	C	0.765270	0.753799	0.981812
	C12073	C	0.767259	0.815967	0.977079
	C12074	C	0.767146	0.691585	0.977045
	C12075	C	0.765301	0.252790	0.981778
	C12076	C	0.767184	0.315001	0.977026
	C12077	C	0.767242	0.190658	0.977048
	C12078	C	0.796795	0.191613	0.898788
	C12079	C	0.833367	0.190134	0.905138
	C12080	C	0.833309	0.314554	0.905165
	C12081	C	0.796664	0.315529	0.898723
	C12082	C	0.827572	0.252310	0.919171
	C12083	C	0.777085	0.043050	1.006661
	C12084	C	0.831372	0.043239	0.873624
	C12085	C	0.826655	0.962424	0.870922
	C12086	C	0.777070	0.962559	1.006658
	C12087	C	0.831400	0.962307	0.873638
	N12088	N	0.765593	0.070026	0.935652
	N12089	N	0.765515	0.935382	0.935642
	N12090	N	0.765497	0.435501	0.935673
	N12091	N	0.765561	0.570147	0.935691
	N12092	N	0.772642	0.435402	1.009141
	N12093	N	0.772633	0.570059	1.009100
	N12094	N	0.772732	0.070303	1.009140
	N12095	N	0.772696	0.935744	1.009109
	O12096	O	0.984337	0.694737	0.051940
	O12097	O	0.984470	0.810674	0.051854
	O12098	O	0.868222	0.694930	0.079112
	O12099	O	0.868121	0.810828	0.079146
	O12100	O	0.868286	0.194760	0.079114
	O12101	O	0.868289	0.310658	0.079067
	O12102	O	0.864478	0.694250	0.058406
	O12103	O	0.864501	0.810515	0.058387
	O12104	O	0.864507	0.194644	0.058420
	O12105	O	0.864504	0.310726	0.058445
	O12106	O	0.988622	0.694819	0.072573
	O12107	O	0.988751	0.810783	0.072605
	O12108	O	0.988669	0.194475	0.072611
	O12109	O	0.988683	0.310734	0.072638
	O12110	O	0.984482	0.194661	0.051836
	O12111	O	0.984403	0.310747	0.051905
	O12112	O	0.930440	0.695102	0.016530
	O12113	O	0.901461	0.694419	0.017706
	O12114	O	0.951252	0.694949	0.113090
	O12115	O	0.951246	0.810800	0.113054
	O12116	O	0.922067	0.694740	0.114476
	O12117	O	0.922139	0.810736	0.114473
	O12118	O	0.901239	0.810337	0.017576
	O12119	O	0.930527	0.811103	0.016492
	O12120	O	0.930461	0.194931	0.016497
	O12121	O	0.901269	0.194803	0.017644
	O12122	O	0.951054	0.194647	0.113012
	O12123	O	0.951294	0.310554	0.113124
	O12124	O	0.922131	0.195442	0.114482
	O12125	O	0.922062	0.311222	0.114557
	O12126	O	0.901284	0.310635	0.017655
	O12127	O	0.930501	0.310943	0.016517
	H12128	H	0.885576	0.644426	0.090393
	H12129	H	0.885381	0.861486	0.090523
	H12130	H	0.885444	0.145173	0.090546
	H12131	H	0.885571	0.360897	0.090408
	H12132	H	0.876234	0.860644	0.045316
	H12133	H	0.876386	0.644051	0.045405
	H12134	H	0.876451	0.360398	0.045473
	H12135	H	0.876406	0.144605	0.045422
	H12136	H	1.000583	0.064628	0.059974
	H12137	H	0.998969	0.064684	0.060774
	H12138	H	0.998913	0.941085	0.060782
	H12139	H	1.000474	0.940895	0.059950
	H12140	H	1.003236	0.064115	0.060714
	H12141	H	1.003243	0.941189	0.060691
	H12142	H	0.848912	0.064815	0.069811
	H12143	H	0.848850	0.941276	0.069814
	H12144	H	0.850530	0.064583	0.071128
	H12145	H	0.850515	0.941186	0.071135
	H12146	H	0.853943	0.064551	0.070744
	H12147	H	0.853982	0.941077	0.070746
	H12148	H	0.849737	0.440905	0.067409
	H12149	H	0.848338	0.441137	0.068971
	H12150	H	0.853467	0.440869	0.067555
	H12151	H	0.999054	0.441148	0.063225
	H12152	H	0.998107	0.440873	0.060735
	H12153	H	0.999997	0.441009	0.059568
	H12154	H	0.848311	0.564568	0.068956
	H12155	H	0.849697	0.564170	0.067371
	H12156	H	1.000036	0.564477	0.059548
	H12157	H	0.998145	0.564274	0.060754
	H12158	H	0.999114	0.564341	0.063171
	H12159	H	0.853549	0.564275	0.067539
	H12160	H	0.976736	0.644430	0.085610
	H12161	H	0.976546	0.860960	0.085474
	H12162	H	0.976721	0.144358	0.085600
	H12163	H	0.976714	0.360607	0.085540
	H12164	H	0.889433	0.643888	0.030669
	H12165	H	0.947803	0.644981	0.027801
	H12166	H	0.947710	0.861237	0.027921
	H12167	H	0.889344	0.860673	0.030586
	H12168	H	0.967069	0.644382	0.040568
	H12169	H	0.966966	0.861207	0.040688
	H12170	H	0.963414	0.644689	0.100256
	H12171	H	0.963189	0.860747	0.100126
	H12172	H	0.911089	0.440972	0.007552
	H12173	H	0.939053	0.441420	0.122522
	H12174	H	0.911607	0.440999	0.005155
	H12175	H	0.914162	0.441163	0.004606
	H12176	H	0.936480	0.441331	0.124719
	H12177	H	0.936530	0.441221	0.123321
	H12178	H	0.939063	0.564457	0.122544
	H12179	H	0.911100	0.564291	0.007509
	H12180	H	0.936623	0.564649	0.123353
	H12181	H	0.936559	0.564457	0.124681
	H12182	H	0.914193	0.564285	0.004626
	H12183	H	0.911693	0.563818	0.005115
	H12184	H	0.963208	0.144560	0.100140
	H12185	H	0.963255	0.360765	0.100136
	H12186	H	0.915580	0.064441	0.006919
	H12187	H	0.915113	0.064428	0.006002
	H12188	H	0.914290	0.064355	0.007770
	H12189	H	0.904621	0.861591	0.103268
	H12190	H	0.904842	0.644575	0.103138
	H12191	H	0.904815	0.361342	0.103177
	H12192	H	0.904693	0.145337	0.103303
	H12193	H	0.889435	0.144491	0.030650
	H12194	H	0.947729	0.144657	0.027908
	H12195	H	0.947751	0.361089	0.027886
	H12196	H	0.889485	0.360432	0.030707
	H12197	H	0.967014	0.144533	0.040681
	H12198	H	0.967010	0.360977	0.040647
	H12199	H	0.940046	0.064411	0.124182
	H12200	H	0.939583	0.063956	0.123537
	H12201	H	0.938294	0.064423	0.123412
	H12202	H	0.915093	0.940875	0.006032
	H12203	H	0.915546	0.941041	0.006922
	H12204	H	0.914318	0.941200	0.007775
	H12205	H	0.940069	0.940946	0.124194
	H12206	H	0.939580	0.940824	0.123605
	H12207	H	0.938260	0.941038	0.123434
	Zn12208	Zn	0.851689	0.680045	0.069363
	Zn12209	Zn	0.851695	0.825407	0.069307
	Zn12210	Zn	0.851737	0.179981	0.069370
	Zn12211	Zn	0.851700	0.325432	0.069312
	Zn12212	Zn	0.938839	0.680190	0.124132
	Zn12213	Zn	0.938841	0.825527	0.124139
	Zn12214	Zn	0.938833	0.179910	0.124129
	Zn12215	Zn	0.938856	0.325559	0.124179
	C12216	C	0.979854	0.752723	0.048988
	C12217	C	0.872696	0.752916	0.082058
	C12218	C	0.884372	0.752933	0.089641
	C12219	C	0.889845	0.691629	0.093228
	C12220	C	0.889733	0.814325	0.093301
	C12221	C	0.872798	0.252799	0.082033
	C12222	C	0.884409	0.253079	0.089687
	C12223	C	0.889756	0.192082	0.093355
	C12224	C	0.889844	0.314164	0.093281
	C12225	C	0.867610	0.752323	0.055033
	C12226	C	0.875608	0.752299	0.046258
	C12227	C	0.879216	0.813603	0.042075
	C12228	C	0.879279	0.690945	0.042115
	C12229	C	0.867659	0.252713	0.055084
	C12230	C	0.875678	0.252586	0.046307
	C12231	C	0.879341	0.313655	0.042166
	C12232	C	0.879331	0.191424	0.042139
	C12233	C	1.000131	0.043308	0.060696
	C12234	C	1.000094	0.962358	0.060675
	C12235	C	0.850266	0.043347	0.070168
	C12236	C	0.850260	0.962444	0.070164
	C12237	C	0.853634	0.043194	0.069800
	C12238	C	0.853652	0.962252	0.069779
	C12239	C	0.849723	0.462188	0.068486
	C12240	C	1.000602	0.462328	0.062995
	C12241	C	0.999596	0.462211	0.060551
	C12242	C	0.849704	0.543009	0.068480
	C12243	C	0.999622	0.543097	0.060536
	C12244	C	1.000630	0.543165	0.062983
	C12245	C	0.985541	0.752790	0.075941
	C12246	C	0.985522	0.252535	0.075958
	C12247	C	0.977402	0.752749	0.084669
	C12248	C	0.973711	0.691467	0.088822
	C12249	C	0.973607	0.814006	0.088750
	C12250	C	0.977435	0.252357	0.084696
	C12251	C	0.973676	0.191169	0.088815
	C12252	C	0.973704	0.313731	0.088800
	C12253	C	0.979899	0.252732	0.048965
	C12254	C	0.934984	0.753111	0.019448
	C12255	C	0.898214	0.752372	0.021007
	C12256	C	0.917563	0.752814	0.111547
	C12257	C	0.962769	0.691617	0.037736
	C12258	C	0.962717	0.814129	0.037811
	C12259	C	0.946639	0.753081	0.027084
	C12260	C	0.890184	0.752368	0.029775
	C12261	C	0.886528	0.690929	0.033938
	C12262	C	0.952088	0.691809	0.030656
	C12263	C	0.952031	0.814247	0.030731
	C12264	C	0.886476	0.813666	0.033903
	C12265	C	0.968191	0.752763	0.041379
	C12266	C	0.954413	0.752842	0.109741
	C12267	C	0.966345	0.691527	0.096952
	C12268	C	0.966225	0.813973	0.096874
	C12269	C	0.962548	0.752811	0.101010
	C12270	C	0.939654	0.462528	0.123254
	C12271	C	0.913164	0.462185	0.005351
	C12272	C	0.937116	0.462280	0.124069
	C12273	C	0.939646	0.543374	0.123260
	C12274	C	0.937141	0.543199	0.124052
	C12275	C	0.913168	0.542882	0.005355
	C12276	C	0.954363	0.252634	0.109734
	C12277	C	0.966268	0.191398	0.096920
	C12278	C	0.966279	0.313819	0.096900
	C12279	C	0.962547	0.252678	0.101032
	C12280	C	0.914982	0.043214	0.006526
	C12281	C	0.934980	0.252897	0.019452
	C12282	C	0.898159	0.252684	0.021014
	C12283	C	0.917585	0.253377	0.111603
	C12284	C	0.962736	0.191548	0.037798
	C12285	C	0.962745	0.314017	0.037783
	C12286	C	0.946623	0.252806	0.027092
	C12287	C	0.890184	0.252509	0.029802
	C12288	C	0.905936	0.753012	0.103920
	C12289	C	0.900416	0.814381	0.100373
	C12290	C	0.900534	0.691668	0.100298
	C12291	C	0.905924	0.253370	0.104007
	C12292	C	0.900523	0.314343	0.100364
	C12293	C	0.900451	0.192255	0.100424
	C12294	C	0.886555	0.191289	0.033954
	C12295	C	0.952047	0.191590	0.030721
	C12296	C	0.952058	0.314043	0.030706
	C12297	C	0.886561	0.313662	0.033978
	C12298	C	0.968204	0.252750	0.041372
	C12299	C	0.939582	0.042921	0.123953
	C12300	C	0.913721	0.043224	0.007434
	C12301	C	0.914937	0.962335	0.006526
	C12302	C	0.939602	0.962301	0.123964
	C12303	C	0.913690	0.962516	0.007420
	N12304	N	0.851724	0.069933	0.069343
	N12305	N	0.851716	0.935427	0.069307
	N12306	N	0.851665	0.435469	0.069286
	N12307	N	0.851680	0.569954	0.069309
	N12308	N	0.938748	0.435691	0.124175
	N12309	N	0.938750	0.570213	0.124152
	N12310	N	0.938871	0.070060	0.124125
	N12311	N	0.938876	0.935543	0.124152
	O12312	O	1.009451	0.694557	0.169234
	O12313	O	1.009469	0.810740	0.169198
	O12314	O	0.892951	0.694656	0.196295
	O12315	O	0.892907	0.810894	0.196344
	O12316	O	0.893021	0.195259	0.196269
	O12317	O	0.892963	0.311288	0.196316
	O12318	O	0.888698	0.694702	0.175608
	O12319	O	0.888651	0.810384	0.175588
	O12320	O	0.888684	0.194488	0.175561
	O12321	O	0.888732	0.310394	0.175606
	O12322	O	1.013091	0.695120	0.189907
	O12323	O	1.013200	0.811104	0.189920
	O12324	O	1.013356	0.195095	0.190064
	O12325	O	1.013144	0.311115	0.189881
	O12326	O	1.009443	0.194365	0.169265
	O12327	O	1.009430	0.310302	0.169203
	O12328	O	0.955518	0.694913	0.133813
	O12329	O	0.926461	0.694699	0.135237
	O12330	O	0.976059	0.694856	0.230574
	O12331	O	0.976035	0.810935	0.230608
	O12332	O	0.946879	0.694681	0.231713
	O12333	O	0.946912	0.810798	0.231699
	O12334	O	0.926475	0.810616	0.135226
	O12335	O	0.955470	0.811096	0.133892
	O12336	O	0.955441	0.194351	0.133881
	O12337	O	0.926401	0.194681	0.135162
	O12338	O	0.976072	0.195402	0.230583
	O12339	O	0.976126	0.311559	0.230586
	O12340	O	0.946871	0.195287	0.231667
	O12341	O	0.946860	0.311503	0.231731
	O12342	O	0.926348	0.310620	0.135172
	O12343	O	0.955598	0.310343	0.133747
	H12344	H	0.910263	0.644220	0.207595
	H12345	H	0.910287	0.861251	0.207617
	H12346	H	0.910271	0.144765	0.207623
	H12347	H	0.910263	0.361759	0.207622
	H12348	H	0.900833	0.860668	0.162662
	H12349	H	0.900894	0.644538	0.162749
	H12350	H	0.901034	0.360472	0.162778
	H12351	H	0.900774	0.144452	0.162642
	H12352	H	1.027321	0.064431	0.179742
	H12353	H	1.027650	0.064170	0.178845
	H12354	H	1.027661	0.941265	0.178786
	H12355	H	1.027432	0.941015	0.179719
	H12356	H	1.025541	0.064324	0.180101
	H12357	H	1.025599	0.941020	0.180061
	H12358	H	0.874021	0.064590	0.185761
	H12359	H	0.873959	0.941320	0.185746
	H12360	H	0.873914	0.064597	0.187173
	H12361	H	0.873923	0.940686	0.187149
	H12362	H	0.876411	0.064649	0.188280
	H12363	H	0.876387	0.940935	0.188279
	H12364	H	0.875857	0.441159	0.189023
	H12365	H	0.878724	0.441109	0.188425
	H12366	H	0.872645	0.441035	0.187078
	H12367	H	1.024726	0.440730	0.178228
	H12368	H	1.026534	0.441103	0.177957
	H12369	H	1.027513	0.441318	0.178651
	H12370	H	0.878750	0.564327	0.188409
	H12371	H	0.875850	0.564436	0.189009
	H12372	H	1.027477	0.564110	0.178682
	H12373	H	1.026514	0.564264	0.178025
	H12374	H	1.024677	0.564621	0.178237
	H12375	H	0.872665	0.564566	0.187035
	H12376	H	1.001108	0.644888	0.202843
	H12377	H	1.001158	0.861445	0.202863
	H12378	H	1.001361	0.145229	0.202990
	H12379	H	1.001179	0.361615	0.202874
	H12380	H	0.914427	0.644484	0.148189
	H12381	H	0.972818	0.644089	0.145206
	H12382	H	0.972824	0.861523	0.145180
	H12383	H	0.914315	0.860794	0.148095
	H12384	H	0.992064	0.644311	0.157937
	H12385	H	0.992135	0.861113	0.157915
	H12386	H	0.987962	0.644846	0.217568
	H12387	H	0.988004	0.861125	0.217593
	H12388	H	0.940840	0.440978	0.123344
	H12389	H	0.964134	0.441667	0.239525
	H12390	H	0.940738	0.441310	0.125229
	H12391	H	0.938895	0.441428	0.125825
	H12392	H	0.960426	0.441052	0.241948
	H12393	H	0.960859	0.440997	0.240248
	H12394	H	0.964213	0.564882	0.239505
	H12395	H	0.940821	0.564636	0.123330
	H12396	H	0.960881	0.564617	0.240200
	H12397	H	0.960402	0.564400	0.241904
	H12398	H	0.938882	0.564542	0.125800
	H12399	H	0.940712	0.565215	0.125212
	H12400	H	0.988083	0.145288	0.217665
	H12401	H	0.987914	0.361602	0.217543
	H12402	H	0.938245	0.064447	0.124770
	H12403	H	0.939251	0.065015	0.124901
	H12404	H	0.937730	0.064248	0.123986
	H12405	H	0.929565	0.861200	0.220364
	H12406	H	0.929563	0.644306	0.220362
	H12407	H	0.929553	0.362032	0.220345
	H12408	H	0.929587	0.144876	0.220372
	H12409	H	0.914206	0.144414	0.148046
	H12410	H	0.972778	0.143801	0.145191
	H12411	H	0.972900	0.360742	0.145081
	H12412	H	0.914483	0.360416	0.148184
	H12413	H	0.992035	0.143752	0.157958
	H12414	H	0.992138	0.360991	0.157834
	H12415	H	0.958357	0.064529	0.242035
	H12416	H	0.961158	0.064247	0.244458
	H12417	H	0.967070	0.064301	0.244006
	H12418	H	0.939336	0.940665	0.124949
	H12419	H	0.938279	0.941536	0.124809
	H12420	H	0.937657	0.941108	0.123996
	H12421	H	0.958375	0.941174	0.242097
	H12422	H	0.961140	0.941238	0.244484
	H12423	H	0.967056	0.941358	0.244061
	Zn12424	Zn	0.876188	0.680066	0.186631
	Zn12425	Zn	0.876227	0.825528	0.186623
	Zn12426	Zn	0.876260	0.180168	0.186646
	Zn12427	Zn	0.876212	0.325601	0.186656
	Zn12428	Zn	0.963405	0.679908	0.241511
	Zn12429	Zn	0.963421	0.825402	0.241516
	Zn12430	Zn	0.963439	0.179961	0.241451
	Zn12431	Zn	0.963409	0.325510	0.241534
	C12432	C	1.004971	0.752665	0.166264
	C12433	C	0.897459	0.752727	0.199231
	C12434	C	0.909140	0.752685	0.206844
	C12435	C	0.914573	0.691339	0.210444
	C12436	C	0.914568	0.814120	0.210454
	C12437	C	0.897499	0.253259	0.199225
	C12438	C	0.909135	0.253202	0.206873
	C12439	C	0.914579	0.191826	0.210477
	C12440	C	0.914558	0.314685	0.210466
	C12441	C	0.891886	0.752503	0.172261
	C12442	C	0.900132	0.752447	0.163588
	C12443	C	0.903875	0.813758	0.159454
	C12444	C	0.903923	0.691324	0.159497
	C12445	C	0.891936	0.252481	0.172266
	C12446	C	0.900156	0.252482	0.163592
	C12447	C	0.903979	0.313575	0.159516
	C12448	C	0.903839	0.191324	0.159431
	C12449	C	1.027109	0.043167	0.179211
	C12450	C	1.027123	0.962357	0.179179
	C12451	C	0.874565	0.043301	0.186495
	C12452	C	0.874569	0.962323	0.186489
	C12453	C	0.877062	0.043144	0.187640
	C12454	C	0.877052	0.962330	0.187627
	C12455	C	0.877004	0.462399	0.188135
	C12456	C	1.024898	0.462252	0.178751
	C12457	C	1.026751	0.462399	0.178511
	C12458	C	0.877007	0.543212	0.188136
	C12459	C	1.026725	0.542933	0.178530
	C12460	C	1.024889	0.543305	0.178764
	C12461	C	1.009962	0.753188	0.193249
	C12462	C	1.010076	0.253233	0.193301
	C12463	C	1.001891	0.753205	0.202009
	C12464	C	0.998191	0.691854	0.206136
	C12465	C	0.998221	0.814385	0.206156
	C12466	C	1.001969	0.253377	0.202029
	C12467	C	0.998328	0.192104	0.206216
	C12468	C	0.998227	0.314644	0.206139
	C12469	C	1.004897	0.252270	0.166313
	C12470	C	0.960045	0.752966	0.136758
	C12471	C	0.923306	0.752655	0.138577
	C12472	C	0.942377	0.752713	0.228772
	C12473	C	0.987846	0.691384	0.155051
	C12474	C	0.987853	0.814155	0.155040
	C12475	C	0.971742	0.752894	0.144347
	C12476	C	0.915162	0.752593	0.147297
	C12477	C	0.911401	0.691394	0.151420
	C12478	C	0.977154	0.691381	0.147987
	C12479	C	0.977155	0.814249	0.147971
	C12480	C	0.911343	0.813793	0.151369
	C12481	C	0.993348	0.752797	0.158613
	C12482	C	0.979168	0.752902	0.227224
	C12483	C	0.990917	0.691751	0.214305
	C12484	C	0.990938	0.814222	0.214320
	C12485	C	0.987216	0.752971	0.218456
	C12486	C	0.964727	0.462629	0.240451
	C12487	C	0.939545	0.462680	0.125185
	C12488	C	0.961371	0.462447	0.241186
	C12489	C	0.964761	0.543359	0.240471
	C12490	C	0.961375	0.543324	0.241169
	C12491	C	0.939528	0.543565	0.125144
	C12492	C	0.979240	0.253414	0.227223
	C12493	C	0.990987	0.192042	0.214354
	C12494	C	0.990893	0.314681	0.214276
	C12495	C	0.987248	0.253405	0.218434
	C12496	C	0.938785	0.043396	0.124664
	C12497	C	0.960043	0.252345	0.136751
	C12498	C	0.923203	0.252561	0.138506
	C12499	C	0.942329	0.253481	0.228795
	C12500	C	0.987777	0.190901	0.155104
	C12501	C	0.987823	0.313676	0.155036
	C12502	C	0.971672	0.252261	0.144385
	C12503	C	0.915100	0.252440	0.147258
	C12504	C	0.930717	0.752724	0.221136
	C12505	C	0.925265	0.814104	0.217533
	C12506	C	0.925263	0.691384	0.217522
	C12507	C	0.930664	0.253538	0.221174
	C12508	C	0.925251	0.314863	0.217532
	C12509	C	0.925277	0.192047	0.217552
	C12510	C	0.911284	0.191249	0.151335
	C12511	C	0.977096	0.190945	0.148022
	C12512	C	0.977146	0.313679	0.147952
	C12513	C	0.911426	0.313553	0.151417
	C12514	C	0.993223	0.252320	0.158692
	C12515	C	0.960722	0.043179	0.242767
	C12516	C	0.938229	0.043194	0.123815
	C12517	C	0.938812	0.962432	0.124692
	C12518	C	0.960711	0.962261	0.242792
	C12519	C	0.938236	0.962315	0.123833
	N12520	N	0.876274	0.070158	0.186594
	N12521	N	0.876274	0.935565	0.186583
	N12522	N	0.876143	0.435525	0.186606
	N12523	N	0.876147	0.570027	0.186589
	N12524	N	0.963396	0.435523	0.241500
	N12525	N	0.963431	0.570008	0.241500
	N12526	N	0.963452	0.069972	0.241408
	N12527	N	0.963430	0.935396	0.241459
	O12528	O	1.027080	0.694470	0.290916
	O12529	O	1.027180	0.810767	0.290778
	O12530	O	0.916848	0.695490	0.314276
	O12531	O	0.916914	0.811301	0.314275
	O12532	O	0.916884	0.194933	0.314305
	O12533	O	0.916997	0.310798	0.314266
	O12534	O	0.913540	0.695056	0.293083
	O12535	O	0.913565	0.810898	0.293083
	O12536	O	0.913519	0.194512	0.293037
	O12537	O	0.913592	0.310729	0.293108
	O12538	O	1.025951	0.694739	0.310727
	O12539	O	1.025951	0.811381	0.310748
	O12540	O	1.025975	0.194379	0.310779
	O12541	O	1.025900	0.311230	0.310736
	O12542	O	1.027242	0.194452	0.290798
	O12543	O	1.027076	0.310815	0.290823
	O12544	O	0.979402	0.694187	0.251752
	O12545	O	0.950598	0.694821	0.252409
	O12546	O	0.992792	0.694525	0.353286
	O12547	O	0.992990	0.811082	0.353337
	O12548	O	0.964532	0.694897	0.353370
	O12549	O	0.964740	0.810821	0.353325
	O12550	O	0.950690	0.810799	0.252461
	O12551	O	0.979438	0.810249	0.251716
	O12552	O	0.979331	0.193893	0.251810
	O12553	O	0.950613	0.194260	0.252409
	O12554	O	0.993027	0.194775	0.353419
	O12555	O	0.992928	0.311136	0.353356
	O12556	O	0.964726	0.195055	0.353396
	O12557	O	0.964741	0.311204	0.353388
	O12558	O	0.950493	0.310332	0.252392
	O12559	O	0.979370	0.310307	0.251766
	H12560	H	0.932278	0.645112	0.326739
	H12561	H	0.932351	0.861278	0.326743
	H12562	H	0.932455	0.144980	0.326723
	H12563	H	0.932385	0.360935	0.326755
	H12564	H	0.925476	0.860764	0.280087
	H12565	H	0.925569	0.644979	0.280139
	H12566	H	0.925614	0.360428	0.280157
	H12567	H	0.925352	0.144145	0.280064
	H12568	H	1.046552	0.064825	0.296978
	H12569	H	1.039568	0.064427	0.296336
	H12570	H	1.039599	0.941170	0.296323
	H12571	H	1.046575	0.941014	0.296952
	H12572	H	1.050669	0.064332	0.302973
	H12573	H	1.050574	0.940644	0.302922
	H12574	H	0.904812	0.064710	0.303008
	H12575	H	0.904865	0.941475	0.302974
	H12576	H	0.902080	0.064793	0.301335
	H12577	H	0.902226	0.941278	0.301318
	H12578	H	0.897535	0.064752	0.302240
	H12579	H	0.897552	0.941431	0.302215
	H12580	H	0.897883	0.440845	0.303571
	H12581	H	0.898581	0.441346	0.305362
	H12582	H	0.900521	0.440873	0.301948
	H12583	H	1.045817	0.441205	0.298000
	H12584	H	1.048899	0.441007	0.302711
	H12585	H	1.045771	0.441821	0.305582
	H12586	H	0.898459	0.564582	0.305370
	H12587	H	0.897846	0.564651	0.303586
	H12588	H	1.045769	0.564824	0.305584
	H12589	H	1.048974	0.564451	0.302757
	H12590	H	1.045760	0.564840	0.298075
	H12591	H	0.900506	0.564639	0.301927
	H12592	H	1.013580	0.643098	0.323751
	H12593	H	1.014052	0.862738	0.323916
	H12594	H	1.013951	0.143046	0.323894
	H12595	H	1.013694	0.362547	0.323786
	H12596	H	0.938724	0.644605	0.265414
	H12597	H	0.994627	0.643850	0.264310
	H12598	H	0.995041	0.860538	0.264143
	H12599	H	0.938622	0.860601	0.265372
	H12600	H	1.011591	0.643854	0.278437
	H12601	H	1.011966	0.860301	0.278281
	H12602	H	1.002407	0.643105	0.339235
	H12603	H	1.002915	0.862468	0.339417
	H12604	H	0.966190	0.441364	0.240650
	H12605	H	0.985318	0.441459	0.363752
	H12606	H	0.965671	0.440846	0.243023
	H12607	H	0.963191	0.441252	0.243540
	H12608	H	0.976810	0.440713	0.361390
	H12609	H	0.981015	0.441006	0.360733
	H12610	H	0.985166	0.564585	0.363750
	H12611	H	0.966284	0.564726	0.240750
	H12612	H	0.980955	0.564637	0.360743
	H12613	H	0.976717	0.564257	0.361393
	H12614	H	0.963158	0.564457	0.243547
	H12615	H	0.965608	0.564841	0.243045
	H12616	H	1.002839	0.143048	0.339412
	H12617	H	1.002511	0.362416	0.339280
	H12618	H	0.964884	0.064725	0.238116
	H12619	H	0.960589	0.064388	0.238382
	H12620	H	0.968587	0.064564	0.241393
	H12621	H	0.949350	0.861086	0.340845
	H12622	H	0.949278	0.645294	0.340829
	H12623	H	0.949313	0.361043	0.340891
	H12624	H	0.949410	0.144835	0.340860
	H12625	H	0.938541	0.143841	0.265337
	H12626	H	0.994901	0.143631	0.264243
	H12627	H	0.994783	0.360416	0.264215
	H12628	H	0.938805	0.360450	0.265464
	H12629	H	1.011965	0.143872	0.278306
	H12630	H	1.011810	0.360676	0.278312
	H12631	H	0.980194	0.064939	0.364360
	H12632	H	0.980389	0.064785	0.364222
	H12633	H	0.980149	0.064521	0.363929
	H12634	H	0.960540	0.940808	0.238468
	H12635	H	0.964872	0.941119	0.238161
	H12636	H	0.968597	0.941057	0.241416
	H12637	H	0.980158	0.941657	0.364311
	H12638	H	0.980328	0.941287	0.364192
	H12639	H	0.980150	0.941310	0.363941
	Zn12640	Zn	0.901002	0.680114	0.304067
	Zn12641	Zn	0.900984	0.825583	0.304007
	Zn12642	Zn	0.900953	0.180228	0.304024
	Zn12643	Zn	0.901053	0.325519	0.304027
	Zn12644	Zn	0.979930	0.680457	0.364124
	Zn12645	Zn	0.980052	0.825496	0.364161
	Zn12646	Zn	0.980072	0.180547	0.364151
	Zn12647	Zn	0.980131	0.325234	0.364207
	C12648	C	1.023066	0.752453	0.287636
	C12649	C	0.920940	0.753337	0.317474
	C12650	C	0.931324	0.753157	0.325864
	C12651	C	0.936104	0.692020	0.329857
	C12652	C	0.936151	0.814382	0.329849
	C12653	C	0.921000	0.252851	0.317499
	C12654	C	0.931354	0.252949	0.325910
	C12655	C	0.936199	0.191819	0.329884
	C12656	C	0.936152	0.314112	0.329906
	C12657	C	0.916702	0.752964	0.289731
	C12658	C	0.924775	0.752849	0.280978
	C12659	C	0.928435	0.813965	0.276828
	C12660	C	0.928493	0.691613	0.276858
	C12661	C	0.916688	0.252629	0.289718
	C12662	C	0.924726	0.252322	0.280945
	C12663	C	0.928475	0.313460	0.276850
	C12664	C	0.928350	0.191020	0.276784
	C12665	C	1.042958	0.043343	0.297964
	C12666	C	1.042953	0.962288	0.297960
	C12667	C	0.902839	0.043518	0.302642
	C12668	C	0.902855	0.962632	0.302639
	C12669	C	0.898232	0.043193	0.303541
	C12670	C	0.898230	0.962383	0.303528
	C12671	C	0.898979	0.462442	0.304364
	C12672	C	1.042952	0.462351	0.298779
	C12673	C	1.046133	0.462734	0.303505
	C12674	C	0.898930	0.543352	0.304359
	C12675	C	1.046151	0.543211	0.303516
	C12676	C	1.042968	0.543280	0.298803
	C12677	C	1.022534	0.753023	0.314012
	C12678	C	1.022452	0.252819	0.313992
	C12679	C	1.014653	0.752955	0.322919
	C12680	C	1.011185	0.690890	0.327219
	C12681	C	1.011452	0.814976	0.327316
	C12682	C	1.014492	0.252890	0.322881
	C12683	C	1.011336	0.190742	0.327292
	C12684	C	1.011183	0.314895	0.327231
	C12685	C	1.023086	0.252536	0.287612
	C12686	C	0.983460	0.752208	0.254953
	C12687	C	0.947497	0.752760	0.255782
	C12688	C	0.960567	0.752978	0.350139
	C12689	C	1.007880	0.690801	0.275243
	C12690	C	1.008112	0.813437	0.275146
	C12691	C	0.993831	0.752244	0.263341
	C12692	C	0.939430	0.752540	0.264535
	C12693	C	0.935774	0.691465	0.268692
	C12694	C	0.998505	0.690918	0.267385
	C12695	C	0.998735	0.813435	0.267295
	C12696	C	0.935703	0.813770	0.268660
	C12697	C	1.012761	0.752131	0.279181
	C12698	C	0.995581	0.752802	0.349712
	C12699	C	1.005025	0.690870	0.335838
	C12700	C	1.005313	0.814880	0.335942
	C12701	C	1.002235	0.752830	0.340358
	C12702	C	0.983545	0.462387	0.364889
	C12703	C	0.964164	0.462248	0.242808
	C12704	C	0.979228	0.462130	0.361902
	C12705	C	0.983485	0.543166	0.364879
	C12706	C	0.979191	0.543186	0.361887
	C12707	C	0.964146	0.543172	0.242818
	C12708	C	0.995583	0.252891	0.349751
	C12709	C	1.005199	0.190720	0.335923
	C12710	C	1.005036	0.314812	0.335858
	C12711	C	1.002116	0.252808	0.340347
	C12712	C	0.962912	0.043240	0.239092
	C12713	C	0.983423	0.252125	0.254984
	C12714	C	0.947385	0.252265	0.255751
	C12715	C	0.960675	0.253081	0.350170
	C12716	C	1.008099	0.190864	0.275177
	C12717	C	1.008011	0.313620	0.275177
	C12718	C	0.993818	0.252203	0.263368
	C12719	C	0.939347	0.252187	0.264500
	C12720	C	0.950275	0.753238	0.341693
	C12721	C	0.945544	0.814360	0.337691
	C12722	C	0.945512	0.692129	0.337693
	C12723	C	0.950341	0.252937	0.341736
	C12724	C	0.945550	0.314103	0.337747
	C12725	C	0.945594	0.191779	0.337728
	C12726	C	0.935643	0.190861	0.268618
	C12727	C	0.998645	0.190826	0.267360
	C12728	C	0.998576	0.313473	0.267359
	C12729	C	0.935777	0.313406	0.268694
	C12730	C	1.012777	0.252363	0.279178
	C12731	C	0.980249	0.043468	0.364249
	C12732	C	0.966691	0.043147	0.242366
	C12733	C	0.962879	0.962341	0.239112
	C12734	C	0.980257	0.962626	0.364230
	C12735	C	0.966670	0.962457	0.242402
	N12736	N	0.901003	0.070245	0.304000
	N12737	N	0.900981	0.935693	0.303979
	N12738	N	0.901063	0.435729	0.304100
	N12739	N	0.901014	0.570276	0.304117
	N12740	N	0.980249	0.435611	0.364201
	N12741	N	0.980179	0.570251	0.364163
	N12742	N	0.980045	0.070168	0.364135
	N12743	N	0.980056	0.935538	0.364120
	O12744	O	0.976770	0.694283	0.424619
	O12745	O	0.976725	0.810971	0.424620
	O12746	O	0.928291	0.694525	0.439459
	O12747	O	0.928031	0.811170	0.439517
	O12748	O	0.928184	0.193585	0.439569
	O12749	O	0.928176	0.310521	0.439566
	O12750	O	0.930325	0.695066	0.415775
	O12751	O	0.930434	0.811585	0.415855
	O12752	O	0.930427	0.194527	0.415863
	O12753	O	0.930303	0.310903	0.415787
	O12754	O	0.974140	0.694943	0.448315
	O12755	O	0.974258	0.811466	0.448321
	O12756	O	0.974260	0.194896	0.448320
	O12757	O	0.974377	0.311343	0.448385
	O12758	O	0.976638	0.194579	0.424675
	O12759	O	0.976674	0.311524	0.424689
	O12760	O	0.990835	0.694456	0.377018
	O12761	O	0.963544	0.694630	0.373288
	O12762	O	0.941364	0.694921	0.491032
	O12763	O	0.941256	0.811430	0.491006
	O12764	O	0.914291	0.693438	0.487074
	O12765	O	0.914128	0.810583	0.487158
	O12766	O	0.963637	0.811448	0.373311
	O12767	O	0.990808	0.811328	0.376994
	O12768	O	0.990834	0.194171	0.377084
	O12769	O	0.963712	0.194442	0.373348
	O12770	O	0.941308	0.193999	0.490962
	O12771	O	0.941367	0.310824	0.490978
	O12772	O	0.914093	0.194306	0.487199
	O12773	O	0.914119	0.311238	0.487140
	O12774	O	0.963527	0.311128	0.373270
	O12775	O	0.990754	0.311072	0.377059
	H12776	H	0.924344	0.642870	0.454841
	H12777	H	0.924447	0.862713	0.454961
	H12778	H	0.924240	0.142220	0.454951
	H12779	H	0.924522	0.362317	0.454993
	H12780	H	0.940363	0.863038	0.401863
	H12781	H	0.940272	0.643693	0.401842
	H12782	H	0.940021	0.362145	0.401753
	H12783	H	0.940421	0.143197	0.401897
	H12784	H	0.989739	0.064622	0.439991
	H12785	H	0.991528	0.064585	0.437874
	H12786	H	0.991492	0.941236	0.437914
	H12787	H	0.989755	0.941013	0.439972
	H12788	H	0.984886	0.064511	0.439801
	H12789	H	0.984869	0.940913	0.439804
	H12790	H	0.910035	0.064606	0.427042
	H12791	H	0.910024	0.940702	0.427007
	H12792	H	0.913481	0.064517	0.430709
	H12793	H	0.913471	0.940959	0.430690
	H12794	H	0.922058	0.064813	0.430693
	H12795	H	0.922070	0.940976	0.430669
	H12796	H	0.906588	0.440955	0.425973
	H12797	H	0.910212	0.440921	0.431835
	H12798	H	0.914091	0.441263	0.419505
	H12799	H	0.986297	0.441167	0.439572
	H12800	H	0.984164	0.441334	0.437521
	H12801	H	0.985178	0.440930	0.435943
	H12802	H	0.910233	0.564519	0.431833
	H12803	H	0.906479	0.563922	0.426021
	H12804	H	0.985122	0.564975	0.435956
	H12805	H	0.984108	0.564329	0.437548
	H12806	H	0.986333	0.564223	0.439623
	H12807	H	0.914008	0.564219	0.419532
	H12808	H	0.964579	0.643902	0.462420
	H12809	H	0.964437	0.862743	0.462344
	H12810	H	0.964343	0.143270	0.462277
	H12811	H	0.964576	0.362382	0.462407
	H12812	H	0.951404	0.643539	0.386332
	H12813	H	0.986873	0.642804	0.392458
	H12814	H	0.987088	0.862553	0.392437
	H12815	H	0.951494	0.863061	0.386346
	H12816	H	0.980252	0.642841	0.409203
	H12817	H	0.980535	0.862603	0.409215
	H12818	H	0.953521	0.644008	0.477957
	H12819	H	0.953401	0.862801	0.477890
	H12820	H	0.984256	0.440911	0.366537
	H12821	H	0.929265	0.441361	0.502409
	H12822	H	0.978407	0.440617	0.367396
	H12823	H	0.975333	0.440965	0.365179
	H12824	H	0.925336	0.440904	0.496420
	H12825	H	0.929325	0.441130	0.498195
	H12826	H	0.929275	0.564323	0.502417
	H12827	H	0.984097	0.564436	0.366510
	H12828	H	0.929301	0.564386	0.498212
	H12829	H	0.925339	0.564730	0.496437
	H12830	H	0.975234	0.563998	0.365165
	H12831	H	0.978318	0.564307	0.367366
	H12832	H	0.953177	0.142969	0.477750
	H12833	H	0.953402	0.362220	0.477913
	H12834	H	0.979729	0.064494	0.364111
	H12835	H	0.979823	0.064944	0.364257
	H12836	H	0.979924	0.064938	0.363939
	H12837	H	0.917990	0.862305	0.471750
	H12838	H	0.917927	0.642468	0.471623
	H12839	H	0.918011	0.362527	0.471762
	H12840	H	0.917745	0.142451	0.471749
	H12841	H	0.951705	0.143454	0.386430
	H12842	H	0.986924	0.142712	0.392493
	H12843	H	0.987008	0.362727	0.392477
	H12844	H	0.951295	0.362042	0.386298
	H12845	H	0.980404	0.143016	0.409282
	H12846	H	0.980457	0.362789	0.409237
	H12847	H	0.923704	0.064473	0.499389
	H12848	H	0.923290	0.064469	0.500102
	H12849	H	0.924327	0.064575	0.501011
	H12850	H	0.979848	0.941173	0.364273
	H12851	H	0.979743	0.940940	0.364075
	H12852	H	0.979936	0.941569	0.363956
	H12853	H	0.923676	0.940809	0.499402
	H12854	H	0.923262	0.940783	0.500123
	H12855	H	0.924325	0.940769	0.500999
	Zn12856	Zn	0.917477	0.680269	0.426612
	Zn12857	Zn	0.917487	0.825243	0.426633
	Zn12858	Zn	0.917466	0.180413	0.426656
	Zn12859	Zn	0.917538	0.325239	0.426639
	Zn12860	Zn	0.924829	0.680352	0.500081
	Zn12861	Zn	0.924674	0.825216	0.500044
	Zn12862	Zn	0.924827	0.180180	0.500084
	Zn12863	Zn	0.924817	0.325409	0.500033
	C12864	C	0.977267	0.752641	0.420527
	C12865	C	0.927577	0.752700	0.443583
	C12866	C	0.924940	0.752622	0.453920
	C12867	C	0.922979	0.690458	0.458612
	C12868	C	0.923027	0.814794	0.458685
	C12869	C	0.927617	0.252076	0.443635
	C12870	C	0.924934	0.252308	0.453961
	C12871	C	0.922909	0.190123	0.458695
	C12872	C	0.923057	0.314555	0.458717
	C12873	C	0.933052	0.753403	0.412208
	C12874	C	0.939649	0.753339	0.402818
	C12875	C	0.942670	0.815321	0.398374
	C12876	C	0.942663	0.691357	0.398362
	C12877	C	0.932974	0.252682	0.412180
	C12878	C	0.939658	0.252696	0.402843
	C12879	C	0.942596	0.314483	0.398363
	C12880	C	0.942803	0.190812	0.398438
	C12881	C	0.989715	0.043341	0.438561
	C12882	C	0.989716	0.962416	0.438572
	C12883	C	0.913267	0.043160	0.428282
	C12884	C	0.913263	0.962296	0.428274
	C12885	C	0.921892	0.043261	0.428279
	C12886	C	0.921908	0.962280	0.428274
	C12887	C	0.910830	0.462353	0.428321
	C12888	C	0.987502	0.462338	0.439011
	C12889	C	0.985323	0.462418	0.436967
	C12890	C	0.910838	0.543067	0.428319
	C12891	C	0.985288	0.543154	0.436964
	C12892	C	0.987520	0.543110	0.439013
	C12893	C	0.971587	0.753273	0.451951
	C12894	C	0.971682	0.253069	0.451982
	C12895	C	0.964976	0.753326	0.461335
	C12896	C	0.962065	0.691507	0.465840
	C12897	C	0.962000	0.815200	0.465806
	C12898	C	0.965095	0.252903	0.461361
	C12899	C	0.962001	0.190882	0.465770
	C12900	C	0.962129	0.314709	0.465843
	C12901	C	0.977231	0.253060	0.420610
	C12902	C	0.990282	0.752877	0.381084
	C12903	C	0.960123	0.753100	0.376551
	C12904	C	0.914731	0.752139	0.483053
	C12905	C	0.981808	0.690489	0.405482
	C12906	C	0.981972	0.814886	0.405474
	C12907	C	0.987548	0.752665	0.391436
	C12908	C	0.952144	0.753271	0.385414
	C12909	C	0.948846	0.691222	0.389750
	C12910	C	0.985533	0.690577	0.396188
	C12911	C	0.985675	0.814825	0.396176
	C12912	C	0.948863	0.815335	0.389761
	C12913	C	0.979981	0.752722	0.410214
	C12914	C	0.944781	0.753227	0.487749
	C12915	C	0.955970	0.691523	0.474487
	C12916	C	0.955900	0.815231	0.474451
	C12917	C	0.952690	0.753377	0.478845
	C12918	C	0.926543	0.462444	0.502313
	C12919	C	0.977749	0.462330	0.365753
	C12920	C	0.926595	0.462440	0.498027
	C12921	C	0.926541	0.543250	0.502333
	C12922	C	0.926606	0.543329	0.498034
	C12923	C	0.977702	0.543109	0.365721
	C12924	C	0.944780	0.252409	0.487711
	C12925	C	0.955855	0.190708	0.474397
	C12926	C	0.955985	0.314597	0.474473
	C12927	C	0.952729	0.252598	0.478827
	C12928	C	0.979875	0.043443	0.364185
	C12929	C	0.990234	0.252634	0.381154
	C12930	C	0.960151	0.252805	0.376559
	C12931	C	0.914638	0.252657	0.483084
	C12932	C	0.981846	0.190672	0.405530
	C12933	C	0.981870	0.315040	0.405506
	C12934	C	0.987509	0.252715	0.391487
	C12935	C	0.952155	0.252777	0.385429
	C12936	C	0.917432	0.752396	0.472706
	C12937	C	0.919357	0.814628	0.467985
	C12938	C	0.919312	0.690353	0.467915
	C12939	C	0.917344	0.252445	0.472732
	C12940	C	0.919358	0.314665	0.468013
	C12941	C	0.919208	0.190159	0.467999
	C12942	C	0.949011	0.190843	0.389827
	C12943	C	0.985553	0.190561	0.396226
	C12944	C	0.985573	0.314944	0.396206
	C12945	C	0.948787	0.314553	0.389753
	C12946	C	0.979906	0.252938	0.410266
	C12947	C	0.923761	0.043117	0.499821
	C12948	C	0.980080	0.043352	0.363991
	C12949	C	0.979886	0.962467	0.364182
	C12950	C	0.923773	0.962124	0.499845
	C12951	C	0.980080	0.962600	0.363996
	N12952	N	0.917475	0.070050	0.426632
	N12953	N	0.917493	0.935447	0.426605
	N12954	N	0.917582	0.435447	0.426649
	N12955	N	0.917575	0.570087	0.426642
	N12956	N	0.924709	0.435465	0.500066
	N12957	N	0.924705	0.570044	0.500099
	N12958	N	0.924658	0.069819	0.500104
	N12959	N	0.924609	0.935207	0.500097
	O12960	O	0.986133	0.695056	0.550970
	O12961	O	0.986063	0.811007	0.551016
	O12962	O	0.877547	0.694240	0.573555
	O12963	O	0.877543	0.810584	0.573575
	O12964	O	0.877529	0.194409	0.573553
	O12965	O	0.877474	0.310679	0.573599
	O12966	O	0.878853	0.694207	0.553521
	O12967	O	0.878832	0.810927	0.553481
	O12968	O	0.878944	0.194365	0.553520
	O12969	O	0.878999	0.311080	0.553512
	O12970	O	0.988326	0.694762	0.572257
	O12971	O	0.988343	0.810894	0.572238
	O12972	O	0.988295	0.194756	0.572206
	O12973	O	0.988461	0.310759	0.572218
	O12974	O	0.986067	0.194811	0.550986
	O12975	O	0.986121	0.311075	0.550935
	O12976	O	0.940035	0.695044	0.510936
	O12977	O	0.911717	0.694117	0.510805
	O12978	O	0.952323	0.694510	0.613376
	O12979	O	0.952333	0.810765	0.613402
	O12980	O	0.923708	0.694437	0.613531
	O12981	O	0.923710	0.810621	0.613498
	O12982	O	0.911757	0.810363	0.510829
	O12983	O	0.939755	0.811183	0.511062
	O12984	O	0.939945	0.194441	0.510991
	O12985	O	0.911740	0.194808	0.510837
	O12986	O	0.952329	0.194662	0.613392
	O12987	O	0.952319	0.310814	0.613373
	O12988	O	0.923720	0.194619	0.613544
	O12989	O	0.923654	0.310817	0.613513
	O12990	O	0.911836	0.311261	0.510854
	O12991	O	0.939900	0.310766	0.510959
	H12992	H	0.892250	0.643594	0.586407
	H12993	H	0.892510	0.860976	0.586274
	H12994	H	0.892453	0.143725	0.586349
	H12995	H	0.892520	0.361313	0.586289
	H12996	H	0.891019	0.861856	0.540407
	H12997	H	0.890977	0.642859	0.540409
	H12998	H	0.890875	0.362558	0.540383
	H12999	H	0.891064	0.143224	0.540416
	H13000	H	1.002873	0.064813	0.562056
	H13001	H	1.002862	0.064468	0.561261
	H13002	H	1.002882	0.941307	0.561278
	H13003	H	1.002864	0.941311	0.562074
	H13004	H	1.001441	0.064383	0.562571
	H13005	H	1.001412	0.941055	0.562561
	H13006	H	0.860289	0.064749	0.565034
	H13007	H	0.860338	0.941308	0.565020
	H13008	H	0.863827	0.064830	0.565335
	H13009	H	0.863795	0.941537	0.565312
	H13010	H	0.866568	0.064528	0.562816
	H13011	H	0.866588	0.941260	0.562820
	H13012	H	0.859275	0.441015	0.564999
	H13013	H	0.863225	0.441277	0.565789
	H13014	H	0.857816	0.440801	0.561357
	H13015	H	0.999101	0.440848	0.562259
	H13016	H	0.999579	0.441642	0.560219
	H13017	H	1.001732	0.441157	0.559698
	H13018	H	0.863201	0.564404	0.565842
	H13019	H	0.859330	0.564376	0.565027
	H13020	H	1.001697	0.564431	0.559769
	H13021	H	0.999537	0.564823	0.560221
	H13022	H	0.999105	0.564275	0.562306
	H13023	H	0.857842	0.564740	0.561372
	H13024	H	0.976689	0.644553	0.585379
	H13025	H	0.976757	0.861146	0.585408
	H13026	H	0.976743	0.144650	0.585405
	H13027	H	0.976673	0.361206	0.585348
	H13028	H	0.902026	0.642594	0.524871
	H13029	H	0.954906	0.644941	0.523687
	H13030	H	0.954899	0.861670	0.523734
	H13031	H	0.902044	0.861793	0.524854
	H13032	H	0.971239	0.644684	0.538178
	H13033	H	0.971245	0.861550	0.538175
	H13034	H	0.963909	0.644528	0.600204
	H13035	H	0.963991	0.861313	0.600285
	H13036	H	0.925218	0.441026	0.503811
	H13037	H	0.937582	0.441571	0.622139
	H13038	H	0.919675	0.441051	0.501376
	H13039	H	0.919763	0.440746	0.498307
	H13040	H	0.937544	0.441014	0.625854
	H13041	H	0.935996	0.441203	0.624289
	H13042	H	0.937629	0.564401	0.622126
	H13043	H	0.925213	0.564573	0.503829
	H13044	H	0.936024	0.564393	0.624321
	H13045	H	0.937499	0.564654	0.625859
	H13046	H	0.919726	0.564391	0.498302
	H13047	H	0.919663	0.564632	0.501413
	H13048	H	0.963954	0.144780	0.600257
	H13049	H	0.963887	0.361041	0.600244
	H13050	H	0.926021	0.064210	0.499933
	H13051	H	0.925293	0.064126	0.499243
	H13052	H	0.925498	0.064425	0.500937
	H13053	H	0.908877	0.860921	0.600712
	H13054	H	0.908610	0.643508	0.600828
	H13055	H	0.908930	0.361354	0.600695
	H13056	H	0.908855	0.143654	0.600776
	H13057	H	0.902196	0.143361	0.524911
	H13058	H	0.954717	0.143878	0.523835
	H13059	H	0.954966	0.361613	0.523673
	H13060	H	0.901989	0.362805	0.524877
	H13061	H	0.971134	0.144157	0.538281
	H13062	H	0.971390	0.361731	0.538086
	H13063	H	0.939254	0.064738	0.624285
	H13064	H	0.939469	0.064709	0.624200
	H13065	H	0.939451	0.063986	0.623951
	H13066	H	0.925225	0.941110	0.499296
	H13067	H	0.925985	0.941029	0.499914
	H13068	H	0.925468	0.940915	0.500890
	H13069	H	0.939171	0.941255	0.624292
	H13070	H	0.939405	0.941502	0.624190
	H13071	H	0.939404	0.941131	0.623974
	Zn13072	Zn	0.862390	0.680367	0.562616
	Zn13073	Zn	0.862446	0.825665	0.562648
	Zn13074	Zn	0.862358	0.180307	0.562614
	Zn13075	Zn	0.862439	0.325524	0.562603
	Zn13076	Zn	0.939200	0.680152	0.624105
	Zn13077	Zn	0.939128	0.825552	0.624065
	Zn13078	Zn	0.939232	0.180153	0.624082
	Zn13079	Zn	0.939128	0.325504	0.624032
	C13080	C	0.982185	0.753046	0.547680
	C13081	C	0.881448	0.752393	0.576858
	C13082	C	0.891475	0.752368	0.585444
	C13083	C	0.896003	0.690774	0.589563
	C13084	C	0.896145	0.813758	0.589492
	C13085	C	0.881441	0.252537	0.576863
	C13086	C	0.891422	0.252537	0.585473
	C13087	C	0.896063	0.190961	0.589562
	C13088	C	0.896119	0.314049	0.589523
	C13089	C	0.882325	0.752519	0.550246
	C13090	C	0.890276	0.752422	0.541345
	C13091	C	0.893534	0.814265	0.536967
	C13092	C	0.893515	0.690458	0.536976
	C13093	C	0.882406	0.252666	0.550238
	C13094	C	0.890300	0.252727	0.541346
	C13095	C	0.893464	0.314860	0.536960
	C13096	C	0.893558	0.190859	0.536976
	C13097	C	1.002514	0.043256	0.561648
	C13098	C	1.002516	0.962456	0.561662
	C13099	C	0.862094	0.043490	0.564512
	C13100	C	0.862116	0.962687	0.564523
	C13101	C	0.864857	0.043254	0.561952
	C13102	C	0.864900	0.962629	0.561965
	C13103	C	0.861528	0.462565	0.564681
	C13104	C	1.000423	0.462157	0.562474
	C13105	C	1.000878	0.462406	0.560388
	C13106	C	0.861526	0.543270	0.564679
	C13107	C	1.000852	0.543207	0.560412
	C13108	C	1.000415	0.542971	0.562494
	C13109	C	0.985231	0.752887	0.575620
	C13110	C	0.985296	0.252888	0.575604
	C13111	C	0.977388	0.752870	0.584464
	C13112	C	0.973825	0.691638	0.588664
	C13113	C	0.973867	0.814203	0.588682
	C13114	C	0.977480	0.252947	0.584480
	C13115	C	0.973901	0.191749	0.588691
	C13116	C	0.973874	0.314161	0.588667
	C13117	C	0.982198	0.252899	0.547669
	C13118	C	0.943828	0.753152	0.514285
	C13119	C	0.909157	0.752229	0.514475
	C13120	C	0.919759	0.752414	0.610239
	C13121	C	0.967610	0.691820	0.534961
	C13122	C	0.967597	0.814475	0.534968
	C13123	C	0.953846	0.753316	0.522890
	C13124	C	0.902608	0.752277	0.523861
	C13125	C	0.899613	0.690383	0.528329
	C13126	C	0.958512	0.691952	0.526948
	C13127	C	0.958512	0.814518	0.526965
	C13128	C	0.899641	0.814220	0.528324
	C13129	C	0.972197	0.753152	0.539065
	C13130	C	0.955399	0.752706	0.609995
	C13131	C	0.966797	0.691540	0.596929
	C13132	C	0.966835	0.814348	0.596955
	C13133	C	0.963230	0.752949	0.601130
	C13134	C	0.939024	0.462429	0.622626
	C13135	C	0.921004	0.462136	0.499902
	C13136	C	0.937392	0.462378	0.624835
	C13137	C	0.939035	0.543327	0.622643
	C13138	C	0.937406	0.543346	0.624831
	C13139	C	0.920990	0.543063	0.499915
	C13140	C	0.955445	0.252724	0.610007
	C13141	C	0.966872	0.191655	0.596964
	C13142	C	0.966831	0.314130	0.596938
	C13143	C	0.963324	0.252832	0.601166
	C13144	C	0.925369	0.042970	0.499733
	C13145	C	0.943873	0.252688	0.514253
	C13146	C	0.909175	0.253065	0.514474
	C13147	C	0.919770	0.252646	0.610235
	C13148	C	0.967485	0.191279	0.535037
	C13149	C	0.967606	0.314396	0.534926
	C13150	C	0.953837	0.252707	0.522889
	C13151	C	0.902590	0.252976	0.523858
	C13152	C	0.909771	0.752297	0.601628
	C13153	C	0.905213	0.813725	0.597510
	C13154	C	0.905078	0.690745	0.597580
	C13155	C	0.909716	0.252531	0.601664
	C13156	C	0.905195	0.314089	0.597538
	C13157	C	0.905136	0.190911	0.597580
	C13158	C	0.899686	0.191063	0.528348
	C13159	C	0.958403	0.191199	0.527022
	C13160	C	0.958514	0.314346	0.526920
	C13161	C	0.899592	0.314984	0.528325
	C13162	C	0.972148	0.252885	0.539074
	C13163	C	0.939303	0.043545	0.624192
	C13164	C	0.924814	0.043006	0.500728
	C13165	C	0.925332	0.962240	0.499729
	C13166	C	0.939257	0.962457	0.624188
	C13167	C	0.924797	0.962150	0.500720
	N13168	N	0.862336	0.070245	0.562626
	N13169	N	0.862373	0.935708	0.562646
	N13170	N	0.862322	0.435651	0.562632
	N13171	N	0.862306	0.570227	0.562625
	N13172	N	0.939184	0.435551	0.624084
	N13173	N	0.939195	0.570088	0.624096
	N13174	N	0.939202	0.070062	0.624084
	N13175	N	0.939150	0.935543	0.624081
	O13176	O	1.000425	0.694931	0.674786
	O13177	O	1.000411	0.811213	0.674813
	O13178	O	0.892013	0.695047	0.697133
	O13179	O	0.892088	0.811135	0.697071
	O13180	O	0.892216	0.195621	0.697047
	O13181	O	0.892122	0.311650	0.697135
	O13182	O	0.889676	0.694462	0.675834
	O13183	O	0.889725	0.810609	0.675780
	O13184	O	0.889777	0.195138	0.675889
	O13185	O	0.889772	0.311293	0.675823
	O13186	O	0.999064	0.694133	0.694743
	O13187	O	0.999135	0.810809	0.694810
	O13188	O	0.999059	0.194182	0.694801
	O13189	O	0.999027	0.311134	0.694797
	O13190	O	1.000514	0.195033	0.674694
	O13191	O	1.000497	0.311178	0.674748
	O13192	O	0.954678	0.694887	0.634659
	O13193	O	0.926092	0.694654	0.634810
	O13194	O	0.966120	0.693727	0.737423
	O13195	O	0.966126	0.810185	0.737413
	O13196	O	0.937898	0.695093	0.737264
	O13197	O	0.938027	0.811478	0.737223
	O13198	O	0.926079	0.810730	0.634795
	O13199	O	0.954723	0.811049	0.634614
	O13200	O	0.954589	0.195000	0.634686
	O13201	O	0.926024	0.194382	0.634791
	O13202	O	0.966053	0.194725	0.737420
	O13203	O	0.966037	0.311107	0.737408
	O13204	O	0.937994	0.194602	0.737187
	O13205	O	0.937880	0.310808	0.737281
	O13206	O	0.925937	0.310546	0.634759
	O13207	O	0.954527	0.311206	0.634656
	H13208	H	0.906697	0.644602	0.710040
	H13209	H	0.906957	0.861707	0.709894
	H13210	H	0.907065	0.145323	0.709803
	H13211	H	0.906784	0.361823	0.710006
	H13212	H	0.901604	0.860411	0.662806
	H13213	H	0.901395	0.644177	0.662698
	H13214	H	0.901598	0.360949	0.662728
	H13215	H	0.901482	0.144839	0.662795
	H13216	H	1.014892	0.063761	0.686240
	H13217	H	1.015888	0.064118	0.686393
	H13218	H	1.015879	0.940992	0.686465
	H13219	H	1.014949	0.940706	0.686263
	H13220	H	1.014458	0.064551	0.685448
	H13221	H	1.014393	0.940868	0.685384
	H13222	H	0.875301	0.064465	0.687201
	H13223	H	0.875400	0.941264	0.687175
	H13224	H	0.876592	0.064837	0.687626
	H13225	H	0.876605	0.941094	0.687618
	H13226	H	0.878165	0.064080	0.687028
	H13227	H	0.878223	0.940957	0.686929
	H13228	H	0.876369	0.441266	0.685888
	H13229	H	0.875741	0.440994	0.686250
	H13230	H	0.877453	0.440957	0.686217
	H13231	H	1.016944	0.440585	0.684852
	H13232	H	1.017301	0.440873	0.686334
	H13233	H	1.016068	0.440633	0.686932
	H13234	H	0.875674	0.564655	0.686231
	H13235	H	0.876315	0.563775	0.685908
	H13236	H	1.016023	0.564369	0.686926
	H13237	H	1.017300	0.564268	0.686362
	H13238	H	1.017029	0.564261	0.684862
	H13239	H	0.877373	0.564105	0.686144
	H13240	H	0.986978	0.642709	0.707829
	H13241	H	0.986923	0.861998	0.707897
	H13242	H	0.987032	0.142973	0.707928
	H13243	H	0.986897	0.362298	0.707844
	H13244	H	0.914295	0.644325	0.647884
	H13245	H	0.969448	0.644503	0.647463
	H13246	H	0.969431	0.861512	0.647495
	H13247	H	0.914530	0.860651	0.647992
	H13248	H	0.985738	0.644734	0.661940
	H13249	H	0.985677	0.861422	0.661978
	H13250	H	0.975884	0.642360	0.723349
	H13251	H	0.975829	0.861561	0.723414
	H13252	H	0.940348	0.440844	0.622117
	H13253	H	0.962509	0.441474	0.747270
	H13254	H	0.942480	0.440500	0.624250
	H13255	H	0.941242	0.441234	0.625860
	H13256	H	0.946619	0.441173	0.743122
	H13257	H	0.954431	0.441260	0.741838
	H13258	H	0.962489	0.564208	0.747294
	H13259	H	0.940340	0.564725	0.622119
	H13260	H	0.954451	0.564523	0.741790
	H13261	H	0.946637	0.564659	0.743040
	H13262	H	0.941242	0.564149	0.625867
	H13263	H	0.942472	0.564246	0.624260
	H13264	H	0.975927	0.143155	0.723441
	H13265	H	0.975766	0.362519	0.723363
	H13266	H	0.938860	0.064583	0.623999
	H13267	H	0.938910	0.064245	0.624156
	H13268	H	0.939169	0.064304	0.623907
	H13269	H	0.923270	0.861687	0.724365
	H13270	H	0.922979	0.645000	0.724490
	H13271	H	0.923027	0.361367	0.724506
	H13272	H	0.923284	0.144810	0.724306
	H13273	H	0.914264	0.144494	0.647881
	H13274	H	0.969404	0.144734	0.647452
	H13275	H	0.969347	0.361529	0.647445
	H13276	H	0.914371	0.360550	0.647847
	H13277	H	0.985714	0.145119	0.661935
	H13278	H	0.985642	0.361615	0.661917
	H13279	H	0.950391	0.064221	0.749616
	H13280	H	0.953148	0.064338	0.750575
	H13281	H	0.956526	0.064710	0.749016
	H13282	H	0.938854	0.941575	0.624202
	H13283	H	0.938853	0.940891	0.623949
	H13284	H	0.939168	0.940808	0.623881
	H13285	H	0.950524	0.941072	0.749601
	H13286	H	0.953183	0.941086	0.750519
	H13287	H	0.956535	0.940739	0.749017
	Zn13288	Zn	0.876542	0.680001	0.686568
	Zn13289	Zn	0.876655	0.825477	0.686487
	Zn13290	Zn	0.876608	0.180068	0.686581
	Zn13291	Zn	0.876627	0.325425	0.686510
	Zn13292	Zn	0.952980	0.680172	0.748174
	Zn13293	Zn	0.953171	0.825032	0.748200
	Zn13294	Zn	0.953033	0.180218	0.748204
	Zn13295	Zn	0.953050	0.325109	0.748226
	C13296	C	0.996481	0.753108	0.671525
	C13297	C	0.895956	0.753106	0.700405
	C13298	C	0.905902	0.753144	0.709060
	C13299	C	0.910389	0.691824	0.713222
	C13300	C	0.910532	0.814590	0.713154
	C13301	C	0.896086	0.253615	0.700384
	C13302	C	0.905968	0.253559	0.709032
	C13303	C	0.910602	0.192197	0.713085
	C13304	C	0.910465	0.314681	0.713195
	C13305	C	0.892835	0.752418	0.672440
	C13306	C	0.900781	0.752285	0.663630
	C13307	C	0.904458	0.813566	0.659481
	C13308	C	0.904339	0.691070	0.659418
	C13309	C	0.892853	0.253098	0.672464
	C13310	C	0.900744	0.252862	0.663623
	C13311	C	0.904426	0.313971	0.659439
	C13312	C	0.904350	0.191627	0.659458
	C13313	C	1.015475	0.042832	0.686171
	C13314	C	1.015486	0.962151	0.686182
	C13315	C	0.876126	0.043210	0.687185
	C13316	C	0.876156	0.962353	0.687167
	C13317	C	0.877725	0.042954	0.686503
	C13318	C	0.877756	0.962202	0.686476
	C13319	C	0.876219	0.462266	0.686188
	C13320	C	1.016095	0.461982	0.684947
	C13321	C	1.016430	0.462161	0.686383
	C13322	C	0.876161	0.542981	0.686196
	C13323	C	1.016404	0.543038	0.686378
	C13324	C	1.016143	0.542933	0.684926
	C13325	C	0.995637	0.752429	0.698036
	C13326	C	0.995609	0.252621	0.698059
	C13327	C	0.987630	0.752362	0.706900
	C13328	C	0.984415	0.690278	0.711266
	C13329	C	0.984367	0.814199	0.711301
	C13330	C	0.987712	0.252687	0.706968
	C13331	C	0.984486	0.190712	0.711347
	C13332	C	0.984405	0.314749	0.711300
	C13333	C	0.996586	0.253192	0.671428
	C13334	C	0.958566	0.753005	0.637950
	C13335	C	0.922976	0.752681	0.638177
	C13336	C	0.934015	0.753330	0.733975
	C13337	C	0.982073	0.691703	0.658732
	C13338	C	0.982060	0.814441	0.658749
	C13339	C	0.968498	0.752998	0.646593
	C13340	C	0.915088	0.752517	0.647012
	C13341	C	0.911466	0.691260	0.651187
	C13342	C	0.973091	0.691654	0.650677
	C13343	C	0.973078	0.814371	0.650695
	C13344	C	0.911589	0.813648	0.651250
	C13345	C	0.986609	0.753089	0.662851
	C13346	C	0.968757	0.751910	0.733793
	C13347	C	0.978261	0.690128	0.719894
	C13348	C	0.978223	0.813990	0.719928
	C13349	C	0.975314	0.751972	0.724398
	C13350	C	0.959322	0.462267	0.749451
	C13351	C	0.941159	0.462273	0.624795
	C13352	C	0.951211	0.462494	0.743962
	C13353	C	0.959317	0.542987	0.749453
	C13354	C	0.951216	0.543535	0.743945
	C13355	C	0.941157	0.542936	0.624806
	C13356	C	0.968716	0.252884	0.733794
	C13357	C	0.978332	0.190803	0.719971
	C13358	C	0.978263	0.314780	0.719929
	C13359	C	0.975308	0.252861	0.724411
	C13360	C	0.938979	0.043092	0.624090
	C13361	C	0.958470	0.253125	0.637958
	C13362	C	0.922864	0.252428	0.638144
	C13363	C	0.934016	0.252814	0.733939
	C13364	C	0.982048	0.191990	0.658724
	C13365	C	0.982013	0.314586	0.658715
	C13366	C	0.968422	0.253070	0.646590
	C13367	C	0.914986	0.252484	0.646991
	C13368	C	0.924044	0.753349	0.725345
	C13369	C	0.919556	0.814671	0.721198
	C13370	C	0.919399	0.691960	0.721271
	C13371	C	0.924092	0.253126	0.725293
	C13372	C	0.919465	0.314460	0.721245
	C13373	C	0.919611	0.192038	0.721132
	C13374	C	0.911407	0.191360	0.651192
	C13375	C	0.973034	0.191797	0.650677
	C13376	C	0.972993	0.314482	0.650672
	C13377	C	0.911490	0.313829	0.651184
	C13378	C	0.986626	0.253284	0.662809
	C13379	C	0.952165	0.042902	0.749602
	C13380	C	0.939281	0.043105	0.623949
	C13381	C	0.938927	0.962326	0.624074
	C13382	C	0.952238	0.962297	0.749582
	C13383	C	0.939254	0.962320	0.623959
	N13384	N	0.876587	0.069990	0.686519
	N13385	N	0.876628	0.935483	0.686478
	N13386	N	0.876612	0.435431	0.686538
	N13387	N	0.876603	0.569963	0.686547
	N13388	N	0.953073	0.435406	0.748164
	N13389	N	0.953051	0.570042	0.748163
	N13390	N	0.953147	0.070196	0.748168
	N13391	N	0.953206	0.935562	0.748173
	O13392	O	0.949496	0.694695	0.808791
	O13393	O	0.949563	0.811732	0.808680
	O13394	O	0.901055	0.694423	0.823556
	O13395	O	0.901163	0.811158	0.823549
	O13396	O	0.901170	0.194704	0.823547
	O13397	O	0.901088	0.311340	0.823529
	O13398	O	0.903516	0.694624	0.799877
	O13399	O	0.903653	0.811036	0.799957
	O13400	O	0.903659	0.194895	0.799999
	O13401	O	0.903440	0.311324	0.799886
	O13402	O	0.947390	0.694454	0.832432
	O13403	O	0.947246	0.811058	0.832387
	O13404	O	0.947486	0.194237	0.832425
	O13405	O	0.947286	0.310866	0.832347
	O13406	O	0.949581	0.194138	0.808715
	O13407	O	0.949565	0.310949	0.808687
	O13408	O	0.963497	0.693446	0.761126
	O13409	O	0.936486	0.694852	0.757264
	O13410	O	0.914145	0.694532	0.874941
	O13411	O	0.914124	0.811139	0.874970
	O13412	O	0.886878	0.694891	0.871153
	O13413	O	0.886995	0.811620	0.871116
	O13414	O	0.936632	0.811415	0.757312
	O13415	O	0.963806	0.810293	0.761154
	O13416	O	0.963631	0.194242	0.761123
	O13417	O	0.936498	0.193859	0.757302
	O13418	O	0.914143	0.194331	0.874895
	O13419	O	0.914160	0.310972	0.874885
	O13420	O	0.886972	0.194746	0.871144
	O13421	O	0.886967	0.311685	0.871132
	O13422	O	0.936537	0.310482	0.757295
	O13423	O	0.963683	0.311218	0.761127
	H13424	H	0.897325	0.643002	0.838962
	H13425	H	0.897307	0.862688	0.838921
	H13426	H	0.897331	0.143053	0.838971
	H13427	H	0.897352	0.363035	0.838945
	H13428	H	0.913406	0.862273	0.785974
	H13429	H	0.913223	0.643473	0.785850
	H13430	H	0.913285	0.362123	0.785901
	H13431	H	0.913282	0.143344	0.785951
	H13432	H	0.956716	0.064492	0.824448
	H13433	H	0.961275	0.064980	0.825299
	H13434	H	0.961285	0.941574	0.825336
	H13435	H	0.956710	0.941381	0.824321
	H13436	H	0.954962	0.064713	0.820158
	H13437	H	0.955020	0.941222	0.820162
	H13438	H	0.894748	0.064834	0.813650
	H13439	H	0.894762	0.940996	0.813673
	H13440	H	0.896564	0.064289	0.810583
	H13441	H	0.896606	0.941444	0.810571
	H13442	H	0.892151	0.064783	0.806790
	H13443	H	0.892186	0.941347	0.806722
	H13444	H	0.896107	0.440993	0.810535
	H13445	H	0.893765	0.441215	0.807692
	H13446	H	0.892753	0.440614	0.814109
	H13447	H	0.958581	0.441002	0.823999
	H13448	H	0.956345	0.441353	0.821187
	H13449	H	0.958031	0.441049	0.819336
	H13450	H	0.893834	0.564454	0.807720
	H13451	H	0.896090	0.564527	0.810541
	H13452	H	0.958079	0.564955	0.819347
	H13453	H	0.956349	0.564904	0.821202
	H13454	H	0.958624	0.565009	0.824002
	H13455	H	0.892811	0.564803	0.814100
	H13456	H	0.937414	0.643306	0.846367
	H13457	H	0.937449	0.862244	0.846383
	H13458	H	0.937700	0.142896	0.846414
	H13459	H	0.937584	0.362132	0.846350
	H13460	H	0.924341	0.643521	0.770348
	H13461	H	0.959643	0.642029	0.776544
	H13462	H	0.960073	0.862018	0.776575
	H13463	H	0.924546	0.862581	0.770462
	H13464	H	0.953143	0.642467	0.793327
	H13465	H	0.953545	0.862282	0.793334
	H13466	H	0.926167	0.643178	0.861810
	H13467	H	0.926153	0.862348	0.861833
	H13468	H	0.960622	0.440523	0.752487
	H13469	H	0.894429	0.441005	0.881958
	H13470	H	0.949856	0.440842	0.754217
	H13471	H	0.944001	0.441573	0.750171
	H13472	H	0.896743	0.440959	0.886814
	H13473	H	0.893846	0.440997	0.885305
	H13474	H	0.894332	0.564213	0.881975
	H13475	H	0.960543	0.564652	0.752476
	H13476	H	0.893846	0.564515	0.885324
	H13477	H	0.896824	0.564514	0.886841
	H13478	H	0.943925	0.564489	0.750181
	H13479	H	0.949871	0.564622	0.754199
	H13480	H	0.926469	0.142967	0.861887
	H13481	H	0.926343	0.362249	0.861812
	H13482	H	0.952349	0.064401	0.745791
	H13483	H	0.949990	0.064526	0.746941
	H13484	H	0.956132	0.064469	0.747007
	H13485	H	0.890815	0.862877	0.855710
	H13486	H	0.890803	0.643179	0.855714
	H13487	H	0.890653	0.363044	0.855702
	H13488	H	0.890662	0.143170	0.855703
	H13489	H	0.924320	0.142827	0.770419
	H13490	H	0.959917	0.142873	0.776528
	H13491	H	0.959761	0.362629	0.776526
	H13492	H	0.924373	0.361894	0.770356
	H13493	H	0.953418	0.142694	0.793297
	H13494	H	0.953228	0.362519	0.793300
	H13495	H	0.899585	0.064293	0.882009
	H13496	H	0.896410	0.064442	0.881588
	H13497	H	0.893800	0.064802	0.883837
	H13498	H	0.950063	0.940698	0.746961
	H13499	H	0.952381	0.940776	0.745816
	H13500	H	0.956160	0.941017	0.747056
	H13501	H	0.899667	0.941006	0.882030
	H13502	H	0.896478	0.941290	0.881567
	H13503	H	0.893741	0.941725	0.883826
	Zn13504	Zn	0.890509	0.680438	0.810638
	Zn13505	Zn	0.890479	0.824969	0.810625
	Zn13506	Zn	0.890517	0.180507	0.810680
	Zn13507	Zn	0.890365	0.324937	0.810650
	Zn13508	Zn	0.897616	0.680183	0.884007
	Zn13509	Zn	0.897645	0.825264	0.884082
	Zn13510	Zn	0.897635	0.180311	0.883984
	Zn13511	Zn	0.897692	0.325385	0.884037
	C13512	C	0.950110	0.752945	0.804666
	C13513	C	0.900563	0.752834	0.827637
	C13514	C	0.897802	0.752903	0.837947
	C13515	C	0.895889	0.690814	0.842695
	C13516	C	0.895872	0.815058	0.842675
	C13517	C	0.900589	0.253054	0.827634
	C13518	C	0.897868	0.253095	0.837958
	C13519	C	0.895874	0.190895	0.842679
	C13520	C	0.895876	0.315262	0.842669
	C13521	C	0.906209	0.752845	0.796282
	C13522	C	0.912790	0.752812	0.786887
	C13523	C	0.915805	0.814792	0.782465
	C13524	C	0.915707	0.691016	0.782400
	C13525	C	0.906174	0.253042	0.796318
	C13526	C	0.912696	0.252817	0.786906
	C13527	C	0.915688	0.314526	0.782421
	C13528	C	0.915675	0.190783	0.782454
	C13529	C	0.959297	0.043519	0.824010
	C13530	C	0.959282	0.962619	0.823989
	C13531	C	0.894330	0.043270	0.811725
	C13532	C	0.894357	0.962511	0.811734
	C13533	C	0.889890	0.043310	0.807926
	C13534	C	0.889904	0.962342	0.807922
	C13535	C	0.893795	0.462319	0.809509
	C13536	C	0.960237	0.462458	0.823408
	C13537	C	0.957958	0.462681	0.820620
	C13538	C	0.893827	0.543016	0.809510
	C13539	C	0.957989	0.543696	0.820644
	C13540	C	0.960280	0.543578	0.823434
	C13541	C	0.944660	0.752742	0.836026
	C13542	C	0.944735	0.252561	0.835998
	C13543	C	0.938037	0.752743	0.845399
	C13544	C	0.934991	0.690817	0.849831
	C13545	C	0.934990	0.814601	0.849839
	C13546	C	0.938161	0.252533	0.845381
	C13547	C	0.935206	0.190530	0.849859
	C13548	C	0.935134	0.314520	0.849816
	C13549	C	0.950119	0.252521	0.804620
	C13550	C	0.963080	0.751867	0.765215
	C13551	C	0.933079	0.753149	0.760543
	C13552	C	0.887497	0.753178	0.867052
	C13553	C	0.954669	0.690101	0.789581
	C13554	C	0.954882	0.814526	0.789593
	C13555	C	0.960408	0.751974	0.775550
	C13556	C	0.925113	0.753039	0.769401
	C13557	C	0.921838	0.691162	0.773771
	C13558	C	0.958339	0.689928	0.780278
	C13559	C	0.958576	0.814284	0.780293
	C13560	C	0.921940	0.814822	0.773833
	C13561	C	0.952819	0.752362	0.794324
	C13562	C	0.917609	0.752879	0.871703
	C13563	C	0.928818	0.690875	0.858451
	C13564	C	0.928831	0.814709	0.858458
	C13565	C	0.925585	0.752846	0.862840
	C13566	C	0.896457	0.462519	0.882203
	C13567	C	0.948546	0.462389	0.751148
	C13568	C	0.895890	0.462378	0.885524
	C13569	C	0.896397	0.543267	0.882204
	C13570	C	0.895897	0.543357	0.885531
	C13571	C	0.948533	0.543214	0.751127
	C13572	C	0.917626	0.252646	0.871635
	C13573	C	0.928996	0.190630	0.858463
	C13574	C	0.928926	0.314539	0.858419
	C13575	C	0.925652	0.252646	0.862792
	C13576	C	0.951715	0.043274	0.746848
	C13577	C	0.963138	0.252743	0.765196
	C13578	C	0.933011	0.252227	0.760535
	C13579	C	0.887495	0.253224	0.867060
	C13580	C	0.954824	0.190448	0.789572
	C13581	C	0.954702	0.314842	0.789565
	C13582	C	0.960414	0.252749	0.775538
	C13583	C	0.925042	0.252402	0.769420
	C13584	C	0.890225	0.753022	0.856727
	C13585	C	0.892167	0.815059	0.851974
	C13586	C	0.892173	0.690937	0.851989
	C13587	C	0.890200	0.253170	0.856719
	C13588	C	0.892122	0.315285	0.851962
	C13589	C	0.892139	0.190991	0.851973
	C13590	C	0.921824	0.190583	0.773825
	C13591	C	0.958524	0.190577	0.780277
	C13592	C	0.958419	0.314866	0.780274
	C13593	C	0.921847	0.314342	0.773792
	C13594	C	0.952834	0.252583	0.794304
	C13595	C	0.897879	0.043259	0.882422
	C13596	C	0.955514	0.043299	0.748069
	C13597	C	0.951760	0.962170	0.746861
	C13598	C	0.897884	0.962500	0.882419
	C13599	C	0.955506	0.962364	0.748076
	N13600	N	0.890576	0.070239	0.810641
	N13601	N	0.890560	0.935545	0.810630
	N13602	N	0.890491	0.435400	0.810627
	N13603	N	0.890558	0.570086	0.810621
	N13604	N	0.897614	0.435624	0.884019
	N13605	N	0.897581	0.570160	0.884015
	N13606	N	0.897572	0.070115	0.884052
	N13607	N	0.897559	0.935546	0.884059
	O13608	O	0.960734	0.694548	0.933963
	O13609	O	0.960799	0.810717	0.933965
	O13610	O	0.850308	0.694368	0.957313
	O13611	O	0.850304	0.810737	0.957283
	O13612	O	0.850317	0.194798	0.957308
	O13613	O	0.850301	0.311186	0.957289
	O13614	O	0.851523	0.694300	0.937390
	O13615	O	0.851396	0.810902	0.937325
	O13616	O	0.851408	0.194740	0.937344
	O13617	O	0.851538	0.311394	0.937430
	O13618	O	0.964000	0.694640	0.955186
	O13619	O	0.964019	0.810560	0.955172
	O13620	O	0.963996	0.195119	0.955202
	O13621	O	0.964072	0.311496	0.955257
	O13622	O	0.960616	0.194697	0.934009
	O13623	O	0.960767	0.310766	0.933920
	O13624	O	0.912971	0.694710	0.894819
	O13625	O	0.884879	0.694430	0.894910
	O13626	O	0.926828	0.694989	0.995865
	O13627	O	0.926810	0.811063	0.995835
	O13628	O	0.898161	0.694473	0.996362
	O13629	O	0.898022	0.810704	0.996429
	O13630	O	0.884676	0.810722	0.894835
	O13631	O	0.913007	0.811091	0.894846
	O13632	O	0.912840	0.194921	0.894891
	O13633	O	0.884817	0.195240	0.894863
	O13634	O	0.926758	0.194946	0.995819
	O13635	O	0.926762	0.311076	0.995834
	O13636	O	0.897945	0.194960	0.996464
	O13637	O	0.898039	0.311272	0.996409
	O13638	O	0.884785	0.311669	0.894859
	O13639	O	0.913032	0.311100	0.894808
	H13640	H	0.865828	0.643821	0.969748
	H13641	H	0.865683	0.861290	0.969809
	H13642	H	0.865702	0.144187	0.969815
	H13643	H	0.865712	0.362068	0.969790
	H13644	H	0.863386	0.862409	0.924192
	H13645	H	0.863880	0.642979	0.924412
	H13646	H	0.863925	0.362943	0.924414
	H13647	H	0.863480	0.143415	0.924192
	H13648	H	0.974955	0.064612	0.941565
	H13649	H	0.972569	0.064283	0.943261
	H13650	H	0.972582	0.941158	0.943264
	H13651	H	0.974964	0.941345	0.941577
	H13652	H	0.979770	0.064990	0.942440
	H13653	H	0.979776	0.941023	0.942470
	H13654	H	0.845447	0.064548	0.942958
	H13655	H	0.845429	0.941483	0.942931
	H13656	H	0.837154	0.064547	0.938645
	H13657	H	0.837230	0.940952	0.938661
	H13658	H	0.824477	0.064342	0.942040
	H13659	H	0.824557	0.940735	0.942025
	H13660	H	0.835537	0.440869	0.951834
	H13661	H	0.841369	0.440933	0.949832
	H13662	H	0.827676	0.441156	0.948344
	H13663	H	0.976750	0.440823	0.944898
	H13664	H	0.975691	0.441206	0.944543
	H13665	H	0.975639	0.441378	0.943913
	H13666	H	0.841387	0.564494	0.949816
	H13667	H	0.835571	0.564335	0.951821
	H13668	H	0.975518	0.564449	0.943941
	H13669	H	0.975691	0.564813	0.944527
	H13670	H	0.976777	0.564857	0.944965
	H13671	H	0.827660	0.564163	0.948406
	H13672	H	0.952268	0.644494	0.968284
	H13673	H	0.952103	0.861045	0.968200
	H13674	H	0.952052	0.144908	0.968180
	H13675	H	0.952194	0.361398	0.968256
	H13676	H	0.875141	0.642962	0.908948
	H13677	H	0.928467	0.644431	0.907292
	H13678	H	0.928145	0.861382	0.907513
	H13679	H	0.874641	0.862256	0.908732
	H13680	H	0.945433	0.644289	0.921423
	H13681	H	0.945057	0.861435	0.921607
	H13682	H	0.939033	0.644690	0.982992
	H13683	H	0.938860	0.861076	0.982887
	H13684	H	0.897741	0.441098	0.881154
	H13685	H	0.913173	0.441310	1.008752
	H13686	H	0.901783	0.441595	0.883260
	H13687	H	0.901422	0.441580	0.885713
	H13688	H	0.917035	0.440779	1.006278
	H13689	H	0.916530	0.441152	1.008015
	H13690	H	0.913055	0.564243	1.008729
	H13691	H	0.897668	0.564662	0.881100
	H13692	H	0.916533	0.564617	1.008073
	H13693	H	0.916991	0.564783	1.006322
	H13694	H	0.901367	0.564661	0.885671
	H13695	H	0.901718	0.565098	0.883194
	H13696	H	0.938732	0.144836	0.982848
	H13697	H	0.938903	0.361360	0.982932
	H13698	H	0.899388	0.064500	0.886385
	H13699	H	0.901278	0.064372	0.884780
	H13700	H	0.895047	0.064952	0.885852
	H13701	H	0.882663	0.861413	0.983932
	H13702	H	0.882796	0.643462	0.983873
	H13703	H	0.882691	0.362082	0.983904
	H13704	H	0.882666	0.144045	0.983937
	H13705	H	0.874748	0.143576	0.908763
	H13706	H	0.928418	0.144440	0.907324
	H13707	H	0.928296	0.361308	0.907411
	H13708	H	0.875238	0.363066	0.908958
	H13709	H	0.945344	0.144289	0.921466
	H13710	H	0.945212	0.361202	0.921547
	H13711	H	0.913306	0.064699	1.005724
	H13712	H	0.912378	0.064612	1.006332
	H13713	H	0.913022	0.064581	1.007565
	H13714	H	0.901357	0.940893	0.884768
	H13715	H	0.899343	0.940575	0.886434
	H13716	H	0.894986	0.941246	0.885850
	H13717	H	0.913299	0.941324	1.005738
	H13718	H	0.912329	0.941262	1.006350
	H13719	H	0.912932	0.941466	1.007544
	Zn13720	Zn	0.834940	0.680339	0.946490
	Zn13721	Zn	0.834924	0.825190	0.946466
	Zn13722	Zn	0.835020	0.180400	0.946510
	Zn13723	Zn	0.835006	0.325221	0.946481
	Zn13724	Zn	0.913906	0.679995	1.006722
	Zn13725	Zn	0.913882	0.825591	1.006719
	Zn13726	Zn	0.913921	0.180107	1.006719
	Zn13727	Zn	0.913928	0.325407	1.006714
	C13728	C	0.956667	0.752681	0.930766
	C13729	C	0.854380	0.752604	0.960512
	C13730	C	0.864729	0.752641	0.968934
	C13731	C	0.869564	0.691035	0.972911
	C13732	C	0.869504	0.814125	0.972945
	C13733	C	0.854373	0.252997	0.960516
	C13734	C	0.864665	0.253039	0.968962
	C13735	C	0.869467	0.191482	0.972952
	C13736	C	0.869477	0.314673	0.972946
	C13737	C	0.854992	0.752590	0.934136
	C13738	C	0.863018	0.752748	0.925284
	C13739	C	0.866109	0.814703	0.920849
	C13740	C	0.866389	0.690710	0.920972
	C13741	C	0.854957	0.253119	0.934130
	C13742	C	0.862935	0.253263	0.925254
	C13743	C	0.866393	0.315245	0.920953
	C13744	C	0.866122	0.191281	0.920826
	C13745	C	0.974510	0.043320	0.942899
	C13746	C	0.974532	0.962589	0.942896
	C13747	C	0.839633	0.043186	0.942283
	C13748	C	0.839619	0.962422	0.942296
	C13749	C	0.826917	0.043126	0.945676
	C13750	C	0.826893	0.962386	0.945657
	C13751	C	0.837501	0.462232	0.949666
	C13752	C	0.976991	0.462503	0.944631
	C13753	C	0.975916	0.462605	0.944232
	C13754	C	0.837522	0.543271	0.949663
	C13755	C	0.975872	0.543270	0.944242
	C13756	C	0.977015	0.543244	0.944631
	C13757	C	0.960843	0.752673	0.958530
	C13758	C	0.960894	0.253265	0.958577
	C13759	C	0.952801	0.752821	0.967296
	C13760	C	0.949217	0.691581	0.971502
	C13761	C	0.949116	0.814038	0.971448
	C13762	C	0.952797	0.253204	0.967321
	C13763	C	0.949052	0.191860	0.971431
	C13764	C	0.949150	0.314463	0.971483
	C13765	C	0.956653	0.252713	0.930740
	C13766	C	0.917028	0.752844	0.898048
	C13767	C	0.882165	0.752596	0.898514
	C13768	C	0.894042	0.752533	0.993188
	C13769	C	0.941556	0.691478	0.918325
	C13770	C	0.941357	0.814239	0.918438
	C13771	C	0.927307	0.752816	0.906519
	C13772	C	0.875538	0.752655	0.907875
	C13773	C	0.872595	0.690710	0.912368
	C13774	C	0.932172	0.691490	0.910473
	C13775	C	0.931981	0.814198	0.910588
	C13776	C	0.872318	0.814581	0.912248
	C13777	C	0.946244	0.752823	0.922380
	C13778	C	0.929997	0.752988	0.992504
	C13779	C	0.941924	0.691637	0.979671
	C13780	C	0.941824	0.814122	0.979613
	C13781	C	0.938111	0.752992	0.983750
	C13782	C	0.912568	0.462331	1.007761
	C13783	C	0.900505	0.462569	0.884348
	C13784	C	0.916012	0.462294	1.007048
	C13785	C	0.912518	0.543081	1.007743
	C13786	C	0.915979	0.543333	1.007062
	C13787	C	0.900496	0.543341	0.884331
	C13788	C	0.929945	0.253031	0.992490
	C13789	C	0.941713	0.191808	0.979575
	C13790	C	0.941817	0.314448	0.979629
	C13791	C	0.938046	0.253105	0.983733
	C13792	C	0.899572	0.043134	0.885199
	C13793	C	0.916998	0.252983	0.898070
	C13794	C	0.882133	0.253447	0.898478
	C13795	C	0.893947	0.253077	0.993221
	C13796	C	0.941489	0.191390	0.918363
	C13797	C	0.941401	0.314166	0.918416
	C13798	C	0.927249	0.252905	0.906550
	C13799	C	0.875470	0.253453	0.907833
	C13800	C	0.883698	0.752492	0.984766
	C13801	C	0.878904	0.814071	0.980787
	C13802	C	0.878974	0.690855	0.980757
	C13803	C	0.883630	0.252986	0.984795
	C13804	C	0.878883	0.314695	0.980787
	C13805	C	0.878868	0.191429	0.980791
	C13806	C	0.872356	0.191354	0.912234
	C13807	C	0.932080	0.191518	0.910524
	C13808	C	0.931994	0.314181	0.910578
	C13809	C	0.872615	0.315385	0.912352
	C13810	C	0.946231	0.252761	0.922366
	C13811	C	0.913112	0.043370	1.006217
	C13812	C	0.895209	0.043547	0.884657
	C13813	C	0.899578	0.962143	0.885212
	C13814	C	0.913093	0.962422	1.006223
	C13815	C	0.895175	0.962592	0.884647
	N13816	N	0.834906	0.070069	0.946505
	N13817	N	0.834884	0.935416	0.946482
	N13818	N	0.834904	0.435467	0.946465
	N13819	N	0.834867	0.570088	0.946447
	N13820	N	0.913915	0.435512	1.006722
	N13821	N	0.913908	0.570024	1.006719
	N13822	N	0.913931	0.070027	1.006717
	N13823	N	0.913877	0.935511	1.006731
