data_Molecule from HDF5

_cell_length_a		111.992311
_cell_length_b		19.189420
_cell_length_c		131.192324
_cell_angle_alpha	89.999789
_cell_angle_beta	92.663361
_cell_angle_gamma	89.996270
_symmetry_space_group_name_H-M	'P 1'
_symmetry_Int_Tables_number		1

loop_
	_symmetry_equiv_pos_as_xyz
	x,y,z

loop_
	_atom_site_label
	_atom_site_type_symbol
	_atom_site_fract_x
	_atom_site_fract_y
	_atom_site_fract_z
	O0	O	0.092585	0.694551	0.059477
	O1	O	0.092621	0.810621	0.059444
	O2	O	-0.016094	0.695002	0.084530
	O3	O	-0.015869	0.811007	0.084316
	O4	O	-0.016021	0.195141	0.084432
	O5	O	-0.015966	0.311116	0.084391
	O6	O	-0.017534	0.694471	0.062235
	O7	O	-0.017370	0.810389	0.062393
	O8	O	-0.017476	0.194825	0.062368
	O9	O	-0.017431	0.310959	0.062339
	O10	O	0.094592	0.695186	0.081574
	O11	O	0.094568	0.811244	0.081527
	O12	O	0.094561	0.195318	0.081580
	O13	O	0.094468	0.311287	0.081482
	O14	O	0.092594	0.194702	0.059401
	O15	O	0.092589	0.310685	0.059378
	O16	O	0.046552	0.694786	0.021930
	O17	O	0.021153	0.694414	0.022196
	O18	O	0.055422	0.695140	0.121267
	O19	O	0.055440	0.811232	0.121283
	O20	O	0.029998	0.694804	0.121964
	O21	O	0.030063	0.810814	0.121942
	O22	O	0.021025	0.810437	0.022130
	O23	O	0.046536	0.810637	0.021953
	O24	O	0.046461	0.194779	0.021911
	O25	O	0.021023	0.194757	0.022096
	O26	O	0.055494	0.194970	0.121377
	O27	O	0.055347	0.310910	0.121237
	O28	O	0.029945	0.194980	0.122012
	O29	O	0.030127	0.310997	0.121881
	O30	O	0.021072	0.310764	0.022176
	O31	O	0.046475	0.310798	0.021888
	H32	H	-0.001318	0.644907	0.096522
	H33	H	-0.001113	0.861335	0.096389
	H34	H	-0.001285	0.145208	0.096446
	H35	H	-0.001192	0.361213	0.096488
	H36	H	-0.005125	0.860783	0.049498
	H37	H	-0.005069	0.644110	0.049462
	H38	H	-0.004932	0.361062	0.049582
	H39	H	-0.005079	0.144296	0.049484
	H40	H	0.106137	0.063939	0.071044
	H41	H	0.106919	0.064355	0.070879
	H42	H	0.106886	0.940429	0.070795
	H43	H	0.106166	0.940951	0.070965
	H44	H	0.105244	0.064210	0.070333
	H45	H	0.105324	0.941454	0.070329
	H46	H	-0.029679	0.064524	0.075821
	H47	H	-0.029637	0.940939	0.075769
	H48	H	-0.027543	0.064320	0.075152
	H49	H	-0.027521	0.940924	0.075137
	H50	H	-0.027160	0.064572	0.072523
	H51	H	-0.027126	0.941165	0.072545
	H52	H	-0.029559	0.441138	0.073064
	H53	H	-0.029857	0.440953	0.073180
	H54	H	-0.029195	0.441132	0.073303
	H55	H	0.105350	0.441108	0.067602
	H56	H	0.108759	0.440554	0.068615
	H57	H	0.109318	0.440449	0.070870
	H58	H	-0.029833	0.564393	0.073212
	H59	H	-0.029552	0.564747	0.073061
	H60	H	0.109352	0.564044	0.070896
	H61	H	0.108747	0.563919	0.068681
	H62	H	0.105321	0.564100	0.067639
	H63	H	-0.029220	0.564271	0.073357
	H64	H	0.082032	0.645407	0.094287
	H65	H	0.082018	0.860862	0.094261
	H66	H	0.082027	0.144735	0.094294
	H67	H	0.082079	0.361751	0.094335
	H68	H	0.008751	0.644148	0.035009
	H69	H	0.061350	0.644666	0.033973
	H70	H	0.061260	0.860664	0.034050
	H71	H	0.008704	0.860730	0.035041
	H72	H	0.077861	0.644654	0.047430
	H73	H	0.077771	0.860403	0.047495
	H74	H	0.068014	0.645139	0.108601
	H75	H	0.067991	0.861104	0.108558
	H76	H	0.034189	0.441148	0.009351
	H77	H	0.045290	0.440791	0.134146
	H78	H	0.035259	0.441202	0.011514
	H79	H	0.034022	0.440652	0.012750
	H80	H	0.044348	0.441029	0.130993
	H81	H	0.045693	0.441021	0.132080
	H82	H	0.045317	0.564613	0.134135
	H83	H	0.034245	0.564118	0.009389
	H84	H	0.045746	0.564479	0.132060
	H85	H	0.044343	0.564230	0.130986
	H86	H	0.034046	0.564835	0.012768
	H87	H	0.035233	0.564419	0.011498
	H88	H	0.068028	0.144961	0.108612
	H89	H	0.068056	0.361367	0.108636
	H90	H	0.033196	0.064708	0.009556
	H91	H	0.031767	0.064626	0.009864
	H92	H	0.034642	0.064574	0.010779
	H93	H	0.015385	0.860944	0.109891
	H94	H	0.015133	0.644901	0.110014
	H95	H	0.015324	0.361071	0.109952
	H96	H	0.015232	0.144928	0.109934
	H97	H	0.008666	0.144302	0.034965
	H98	H	0.061205	0.144983	0.034011
	H99	H	0.061195	0.360650	0.033934
	H100	H	0.008888	0.361156	0.035114
	H101	H	0.077767	0.144899	0.047436
	H102	H	0.077740	0.360735	0.047384
	H103	H	0.043681	0.064027	0.134546
	H104	H	0.045298	0.063643	0.133963
	H105	H	0.045573	0.064314	0.131929
	H106	H	0.031768	0.941217	0.009812
	H107	H	0.033222	0.941611	0.009492
	H108	H	0.034791	0.941295	0.010757
	H109	H	0.043798	0.940936	0.134586
	H110	H	0.045366	0.941083	0.133947
	H111	H	0.045564	0.940672	0.131945
	Zn112	Zn	-0.029561	0.679966	0.073534
	Zn113	Zn	-0.029499	0.825481	0.073495
	Zn114	Zn	-0.029562	0.180142	0.073502
	Zn115	Zn	-0.029521	0.325405	0.073458
	Zn116	Zn	0.043777	0.680030	0.132678
	Zn117	Zn	0.043781	0.825252	0.132712
	Zn118	Zn	0.043727	0.179846	0.132702
	Zn119	Zn	0.043746	0.325435	0.132702
	C120	C	0.088728	0.752559	0.056379
	C121	C	-0.012155	0.753052	0.087550
	C122	C	-0.002213	0.753143	0.095643
	C123	C	0.002375	0.691858	0.099486
	C124	C	0.002514	0.814297	0.099414
	C125	C	-0.012130	0.253127	0.087517
	C126	C	-0.002203	0.253146	0.095615
	C127	C	0.002416	0.192028	0.099438
	C128	C	0.002462	0.314220	0.099465
	C129	C	-0.014230	0.752487	0.058987
	C130	C	-0.005884	0.752387	0.050349
	C131	C	-0.002018	0.813807	0.046289
	C132	C	-0.001975	0.691118	0.046264
	C133	C	-0.014193	0.252871	0.059050
	C134	C	-0.005847	0.252802	0.050377
	C135	C	-0.001897	0.314075	0.046328
	C136	C	-0.001993	0.191408	0.046269
	C137	C	0.106450	0.043049	0.070763
	C138	C	0.106450	0.962241	0.070733
	C139	C	-0.028869	0.043003	0.074953
	C140	C	-0.028837	0.962216	0.074944
	C141	C	-0.028477	0.043293	0.072299
	C142	C	-0.028467	0.962575	0.072294
	C143	C	-0.029656	0.462203	0.073214
	C144	C	0.104912	0.462375	0.068830
	C145	C	0.108318	0.461930	0.069881
	C146	C	-0.029665	0.543083	0.073221
	C147	C	0.108314	0.542844	0.069879
	C148	C	0.104930	0.542992	0.068848
	C149	C	0.091326	0.753242	0.084861
	C150	C	0.091278	0.253310	0.084843
	C151	C	0.082881	0.753097	0.093469
	C152	C	0.078926	0.692073	0.097498
	C153	C	0.078919	0.814099	0.097478
	C154	C	0.082844	0.253218	0.093423
	C155	C	0.078896	0.191940	0.097458
	C156	C	0.078934	0.314542	0.097471
	C157	C	0.088748	0.252654	0.056274
	C158	C	0.050366	0.752739	0.025091
	C159	C	0.017841	0.752381	0.025487
	C160	C	0.026183	0.752843	0.118846
	C161	C	0.074156	0.691497	0.044453
	C162	C	0.074112	0.813678	0.044479
	C163	C	0.060298	0.752641	0.033189
	C164	C	0.009503	0.752357	0.034145
	C165	C	0.005664	0.691127	0.038231
	C166	C	0.064997	0.691489	0.036977
	C167	C	0.064943	0.813693	0.037016
	C168	C	0.005621	0.813697	0.038251
	C169	C	0.078776	0.752597	0.048282
	C170	C	0.058699	0.753153	0.117990
	C171	C	0.071125	0.691998	0.105413
	C172	C	0.071128	0.814202	0.105395
	C173	C	0.067172	0.753103	0.109449
	C174	C	0.044263	0.462356	0.133921
	C175	C	0.034175	0.462216	0.011830
	C176	C	0.044707	0.462277	0.131822
	C177	C	0.044286	0.543160	0.133935
	C178	C	0.044710	0.543116	0.131838
	C179	C	0.034183	0.543314	0.011829
	C180	C	0.058723	0.252896	0.118023
	C181	C	0.071135	0.191843	0.105400
	C182	C	0.071153	0.314461	0.105405
	C183	C	0.067192	0.253058	0.109443
	C184	C	0.032612	0.043318	0.010041
	C185	C	0.050320	0.252823	0.025008
	C186	C	0.017849	0.252739	0.025481
	C187	C	0.026225	0.252995	0.118809
	C188	C	0.074094	0.191762	0.044425
	C189	C	0.074086	0.313872	0.044393
	C190	C	0.060262	0.252813	0.033110
	C191	C	0.009531	0.252751	0.034151
	C192	C	0.016228	0.752865	0.110757
	C193	C	0.011662	0.814126	0.106904
	C194	C	0.011520	0.691760	0.106968
	C195	C	0.016298	0.252911	0.110695
	C196	C	0.011634	0.314137	0.106928
	C197	C	0.011586	0.191839	0.106904
	C198	C	0.005627	0.191289	0.038214
	C199	C	0.064909	0.191799	0.036968
	C200	C	0.064901	0.313885	0.036930
	C201	C	0.005720	0.314136	0.038274
	C202	C	0.078775	0.252748	0.048191
	C203	C	0.044319	0.042790	0.133867
	C204	C	0.034084	0.043447	0.011289
	C205	C	0.032618	0.962527	0.010011
	C206	C	0.044360	0.962328	0.133866
	C207	C	0.034127	0.962336	0.011273
	N208	N	-0.029546	0.070100	0.073474
	N209	N	-0.029510	0.935564	0.073484
	N210	N	-0.029520	0.435428	0.073422
	N211	N	-0.029551	0.569930	0.073459
	N212	N	0.043762	0.435400	0.132739
	N213	N	0.043793	0.569878	0.132743
	N214	N	0.043724	0.069844	0.132751
	N215	N	0.043770	0.935339	0.132757
	O216	O	0.105339	0.694432	0.179208
	O217	O	0.105375	0.810369	0.179174
	O218	O	-0.004809	0.695010	0.205747
	O219	O	-0.004807	0.811186	0.205680
	O220	O	-0.004850	0.195200	0.205718
	O221	O	-0.004872	0.311256	0.205673
	O222	O	-0.007056	0.694420	0.183754
	O223	O	-0.007037	0.810514	0.183777
	O224	O	-0.007072	0.194619	0.183791
	O225	O	-0.007126	0.310639	0.183741
	O226	O	0.107835	0.694863	0.201214
	O227	O	0.107779	0.810779	0.201187
	O228	O	0.107691	0.194691	0.201110
	O229	O	0.107728	0.310638	0.201194
	O230	O	0.105293	0.194893	0.179151
	O231	O	0.105395	0.310726	0.179129
	O232	O	0.057772	0.694379	0.143173
	O233	O	0.032073	0.694328	0.144040
	O234	O	0.068239	0.695286	0.240596
	O235	O	0.068313	0.811120	0.240632
	O236	O	0.042720	0.695147	0.241720
	O237	O	0.042839	0.811075	0.241709
	O238	O	0.032206	0.810195	0.144089
	O239	O	0.057726	0.810385	0.143247
	O240	O	0.057745	0.194699	0.143152
	O241	O	0.032050	0.194177	0.144095
	O242	O	0.068250	0.194647	0.240645
	O243	O	0.068397	0.310737	0.240751
	O244	O	0.042799	0.194864	0.241645
	O245	O	0.042788	0.311036	0.241718
	O246	O	0.032175	0.310263	0.144162
	O247	O	0.057596	0.310477	0.143283
	H248	H	0.010415	0.645132	0.217259
	H249	H	0.010468	0.861794	0.217253
	H250	H	0.010447	0.144853	0.217205
	H251	H	0.010524	0.361944	0.217171
	H252	H	0.005534	0.860207	0.171089
	H253	H	0.005513	0.644543	0.171027
	H254	H	0.005427	0.360427	0.171046
	H255	H	0.005543	0.144256	0.171090
	H256	H	0.116855	0.064647	0.192927
	H257	H	0.120689	0.064222	0.193482
	H258	H	0.120718	0.941382	0.193500
	H259	H	0.116930	0.941262	0.192950
	H260	H	0.114837	0.064630	0.188669
	H261	H	0.114852	0.941288	0.188761
	H262	H	-0.019308	0.063941	0.195806
	H263	H	-0.019329	0.941232	0.195793
	H264	H	-0.018581	0.064518	0.195991
	H265	H	-0.018563	0.940827	0.195977
	H266	H	-0.017855	0.064877	0.195335
	H267	H	-0.017890	0.940756	0.195273
	H268	H	-0.020774	0.441230	0.193730
	H269	H	-0.021323	0.441026	0.195443
	H270	H	-0.017939	0.441203	0.193142
	H271	H	0.120225	0.441086	0.188361
	H272	H	0.121152	0.441212	0.190073
	H273	H	0.120257	0.441057	0.191118
	H274	H	-0.021228	0.564932	0.195472
	H275	H	-0.020814	0.564393	0.193760
	H276	H	0.120232	0.564380	0.191116
	H277	H	0.121126	0.564587	0.190021
	H278	H	0.120155	0.564339	0.188366
	H279	H	-0.017922	0.564128	0.193140
	H280	H	0.095185	0.644759	0.213817
	H281	H	0.095135	0.861298	0.213816
	H282	H	0.095252	0.144611	0.213902
	H283	H	0.095068	0.360468	0.213807
	H284	H	0.019562	0.644646	0.156744
	H285	H	0.072898	0.644459	0.154849
	H286	H	0.072952	0.860058	0.154750
	H287	H	0.019588	0.860175	0.156795
	H288	H	0.089988	0.644170	0.167760
	H289	H	0.090062	0.860304	0.167644
	H290	H	0.080930	0.644719	0.227951
	H291	H	0.080931	0.861208	0.227967
	H292	H	0.043565	0.441194	0.134541
	H293	H	0.058189	0.441247	0.252773
	H294	H	0.041700	0.441191	0.133072
	H295	H	0.042002	0.441105	0.131569
	H296	H	0.056684	0.441471	0.250864
	H297	H	0.057890	0.441261	0.251280
	H298	H	0.058160	0.564469	0.252721
	H299	H	0.043634	0.564412	0.134635
	H300	H	0.057757	0.564746	0.251249
	H301	H	0.056567	0.564706	0.250867
	H302	H	0.042031	0.564396	0.131547
	H303	H	0.041704	0.564441	0.133092
	H304	H	0.081086	0.144360	0.228120
	H305	H	0.080927	0.360574	0.228019
	H306	H	0.041978	0.064178	0.131826
	H307	H	0.041768	0.064693	0.133280
	H308	H	0.044102	0.064537	0.131030
	H309	H	0.027557	0.861708	0.230133
	H310	H	0.027496	0.645352	0.230138
	H311	H	0.027638	0.361600	0.230085
	H312	H	0.027521	0.144803	0.230107
	H313	H	0.019575	0.144300	0.156812
	H314	H	0.072942	0.144590	0.154777
	H315	H	0.072910	0.360429	0.154760
	H316	H	0.019455	0.360559	0.156735
	H317	H	0.090083	0.144729	0.167654
	H318	H	0.090032	0.360915	0.167597
	H319	H	0.056912	0.064970	0.253398
	H320	H	0.057912	0.064174	0.252842
	H321	H	0.057838	0.064136	0.251584
	H322	H	0.041821	0.941035	0.133327
	H323	H	0.041939	0.941115	0.131798
	H324	H	0.044155	0.940854	0.131027
	H325	H	0.056969	0.941327	0.253429
	H326	H	0.057985	0.941357	0.252940
	H327	H	0.057944	0.940964	0.251561
	Zn328	Zn	-0.018721	0.679855	0.195211
	Zn329	Zn	-0.018800	0.825465	0.195125
	Zn330	Zn	-0.018769	0.179908	0.195226
	Zn331	Zn	-0.018804	0.325432	0.195110
	Zn332	Zn	0.056721	0.680089	0.252131
	Zn333	Zn	0.056852	0.825376	0.252233
	Zn334	Zn	0.056748	0.180124	0.252149
	Zn335	Zn	0.056870	0.325348	0.252184
	C336	C	0.101382	0.752409	0.176191
	C337	C	-0.000847	0.753165	0.208699
	C338	C	0.009443	0.753427	0.216416
	C339	C	0.014239	0.692178	0.220077
	C340	C	0.014267	0.814715	0.220083
	C341	C	-0.000884	0.253288	0.208676
	C342	C	0.009420	0.253481	0.216439
	C343	C	0.014238	0.192023	0.220092
	C344	C	0.014300	0.314799	0.220070
	C345	C	-0.003795	0.752460	0.180464
	C346	C	0.004688	0.752386	0.171903
	C347	C	0.008673	0.813431	0.167895
	C348	C	0.008648	0.691326	0.167868
	C349	C	-0.003815	0.252560	0.180474
	C350	C	0.004672	0.252369	0.171938
	C351	C	0.008569	0.313552	0.167864
	C352	C	0.008667	0.191212	0.167919
	C353	C	0.118901	0.043199	0.192292
	C354	C	0.118938	0.962516	0.192305
	C355	C	-0.018909	0.042995	0.195701
	C356	C	-0.018920	0.962330	0.195684
	C357	C	-0.018192	0.043266	0.195048
	C358	C	-0.018224	0.962379	0.195019
	C359	C	-0.020451	0.462436	0.194729
	C360	C	0.119389	0.462351	0.188637
	C361	C	0.120328	0.462368	0.190346
	C362	C	-0.020449	0.543339	0.194753
	C363	C	0.120311	0.543253	0.190330
	C364	C	0.119379	0.543122	0.188654
	C365	C	0.104515	0.752811	0.204479
	C366	C	0.104432	0.252603	0.204443
	C367	C	0.096025	0.752936	0.213014
	C368	C	0.092023	0.691654	0.216996
	C369	C	0.092021	0.814272	0.217004
	C370	C	0.095922	0.252558	0.212972
	C371	C	0.092014	0.191455	0.217021
	C372	C	0.091917	0.313626	0.216981
	C373	C	0.101377	0.252868	0.176140
	C374	C	0.061719	0.752330	0.146187
	C375	C	0.028842	0.752329	0.147353
	C376	C	0.038800	0.753273	0.238711
	C377	C	0.086231	0.691104	0.164838
	C378	C	0.086274	0.813458	0.164776
	C379	C	0.071991	0.752276	0.153953
	C380	C	0.020401	0.752412	0.155929
	C381	C	0.016441	0.691395	0.159944
	C382	C	0.076756	0.691236	0.157672
	C383	C	0.076794	0.813294	0.157617
	C384	C	0.016457	0.813405	0.159968
	C385	C	0.091108	0.752270	0.168410
	C386	C	0.071566	0.753174	0.237330
	C387	C	0.084123	0.691738	0.224841
	C388	C	0.084139	0.814212	0.224864
	C389	C	0.080154	0.752998	0.228862
	C390	C	0.057458	0.462192	0.252854
	C391	C	0.042377	0.462277	0.132419
	C392	C	0.057147	0.462488	0.251360
	C393	C	0.057446	0.542995	0.252824
	C394	C	0.057086	0.543388	0.251354
	C395	C	0.042370	0.543088	0.132433
	C396	C	0.071611	0.252656	0.237419
	C397	C	0.084172	0.191384	0.224910
	C398	C	0.084079	0.313623	0.224871
	C399	C	0.080101	0.252451	0.228879
	C400	C	0.042358	0.043045	0.132620
	C401	C	0.061651	0.252580	0.146207
	C402	C	0.028841	0.252230	0.147421
	C403	C	0.038832	0.253012	0.238683
	C404	C	0.086244	0.191657	0.164798
	C405	C	0.086232	0.313847	0.164769
	C406	C	0.071931	0.252498	0.153987
	C407	C	0.020382	0.252426	0.155980
	C408	C	0.028545	0.753527	0.230899
	C409	C	0.023761	0.814774	0.227238
	C410	C	0.023720	0.692296	0.227232
	C411	C	0.028555	0.253211	0.230914
	C412	C	0.023783	0.314588	0.227244
	C413	C	0.023723	0.191954	0.227258
	C414	C	0.016465	0.191136	0.160013
	C415	C	0.076756	0.191484	0.157651
	C416	C	0.076742	0.313605	0.157624
	C417	C	0.016371	0.313674	0.159952
	C418	C	0.091101	0.252834	0.168400
	C419	C	0.057222	0.043353	0.252879
	C420	C	0.044566	0.043162	0.131821
	C421	C	0.042370	0.962248	0.132627
	C422	C	0.057275	0.962483	0.252918
	C423	C	0.044582	0.961974	0.131806
	N424	N	-0.018751	0.069908	0.195201
	N425	N	-0.018777	0.935451	0.195165
	N426	N	-0.018804	0.435484	0.195111
	N427	N	-0.018766	0.569952	0.195159
	N428	N	0.056790	0.435392	0.252151
	N429	N	0.056741	0.569946	0.252149
	N430	N	0.056718	0.070083	0.252194
	N431	N	0.056764	0.935527	0.252239
	O432	O	0.118652	0.694282	0.298441
	O433	O	0.118657	0.810513	0.298361
	O434	O	0.008423	0.694747	0.325297
	O435	O	0.008366	0.810905	0.325292
	O436	O	0.008445	0.194997	0.325237
	O437	O	0.008486	0.310975	0.325105
	O438	O	0.006001	0.694634	0.303327
	O439	O	0.005951	0.810594	0.303299
	O440	O	0.005885	0.194941	0.303198
	O441	O	0.006008	0.311083	0.303293
	O442	O	0.121109	0.694648	0.320348
	O443	O	0.121182	0.810675	0.320375
	O444	O	0.121231	0.194732	0.320437
	O445	O	0.121245	0.310791	0.320427
	O446	O	0.118647	0.194278	0.298388
	O447	O	0.118687	0.310293	0.298397
	O448	O	0.070891	0.694054	0.262532
	O449	O	0.045268	0.694720	0.263685
	O450	O	0.081811	0.695135	0.359907
	O451	O	0.081959	0.811024	0.359987
	O452	O	0.056475	0.694915	0.360886
	O453	O	0.056333	0.810970	0.361053
	O454	O	0.045307	0.810578	0.263742
	O455	O	0.070910	0.810203	0.262587
	O456	O	0.070824	0.194523	0.262552
	O457	O	0.045351	0.194972	0.263721
	O458	O	0.081784	0.194986	0.359888
	O459	O	0.081874	0.311030	0.359968
	O460	O	0.056295	0.195188	0.360937
	O461	O	0.056234	0.311378	0.361051
	O462	O	0.045412	0.311098	0.263740
	O463	O	0.070917	0.310633	0.262602
	H464	H	0.023772	0.644577	0.336797
	H465	H	0.023934	0.861616	0.336585
	H466	H	0.023825	0.144881	0.336655
	H467	H	0.023787	0.361283	0.336595
	H468	H	0.018563	0.860579	0.290632
	H469	H	0.018460	0.644804	0.290593
	H470	H	0.018530	0.361345	0.290535
	H471	H	0.018628	0.144798	0.290644
	H472	H	0.131215	0.064322	0.308508
	H473	H	0.131454	0.064966	0.309575
	H474	H	0.131442	0.941486	0.309606
	H475	H	0.131253	0.941686	0.308482
	H476	H	0.132546	0.064385	0.307610
	H477	H	0.132578	0.940850	0.307548
	H478	H	-0.005525	0.064625	0.315730
	H479	H	-0.005513	0.940863	0.315792
	H480	H	-0.004638	0.064032	0.315315
	H481	H	-0.004647	0.941022	0.315353
	H482	H	-0.004672	0.064416	0.314144
	H483	H	-0.004658	0.941324	0.314125
	H484	H	-0.006197	0.440865	0.314826
	H485	H	-0.005831	0.441129	0.315145
	H486	H	-0.006041	0.441123	0.314277
	H487	H	0.128725	0.441404	0.309526
	H488	H	0.130397	0.441487	0.305777
	H489	H	0.133811	0.440880	0.305479
	H490	H	-0.005808	0.564402	0.315212
	H491	H	-0.006208	0.564141	0.314899
	H492	H	0.133808	0.564681	0.305492
	H493	H	0.130408	0.564646	0.305831
	H494	H	0.128782	0.564775	0.309568
	H495	H	-0.006078	0.564363	0.314241
	H496	H	0.108532	0.644925	0.333053
	H497	H	0.108566	0.860799	0.333007
	H498	H	0.108670	0.144632	0.333091
	H499	H	0.108529	0.361285	0.333008
	H500	H	0.032592	0.644748	0.276358
	H501	H	0.086215	0.643302	0.274063
	H502	H	0.086172	0.860484	0.274044
	H503	H	0.032704	0.860522	0.276413
	H504	H	0.103375	0.643234	0.286911
	H505	H	0.103332	0.860774	0.286900
	H506	H	0.094436	0.645024	0.347314
	H507	H	0.094484	0.860977	0.347250
	H508	H	0.057166	0.440809	0.253435
	H509	H	0.069256	0.440846	0.371482
	H510	H	0.055555	0.440897	0.252844
	H511	H	0.055370	0.441252	0.251794
	H512	H	0.070952	0.440987	0.372267
	H513	H	0.070039	0.441090	0.372348
	H514	H	0.069320	0.564698	0.371471
	H515	H	0.057211	0.564165	0.253411
	H516	H	0.070075	0.564200	0.372317
	H517	H	0.070970	0.564323	0.372262
	H518	H	0.055308	0.564209	0.251808
	H519	H	0.055566	0.564308	0.252881
	H520	H	0.094563	0.144599	0.347318
	H521	H	0.094434	0.361358	0.347234
	H522	H	0.055506	0.064437	0.251698
	H523	H	0.055502	0.064435	0.252626
	H524	H	0.056865	0.064648	0.251077
	H525	H	0.041112	0.861788	0.349411
	H526	H	0.040982	0.644783	0.349577
	H527	H	0.040925	0.361804	0.349495
	H528	H	0.040970	0.145041	0.349530
	H529	H	0.032799	0.144647	0.276426
	H530	H	0.086206	0.143859	0.274064
	H531	H	0.086240	0.360797	0.274057
	H532	H	0.032698	0.361347	0.276347
	H533	H	0.103348	0.143895	0.286940
	H534	H	0.103377	0.360625	0.286919
	H535	H	0.068200	0.064311	0.371949
	H536	H	0.069418	0.064776	0.373075
	H537	H	0.071877	0.064834	0.372846
	H538	H	0.055520	0.940967	0.252673
	H539	H	0.055472	0.941379	0.251694
	H540	H	0.056895	0.940705	0.251061
	H541	H	0.068259	0.941058	0.371902
	H542	H	0.069406	0.941341	0.373142
	H543	H	0.071949	0.941059	0.372854
	Zn544	Zn	-0.005568	0.680117	0.314802
	Zn545	Zn	-0.005634	0.825620	0.314777
	Zn546	Zn	-0.005575	0.180145	0.314786
	Zn547	Zn	-0.005599	0.325679	0.314730
	Zn548	Zn	0.070381	0.680201	0.371451
	Zn549	Zn	0.070408	0.825436	0.371481
	Zn550	Zn	0.070276	0.180139	0.371446
	Zn551	Zn	0.070366	0.325526	0.371466
	C552	C	0.114677	0.752275	0.295421
	C553	C	0.012403	0.752909	0.328252
	C554	C	0.022787	0.753022	0.335941
	C555	C	0.027624	0.691748	0.339607
	C556	C	0.027711	0.814491	0.339484
	C557	C	0.012459	0.253062	0.328138
	C558	C	0.022806	0.253109	0.335863
	C559	C	0.027648	0.191912	0.339524
	C560	C	0.027615	0.314506	0.339489
	C561	C	0.009205	0.752613	0.299995
	C562	C	0.017704	0.752597	0.291440
	C563	C	0.021700	0.813732	0.287448
	C564	C	0.021660	0.691493	0.287423
	C565	C	0.009234	0.253031	0.299964
	C566	C	0.017703	0.253058	0.291400
	C567	C	0.021676	0.314292	0.287371
	C568	C	0.021715	0.191754	0.287427
	C569	C	0.131722	0.043142	0.309018
	C570	C	0.131703	0.962619	0.309019
	C571	C	-0.005221	0.043142	0.315332
	C572	C	-0.005208	0.962329	0.315344
	C573	C	-0.005268	0.043479	0.314134
	C574	C	-0.005247	0.962459	0.314123
	C575	C	-0.005912	0.462193	0.314925
	C576	C	0.130574	0.462500	0.310223
	C577	C	0.132283	0.462482	0.306471
	C578	C	-0.005923	0.543039	0.314944
	C579	C	0.132253	0.543368	0.306488
	C580	C	0.130572	0.543338	0.310238
	C581	C	0.117861	0.752724	0.323656
	C582	C	0.117961	0.252796	0.323719
	C583	C	0.109373	0.752837	0.332198
	C584	C	0.105397	0.691658	0.336216
	C585	C	0.105413	0.814081	0.336190
	C586	C	0.109438	0.252933	0.332228
	C587	C	0.105500	0.191586	0.336238
	C588	C	0.105424	0.314303	0.336206
	C589	C	0.114693	0.252331	0.295410
	C590	C	0.074882	0.752011	0.265539
	C591	C	0.041956	0.752634	0.266964
	C592	C	0.052426	0.753000	0.357964
	C593	C	0.099542	0.690454	0.284054
	C594	C	0.099516	0.813497	0.284042
	C595	C	0.085184	0.751911	0.273288
	C596	C	0.033468	0.752533	0.275509
	C597	C	0.029507	0.691487	0.279538
	C598	C	0.090023	0.690406	0.276930
	C599	C	0.089991	0.813402	0.276923
	C600	C	0.029554	0.813683	0.279562
	C601	C	0.104351	0.752057	0.287693
	C602	C	0.085140	0.753033	0.356652
	C603	C	0.097563	0.691783	0.344110
	C604	C	0.097587	0.814099	0.344083
	C605	C	0.093586	0.752980	0.348100
	C606	C	0.069709	0.462364	0.371218
	C607	C	0.055814	0.462336	0.252283
	C608	C	0.070479	0.462411	0.372093
	C609	C	0.069704	0.543425	0.371217
	C610	C	0.070479	0.543012	0.372069
	C611	C	0.055782	0.543116	0.252302
	C612	C	0.085095	0.253025	0.356623
	C613	C	0.097639	0.191661	0.344110
	C614	C	0.097563	0.314304	0.344074
	C615	C	0.093606	0.252984	0.348096
	C616	C	0.055816	0.043150	0.252179
	C617	C	0.074839	0.252430	0.265579
	C618	C	0.042119	0.253070	0.267023
	C619	C	0.052286	0.253364	0.358016
	C620	C	0.099527	0.190975	0.284056
	C621	C	0.099558	0.313612	0.284065
	C622	C	0.085168	0.252338	0.273317
	C623	C	0.033558	0.253006	0.275528
	C624	C	0.042086	0.753140	0.350271
	C625	C	0.037254	0.814528	0.346603
	C626	C	0.037166	0.691840	0.346716
	C627	C	0.041976	0.253423	0.350286
	C628	C	0.037121	0.314655	0.346641
	C629	C	0.037154	0.192050	0.346662
	C630	C	0.029574	0.191680	0.279541
	C631	C	0.090011	0.190955	0.276925
	C632	C	0.090045	0.313646	0.276936
	C633	C	0.029526	0.314307	0.279489
	C634	C	0.104380	0.252258	0.287697
	C635	C	0.069209	0.043120	0.372264
	C636	C	0.057198	0.043004	0.251544
	C637	C	0.055844	0.962552	0.252198
	C638	C	0.069236	0.962386	0.372258
	C639	C	0.057247	0.962009	0.251560
	N640	N	-0.005645	0.070099	0.314728
	N641	N	-0.005641	0.935578	0.314722
	N642	N	-0.005612	0.435627	0.314694
	N643	N	-0.005584	0.570116	0.314715
	N644	N	0.070393	0.435683	0.371467
	N645	N	0.070375	0.570217	0.371449
	N646	N	0.070301	0.070096	0.371498
	N647	N	0.070354	0.935571	0.371470
	O648	O	0.132140	0.694765	0.417797
	O649	O	0.132174	0.810721	0.417744
	O650	O	0.021873	0.694860	0.444376
	O651	O	0.021864	0.810761	0.444422
	O652	O	0.021779	0.194769	0.444492
	O653	O	0.021850	0.310896	0.444382
	O654	O	0.019486	0.694499	0.422490
	O655	O	0.019306	0.810537	0.422417
	O656	O	0.019382	0.194646	0.422437
	O657	O	0.019439	0.310562	0.422494
	O658	O	0.134522	0.694848	0.439720
	O659	O	0.134557	0.810655	0.439701
	O660	O	0.134456	0.194781	0.439643
	O661	O	0.134536	0.311057	0.439690
	O662	O	0.132082	0.194424	0.417750
	O663	O	0.132165	0.310640	0.417689
	O664	O	0.084353	0.695226	0.381909
	O665	O	0.058993	0.694594	0.383040
	O666	O	0.095193	0.694902	0.479281
	O667	O	0.095199	0.810888	0.479272
	O668	O	0.069657	0.694726	0.480254
	O669	O	0.069613	0.810827	0.480240
	O670	O	0.058693	0.810618	0.382832
	O671	O	0.084487	0.810980	0.381815
	O672	O	0.084207	0.194676	0.382006
	O673	O	0.058746	0.194886	0.382923
	O674	O	0.095334	0.194931	0.479347
	O675	O	0.095164	0.311062	0.479239
	O676	O	0.069652	0.195045	0.480292
	O677	O	0.069704	0.311135	0.480125
	O678	O	0.058746	0.310893	0.382909
	O679	O	0.084413	0.310647	0.381880
	H680	H	0.037208	0.644326	0.455859
	H681	H	0.037268	0.861059	0.455887
	H682	H	0.037193	0.144387	0.455889
	H683	H	0.037041	0.361169	0.455957
	H684	H	0.031888	0.860780	0.409714
	H685	H	0.032135	0.644399	0.409865
	H686	H	0.032047	0.360810	0.409876
	H687	H	0.031929	0.144836	0.409757
	H688	H	0.145843	0.064781	0.427200
	H689	H	0.144983	0.064645	0.427727
	H690	H	0.145021	0.941396	0.427799
	H691	H	0.145779	0.941177	0.427251
	H692	H	0.147243	0.064617	0.427761
	H693	H	0.147169	0.941496	0.427735
	H694	H	0.009076	0.064568	0.434065
	H695	H	0.009043	0.941114	0.434064
	H696	H	0.008667	0.064192	0.433178
	H697	H	0.008625	0.940722	0.433252
	H698	H	0.007207	0.064316	0.432989
	H699	H	0.007224	0.941619	0.433022
	H700	H	0.009012	0.440970	0.433616
	H701	H	0.008210	0.441161	0.432881
	H702	H	0.008645	0.441260	0.434857
	H703	H	0.146401	0.441234	0.428974
	H704	H	0.145422	0.441277	0.428583
	H705	H	0.145339	0.441509	0.427983
	H706	H	0.008274	0.564652	0.432888
	H707	H	0.009015	0.564555	0.433601
	H708	H	0.145305	0.564793	0.428020
	H709	H	0.145469	0.564672	0.428673
	H710	H	0.146418	0.565019	0.428954
	H711	H	0.008677	0.564692	0.434928
	H712	H	0.121979	0.644812	0.452394
	H713	H	0.121983	0.860411	0.452374
	H714	H	0.121855	0.144564	0.452281
	H715	H	0.121998	0.361409	0.452398
	H716	H	0.046362	0.644401	0.395733
	H717	H	0.099710	0.645187	0.393399
	H718	H	0.099669	0.860450	0.393399
	H719	H	0.046115	0.860622	0.395555
	H720	H	0.116837	0.644871	0.406257
	H721	H	0.116832	0.860502	0.406287
	H722	H	0.107822	0.644619	0.466602
	H723	H	0.107850	0.861049	0.466584
	H724	H	0.069654	0.441355	0.370794
	H725	H	0.082278	0.441353	0.490017
	H726	H	0.070917	0.441370	0.370682
	H727	H	0.071450	0.441029	0.371326
	H728	H	0.083712	0.441382	0.491952
	H729	H	0.082520	0.441153	0.491539
	H730	H	0.082308	0.564964	0.490080
	H731	H	0.069598	0.564394	0.370782
	H732	H	0.082557	0.564429	0.491550
	H733	H	0.083730	0.564211	0.491979
	H734	H	0.071428	0.564692	0.371307
	H735	H	0.070916	0.564458	0.370672
	H736	H	0.107795	0.144593	0.466577
	H737	H	0.107948	0.361458	0.466654
	H738	H	0.070871	0.064222	0.369733
	H739	H	0.069080	0.064270	0.369965
	H740	H	0.072478	0.064203	0.371390
	H741	H	0.054400	0.860919	0.468755
	H742	H	0.054367	0.644257	0.468735
	H743	H	0.054267	0.361351	0.468702
	H744	H	0.054394	0.144469	0.468702
	H745	H	0.046019	0.144908	0.395523
	H746	H	0.099660	0.144345	0.393364
	H747	H	0.099662	0.360498	0.393390
	H748	H	0.046143	0.361017	0.395628
	H749	H	0.116823	0.144363	0.406232
	H750	H	0.116828	0.360593	0.406256
	H751	H	0.082606	0.064705	0.489008
	H752	H	0.081460	0.064849	0.490193
	H753	H	0.082497	0.064731	0.492200
	H754	H	0.069130	0.940437	0.369939
	H755	H	0.070905	0.941201	0.369733
	H756	H	0.072514	0.941607	0.371385
	H757	H	0.082598	0.941709	0.489021
	H758	H	0.081509	0.941255	0.490161
	H759	H	0.082457	0.941272	0.492138
	Zn760	Zn	0.007843	0.680163	0.433932
	Zn761	Zn	0.007850	0.825640	0.433982
	Zn762	Zn	0.007830	0.180217	0.433910
	Zn763	Zn	0.007830	0.325843	0.433938
	Zn764	Zn	0.083651	0.680240	0.490761
	Zn765	Zn	0.083561	0.825909	0.490683
	Zn766	Zn	0.083677	0.180292	0.490764
	Zn767	Zn	0.083611	0.325879	0.490677
	C768	C	0.128182	0.752720	0.414790
	C769	C	0.025863	0.752785	0.447371
	C770	C	0.036187	0.752667	0.455101
	C771	C	0.041021	0.691394	0.458735
	C772	C	0.041040	0.813991	0.458748
	C773	C	0.025784	0.252853	0.447421
	C774	C	0.036108	0.252722	0.455140
	C775	C	0.041016	0.191384	0.458736
	C776	C	0.040928	0.314141	0.458759
	C777	C	0.022701	0.752591	0.419174
	C778	C	0.031214	0.752619	0.410647
	C779	C	0.035120	0.813843	0.406599
	C780	C	0.035265	0.691364	0.406681
	C781	C	0.022679	0.252604	0.419172
	C782	C	0.031188	0.252760	0.410648
	C783	C	0.035187	0.313998	0.406676
	C784	C	0.035122	0.191643	0.406613
	C785	C	0.145618	0.043174	0.427688
	C786	C	0.145596	0.962438	0.427705
	C787	C	0.008572	0.043299	0.433730
	C788	C	0.008565	0.962242	0.433744
	C789	C	0.007162	0.043166	0.433514
	C790	C	0.007175	0.962507	0.433533
	C791	C	0.008420	0.462451	0.433442
	C792	C	0.146564	0.462680	0.428648
	C793	C	0.145585	0.462693	0.428290
	C794	C	0.008427	0.543466	0.433443
	C795	C	0.145602	0.543366	0.428310
	C796	C	0.146574	0.543459	0.428642
	C797	C	0.131271	0.752744	0.443010
	C798	C	0.131234	0.252931	0.442961
	C799	C	0.122774	0.752644	0.451551
	C800	C	0.118802	0.691606	0.455576
	C801	C	0.118824	0.813812	0.455563
	C802	C	0.122760	0.252897	0.451516
	C803	C	0.118760	0.191529	0.455505
	C804	C	0.118842	0.314337	0.455563
	C805	C	0.128156	0.252524	0.414736
	C806	C	0.088409	0.753083	0.384848
	C807	C	0.055595	0.752557	0.386242
	C808	C	0.065670	0.752686	0.477262
	C809	C	0.113060	0.691791	0.403392
	C810	C	0.113044	0.813706	0.403396
	C811	C	0.098731	0.752887	0.392590
	C812	C	0.047074	0.752517	0.394771
	C813	C	0.043125	0.691342	0.398810
	C814	C	0.103565	0.691923	0.396232
	C815	C	0.103537	0.813751	0.396241
	C816	C	0.042986	0.813760	0.398727
	C817	C	0.117907	0.752701	0.407023
	C818	C	0.098506	0.752841	0.476007
	C819	C	0.110967	0.691679	0.463463
	C820	C	0.110971	0.813904	0.463441
	C821	C	0.106999	0.752835	0.467479
	C822	C	0.082990	0.462440	0.489973
	C823	C	0.070973	0.462445	0.371120
	C824	C	0.083264	0.462677	0.491444
	C825	C	0.083011	0.543331	0.490019
	C826	C	0.083275	0.543358	0.491473
	C827	C	0.070969	0.543333	0.371103
	C828	C	0.098534	0.252973	0.476006
	C829	C	0.110957	0.191604	0.463420
	C830	C	0.111042	0.314362	0.463473
	C831	C	0.107026	0.252958	0.467467
	C832	C	0.070060	0.043068	0.370291
	C833	C	0.088286	0.252581	0.384927
	C834	C	0.055465	0.252906	0.386204
	C835	C	0.065680	0.252981	0.477234
	C836	C	0.112990	0.191304	0.403375
	C837	C	0.112994	0.313669	0.403384
	C838	C	0.098602	0.252396	0.392644
	C839	C	0.046979	0.252972	0.394745
	C840	C	0.055369	0.752615	0.469514
	C841	C	0.050564	0.813995	0.465877
	C842	C	0.050545	0.691268	0.465868
	C843	C	0.055349	0.252834	0.469488
	C844	C	0.050451	0.314150	0.465875
	C845	C	0.050537	0.191434	0.465866
	C846	C	0.042940	0.191802	0.398718
	C847	C	0.103453	0.191242	0.396263
	C848	C	0.103463	0.313574	0.396271
	C849	C	0.043018	0.314090	0.398783
	C850	C	0.117816	0.252533	0.407010
	C851	C	0.082454	0.043489	0.489906
	C852	C	0.071706	0.043427	0.371958
	C853	C	0.070096	0.962141	0.370277
	C854	C	0.082434	0.962749	0.489875
	C855	C	0.071741	0.962602	0.371958
	N856	N	0.007812	0.070147	0.433955
	N857	N	0.007819	0.935613	0.433978
	N858	N	0.007822	0.435731	0.433951
	N859	N	0.007827	0.570208	0.433960
	N860	N	0.083599	0.435684	0.490633
	N861	N	0.083629	0.570138	0.490685
	N862	N	0.083636	0.070245	0.490713
	N863	N	0.083553	0.935763	0.490684
	O864	O	0.143761	0.695057	0.538666
	O865	O	0.143803	0.811054	0.538618
	O866	O	0.035109	0.695133	0.563943
	O867	O	0.035030	0.810889	0.563961
	O868	O	0.035101	0.195004	0.564021
	O869	O	0.035109	0.311091	0.563941
	O870	O	0.032897	0.694606	0.541921
	O871	O	0.032928	0.810435	0.541921
	O872	O	0.032886	0.194882	0.541938
	O873	O	0.032886	0.310935	0.541912
	O874	O	0.145421	0.695683	0.560769
	O875	O	0.145400	0.811617	0.560706
	O876	O	0.145345	0.195434	0.560732
	O877	O	0.145476	0.311533	0.560847
	O878	O	0.143747	0.194982	0.538654
	O879	O	0.143707	0.311003	0.538752
	O880	O	0.097440	0.694982	0.501447
	O881	O	0.072002	0.694948	0.502191
	O882	O	0.106939	0.695814	0.600936
	O883	O	0.106751	0.811510	0.600874
	O884	O	0.081328	0.694656	0.601346
	O885	O	0.081261	0.810549	0.601334
	O886	O	0.072115	0.811111	0.502277
	O887	O	0.097373	0.810953	0.501396
	O888	O	0.097622	0.194779	0.501284
	O889	O	0.071931	0.194878	0.502162
	O890	O	0.106856	0.194805	0.600855
	O891	O	0.106799	0.310823	0.600909
	O892	O	0.081310	0.195061	0.601362
	O893	O	0.081397	0.311104	0.601239
	O894	O	0.072173	0.311151	0.502262
	O895	O	0.097374	0.311079	0.501434
	H896	H	0.049907	0.644791	0.575927
	H897	H	0.049917	0.860371	0.575863
	H898	H	0.049875	0.144630	0.576034
	H899	H	0.050095	0.361432	0.575787
	H900	H	0.045404	0.861063	0.529182
	H901	H	0.045457	0.644277	0.529209
	H902	H	0.045411	0.361208	0.529175
	H903	H	0.045508	0.145108	0.529271
	H904	H	0.156257	0.064248	0.548713
	H905	H	0.156013	0.064242	0.549630
	H906	H	0.156010	0.941156	0.549572
	H907	H	0.156370	0.941388	0.548646
	H908	H	0.157834	0.064669	0.548500
	H909	H	0.157906	0.941231	0.548491
	H910	H	0.021541	0.064580	0.553252
	H911	H	0.021548	0.941214	0.553261
	H912	H	0.021360	0.064778	0.553058
	H913	H	0.021407	0.941474	0.553027
	H914	H	0.020966	0.064653	0.553079
	H915	H	0.020988	0.941503	0.553042
	H916	H	0.022104	0.441216	0.553655
	H917	H	0.022101	0.441000	0.552894
	H918	H	0.021240	0.441292	0.554146
	H919	H	0.159975	0.440888	0.549472
	H920	H	0.158447	0.440614	0.551549
	H921	H	0.156260	0.441387	0.551470
	H922	H	0.022084	0.564316	0.552864
	H923	H	0.022111	0.564654	0.553615
	H924	H	0.156288	0.564658	0.551487
	H925	H	0.158500	0.564326	0.551565
	H926	H	0.160028	0.564204	0.549433
	H927	H	0.021173	0.564768	0.554115
	H928	H	0.133120	0.645844	0.573653
	H929	H	0.133049	0.862093	0.573625
	H930	H	0.133107	0.145312	0.573625
	H931	H	0.133048	0.361809	0.573660
	H932	H	0.059542	0.644369	0.514965
	H933	H	0.112204	0.644902	0.513425
	H934	H	0.112275	0.861373	0.513302
	H935	H	0.059489	0.861383	0.514918
	H936	H	0.128816	0.644685	0.526772
	H937	H	0.128923	0.861555	0.526668
	H938	H	0.119304	0.645992	0.588089
	H939	H	0.119217	0.861892	0.588061
	H940	H	0.083247	0.441445	0.489407
	H941	H	0.091684	0.441095	0.614083
	H942	H	0.084890	0.441486	0.489981
	H943	H	0.085029	0.441015	0.491037
	H944	H	0.098664	0.441564	0.613645
	H945	H	0.096083	0.440911	0.615519
	H946	H	0.091684	0.564273	0.614107
	H947	H	0.083265	0.564872	0.489486
	H948	H	0.096187	0.564607	0.615507
	H949	H	0.098824	0.564047	0.613652
	H950	H	0.085087	0.564501	0.491100
	H951	H	0.084873	0.564857	0.490014
	H952	H	0.119274	0.144950	0.588034
	H953	H	0.119204	0.361625	0.588094
	H954	H	0.085821	0.064434	0.490900
	H955	H	0.085061	0.064536	0.489426
	H956	H	0.084295	0.064247	0.492491
	H957	H	0.066442	0.860347	0.589323
	H958	H	0.066443	0.644760	0.589373
	H959	H	0.066662	0.361425	0.589231
	H960	H	0.066434	0.144702	0.589464
	H961	H	0.059560	0.145105	0.514978
	H962	H	0.112358	0.144794	0.513272
	H963	H	0.112293	0.361901	0.513361
	H964	H	0.059493	0.361288	0.514895
	H965	H	0.128891	0.144532	0.526695
	H966	H	0.128865	0.361715	0.526808
	H967	H	0.094926	0.064168	0.612834
	H968	H	0.095601	0.064491	0.612574
	H969	H	0.095731	0.064562	0.611731
	H970	H	0.085024	0.941132	0.489460
	H971	H	0.085676	0.941020	0.490849
	H972	H	0.084218	0.941515	0.492451
	H973	H	0.094885	0.940858	0.612794
	H974	H	0.095533	0.940964	0.612619
	H975	H	0.095590	0.941367	0.611744
	Zn976	Zn	0.021268	0.680244	0.553298
	Zn977	Zn	0.021268	0.825489	0.553280
	Zn978	Zn	0.021253	0.180320	0.553383
	Zn979	Zn	0.021254	0.325572	0.553371
	Zn980	Zn	0.095086	0.680115	0.612079
	Zn981	Zn	0.094920	0.825349	0.612111
	Zn982	Zn	0.095071	0.180058	0.612099
	Zn983	Zn	0.094961	0.325497	0.612124
	C984	C	0.139897	0.753083	0.535571
	C985	C	0.038937	0.752989	0.567034
	C986	C	0.048943	0.752633	0.575065
	C987	C	0.053601	0.691617	0.578896
	C988	C	0.053593	0.813631	0.578860
	C989	C	0.038982	0.253115	0.567067
	C990	C	0.048991	0.253046	0.575107
	C991	C	0.053605	0.191716	0.578979
	C992	C	0.053711	0.314414	0.578843
	C993	C	0.036171	0.752506	0.538629
	C994	C	0.044615	0.752667	0.530059
	C995	C	0.048560	0.814071	0.526023
	C996	C	0.048584	0.691361	0.526038
	C997	C	0.036153	0.252921	0.538625
	C998	C	0.044590	0.253129	0.530034
	C999	C	0.048542	0.314357	0.525993
	C1000	C	0.048595	0.191996	0.526059
	C1001	C	0.156447	0.043238	0.549249
	C1002	C	0.156478	0.962423	0.549227
	C1003	C	0.021409	0.043231	0.553191
	C1004	C	0.021409	0.962536	0.553181
	C1005	C	0.021007	0.043358	0.553220
	C1006	C	0.021006	0.962605	0.553211
	C1007	C	0.021867	0.462294	0.553260
	C1008	C	0.158881	0.462351	0.548860
	C1009	C	0.157367	0.462260	0.550989
	C1010	C	0.021866	0.543317	0.553254
	C1011	C	0.157376	0.543196	0.550987
	C1012	C	0.158901	0.543018	0.548837
	C1013	C	0.142204	0.753745	0.564080
	C1014	C	0.142200	0.253505	0.564133
	C1015	C	0.133913	0.753916	0.572766
	C1016	C	0.130047	0.692831	0.576858
	C1017	C	0.130001	0.815033	0.576845
	C1018	C	0.133841	0.253550	0.572758
	C1019	C	0.129969	0.192274	0.576813
	C1020	C	0.129930	0.314765	0.576850
	C1021	C	0.139875	0.253052	0.535597
	C1022	C	0.101255	0.753100	0.504538
	C1023	C	0.068786	0.752993	0.505523
	C1024	C	0.077457	0.752501	0.598198
	C1025	C	0.125137	0.691869	0.523816
	C1026	C	0.125196	0.814343	0.523746
	C1027	C	0.111252	0.753181	0.512591
	C1028	C	0.060319	0.752896	0.514097
	C1029	C	0.056387	0.691382	0.518127
	C1030	C	0.115924	0.691845	0.516388
	C1031	C	0.115974	0.814450	0.516320
	C1032	C	0.056365	0.814281	0.518108
	C1033	C	0.129865	0.753101	0.527559
	C1034	C	0.110114	0.753766	0.597598
	C1035	C	0.122394	0.692776	0.584877
	C1036	C	0.122339	0.815052	0.584863
	C1037	C	0.118494	0.753868	0.588960
	C1038	C	0.092289	0.462390	0.612506
	C1039	C	0.084623	0.462551	0.490565
	C1040	C	0.096744	0.462367	0.613923
	C1041	C	0.092314	0.543223	0.612511
	C1042	C	0.096810	0.543007	0.613920
	C1043	C	0.084633	0.543348	0.490594
	C1044	C	0.110067	0.252959	0.597560
	C1045	C	0.122301	0.192098	0.584820
	C1046	C	0.122262	0.314641	0.584848
	C1047	C	0.118386	0.253241	0.588906
	C1048	C	0.084951	0.043412	0.490302
	C1049	C	0.101359	0.253031	0.504458
	C1050	C	0.068779	0.253108	0.505498
	C1051	C	0.077496	0.253015	0.598206
	C1052	C	0.125212	0.191788	0.523729
	C1053	C	0.125206	0.314624	0.523786
	C1054	C	0.111362	0.253358	0.512508
	C1055	C	0.060295	0.253169	0.514059
	C1056	C	0.067493	0.752535	0.590109
	C1057	C	0.062772	0.813544	0.586321
	C1058	C	0.062781	0.691525	0.586358
	C1059	C	0.067507	0.253086	0.590160
	C1060	C	0.062884	0.314364	0.586302
	C1061	C	0.062780	0.191727	0.586440
	C1062	C	0.056377	0.191994	0.518125
	C1063	C	0.116032	0.191862	0.516279
	C1064	C	0.116019	0.314749	0.516331
	C1065	C	0.056347	0.314446	0.518072
	C1066	C	0.129891	0.253103	0.527544
	C1067	C	0.095170	0.043114	0.612553
	C1068	C	0.083428	0.043288	0.491914
	C1069	C	0.084890	0.962343	0.490284
	C1070	C	0.095128	0.962128	0.612534
	C1071	C	0.083391	0.962574	0.491863
	N1072	N	0.021203	0.070218	0.553319
	N1073	N	0.021208	0.935620	0.553300
	N1074	N	0.021210	0.435478	0.553336
	N1075	N	0.021199	0.569981	0.553303
	N1076	N	0.094958	0.435462	0.612106
	N1077	N	0.095012	0.569934	0.612084
	N1078	N	0.094975	0.069992	0.612114
	N1079	N	0.094914	0.935471	0.612096
	O1080	O	0.147832	0.695058	0.666030
	O1081	O	0.147899	0.811264	0.665948
	O1082	O	0.045286	0.695151	0.686020
	O1083	O	0.045331	0.810966	0.685969
	O1084	O	0.045228	0.195188	0.686016
	O1085	O	0.045344	0.311052	0.685967
	O1086	O	0.044149	0.694445	0.663370
	O1087	O	0.044149	0.810392	0.663274
	O1088	O	0.044208	0.194151	0.663273
	O1089	O	0.044309	0.310294	0.663364
	O1090	O	0.144846	0.695192	0.687121
	O1091	O	0.144826	0.811738	0.687098
	O1092	O	0.144853	0.194572	0.687096
	O1093	O	0.144791	0.311257	0.687062
	O1094	O	0.147810	0.194550	0.665973
	O1095	O	0.147777	0.310727	0.666002
	O1096	O	0.107857	0.694911	0.623644
	O1097	O	0.083083	0.693911	0.623390
	O1098	O	0.109734	0.694696	0.729864
	O1099	O	0.109634	0.810894	0.729827
	O1100	O	0.085207	0.694935	0.728419
	O1101	O	0.085290	0.810948	0.728400
	O1102	O	0.083073	0.810017	0.623398
	O1103	O	0.107886	0.810783	0.623557
	O1104	O	0.107883	0.194442	0.623560
	O1105	O	0.082904	0.194372	0.623240
	O1106	O	0.109642	0.194631	0.729788
	O1107	O	0.109564	0.310902	0.729775
	O1108	O	0.085258	0.194292	0.728339
	O1109	O	0.085204	0.310702	0.728378
	O1110	O	0.083092	0.310438	0.623391
	O1111	O	0.107805	0.310333	0.623592
	H1112	H	0.058079	0.645492	0.699622
	H1113	H	0.058172	0.860847	0.699533
	H1114	H	0.058086	0.144714	0.699556
	H1115	H	0.058110	0.361298	0.699615
	H1116	H	0.056707	0.859956	0.650523
	H1117	H	0.056613	0.643937	0.650557
	H1118	H	0.056720	0.360697	0.650584
	H1119	H	0.056689	0.143424	0.650477
	H1120	H	0.161365	0.064610	0.677048
	H1121	H	0.159843	0.064438	0.676580
	H1122	H	0.159810	0.941190	0.676523
	H1123	H	0.161382	0.940829	0.677042
	H1124	H	0.161851	0.065125	0.678988
	H1125	H	0.161794	0.940944	0.678925
	H1126	H	0.035483	0.064163	0.671981
	H1127	H	0.035429	0.941319	0.671941
	H1128	H	0.031969	0.064552	0.670746
	H1129	H	0.031970	0.941257	0.670728
	H1130	H	0.028091	0.064687	0.673437
	H1131	H	0.028042	0.940755	0.673420
	H1132	H	0.034241	0.441184	0.674506
	H1133	H	0.033523	0.441283	0.673314
	H1134	H	0.033011	0.441294	0.676037
	H1135	H	0.165814	0.441052	0.679895
	H1136	H	0.160331	0.441142	0.683441
	H1137	H	0.155569	0.441375	0.681601
	H1138	H	0.033484	0.564827	0.673301
	H1139	H	0.034187	0.564632	0.674523
	H1140	H	0.155513	0.564443	0.681638
	H1141	H	0.160319	0.564622	0.683496
	H1142	H	0.165842	0.564319	0.679945
	H1143	H	0.033015	0.564550	0.676005
	H1144	H	0.132418	0.643759	0.700086
	H1145	H	0.132574	0.862721	0.700250
	H1146	H	0.132428	0.143263	0.700114
	H1147	H	0.132246	0.362183	0.700001
	H1148	H	0.070571	0.643883	0.636191
	H1149	H	0.120795	0.645128	0.637123
	H1150	H	0.120842	0.860735	0.637056
	H1151	H	0.070626	0.859629	0.636138
	H1152	H	0.135091	0.645163	0.652344
	H1153	H	0.135131	0.861002	0.652298
	H1154	H	0.120253	0.643518	0.715595
	H1155	H	0.120460	0.862447	0.715787
	H1156	H	0.090975	0.441260	0.611195
	H1157	H	0.096888	0.441535	0.739209
	H1158	H	0.094530	0.440994	0.608659
	H1159	H	0.097732	0.440983	0.609679
	H1160	H	0.096252	0.441408	0.741645
	H1161	H	0.095725	0.440925	0.740482
	H1162	H	0.096921	0.564705	0.739184
	H1163	H	0.090996	0.564358	0.611184
	H1164	H	0.095696	0.564538	0.740415
	H1165	H	0.096261	0.564412	0.741630
	H1166	H	0.097796	0.564252	0.609595
	H1167	H	0.094522	0.564929	0.608588
	H1168	H	0.120339	0.143520	0.715677
	H1169	H	0.120151	0.362005	0.715566
	H1170	H	0.094191	0.064201	0.611693
	H1171	H	0.094162	0.064159	0.612365
	H1172	H	0.095082	0.064385	0.611407
	H1173	H	0.072447	0.860973	0.714760
	H1174	H	0.072337	0.645357	0.714878
	H1175	H	0.072365	0.360918	0.714890
	H1176	H	0.072362	0.144535	0.714818
	H1177	H	0.070538	0.143469	0.636066
	H1178	H	0.120724	0.144185	0.637146
	H1179	H	0.120828	0.360828	0.637088
	H1180	H	0.070618	0.361088	0.636198
	H1181	H	0.134980	0.144133	0.652395
	H1182	H	0.135075	0.361025	0.652351
	H1183	H	0.097357	0.064337	0.744148
	H1184	H	0.100544	0.064472	0.743101
	H1185	H	0.101108	0.064687	0.739042
	H1186	H	0.094124	0.941311	0.612284
	H1187	H	0.094196	0.940933	0.611684
	H1188	H	0.095102	0.940525	0.611373
	H1189	H	0.097309	0.941260	0.744232
	H1190	H	0.100586	0.940827	0.743203
	H1191	H	0.101176	0.940562	0.739043
	Zn1192	Zn	0.032299	0.680327	0.674553
	Zn1193	Zn	0.032361	0.825655	0.674525
	Zn1194	Zn	0.032361	0.180249	0.674528
	Zn1195	Zn	0.032417	0.325667	0.674490
	Zn1196	Zn	0.097389	0.680234	0.740559
	Zn1197	Zn	0.097429	0.825602	0.740670
	Zn1198	Zn	0.097375	0.180224	0.740607
	Zn1199	Zn	0.097373	0.325662	0.740643
	C1200	C	0.144490	0.753118	0.662484
	C1201	C	0.048643	0.753077	0.689521
	C1202	C	0.057309	0.752946	0.698627
	C1203	C	0.061318	0.692093	0.702966
	C1204	C	0.061354	0.814007	0.702907
	C1205	C	0.048625	0.253061	0.689517
	C1206	C	0.057333	0.253001	0.698603
	C1207	C	0.061330	0.191716	0.702911
	C1208	C	0.061347	0.314148	0.702943
	C1209	C	0.047383	0.752269	0.660007
	C1210	C	0.055817	0.751996	0.651414
	C1211	C	0.059792	0.812994	0.647341
	C1212	C	0.059732	0.690836	0.647370
	C1213	C	0.047496	0.252233	0.659993
	C1214	C	0.055887	0.252096	0.651385
	C1215	C	0.059836	0.313593	0.647372
	C1216	C	0.059795	0.190608	0.647303
	C1217	C	0.160492	0.043223	0.677167
	C1218	C	0.160490	0.962333	0.677159
	C1219	C	0.033365	0.043116	0.672186
	C1220	C	0.033346	0.962610	0.672171
	C1221	C	0.029466	0.043297	0.674875
	C1222	C	0.029444	0.962340	0.674864
	C1223	C	0.033491	0.462520	0.674064
	C1224	C	0.164029	0.462309	0.677897
	C1225	C	0.158501	0.462502	0.681395
	C1226	C	0.033442	0.543447	0.674064
	C1227	C	0.158474	0.543385	0.681417
	C1228	C	0.164050	0.543117	0.677893
	C1229	C	0.141366	0.753477	0.690308
	C1230	C	0.141336	0.252887	0.690263
	C1231	C	0.133164	0.753348	0.699117
	C1232	C	0.129671	0.691472	0.703511
	C1233	C	0.129766	0.815002	0.703608
	C1234	C	0.133201	0.252805	0.699141
	C1235	C	0.129734	0.190918	0.703553
	C1236	C	0.129626	0.314601	0.703493
	C1237	C	0.144456	0.252664	0.662479
	C1238	C	0.111218	0.752950	0.627116
	C1239	C	0.079808	0.751911	0.626694
	C1240	C	0.081857	0.753028	0.724916
	C1241	C	0.131887	0.691979	0.648997
	C1242	C	0.131904	0.814059	0.648965
	C1243	C	0.119892	0.753021	0.636239
	C1244	C	0.071388	0.751744	0.635319
	C1245	C	0.067475	0.690717	0.639404
	C1246	C	0.123962	0.691970	0.640535
	C1247	C	0.123975	0.814067	0.640503
	C1248	C	0.067511	0.812935	0.639366
	C1249	C	0.135853	0.753079	0.653356
	C1250	C	0.112443	0.752828	0.726139
	C1251	C	0.122964	0.691239	0.712174
	C1252	C	0.123071	0.814888	0.712270
	C1253	C	0.119664	0.752963	0.716692
	C1254	C	0.097595	0.462650	0.739656
	C1255	C	0.095819	0.462299	0.609946
	C1256	C	0.096408	0.462208	0.740956
	C1257	C	0.097598	0.543325	0.739635
	C1258	C	0.096388	0.543193	0.740922
	C1259	C	0.095843	0.543320	0.609921
	C1260	C	0.112408	0.252794	0.726091
	C1261	C	0.123033	0.191034	0.712214
	C1262	C	0.122932	0.314553	0.712159
	C1263	C	0.119652	0.252802	0.716671
	C1264	C	0.094374	0.042942	0.612023
	C1265	C	0.111238	0.252407	0.627077
	C1266	C	0.079755	0.252381	0.626618
	C1267	C	0.081841	0.252535	0.724882
	C1268	C	0.131833	0.191238	0.648993
	C1269	C	0.131906	0.313893	0.648951
	C1270	C	0.119945	0.252507	0.636162
	C1271	C	0.071386	0.252239	0.635262
	C1272	C	0.073245	0.753145	0.715751
	C1273	C	0.069260	0.814086	0.711381
	C1274	C	0.069216	0.692198	0.711443
	C1275	C	0.073271	0.252655	0.715696
	C1276	C	0.069251	0.314037	0.711413
	C1277	C	0.069248	0.191481	0.711371
	C1278	C	0.067463	0.190630	0.639298
	C1279	C	0.123939	0.191219	0.640501
	C1280	C	0.124018	0.313754	0.640461
	C1281	C	0.067513	0.313750	0.639368
	C1282	C	0.135883	0.252629	0.653291
	C1283	C	0.098592	0.043079	0.742868
	C1284	C	0.095272	0.043119	0.611707
	C1285	C	0.094340	0.962425	0.612003
	C1286	C	0.098585	0.962393	0.742900
	C1287	C	0.095241	0.962212	0.611691
	N1288	N	0.032330	0.070147	0.674527
	N1289	N	0.032299	0.935652	0.674538
	N1290	N	0.032374	0.435662	0.674500
	N1291	N	0.032317	0.570210	0.674514
	N1292	N	0.097438	0.435361	0.740628
	N1293	N	0.097408	0.569918	0.740615
	N1294	N	0.097463	0.070139	0.740647
	N1295	N	0.097476	0.935601	0.740667
	O1296	O	0.085953	0.693814	0.805170
	O1297	O	0.086067	0.810589	0.805148
	O1298	O	0.042237	0.693490	0.817617
	O1299	O	0.042379	0.810318	0.817598
	O1300	O	0.042219	0.194557	0.817566
	O1301	O	0.042320	0.311484	0.817535
	O1302	O	0.047096	0.694419	0.792256
	O1303	O	0.047043	0.810826	0.792190
	O1304	O	0.047103	0.194687	0.792247
	O1305	O	0.047015	0.311141	0.792131
	O1306	O	0.081275	0.694425	0.830516
	O1307	O	0.081191	0.810634	0.830467
	O1308	O	0.081188	0.195180	0.830370
	O1309	O	0.081235	0.311556	0.830464
	O1310	O	0.086004	0.194498	0.805134
	O1311	O	0.086187	0.311118	0.805172
	O1312	O	0.104911	0.693844	0.755158
	O1313	O	0.082235	0.694532	0.749468
	O1314	O	0.046105	0.694622	0.873229
	O1315	O	0.046120	0.811158	0.873158
	O1316	O	0.023306	0.693824	0.867611
	O1317	O	0.023479	0.810922	0.867603
	O1318	O	0.082278	0.810997	0.749511
	O1319	O	0.104910	0.810410	0.755163
	O1320	O	0.104860	0.194477	0.755133
	O1321	O	0.082173	0.193909	0.749479
	O1322	O	0.046158	0.194624	0.873255
	O1323	O	0.046134	0.311174	0.873243
	O1324	O	0.023383	0.194718	0.867559
	O1325	O	0.023511	0.311661	0.867538
	O1326	O	0.082209	0.310532	0.749478
	O1327	O	0.104933	0.311478	0.755149
	H1328	H	0.036717	0.642212	0.833830
	H1329	H	0.036863	0.862218	0.833864
	H1330	H	0.036750	0.143184	0.833747
	H1331	H	0.036896	0.363714	0.833851
	H1332	H	0.057801	0.861821	0.778116
	H1333	H	0.057868	0.643046	0.778159
	H1334	H	0.057654	0.361957	0.778007
	H1335	H	0.057796	0.142905	0.778145
	H1336	H	0.100626	0.064181	0.815167
	H1337	H	0.093787	0.063986	0.811911
	H1338	H	0.093792	0.941229	0.811903
	H1339	H	0.100607	0.941254	0.815124
	H1340	H	0.101262	0.064282	0.824012
	H1341	H	0.101201	0.940913	0.824071
	H1342	H	0.037040	0.064317	0.801032
	H1343	H	0.037036	0.940724	0.801016
	H1344	H	0.034373	0.063956	0.800266
	H1345	H	0.034358	0.941054	0.800281
	H1346	H	0.031666	0.064056	0.802304
	H1347	H	0.031707	0.940779	0.802329
	H1348	H	0.039006	0.440788	0.799620
	H1349	H	0.034401	0.440860	0.797977
	H1350	H	0.040096	0.440969	0.805333
	H1351	H	0.092769	0.440839	0.822608
	H1352	H	0.090188	0.440822	0.819872
	H1353	H	0.091132	0.441310	0.817556
	H1354	H	0.034387	0.564001	0.797957
	H1355	H	0.039025	0.564305	0.799604
	H1356	H	0.091170	0.564667	0.817565
	H1357	H	0.090219	0.564555	0.819843
	H1358	H	0.092788	0.564262	0.822542
	H1359	H	0.040123	0.564702	0.805358
	H1360	H	0.070659	0.642945	0.844724
	H1361	H	0.070446	0.861989	0.844562
	H1362	H	0.070518	0.143701	0.844529
	H1363	H	0.070536	0.362704	0.844634
	H1364	H	0.070022	0.643055	0.762619
	H1365	H	0.099467	0.642026	0.771476
	H1366	H	0.099313	0.861959	0.771389
	H1367	H	0.069985	0.861981	0.762602
	H1368	H	0.091508	0.642228	0.788972
	H1369	H	0.091397	0.862047	0.788877
	H1370	H	0.058505	0.643205	0.860254
	H1371	H	0.058357	0.861999	0.860082
	H1372	H	0.098336	0.441487	0.739424
	H1373	H	0.033798	0.441029	0.886513
	H1374	H	0.099074	0.441437	0.741058
	H1375	H	0.098210	0.441448	0.741927
	H1376	H	0.033881	0.441198	0.878030
	H1377	H	0.036644	0.441093	0.881573
	H1378	H	0.033856	0.564480	0.886526
	H1379	H	0.098294	0.564913	0.739379
	H1380	H	0.036600	0.564436	0.881584
	H1381	H	0.033883	0.564058	0.878031
	H1382	H	0.098175	0.564280	0.741928
	H1383	H	0.099040	0.564908	0.741031
	H1384	H	0.058458	0.143381	0.860143
	H1385	H	0.058464	0.362677	0.860181
	H1386	H	0.093842	0.064273	0.738592
	H1387	H	0.093468	0.064186	0.741619
	H1388	H	0.098300	0.064465	0.737149
	H1389	H	0.028939	0.862299	0.851369
	H1390	H	0.028796	0.642378	0.851374
	H1391	H	0.028972	0.363331	0.851372
	H1392	H	0.028834	0.142986	0.851242
	H1393	H	0.069944	0.142749	0.762606
	H1394	H	0.099553	0.143061	0.771430
	H1395	H	0.099522	0.362955	0.771414
	H1396	H	0.069800	0.361807	0.762463
	H1397	H	0.091592	0.142909	0.788924
	H1398	H	0.091557	0.362780	0.788934
	H1399	H	0.029494	0.064250	0.883934
	H1400	H	0.031729	0.064055	0.884249
	H1401	H	0.033517	0.064549	0.882296
	H1402	H	0.093445	0.941168	0.741590
	H1403	H	0.093901	0.941251	0.738632
	H1404	H	0.098322	0.941281	0.737180
	H1405	H	0.029497	0.940800	0.883927
	H1406	H	0.031724	0.940903	0.884251
	H1407	H	0.033578	0.941024	0.882299
	Zn1408	Zn	0.034770	0.680028	0.803027
	Zn1409	Zn	0.034853	0.825335	0.803070
	Zn1410	Zn	0.034782	0.179884	0.803027
	Zn1411	Zn	0.034803	0.325460	0.803026
	Zn1412	Zn	0.031000	0.680124	0.882140
	Zn1413	Zn	0.030979	0.825714	0.882056
	Zn1414	Zn	0.030921	0.180265	0.882071
	Zn1415	Zn	0.030938	0.325589	0.882075
	C1416	C	0.087081	0.752140	0.800829
	C1417	C	0.041198	0.751978	0.821934
	C1418	C	0.037428	0.752168	0.832814
	C1419	C	0.035024	0.689992	0.837741
	C1420	C	0.035110	0.814414	0.837750
	C1421	C	0.041210	0.253133	0.821874
	C1422	C	0.037477	0.253466	0.832763
	C1423	C	0.035109	0.191104	0.837674
	C1424	C	0.035153	0.315767	0.837720
	C1425	C	0.049863	0.752580	0.788551
	C1426	C	0.057055	0.752500	0.779097
	C1427	C	0.060408	0.814274	0.774615
	C1428	C	0.060438	0.690691	0.774632
	C1429	C	0.049905	0.252830	0.788551
	C1430	C	0.057109	0.252537	0.779116
	C1431	C	0.060365	0.314342	0.774569
	C1432	C	0.060442	0.190524	0.774651
	C1433	C	0.096200	0.042939	0.815134
	C1434	C	0.096187	0.962399	0.815150
	C1435	C	0.035514	0.043070	0.801276
	C1436	C	0.035518	0.962200	0.801272
	C1437	C	0.032766	0.042865	0.803361
	C1438	C	0.032807	0.962030	0.803388
	C1439	C	0.036223	0.462333	0.799888
	C1440	C	0.093998	0.462263	0.821686
	C1441	C	0.091413	0.462258	0.818974
	C1442	C	0.036232	0.543041	0.799907
	C1443	C	0.091441	0.543265	0.818977
	C1444	C	0.093993	0.543030	0.821670
	C1445	C	0.078441	0.752490	0.834168
	C1446	C	0.078415	0.253273	0.834102
	C1447	C	0.071201	0.752469	0.843575
	C1448	C	0.067932	0.690654	0.848114
	C1449	C	0.067836	0.814331	0.848026
	C1450	C	0.071181	0.253094	0.843542
	C1451	C	0.067859	0.191210	0.848021
	C1452	C	0.067867	0.314968	0.848069
	C1453	C	0.087174	0.252797	0.800806
	C1454	C	0.103838	0.752089	0.759498
	C1455	C	0.078815	0.752737	0.752724
	C1456	C	0.024456	0.752260	0.863291
	C1457	C	0.093245	0.689980	0.785049
	C1458	C	0.093176	0.814214	0.784991
	C1459	C	0.100073	0.751982	0.770386
	C1460	C	0.070579	0.752630	0.761529
	C1461	C	0.067148	0.690732	0.765970
	C1462	C	0.097740	0.689915	0.775361
	C1463	C	0.097659	0.814121	0.775295
	C1464	C	0.067115	0.814401	0.765954
	C1465	C	0.090885	0.752115	0.789954
	C1466	C	0.049555	0.752786	0.869963
	C1467	C	0.061233	0.690662	0.856779
	C1468	C	0.061146	0.814429	0.856682
	C1469	C	0.057742	0.752640	0.861132
	C1470	C	0.031245	0.462380	0.885414
	C1471	C	0.098365	0.462645	0.741257
	C1472	C	0.034087	0.462388	0.880410
	C1473	C	0.031281	0.543407	0.885437
	C1474	C	0.034092	0.542884	0.880421
	C1475	C	0.098352	0.543382	0.741246
	C1476	C	0.049596	0.252932	0.870033
	C1477	C	0.061197	0.191075	0.856717
	C1478	C	0.061197	0.314978	0.856752
	C1479	C	0.057744	0.252992	0.861163
	C1480	C	0.094695	0.043106	0.740262
	C1481	C	0.103844	0.252974	0.759463
	C1482	C	0.078800	0.252249	0.752744
	C1483	C	0.024513	0.253105	0.863216
	C1484	C	0.093316	0.190740	0.785015
	C1485	C	0.093290	0.315096	0.785009
	C1486	C	0.100081	0.252954	0.770359
	C1487	C	0.070619	0.252322	0.761572
	C1488	C	0.028231	0.752257	0.852383
	C1489	C	0.030621	0.814446	0.847451
	C1490	C	0.030537	0.690095	0.847449
	C1491	C	0.028305	0.253192	0.852327
	C1492	C	0.030668	0.315610	0.847422
	C1493	C	0.030601	0.190954	0.847358
	C1494	C	0.067150	0.190393	0.765990
	C1495	C	0.097803	0.190828	0.775320
	C1496	C	0.097777	0.315142	0.775315
	C1497	C	0.067070	0.314248	0.765909
	C1498	C	0.090937	0.252857	0.789927
	C1499	C	0.030664	0.043280	0.883538
	C1500	C	0.099167	0.043264	0.738789
	C1501	C	0.094706	0.962477	0.740257
	C1502	C	0.030678	0.962382	0.883550
	C1503	C	0.099186	0.962187	0.738787
	N1504	N	0.034873	0.069792	0.803075
	N1505	N	0.034921	0.935252	0.803063
	N1506	N	0.034856	0.435408	0.802950
	N1507	N	0.034847	0.569932	0.802988
	N1508	N	0.030900	0.435458	0.882115
	N1509	N	0.030940	0.569950	0.882157
	N1510	N	0.030840	0.070199	0.882047
	N1511	N	0.030862	0.935669	0.882058
	O1512	O	0.082746	0.695040	0.936863
	O1513	O	0.082661	0.811334	0.936900
	O1514	O	-0.019389	0.694840	0.956816
	O1515	O	-0.019372	0.810844	0.956839
	O1516	O	-0.019435	0.194937	0.956872
	O1517	O	-0.019459	0.310994	0.956865
	O1518	O	-0.016418	0.694413	0.935712
	O1519	O	-0.016374	0.811100	0.935758
	O1520	O	-0.016299	0.194478	0.935733
	O1521	O	-0.016410	0.311162	0.935674
	O1522	O	0.083571	0.695296	0.959644
	O1523	O	0.083573	0.811298	0.959640
	O1524	O	0.083541	0.194867	0.959637
	O1525	O	0.083498	0.310864	0.959618
	O1526	O	0.082686	0.194763	0.936922
	O1527	O	0.082622	0.310604	0.936927
	O1528	O	0.043083	0.694709	0.894379
	O1529	O	0.018554	0.694298	0.892851
	O1530	O	0.045027	0.695067	0.999837
	O1531	O	0.045089	0.810916	0.999877
	O1532	O	0.020216	0.694879	0.999413
	O1533	O	0.020100	0.810949	0.999478
	O1534	O	0.018582	0.810752	0.892857
	O1535	O	0.042965	0.810933	0.894370
	O1536	O	0.043090	0.194548	0.894314
	O1537	O	0.018612	0.194866	0.892857
	O1538	O	0.045028	0.194945	0.999885
	O1539	O	0.045075	0.310799	0.999886
	O1540	O	0.020206	0.195129	0.999413
	O1541	O	0.020190	0.311162	0.999429
	O1542	O	0.018733	0.311134	0.892939
	O1543	O	0.042998	0.310730	0.894371
	H1544	H	-0.006774	0.644440	0.970531
	H1545	H	-0.006872	0.860971	0.970569
	H1546	H	-0.006876	0.145401	0.970561
	H1547	H	-0.006672	0.360832	0.970462
	H1548	H	-0.004117	0.862256	0.922613
	H1549	H	-0.004024	0.643227	0.922678
	H1550	H	-0.004011	0.362239	0.922685
	H1551	H	-0.004124	0.143439	0.922606
	H1552	H	0.097697	0.064738	0.950689
	H1553	H	0.098835	0.064215	0.948415
	H1554	H	0.098847	0.941368	0.948403
	H1555	H	0.097747	0.941108	0.950614
	H1556	H	0.093794	0.064746	0.950999
	H1557	H	0.093831	0.940994	0.950986
	H1558	H	-0.034729	0.064056	0.947074
	H1559	H	-0.034791	0.940803	0.947073
	H1560	H	-0.031330	0.064694	0.948355
	H1561	H	-0.031308	0.941180	0.948450
	H1562	H	-0.027228	0.064592	0.945912
	H1563	H	-0.027278	0.941068	0.945935
	H1564	H	-0.030354	0.440919	0.948265
	H1565	H	-0.027602	0.441437	0.946364
	H1566	H	-0.035068	0.440851	0.946629
	H1567	H	0.094350	0.440805	0.947266
	H1568	H	0.096324	0.441186	0.947296
	H1569	H	0.097104	0.441350	0.948363
	H1570	H	-0.027603	0.564324	0.946278
	H1571	H	-0.030371	0.564390	0.948248
	H1572	H	0.097144	0.564920	0.948363
	H1573	H	0.096335	0.564268	0.947221
	H1574	H	0.094318	0.564303	0.947166
	H1575	H	-0.035066	0.564652	0.946603
	H1576	H	0.071354	0.645378	0.972600
	H1577	H	0.071254	0.861293	0.972552
	H1578	H	0.071217	0.144838	0.972577
	H1579	H	0.071173	0.360949	0.972541
	H1580	H	0.007984	0.643269	0.907071
	H1581	H	0.055630	0.644246	0.908075
	H1582	H	0.055670	0.861651	0.908027
	H1583	H	0.007948	0.862033	0.906995
	H1584	H	0.069803	0.644595	0.923388
	H1585	H	0.069855	0.861432	0.923328
	H1586	H	0.057539	0.645106	0.987053
	H1587	H	0.057449	0.861257	0.987026
	H1588	H	0.029009	0.440836	0.886701
	H1589	H	0.032227	0.440461	1.009105
	H1590	H	0.025138	0.441175	0.881822
	H1591	H	0.027202	0.441405	0.878205
	H1592	H	0.031292	0.441511	1.012335
	H1593	H	0.030653	0.441240	1.010810
	H1594	H	0.032324	0.564278	1.009063
	H1595	H	0.029017	0.564545	0.886719
	H1596	H	0.030629	0.564285	1.010783
	H1597	H	0.031345	0.564513	1.012352
	H1598	H	0.027216	0.564543	0.878288
	H1599	H	0.025155	0.564822	0.881899
	H1600	H	0.057468	0.144852	0.987071
	H1601	H	0.057430	0.361110	0.987017
	H1602	H	0.029671	0.064546	0.880040
	H1603	H	0.028354	0.064582	0.881460
	H1604	H	0.032668	0.065008	0.880516
	H1605	H	0.007260	0.861126	0.985917
	H1606	H	0.007386	0.644612	0.985872
	H1607	H	0.007529	0.361032	0.985784
	H1608	H	0.007301	0.145133	0.985899
	H1609	H	0.007990	0.143551	0.907031
	H1610	H	0.055622	0.144712	0.908060
	H1611	H	0.055807	0.360174	0.907971
	H1612	H	0.008087	0.362382	0.907131
	H1613	H	0.069788	0.144743	0.923396
	H1614	H	0.069959	0.360295	0.923302
	H1615	H	0.031312	0.064306	1.011458
	H1616	H	0.032332	0.064361	1.012412
	H1617	H	0.034348	0.064636	1.011980
	H1618	H	0.028343	0.941236	0.881489
	H1619	H	0.029673	0.941575	0.880038
	H1620	H	0.032779	0.941345	0.880467
	H1621	H	0.031240	0.941372	1.011501
	H1622	H	0.032340	0.941131	1.012420
	H1623	H	0.034403	0.941038	1.012010
	Zn1624	Zn	-0.031573	0.680286	0.944596
	Zn1625	Zn	-0.031539	0.825378	0.944580
	Zn1626	Zn	-0.031443	0.180058	0.944594
	Zn1627	Zn	-0.031515	0.325520	0.944588
	Zn1628	Zn	0.033001	0.680029	1.010970
	Zn1629	Zn	0.032990	0.825332	1.011010
	Zn1630	Zn	0.032945	0.180122	1.011017
	Zn1631	Zn	0.032962	0.325324	1.011000
	C1632	C	0.079359	0.753162	0.933370
	C1633	C	-0.016052	0.752777	0.960353
	C1634	C	-0.007537	0.752704	0.969557
	C1635	C	-0.003592	0.691438	0.973919
	C1636	C	-0.003638	0.813997	0.973950
	C1637	C	-0.016102	0.253018	0.960369
	C1638	C	-0.007611	0.253095	0.969597
	C1639	C	-0.003705	0.192085	0.973974
	C1640	C	-0.003586	0.314098	0.973918
	C1641	C	-0.012963	0.752762	0.932517
	C1642	C	-0.004822	0.752730	0.923641
	C1643	C	-0.001370	0.814522	0.919201
	C1644	C	-0.001321	0.690932	0.919237
	C1645	C	-0.012932	0.252861	0.932470
	C1646	C	-0.004729	0.252889	0.923636
	C1647	C	-0.001246	0.314734	0.919245
	C1648	C	-0.001294	0.191013	0.919208
	C1649	C	0.097512	0.043327	0.949278
	C1650	C	0.097536	0.962582	0.949254
	C1651	C	-0.032665	0.043006	0.946895
	C1652	C	-0.032672	0.962234	0.946902
	C1653	C	-0.028593	0.043015	0.944391
	C1654	C	-0.028603	0.962458	0.944390
	C1655	C	-0.029682	0.462428	0.946586
	C1656	C	0.094364	0.462416	0.947923
	C1657	C	0.096360	0.462460	0.947975
	C1658	C	-0.029676	0.543090	0.946578
	C1659	C	0.096394	0.543224	0.947959
	C1660	C	0.094347	0.543303	0.947917
	C1661	C	0.080340	0.753327	0.962973
	C1662	C	0.080296	0.252891	0.962961
	C1663	C	0.072006	0.753333	0.971635
	C1664	C	0.068190	0.692170	0.975772
	C1665	C	0.068131	0.814395	0.975738
	C1666	C	0.072021	0.252935	0.971661
	C1667	C	0.068180	0.191758	0.975794
	C1668	C	0.068150	0.314077	0.975766
	C1669	C	0.079300	0.252600	0.933424
	C1670	C	0.046347	0.752939	0.897891
	C1671	C	0.015720	0.752550	0.896512
	C1672	C	0.016818	0.752923	0.995930
	C1673	C	0.066678	0.691577	0.919936
	C1674	C	0.066705	0.814398	0.919901
	C1675	C	0.054898	0.752997	0.907062
	C1676	C	0.008532	0.752631	0.905982
	C1677	C	0.005314	0.690808	0.910535
	C1678	C	0.058820	0.691504	0.911436
	C1679	C	0.058842	0.814439	0.911400
	C1680	C	0.005263	0.814530	0.910492
	C1681	C	0.070721	0.753035	0.924224
	C1682	C	0.048285	0.753036	0.996517
	C1683	C	0.060562	0.692029	0.983812
	C1684	C	0.060511	0.814321	0.983787
	C1685	C	0.056603	0.753129	0.987848
	C1686	C	0.033158	0.462142	1.009707
	C1687	C	0.027406	0.462358	0.880579
	C1688	C	0.031495	0.462511	1.011437
	C1689	C	0.033180	0.543176	1.009683
	C1690	C	0.031491	0.542990	1.011427
	C1691	C	0.027411	0.543322	0.880613
	C1692	C	0.048279	0.252872	0.996555
	C1693	C	0.060545	0.191770	0.983840
	C1694	C	0.060526	0.314142	0.983810
	C1695	C	0.056652	0.252943	0.987909
	C1696	C	0.029494	0.043153	0.881091
	C1697	C	0.046385	0.252601	0.897863
	C1698	C	0.015858	0.252969	0.896572
	C1699	C	0.016845	0.253145	0.995912
	C1700	C	0.066662	0.191490	0.919971
	C1701	C	0.066763	0.313479	0.919924
	C1702	C	0.054903	0.252523	0.907078
	C1703	C	0.008721	0.252930	0.906043
	C1704	C	0.008213	0.752866	0.986767
	C1705	C	0.004180	0.814133	0.982466
	C1706	C	0.004234	0.691512	0.982437
	C1707	C	0.008198	0.253100	0.986785
	C1708	C	0.004274	0.314166	0.982423
	C1709	C	0.004142	0.192047	0.982481
	C1710	C	0.005380	0.191093	0.910528
	C1711	C	0.058830	0.191523	0.911450
	C1712	C	0.058925	0.313473	0.911409
	C1713	C	0.005438	0.314686	0.910576
	C1714	C	0.070664	0.252507	0.924292
	C1715	C	0.032117	0.043110	1.011696
	C1716	C	0.032535	0.043418	0.881553
	C1717	C	0.029486	0.962595	0.881078
	C1718	C	0.032094	0.962450	1.011695
	C1719	C	0.032553	0.962359	0.881542
	N1720	N	-0.031500	0.069922	0.944592
	N1721	N	-0.031541	0.935407	0.944644
	N1722	N	-0.031598	0.435503	0.944649
	N1723	N	-0.031599	0.570047	0.944624
	N1724	N	0.032950	0.435515	1.010979
	N1725	N	0.032984	0.570042	1.010974
	N1726	N	0.032928	0.070026	1.011018
	N1727	N	0.032952	0.935476	1.011004
	O1728	O	0.230315	0.694628	0.054175
	O1729	O	0.230315	0.810564	0.054161
	O1730	O	0.120215	0.694523	0.080825
	O1731	O	0.120197	0.810624	0.080784
	O1732	O	0.120173	0.194973	0.080753
	O1733	O	0.120128	0.310751	0.080753
	O1734	O	0.117983	0.694287	0.058821
	O1735	O	0.118023	0.810588	0.058808
	O1736	O	0.117943	0.194235	0.058825
	O1737	O	0.117983	0.309955	0.058809
	O1738	O	0.232725	0.695380	0.076127
	O1739	O	0.232759	0.811425	0.076116
	O1740	O	0.232773	0.194926	0.076175
	O1741	O	0.232663	0.310897	0.076045
	O1742	O	0.230355	0.194778	0.054138
	O1743	O	0.230339	0.310875	0.054107
	O1744	O	0.182685	0.694822	0.018183
	O1745	O	0.157056	0.694495	0.019010
	O1746	O	0.193364	0.694966	0.115677
	O1747	O	0.193348	0.811061	0.115650
	O1748	O	0.167827	0.694488	0.116741
	O1749	O	0.167815	0.810441	0.116747
	O1750	O	0.157097	0.810420	0.019077
	O1751	O	0.182633	0.810718	0.018238
	O1752	O	0.182667	0.194595	0.018199
	O1753	O	0.157164	0.194350	0.019115
	O1754	O	0.193301	0.195253	0.115678
	O1755	O	0.193307	0.311079	0.115665
	O1756	O	0.167786	0.194820	0.116683
	O1757	O	0.167731	0.310711	0.116812
	O1758	O	0.157022	0.310178	0.019033
	O1759	O	0.182742	0.310580	0.018098
	H1760	H	0.135539	0.644780	0.092271
	H1761	H	0.135556	0.860693	0.092254
	H1762	H	0.135556	0.145032	0.092148
	H1763	H	0.135433	0.360743	0.092267
	H1764	H	0.130431	0.860433	0.046041
	H1765	H	0.130446	0.644242	0.046052
	H1766	H	0.130392	0.359634	0.045991
	H1767	H	0.130332	0.144097	0.045941
	H1768	H	0.244443	0.064989	0.063895
	H1769	H	0.243725	0.064376	0.064053
	H1770	H	0.243735	0.940774	0.064019
	H1771	H	0.244488	0.940991	0.063867
	H1772	H	0.245255	0.064868	0.064516
	H1773	H	0.245254	0.941398	0.064558
	H1774	H	0.107135	0.064293	0.069944
	H1775	H	0.107142	0.940822	0.069916
	H1776	H	0.106522	0.064290	0.069422
	H1777	H	0.106510	0.941016	0.069421
	H1778	H	0.105439	0.064863	0.069653
	H1779	H	0.105443	0.941676	0.069679
	H1780	H	0.104233	0.440687	0.072064
	H1781	H	0.106736	0.440480	0.072808
	H1782	H	0.103457	0.441314	0.069015
	H1783	H	0.244022	0.441060	0.065317
	H1784	H	0.243591	0.440886	0.064678
	H1785	H	0.243854	0.441406	0.064163
	H1786	H	0.106783	0.564251	0.072813
	H1787	H	0.104291	0.564177	0.072087
	H1788	H	0.243931	0.564525	0.064174
	H1789	H	0.243547	0.564919	0.064611
	H1790	H	0.243959	0.564650	0.065245
	H1791	H	0.103494	0.564415	0.069132
	H1792	H	0.220081	0.644930	0.088760
	H1793	H	0.220187	0.861510	0.088843
	H1794	H	0.220118	0.144748	0.088825
	H1795	H	0.220084	0.361295	0.088754
	H1796	H	0.144464	0.644135	0.031756
	H1797	H	0.197853	0.644411	0.029870
	H1798	H	0.197941	0.861108	0.029785
	H1799	H	0.144461	0.860454	0.031725
	H1800	H	0.214890	0.644349	0.042779
	H1801	H	0.215001	0.860964	0.042713
	H1802	H	0.206022	0.644763	0.103005
	H1803	H	0.206063	0.861066	0.103071
	H1804	H	0.167881	0.441270	0.007811
	H1805	H	0.184060	0.441033	0.126902
	H1806	H	0.168317	0.440605	0.007041
	H1807	H	0.169038	0.440925	0.007000
	H1808	H	0.180291	0.440630	0.125748
	H1809	H	0.182103	0.440818	0.125288
	H1810	H	0.184093	0.564195	0.126901
	H1811	H	0.167818	0.564238	0.007832
	H1812	H	0.182080	0.564385	0.125292
	H1813	H	0.180222	0.564291	0.125708
	H1814	H	0.169030	0.564128	0.006914
	H1815	H	0.168276	0.564394	0.006993
	H1816	H	0.205982	0.145093	0.103061
	H1817	H	0.205944	0.361093	0.102981
	H1818	H	0.168915	0.064292	0.008410
	H1819	H	0.169540	0.064340	0.008067
	H1820	H	0.167945	0.064626	0.007996
	H1821	H	0.152595	0.860575	0.105192
	H1822	H	0.152594	0.644514	0.105195
	H1823	H	0.152543	0.360929	0.105179
	H1824	H	0.152637	0.144936	0.105054
	H1825	H	0.144375	0.144262	0.031648
	H1826	H	0.197988	0.144078	0.029684
	H1827	H	0.197897	0.361240	0.029729
	H1828	H	0.144431	0.359742	0.031678
	H1829	H	0.215018	0.144331	0.042636
	H1830	H	0.214956	0.361155	0.042645
	H1831	H	0.182859	0.064095	0.127782
	H1832	H	0.182971	0.064545	0.126848
	H1833	H	0.181834	0.064862	0.126084
	H1834	H	0.169415	0.940763	0.008047
	H1835	H	0.168866	0.941168	0.008389
	H1836	H	0.167929	0.941294	0.008026
	H1837	H	0.182830	0.940738	0.127674
	H1838	H	0.182960	0.941235	0.126888
	H1839	H	0.181837	0.940898	0.126119
	Zn1840	Zn	0.106300	0.679727	0.070260
	Zn1841	Zn	0.106308	0.825465	0.070205
	Zn1842	Zn	0.106243	0.179915	0.070223
	Zn1843	Zn	0.106268	0.325197	0.070165
	Zn1844	Zn	0.181780	0.679814	0.127191
	Zn1845	Zn	0.181833	0.825478	0.127196
	Zn1846	Zn	0.181737	0.179953	0.127190
	Zn1847	Zn	0.181799	0.325157	0.127241
	C1848	C	0.226343	0.752557	0.051178
	C1849	C	0.124164	0.752642	0.083807
	C1850	C	0.134461	0.752755	0.091555
	C1851	C	0.139327	0.691652	0.095166
	C1852	C	0.139326	0.813801	0.095160
	C1853	C	0.124165	0.252879	0.083706
	C1854	C	0.134490	0.252932	0.091428
	C1855	C	0.139334	0.191838	0.095046
	C1856	C	0.139280	0.313975	0.095107
	C1857	C	0.121253	0.752390	0.055513
	C1858	C	0.129673	0.752292	0.046917
	C1859	C	0.133594	0.813576	0.042862
	C1860	C	0.133598	0.691107	0.042864
	C1861	C	0.121228	0.252029	0.055519
	C1862	C	0.129670	0.251862	0.046943
	C1863	C	0.133572	0.312854	0.042856
	C1864	C	0.133532	0.190881	0.042819
	C1865	C	0.244159	0.043214	0.064164
	C1866	C	0.244182	0.962231	0.064140
	C1867	C	0.106663	0.043016	0.069829
	C1868	C	0.106671	0.962281	0.069839
	C1869	C	0.105575	0.043340	0.070057
	C1870	C	0.105592	0.962461	0.070052
	C1871	C	0.105717	0.461945	0.071855
	C1872	C	0.244335	0.462324	0.065154
	C1873	C	0.243878	0.462541	0.064504
	C1874	C	0.105736	0.542910	0.071848
	C1875	C	0.243881	0.543473	0.064493
	C1876	C	0.244317	0.543184	0.065136
	C1877	C	0.229458	0.753471	0.079410
	C1878	C	0.229458	0.252958	0.079418
	C1879	C	0.220971	0.753335	0.087968
	C1880	C	0.216988	0.691862	0.091963
	C1881	C	0.217040	0.814455	0.092010
	C1882	C	0.220999	0.252959	0.087996
	C1883	C	0.217007	0.191772	0.092012
	C1884	C	0.216984	0.314240	0.091970
	C1885	C	0.226335	0.252847	0.051142
	C1886	C	0.186628	0.752779	0.021211
	C1887	C	0.153812	0.752413	0.022347
	C1888	C	0.163846	0.752485	0.113771
	C1889	C	0.211169	0.691409	0.039839
	C1890	C	0.211219	0.814021	0.039800
	C1891	C	0.196906	0.752803	0.028974
	C1892	C	0.145356	0.752330	0.030920
	C1893	C	0.141371	0.691135	0.034933
	C1894	C	0.201686	0.691507	0.032685
	C1895	C	0.201737	0.814080	0.032632
	C1896	C	0.141365	0.813505	0.034930
	C1897	C	0.216049	0.752631	0.043427
	C1898	C	0.196651	0.752983	0.112394
	C1899	C	0.209129	0.691748	0.099839
	C1900	C	0.209195	0.814224	0.099895
	C1901	C	0.205188	0.752984	0.103882
	C1902	C	0.183334	0.462382	0.127549
	C1903	C	0.168670	0.462087	0.007179
	C1904	C	0.181358	0.461860	0.125962
	C1905	C	0.183318	0.542896	0.127543
	C1906	C	0.181335	0.542897	0.125946
	C1907	C	0.168685	0.542874	0.007130
	C1908	C	0.196611	0.253101	0.112390
	C1909	C	0.209138	0.191874	0.099887
	C1910	C	0.209118	0.314154	0.099841
	C1911	C	0.205157	0.253009	0.103888
	C1912	C	0.169098	0.043057	0.008095
	C1913	C	0.186651	0.252577	0.021151
	C1914	C	0.153815	0.252206	0.022376
	C1915	C	0.163835	0.252846	0.113709
	C1916	C	0.211186	0.191369	0.039771
	C1917	C	0.211151	0.314077	0.039789
	C1918	C	0.196865	0.252715	0.028970
	C1919	C	0.145369	0.252075	0.030950
	C1920	C	0.153585	0.752596	0.105995
	C1921	C	0.148807	0.813743	0.102312
	C1922	C	0.148817	0.691512	0.102319
	C1923	C	0.153612	0.252992	0.105889
	C1924	C	0.148762	0.314023	0.102274
	C1925	C	0.148816	0.191856	0.102210
	C1926	C	0.141328	0.190961	0.034903
	C1927	C	0.201716	0.191253	0.032595
	C1928	C	0.201668	0.314060	0.032630
	C1929	C	0.141360	0.312994	0.034934
	C1930	C	0.215987	0.252783	0.043440
	C1931	C	0.182608	0.043082	0.127262
	C1932	C	0.168137	0.043332	0.007700
	C1933	C	0.169059	0.962311	0.008078
	C1934	C	0.182599	0.962350	0.127264
	C1935	C	0.168122	0.962460	0.007695
	N1936	N	0.106217	0.070028	0.070228
	N1937	N	0.106248	0.935528	0.070213
	N1938	N	0.106327	0.435237	0.070175
	N1939	N	0.106331	0.569761	0.070193
	N1940	N	0.181824	0.435241	0.127221
	N1941	N	0.181792	0.569808	0.127213
	N1942	N	0.181791	0.070019	0.127154
	N1943	N	0.181846	0.935540	0.127143
	O1944	O	0.243796	0.694590	0.173285
	O1945	O	0.243572	0.810480	0.173493
	O1946	O	0.133365	0.695674	0.200111
	O1947	O	0.133399	0.811633	0.200088
	O1948	O	0.133347	0.195086	0.200108
	O1949	O	0.133262	0.311215	0.200185
	O1950	O	0.130955	0.694645	0.178264
	O1951	O	0.130830	0.810687	0.178206
	O1952	O	0.130913	0.194352	0.178281
	O1953	O	0.130833	0.310361	0.178207
	O1954	O	0.246340	0.694878	0.195456
	O1955	O	0.245994	0.810766	0.195240
	O1956	O	0.246186	0.194647	0.195327
	O1957	O	0.246253	0.310570	0.195399
	O1958	O	0.243692	0.194740	0.173437
	O1959	O	0.243766	0.310760	0.173329
	O1960	O	0.195855	0.694759	0.137554
	O1961	O	0.170265	0.694922	0.138709
	O1962	O	0.206649	0.694610	0.234846
	O1963	O	0.206676	0.810440	0.234873
	O1964	O	0.181112	0.694851	0.235949
	O1965	O	0.181147	0.810967	0.235959
	O1966	O	0.170306	0.810798	0.138693
	O1967	O	0.195838	0.810742	0.137610
	O1968	O	0.195823	0.194703	0.137658
	O1969	O	0.170249	0.194275	0.138716
	O1970	O	0.206744	0.194496	0.234830
	O1971	O	0.206650	0.310509	0.234812
	O1972	O	0.181153	0.195129	0.235960
	O1973	O	0.181146	0.310808	0.235929
	O1974	O	0.170193	0.310439	0.138694
	O1975	O	0.195834	0.310649	0.137610
	H1976	H	0.148772	0.645237	0.211461
	H1977	H	0.148698	0.861525	0.211612
	H1978	H	0.148698	0.144915	0.211578
	H1979	H	0.148582	0.361608	0.211691
	H1980	H	0.143499	0.861345	0.165547
	H1981	H	0.143469	0.644354	0.165525
	H1982	H	0.143559	0.360232	0.165656
	H1983	H	0.143414	0.144368	0.165520
	H1984	H	0.258405	0.064492	0.184997
	H1985	H	0.259127	0.064144	0.184166
	H1986	H	0.259146	0.941048	0.184136
	H1987	H	0.258424	0.941004	0.184952
	H1988	H	0.256772	0.064518	0.184725
	H1989	H	0.256801	0.941074	0.184751
	H1990	H	0.123872	0.064229	0.189996
	H1991	H	0.123823	0.941177	0.190040
	H1992	H	0.122344	0.064299	0.186906
	H1993	H	0.122349	0.940986	0.186935
	H1994	H	0.117141	0.064484	0.186091
	H1995	H	0.117145	0.940937	0.186185
	H1996	H	0.117403	0.440727	0.189697
	H1997	H	0.118097	0.440780	0.190941
	H1998	H	0.118645	0.441139	0.188184
	H1999	H	0.256836	0.441609	0.182460
	H2000	H	0.258990	0.441248	0.182802
	H2001	H	0.259578	0.441574	0.184045
	H2002	H	0.118109	0.564285	0.190923
	H2003	H	0.117439	0.564520	0.189677
	H2004	H	0.259605	0.564654	0.184042
	H2005	H	0.258997	0.564538	0.182759
	H2006	H	0.256874	0.564996	0.182457
	H2007	H	0.118677	0.564484	0.188266
	H2008	H	0.233554	0.644617	0.207984
	H2009	H	0.233542	0.860463	0.208030
	H2010	H	0.233581	0.143905	0.207994
	H2011	H	0.233458	0.360784	0.207988
	H2012	H	0.157600	0.644744	0.151288
	H2013	H	0.211208	0.644346	0.149059
	H2014	H	0.211243	0.860763	0.149032
	H2015	H	0.157627	0.861331	0.151365
	H2016	H	0.228356	0.644448	0.161894
	H2017	H	0.228384	0.860642	0.161916
	H2018	H	0.219368	0.644585	0.222200
	H2019	H	0.219397	0.860558	0.222243
	H2020	H	0.183663	0.440935	0.128475
	H2021	H	0.194346	0.441305	0.246759
	H2022	H	0.181128	0.441011	0.129026
	H2023	H	0.179708	0.440483	0.127845
	H2024	H	0.196031	0.441470	0.246760
	H2025	H	0.195424	0.441517	0.247155
	H2026	H	0.194348	0.564485	0.246780
	H2027	H	0.183624	0.563808	0.128433
	H2028	H	0.195411	0.564690	0.247192
	H2029	H	0.196051	0.565159	0.246802
	H2030	H	0.179665	0.563993	0.127835
	H2031	H	0.181086	0.563925	0.128977
	H2032	H	0.219351	0.143879	0.222170
	H2033	H	0.219254	0.360814	0.222157
	H2034	H	0.180710	0.064156	0.127619
	H2035	H	0.181552	0.064253	0.128183
	H2036	H	0.180882	0.064397	0.126411
	H2037	H	0.165847	0.861265	0.224486
	H2038	H	0.165896	0.645048	0.224378
	H2039	H	0.165756	0.361504	0.224515
	H2040	H	0.165873	0.144672	0.224437
	H2041	H	0.157510	0.144433	0.151265
	H2042	H	0.211142	0.144174	0.149145
	H2043	H	0.211220	0.361193	0.149045
	H2044	H	0.157653	0.360166	0.151394
	H2045	H	0.228321	0.144101	0.161987
	H2046	H	0.228387	0.361132	0.161866
	H2047	H	0.191700	0.064749	0.246099
	H2048	H	0.192832	0.064969	0.248448
	H2049	H	0.196793	0.064401	0.249037
	H2050	H	0.181632	0.940849	0.128134
	H2051	H	0.180852	0.941184	0.127622
	H2052	H	0.180949	0.941105	0.126410
	H2053	H	0.191798	0.941532	0.246146
	H2054	H	0.192895	0.941377	0.248440
	H2055	H	0.196806	0.941743	0.248994
	Zn2056	Zn	0.119321	0.680173	0.189654
	Zn2057	Zn	0.119305	0.825623	0.189705
	Zn2058	Zn	0.119261	0.180260	0.189671
	Zn2059	Zn	0.119288	0.325309	0.189698
	Zn2060	Zn	0.195171	0.680417	0.246384
	Zn2061	Zn	0.195187	0.825763	0.246383
	Zn2062	Zn	0.195158	0.180284	0.246361
	Zn2063	Zn	0.195226	0.325795	0.246377
	C2064	C	0.239681	0.752509	0.170413
	C2065	C	0.137387	0.753575	0.203046
	C2066	C	0.147693	0.753327	0.210789
	C2067	C	0.152543	0.692125	0.214389
	C2068	C	0.152510	0.814438	0.214461
	C2069	C	0.137301	0.253228	0.203110
	C2070	C	0.147669	0.253218	0.210802
	C2071	C	0.152543	0.191922	0.214422
	C2072	C	0.152456	0.314517	0.214485
	C2073	C	0.134164	0.752710	0.174940
	C2074	C	0.142689	0.752829	0.166416
	C2075	C	0.146671	0.814275	0.162408
	C2076	C	0.146651	0.691465	0.162396
	C2077	C	0.134151	0.252330	0.174949
	C2078	C	0.142632	0.252316	0.166400
	C2079	C	0.146668	0.313448	0.162442
	C2080	C	0.146562	0.191209	0.162355
	C2081	C	0.258521	0.043067	0.184388
	C2082	C	0.258505	0.962281	0.184365
	C2083	C	0.122094	0.043196	0.188786
	C2084	C	0.122103	0.962343	0.188795
	C2085	C	0.116846	0.043356	0.188000
	C2086	C	0.116854	0.962453	0.188046
	C2087	C	0.118167	0.462295	0.190167
	C2088	C	0.256737	0.462589	0.183238
	C2089	C	0.258889	0.462707	0.183555
	C2090	C	0.118185	0.543153	0.190147
	C2091	C	0.258900	0.543411	0.183541
	C2092	C	0.256762	0.543337	0.183219
	C2093	C	0.242907	0.752771	0.198645
	C2094	C	0.242926	0.252556	0.198652
	C2095	C	0.234416	0.752625	0.207190
	C2096	C	0.230398	0.691510	0.211166
	C2097	C	0.230402	0.813659	0.211195
	C2098	C	0.234420	0.252338	0.207183
	C2099	C	0.230430	0.190898	0.211172
	C2100	C	0.230372	0.313690	0.211181
	C2101	C	0.239715	0.252722	0.170433
	C2102	C	0.199819	0.752684	0.140572
	C2103	C	0.166989	0.752928	0.141972
	C2104	C	0.177188	0.753001	0.232941
	C2105	C	0.224489	0.691387	0.159082
	C2106	C	0.224517	0.813719	0.159072
	C2107	C	0.210113	0.752596	0.148338
	C2108	C	0.158476	0.752985	0.150504
	C2109	C	0.154476	0.691650	0.154494
	C2110	C	0.214976	0.691331	0.151956
	C2111	C	0.215007	0.813800	0.151939
	C2112	C	0.154503	0.814319	0.154517
	C2113	C	0.229322	0.752533	0.162729
	C2114	C	0.209981	0.752558	0.231582
	C2115	C	0.222536	0.691507	0.219051
	C2116	C	0.222550	0.813644	0.219079
	C2117	C	0.218533	0.752569	0.223072
	C2118	C	0.194566	0.462527	0.246397
	C2119	C	0.180781	0.461994	0.128103
	C2120	C	0.195599	0.462625	0.246802
	C2121	C	0.194549	0.543494	0.246417
	C2122	C	0.195593	0.543443	0.246816
	C2123	C	0.180746	0.542801	0.128093
	C2124	C	0.209973	0.252487	0.231536
	C2125	C	0.222552	0.190873	0.219031
	C2126	C	0.222497	0.313665	0.219037
	C2127	C	0.218547	0.252287	0.223041
	C2128	C	0.181320	0.043060	0.127702
	C2129	C	0.199804	0.252672	0.140645
	C2130	C	0.166956	0.252332	0.141994
	C2131	C	0.177170	0.252957	0.232955
	C2132	C	0.224506	0.191225	0.159120
	C2133	C	0.224544	0.313971	0.159054
	C2134	C	0.210129	0.252587	0.148363
	C2135	C	0.158418	0.252287	0.150508
	C2136	C	0.166864	0.753112	0.225200
	C2137	C	0.162003	0.814360	0.221606
	C2138	C	0.162029	0.691965	0.221547
	C2139	C	0.166887	0.252997	0.225192
	C2140	C	0.161981	0.314407	0.221608
	C2141	C	0.162062	0.191728	0.221560
	C2142	C	0.154383	0.191141	0.154453
	C2143	C	0.214973	0.191259	0.152000
	C2144	C	0.215014	0.313966	0.151936
	C2145	C	0.154496	0.313421	0.154540
	C2146	C	0.229359	0.252592	0.162736
	C2147	C	0.193054	0.043543	0.247028
	C2148	C	0.181472	0.043215	0.126494
	C2149	C	0.181373	0.962240	0.127677
	C2150	C	0.193083	0.962563	0.247038
	C2151	C	0.181509	0.962269	0.126516
	N2152	N	0.119279	0.070296	0.189702
	N2153	N	0.119303	0.935751	0.189744
	N2154	N	0.119328	0.435407	0.189711
	N2155	N	0.119305	0.569969	0.189708
	N2156	N	0.195186	0.435755	0.246339
	N2157	N	0.195158	0.570271	0.246370
	N2158	N	0.195202	0.070247	0.246325
	N2159	N	0.195176	0.935751	0.246340
	O2160	O	0.257041	0.695243	0.292724
	O2161	O	0.257005	0.811182	0.292609
	O2162	O	0.146788	0.695328	0.319221
	O2163	O	0.146695	0.811051	0.319315
	O2164	O	0.146803	0.195407	0.319226
	O2165	O	0.146753	0.311246	0.319250
	O2166	O	0.144243	0.695187	0.297398
	O2167	O	0.144156	0.811223	0.297301
	O2168	O	0.144146	0.194934	0.297361
	O2169	O	0.144204	0.310716	0.297338
	O2170	O	0.259481	0.695024	0.314599
	O2171	O	0.259443	0.810807	0.314616
	O2172	O	0.259438	0.194830	0.314607
	O2173	O	0.259395	0.310805	0.314585
	O2174	O	0.257068	0.194909	0.292729
	O2175	O	0.256975	0.310763	0.292686
	O2176	O	0.209259	0.694469	0.256765
	O2177	O	0.183751	0.694788	0.257953
	O2178	O	0.220119	0.694835	0.354181
	O2179	O	0.220048	0.810679	0.354183
	O2180	O	0.194427	0.695381	0.355225
	O2181	O	0.194563	0.811215	0.355112
	O2182	O	0.183687	0.810735	0.257889
	O2183	O	0.209211	0.810568	0.256808
	O2184	O	0.209279	0.194208	0.256756
	O2185	O	0.183605	0.194572	0.257857
	O2186	O	0.220038	0.194807	0.354106
	O2187	O	0.220056	0.310743	0.354161
	O2188	O	0.194470	0.195406	0.355171
	O2189	O	0.194434	0.311382	0.355193
	O2190	O	0.183801	0.310530	0.257951
	O2191	O	0.209275	0.310258	0.256827
	H2192	H	0.162169	0.645328	0.330674
	H2193	H	0.162042	0.861288	0.330802
	H2194	H	0.162022	0.145458	0.330793
	H2195	H	0.162106	0.361075	0.330688
	H2196	H	0.156846	0.861056	0.284671
	H2197	H	0.156780	0.644887	0.284663
	H2198	H	0.156887	0.360838	0.284716
	H2199	H	0.156877	0.144720	0.284805
	H2200	H	0.272677	0.064718	0.302550
	H2201	H	0.271536	0.064607	0.301720
	H2202	H	0.271469	0.941340	0.301638
	H2203	H	0.272665	0.941161	0.302460
	H2204	H	0.272370	0.064562	0.304189
	H2205	H	0.272324	0.941534	0.304195
	H2206	H	0.133058	0.064745	0.310146
	H2207	H	0.133085	0.940825	0.310170
	H2208	H	0.134028	0.064673	0.309465
	H2209	H	0.134096	0.941764	0.309459
	H2210	H	0.133736	0.064371	0.307980
	H2211	H	0.133817	0.941008	0.307972
	H2212	H	0.135559	0.440951	0.311520
	H2213	H	0.136814	0.441061	0.308788
	H2214	H	0.130886	0.441065	0.311918
	H2215	H	0.270035	0.441033	0.303385
	H2216	H	0.270332	0.441181	0.302372
	H2217	H	0.271191	0.441555	0.302222
	H2218	H	0.136787	0.564472	0.308748
	H2219	H	0.135583	0.564433	0.311489
	H2220	H	0.271222	0.564653	0.302232
	H2221	H	0.270340	0.564526	0.302483
	H2222	H	0.270086	0.564103	0.303388
	H2223	H	0.130920	0.564393	0.311969
	H2224	H	0.246854	0.645367	0.327253
	H2225	H	0.246785	0.860798	0.327244
	H2226	H	0.246751	0.144906	0.327187
	H2227	H	0.246642	0.360923	0.327152
	H2228	H	0.170977	0.644836	0.270485
	H2229	H	0.224652	0.644169	0.268258
	H2230	H	0.224454	0.860411	0.268391
	H2231	H	0.171066	0.860742	0.270494
	H2232	H	0.241770	0.644459	0.281125
	H2233	H	0.241576	0.861034	0.281206
	H2234	H	0.232747	0.645342	0.341500
	H2235	H	0.232689	0.860947	0.341481
	H2236	H	0.194280	0.440965	0.246036
	H2237	H	0.208581	0.441361	0.367510
	H2238	H	0.195159	0.441504	0.245520
	H2239	H	0.195892	0.441565	0.245839
	H2240	H	0.210289	0.441072	0.364796
	H2241	H	0.210514	0.441343	0.366258
	H2242	H	0.208671	0.564178	0.367510
	H2243	H	0.194255	0.564525	0.246100
	H2244	H	0.210595	0.564306	0.366250
	H2245	H	0.210317	0.564762	0.364700
	H2246	H	0.195911	0.564806	0.245843
	H2247	H	0.195127	0.564610	0.245557
	H2248	H	0.232627	0.144690	0.341427
	H2249	H	0.232512	0.360917	0.341389
	H2250	H	0.196983	0.064738	0.243887
	H2251	H	0.194125	0.064478	0.243400
	H2252	H	0.198577	0.064893	0.247129
	H2253	H	0.179151	0.861290	0.343696
	H2254	H	0.179262	0.645419	0.343569
	H2255	H	0.179203	0.361135	0.343604
	H2256	H	0.179146	0.145667	0.343700
	H2257	H	0.171087	0.144385	0.270610
	H2258	H	0.224531	0.143557	0.268358
	H2259	H	0.224564	0.360842	0.268276
	H2260	H	0.171045	0.360790	0.270538
	H2261	H	0.241659	0.143806	0.281231
	H2262	H	0.241703	0.360889	0.281139
	H2263	H	0.208948	0.064547	0.364600
	H2264	H	0.207793	0.064057	0.364726
	H2265	H	0.207245	0.064628	0.365843
	H2266	H	0.194089	0.941644	0.243526
	H2267	H	0.196926	0.940987	0.243939
	H2268	H	0.198486	0.941205	0.247112
	H2269	H	0.208952	0.941058	0.364641
	H2270	H	0.207790	0.941030	0.364718
	H2271	H	0.207220	0.941188	0.365874
	Zn2272	Zn	0.132686	0.680304	0.308903
	Zn2273	Zn	0.132678	0.825514	0.308866
	Zn2274	Zn	0.132654	0.180405	0.308858
	Zn2275	Zn	0.132703	0.325457	0.308820
	Zn2276	Zn	0.208532	0.680347	0.365626
	Zn2277	Zn	0.208540	0.825703	0.365663
	Zn2278	Zn	0.208502	0.180247	0.365604
	Zn2279	Zn	0.208500	0.325744	0.365632
	C2280	C	0.253052	0.753068	0.289678
	C2281	C	0.150726	0.753214	0.322264
	C2282	C	0.161030	0.753251	0.330025
	C2283	C	0.165927	0.692207	0.333601
	C2284	C	0.165860	0.814428	0.333663
	C2285	C	0.150720	0.253360	0.322264
	C2286	C	0.160986	0.253311	0.330054
	C2287	C	0.165828	0.192291	0.333683
	C2288	C	0.165850	0.314332	0.333632
	C2289	C	0.147493	0.753156	0.294066
	C2290	C	0.156038	0.753068	0.285550
	C2291	C	0.160038	0.814121	0.281532
	C2292	C	0.159989	0.691780	0.281535
	C2293	C	0.147448	0.252774	0.294059
	C2294	C	0.155995	0.252732	0.285560
	C2295	C	0.160032	0.313878	0.281561
	C2296	C	0.160030	0.191486	0.281610
	C2297	C	0.271822	0.043315	0.302378
	C2298	C	0.271801	0.962393	0.302347
	C2299	C	0.133338	0.043491	0.309563
	C2300	C	0.133364	0.962540	0.309579
	C2301	C	0.133036	0.043451	0.308074
	C2302	C	0.133052	0.962440	0.308072
	C2303	C	0.135269	0.462394	0.309796
	C2304	C	0.270556	0.462130	0.303542
	C2305	C	0.270857	0.462427	0.302539
	C2306	C	0.135254	0.543196	0.309786
	C2307	C	0.270873	0.543294	0.302561
	C2308	C	0.270567	0.542914	0.303564
	C2309	C	0.256192	0.752898	0.317904
	C2310	C	0.256128	0.252818	0.317880
	C2311	C	0.247688	0.752982	0.326453
	C2312	C	0.243705	0.692092	0.330442
	C2313	C	0.243667	0.813985	0.330439
	C2314	C	0.247608	0.252930	0.326414
	C2315	C	0.243635	0.191714	0.330402
	C2316	C	0.243555	0.314026	0.330381
	C2317	C	0.253029	0.252685	0.289725
	C2318	C	0.213229	0.752486	0.259757
	C2319	C	0.180471	0.752797	0.261223
	C2320	C	0.190516	0.753263	0.352189
	C2321	C	0.237888	0.691326	0.278329
	C2322	C	0.237780	0.813828	0.278369
	C2323	C	0.223503	0.752283	0.267552
	C2324	C	0.171961	0.752820	0.269736
	C2325	C	0.167871	0.691745	0.273682
	C2326	C	0.228404	0.691132	0.271157
	C2327	C	0.228299	0.813540	0.271208
	C2328	C	0.167921	0.813979	0.273679
	C2329	C	0.242703	0.752711	0.281970
	C2330	C	0.223354	0.752800	0.350878
	C2331	C	0.235877	0.692115	0.338335
	C2332	C	0.235843	0.814079	0.338332
	C2333	C	0.231854	0.753001	0.342342
	C2334	C	0.207960	0.462546	0.366764
	C2335	C	0.195445	0.462787	0.245857
	C2336	C	0.209912	0.462430	0.365542
	C2337	C	0.207989	0.543403	0.366781
	C2338	C	0.209935	0.543274	0.365521
	C2339	C	0.195419	0.543430	0.245860
	C2340	C	0.223325	0.252791	0.350850
	C2341	C	0.235780	0.191622	0.338274
	C2342	C	0.235713	0.314017	0.338263
	C2343	C	0.231830	0.252787	0.342322
	C2344	C	0.195447	0.043441	0.244369
	C2345	C	0.213250	0.252151	0.259791
	C2346	C	0.180399	0.252612	0.261179
	C2347	C	0.190440	0.253384	0.352233
	C2348	C	0.237887	0.190920	0.278322
	C2349	C	0.237912	0.313622	0.278275
	C2350	C	0.223582	0.252145	0.267514
	C2351	C	0.171888	0.252544	0.269718
	C2352	C	0.180217	0.753326	0.344448
	C2353	C	0.175351	0.814353	0.340820
	C2354	C	0.175420	0.692307	0.340756
	C2355	C	0.180122	0.253494	0.344511
	C2356	C	0.175343	0.314375	0.340782
	C2357	C	0.175321	0.192392	0.340847
	C2358	C	0.167915	0.191368	0.273750
	C2359	C	0.228383	0.190732	0.271172
	C2360	C	0.228419	0.313642	0.271122
	C2361	C	0.167912	0.313823	0.273707
	C2362	C	0.242756	0.252368	0.281945
	C2363	C	0.208432	0.043131	0.364928
	C2364	C	0.197023	0.043428	0.247617
	C2365	C	0.195437	0.962587	0.244413
	C2366	C	0.208422	0.962370	0.364944
	C2367	C	0.197012	0.962742	0.247616
	N2368	N	0.132678	0.070335	0.308866
	N2369	N	0.132717	0.935741	0.308868
	N2370	N	0.132721	0.435611	0.308850
	N2371	N	0.132696	0.570188	0.308849
	N2372	N	0.208488	0.435744	0.365651
	N2373	N	0.208530	0.570277	0.365669
	N2374	N	0.208515	0.070291	0.365666
	N2375	N	0.208533	0.935759	0.365700
	O2376	O	0.268581	0.694397	0.413643
	O2377	O	0.268552	0.810484	0.413668
	O2378	O	0.159916	0.695045	0.438923
	O2379	O	0.159871	0.810910	0.438987
	O2380	O	0.159929	0.194764	0.438905
	O2381	O	0.159875	0.310730	0.438943
	O2382	O	0.157797	0.695063	0.416808
	O2383	O	0.157670	0.810997	0.416768
	O2384	O	0.157772	0.194587	0.416831
	O2385	O	0.157605	0.310905	0.416743
	O2386	O	0.270298	0.695383	0.435735
	O2387	O	0.270196	0.811515	0.435641
	O2388	O	0.270300	0.195299	0.435726
	O2389	O	0.270256	0.311402	0.435655
	O2390	O	0.268688	0.194668	0.413575
	O2391	O	0.268591	0.310720	0.413675
	O2392	O	0.222423	0.694601	0.376217
	O2393	O	0.196871	0.695230	0.377029
	O2394	O	0.231729	0.695271	0.475821
	O2395	O	0.231726	0.811176	0.475882
	O2396	O	0.206310	0.695329	0.476146
	O2397	O	0.206236	0.811407	0.476243
	O2398	O	0.196988	0.811075	0.377155
	O2399	O	0.222277	0.810633	0.376374
	O2400	O	0.222256	0.194627	0.376372
	O2401	O	0.196848	0.195074	0.377064
	O2402	O	0.231725	0.195114	0.475920
	O2403	O	0.231726	0.311210	0.475920
	O2404	O	0.206336	0.195373	0.476128
	O2405	O	0.206260	0.311186	0.476239
	O2406	O	0.196809	0.311265	0.377080
	O2407	O	0.222227	0.310613	0.376384
	H2408	H	0.174766	0.645111	0.450927
	H2409	H	0.174838	0.861222	0.450868
	H2410	H	0.174786	0.145062	0.450863
	H2411	H	0.174853	0.361066	0.450801
	H2412	H	0.170238	0.860968	0.404044
	H2413	H	0.170289	0.645268	0.404053
	H2414	H	0.170317	0.361117	0.404206
	H2415	H	0.170300	0.144174	0.404064
	H2416	H	0.283971	0.064103	0.425815
	H2417	H	0.284504	0.064803	0.424266
	H2418	H	0.284525	0.940664	0.424309
	H2419	H	0.283931	0.941381	0.425818
	H2420	H	0.281440	0.064238	0.426231
	H2421	H	0.281342	0.941158	0.426152
	H2422	H	0.145196	0.064484	0.428944
	H2423	H	0.145211	0.941373	0.428963
	H2424	H	0.146211	0.064823	0.429341
	H2425	H	0.146206	0.941287	0.429342
	H2426	H	0.147369	0.064715	0.428637
	H2427	H	0.147364	0.941591	0.428576
	H2428	H	0.146771	0.441293	0.427747
	H2429	H	0.146040	0.441076	0.427481
	H2430	H	0.146998	0.441617	0.428636
	H2431	H	0.284451	0.441166	0.424004
	H2432	H	0.283603	0.441569	0.425981
	H2433	H	0.281816	0.441279	0.426205
	H2434	H	0.146099	0.564504	0.427585
	H2435	H	0.146797	0.564499	0.427767
	H2436	H	0.281764	0.565097	0.426251
	H2437	H	0.283595	0.564582	0.426026
	H2438	H	0.284362	0.564274	0.424042
	H2439	H	0.146958	0.564677	0.428579
	H2440	H	0.257813	0.645450	0.448465
	H2441	H	0.257794	0.861969	0.448490
	H2442	H	0.257820	0.145054	0.448549
	H2443	H	0.257971	0.361702	0.448581
	H2444	H	0.184357	0.645151	0.389792
	H2445	H	0.237197	0.643999	0.388302
	H2446	H	0.237230	0.861009	0.388217
	H2447	H	0.184317	0.861050	0.389785
	H2448	H	0.253731	0.644291	0.401730
	H2449	H	0.253778	0.860832	0.401638
	H2450	H	0.244043	0.645580	0.462954
	H2451	H	0.244012	0.861616	0.462979
	H2452	H	0.206943	0.441168	0.366848
	H2453	H	0.218115	0.441413	0.485881
	H2454	H	0.206565	0.441375	0.364711
	H2455	H	0.207997	0.441610	0.363855
	H2456	H	0.219619	0.441463	0.488864
	H2457	H	0.218041	0.441363	0.487986
	H2458	H	0.218140	0.564000	0.485862
	H2459	H	0.206970	0.565051	0.366874
	H2460	H	0.218035	0.564252	0.487983
	H2461	H	0.219699	0.564997	0.488888
	H2462	H	0.207972	0.564715	0.363845
	H2463	H	0.206601	0.564894	0.364754
	H2464	H	0.244051	0.144971	0.463015
	H2465	H	0.244170	0.361947	0.463059
	H2466	H	0.209401	0.064663	0.366469
	H2467	H	0.209828	0.064525	0.365676
	H2468	H	0.207884	0.065065	0.366648
	H2469	H	0.191466	0.861359	0.464257
	H2470	H	0.191379	0.645261	0.464304
	H2471	H	0.191463	0.361144	0.464199
	H2472	H	0.191399	0.145040	0.464222
	H2473	H	0.184364	0.144377	0.389778
	H2474	H	0.237283	0.144317	0.388200
	H2475	H	0.237170	0.361054	0.388300
	H2476	H	0.184357	0.361590	0.389917
	H2477	H	0.253925	0.144217	0.401539
	H2478	H	0.253761	0.361277	0.401653
	H2479	H	0.219489	0.064565	0.487323
	H2480	H	0.219937	0.064693	0.487497
	H2481	H	0.220438	0.064492	0.487168
	H2482	H	0.209830	0.941129	0.365682
	H2483	H	0.209365	0.941267	0.366528
	H2484	H	0.207840	0.941296	0.366648
	H2485	H	0.219437	0.941361	0.487339
	H2486	H	0.219852	0.941326	0.487544
	H2487	H	0.220370	0.940954	0.487211
	Zn2488	Zn	0.146173	0.680237	0.428258
	Zn2489	Zn	0.146137	0.825725	0.428263
	Zn2490	Zn	0.146135	0.180172	0.428242
	Zn2491	Zn	0.146119	0.325714	0.428235
	Zn2492	Zn	0.219889	0.680085	0.487018
	Zn2493	Zn	0.219855	0.825679	0.487082
	Zn2494	Zn	0.219866	0.179974	0.487033
	Zn2495	Zn	0.219869	0.325773	0.487105
	C2496	C	0.264720	0.752452	0.410557
	C2497	C	0.163762	0.752973	0.442053
	C2498	C	0.173799	0.753177	0.450084
	C2499	C	0.178477	0.692058	0.453875
	C2500	C	0.178524	0.814339	0.453852
	C2501	C	0.163810	0.252823	0.441994
	C2502	C	0.173851	0.253097	0.450008
	C2503	C	0.178493	0.192024	0.453822
	C2504	C	0.178538	0.314220	0.453795
	C2505	C	0.160984	0.753121	0.413478
	C2506	C	0.169397	0.753162	0.404884
	C2507	C	0.173368	0.814179	0.400864
	C2508	C	0.173406	0.692073	0.400867
	C2509	C	0.160967	0.252767	0.413508
	C2510	C	0.169464	0.252754	0.404957
	C2511	C	0.173422	0.314227	0.400971
	C2512	C	0.173422	0.191318	0.400894
	C2513	C	0.283723	0.043205	0.424871
	C2514	C	0.283723	0.962316	0.424891
	C2515	C	0.145829	0.043591	0.428917
	C2516	C	0.145831	0.962665	0.428919
	C2517	C	0.146996	0.043511	0.428213
	C2518	C	0.146974	0.962733	0.428194
	C2519	C	0.146369	0.462444	0.427803
	C2520	C	0.283435	0.462343	0.423682
	C2521	C	0.282605	0.462677	0.425675
	C2522	C	0.146382	0.543420	0.427817
	C2523	C	0.282574	0.543487	0.425705
	C2524	C	0.283392	0.543180	0.423699
	C2525	C	0.266982	0.753492	0.438989
	C2526	C	0.267041	0.253414	0.439006
	C2527	C	0.258601	0.753631	0.447626
	C2528	C	0.254737	0.692387	0.451714
	C2529	C	0.254731	0.814879	0.451719
	C2530	C	0.258629	0.253382	0.447643
	C2531	C	0.254718	0.192067	0.451734
	C2532	C	0.254801	0.314753	0.451752
	C2533	C	0.264804	0.252713	0.410491
	C2534	C	0.226220	0.752594	0.379388
	C2535	C	0.193644	0.753113	0.380391
	C2536	C	0.202418	0.753415	0.473105
	C2537	C	0.250060	0.691207	0.398727
	C2538	C	0.250085	0.813871	0.398668
	C2539	C	0.236227	0.752486	0.387435
	C2540	C	0.185153	0.753097	0.388933
	C2541	C	0.181192	0.691968	0.392946
	C2542	C	0.240890	0.691137	0.391265
	C2543	C	0.240913	0.813880	0.391204
	C2544	C	0.181171	0.814170	0.392952
	C2545	C	0.254765	0.752560	0.402472
	C2546	C	0.234925	0.753312	0.472507
	C2547	C	0.247101	0.692482	0.459744
	C2548	C	0.247094	0.814798	0.459751
	C2549	C	0.243214	0.753638	0.463830
	C2550	C	0.219176	0.462424	0.485915
	C2551	C	0.207621	0.462768	0.364645
	C2552	C	0.219121	0.462525	0.488077
	C2553	C	0.219177	0.543028	0.485903
	C2554	C	0.219128	0.543247	0.488045
	C2555	C	0.207605	0.543566	0.364655
	C2556	C	0.234944	0.253242	0.472578
	C2557	C	0.247096	0.192080	0.459782
	C2558	C	0.247168	0.314839	0.459801
	C2559	C	0.243208	0.253521	0.463867
	C2560	C	0.209356	0.043339	0.365968
	C2561	C	0.226147	0.252612	0.379450
	C2562	C	0.193580	0.253153	0.380379
	C2563	C	0.202459	0.253311	0.473051
	C2564	C	0.250159	0.191301	0.398612
	C2565	C	0.250085	0.314065	0.398668
	C2566	C	0.236192	0.252576	0.387454
	C2567	C	0.185146	0.253001	0.388961
	C2568	C	0.192418	0.753385	0.465050
	C2569	C	0.187768	0.814490	0.461263
	C2570	C	0.187704	0.692197	0.461285
	C2571	C	0.192474	0.253201	0.465007
	C2572	C	0.187757	0.314236	0.461225
	C2573	C	0.187711	0.192079	0.461252
	C2574	C	0.181224	0.191482	0.392971
	C2575	C	0.240935	0.191319	0.391203
	C2576	C	0.240859	0.313962	0.391258
	C2577	C	0.181215	0.314334	0.393049
	C2578	C	0.254820	0.252657	0.402426
	C2579	C	0.219741	0.043190	0.487307
	C2580	C	0.207797	0.043536	0.366089
	C2581	C	0.209333	0.962542	0.365983
	C2582	C	0.219716	0.962451	0.487300
	C2583	C	0.207798	0.962598	0.366092
	N2584	N	0.146159	0.070170	0.428256
	N2585	N	0.146128	0.935717	0.428266
	N2586	N	0.146186	0.435776	0.428244
	N2587	N	0.146191	0.570293	0.428254
	N2588	N	0.219932	0.435698	0.487027
	N2589	N	0.219918	0.570153	0.486997
	N2590	N	0.219872	0.069989	0.487014
	N2591	N	0.219849	0.935542	0.487040
	O2592	O	0.272693	0.694449	0.540897
	O2593	O	0.272710	0.810560	0.540885
	O2594	O	0.170224	0.694789	0.561020
	O2595	O	0.170269	0.810827	0.561016
	O2596	O	0.170233	0.194753	0.561062
	O2597	O	0.170217	0.310889	0.561083
	O2598	O	0.169267	0.694471	0.538347
	O2599	O	0.169356	0.810296	0.538412
	O2600	O	0.169250	0.194208	0.538421
	O2601	O	0.169251	0.310326	0.538380
	O2602	O	0.269644	0.694413	0.562002
	O2603	O	0.269661	0.811092	0.562016
	O2604	O	0.269701	0.194494	0.562066
	O2605	O	0.269639	0.311044	0.562007
	O2606	O	0.272699	0.194460	0.540948
	O2607	O	0.272710	0.310601	0.540929
	O2608	O	0.232696	0.694916	0.498534
	O2609	O	0.207809	0.694531	0.498179
	O2610	O	0.234648	0.694997	0.604883
	O2611	O	0.234616	0.811348	0.604809
	O2612	O	0.210255	0.694650	0.603357
	O2613	O	0.210219	0.810862	0.603344
	O2614	O	0.207763	0.810485	0.498208
	O2615	O	0.232721	0.810664	0.498547
	O2616	O	0.232703	0.194656	0.498593
	O2617	O	0.207888	0.194358	0.498272
	O2618	O	0.234605	0.194915	0.604830
	O2619	O	0.234683	0.310939	0.604870
	O2620	O	0.210195	0.194892	0.603370
	O2621	O	0.210182	0.310957	0.603399
	O2622	O	0.207816	0.310510	0.498243
	O2623	O	0.232745	0.310669	0.498556
	H2624	H	0.183265	0.644266	0.574430
	H2625	H	0.183049	0.861122	0.574591
	H2626	H	0.183015	0.144645	0.574657
	H2627	H	0.183186	0.361271	0.574559
	H2628	H	0.181624	0.860629	0.525491
	H2629	H	0.181705	0.643846	0.525518
	H2630	H	0.181679	0.360671	0.525555
	H2631	H	0.181561	0.143817	0.525491
	H2632	H	0.290301	0.064607	0.554931
	H2633	H	0.289863	0.064888	0.550871
	H2634	H	0.289814	0.940837	0.550875
	H2635	H	0.290304	0.941221	0.554969
	H2636	H	0.284897	0.063974	0.558055
	H2637	H	0.284849	0.941030	0.558034
	H2638	H	0.157072	0.064468	0.550623
	H2639	H	0.157096	0.941192	0.550610
	H2640	H	0.158129	0.064449	0.550426
	H2641	H	0.158240	0.941225	0.550416
	H2642	H	0.158648	0.064627	0.549212
	H2643	H	0.158698	0.941193	0.549183
	H2644	H	0.155883	0.441202	0.547674
	H2645	H	0.154777	0.441346	0.549229
	H2646	H	0.158909	0.441279	0.547788
	H2647	H	0.282100	0.441385	0.554474
	H2648	H	0.282308	0.440997	0.551406
	H2649	H	0.284768	0.441122	0.550412
	H2650	H	0.154786	0.564573	0.549253
	H2651	H	0.155893	0.564763	0.547661
	H2652	H	0.284768	0.564566	0.550324
	H2653	H	0.282282	0.564112	0.551333
	H2654	H	0.282025	0.564608	0.554486
	H2655	H	0.158895	0.564597	0.547794
	H2656	H	0.257417	0.643185	0.575106
	H2657	H	0.257481	0.862562	0.575126
	H2658	H	0.257354	0.143342	0.575117
	H2659	H	0.257479	0.362112	0.575136
	H2660	H	0.195477	0.644001	0.511013
	H2661	H	0.245617	0.644406	0.512038
	H2662	H	0.245574	0.860916	0.512106
	H2663	H	0.195390	0.860447	0.510998
	H2664	H	0.259876	0.644515	0.527299
	H2665	H	0.259833	0.860727	0.527357
	H2666	H	0.245348	0.643230	0.590695
	H2667	H	0.245392	0.862658	0.590699
	H2668	H	0.219738	0.441148	0.485170
	H2669	H	0.220972	0.441440	0.611793
	H2670	H	0.221944	0.440843	0.486365
	H2671	H	0.221914	0.441343	0.487921
	H2672	H	0.219023	0.440971	0.618531
	H2673	H	0.217592	0.441631	0.615297
	H2674	H	0.220986	0.564636	0.611787
	H2675	H	0.219754	0.564287	0.485151
	H2676	H	0.217622	0.564769	0.615266
	H2677	H	0.219078	0.564721	0.618519
	H2678	H	0.221850	0.564766	0.487856
	H2679	H	0.221876	0.564558	0.486309
	H2680	H	0.245356	0.143545	0.590720
	H2681	H	0.245433	0.362420	0.590755
	H2682	H	0.219805	0.064292	0.486545
	H2683	H	0.219386	0.064738	0.486717
	H2684	H	0.220378	0.064096	0.486786
	H2685	H	0.197379	0.861200	0.589836
	H2686	H	0.197546	0.643987	0.589648
	H2687	H	0.197476	0.361083	0.589785
	H2688	H	0.197298	0.144668	0.589902
	H2689	H	0.195435	0.143999	0.511029
	H2690	H	0.245588	0.144895	0.512119
	H2691	H	0.245776	0.360561	0.512031
	H2692	H	0.195509	0.360677	0.511118
	H2693	H	0.259832	0.144622	0.527395
	H2694	H	0.260005	0.360354	0.527283
	H2695	H	0.225272	0.064496	0.608311
	H2696	H	0.217624	0.064370	0.608737
	H2697	H	0.213370	0.064265	0.616710
	H2698	H	0.219418	0.941306	0.486782
	H2699	H	0.219758	0.940866	0.486528
	H2700	H	0.220425	0.941093	0.486816
	H2701	H	0.225306	0.940756	0.608317
	H2702	H	0.217704	0.941557	0.608713
	H2703	H	0.213418	0.941118	0.616682
	Zn2704	Zn	0.157362	0.679997	0.549502
	Zn2705	Zn	0.157430	0.825574	0.549456
	Zn2706	Zn	0.157318	0.180018	0.549569
	Zn2707	Zn	0.157388	0.325647	0.549542
	Zn2708	Zn	0.222359	0.680498	0.615647
	Zn2709	Zn	0.222324	0.825271	0.615629
	Zn2710	Zn	0.222276	0.180401	0.615639
	Zn2711	Zn	0.222275	0.325121	0.615670
	C2712	C	0.269338	0.752498	0.537394
	C2713	C	0.173607	0.752800	0.564512
	C2714	C	0.182300	0.752773	0.573608
	C2715	C	0.186403	0.691340	0.577851
	C2716	C	0.186290	0.814121	0.577940
	C2717	C	0.173615	0.252829	0.564567
	C2718	C	0.182329	0.252872	0.573644
	C2719	C	0.186289	0.191640	0.577989
	C2720	C	0.186371	0.314190	0.577938
	C2721	C	0.172536	0.752332	0.535037
	C2722	C	0.180831	0.752260	0.526366
	C2723	C	0.184705	0.813479	0.522264
	C2724	C	0.184746	0.690969	0.522282
	C2725	C	0.172479	0.252197	0.535068
	C2726	C	0.180796	0.252207	0.526385
	C2727	C	0.184721	0.313588	0.522324
	C2728	C	0.184650	0.190869	0.522273
	C2729	C	0.288739	0.043351	0.552958
	C2730	C	0.288718	0.962207	0.552971
	C2731	C	0.157550	0.043132	0.550259
	C2732	C	0.157592	0.962377	0.550260
	C2733	C	0.158002	0.043297	0.549003
	C2734	C	0.158044	0.962441	0.548989
	C2735	C	0.155850	0.462551	0.548726
	C2736	C	0.283691	0.462659	0.554667
	C2737	C	0.283927	0.462255	0.551492
	C2738	C	0.155872	0.543362	0.548731
	C2739	C	0.283921	0.543077	0.551453
	C2740	C	0.283692	0.543386	0.554635
	C2741	C	0.266256	0.752762	0.565271
	C2742	C	0.266230	0.252780	0.565262
	C2743	C	0.258124	0.752860	0.574138
	C2744	C	0.254666	0.690929	0.578543
	C2745	C	0.254701	0.814910	0.578556
	C2746	C	0.258057	0.252769	0.574115
	C2747	C	0.254587	0.190980	0.578531
	C2748	C	0.254649	0.314650	0.578545
	C2749	C	0.269363	0.252488	0.537422
	C2750	C	0.236082	0.752742	0.502046
	C2751	C	0.204551	0.752410	0.501509
	C2752	C	0.206866	0.752707	0.599851
	C2753	C	0.256736	0.691478	0.523888
	C2754	C	0.256704	0.813782	0.523930
	C2755	C	0.244798	0.752665	0.511136
	C2756	C	0.196223	0.752244	0.510163
	C2757	C	0.192375	0.690927	0.514245
	C2758	C	0.248820	0.691348	0.515424
	C2759	C	0.248797	0.813995	0.515464
	C2760	C	0.192330	0.813493	0.514231
	C2761	C	0.260749	0.752541	0.528228
	C2762	C	0.237456	0.753077	0.601174
	C2763	C	0.248009	0.691049	0.587230
	C2764	C	0.248047	0.814851	0.587241
	C2765	C	0.244701	0.752956	0.591755
	C2766	C	0.222800	0.462375	0.613033
	C2767	C	0.221383	0.462405	0.487109
	C2768	C	0.219399	0.462528	0.616601
	C2769	C	0.222816	0.543432	0.613041
	C2770	C	0.219418	0.543471	0.616601
	C2771	C	0.221368	0.543539	0.487064
	C2772	C	0.237442	0.252937	0.601144
	C2773	C	0.247922	0.191088	0.587206
	C2774	C	0.247994	0.314762	0.587237
	C2775	C	0.244611	0.252977	0.591704
	C2776	C	0.219675	0.043185	0.486743
	C2777	C	0.236109	0.252648	0.502059
	C2778	C	0.204605	0.252385	0.501572
	C2779	C	0.206850	0.252938	0.599873
	C2780	C	0.256681	0.191456	0.523987
	C2781	C	0.256768	0.313503	0.523923
	C2782	C	0.244777	0.252615	0.511184
	C2783	C	0.196216	0.252287	0.510188
	C2784	C	0.198251	0.752652	0.590690
	C2785	C	0.194204	0.814097	0.586411
	C2786	C	0.194319	0.691199	0.586314
	C2787	C	0.198278	0.252894	0.590710
	C2788	C	0.194289	0.314147	0.586390
	C2789	C	0.194193	0.191685	0.586452
	C2790	C	0.192315	0.190969	0.514253
	C2791	C	0.248771	0.191564	0.515516
	C2792	C	0.248862	0.313618	0.515453
	C2793	C	0.192381	0.313626	0.514303
	C2794	C	0.260740	0.252464	0.528281
	C2795	C	0.221725	0.043217	0.610392
	C2796	C	0.220262	0.043261	0.486994
	C2797	C	0.219674	0.962362	0.486754
	C2798	C	0.221755	0.962559	0.610400
	C2799	C	0.220259	0.962400	0.487000
	N2800	N	0.157318	0.069997	0.549504
	N2801	N	0.157372	0.935511	0.549476
	N2802	N	0.157388	0.435579	0.549546
	N2803	N	0.157397	0.570036	0.549531
	N2804	N	0.222348	0.435256	0.615700
	N2805	N	0.222392	0.569933	0.615691
	N2806	N	0.222354	0.070341	0.615604
	N2807	N	0.222390	0.935748	0.615597
	O2808	O	0.211088	0.694169	0.680113
	O2809	O	0.211022	0.811086	0.680151
	O2810	O	0.167483	0.694722	0.692760
	O2811	O	0.167586	0.811350	0.692738
	O2812	O	0.167458	0.194529	0.692720
	O2813	O	0.167550	0.311264	0.692680
	O2814	O	0.172204	0.694125	0.667394
	O2815	O	0.172267	0.810575	0.667441
	O2816	O	0.172131	0.194661	0.667347
	O2817	O	0.172236	0.310933	0.667413
	O2818	O	0.206333	0.694120	0.705521
	O2819	O	0.206369	0.810418	0.705500
	O2820	O	0.206334	0.193970	0.705510
	O2821	O	0.206280	0.310214	0.705446
	O2822	O	0.211070	0.194612	0.680165
	O2823	O	0.210957	0.311341	0.680146
	O2824	O	0.229885	0.695293	0.630149
	O2825	O	0.207146	0.694258	0.624529
	O2826	O	0.171304	0.694647	0.748345
	O2827	O	0.171392	0.811244	0.748332
	O2828	O	0.148558	0.694676	0.742724
	O2829	O	0.148622	0.811533	0.742714
	O2830	O	0.207142	0.810976	0.624517
	O2831	O	0.229807	0.812066	0.630164
	O2832	O	0.229843	0.193979	0.630173
	O2833	O	0.207233	0.194483	0.624623
	O2834	O	0.171317	0.194174	0.748387
	O2835	O	0.171354	0.310786	0.748372
	O2836	O	0.148725	0.194433	0.742746
	O2837	O	0.148753	0.311279	0.742764
	O2838	O	0.207165	0.311008	0.624537
	O2839	O	0.229923	0.310956	0.630165
	H2840	H	0.162090	0.643297	0.709023
	H2841	H	0.161971	0.862843	0.709004
	H2842	H	0.162176	0.142985	0.708998
	H2843	H	0.162070	0.362949	0.708947
	H2844	H	0.182850	0.861942	0.653251
	H2845	H	0.182911	0.642866	0.653213
	H2846	H	0.182892	0.362161	0.653270
	H2847	H	0.182903	0.143452	0.653295
	H2848	H	0.215444	0.064333	0.696019
	H2849	H	0.217938	0.063859	0.697616
	H2850	H	0.217904	0.940782	0.697552
	H2851	H	0.215416	0.941074	0.696026
	H2852	H	0.215844	0.064740	0.692559
	H2853	H	0.215753	0.941091	0.692553
	H2854	H	0.158154	0.063962	0.677721
	H2855	H	0.158146	0.941225	0.677692
	H2856	H	0.158500	0.064234	0.679133
	H2857	H	0.158461	0.941203	0.679151
	H2858	H	0.160615	0.064534	0.679809
	H2859	H	0.160573	0.941183	0.679808
	H2860	H	0.158558	0.441030	0.673116
	H2861	H	0.154557	0.441131	0.675680
	H2862	H	0.165039	0.440979	0.675616
	H2863	H	0.217463	0.441263	0.695352
	H2864	H	0.217457	0.441448	0.693963
	H2865	H	0.218430	0.441374	0.693464
	H2866	H	0.154491	0.564589	0.675682
	H2867	H	0.158568	0.564749	0.673107
	H2868	H	0.218425	0.564752	0.693520
	H2869	H	0.217428	0.564617	0.693951
	H2870	H	0.217482	0.564696	0.695395
	H2871	H	0.165094	0.564449	0.675565
	H2872	H	0.195776	0.642942	0.719723
	H2873	H	0.195895	0.861848	0.719757
	H2874	H	0.195911	0.142796	0.719799
	H2875	H	0.195710	0.361454	0.719630
	H2876	H	0.194951	0.643208	0.637588
	H2877	H	0.224484	0.643262	0.646381
	H2878	H	0.224352	0.863289	0.646377
	H2879	H	0.194852	0.862278	0.637630
	H2880	H	0.216636	0.643099	0.663910
	H2881	H	0.216472	0.862993	0.663922
	H2882	H	0.183685	0.643234	0.735336
	H2883	H	0.183818	0.862094	0.735335
	H2884	H	0.224883	0.441395	0.612317
	H2885	H	0.160087	0.441260	0.757017
	H2886	H	0.226961	0.441183	0.616830
	H2887	H	0.224489	0.440963	0.619403
	H2888	H	0.153881	0.440786	0.754552
	H2889	H	0.157098	0.441299	0.754102
	H2890	H	0.160107	0.564730	0.757042
	H2891	H	0.224920	0.564851	0.612370
	H2892	H	0.157069	0.564200	0.754105
	H2893	H	0.153886	0.564657	0.754504
	H2894	H	0.224525	0.564447	0.619373
	H2895	H	0.226938	0.564043	0.616786
	H2896	H	0.183881	0.142736	0.735403
	H2897	H	0.183686	0.361683	0.735255
	H2898	H	0.228332	0.064349	0.621739
	H2899	H	0.231437	0.064750	0.615853
	H2900	H	0.217910	0.064037	0.622236
	H2901	H	0.154040	0.862739	0.726491
	H2902	H	0.154163	0.643285	0.726500
	H2903	H	0.154093	0.362822	0.726442
	H2904	H	0.154218	0.142964	0.726481
	H2905	H	0.194928	0.143384	0.637698
	H2906	H	0.224407	0.142829	0.646400
	H2907	H	0.224455	0.362311	0.646394
	H2908	H	0.194923	0.362261	0.637676
	H2909	H	0.216474	0.142831	0.663917
	H2910	H	0.216532	0.362664	0.663895
	H2911	H	0.160386	0.064361	0.756072
	H2912	H	0.157621	0.064718	0.753670
	H2913	H	0.152545	0.064613	0.754769
	H2914	H	0.231485	0.940557	0.615880
	H2915	H	0.228392	0.940722	0.621709
	H2916	H	0.217935	0.941133	0.622184
	H2917	H	0.160363	0.941445	0.756052
	H2918	H	0.157609	0.941113	0.753703
	H2919	H	0.152521	0.941160	0.754688
	Zn2920	Zn	0.159951	0.680367	0.678265
	Zn2921	Zn	0.159988	0.825317	0.678209
	Zn2922	Zn	0.159968	0.180238	0.678225
	Zn2923	Zn	0.159977	0.325170	0.678242
	Zn2924	Zn	0.156171	0.680082	0.757229
	Zn2925	Zn	0.156198	0.825254	0.757188
	Zn2926	Zn	0.156184	0.180357	0.757291
	Zn2927	Zn	0.156282	0.325297	0.757264
	C2928	C	0.212130	0.752737	0.675812
	C2929	C	0.166484	0.753088	0.697103
	C2930	C	0.162732	0.753050	0.707980
	C2931	C	0.160367	0.691021	0.712915
	C2932	C	0.160318	0.815070	0.712916
	C2933	C	0.166479	0.252989	0.697052
	C2934	C	0.162712	0.253017	0.707926
	C2935	C	0.160408	0.190813	0.712874
	C2936	C	0.160350	0.315164	0.712844
	C2937	C	0.175024	0.752353	0.663737
	C2938	C	0.182225	0.752401	0.654277
	C2939	C	0.185477	0.814394	0.649758
	C2940	C	0.185538	0.690536	0.649737
	C2941	C	0.175018	0.252806	0.663734
	C2942	C	0.182203	0.252847	0.654290
	C2943	C	0.185514	0.314670	0.649784
	C2944	C	0.185514	0.191006	0.649796
	C2945	C	0.217152	0.043016	0.696236
	C2946	C	0.217133	0.962305	0.696220
	C2947	C	0.158813	0.043039	0.678381
	C2948	C	0.158792	0.962586	0.678365
	C2949	C	0.160928	0.043460	0.679095
	C2950	C	0.160928	0.962290	0.679074
	C2951	C	0.157483	0.462339	0.675416
	C2952	C	0.218108	0.462496	0.695373
	C2953	C	0.218078	0.462503	0.693964
	C2954	C	0.157461	0.543261	0.675399
	C2955	C	0.218056	0.543312	0.693983
	C2956	C	0.218097	0.543380	0.695376
	C2957	C	0.203546	0.752308	0.709203
	C2958	C	0.203470	0.252132	0.709133
	C2959	C	0.196343	0.752409	0.718642
	C2960	C	0.193078	0.690634	0.723181
	C2961	C	0.193145	0.814298	0.723190
	C2962	C	0.196313	0.252214	0.718603
	C2963	C	0.193135	0.190332	0.723192
	C2964	C	0.193027	0.313957	0.723105
	C2965	C	0.212071	0.252947	0.675824
	C2966	C	0.228765	0.753602	0.634481
	C2967	C	0.203751	0.752628	0.627774
	C2968	C	0.149688	0.753058	0.738398
	C2969	C	0.218273	0.690841	0.659987
	C2970	C	0.218194	0.815260	0.659988
	C2971	C	0.225060	0.753265	0.645377
	C2972	C	0.195591	0.752696	0.636634
	C2973	C	0.192185	0.690665	0.641046
	C2974	C	0.222749	0.690996	0.650294
	C2975	C	0.222679	0.815452	0.650293
	C2976	C	0.192127	0.814553	0.641072
	C2977	C	0.215888	0.753006	0.664917
	C2978	C	0.174776	0.752841	0.745112
	C2979	C	0.186408	0.690736	0.731861
	C2980	C	0.186471	0.814415	0.731864
	C2981	C	0.182928	0.752644	0.736249
	C2982	C	0.158702	0.462391	0.758073
	C2983	C	0.224845	0.462362	0.617481
	C2984	C	0.155665	0.462343	0.755096
	C2985	C	0.158692	0.543533	0.758062
	C2986	C	0.155637	0.543110	0.755072
	C2987	C	0.224847	0.542990	0.617464
	C2988	C	0.174765	0.252396	0.745139
	C2989	C	0.186497	0.190352	0.731897
	C2990	C	0.186389	0.314010	0.731813
	C2991	C	0.182878	0.252267	0.736220
	C2992	C	0.227947	0.043324	0.617963
	C2993	C	0.228838	0.252487	0.634492
	C2994	C	0.203774	0.252781	0.627824
	C2995	C	0.149794	0.252851	0.738418
	C2996	C	0.218199	0.190541	0.660016
	C2997	C	0.218225	0.314831	0.660008
	C2998	C	0.225046	0.252484	0.645398
	C2999	C	0.195651	0.252852	0.636702
	C3000	C	0.153491	0.752910	0.727527
	C3001	C	0.155778	0.815030	0.722584
	C3002	C	0.155846	0.690953	0.722592
	C3003	C	0.153555	0.252904	0.727514
	C3004	C	0.155849	0.315046	0.722541
	C3005	C	0.155909	0.190792	0.722566
	C3006	C	0.192192	0.191020	0.641126
	C3007	C	0.222708	0.190389	0.650330
	C3008	C	0.222744	0.314734	0.650330
	C3009	C	0.192194	0.314660	0.641110
	C3010	C	0.215862	0.252717	0.664948
	C3011	C	0.158210	0.043266	0.755503
	C3012	C	0.217438	0.043135	0.618468
	C3013	C	0.227963	0.962147	0.617962
	C3014	C	0.158212	0.962421	0.755509
	C3015	C	0.217461	0.962449	0.618460
	N3016	N	0.160074	0.070215	0.678231
	N3017	N	0.160055	0.935662	0.678194
	N3018	N	0.160008	0.435436	0.678239
	N3019	N	0.160007	0.570043	0.678248
	N3020	N	0.156212	0.435311	0.757268
	N3021	N	0.156190	0.569870	0.757245
	N3022	N	0.156072	0.070219	0.757288
	N3023	N	0.156073	0.935631	0.757266
	O3024	O	0.207914	0.694899	0.812161
	O3025	O	0.207838	0.810918	0.812170
	O3026	O	0.105769	0.694762	0.831906
	O3027	O	0.105761	0.810914	0.831877
	O3028	O	0.105637	0.194565	0.831996
	O3029	O	0.105702	0.310750	0.831960
	O3030	O	0.108804	0.694562	0.810827
	O3031	O	0.108692	0.811039	0.810796
	O3032	O	0.108742	0.194417	0.810801
	O3033	O	0.108707	0.311161	0.810808
	O3034	O	0.208852	0.695254	0.834870
	O3035	O	0.208899	0.811034	0.834891
	O3036	O	0.208790	0.194972	0.834831
	O3037	O	0.208833	0.310778	0.834782
	O3038	O	0.207980	0.194606	0.812090
	O3039	O	0.207861	0.310480	0.812147
	O3040	O	0.168342	0.694992	0.769458
	O3041	O	0.143888	0.694749	0.768090
	O3042	O	0.170051	0.695042	0.874906
	O3043	O	0.170046	0.810809	0.874884
	O3044	O	0.145120	0.694767	0.874656
	O3045	O	0.145287	0.810940	0.874524
	O3046	O	0.143869	0.811098	0.768055
	O3047	O	0.168356	0.811215	0.769470
	O3048	O	0.168267	0.194632	0.769524
	O3049	O	0.143933	0.195094	0.768087
	O3050	O	0.170175	0.194913	0.874927
	O3051	O	0.170195	0.311101	0.874921
	O3052	O	0.145326	0.194968	0.874515
	O3053	O	0.145334	0.311082	0.874519
	O3054	O	0.143869	0.311395	0.768029
	O3055	O	0.168261	0.310825	0.769572
	H3056	H	0.118431	0.644401	0.845540
	H3057	H	0.118492	0.861241	0.845500
	H3058	H	0.118325	0.144288	0.845652
	H3059	H	0.118461	0.361231	0.845559
	H3060	H	0.121069	0.862049	0.797783
	H3061	H	0.120943	0.643818	0.797632
	H3062	H	0.120955	0.362640	0.797754
	H3063	H	0.120989	0.143351	0.797652
	H3064	H	0.220327	0.064506	0.823128
	H3065	H	0.219955	0.064320	0.823539
	H3066	H	0.219967	0.941331	0.823517
	H3067	H	0.220351	0.940980	0.823122
	H3068	H	0.221152	0.064395	0.823206
	H3069	H	0.221131	0.940840	0.823225
	H3070	H	0.085042	0.064475	0.816497
	H3071	H	0.085021	0.940880	0.816558
	H3072	H	0.085543	0.065120	0.823022
	H3073	H	0.085430	0.941040	0.823064
	H3074	H	0.094875	0.064823	0.827390
	H3075	H	0.094864	0.940864	0.827481
	H3076	H	0.096874	0.441116	0.819082
	H3077	H	0.095046	0.441500	0.817054
	H3078	H	0.095567	0.440772	0.822164
	H3079	H	0.223468	0.441268	0.825066
	H3080	H	0.220222	0.440785	0.826359
	H3081	H	0.217975	0.441293	0.824999
	H3082	H	0.095049	0.564770	0.817093
	H3083	H	0.096868	0.564450	0.819076
	H3084	H	0.218068	0.564273	0.825056
	H3085	H	0.220227	0.564392	0.826311
	H3086	H	0.223445	0.564425	0.825080
	H3087	H	0.095558	0.563936	0.822210
	H3088	H	0.196341	0.645084	0.847675
	H3089	H	0.196422	0.861065	0.847667
	H3090	H	0.196326	0.144819	0.847637
	H3091	H	0.196361	0.361407	0.847614
	H3092	H	0.133042	0.643797	0.782104
	H3093	H	0.181081	0.644557	0.783104
	H3094	H	0.181155	0.861309	0.783084
	H3095	H	0.133196	0.862212	0.782231
	H3096	H	0.195188	0.644278	0.798460
	H3097	H	0.195271	0.861252	0.798441
	H3098	H	0.182496	0.645339	0.862086
	H3099	H	0.182529	0.860945	0.862064
	H3100	H	0.159093	0.441279	0.759676
	H3101	H	0.154848	0.441027	0.885329
	H3102	H	0.154694	0.441222	0.760277
	H3103	H	0.152466	0.440793	0.758097
	H3104	H	0.158997	0.441411	0.889032
	H3105	H	0.156223	0.441002	0.888477
	H3106	H	0.154934	0.564204	0.885307
	H3107	H	0.159123	0.565262	0.759700
	H3108	H	0.156290	0.564665	0.888464
	H3109	H	0.158981	0.564609	0.888961
	H3110	H	0.152445	0.564024	0.758110
	H3111	H	0.154618	0.564333	0.760245
	H3112	H	0.182512	0.144928	0.862077
	H3113	H	0.182527	0.361105	0.862049
	H3114	H	0.155404	0.064408	0.761151
	H3115	H	0.159090	0.064316	0.760334
	H3116	H	0.151574	0.064418	0.757824
	H3117	H	0.132556	0.861150	0.860879
	H3118	H	0.132468	0.644511	0.860935
	H3119	H	0.132579	0.361666	0.860884
	H3120	H	0.132468	0.144186	0.860974
	H3121	H	0.133095	0.143670	0.782108
	H3122	H	0.181001	0.144673	0.783168
	H3123	H	0.181045	0.360431	0.783145
	H3124	H	0.133067	0.362943	0.782177
	H3125	H	0.195131	0.144389	0.798502
	H3126	H	0.195152	0.360757	0.798496
	H3127	H	0.156903	0.064387	0.887287
	H3128	H	0.158350	0.064537	0.887669
	H3129	H	0.159849	0.064679	0.886424
	H3130	H	0.159072	0.941267	0.760260
	H3131	H	0.155416	0.940819	0.761047
	H3132	H	0.151602	0.941033	0.757826
	H3133	H	0.156959	0.941089	0.887306
	H3134	H	0.158427	0.940958	0.887661
	H3135	H	0.159903	0.940793	0.886353
	Zn3136	Zn	0.093667	0.680267	0.819694
	Zn3137	Zn	0.093536	0.825389	0.819734
	Zn3138	Zn	0.093607	0.180329	0.819661
	Zn3139	Zn	0.093617	0.325431	0.819688
	Zn3140	Zn	0.158102	0.680172	0.886124
	Zn3141	Zn	0.158133	0.825470	0.886100
	Zn3142	Zn	0.158059	0.179978	0.886089
	Zn3143	Zn	0.158135	0.325392	0.886118
	C3144	C	0.204534	0.752853	0.808643
	C3145	C	0.109117	0.752869	0.835397
	C3146	C	0.117614	0.752872	0.844618
	C3147	C	0.121533	0.691511	0.848985
	C3148	C	0.121564	0.814193	0.848964
	C3149	C	0.109008	0.252668	0.835503
	C3150	C	0.117512	0.252720	0.844732
	C3151	C	0.121476	0.191389	0.849088
	C3152	C	0.121534	0.314153	0.849033
	C3153	C	0.112164	0.752881	0.807555
	C3154	C	0.120344	0.753022	0.798711
	C3155	C	0.123862	0.814646	0.794350
	C3156	C	0.123783	0.691307	0.794284
	C3157	C	0.112131	0.252841	0.807573
	C3158	C	0.120358	0.252980	0.798753
	C3159	C	0.123816	0.315056	0.794360
	C3160	C	0.123827	0.191133	0.794305
	C3161	C	0.220273	0.043156	0.823424
	C3162	C	0.220291	0.962365	0.823419
	C3163	C	0.087392	0.043278	0.819738
	C3164	C	0.087361	0.962133	0.819760
	C3165	C	0.096815	0.043319	0.824116
	C3166	C	0.096803	0.962422	0.824167
	C3167	C	0.095301	0.462477	0.818497
	C3168	C	0.222781	0.462564	0.823854
	C3169	C	0.219528	0.462254	0.825155
	C3170	C	0.095317	0.543199	0.818495
	C3171	C	0.219544	0.543115	0.825173
	C3172	C	0.222754	0.543118	0.823894
	C3173	C	0.205576	0.753102	0.838165
	C3174	C	0.205556	0.252950	0.838122
	C3175	C	0.197175	0.753059	0.846778
	C3176	C	0.193280	0.691986	0.850888
	C3177	C	0.193329	0.814170	0.850874
	C3178	C	0.197192	0.253100	0.846760
	C3179	C	0.193272	0.191921	0.850844
	C3180	C	0.193286	0.314331	0.850822
	C3181	C	0.204538	0.252562	0.808623
	C3182	C	0.171679	0.753093	0.772986
	C3183	C	0.141016	0.752995	0.771720
	C3184	C	0.141902	0.752849	0.871039
	C3185	C	0.192020	0.691449	0.795059
	C3186	C	0.192068	0.814146	0.795051
	C3187	C	0.180214	0.752975	0.782195
	C3188	C	0.133836	0.753052	0.781146
	C3189	C	0.130470	0.691346	0.785624
	C3190	C	0.184196	0.691620	0.786530
	C3191	C	0.184240	0.814160	0.786530
	C3192	C	0.130566	0.814597	0.785688
	C3193	C	0.195948	0.752811	0.799450
	C3194	C	0.173262	0.752936	0.871548
	C3195	C	0.185581	0.692104	0.858881
	C3196	C	0.185628	0.814103	0.858870
	C3197	C	0.181652	0.753114	0.862925
	C3198	C	0.156386	0.462118	0.884865
	C3199	C	0.154252	0.462289	0.758691
	C3200	C	0.157762	0.462477	0.888089
	C3201	C	0.156406	0.543043	0.884864
	C3202	C	0.157758	0.543441	0.888044
	C3203	C	0.154210	0.542918	0.758672
	C3204	C	0.173397	0.252976	0.871583
	C3205	C	0.185635	0.191862	0.858879
	C3206	C	0.185660	0.314275	0.858860
	C3207	C	0.181753	0.253037	0.862943
	C3208	C	0.156901	0.043289	0.759810
	C3209	C	0.171583	0.252650	0.773072
	C3210	C	0.141051	0.253316	0.771720
	C3211	C	0.141984	0.253041	0.871000
	C3212	C	0.191972	0.191434	0.795113
	C3213	C	0.191982	0.313806	0.795109
	C3214	C	0.180135	0.252582	0.782263
	C3215	C	0.133871	0.253326	0.781186
	C3216	C	0.133316	0.752815	0.861867
	C3217	C	0.129358	0.814107	0.857506
	C3218	C	0.129316	0.691527	0.857533
	C3219	C	0.133337	0.252992	0.861899
	C3220	C	0.129361	0.314348	0.857538
	C3221	C	0.129307	0.191453	0.857594
	C3222	C	0.130520	0.191332	0.785638
	C3223	C	0.184145	0.191499	0.786589
	C3224	C	0.184158	0.313684	0.786583
	C3225	C	0.130509	0.315178	0.785691
	C3226	C	0.195907	0.252608	0.799481
	C3227	C	0.157745	0.042961	0.887103
	C3228	C	0.153089	0.043242	0.756531
	C3229	C	0.156908	0.962482	0.759764
	C3230	C	0.157781	0.962260	0.887118
	C3231	C	0.153120	0.962381	0.756534
	N3232	N	0.093490	0.070039	0.819652
	N3233	N	0.093460	0.935438	0.819674
	N3234	N	0.093570	0.435531	0.819718
	N3235	N	0.093558	0.570079	0.819703
	N3236	N	0.158144	0.435404	0.886185
	N3237	N	0.158132	0.569962	0.886170
	N3238	N	0.158059	0.069875	0.886103
	N3239	N	0.158087	0.935334	0.886096
	O3240	O	0.217624	0.694907	0.934649
	O3241	O	0.217787	0.810487	0.934508
	O3242	O	0.108975	0.694619	0.959366
	O3243	O	0.108982	0.810818	0.959372
	O3244	O	0.108920	0.195101	0.959398
	O3245	O	0.108928	0.311016	0.959387
	O3246	O	0.107473	0.694641	0.937283
	O3247	O	0.107607	0.810607	0.937380
	O3248	O	0.107530	0.194987	0.937323
	O3249	O	0.107544	0.310988	0.937319
	O3250	O	0.219704	0.695435	0.956677
	O3251	O	0.219864	0.811319	0.956741
	O3252	O	0.219598	0.194891	0.956600
	O3253	O	0.219648	0.311005	0.956617
	O3254	O	0.217618	0.194470	0.934529
	O3255	O	0.217705	0.310576	0.934474
	O3256	O	0.171758	0.694866	0.896933
	O3257	O	0.146159	0.694850	0.897194
	O3258	O	0.180323	0.695455	0.996147
	O3259	O	0.180326	0.811253	0.996223
	O3260	O	0.155031	0.694673	0.996904
	O3261	O	0.154931	0.810755	0.996951
	O3262	O	0.146287	0.810807	0.897256
	O3263	O	0.171679	0.810887	0.897034
	O3264	O	0.171610	0.194682	0.897027
	O3265	O	0.146207	0.194766	0.897250
	O3266	O	0.180405	0.195133	0.996255
	O3267	O	0.180442	0.311023	0.996278
	O3268	O	0.155041	0.194853	0.996832
	O3269	O	0.154917	0.310784	0.996953
	O3270	O	0.146146	0.310488	0.897196
	O3271	O	0.171609	0.310587	0.897050
	H3272	H	0.123712	0.644137	0.971427
	H3273	H	0.123705	0.861155	0.971418
	H3274	H	0.123793	0.144822	0.971357
	H3275	H	0.123732	0.361003	0.971359
	H3276	H	0.119974	0.860550	0.924516
	H3277	H	0.119892	0.644864	0.924443
	H3278	H	0.119878	0.360102	0.924470
	H3279	H	0.120028	0.145644	0.924632
	H3280	H	0.232455	0.064164	0.945359
	H3281	H	0.232151	0.064193	0.944658
	H3282	H	0.232162	0.940917	0.944616
	H3283	H	0.232439	0.940591	0.945352
	H3284	H	0.231710	0.063984	0.946101
	H3285	H	0.231693	0.940896	0.946066
	H3286	H	0.096404	0.064670	0.945732
	H3287	H	0.096393	0.941168	0.945687
	H3288	H	0.093569	0.064642	0.945960
	H3289	H	0.093543	0.941506	0.945906
	H3290	H	0.092063	0.064192	0.949019
	H3291	H	0.092050	0.941040	0.949046
	H3292	H	0.094722	0.441245	0.949794
	H3293	H	0.096180	0.441045	0.949788
	H3294	H	0.093625	0.441235	0.948266
	H3295	H	0.230044	0.441067	0.944543
	H3296	H	0.231719	0.441214	0.943960
	H3297	H	0.232825	0.441172	0.944729
	H3298	H	0.096176	0.564597	0.949790
	H3299	H	0.094749	0.564626	0.949777
	H3300	H	0.232777	0.565004	0.944708
	H3301	H	0.231697	0.564366	0.944014
	H3302	H	0.230037	0.564164	0.944549
	H3303	H	0.093635	0.564516	0.948267
	H3304	H	0.207110	0.645179	0.969327
	H3305	H	0.207124	0.861866	0.969336
	H3306	H	0.207188	0.144709	0.969401
	H3307	H	0.207100	0.361596	0.969343
	H3308	H	0.133716	0.644743	0.909984
	H3309	H	0.186466	0.644864	0.909011
	H3310	H	0.186432	0.860891	0.909077
	H3311	H	0.133828	0.860841	0.910067
	H3312	H	0.202951	0.644938	0.922511
	H3313	H	0.202930	0.860443	0.922559
	H3314	H	0.192963	0.645642	0.983533
	H3315	H	0.192949	0.861674	0.983518
	H3316	H	0.156657	0.440699	0.883491
	H3317	H	0.168261	0.440858	1.008350
	H3318	H	0.160469	0.441128	0.884191
	H3319	H	0.161473	0.441660	0.886539
	H3320	H	0.169610	0.440609	1.007669
	H3321	H	0.169272	0.440298	1.008273
	H3322	H	0.168316	0.563973	1.008341
	H3323	H	0.156639	0.564261	0.883524
	H3324	H	0.169346	0.564336	1.008283
	H3325	H	0.169693	0.563954	1.007612
	H3326	H	0.161406	0.564121	0.886536
	H3327	H	0.160459	0.564621	0.884224
	H3328	H	0.193139	0.144422	0.983693
	H3329	H	0.193040	0.361611	0.983640
	H3330	H	0.157448	0.064001	0.884618
	H3331	H	0.156324	0.064471	0.885549
	H3332	H	0.159489	0.064349	0.885133
	H3333	H	0.140150	0.861133	0.984918
	H3334	H	0.140200	0.644349	0.984924
	H3335	H	0.140226	0.360916	0.984837
	H3336	H	0.140311	0.144986	0.984809
	H3337	H	0.133868	0.145154	0.910184
	H3338	H	0.186417	0.144648	0.909008
	H3339	H	0.186388	0.360635	0.909076
	H3340	H	0.133725	0.360077	0.910035
	H3341	H	0.202922	0.144664	0.922482
	H3342	H	0.202904	0.360665	0.922537
	H3343	H	0.169400	0.064484	1.007203
	H3344	H	0.168720	0.064078	1.006944
	H3345	H	0.167893	0.064341	1.007420
	H3346	H	0.156407	0.940910	0.885523
	H3347	H	0.157445	0.941316	0.884657
	H3348	H	0.159457	0.941494	0.885104
	H3349	H	0.169338	0.940859	1.007221
	H3350	H	0.168683	0.941013	1.006950
	H3351	H	0.167855	0.941310	1.007405
	Zn3352	Zn	0.095425	0.680042	0.948462
	Zn3353	Zn	0.095467	0.825740	0.948441
	Zn3354	Zn	0.095436	0.180003	0.948479
	Zn3355	Zn	0.095414	0.325607	0.948446
	Zn3356	Zn	0.168758	0.679891	1.007628
	Zn3357	Zn	0.168682	0.825548	1.007679
	Zn3358	Zn	0.168748	0.180146	1.007655
	Zn3359	Zn	0.168674	0.325180	1.007676
	C3360	C	0.213856	0.752705	0.931463
	C3361	C	0.112799	0.752668	0.962490
	C3362	C	0.122762	0.752588	0.970580
	C3363	C	0.127404	0.691225	0.974399
	C3364	C	0.127399	0.814047	0.974388
	C3365	C	0.112770	0.253028	0.962512
	C3366	C	0.122698	0.252923	0.970614
	C3367	C	0.127410	0.191781	0.974381
	C3368	C	0.127382	0.314017	0.974388
	C3369	C	0.110790	0.752644	0.934019
	C3370	C	0.119160	0.752736	0.925359
	C3371	C	0.123061	0.813831	0.921282
	C3372	C	0.123012	0.691656	0.921249
	C3373	C	0.110783	0.252953	0.934022
	C3374	C	0.119142	0.252867	0.925366
	C3375	C	0.122988	0.313632	0.921259
	C3376	C	0.123060	0.191987	0.921339
	C3377	C	0.232060	0.043021	0.945054
	C3378	C	0.232051	0.962071	0.945033
	C3379	C	0.095105	0.043397	0.946540
	C3380	C	0.095096	0.962632	0.946504
	C3381	C	0.093573	0.043264	0.949609
	C3382	C	0.093584	0.962389	0.949608
	C3383	C	0.095429	0.462382	0.949412
	C3384	C	0.230365	0.462076	0.945161
	C3385	C	0.232066	0.462442	0.944595
	C3386	C	0.095435	0.543290	0.949432
	C3387	C	0.232035	0.543363	0.944618
	C3388	C	0.230366	0.543020	0.945166
	C3389	C	0.216492	0.753447	0.959988
	C3390	C	0.216355	0.252959	0.959906
	C3391	C	0.207983	0.753481	0.968502
	C3392	C	0.203986	0.692259	0.972501
	C3393	C	0.203979	0.814809	0.972490
	C3394	C	0.207918	0.253193	0.968500
	C3395	C	0.204026	0.191783	0.972563
	C3396	C	0.203976	0.314573	0.972534
	C3397	C	0.213824	0.252561	0.931385
	C3398	C	0.175536	0.752854	0.900120
	C3399	C	0.143008	0.752860	0.900552
	C3400	C	0.151137	0.752716	0.993816
	C3401	C	0.199277	0.691728	0.919512
	C3402	C	0.199269	0.813727	0.919536
	C3403	C	0.185459	0.752884	0.908229
	C3404	C	0.134619	0.752798	0.909182
	C3405	C	0.130669	0.691646	0.913220
	C3406	C	0.190133	0.691761	0.912019
	C3407	C	0.190118	0.813873	0.912048
	C3408	C	0.130725	0.813930	0.913259
	C3409	C	0.203921	0.752770	0.923342
	C3410	C	0.183604	0.753470	0.992890
	C3411	C	0.196130	0.692454	0.980375
	C3412	C	0.196128	0.814820	0.980368
	C3413	C	0.192139	0.753643	0.984374
	C3414	C	0.168244	0.462221	1.007973
	C3415	C	0.160229	0.462427	0.885579
	C3416	C	0.169248	0.461959	1.007894
	C3417	C	0.168249	0.542850	1.007988
	C3418	C	0.169293	0.542969	1.007879
	C3419	C	0.160181	0.543077	0.885576
	C3420	C	0.183708	0.253094	0.992987
	C3421	C	0.196225	0.191625	0.980479
	C3422	C	0.196165	0.314560	0.980440
	C3423	C	0.192201	0.253075	0.984453
	C3424	C	0.157211	0.043139	0.885333
	C3425	C	0.175448	0.252590	0.900156
	C3426	C	0.142937	0.252662	0.900547
	C3427	C	0.151136	0.252804	0.993767
	C3428	C	0.199211	0.191548	0.919517
	C3429	C	0.199197	0.313787	0.919550
	C3430	C	0.185362	0.252600	0.908280
	C3431	C	0.134585	0.252638	0.909195
	C3432	C	0.141212	0.752665	0.985697
	C3433	C	0.136530	0.813991	0.981885
	C3434	C	0.136546	0.691337	0.981889
	C3435	C	0.141202	0.252908	0.985696
	C3436	C	0.136548	0.314027	0.981865
	C3437	C	0.136586	0.191791	0.981850
	C3438	C	0.130740	0.191846	0.913325
	C3439	C	0.190045	0.191506	0.912058
	C3440	C	0.190027	0.313752	0.912086
	C3441	C	0.130666	0.313521	0.913246
	C3442	C	0.203858	0.252667	0.923334
	C3443	C	0.168992	0.043030	1.007226
	C3444	C	0.159253	0.043201	0.885849
	C3445	C	0.157208	0.962314	0.885346
	C3446	C	0.168966	0.962164	1.007226
	C3447	C	0.159255	0.962331	0.885833
	N3448	N	0.095400	0.070289	0.948472
	N3449	N	0.095406	0.935806	0.948439
	N3450	N	0.095363	0.435518	0.948465
	N3451	N	0.095367	0.569991	0.948453
	N3452	N	0.168701	0.435240	1.007662
	N3453	N	0.168731	0.569829	1.007653
	N3454	N	0.168719	0.070045	1.007679
	N3455	N	0.168675	0.935532	1.007657
	O3456	O	0.368764	0.694802	0.048471
	O3457	O	0.368897	0.810735	0.048491
	O3458	O	0.258250	0.695048	0.075196
	O3459	O	0.258354	0.811016	0.075116
	O3460	O	0.258271	0.194968	0.075195
	O3461	O	0.258412	0.310827	0.075102
	O3462	O	0.255920	0.694179	0.053247
	O3463	O	0.255887	0.810208	0.053186
	O3464	O	0.255870	0.194534	0.053186
	O3465	O	0.255936	0.310702	0.053261
	O3466	O	0.371305	0.695051	0.070437
	O3467	O	0.371273	0.811072	0.070433
	O3468	O	0.371299	0.195091	0.070458
	O3469	O	0.371281	0.311050	0.070485
	O3470	O	0.368815	0.194652	0.048529
	O3471	O	0.368855	0.310649	0.048532
	O3472	O	0.320968	0.694925	0.012762
	O3473	O	0.295410	0.694445	0.013765
	O3474	O	0.331697	0.694814	0.109831
	O3475	O	0.331813	0.810518	0.109885
	O3476	O	0.306165	0.695122	0.110850
	O3477	O	0.306209	0.811079	0.110887
	O3478	O	0.295358	0.810537	0.013805
	O3479	O	0.320916	0.810995	0.012742
	O3480	O	0.321049	0.194792	0.012711
	O3481	O	0.295371	0.194844	0.013691
	O3482	O	0.331746	0.195111	0.109862
	O3483	O	0.331719	0.311042	0.109847
	O3484	O	0.306111	0.194678	0.110977
	O3485	O	0.306207	0.310618	0.110893
	O3486	O	0.295443	0.310648	0.013777
	O3487	O	0.320950	0.310922	0.012783
	H3488	H	0.273687	0.645023	0.086621
	H3489	H	0.273662	0.861348	0.086678
	H3490	H	0.273746	0.144526	0.086538
	H3491	H	0.273681	0.361022	0.086612
	H3492	H	0.268493	0.860159	0.040578
	H3493	H	0.268513	0.643703	0.040537
	H3494	H	0.268516	0.360893	0.040572
	H3495	H	0.268551	0.144346	0.040597
	H3496	H	0.382423	0.064621	0.058798
	H3497	H	0.382415	0.065024	0.059089
	H3498	H	0.382365	0.941031	0.059117
	H3499	H	0.382441	0.941222	0.058783
	H3500	H	0.382953	0.064476	0.058620
	H3501	H	0.383018	0.941302	0.058643
	H3502	H	0.243443	0.064399	0.064904
	H3503	H	0.243457	0.941282	0.064889
	H3504	H	0.243997	0.064596	0.065428
	H3505	H	0.244048	0.941340	0.065368
	H3506	H	0.245085	0.064839	0.065170
	H3507	H	0.245035	0.941226	0.065178
	H3508	H	0.245104	0.441572	0.064656
	H3509	H	0.244742	0.441448	0.064237
	H3510	H	0.244669	0.441168	0.065311
	H3511	H	0.382250	0.440464	0.058189
	H3512	H	0.383474	0.441280	0.058270
	H3513	H	0.383902	0.441397	0.059011
	H3514	H	0.244777	0.564424	0.064213
	H3515	H	0.245038	0.564565	0.064643
	H3516	H	0.383826	0.564643	0.058965
	H3517	H	0.383451	0.563983	0.058248
	H3518	H	0.382163	0.564354	0.058107
	H3519	H	0.244668	0.564206	0.065315
	H3520	H	0.358841	0.644502	0.083238
	H3521	H	0.358670	0.861155	0.083114
	H3522	H	0.358623	0.145011	0.083088
	H3523	H	0.358611	0.361366	0.083089
	H3524	H	0.282666	0.643943	0.026332
	H3525	H	0.336313	0.645028	0.024257
	H3526	H	0.336265	0.861028	0.024189
	H3527	H	0.282666	0.860427	0.026394
	H3528	H	0.353493	0.645142	0.037048
	H3529	H	0.353491	0.861111	0.036974
	H3530	H	0.344660	0.644427	0.097386
	H3531	H	0.344479	0.860933	0.097303
	H3532	H	0.308794	0.441056	0.002587
	H3533	H	0.319242	0.441503	0.120549
	H3534	H	0.307315	0.441106	0.003887
	H3535	H	0.305717	0.441350	0.003515
	H3536	H	0.319707	0.441207	0.122358
	H3537	H	0.318921	0.441833	0.121701
	H3538	H	0.319206	0.564791	0.120516
	H3539	H	0.308804	0.564252	0.002599
	H3540	H	0.318937	0.564525	0.121786
	H3541	H	0.319780	0.564737	0.122359
	H3542	H	0.305797	0.564478	0.003527
	H3543	H	0.307306	0.564535	0.003885
	H3544	H	0.344374	0.145142	0.097260
	H3545	H	0.344396	0.361392	0.097247
	H3546	H	0.306856	0.064347	0.001831
	H3547	H	0.306502	0.064431	0.002031
	H3548	H	0.307477	0.064159	0.002041
	H3549	H	0.290854	0.861320	0.099432
	H3550	H	0.290859	0.645462	0.099404
	H3551	H	0.290797	0.360884	0.099497
	H3552	H	0.290883	0.144616	0.099433
	H3553	H	0.282764	0.144226	0.026420
	H3554	H	0.336307	0.144222	0.024203
	H3555	H	0.336385	0.361757	0.024155
	H3556	H	0.282734	0.360926	0.026400
	H3557	H	0.353424	0.144135	0.037063
	H3558	H	0.353536	0.361564	0.037010
	H3559	H	0.320854	0.064901	0.121457
	H3560	H	0.320666	0.064422	0.120987
	H3561	H	0.319937	0.064959	0.120740
	H3562	H	0.306475	0.940899	0.002083
	H3563	H	0.306825	0.941183	0.001844
	H3564	H	0.307363	0.941235	0.002044
	H3565	H	0.320839	0.940912	0.121399
	H3566	H	0.320654	0.941536	0.120985
	H3567	H	0.319888	0.941540	0.120749
	Zn3568	Zn	0.244308	0.680191	0.064704
	Zn3569	Zn	0.244364	0.825457	0.064647
	Zn3570	Zn	0.244300	0.180258	0.064676
	Zn3571	Zn	0.244319	0.325496	0.064672
	Zn3572	Zn	0.320173	0.680209	0.121325
	Zn3573	Zn	0.320257	0.825631	0.121293
	Zn3574	Zn	0.320165	0.180142	0.121342
	Zn3575	Zn	0.320149	0.325523	0.121321
	C3576	C	0.364856	0.752973	0.045502
	C3577	C	0.262304	0.753016	0.078124
	C3578	C	0.272655	0.753121	0.085818
	C3579	C	0.277489	0.692039	0.089450
	C3580	C	0.277496	0.814402	0.089484
	C3581	C	0.262336	0.252831	0.078112
	C3582	C	0.272691	0.252738	0.085807
	C3583	C	0.277538	0.191566	0.089421
	C3584	C	0.277513	0.313951	0.089455
	C3585	C	0.259167	0.752114	0.049925
	C3586	C	0.267682	0.751926	0.041399
	C3587	C	0.271657	0.813279	0.037415
	C3588	C	0.271668	0.690711	0.037390
	C3589	C	0.259183	0.252625	0.049946
	C3590	C	0.267654	0.252612	0.041376
	C3591	C	0.271659	0.313875	0.037385
	C3592	C	0.271681	0.191273	0.037400
	C3593	C	0.382538	0.043512	0.058984
	C3594	C	0.382555	0.962443	0.058975
	C3595	C	0.243918	0.043166	0.065027
	C3596	C	0.243920	0.962545	0.065000
	C3597	C	0.244929	0.043383	0.064800
	C3598	C	0.244934	0.962573	0.064799
	C3599	C	0.244773	0.462566	0.064518
	C3600	C	0.382199	0.462040	0.058601
	C3601	C	0.383446	0.462440	0.058714
	C3602	C	0.244774	0.543236	0.064525
	C3603	C	0.383429	0.543142	0.058686
	C3604	C	0.382175	0.543179	0.058549
	C3605	C	0.367983	0.753033	0.073710
	C3606	C	0.367976	0.253017	0.073732
	C3607	C	0.359477	0.752941	0.082231
	C3608	C	0.355582	0.691589	0.086312
	C3609	C	0.355485	0.814120	0.086258
	C3610	C	0.359424	0.253087	0.082230
	C3611	C	0.355457	0.191916	0.086244
	C3612	C	0.355446	0.314402	0.086237
	C3613	C	0.364850	0.252687	0.045545
	C3614	C	0.324922	0.753026	0.015729
	C3615	C	0.292092	0.752391	0.017056
	C3616	C	0.302206	0.753200	0.107898
	C3617	C	0.349675	0.692052	0.034176
	C3618	C	0.349661	0.814240	0.034137
	C3619	C	0.335246	0.753023	0.023451
	C3620	C	0.283548	0.752173	0.025559
	C3621	C	0.279545	0.690829	0.029532
	C3622	C	0.340126	0.691977	0.027081
	C3623	C	0.340104	0.814154	0.027037
	C3624	C	0.279522	0.813402	0.029552
	C3625	C	0.354524	0.753208	0.037782
	C3626	C	0.335038	0.752650	0.106568
	C3627	C	0.347702	0.691498	0.094165
	C3628	C	0.347617	0.813973	0.094123
	C3629	C	0.343584	0.752661	0.098076
	C3630	C	0.319847	0.462597	0.120642
	C3631	C	0.306631	0.462479	0.003331
	C3632	C	0.319572	0.462569	0.121850
	C3633	C	0.319841	0.543422	0.120627
	C3634	C	0.319564	0.543228	0.121857
	C3635	C	0.306649	0.543226	0.003320
	C3636	C	0.335025	0.253128	0.106582
	C3637	C	0.347563	0.192052	0.094095
	C3638	C	0.347557	0.314469	0.094086
	C3639	C	0.343548	0.253234	0.098074
	C3640	C	0.306764	0.043121	0.002018
	C3641	C	0.324984	0.252896	0.015711
	C3642	C	0.292109	0.252696	0.017019
	C3643	C	0.302194	0.252638	0.107935
	C3644	C	0.349631	0.191381	0.034210
	C3645	C	0.349689	0.314334	0.034184
	C3646	C	0.335292	0.252983	0.023460
	C3647	C	0.283528	0.252557	0.025514
	C3648	C	0.291875	0.753294	0.100182
	C3649	C	0.287030	0.814440	0.096601
	C3650	C	0.287020	0.692237	0.096569
	C3651	C	0.291901	0.252725	0.100191
	C3652	C	0.287019	0.313921	0.096590
	C3653	C	0.287043	0.191544	0.096551
	C3654	C	0.279556	0.191233	0.029537
	C3655	C	0.340107	0.191438	0.027083
	C3656	C	0.340162	0.314460	0.027065
	C3657	C	0.279530	0.313856	0.029514
	C3658	C	0.354513	0.252778	0.037829
	C3659	C	0.320622	0.043394	0.121227
	C3660	C	0.307362	0.043135	0.002226
	C3661	C	0.306740	0.962191	0.002043
	C3662	C	0.320615	0.962417	0.121217
	C3663	C	0.307328	0.962552	0.002230
	N3664	N	0.244321	0.070093	0.064649
	N3665	N	0.244332	0.935545	0.064631
	N3666	N	0.244329	0.435540	0.064712
	N3667	N	0.244321	0.570102	0.064695
	N3668	N	0.320121	0.435607	0.121327
	N3669	N	0.320150	0.570159	0.121332
	N3670	N	0.320155	0.070080	0.121359
	N3671	N	0.320202	0.935570	0.121328
	O3672	O	0.382008	0.694857	0.167594
	O3673	O	0.381971	0.810710	0.167647
	O3674	O	0.271664	0.695014	0.194392
	O3675	O	0.271913	0.810817	0.194171
	O3676	O	0.271751	0.194840	0.194313
	O3677	O	0.271704	0.310799	0.194398
	O3678	O	0.269131	0.694911	0.172224
	O3679	O	0.269343	0.810736	0.172419
	O3680	O	0.269275	0.194693	0.172381
	O3681	O	0.269289	0.310656	0.172396
	O3682	O	0.384378	0.694805	0.189636
	O3683	O	0.384351	0.810795	0.189622
	O3684	O	0.384287	0.195061	0.189512
	O3685	O	0.384377	0.311086	0.189582
	O3686	O	0.382031	0.194671	0.167624
	O3687	O	0.382068	0.310782	0.167522
	O3688	O	0.334229	0.694570	0.131766
	O3689	O	0.308659	0.694964	0.132795
	O3690	O	0.345053	0.694572	0.229156
	O3691	O	0.345039	0.810554	0.229192
	O3692	O	0.319457	0.694829	0.230196
	O3693	O	0.319440	0.810617	0.230235
	O3694	O	0.308675	0.810949	0.132794
	O3695	O	0.334283	0.810408	0.131751
	O3696	O	0.334222	0.194762	0.131760
	O3697	O	0.308541	0.194539	0.132771
	O3698	O	0.345060	0.194879	0.229178
	O3699	O	0.345111	0.310993	0.229233
	O3700	O	0.319540	0.194964	0.230115
	O3701	O	0.319502	0.310890	0.230235
	O3702	O	0.308629	0.310412	0.132814
	O3703	O	0.334153	0.310697	0.131829
	H3704	H	0.287113	0.644631	0.205787
	H3705	H	0.287070	0.860952	0.205793
	H3706	H	0.287012	0.144682	0.205870
	H3707	H	0.287088	0.360962	0.205764
	H3708	H	0.281775	0.861184	0.159595
	H3709	H	0.281988	0.644694	0.159714
	H3710	H	0.281728	0.360637	0.159638
	H3711	H	0.281794	0.144405	0.159667
	H3712	H	0.394083	0.064560	0.176960
	H3713	H	0.393739	0.064473	0.178548
	H3714	H	0.393709	0.941085	0.178517
	H3715	H	0.394086	0.941170	0.176952
	H3716	H	0.396582	0.064421	0.176354
	H3717	H	0.396530	0.940858	0.176398
	H3718	H	0.258552	0.064299	0.182886
	H3719	H	0.258481	0.941317	0.182868
	H3720	H	0.257372	0.064491	0.182724
	H3721	H	0.257257	0.941172	0.182683
	H3722	H	0.256334	0.064615	0.183776
	H3723	H	0.256281	0.941147	0.183811
	H3724	H	0.256723	0.440888	0.185239
	H3725	H	0.258332	0.440953	0.185498
	H3726	H	0.255910	0.441297	0.183526
	H3727	H	0.395285	0.441399	0.177920
	H3728	H	0.395906	0.441539	0.177566
	H3729	H	0.396473	0.441117	0.177797
	H3730	H	0.258314	0.564829	0.185478
	H3731	H	0.256733	0.564685	0.185227
	H3732	H	0.396457	0.564773	0.177807
	H3733	H	0.395874	0.564407	0.177551
	H3734	H	0.395237	0.564118	0.177889
	H3735	H	0.255947	0.564606	0.183473
	H3736	H	0.371876	0.644838	0.202322
	H3737	H	0.371756	0.860920	0.202340
	H3738	H	0.371705	0.144904	0.202261
	H3739	H	0.371795	0.361064	0.202263
	H3740	H	0.296146	0.644756	0.145497
	H3741	H	0.349524	0.644262	0.143248
	H3742	H	0.349477	0.860470	0.143370
	H3743	H	0.295889	0.861230	0.145374
	H3744	H	0.366640	0.644303	0.156114
	H3745	H	0.366575	0.860432	0.156219
	H3746	H	0.357733	0.644488	0.216517
	H3747	H	0.357617	0.860746	0.216545
	H3748	H	0.320251	0.441190	0.120251
	H3749	H	0.334308	0.441347	0.239226
	H3750	H	0.321312	0.441088	0.121096
	H3751	H	0.321180	0.440515	0.121947
	H3752	H	0.331599	0.441194	0.240663
	H3753	H	0.332183	0.441257	0.239482
	H3754	H	0.334298	0.564555	0.239173
	H3755	H	0.320251	0.564202	0.120206
	H3756	H	0.332173	0.564577	0.239405
	H3757	H	0.331528	0.564460	0.240682
	H3758	H	0.321253	0.564558	0.121968
	H3759	H	0.321396	0.564142	0.121079
	H3760	H	0.357634	0.144939	0.216535
	H3761	H	0.357695	0.361105	0.216560
	H3762	H	0.319716	0.064089	0.121728
	H3763	H	0.320286	0.064536	0.121907
	H3764	H	0.319502	0.064563	0.121067
	H3765	H	0.304110	0.860889	0.218711
	H3766	H	0.304212	0.644635	0.218711
	H3767	H	0.304291	0.361009	0.218585
	H3768	H	0.304166	0.144853	0.218695
	H3769	H	0.295934	0.144295	0.145460
	H3770	H	0.349550	0.144407	0.143242
	H3771	H	0.349489	0.360898	0.143319
	H3772	H	0.295872	0.360882	0.145405
	H3773	H	0.366749	0.144482	0.156033
	H3774	H	0.366681	0.361004	0.156078
	H3775	H	0.335729	0.064655	0.240043
	H3776	H	0.334372	0.064219	0.238705
	H3777	H	0.331723	0.064296	0.239202
	H3778	H	0.320321	0.941622	0.121808
	H3779	H	0.319845	0.941476	0.121750
	H3780	H	0.319599	0.940749	0.121085
	H3781	H	0.335796	0.941609	0.240017
	H3782	H	0.334395	0.941243	0.238734
	H3783	H	0.331682	0.941075	0.239187
	Zn3784	Zn	0.257748	0.680267	0.183852
	Zn3785	Zn	0.257695	0.825547	0.183831
	Zn3786	Zn	0.257784	0.180214	0.183881
	Zn3787	Zn	0.257717	0.325749	0.183901
	Zn3788	Zn	0.333469	0.680369	0.240642
	Zn3789	Zn	0.333438	0.825601	0.240659
	Zn3790	Zn	0.333537	0.180272	0.240620
	Zn3791	Zn	0.333505	0.325672	0.240689
	C3792	C	0.377998	0.752771	0.164637
	C3793	C	0.275775	0.752852	0.197262
	C3794	C	0.286076	0.752740	0.204981
	C3795	C	0.290907	0.691552	0.208640
	C3796	C	0.290867	0.813918	0.208642
	C3797	C	0.275734	0.252748	0.197303
	C3798	C	0.286082	0.252712	0.205014
	C3799	C	0.290878	0.191585	0.208677
	C3800	C	0.290923	0.314002	0.208621
	C3801	C	0.272531	0.752887	0.169051
	C3802	C	0.281048	0.752981	0.160529
	C3803	C	0.284972	0.814199	0.156477
	C3804	C	0.285096	0.691774	0.156532
	C3805	C	0.272545	0.252715	0.169096
	C3806	C	0.281052	0.252683	0.160576
	C3807	C	0.284969	0.313787	0.156526
	C3808	C	0.285003	0.191404	0.156558
	C3809	C	0.394461	0.043145	0.177857
	C3810	C	0.394454	0.962269	0.177854
	C3811	C	0.257877	0.043267	0.183076
	C3812	C	0.257850	0.962466	0.183064
	C3813	C	0.256880	0.043304	0.184149
	C3814	C	0.256864	0.962322	0.184164
	C3815	C	0.257600	0.462305	0.184990
	C3816	C	0.395427	0.462267	0.178176
	C3817	C	0.396091	0.462509	0.177806
	C3818	C	0.257597	0.543360	0.184977
	C3819	C	0.396084	0.543421	0.177780
	C3820	C	0.395411	0.543159	0.178184
	C3821	C	0.381082	0.752806	0.192901
	C3822	C	0.381079	0.253086	0.192857
	C3823	C	0.372603	0.752927	0.201444
	C3824	C	0.368679	0.691641	0.205461
	C3825	C	0.368615	0.814003	0.205486
	C3826	C	0.372633	0.253091	0.201445
	C3827	C	0.368628	0.191839	0.205459
	C3828	C	0.368676	0.314249	0.205469
	C3829	C	0.378066	0.252674	0.164599
	C3830	C	0.338212	0.752436	0.134755
	C3831	C	0.305402	0.752975	0.136102
	C3832	C	0.315499	0.752760	0.227200
	C3833	C	0.362857	0.691236	0.153239
	C3834	C	0.362825	0.813581	0.153308
	C3835	C	0.348530	0.752358	0.142476
	C3836	C	0.296877	0.753062	0.144636
	C3837	C	0.292935	0.691748	0.148640
	C3838	C	0.353360	0.691199	0.146087
	C3839	C	0.353337	0.813473	0.146149
	C3840	C	0.292795	0.814255	0.148576
	C3841	C	0.367715	0.752454	0.156873
	C3842	C	0.348313	0.752615	0.225877
	C3843	C	0.360851	0.691470	0.213349
	C3844	C	0.360786	0.813965	0.213370
	C3845	C	0.356811	0.752689	0.217330
	C3846	C	0.334460	0.462629	0.239999
	C3847	C	0.320956	0.462211	0.121464
	C3848	C	0.332293	0.462488	0.240216
	C3849	C	0.334477	0.543347	0.239988
	C3850	C	0.332276	0.543366	0.240202
	C3851	C	0.320979	0.543209	0.121468
	C3852	C	0.348358	0.252970	0.225925
	C3853	C	0.360812	0.191778	0.213371
	C3854	C	0.360849	0.314259	0.213377
	C3855	C	0.356863	0.253066	0.217383
	C3856	C	0.320076	0.043031	0.121688
	C3857	C	0.338166	0.252708	0.134782
	C3858	C	0.305295	0.252570	0.136077
	C3859	C	0.315544	0.252999	0.227188
	C3860	C	0.362890	0.191405	0.153236
	C3861	C	0.362825	0.313941	0.153296
	C3862	C	0.348475	0.252676	0.142531
	C3863	C	0.296839	0.252693	0.144658
	C3864	C	0.305226	0.752749	0.219410
	C3865	C	0.300345	0.813943	0.215805
	C3866	C	0.300407	0.691556	0.215790
	C3867	C	0.305262	0.252941	0.219422
	C3868	C	0.300446	0.314059	0.215755
	C3869	C	0.300387	0.191815	0.215814
	C3870	C	0.292838	0.191356	0.148665
	C3871	C	0.353370	0.191409	0.146104
	C3872	C	0.353317	0.313940	0.146162
	C3873	C	0.292798	0.313861	0.148635
	C3874	C	0.367723	0.252719	0.156895
	C3875	C	0.334664	0.043329	0.239707
	C3876	C	0.319847	0.043590	0.121023
	C3877	C	0.320120	0.962689	0.121650
	C3878	C	0.334670	0.962668	0.239716
	C3879	C	0.319875	0.962455	0.121021
	N3880	N	0.257766	0.070094	0.183871
	N3881	N	0.257729	0.935588	0.183853
	N3882	N	0.257723	0.435633	0.183928
	N3883	N	0.257758	0.570141	0.183902
	N3884	N	0.333475	0.435713	0.240642
	N3885	N	0.333443	0.570250	0.240633
	N3886	N	0.333488	0.070098	0.240585
	N3887	N	0.333475	0.935571	0.240607
	O3888	O	0.393653	0.694849	0.288628
	O3889	O	0.393576	0.810898	0.288657
	O3890	O	0.284964	0.694836	0.313736
	O3891	O	0.284799	0.810768	0.313772
	O3892	O	0.284934	0.195051	0.313829
	O3893	O	0.284895	0.310910	0.313754
	O3894	O	0.282598	0.695060	0.291713
	O3895	O	0.282523	0.810935	0.291656
	O3896	O	0.282631	0.194929	0.291675
	O3897	O	0.282623	0.310883	0.291650
	O3898	O	0.395341	0.694804	0.310671
	O3899	O	0.395305	0.810945	0.310671
	O3900	O	0.395227	0.195094	0.310570
	O3901	O	0.395354	0.311116	0.310712
	O3902	O	0.393642	0.194823	0.288604
	O3903	O	0.393569	0.310901	0.288620
	O3904	O	0.347296	0.694831	0.251338
	O3905	O	0.321998	0.694971	0.252174
	O3906	O	0.356589	0.695068	0.350700
	O3907	O	0.356652	0.810943	0.350711
	O3908	O	0.331131	0.695089	0.351069
	O3909	O	0.331144	0.810900	0.351106
	O3910	O	0.321876	0.810637	0.252121
	O3911	O	0.347321	0.810828	0.251318
	O3912	O	0.347342	0.194698	0.251317
	O3913	O	0.321958	0.194492	0.252096
	O3914	O	0.356606	0.194993	0.350729
	O3915	O	0.356656	0.311029	0.350697
	O3916	O	0.331091	0.194929	0.351121
	O3917	O	0.331078	0.310976	0.351151
	O3918	O	0.321893	0.310385	0.252100
	O3919	O	0.347350	0.310738	0.251291
	H3920	H	0.299705	0.645123	0.325775
	H3921	H	0.299701	0.861203	0.325697
	H3922	H	0.299664	0.144800	0.325834
	H3923	H	0.299660	0.361280	0.325754
	H3924	H	0.295178	0.860869	0.279019
	H3925	H	0.295170	0.645103	0.279005
	H3926	H	0.295152	0.360361	0.278958
	H3927	H	0.295282	0.144965	0.279093
	H3928	H	0.408547	0.064669	0.298536
	H3929	H	0.407312	0.064447	0.298008
	H3930	H	0.407282	0.941662	0.297960
	H3931	H	0.408584	0.941028	0.298536
	H3932	H	0.408681	0.064464	0.300170
	H3933	H	0.408689	0.940864	0.300240
	H3934	H	0.269606	0.064594	0.302247
	H3935	H	0.269568	0.941139	0.302180
	H3936	H	0.269407	0.064342	0.303526
	H3937	H	0.269310	0.941197	0.303453
	H3938	H	0.270981	0.064323	0.304636
	H3939	H	0.270928	0.941136	0.304568
	H3940	H	0.271865	0.440835	0.303708
	H3941	H	0.272061	0.441613	0.302973
	H3942	H	0.270686	0.440577	0.303981
	H3943	H	0.409671	0.441405	0.297898
	H3944	H	0.409862	0.441228	0.300864
	H3945	H	0.407648	0.441271	0.301974
	H3946	H	0.272102	0.564281	0.303075
	H3947	H	0.271887	0.564705	0.303755
	H3948	H	0.407700	0.565008	0.302025
	H3949	H	0.409900	0.564719	0.300876
	H3950	H	0.409755	0.564340	0.297915
	H3951	H	0.270694	0.564256	0.303950
	H3952	H	0.382763	0.644637	0.323373
	H3953	H	0.382943	0.860827	0.323470
	H3954	H	0.382925	0.144915	0.323498
	H3955	H	0.382880	0.361177	0.323465
	H3956	H	0.309337	0.645432	0.264806
	H3957	H	0.362142	0.644167	0.263282
	H3958	H	0.362207	0.861192	0.263247
	H3959	H	0.309353	0.860460	0.264819
	H3960	H	0.378740	0.644165	0.276682
	H3961	H	0.378804	0.861102	0.276616
	H3962	H	0.368902	0.644652	0.337767
	H3963	H	0.369035	0.861151	0.337867
	H3964	H	0.335332	0.441110	0.240322
	H3965	H	0.346269	0.441365	0.364633
	H3966	H	0.334505	0.441374	0.242038
	H3967	H	0.332960	0.441769	0.242206
	H3968	H	0.346746	0.441480	0.359575
	H3969	H	0.348190	0.441225	0.361734
	H3970	H	0.346230	0.564445	0.364645
	H3971	H	0.335344	0.564781	0.240279
	H3972	H	0.348210	0.564804	0.361845
	H3973	H	0.346750	0.564578	0.359593
	H3974	H	0.332896	0.564591	0.242171
	H3975	H	0.334499	0.564951	0.242034
	H3976	H	0.369080	0.144983	0.337934
	H3977	H	0.369036	0.360875	0.337886
	H3978	H	0.333013	0.064602	0.242559
	H3979	H	0.334988	0.064976	0.242211
	H3980	H	0.331121	0.064372	0.240794
	H3981	H	0.316302	0.861069	0.339108
	H3982	H	0.316298	0.645041	0.339160
	H3983	H	0.316208	0.361382	0.339218
	H3984	H	0.316164	0.145055	0.339272
	H3985	H	0.309392	0.144934	0.264860
	H3986	H	0.362321	0.144156	0.263187
	H3987	H	0.362140	0.360781	0.263256
	H3988	H	0.309299	0.360312	0.264749
	H3989	H	0.378875	0.144109	0.276601
	H3990	H	0.378689	0.361127	0.276665
	H3991	H	0.343099	0.064471	0.361147
	H3992	H	0.343113	0.064609	0.362475
	H3993	H	0.344934	0.064628	0.363463
	H3994	H	0.334934	0.941332	0.242245
	H3995	H	0.333004	0.941379	0.242549
	H3996	H	0.331151	0.941030	0.240784
	H3997	H	0.343172	0.940996	0.361132
	H3998	H	0.343160	0.941090	0.362412
	H3999	H	0.344972	0.941361	0.363463
	Zn4000	Zn	0.271078	0.680015	0.303182
	Zn4001	Zn	0.270988	0.825543	0.303089
	Zn4002	Zn	0.271140	0.180132	0.303196
	Zn4003	Zn	0.271022	0.325441	0.303096
	Zn4004	Zn	0.344793	0.680223	0.361897
	Zn4005	Zn	0.344817	0.825394	0.361890
	Zn4006	Zn	0.344767	0.180044	0.361903
	Zn4007	Zn	0.344818	0.325518	0.361883
	C4008	C	0.389754	0.752812	0.285526
	C4009	C	0.288726	0.752971	0.316856
	C4010	C	0.298661	0.753212	0.324950
	C4011	C	0.303338	0.692021	0.328770
	C4012	C	0.303376	0.814306	0.328701
	C4013	C	0.288768	0.253082	0.316893
	C4014	C	0.298727	0.253128	0.324949
	C4015	C	0.303351	0.191856	0.328788
	C4016	C	0.303365	0.314406	0.328751
	C4017	C	0.285827	0.752996	0.288385
	C4018	C	0.294328	0.752951	0.279842
	C4019	C	0.298326	0.813975	0.275855
	C4020	C	0.298331	0.691961	0.275852
	C4021	C	0.285928	0.252859	0.288388
	C4022	C	0.294411	0.252662	0.279858
	C4023	C	0.298324	0.313681	0.275807
	C4024	C	0.298396	0.191621	0.275869
	C4025	C	0.407755	0.043285	0.298579
	C4026	C	0.407744	0.962568	0.298575
	C4027	C	0.269893	0.043340	0.302946
	C4028	C	0.269851	0.962444	0.302912
	C4029	C	0.271514	0.043220	0.304084
	C4030	C	0.271469	0.962546	0.304066
	C4031	C	0.271741	0.462455	0.303308
	C4032	C	0.408225	0.462401	0.297920
	C4033	C	0.408353	0.462526	0.300907
	C4034	C	0.271749	0.543206	0.303348
	C4035	C	0.408404	0.543705	0.300918
	C4036	C	0.408277	0.543279	0.297925
	C4037	C	0.392052	0.752833	0.313956
	C4038	C	0.392079	0.253075	0.313974
	C4039	C	0.383683	0.752815	0.322582
	C4040	C	0.379729	0.691616	0.326620
	C4041	C	0.379837	0.813940	0.326691
	C4042	C	0.383696	0.252989	0.322585
	C4043	C	0.379796	0.191778	0.326664
	C4044	C	0.379778	0.314158	0.326646
	C4045	C	0.389753	0.252774	0.285511
	C4046	C	0.351180	0.752798	0.254402
	C4047	C	0.318664	0.752810	0.255440
	C4048	C	0.327266	0.753030	0.347980
	C4049	C	0.375070	0.691256	0.273679
	C4050	C	0.375103	0.814062	0.273642
	C4051	C	0.361202	0.752722	0.262420
	C4052	C	0.310176	0.752867	0.263975
	C4053	C	0.306181	0.691991	0.267973
	C4054	C	0.365860	0.691256	0.266241
	C4055	C	0.365894	0.814075	0.266217
	C4056	C	0.306181	0.813787	0.267985
	C4057	C	0.379771	0.752675	0.277448
	C4058	C	0.359843	0.752985	0.347366
	C4059	C	0.372036	0.691615	0.334613
	C4060	C	0.372135	0.814043	0.334680
	C4061	C	0.368188	0.752922	0.338720
	C4062	C	0.344821	0.462526	0.363900
	C4063	C	0.333662	0.462623	0.241723
	C4064	C	0.346790	0.462442	0.361006
	C4065	C	0.344796	0.543343	0.363885
	C4066	C	0.346796	0.543340	0.361015
	C4067	C	0.333665	0.543517	0.241723
	C4068	C	0.359885	0.252902	0.347410
	C4069	C	0.372124	0.191770	0.334682
	C4070	C	0.372099	0.314015	0.334655
	C4071	C	0.368218	0.252841	0.338728
	C4072	C	0.333860	0.043455	0.241926
	C4073	C	0.351222	0.252718	0.254391
	C4074	C	0.318675	0.252395	0.255406
	C4075	C	0.327223	0.253004	0.348038
	C4076	C	0.375144	0.191230	0.273655
	C4077	C	0.375024	0.313890	0.273692
	C4078	C	0.361201	0.252457	0.262454
	C4079	C	0.310183	0.252571	0.263943
	C4080	C	0.317235	0.753105	0.339962
	C4081	C	0.312569	0.814247	0.336151
	C4082	C	0.312535	0.692001	0.336216
	C4083	C	0.317230	0.253217	0.339996
	C4084	C	0.312550	0.314343	0.336202
	C4085	C	0.312527	0.191997	0.336239
	C4086	C	0.306234	0.191615	0.267985
	C4087	C	0.365940	0.191191	0.266226
	C4088	C	0.365831	0.313765	0.266250
	C4089	C	0.306166	0.313569	0.267927
	C4090	C	0.379763	0.252630	0.277470
	C4091	C	0.343560	0.043302	0.361854
	C4092	C	0.331954	0.043197	0.240145
	C4093	C	0.333850	0.962512	0.241938
	C4094	C	0.343589	0.962366	0.361817
	C4095	C	0.331962	0.962376	0.240147
	N4096	N	0.271111	0.070092	0.303153
	N4097	N	0.271026	0.935585	0.303092
	N4098	N	0.271055	0.435533	0.303129
	N4099	N	0.271063	0.570044	0.303177
	N4100	N	0.344800	0.435557	0.361897
	N4101	N	0.344813	0.570115	0.361904
	N4102	N	0.344779	0.070025	0.361933
	N4103	N	0.344806	0.935508	0.361897
	O4104	O	0.397574	0.695049	0.415839
	O4105	O	0.397504	0.811377	0.415836
	O4106	O	0.295061	0.695043	0.436025
	O4107	O	0.295144	0.811227	0.435929
	O4108	O	0.295096	0.195453	0.435981
	O4109	O	0.295207	0.311390	0.435945
	O4110	O	0.294044	0.694629	0.413207
	O4111	O	0.294044	0.810616	0.413197
	O4112	O	0.294094	0.194780	0.413212
	O4113	O	0.294116	0.310862	0.413188
	O4114	O	0.394639	0.694492	0.436945
	O4115	O	0.394526	0.811125	0.436910
	O4116	O	0.394607	0.194995	0.436958
	O4117	O	0.394602	0.311517	0.436978
	O4118	O	0.397590	0.194808	0.415794
	O4119	O	0.397530	0.310827	0.415844
	O4120	O	0.357767	0.695069	0.373342
	O4121	O	0.332780	0.694546	0.373122
	O4122	O	0.359511	0.694343	0.479749
	O4123	O	0.359539	0.810758	0.479749
	O4124	O	0.335006	0.695042	0.478348
	O4125	O	0.335037	0.811305	0.478305
	O4126	O	0.332764	0.810688	0.373140
	O4127	O	0.357611	0.811161	0.373469
	O4128	O	0.357686	0.194940	0.373397
	O4129	O	0.332812	0.194521	0.373138
	O4130	O	0.359501	0.195074	0.479726
	O4131	O	0.359527	0.311399	0.479748
	O4132	O	0.335072	0.194963	0.478327
	O4133	O	0.335100	0.311030	0.478366
	O4134	O	0.332754	0.310726	0.373078
	O4135	O	0.357645	0.311143	0.373428
	H4136	H	0.307881	0.644928	0.449580
	H4137	H	0.307836	0.861390	0.449575
	H4138	H	0.307935	0.145601	0.449504
	H4139	H	0.308060	0.361014	0.449486
	H4140	H	0.306384	0.861192	0.400331
	H4141	H	0.306463	0.643832	0.400375
	H4142	H	0.306496	0.361018	0.400333
	H4143	H	0.306564	0.144319	0.400417
	H4144	H	0.412718	0.064118	0.427387
	H4145	H	0.410990	0.064201	0.425704
	H4146	H	0.410995	0.941158	0.425707
	H4147	H	0.412723	0.941086	0.427370
	H4148	H	0.411629	0.064362	0.430192
	H4149	H	0.411644	0.940814	0.430250
	H4150	H	0.282723	0.064363	0.422574
	H4151	H	0.282798	0.941257	0.422549
	H4152	H	0.280871	0.064735	0.422882
	H4153	H	0.280980	0.941639	0.422866
	H4154	H	0.280116	0.064736	0.424984
	H4155	H	0.280124	0.940900	0.424880
	H4156	H	0.280771	0.441450	0.423118
	H4157	H	0.280151	0.440967	0.424543
	H4158	H	0.283227	0.440928	0.422834
	H4159	H	0.412029	0.441224	0.423850
	H4160	H	0.415260	0.441191	0.428544
	H4161	H	0.413005	0.441407	0.431869
	H4162	H	0.280095	0.564782	0.424612
	H4163	H	0.280714	0.564370	0.423175
	H4164	H	0.413106	0.564636	0.431819
	H4165	H	0.415297	0.564976	0.428512
	H4166	H	0.411989	0.564318	0.423803
	H4167	H	0.283162	0.564311	0.422820
	H4168	H	0.382253	0.643108	0.450015
	H4169	H	0.382259	0.862236	0.450039
	H4170	H	0.382208	0.143700	0.449999
	H4171	H	0.382194	0.362706	0.450005
	H4172	H	0.320332	0.644007	0.385941
	H4173	H	0.370566	0.644506	0.386897
	H4174	H	0.370598	0.861655	0.386941
	H4175	H	0.320249	0.861006	0.385903
	H4176	H	0.384809	0.644490	0.402165
	H4177	H	0.384858	0.861284	0.402207
	H4178	H	0.370186	0.642973	0.465591
	H4179	H	0.370202	0.862003	0.465664
	H4180	H	0.343345	0.441180	0.364543
	H4181	H	0.347025	0.440778	0.488070
	H4182	H	0.341335	0.441048	0.361557
	H4183	H	0.342801	0.441347	0.359466
	H4184	H	0.344969	0.441366	0.491841
	H4185	H	0.344539	0.440708	0.489800
	H4186	H	0.346977	0.564061	0.488104
	H4187	H	0.343317	0.564878	0.364484
	H4188	H	0.344524	0.564360	0.489788
	H4189	H	0.344996	0.564199	0.491829
	H4190	H	0.342775	0.564197	0.359471
	H4191	H	0.341388	0.564891	0.361557
	H4192	H	0.370116	0.143836	0.465583
	H4193	H	0.370132	0.362664	0.465592
	H4194	H	0.346271	0.064310	0.361119
	H4195	H	0.344954	0.064377	0.360381
	H4196	H	0.346262	0.064237	0.362909
	H4197	H	0.322146	0.861638	0.464815
	H4198	H	0.322123	0.644632	0.464812
	H4199	H	0.322288	0.360707	0.464785
	H4200	H	0.322180	0.145470	0.464780
	H4201	H	0.320439	0.144266	0.385990
	H4202	H	0.370528	0.145080	0.386936
	H4203	H	0.370444	0.360992	0.386973
	H4204	H	0.320309	0.360915	0.385904
	H4205	H	0.384749	0.144896	0.402235
	H4206	H	0.384650	0.361117	0.402257
	H4207	H	0.349347	0.064365	0.495049
	H4208	H	0.352601	0.065380	0.492297
	H4209	H	0.350754	0.065094	0.486846
	H4210	H	0.345016	0.940807	0.360410
	H4211	H	0.346315	0.941173	0.361113
	H4212	H	0.346260	0.941494	0.362916
	H4213	H	0.349393	0.941578	0.495081
	H4214	H	0.352643	0.941443	0.492317
	H4215	H	0.350801	0.941067	0.486816
	Zn4216	Zn	0.282195	0.680073	0.424498
	Zn4217	Zn	0.282280	0.825593	0.424441
	Zn4218	Zn	0.282238	0.180063	0.424475
	Zn4219	Zn	0.282346	0.325707	0.424446
	Zn4220	Zn	0.347181	0.680184	0.490549
	Zn4221	Zn	0.347204	0.825727	0.490533
	Zn4222	Zn	0.347217	0.180324	0.490569
	Zn4223	Zn	0.347241	0.325719	0.490535
	C4224	C	0.394171	0.753111	0.412350
	C4225	C	0.298497	0.753177	0.439462
	C4226	C	0.307167	0.753201	0.448579
	C4227	C	0.311133	0.691880	0.452935
	C4228	C	0.311116	0.814547	0.452923
	C4229	C	0.298497	0.253360	0.439474
	C4230	C	0.307135	0.253325	0.448613
	C4231	C	0.311129	0.192316	0.452920
	C4232	C	0.311205	0.314247	0.452911
	C4233	C	0.297294	0.752594	0.409878
	C4234	C	0.305680	0.752544	0.401254
	C4235	C	0.309506	0.814026	0.397157
	C4236	C	0.309564	0.691050	0.397178
	C4237	C	0.297351	0.252787	0.409888
	C4238	C	0.305710	0.252716	0.401249
	C4239	C	0.309597	0.313955	0.397149
	C4240	C	0.309629	0.191299	0.397198
	C4241	C	0.411319	0.043138	0.426947
	C4242	C	0.411346	0.962513	0.426945
	C4243	C	0.281934	0.043100	0.423195
	C4244	C	0.281985	0.962590	0.423175
	C4245	C	0.281193	0.043472	0.425305
	C4246	C	0.281180	0.962332	0.425261
	C4247	C	0.280941	0.462496	0.424009
	C4248	C	0.409770	0.462541	0.424921
	C4249	C	0.413033	0.462522	0.429624
	C4250	C	0.280896	0.543299	0.424041
	C4251	C	0.413073	0.543467	0.429609
	C4252	C	0.409772	0.543057	0.424902
	C4253	C	0.391143	0.752738	0.440164
	C4254	C	0.391137	0.253214	0.440175
	C4255	C	0.382967	0.752683	0.449039
	C4256	C	0.379507	0.690737	0.453447
	C4257	C	0.379498	0.814548	0.453464
	C4258	C	0.382969	0.253066	0.449008
	C4259	C	0.379468	0.191342	0.453419
	C4260	C	0.379461	0.314959	0.453417
	C4261	C	0.394186	0.252887	0.412324
	C4262	C	0.361062	0.753130	0.376909
	C4263	C	0.329531	0.752568	0.376447
	C4264	C	0.331680	0.753129	0.474817
	C4265	C	0.381607	0.691600	0.398810
	C4266	C	0.381634	0.814269	0.398835
	C4267	C	0.369698	0.753153	0.386053
	C4268	C	0.321157	0.752534	0.385106
	C4269	C	0.317258	0.691056	0.389181
	C4270	C	0.373721	0.691635	0.390326
	C4271	C	0.373754	0.814483	0.390352
	C4272	C	0.317198	0.813947	0.389156
	C4273	C	0.385581	0.752922	0.403182
	C4274	C	0.362325	0.752508	0.476074
	C4275	C	0.372843	0.690680	0.462128
	C4276	C	0.372847	0.814433	0.462163
	C4277	C	0.369513	0.752495	0.466631
	C4278	C	0.347945	0.462441	0.489007
	C4279	C	0.342790	0.462525	0.360869
	C4280	C	0.345462	0.462534	0.490745
	C4281	C	0.347912	0.543079	0.489001
	C4282	C	0.345446	0.543230	0.490743
	C4283	C	0.342800	0.543395	0.360875
	C4284	C	0.362299	0.253183	0.476044
	C4285	C	0.372796	0.191338	0.462101
	C4286	C	0.372790	0.315072	0.462098
	C4287	C	0.369479	0.253156	0.466577
	C4288	C	0.345402	0.043187	0.361073
	C4289	C	0.361027	0.253057	0.376914
	C4290	C	0.329555	0.252643	0.376436
	C4291	C	0.331697	0.253031	0.474863
	C4292	C	0.381612	0.191873	0.398823
	C4293	C	0.381540	0.314224	0.398846
	C4294	C	0.369673	0.253002	0.386047
	C4295	C	0.321190	0.252627	0.385091
	C4296	C	0.323084	0.753150	0.465670
	C4297	C	0.319024	0.814564	0.461394
	C4298	C	0.319017	0.691803	0.461405
	C4299	C	0.323073	0.253075	0.465723
	C4300	C	0.319103	0.314026	0.461387
	C4301	C	0.319024	0.192282	0.461395
	C4302	C	0.317302	0.191243	0.389176
	C4303	C	0.373712	0.191932	0.390349
	C4304	C	0.373648	0.314143	0.390363
	C4305	C	0.317256	0.313927	0.389133
	C4306	C	0.385611	0.253029	0.403149
	C4307	C	0.350048	0.043431	0.492842
	C4308	C	0.345415	0.043206	0.362855
	C4309	C	0.345423	0.962278	0.361055
	C4310	C	0.350049	0.962653	0.492844
	C4311	C	0.345404	0.962511	0.362850
	N4312	N	0.282263	0.070099	0.424457
	N4313	N	0.282269	0.935605	0.424440
	N4314	N	0.282325	0.435734	0.424452
	N4315	N	0.282278	0.570216	0.424514
	N4316	N	0.347328	0.435695	0.490518
	N4317	N	0.347294	0.570208	0.490519
	N4318	N	0.347322	0.070118	0.490523
	N4319	N	0.347312	0.935593	0.490487
	O4320	O	0.335929	0.694457	0.555092
	O4321	O	0.335976	0.811447	0.555039
	O4322	O	0.292332	0.694924	0.567637
	O4323	O	0.292285	0.811969	0.567650
	O4324	O	0.292292	0.194302	0.567706
	O4325	O	0.292268	0.311048	0.567693
	O4326	O	0.297136	0.694494	0.542304
	O4327	O	0.297113	0.810713	0.542281
	O4328	O	0.297195	0.194761	0.542352
	O4329	O	0.297080	0.311157	0.542306
	O4330	O	0.331290	0.695011	0.580489
	O4331	O	0.331183	0.811181	0.580413
	O4332	O	0.331313	0.194571	0.580430
	O4333	O	0.331223	0.310949	0.580414
	O4334	O	0.335917	0.194469	0.555124
	O4335	O	0.335915	0.311409	0.555076
	O4336	O	0.354725	0.694201	0.505072
	O4337	O	0.332088	0.694593	0.499437
	O4338	O	0.296117	0.694265	0.623207
	O4339	O	0.296177	0.810857	0.623274
	O4340	O	0.273425	0.694381	0.617629
	O4341	O	0.273482	0.811033	0.617647
	O4342	O	0.332151	0.811298	0.499466
	O4343	O	0.354792	0.810910	0.505021
	O4344	O	0.354672	0.194485	0.505067
	O4345	O	0.331996	0.194685	0.499384
	O4346	O	0.296233	0.194138	0.623246
	O4347	O	0.296197	0.310591	0.623230
	O4348	O	0.273473	0.194945	0.617678
	O4349	O	0.273464	0.311703	0.617648
	O4350	O	0.332034	0.311339	0.499395
	O4351	O	0.354737	0.311403	0.505107
	H4352	H	0.286962	0.643077	0.583884
	H4353	H	0.286719	0.862924	0.583894
	H4354	H	0.286649	0.142809	0.583895
	H4355	H	0.287046	0.362641	0.583955
	H4356	H	0.307879	0.862171	0.528210
	H4357	H	0.307686	0.643134	0.528077
	H4358	H	0.307638	0.362526	0.528080
	H4359	H	0.307739	0.143456	0.528117
	H4360	H	0.335501	0.064273	0.563009
	H4361	H	0.332685	0.064825	0.570330
	H4362	H	0.332712	0.941325	0.570272
	H4363	H	0.335484	0.941356	0.563033
	H4364	H	0.347814	0.064330	0.561251
	H4365	H	0.347677	0.940963	0.561271
	H4366	H	0.283800	0.064735	0.548191
	H4367	H	0.283823	0.941181	0.548170
	H4368	H	0.279870	0.064667	0.550501
	H4369	H	0.279900	0.941426	0.550431
	H4370	H	0.280499	0.064530	0.556107
	H4371	H	0.280467	0.941253	0.556046
	H4372	H	0.287809	0.441501	0.554567
	H4373	H	0.287979	0.441190	0.552255
	H4374	H	0.284390	0.441799	0.555900
	H4375	H	0.341820	0.441321	0.569206
	H4376	H	0.343334	0.441108	0.568166
	H4377	H	0.344662	0.441263	0.568672
	H4378	H	0.287955	0.564949	0.552252
	H4379	H	0.287786	0.564762	0.554515
	H4380	H	0.344622	0.564945	0.568683
	H4381	H	0.343321	0.564726	0.568186
	H4382	H	0.341801	0.564712	0.569198
	H4383	H	0.284335	0.564776	0.555873
	H4384	H	0.320681	0.643440	0.594667
	H4385	H	0.320619	0.862176	0.594623
	H4386	H	0.320708	0.143307	0.594615
	H4387	H	0.320664	0.361996	0.594614
	H4388	H	0.319792	0.643509	0.512499
	H4389	H	0.349292	0.642938	0.521259
	H4390	H	0.349399	0.862513	0.521291
	H4391	H	0.319972	0.862504	0.512647
	H4392	H	0.341326	0.642782	0.538768
	H4393	H	0.341408	0.862521	0.538768
	H4394	H	0.308579	0.643287	0.610208
	H4395	H	0.308526	0.862026	0.610207
	H4396	H	0.349317	0.441111	0.488831
	H4397	H	0.284911	0.441300	0.631556
	H4398	H	0.349857	0.441275	0.491614
	H4399	H	0.348053	0.441705	0.492854
	H4400	H	0.278201	0.441452	0.629538
	H4401	H	0.281438	0.441179	0.628821
	H4402	H	0.284880	0.564874	0.631512
	H4403	H	0.349182	0.564452	0.488786
	H4404	H	0.281370	0.564308	0.628817
	H4405	H	0.278223	0.564838	0.629569
	H4406	H	0.348061	0.564855	0.492856
	H4407	H	0.349864	0.565199	0.491590
	H4408	H	0.308615	0.143181	0.610203
	H4409	H	0.308563	0.361819	0.610219
	H4410	H	0.341703	0.064213	0.489489
	H4411	H	0.343051	0.064503	0.493532
	H4412	H	0.346205	0.064761	0.485751
	H4413	H	0.278819	0.862694	0.601393
	H4414	H	0.279067	0.642641	0.601417
	H4415	H	0.279121	0.363083	0.601461
	H4416	H	0.278728	0.143275	0.601413
	H4417	H	0.319699	0.143510	0.512471
	H4418	H	0.349326	0.142925	0.521333
	H4419	H	0.349250	0.362820	0.521363
	H4420	H	0.319618	0.362542	0.512442
	H4421	H	0.341397	0.142894	0.538849
	H4422	H	0.341329	0.362560	0.538871
	H4423	H	0.285988	0.064165	0.633831
	H4424	H	0.285543	0.064451	0.630064
	H4425	H	0.280049	0.064670	0.627709
	H4426	H	0.343010	0.941096	0.493451
	H4427	H	0.341688	0.941214	0.489435
	H4428	H	0.346186	0.941842	0.485684
	H4429	H	0.285886	0.941395	0.633841
	H4430	H	0.285469	0.940781	0.630095
	H4431	H	0.279976	0.940629	0.627747
	Zn4432	Zn	0.284832	0.680260	0.553140
	Zn4433	Zn	0.284840	0.825362	0.553089
	Zn4434	Zn	0.284860	0.180272	0.553157
	Zn4435	Zn	0.284860	0.325420	0.553174
	Zn4436	Zn	0.280984	0.680448	0.632124
	Zn4437	Zn	0.281048	0.825317	0.632141
	Zn4438	Zn	0.281070	0.180532	0.632087
	Zn4439	Zn	0.281112	0.325485	0.632159
	C4440	C	0.337040	0.752814	0.550741
	C4441	C	0.291217	0.753391	0.571962
	C4442	C	0.287467	0.753064	0.582858
	C4443	C	0.285204	0.690813	0.587801
	C4444	C	0.285068	0.815085	0.587798
	C4445	C	0.291235	0.252691	0.572038
	C4446	C	0.287463	0.252749	0.582911
	C4447	C	0.285021	0.190689	0.587827
	C4448	C	0.285243	0.314995	0.587860
	C4449	C	0.299926	0.752583	0.538610
	C4450	C	0.307105	0.752646	0.529165
	C4451	C	0.310474	0.814586	0.524705
	C4452	C	0.310380	0.690887	0.524625
	C4453	C	0.299973	0.252949	0.538674
	C4454	C	0.307103	0.252945	0.529185
	C4455	C	0.310301	0.314846	0.524620
	C4456	C	0.310351	0.191140	0.524636
	C4457	C	0.336546	0.043337	0.567452
	C4458	C	0.336540	0.962555	0.567445
	C4459	C	0.282673	0.043399	0.550331
	C4460	C	0.282668	0.962571	0.550319
	C4461	C	0.283307	0.043131	0.556033
	C4462	C	0.283280	0.962504	0.556019
	C4463	C	0.287114	0.462651	0.553347
	C4464	C	0.342296	0.462595	0.569739
	C4465	C	0.343813	0.462431	0.568716
	C4466	C	0.287127	0.543566	0.553332
	C4467	C	0.343823	0.543350	0.568745
	C4468	C	0.342288	0.543356	0.569760
	C4469	C	0.328458	0.753070	0.584160
	C4470	C	0.328444	0.252682	0.584098
	C4471	C	0.321305	0.752919	0.593613
	C4472	C	0.318036	0.691056	0.598144
	C4473	C	0.317998	0.814566	0.598119
	C4474	C	0.321308	0.252532	0.593575
	C4475	C	0.318024	0.190768	0.598089
	C4476	C	0.318002	0.314315	0.598081
	C4477	C	0.336971	0.252851	0.550766
	C4478	C	0.353720	0.752646	0.509393
	C4479	C	0.328700	0.752977	0.502681
	C4480	C	0.274546	0.752711	0.613293
	C4481	C	0.343066	0.690531	0.534868
	C4482	C	0.343114	0.814746	0.534870
	C4483	C	0.349957	0.752674	0.520270
	C4484	C	0.320565	0.752947	0.511575
	C4485	C	0.317059	0.691020	0.515948
	C4486	C	0.347572	0.690525	0.525179
	C4487	C	0.347625	0.814806	0.525188
	C4488	C	0.317157	0.814786	0.516036
	C4489	C	0.340770	0.752627	0.539833
	C4490	C	0.299571	0.752600	0.620002
	C4491	C	0.311345	0.690952	0.606807
	C4492	C	0.311318	0.814489	0.606796
	C4493	C	0.307832	0.752696	0.611207
	C4494	C	0.283602	0.462492	0.632740
	C4495	C	0.348537	0.462452	0.491783
	C4496	C	0.280111	0.462781	0.629962
	C4497	C	0.283578	0.543336	0.632720
	C4498	C	0.280099	0.543256	0.629977
	C4499	C	0.348534	0.543488	0.491767
	C4500	C	0.299679	0.252358	0.620027
	C4501	C	0.311344	0.190720	0.606761
	C4502	C	0.311312	0.314246	0.606758
	C4503	C	0.307826	0.252472	0.611159
	C4504	C	0.343694	0.043441	0.491232
	C4505	C	0.353656	0.252937	0.509418
	C4506	C	0.328597	0.253004	0.502627
	C4507	C	0.274527	0.253274	0.613332
	C4508	C	0.343105	0.190594	0.534941
	C4509	C	0.343073	0.314906	0.534955
	C4510	C	0.349894	0.252857	0.520314
	C4511	C	0.320475	0.253040	0.511533
	C4512	C	0.278297	0.752642	0.602416
	C4513	C	0.280591	0.814912	0.597490
	C4514	C	0.280713	0.690552	0.597494
	C4515	C	0.278322	0.253091	0.602467
	C4516	C	0.280763	0.315146	0.597547
	C4517	C	0.280529	0.190898	0.597514
	C4518	C	0.316980	0.191190	0.515931
	C4519	C	0.347598	0.190664	0.525246
	C4520	C	0.347552	0.314964	0.525261
	C4521	C	0.316941	0.314916	0.515919
	C4522	C	0.340757	0.252758	0.539884
	C4523	C	0.284474	0.043214	0.632001
	C4524	C	0.348202	0.043487	0.487393
	C4525	C	0.343658	0.962587	0.491209
	C4526	C	0.284431	0.962434	0.631985
	C4527	C	0.348205	0.962467	0.487364
	N4528	N	0.284950	0.070195	0.553122
	N4529	N	0.284929	0.935640	0.553102
	N4530	N	0.284923	0.435540	0.553176
	N4531	N	0.284905	0.570090	0.553138
	N4532	N	0.280967	0.435341	0.632177
	N4533	N	0.280920	0.569927	0.632176
	N4534	N	0.280961	0.070511	0.632103
	N4535	N	0.280938	0.935844	0.632113
	O4536	O	0.332679	0.694768	0.687027
	O4537	O	0.332715	0.810770	0.687034
	O4538	O	0.230761	0.694613	0.706878
	O4539	O	0.230622	0.810953	0.706983
	O4540	O	0.230667	0.194324	0.706988
	O4541	O	0.230631	0.310626	0.706912
	O4542	O	0.233654	0.694934	0.685759
	O4543	O	0.233770	0.811435	0.685815
	O4544	O	0.233778	0.194502	0.685813
	O4545	O	0.233684	0.311080	0.685719
	O4546	O	0.333725	0.694658	0.709755
	O4547	O	0.333742	0.810772	0.709756
	O4548	O	0.333597	0.194990	0.709674
	O4549	O	0.333613	0.311109	0.709735
	O4550	O	0.332655	0.194438	0.687107
	O4551	O	0.332813	0.310491	0.686965
	O4552	O	0.293231	0.694684	0.644340
	O4553	O	0.268765	0.694934	0.642957
	O4554	O	0.295166	0.694965	0.749905
	O4555	O	0.295128	0.811052	0.749848
	O4556	O	0.270344	0.694809	0.749500
	O4557	O	0.270183	0.810999	0.749632
	O4558	O	0.268815	0.811275	0.642986
	O4559	O	0.293212	0.810731	0.644346
	O4560	O	0.293147	0.194350	0.644374
	O4561	O	0.268694	0.195204	0.642877
	O4562	O	0.295115	0.194773	0.749896
	O4563	O	0.295198	0.310732	0.749954
	O4564	O	0.270222	0.194864	0.749590
	O4565	O	0.270252	0.310855	0.749554
	O4566	O	0.268865	0.311548	0.643039
	O4567	O	0.293213	0.310623	0.644346
	H4568	H	0.243589	0.643835	0.720505
	H4569	H	0.243359	0.861617	0.720646
	H4570	H	0.243211	0.144493	0.720655
	H4571	H	0.243482	0.361270	0.720503
	H4572	H	0.245876	0.862590	0.672638
	H4573	H	0.246138	0.643801	0.672768
	H4574	H	0.246217	0.362425	0.672826
	H4575	H	0.246028	0.143267	0.672636
	H4576	H	0.345827	0.064776	0.699312
	H4577	H	0.346339	0.064487	0.698861
	H4578	H	0.346386	0.941733	0.698787
	H4579	H	0.345849	0.941187	0.699330
	H4580	H	0.344757	0.064534	0.698962
	H4581	H	0.344815	0.940878	0.699038
	H4582	H	0.221648	0.064365	0.696349
	H4583	H	0.221634	0.941068	0.696297
	H4584	H	0.221892	0.064549	0.693798
	H4585	H	0.221854	0.940899	0.693775
	H4586	H	0.218560	0.064645	0.691643
	H4587	H	0.218513	0.941219	0.691623
	H4588	H	0.219881	0.441228	0.695227
	H4589	H	0.219852	0.441373	0.694195
	H4590	H	0.218520	0.440905	0.695853
	H4591	H	0.347302	0.441676	0.700086
	H4592	H	0.344433	0.441526	0.700416
	H4593	H	0.343114	0.441702	0.698985
	H4594	H	0.219809	0.564768	0.694202
	H4595	H	0.219812	0.564692	0.695241
	H4596	H	0.343099	0.565019	0.698979
	H4597	H	0.344420	0.564646	0.700400
	H4598	H	0.347328	0.564503	0.700061
	H4599	H	0.218466	0.564711	0.695869
	H4600	H	0.321379	0.644182	0.722677
	H4601	H	0.321339	0.861210	0.722559
	H4602	H	0.321257	0.144367	0.722549
	H4603	H	0.321376	0.361215	0.722666
	H4604	H	0.258288	0.643925	0.657237
	H4605	H	0.305858	0.644403	0.658033
	H4606	H	0.305861	0.860493	0.658029
	H4607	H	0.258018	0.862591	0.657102
	H4608	H	0.319933	0.644664	0.673392
	H4609	H	0.319986	0.860448	0.673375
	H4610	H	0.307538	0.644601	0.737124
	H4611	H	0.307528	0.861468	0.737004
	H4612	H	0.284246	0.441707	0.634356
	H4613	H	0.282629	0.441130	0.761066
	H4614	H	0.279861	0.441444	0.635359
	H4615	H	0.277380	0.441045	0.633443
	H4616	H	0.283338	0.441267	0.761426
	H4617	H	0.282946	0.441898	0.761456
	H4618	H	0.282545	0.564248	0.761058
	H4619	H	0.284223	0.564638	0.634342
	H4620	H	0.282868	0.564454	0.761456
	H4621	H	0.283251	0.564791	0.761452
	H4622	H	0.277380	0.565522	0.633406
	H4623	H	0.279872	0.564868	0.635367
	H4624	H	0.307518	0.144252	0.737034
	H4625	H	0.307604	0.361288	0.737152
	H4626	H	0.276992	0.064416	0.634874
	H4627	H	0.281016	0.064484	0.636608
	H4628	H	0.276463	0.063947	0.629659
	H4629	H	0.257455	0.861736	0.735986
	H4630	H	0.257680	0.644078	0.735850
	H4631	H	0.257611	0.361081	0.735829
	H4632	H	0.257364	0.144531	0.736027
	H4633	H	0.258109	0.143532	0.657060
	H4634	H	0.305921	0.143811	0.658030
	H4635	H	0.305983	0.360795	0.657922
	H4636	H	0.258303	0.362599	0.657227
	H4637	H	0.319968	0.143766	0.673429
	H4638	H	0.320008	0.360839	0.673329
	H4639	H	0.280656	0.064754	0.760245
	H4640	H	0.280765	0.064334	0.762136
	H4641	H	0.283555	0.064310	0.763365
	H4642	H	0.280984	0.941408	0.636573
	H4643	H	0.277047	0.941097	0.634892
	H4644	H	0.276453	0.940948	0.629767
	H4645	H	0.280612	0.941121	0.760192
	H4646	H	0.280801	0.941126	0.762099
	H4647	H	0.283521	0.940915	0.763332
	Zn4648	Zn	0.218539	0.680647	0.694660
	Zn4649	Zn	0.218548	0.825250	0.694638
	Zn4650	Zn	0.218615	0.180442	0.694651
	Zn4651	Zn	0.218577	0.325220	0.694628
	Zn4652	Zn	0.283075	0.680261	0.761077
	Zn4653	Zn	0.283105	0.825522	0.761070
	Zn4654	Zn	0.283108	0.180231	0.761145
	Zn4655	Zn	0.283161	0.325543	0.761100
	C4656	C	0.329376	0.752718	0.683509
	C4657	C	0.234016	0.752775	0.710461
	C4658	C	0.242546	0.752755	0.719659
	C4659	C	0.246634	0.691220	0.723950
	C4660	C	0.246494	0.814368	0.724035
	C4661	C	0.233978	0.252614	0.710467
	C4662	C	0.242479	0.252840	0.719705
	C4663	C	0.246398	0.191506	0.724076
	C4664	C	0.246540	0.314186	0.723970
	C4665	C	0.237134	0.753167	0.682551
	C4666	C	0.245374	0.753187	0.673745
	C4667	C	0.248742	0.815012	0.669276
	C4668	C	0.248889	0.691427	0.669358
	C4669	C	0.237165	0.252778	0.682534
	C4670	C	0.245338	0.252856	0.673683
	C4671	C	0.248888	0.314815	0.669329
	C4672	C	0.248776	0.191020	0.669222
	C4673	C	0.345926	0.043492	0.698951
	C4674	C	0.345952	0.962685	0.698933
	C4675	C	0.220904	0.043177	0.694961
	C4676	C	0.220883	0.962220	0.694929
	C4677	C	0.217519	0.043423	0.692770
	C4678	C	0.217491	0.962484	0.692748
	C4679	C	0.219490	0.462463	0.694693
	C4680	C	0.347064	0.462880	0.699036
	C4681	C	0.344213	0.462660	0.699353
	C4682	C	0.219461	0.543261	0.694707
	C4683	C	0.344220	0.543557	0.699352
	C4684	C	0.347081	0.543702	0.699044
	C4685	C	0.330519	0.752733	0.713093
	C4686	C	0.330383	0.252984	0.713042
	C4687	C	0.322199	0.752773	0.721762
	C4688	C	0.318324	0.691437	0.725881
	C4689	C	0.318291	0.814177	0.725803
	C4690	C	0.322077	0.252813	0.721724
	C4691	C	0.318200	0.191453	0.725790
	C4692	C	0.318251	0.314112	0.725855
	C4693	C	0.329406	0.252409	0.683503
	C4694	C	0.296546	0.752651	0.647874
	C4695	C	0.266021	0.753119	0.646671
	C4696	C	0.266922	0.752931	0.746045
	C4697	C	0.316787	0.691565	0.669995
	C4698	C	0.316801	0.813583	0.669988
	C4699	C	0.305025	0.752489	0.657113
	C4700	C	0.258828	0.753211	0.656137
	C4701	C	0.255562	0.691462	0.660670
	C4702	C	0.308974	0.691414	0.661472
	C4703	C	0.308986	0.813611	0.661460
	C4704	C	0.255425	0.815061	0.660600
	C4705	C	0.320754	0.752626	0.674359
	C4706	C	0.298384	0.752994	0.746566
	C4707	C	0.310640	0.691543	0.733889
	C4708	C	0.310631	0.814363	0.733820
	C4709	C	0.306779	0.753032	0.737939
	C4710	C	0.282801	0.462294	0.760994
	C4711	C	0.279226	0.462430	0.633797
	C4712	C	0.283105	0.462658	0.761359
	C4713	C	0.282765	0.543338	0.760989
	C4714	C	0.283083	0.543285	0.761367
	C4715	C	0.279202	0.543617	0.633786
	C4716	C	0.298410	0.252731	0.746616
	C4717	C	0.310573	0.191428	0.733829
	C4718	C	0.310628	0.314119	0.733897
	C4719	C	0.306723	0.252761	0.737958
	C4720	C	0.279495	0.043387	0.634779
	C4721	C	0.296537	0.252426	0.647866
	C4722	C	0.265956	0.253287	0.646623
	C4723	C	0.266880	0.252857	0.746047
	C4724	C	0.316830	0.190930	0.670007
	C4725	C	0.316853	0.313620	0.669942
	C4726	C	0.305050	0.252237	0.657085
	C4727	C	0.258795	0.253112	0.656085
	C4728	C	0.258304	0.752945	0.736883
	C4729	C	0.254308	0.814456	0.732564
	C4730	C	0.254435	0.691318	0.732484
	C4731	C	0.258272	0.252781	0.736897
	C4732	C	0.254378	0.314053	0.732483
	C4733	C	0.254236	0.191547	0.732589
	C4734	C	0.255454	0.191133	0.660542
	C4735	C	0.309013	0.190857	0.661472
	C4736	C	0.309036	0.313619	0.661409
	C4737	C	0.255569	0.314962	0.660649
	C4738	C	0.320815	0.252272	0.674331
	C4739	C	0.281343	0.043198	0.761175
	C4740	C	0.278941	0.043093	0.629586
	C4741	C	0.279516	0.962480	0.634762
	C4742	C	0.281332	0.962322	0.761140
	C4743	C	0.278940	0.962278	0.629621
	N4744	N	0.218497	0.070190	0.694657
	N4745	N	0.218471	0.935567	0.694602
	N4746	N	0.218559	0.435281	0.694674
	N4747	N	0.218542	0.569995	0.694687
	N4748	N	0.283100	0.435611	0.761088
	N4749	N	0.283048	0.570163	0.761081
	N4750	N	0.283104	0.070113	0.761155
	N4751	N	0.283096	0.935567	0.761099
	O4752	O	0.342672	0.694644	0.809620
	O4753	O	0.342601	0.810748	0.809671
	O4754	O	0.234366	0.694954	0.834563
	O4755	O	0.234356	0.810903	0.834496
	O4756	O	0.234294	0.194681	0.834531
	O4757	O	0.234386	0.310643	0.834451
	O4758	O	0.232730	0.694645	0.812488
	O4759	O	0.232678	0.810585	0.812453
	O4760	O	0.232708	0.194977	0.812425
	O4761	O	0.232820	0.310962	0.812524
	O4762	O	0.344840	0.694940	0.831843
	O4763	O	0.344752	0.810780	0.831722
	O4764	O	0.344835	0.194994	0.831764
	O4765	O	0.344958	0.311141	0.831790
	O4766	O	0.342566	0.194889	0.809657
	O4767	O	0.342641	0.311124	0.809636
	O4768	O	0.296724	0.694973	0.771919
	O4769	O	0.271316	0.694584	0.772326
	O4770	O	0.305709	0.695202	0.871514
	O4771	O	0.305561	0.811164	0.871439
	O4772	O	0.280185	0.695027	0.872277
	O4773	O	0.280257	0.811036	0.872155
	O4774	O	0.271272	0.810555	0.772277
	O4775	O	0.296732	0.811061	0.771959
	O4776	O	0.296775	0.194860	0.772006
	O4777	O	0.271326	0.194950	0.772374
	O4778	O	0.305552	0.195280	0.871359
	O4779	O	0.305623	0.311450	0.871425
	O4780	O	0.280295	0.194831	0.872140
	O4781	O	0.280242	0.310894	0.872164
	O4782	O	0.271336	0.311110	0.772352
	O4783	O	0.296840	0.310884	0.771940
	H4784	H	0.249061	0.645128	0.846582
	H4785	H	0.248930	0.861010	0.846657
	H4786	H	0.248961	0.144382	0.846647
	H4787	H	0.249092	0.361490	0.846601
	H4788	H	0.245111	0.861241	0.799639
	H4789	H	0.245096	0.644235	0.799670
	H4790	H	0.245069	0.361340	0.799613
	H4791	H	0.245062	0.144642	0.799574
	H4792	H	0.359648	0.065170	0.820102
	H4793	H	0.358161	0.064603	0.818053
	H4794	H	0.358226	0.941447	0.818055
	H4795	H	0.359686	0.941793	0.820107
	H4796	H	0.357882	0.064680	0.822849
	H4797	H	0.357878	0.941283	0.822886
	H4798	H	0.220323	0.064529	0.824227
	H4799	H	0.220338	0.941373	0.824188
	H4800	H	0.220916	0.064698	0.824276
	H4801	H	0.220915	0.940959	0.824264
	H4802	H	0.221382	0.064166	0.823681
	H4803	H	0.221368	0.940962	0.823653
	H4804	H	0.220566	0.441003	0.820996
	H4805	H	0.218201	0.441472	0.821925
	H4806	H	0.223572	0.440841	0.822770
	H4807	H	0.358130	0.441225	0.820393
	H4808	H	0.356998	0.441473	0.821671
	H4809	H	0.355597	0.441612	0.821446
	H4810	H	0.218251	0.564534	0.821996
	H4811	H	0.220561	0.564921	0.821086
	H4812	H	0.355550	0.564539	0.821530
	H4813	H	0.357007	0.564771	0.821725
	H4814	H	0.358183	0.564658	0.820388
	H4815	H	0.223584	0.564244	0.822844
	H4816	H	0.332285	0.645294	0.844549
	H4817	H	0.332134	0.860993	0.844400
	H4818	H	0.332355	0.145304	0.844491
	H4819	H	0.332356	0.361453	0.844504
	H4820	H	0.258933	0.644068	0.785241
	H4821	H	0.311475	0.644821	0.783989
	H4822	H	0.311423	0.861204	0.784061
	H4823	H	0.258974	0.861196	0.785217
	H4824	H	0.327909	0.644613	0.797544
	H4825	H	0.327877	0.860937	0.797630
	H4826	H	0.318253	0.645401	0.858858
	H4827	H	0.318079	0.860994	0.858710
	H4828	H	0.282782	0.440639	0.760810
	H4829	H	0.295066	0.441076	0.883893
	H4830	H	0.283349	0.441141	0.760778
	H4831	H	0.283566	0.440972	0.761044
	H4832	H	0.294377	0.440869	0.881649
	H4833	H	0.295434	0.441047	0.882400
	H4834	H	0.295176	0.564498	0.883855
	H4835	H	0.282720	0.564523	0.760804
	H4836	H	0.295420	0.564296	0.882365
	H4837	H	0.294410	0.564010	0.881665
	H4838	H	0.283476	0.564735	0.761023
	H4839	H	0.283303	0.564181	0.760772
	H4840	H	0.318208	0.145304	0.858709
	H4841	H	0.318198	0.361397	0.858700
	H4842	H	0.285133	0.064973	0.759783
	H4843	H	0.283145	0.064441	0.758918
	H4844	H	0.285366	0.064730	0.762378
	H4845	H	0.265319	0.861160	0.860222
	H4846	H	0.265464	0.644977	0.860166
	H4847	H	0.265540	0.361430	0.860131
	H4848	H	0.265426	0.144348	0.860174
	H4849	H	0.258907	0.144645	0.785149
	H4850	H	0.311443	0.144592	0.784105
	H4851	H	0.311567	0.361314	0.784001
	H4852	H	0.258923	0.361498	0.785177
	H4853	H	0.327802	0.144835	0.797711
	H4854	H	0.327890	0.361360	0.797661
	H4855	H	0.293267	0.064449	0.883420
	H4856	H	0.294003	0.064574	0.883702
	H4857	H	0.294951	0.064618	0.883281
	H4858	H	0.283127	0.941254	0.758848
	H4859	H	0.285157	0.941547	0.759747
	H4860	H	0.285365	0.941061	0.762358
	H4861	H	0.293252	0.941551	0.883403
	H4862	H	0.293994	0.941244	0.883702
	H4863	H	0.294876	0.940840	0.883242
	Zn4864	Zn	0.220713	0.680081	0.823748
	Zn4865	Zn	0.220721	0.825455	0.823680
	Zn4866	Zn	0.220741	0.180046	0.823676
	Zn4867	Zn	0.220727	0.325459	0.823655
	Zn4868	Zn	0.294065	0.680095	0.882892
	Zn4869	Zn	0.293966	0.825286	0.882936
	Zn4870	Zn	0.294034	0.180172	0.882875
	Zn4871	Zn	0.293956	0.325307	0.882913
	C4872	C	0.338810	0.752747	0.806514
	C4873	C	0.238176	0.753024	0.837654
	C4874	C	0.248087	0.753079	0.845769
	C4875	C	0.252716	0.691917	0.849610
	C4876	C	0.252635	0.814202	0.849644
	C4877	C	0.238153	0.252702	0.837645
	C4878	C	0.248053	0.252873	0.845799
	C4879	C	0.252655	0.191520	0.849643
	C4880	C	0.252739	0.314330	0.849618
	C4881	C	0.235931	0.752620	0.809149
	C4882	C	0.244288	0.752693	0.800519
	C4883	C	0.248193	0.814062	0.796440
	C4884	C	0.248184	0.691353	0.796459
	C4885	C	0.236010	0.252988	0.809158
	C4886	C	0.244321	0.253000	0.800491
	C4887	C	0.248162	0.314373	0.796396
	C4888	C	0.248159	0.191681	0.796372
	C4889	C	0.358239	0.043570	0.819419
	C4890	C	0.358289	0.962761	0.819438
	C4891	C	0.220626	0.043261	0.824092
	C4892	C	0.220627	0.962352	0.824075
	C4893	C	0.221127	0.043075	0.823516
	C4894	C	0.221115	0.962285	0.823515
	C4895	C	0.219716	0.462375	0.822047
	C4896	C	0.357497	0.462467	0.819928
	C4897	C	0.356335	0.462691	0.821230
	C4898	C	0.219732	0.543364	0.822103
	C4899	C	0.356314	0.543525	0.821280
	C4900	C	0.357501	0.543556	0.819938
	C4901	C	0.341513	0.752982	0.835079
	C4902	C	0.341643	0.253139	0.835079
	C4903	C	0.333029	0.753111	0.843642
	C4904	C	0.329133	0.692056	0.847717
	C4905	C	0.329028	0.814238	0.847621
	C4906	C	0.333160	0.253342	0.843627
	C4907	C	0.329182	0.192161	0.847645
	C4908	C	0.329173	0.314532	0.847638
	C4909	C	0.338784	0.253043	0.806531
	C4910	C	0.300553	0.753008	0.775068
	C4911	C	0.268069	0.752622	0.775654
	C4912	C	0.276390	0.753020	0.869079
	C4913	C	0.324242	0.691689	0.794526
	C4914	C	0.324218	0.814103	0.794582
	C4915	C	0.310458	0.752967	0.783208
	C4916	C	0.259728	0.752625	0.784326
	C4917	C	0.255836	0.691256	0.788435
	C4918	C	0.315126	0.691740	0.787011
	C4919	C	0.315092	0.814164	0.787066
	C4920	C	0.255847	0.814072	0.788413
	C4921	C	0.328879	0.752849	0.798377
	C4922	C	0.308867	0.753226	0.868157
	C4923	C	0.321341	0.692154	0.855639
	C4924	C	0.321247	0.814250	0.855545
	C4925	C	0.317308	0.753207	0.859595
	C4926	C	0.294361	0.462407	0.883754
	C4927	C	0.283346	0.462315	0.760968
	C4928	C	0.294643	0.462330	0.882258
	C4929	C	0.294413	0.543254	0.883751
	C4930	C	0.294668	0.543163	0.882241
	C4931	C	0.283334	0.543119	0.760957
	C4932	C	0.308873	0.253377	0.868107
	C4933	C	0.321354	0.192189	0.855542
	C4934	C	0.321344	0.314603	0.855531
	C4935	C	0.317371	0.253430	0.859550
	C4936	C	0.283849	0.043329	0.759830
	C4937	C	0.300627	0.252885	0.775114
	C4938	C	0.268099	0.253045	0.775691
	C4939	C	0.276409	0.252848	0.869054
	C4940	C	0.324234	0.191764	0.794620
	C4941	C	0.324282	0.314335	0.794587
	C4942	C	0.310540	0.252932	0.783248
	C4943	C	0.259735	0.253076	0.784312
	C4944	C	0.266432	0.753031	0.860981
	C4945	C	0.261732	0.814172	0.857178
	C4946	C	0.261809	0.691887	0.857148
	C4947	C	0.266455	0.252809	0.860982
	C4948	C	0.261869	0.314224	0.857130
	C4949	C	0.261790	0.191479	0.857152
	C4950	C	0.255833	0.191687	0.788368
	C4951	C	0.315111	0.191682	0.787118
	C4952	C	0.315167	0.314335	0.787075
	C4953	C	0.255840	0.314463	0.788388
	C4954	C	0.328884	0.253050	0.798419
	C4955	C	0.293749	0.043226	0.883402
	C4956	C	0.284089	0.043362	0.762415
	C4957	C	0.283854	0.962660	0.759802
	C4958	C	0.293739	0.962513	0.883400
	C4959	C	0.284085	0.962384	0.762403
	N4960	N	0.220679	0.070057	0.823677
	N4961	N	0.220685	0.935579	0.823653
	N4962	N	0.220675	0.435536	0.823655
	N4963	N	0.220689	0.570078	0.823706
	N4964	N	0.293960	0.435456	0.882909
	N4965	N	0.294021	0.569992	0.882927
	N4966	N	0.294003	0.070018	0.882942
	N4967	N	0.293973	0.935460	0.882922
	O4968	O	0.355525	0.695179	0.929401
	O4969	O	0.355560	0.811181	0.929360
	O4970	O	0.245405	0.694858	0.955810
	O4971	O	0.245355	0.811019	0.955851
	O4972	O	0.245236	0.194409	0.955849
	O4973	O	0.245247	0.310439	0.955869
	O4974	O	0.243081	0.694377	0.933919
	O4975	O	0.242954	0.810200	0.933784
	O4976	O	0.243065	0.194587	0.933864
	O4977	O	0.242945	0.310536	0.933799
	O4978	O	0.357976	0.695133	0.951359
	O4979	O	0.358112	0.810982	0.951401
	O4980	O	0.357982	0.195329	0.951357
	O4981	O	0.357998	0.311406	0.951281
	O4982	O	0.355515	0.195134	0.929435
	O4983	O	0.355586	0.311033	0.929371
	O4984	O	0.308053	0.694718	0.893372
	O4985	O	0.282361	0.694553	0.894340
	O4986	O	0.318533	0.694864	0.990820
	O4987	O	0.318447	0.810907	0.990814
	O4988	O	0.292968	0.695172	0.991844
	O4989	O	0.292942	0.811334	0.991824
	O4990	O	0.282304	0.810646	0.894305
	O4991	O	0.307881	0.810548	0.893499
	O4992	O	0.307932	0.194788	0.893423
	O4993	O	0.282392	0.194741	0.894263
	O4994	O	0.318589	0.195261	0.990804
	O4995	O	0.318428	0.311317	0.990782
	O4996	O	0.292943	0.194485	0.991828
	O4997	O	0.292958	0.310531	0.991736
	O4998	O	0.282322	0.310687	0.894251
	O4999	O	0.307943	0.310751	0.893342
	H5000	H	0.260554	0.644507	0.967465
	H5001	H	0.260628	0.861437	0.967426
	H5002	H	0.260573	0.143731	0.967345
	H5003	H	0.260593	0.360617	0.967286
	H5004	H	0.255597	0.860795	0.921156
	H5005	H	0.255656	0.643724	0.921218
	H5006	H	0.255613	0.360369	0.921189
	H5007	H	0.255623	0.144759	0.921100
	H5008	H	0.368045	0.064543	0.938513
	H5009	H	0.367388	0.064371	0.939915
	H5010	H	0.367413	0.941022	0.939994
	H5011	H	0.368050	0.941240	0.938521
	H5012	H	0.370524	0.064531	0.938288
	H5013	H	0.370552	0.941029	0.938330
	H5014	H	0.231006	0.064426	0.944402
	H5015	H	0.231008	0.941629	0.944425
	H5016	H	0.230444	0.064570	0.944953
	H5017	H	0.230527	0.941102	0.944972
	H5018	H	0.230856	0.064576	0.945947
	H5019	H	0.230889	0.941254	0.945916
	H5020	H	0.231440	0.440813	0.946703
	H5021	H	0.232644	0.441566	0.946300
	H5022	H	0.229906	0.440565	0.945660
	H5023	H	0.366527	0.441472	0.940278
	H5024	H	0.368030	0.440978	0.937498
	H5025	H	0.370594	0.441105	0.937339
	H5026	H	0.232656	0.564662	0.946231
	H5027	H	0.231440	0.564045	0.946732
	H5028	H	0.370581	0.564521	0.937334
	H5029	H	0.367907	0.564486	0.937512
	H5030	H	0.366434	0.564590	0.940361
	H5031	H	0.229889	0.564189	0.945682
	H5032	H	0.345367	0.645104	0.964034
	H5033	H	0.345343	0.861384	0.963970
	H5034	H	0.345315	0.145493	0.963905
	H5035	H	0.345264	0.362326	0.963948
	H5036	H	0.269766	0.644064	0.906980
	H5037	H	0.323220	0.644694	0.904937
	H5038	H	0.323153	0.861251	0.904986
	H5039	H	0.269707	0.860406	0.906933
	H5040	H	0.340297	0.644700	0.917836
	H5041	H	0.340232	0.861643	0.917915
	H5042	H	0.331173	0.645164	0.978186
	H5043	H	0.331129	0.861420	0.978142
	H5044	H	0.293853	0.441439	0.884210
	H5045	H	0.308309	0.440969	1.001256
	H5046	H	0.292454	0.441451	0.883240
	H5047	H	0.292642	0.441093	0.882178
	H5048	H	0.305095	0.441049	1.001707
	H5049	H	0.306178	0.440815	1.000763
	H5050	H	0.308345	0.564258	1.001256
	H5051	H	0.293956	0.564694	0.884228
	H5052	H	0.306191	0.564597	1.000760
	H5053	H	0.305136	0.564359	1.001691
	H5054	H	0.292689	0.564335	0.882185
	H5055	H	0.292469	0.564658	0.883244
	H5056	H	0.331156	0.145399	0.978124
	H5057	H	0.331061	0.362172	0.978128
	H5058	H	0.293820	0.064462	0.882159
	H5059	H	0.293187	0.064026	0.882487
	H5060	H	0.294848	0.064845	0.882548
	H5061	H	0.277723	0.861400	0.980302
	H5062	H	0.277651	0.644561	0.980358
	H5063	H	0.277682	0.360587	0.980182
	H5064	H	0.277728	0.144178	0.980191
	H5065	H	0.269745	0.144713	0.906894
	H5066	H	0.323262	0.144646	0.904868
	H5067	H	0.323283	0.361350	0.904840
	H5068	H	0.269732	0.360609	0.906967
	H5069	H	0.340306	0.144961	0.917811
	H5070	H	0.340322	0.361276	0.917777
	H5071	H	0.306590	0.064377	1.002613
	H5072	H	0.307008	0.064469	1.002761
	H5073	H	0.307521	0.064348	1.002434
	H5074	H	0.293173	0.940966	0.882510
	H5075	H	0.293845	0.941238	0.882131
	H5076	H	0.294852	0.941112	0.882586
	H5077	H	0.306563	0.940785	1.002634
	H5078	H	0.307046	0.941122	1.002737
	H5079	H	0.307418	0.941216	1.002390
	Zn5080	Zn	0.231370	0.679998	0.945320
	Zn5081	Zn	0.231426	0.825509	0.945242
	Zn5082	Zn	0.231346	0.179980	0.945246
	Zn5083	Zn	0.231381	0.325390	0.945241
	Zn5084	Zn	0.307008	0.679775	1.002323
	Zn5085	Zn	0.306912	0.825692	1.002356
	Zn5086	Zn	0.307027	0.179771	1.002267
	Zn5087	Zn	0.306896	0.325720	1.002277
	C5088	C	0.351567	0.753207	0.926392
	C5089	C	0.249341	0.752950	0.958831
	C5090	C	0.259638	0.752972	0.966583
	C5091	C	0.264416	0.691644	0.970274
	C5092	C	0.264463	0.814258	0.970242
	C5093	C	0.249231	0.252358	0.958824
	C5094	C	0.259513	0.252265	0.966582
	C5095	C	0.264379	0.190918	0.970195
	C5096	C	0.264361	0.313571	0.970195
	C5097	C	0.246296	0.752214	0.930566
	C5098	C	0.254809	0.752197	0.922052
	C5099	C	0.258763	0.813581	0.918018
	C5100	C	0.258803	0.690805	0.918052
	C5101	C	0.246285	0.252578	0.930537
	C5102	C	0.254829	0.252518	0.922031
	C5103	C	0.258780	0.313620	0.918019
	C5104	C	0.258794	0.191503	0.917978
	C5105	C	0.368195	0.043182	0.939385
	C5106	C	0.368223	0.962381	0.939409
	C5107	C	0.230901	0.043371	0.944824
	C5108	C	0.230919	0.962581	0.944807
	C5109	C	0.231310	0.043010	0.945796
	C5110	C	0.231323	0.962261	0.945786
	C5111	C	0.231887	0.462325	0.946181
	C5112	C	0.367890	0.462673	0.940869
	C5113	C	0.369390	0.462337	0.938052
	C5114	C	0.231890	0.542909	0.946178
	C5115	C	0.369334	0.543257	0.938061
	C5116	C	0.367865	0.543277	0.940901
	C5117	C	0.354751	0.753125	0.954663
	C5118	C	0.354697	0.253501	0.954612
	C5119	C	0.346226	0.753262	0.963156
	C5120	C	0.342213	0.692132	0.967171
	C5121	C	0.342204	0.814434	0.967137
	C5122	C	0.346168	0.253839	0.963133
	C5123	C	0.342169	0.192523	0.967095
	C5124	C	0.342128	0.315203	0.967113
	C5125	C	0.351566	0.253110	0.926406
	C5126	C	0.311931	0.752714	0.896436
	C5127	C	0.279052	0.752548	0.897602
	C5128	C	0.288991	0.753156	0.988849
	C5129	C	0.336501	0.691884	0.914970
	C5130	C	0.336469	0.814492	0.915009
	C5131	C	0.322205	0.752990	0.904203
	C5132	C	0.270560	0.752280	0.906138
	C5133	C	0.266610	0.690961	0.910149
	C5134	C	0.327030	0.691722	0.907817
	C5135	C	0.327000	0.814358	0.907854
	C5136	C	0.266571	0.813545	0.910117
	C5137	C	0.341307	0.753250	0.918637
	C5138	C	0.321780	0.752988	0.987525
	C5139	C	0.334334	0.692065	0.975029
	C5140	C	0.334315	0.814547	0.974993
	C5141	C	0.330333	0.753317	0.979009
	C5142	C	0.308121	0.462269	1.002004
	C5143	C	0.292921	0.462396	0.882761
	C5144	C	0.305960	0.462217	1.001494
	C5145	C	0.308148	0.542918	1.002011
	C5146	C	0.306005	0.543225	1.001505
	C5147	C	0.292952	0.543116	0.882764
	C5148	C	0.321801	0.253477	0.987522
	C5149	C	0.334311	0.192528	0.974970
	C5150	C	0.334252	0.315142	0.974979
	C5151	C	0.330294	0.253749	0.978994
	C5152	C	0.293652	0.043062	0.882485
	C5153	C	0.311892	0.252851	0.896390
	C5154	C	0.279090	0.252675	0.897553
	C5155	C	0.288991	0.252451	0.988769
	C5156	C	0.336483	0.191897	0.914962
	C5157	C	0.336497	0.314245	0.914936
	C5158	C	0.322141	0.253008	0.904165
	C5159	C	0.270629	0.252674	0.906123
	C5160	C	0.278738	0.752974	0.981055
	C5161	C	0.273932	0.814344	0.977407
	C5162	C	0.273884	0.691598	0.977440
	C5163	C	0.278683	0.252427	0.981021
	C5164	C	0.273857	0.313609	0.977343
	C5165	C	0.273856	0.191102	0.977372
	C5166	C	0.266630	0.191593	0.910091
	C5167	C	0.327027	0.191788	0.907776
	C5168	C	0.327027	0.314272	0.907753
	C5169	C	0.266623	0.313674	0.910137
	C5170	C	0.341279	0.253095	0.918641
	C5171	C	0.306850	0.043169	1.002564
	C5172	C	0.294666	0.043370	0.882903
	C5173	C	0.293640	0.962336	0.882473
	C5174	C	0.306836	0.962248	1.002564
	C5175	C	0.294648	0.962306	0.882914
	N5176	N	0.231434	0.069953	0.945233
	N5177	N	0.231448	0.935451	0.945230
	N5178	N	0.231430	0.435337	0.945310
	N5179	N	0.231423	0.569894	0.945321
	N5180	N	0.306897	0.435543	1.002274
	N5181	N	0.306957	0.569953	1.002264
	N5182	N	0.306976	0.070050	1.002277
	N5183	N	0.306928	0.935627	1.002296
	O5184	O	0.507405	0.694614	0.042761
	O5185	O	0.507326	0.810590	0.042827
	O5186	O	0.396875	0.694584	0.069339
	O5187	O	0.396817	0.810749	0.069471
	O5188	O	0.396852	0.195184	0.069431
	O5189	O	0.396884	0.311267	0.069501
	O5190	O	0.394364	0.694850	0.047518
	O5191	O	0.394413	0.810833	0.047532
	O5192	O	0.394400	0.195027	0.047456
	O5193	O	0.394457	0.311066	0.047519
	O5194	O	0.509676	0.694766	0.064793
	O5195	O	0.509469	0.810811	0.064681
	O5196	O	0.509677	0.194913	0.064774
	O5197	O	0.509517	0.310939	0.064696
	O5198	O	0.507351	0.194709	0.042843
	O5199	O	0.507272	0.310790	0.042934
	O5200	O	0.459458	0.694734	0.007056
	O5201	O	0.433883	0.694613	0.008104
	O5202	O	0.470283	0.694675	0.104357
	O5203	O	0.470325	0.810700	0.104333
	O5204	O	0.444679	0.694520	0.105226
	O5205	O	0.444660	0.810556	0.105212
	O5206	O	0.433825	0.810649	0.008028
	O5207	O	0.459410	0.810866	0.007087
	O5208	O	0.459512	0.194685	0.006988
	O5209	O	0.433795	0.195047	0.007990
	O5210	O	0.470258	0.194575	0.104307
	O5211	O	0.470318	0.310655	0.104365
	O5212	O	0.444697	0.194718	0.105223
	O5213	O	0.444667	0.310685	0.105242
	O5214	O	0.433981	0.311355	0.008077
	O5215	O	0.459448	0.310635	0.007065
	H5216	H	0.412153	0.643909	0.080852
	H5217	H	0.412061	0.861030	0.080968
	H5218	H	0.412218	0.144566	0.080896
	H5219	H	0.412256	0.361211	0.080943
	H5220	H	0.407115	0.861023	0.034918
	H5221	H	0.407084	0.644364	0.034947
	H5222	H	0.407087	0.361397	0.034839
	H5223	H	0.407008	0.144807	0.034784
	H5224	H	0.522789	0.064393	0.054245
	H5225	H	0.523068	0.064530	0.053036
	H5226	H	0.522995	0.941120	0.053004
	H5227	H	0.522795	0.941429	0.054279
	H5228	H	0.520867	0.064847	0.054766
	H5229	H	0.520918	0.941432	0.054818
	H5230	H	0.382830	0.064664	0.059414
	H5231	H	0.382836	0.941095	0.059395
	H5232	H	0.383207	0.064545	0.059249
	H5233	H	0.383270	0.941480	0.059291
	H5234	H	0.383281	0.064706	0.058836
	H5235	H	0.383325	0.941457	0.058832
	H5236	H	0.382337	0.441576	0.059741
	H5237	H	0.383217	0.441563	0.059847
	H5238	H	0.381741	0.440463	0.058782
	H5239	H	0.520989	0.441143	0.053113
	H5240	H	0.521429	0.440791	0.053036
	H5241	H	0.521758	0.441137	0.053236
	H5242	H	0.383129	0.564840	0.059769
	H5243	H	0.382206	0.564441	0.059662
	H5244	H	0.521697	0.564309	0.053166
	H5245	H	0.521427	0.564197	0.052989
	H5246	H	0.520956	0.564454	0.053061
	H5247	H	0.381677	0.564547	0.058715
	H5248	H	0.496989	0.644038	0.077449
	H5249	H	0.496966	0.861203	0.077411
	H5250	H	0.497005	0.143842	0.077409
	H5251	H	0.496995	0.361170	0.077418
	H5252	H	0.421236	0.644608	0.020744
	H5253	H	0.474766	0.644368	0.018513
	H5254	H	0.474854	0.861570	0.018467
	H5255	H	0.421250	0.860875	0.020757
	H5256	H	0.491970	0.644176	0.031324
	H5257	H	0.492072	0.861370	0.031297
	H5258	H	0.482846	0.644007	0.091678
	H5259	H	0.482892	0.860965	0.091636
	H5260	H	0.444719	0.440832	-0.002313
	H5261	H	0.459045	0.440965	0.113159
	H5262	H	0.443927	0.440731	-0.003771
	H5263	H	0.444624	0.441501	-0.004701
	H5264	H	0.455797	0.441342	0.116668
	H5265	H	0.455928	0.441243	0.114490
	H5266	H	0.459046	0.564543	0.113163
	H5267	H	0.444705	0.564573	-0.002246
	H5268	H	0.455914	0.564619	0.114492
	H5269	H	0.455847	0.564637	0.116702
	H5270	H	0.444564	0.564125	-0.004662
	H5271	H	0.443832	0.564840	-0.003734
	H5272	H	0.482885	0.143891	0.091634
	H5273	H	0.482907	0.361175	0.091641
	H5274	H	0.445976	0.064596	-0.003243
	H5275	H	0.445889	0.064190	-0.003666
	H5276	H	0.445397	0.064672	-0.002936
	H5277	H	0.429243	0.860759	0.093785
	H5278	H	0.429345	0.643865	0.093686
	H5279	H	0.429408	0.361068	0.093764
	H5280	H	0.429382	0.144367	0.093735
	H5281	H	0.421174	0.145043	0.020589
	H5282	H	0.474809	0.144413	0.018573
	H5283	H	0.474825	0.360845	0.018499
	H5284	H	0.421285	0.361559	0.020678
	H5285	H	0.491999	0.144568	0.031425
	H5286	H	0.492004	0.361134	0.031356
	H5287	H	0.460023	0.065030	0.116802
	H5288	H	0.460379	0.064705	0.115582
	H5289	H	0.458831	0.064238	0.114278
	H5290	H	0.445889	0.941086	-0.003622
	H5291	H	0.445951	0.941707	-0.003209
	H5292	H	0.445397	0.940812	-0.002885
	H5293	H	0.459978	0.941452	0.116743
	H5294	H	0.460279	0.941015	0.115552
	H5295	H	0.458954	0.941078	0.114340
	Zn5296	Zn	0.382760	0.680022	0.058897
	Zn5297	Zn	0.382860	0.825627	0.058984
	Zn5298	Zn	0.382818	0.180324	0.058981
	Zn5299	Zn	0.382869	0.325598	0.059044
	Zn5300	Zn	0.458664	0.680253	0.115745
	Zn5301	Zn	0.458663	0.825880	0.115718
	Zn5302	Zn	0.458652	0.180271	0.115775
	Zn5303	Zn	0.458657	0.325830	0.115717
	C5304	C	0.503371	0.752585	0.039814
	C5305	C	0.400823	0.752600	0.072379
	C5306	C	0.411141	0.752416	0.080115
	C5307	C	0.416008	0.690992	0.083715
	C5308	C	0.415947	0.813817	0.083774
	C5309	C	0.400884	0.253096	0.072427
	C5310	C	0.411214	0.252900	0.080131
	C5311	C	0.416051	0.191596	0.083756
	C5312	C	0.416060	0.314137	0.083776
	C5313	C	0.397693	0.752765	0.044255
	C5314	C	0.406212	0.752638	0.035740
	C5315	C	0.410235	0.813963	0.031744
	C5316	C	0.410209	0.691380	0.031757
	C5317	C	0.397692	0.253040	0.044193
	C5318	C	0.406226	0.253048	0.035676
	C5319	C	0.410248	0.314415	0.031701
	C5320	C	0.410206	0.191771	0.031677
	C5321	C	0.522503	0.043171	0.053553
	C5322	C	0.522492	0.962480	0.053561
	C5323	C	0.382992	0.043299	0.059257
	C5324	C	0.383008	0.962680	0.059268
	C5325	C	0.383076	0.043360	0.058816
	C5326	C	0.383088	0.962588	0.058813
	C5327	C	0.382785	0.462640	0.059569
	C5328	C	0.521053	0.462208	0.053299
	C5329	C	0.521513	0.462160	0.053191
	C5330	C	0.382738	0.543259	0.059531
	C5331	C	0.521500	0.543003	0.053156
	C5332	C	0.521058	0.543150	0.053275
	C5333	C	0.506300	0.752758	0.068039
	C5334	C	0.506330	0.252859	0.068026
	C5335	C	0.497848	0.752583	0.076613
	C5336	C	0.493857	0.691134	0.080631
	C5337	C	0.493854	0.814003	0.080597
	C5338	C	0.497857	0.252585	0.076590
	C5339	C	0.493881	0.191104	0.080597
	C5340	C	0.493876	0.313998	0.080596
	C5341	C	0.503318	0.252773	0.039909
	C5342	C	0.463417	0.752859	0.010036
	C5343	C	0.430578	0.752653	0.011359
	C5344	C	0.440658	0.752484	0.102258
	C5345	C	0.488171	0.691344	0.028449
	C5346	C	0.488222	0.814251	0.028420
	C5347	C	0.473797	0.753015	0.017718
	C5348	C	0.422065	0.752648	0.019866
	C5349	C	0.418061	0.691482	0.023885
	C5350	C	0.478623	0.691523	0.021346
	C5351	C	0.478678	0.814379	0.021313
	C5352	C	0.418091	0.813884	0.023872
	C5353	C	0.493050	0.752764	0.032060
	C5354	C	0.473603	0.752581	0.101074
	C5355	C	0.486053	0.691041	0.088547
	C5356	C	0.486056	0.813905	0.088510
	C5357	C	0.482110	0.752488	0.092553
	C5358	C	0.459754	0.462651	0.114316
	C5359	C	0.444569	0.462427	-0.004038
	C5360	C	0.456597	0.462607	0.115635
	C5361	C	0.459748	0.543424	0.114329
	C5362	C	0.456602	0.543378	0.115640
	C5363	C	0.444539	0.543262	-0.004015
	C5364	C	0.473586	0.252585	0.101054
	C5365	C	0.486060	0.191078	0.088499
	C5366	C	0.486071	0.313939	0.088503
	C5367	C	0.482106	0.252517	0.092537
	C5368	C	0.445800	0.043036	-0.003446
	C5369	C	0.463483	0.252642	0.010009
	C5370	C	0.430581	0.253291	0.011293
	C5371	C	0.440697	0.252684	0.102257
	C5372	C	0.488176	0.191549	0.028556
	C5373	C	0.488175	0.314084	0.028514
	C5374	C	0.473812	0.252605	0.017752
	C5375	C	0.422060	0.253330	0.019823
	C5376	C	0.430343	0.752308	0.094514
	C5377	C	0.425470	0.813666	0.090902
	C5378	C	0.425533	0.690940	0.090840
	C5379	C	0.430394	0.252680	0.094530
	C5380	C	0.425578	0.314058	0.090904
	C5381	C	0.425565	0.191457	0.090889
	C5382	C	0.418049	0.191919	0.023792
	C5383	C	0.478656	0.191480	0.021422
	C5384	C	0.478657	0.313877	0.021379
	C5385	C	0.418100	0.314629	0.023828
	C5386	C	0.493012	0.252855	0.032171
	C5387	C	0.459777	0.043464	0.116086
	C5388	C	0.445264	0.043563	-0.003144
	C5389	C	0.445772	0.962488	-0.003430
	C5390	C	0.459762	0.962483	0.116076
	C5391	C	0.445235	0.962212	-0.003139
	N5392	N	0.382867	0.070183	0.059002
	N5393	N	0.382865	0.935674	0.058998
	N5394	N	0.382813	0.435569	0.058952
	N5395	N	0.382763	0.570028	0.058908
	N5396	N	0.458658	0.435724	0.115755
	N5397	N	0.458653	0.570204	0.115765
	N5398	N	0.458638	0.070362	0.115791
	N5399	N	0.458672	0.935884	0.115755
	O5400	O	0.518770	0.694972	0.163757
	O5401	O	0.518868	0.810803	0.163634
	O5402	O	0.409725	0.695137	0.188830
	O5403	O	0.409753	0.811156	0.188781
	O5404	O	0.409799	0.195105	0.188788
	O5405	O	0.409692	0.311128	0.188851
	O5406	O	0.407517	0.695080	0.166651
	O5407	O	0.407642	0.810949	0.166662
	O5408	O	0.407663	0.195465	0.166789
	O5409	O	0.407557	0.311425	0.166685
	O5410	O	0.520253	0.694932	0.185673
	O5411	O	0.520496	0.810717	0.185787
	O5412	O	0.520248	0.194504	0.185665
	O5413	O	0.520399	0.310714	0.185764
	O5414	O	0.518761	0.195444	0.163693
	O5415	O	0.518864	0.311461	0.163612
	O5416	O	0.472480	0.695073	0.126412
	O5417	O	0.447007	0.694381	0.127220
	O5418	O	0.481618	0.695158	0.225839
	O5419	O	0.481582	0.810934	0.225771
	O5420	O	0.456084	0.695061	0.226033
	O5421	O	0.456153	0.810951	0.226009
	O5422	O	0.447029	0.810301	0.127167
	O5423	O	0.472449	0.811007	0.126436
	O5424	O	0.472306	0.195467	0.126515
	O5425	O	0.446993	0.194873	0.127203
	O5426	O	0.481675	0.194576	0.225845
	O5427	O	0.481691	0.310664	0.225808
	O5428	O	0.456119	0.195016	0.226007
	O5429	O	0.456182	0.310960	0.226020
	O5430	O	0.446942	0.310999	0.127114
	O5431	O	0.472443	0.311447	0.126400
	H5432	H	0.424454	0.645385	0.200788
	H5433	H	0.424539	0.861123	0.200793
	H5434	H	0.424755	0.144901	0.200633
	H5435	H	0.424650	0.361714	0.200748
	H5436	H	0.420215	0.860921	0.153986
	H5437	H	0.420208	0.644785	0.154063
	H5438	H	0.420370	0.362089	0.154095
	H5439	H	0.420144	0.144763	0.153982
	H5440	H	0.531019	0.064850	0.176222
	H5441	H	0.533108	0.064736	0.176559
	H5442	H	0.533095	0.941381	0.176577
	H5443	H	0.531001	0.941432	0.176225
	H5444	H	0.530002	0.064422	0.173950
	H5445	H	0.529970	0.941456	0.173926
	H5446	H	0.395792	0.064820	0.180076
	H5447	H	0.395714	0.941230	0.180046
	H5448	H	0.397544	0.064402	0.179593
	H5449	H	0.397510	0.941086	0.179572
	H5450	H	0.398016	0.064077	0.177452
	H5451	H	0.398015	0.941179	0.177419
	H5452	H	0.396014	0.441334	0.178734
	H5453	H	0.396508	0.441241	0.178446
	H5454	H	0.395279	0.440715	0.178379
	H5455	H	0.533587	0.441349	0.173440
	H5456	H	0.534074	0.440864	0.175101
	H5457	H	0.533019	0.441338	0.175926
	H5458	H	0.396554	0.564407	0.178442
	H5459	H	0.396035	0.564339	0.178729
	H5460	H	0.533028	0.564588	0.175954
	H5461	H	0.534048	0.564469	0.175111
	H5462	H	0.533547	0.564703	0.173476
	H5463	H	0.395278	0.564654	0.178463
	H5464	H	0.507963	0.644722	0.198635
	H5465	H	0.507925	0.860886	0.198491
	H5466	H	0.507988	0.144040	0.198600
	H5467	H	0.507790	0.361194	0.198424
	H5468	H	0.434390	0.644845	0.139873
	H5469	H	0.487472	0.644797	0.138256
	H5470	H	0.487224	0.861063	0.138488
	H5471	H	0.434393	0.860570	0.139809
	H5472	H	0.504041	0.644701	0.151666
	H5473	H	0.503830	0.861132	0.151851
	H5474	H	0.494076	0.644783	0.213039
	H5475	H	0.494019	0.861355	0.212888
	H5476	H	0.461240	0.441501	0.114426
	H5477	H	0.468291	0.441281	0.236266
	H5478	H	0.461160	0.441488	0.117455
	H5479	H	0.458847	0.441343	0.118401
	H5480	H	0.470038	0.441119	0.238289
	H5481	H	0.468717	0.441046	0.237846
	H5482	H	0.468246	0.564457	0.236232
	H5483	H	0.461224	0.564662	0.114418
	H5484	H	0.468671	0.564240	0.237833
	H5485	H	0.469966	0.564621	0.238240
	H5486	H	0.458830	0.564822	0.118372
	H5487	H	0.461118	0.564787	0.117424
	H5488	H	0.494129	0.144105	0.213004
	H5489	H	0.493941	0.361121	0.212820
	H5490	H	0.457038	0.064797	0.116347
	H5491	H	0.458076	0.064272	0.117256
	H5492	H	0.457493	0.064819	0.114617
	H5493	H	0.441202	0.861054	0.214148
	H5494	H	0.441126	0.645095	0.214125
	H5495	H	0.441312	0.361561	0.214095
	H5496	H	0.441379	0.144868	0.213971
	H5497	H	0.434271	0.144676	0.139756
	H5498	H	0.487270	0.145294	0.138406
	H5499	H	0.487309	0.361306	0.138393
	H5500	H	0.434477	0.361644	0.139867
	H5501	H	0.503957	0.145488	0.151698
	H5502	H	0.503986	0.361301	0.151719
	H5503	H	0.468924	0.064555	0.237220
	H5504	H	0.469552	0.064770	0.237545
	H5505	H	0.470458	0.064362	0.237268
	H5506	H	0.458137	0.941682	0.117176
	H5507	H	0.457068	0.941358	0.116266
	H5508	H	0.457555	0.941029	0.114610
	H5509	H	0.468969	0.941848	0.237248
	H5510	H	0.469595	0.940853	0.237611
	H5511	H	0.470473	0.941112	0.237324
	Zn5512	Zn	0.395964	0.679987	0.178133
	Zn5513	Zn	0.395944	0.825526	0.178130
	Zn5514	Zn	0.396005	0.179871	0.178137
	Zn5515	Zn	0.395940	0.325733	0.178126
	Zn5516	Zn	0.469688	0.680260	0.236895
	Zn5517	Zn	0.469739	0.825554	0.236938
	Zn5518	Zn	0.469667	0.180197	0.236921
	Zn5519	Zn	0.469755	0.325477	0.236946
	C5520	C	0.514942	0.752873	0.160619
	C5521	C	0.413606	0.753229	0.191902
	C5522	C	0.423670	0.753224	0.199903
	C5523	C	0.428290	0.692074	0.203704
	C5524	C	0.428337	0.814354	0.203710
	C5525	C	0.413635	0.253186	0.191911
	C5526	C	0.423612	0.253308	0.199967
	C5527	C	0.428388	0.191976	0.203669
	C5528	C	0.428316	0.314628	0.203744
	C5529	C	0.410875	0.752948	0.163374
	C5530	C	0.419427	0.752827	0.154897
	C5531	C	0.423421	0.813947	0.150876
	C5532	C	0.423414	0.691639	0.150921
	C5533	C	0.410890	0.253449	0.163437
	C5534	C	0.419414	0.253387	0.154902
	C5535	C	0.423466	0.314755	0.150925
	C5536	C	0.423349	0.191982	0.150860
	C5537	C	0.532167	0.043454	0.175888
	C5538	C	0.532142	0.962628	0.175897
	C5539	C	0.396460	0.043392	0.179371
	C5540	C	0.396433	0.962371	0.179371
	C5541	C	0.396945	0.043029	0.177221
	C5542	C	0.396913	0.962351	0.177237
	C5543	C	0.396171	0.462601	0.178478
	C5544	C	0.532757	0.462842	0.173580
	C5545	C	0.533266	0.462505	0.175251
	C5546	C	0.396187	0.543229	0.178462
	C5547	C	0.533240	0.543270	0.175274
	C5548	C	0.532727	0.543592	0.173612
	C5549	C	0.517077	0.752881	0.189020
	C5550	C	0.517045	0.252589	0.188999
	C5551	C	0.508659	0.752821	0.197636
	C5552	C	0.504816	0.691753	0.201790
	C5553	C	0.504799	0.813998	0.201709
	C5554	C	0.508698	0.252540	0.197632
	C5555	C	0.504843	0.191171	0.201758
	C5556	C	0.504758	0.313959	0.201660
	C5557	C	0.514966	0.253494	0.160540
	C5558	C	0.476311	0.753002	0.129538
	C5559	C	0.443721	0.752442	0.130475
	C5560	C	0.452239	0.753042	0.222934
	C5561	C	0.500319	0.691696	0.148721
	C5562	C	0.500193	0.814039	0.148842
	C5563	C	0.486333	0.752849	0.137578
	C5564	C	0.435268	0.752670	0.139036
	C5565	C	0.431276	0.691705	0.143052
	C5566	C	0.491110	0.691653	0.141278
	C5567	C	0.490968	0.814065	0.141418
	C5568	C	0.431281	0.813788	0.143013
	C5569	C	0.504945	0.752827	0.152575
	C5570	C	0.484812	0.753035	0.222458
	C5571	C	0.497130	0.691814	0.209794
	C5572	C	0.497102	0.814196	0.209709
	C5573	C	0.493159	0.753066	0.213803
	C5574	C	0.469050	0.462291	0.236143
	C5575	C	0.459632	0.462611	0.117369
	C5576	C	0.469467	0.462427	0.237744
	C5577	C	0.469038	0.543157	0.236135
	C5578	C	0.469440	0.543276	0.237731
	C5579	C	0.459628	0.543491	0.117369
	C5580	C	0.484928	0.252605	0.222490
	C5581	C	0.497194	0.191143	0.209782
	C5582	C	0.497090	0.313982	0.209674
	C5583	C	0.493271	0.252623	0.213825
	C5584	C	0.457854	0.043273	0.116519
	C5585	C	0.476282	0.253433	0.129520
	C5586	C	0.443682	0.252974	0.130437
	C5587	C	0.452299	0.253079	0.222900
	C5588	C	0.500228	0.192302	0.148756
	C5589	C	0.500246	0.314469	0.148761
	C5590	C	0.486301	0.253359	0.137566
	C5591	C	0.435195	0.253087	0.138973
	C5592	C	0.442281	0.753084	0.214862
	C5593	C	0.437573	0.814220	0.211112
	C5594	C	0.437531	0.692027	0.211101
	C5595	C	0.442267	0.253280	0.214904
	C5596	C	0.437548	0.314536	0.211156
	C5597	C	0.437607	0.192041	0.211085
	C5598	C	0.431163	0.191834	0.142963
	C5599	C	0.490982	0.192175	0.141352
	C5600	C	0.491007	0.314448	0.141360
	C5601	C	0.431294	0.314602	0.143025
	C5602	C	0.504958	0.253452	0.152518
	C5603	C	0.469369	0.043256	0.237250
	C5604	C	0.458327	0.043522	0.114822
	C5605	C	0.457890	0.962782	0.116483
	C5606	C	0.469404	0.962543	0.237286
	C5607	C	0.458361	0.962549	0.114820
	N5608	N	0.395982	0.069918	0.178184
	N5609	N	0.395952	0.935466	0.178172
	N5610	N	0.395927	0.435731	0.178139
	N5611	N	0.395918	0.570170	0.178137
	N5612	N	0.469825	0.435728	0.236876
	N5613	N	0.469769	0.570269	0.236854
	N5614	N	0.469705	0.070094	0.236884
	N5615	N	0.469732	0.935588	0.236932
	O5616	O	0.522628	0.694705	0.290815
	O5617	O	0.522479	0.810971	0.290830
	O5618	O	0.420204	0.694781	0.310936
	O5619	O	0.420192	0.811032	0.310940
	O5620	O	0.420218	0.194670	0.310912
	O5621	O	0.420122	0.310879	0.310927
	O5622	O	0.419057	0.694875	0.288230
	O5623	O	0.419135	0.810971	0.288313
	O5624	O	0.419203	0.194936	0.288272
	O5625	O	0.419026	0.310877	0.288232
	O5626	O	0.519533	0.694361	0.311986
	O5627	O	0.519531	0.811008	0.311911
	O5628	O	0.519510	0.194748	0.311920
	O5629	O	0.519499	0.311331	0.311945
	O5630	O	0.522535	0.194797	0.290793
	O5631	O	0.522501	0.310953	0.290816
	O5632	O	0.482659	0.694662	0.248362
	O5633	O	0.457693	0.694761	0.248124
	O5634	O	0.484439	0.694967	0.354714
	O5635	O	0.484530	0.811133	0.354756
	O5636	O	0.460099	0.695250	0.353377
	O5637	O	0.460129	0.811219	0.353341
	O5638	O	0.457771	0.810818	0.248165
	O5639	O	0.482567	0.810857	0.248463
	O5640	O	0.482675	0.194983	0.248371
	O5641	O	0.457669	0.194989	0.248115
	O5642	O	0.484504	0.194568	0.354738
	O5643	O	0.484554	0.310903	0.354780
	O5644	O	0.460114	0.194857	0.353330
	O5645	O	0.460115	0.311179	0.353343
	O5646	O	0.457718	0.311160	0.248127
	O5647	O	0.482615	0.310960	0.248458
	H5648	H	0.432989	0.644864	0.324539
	H5649	H	0.433075	0.861254	0.324476
	H5650	H	0.433007	0.144342	0.324514
	H5651	H	0.433049	0.361663	0.324479
	H5652	H	0.431470	0.861477	0.275391
	H5653	H	0.431547	0.644324	0.275444
	H5654	H	0.431390	0.361547	0.275334
	H5655	H	0.431672	0.144686	0.275515
	H5656	H	0.538886	0.064926	0.292154
	H5657	H	0.527516	0.064505	0.292888
	H5658	H	0.527514	0.941583	0.292882
	H5659	H	0.538898	0.941272	0.292140
	H5660	H	0.548261	0.065006	0.303216
	H5661	H	0.548300	0.941248	0.303268
	H5662	H	0.405733	0.064611	0.298899
	H5663	H	0.405634	0.941393	0.298928
	H5664	H	0.405821	0.064782	0.300105
	H5665	H	0.405771	0.941454	0.300168
	H5666	H	0.407526	0.064266	0.300846
	H5667	H	0.407559	0.941335	0.300890
	H5668	H	0.404454	0.441696	0.298345
	H5669	H	0.404547	0.441767	0.300517
	H5670	H	0.407410	0.440908	0.296833
	H5671	H	0.541363	0.440823	0.305509
	H5672	H	0.534495	0.441110	0.309144
	H5673	H	0.529149	0.441011	0.306632
	H5674	H	0.404642	0.564304	0.300568
	H5675	H	0.404520	0.564482	0.298377
	H5676	H	0.529092	0.565259	0.306666
	H5677	H	0.534498	0.564579	0.309202
	H5678	H	0.541462	0.564059	0.305590
	H5679	H	0.407486	0.564780	0.296861
	H5680	H	0.507058	0.643438	0.324945
	H5681	H	0.507140	0.862483	0.324910
	H5682	H	0.507223	0.143439	0.325000
	H5683	H	0.507045	0.362280	0.324910
	H5684	H	0.445389	0.644455	0.261001
	H5685	H	0.495580	0.643905	0.261905
	H5686	H	0.495474	0.861079	0.261974
	H5687	H	0.445284	0.861339	0.260962
	H5688	H	0.509848	0.644097	0.277174
	H5689	H	0.509704	0.860938	0.277255
	H5690	H	0.495034	0.643730	0.340582
	H5691	H	0.495142	0.862511	0.340565
	H5692	H	0.469259	0.440934	0.235545
	H5693	H	0.474225	0.441343	0.365940
	H5694	H	0.471078	0.441288	0.236037
	H5695	H	0.471355	0.441285	0.237250
	H5696	H	0.471603	0.441024	0.363950
	H5697	H	0.473235	0.440854	0.364135
	H5698	H	0.474217	0.564794	0.365986
	H5699	H	0.469251	0.564498	0.235512
	H5700	H	0.473266	0.564815	0.364134
	H5701	H	0.471593	0.564184	0.363914
	H5702	H	0.471312	0.564649	0.237218
	H5703	H	0.471030	0.564742	0.236084
	H5704	H	0.495158	0.143300	0.340602
	H5705	H	0.495008	0.362309	0.340514
	H5706	H	0.469697	0.064904	0.236176
	H5707	H	0.469037	0.064696	0.236397
	H5708	H	0.470520	0.064362	0.236715
	H5709	H	0.447311	0.861472	0.339741
	H5710	H	0.447214	0.644894	0.339821
	H5711	H	0.447218	0.361730	0.339787
	H5712	H	0.447202	0.144441	0.339821
	H5713	H	0.445490	0.144960	0.261053
	H5714	H	0.495653	0.144119	0.261918
	H5715	H	0.495672	0.361133	0.261837
	H5716	H	0.445203	0.361547	0.260871
	H5717	H	0.509874	0.144413	0.277184
	H5718	H	0.509909	0.361218	0.277115
	H5719	H	0.473709	0.064497	0.365003
	H5720	H	0.472624	0.064588	0.364311
	H5721	H	0.470993	0.064367	0.364797
	H5722	H	0.469056	0.941589	0.236423
	H5723	H	0.469701	0.941234	0.236213
	H5724	H	0.470569	0.941204	0.236722
	H5725	H	0.473644	0.940711	0.364990
	H5726	H	0.472647	0.941263	0.364302
	H5727	H	0.470968	0.941160	0.364799
	Zn5728	Zn	0.407349	0.680209	0.299441
	Zn5729	Zn	0.407246	0.825719	0.299476
	Zn5730	Zn	0.407300	0.180281	0.299419
	Zn5731	Zn	0.407195	0.325683	0.299420
	Zn5732	Zn	0.472238	0.680323	0.365562
	Zn5733	Zn	0.472224	0.825195	0.365555
	Zn5734	Zn	0.472225	0.180285	0.365580
	Zn5735	Zn	0.472273	0.325386	0.365556
	C5736	C	0.519195	0.752682	0.287314
	C5737	C	0.423576	0.752929	0.314433
	C5738	C	0.432165	0.753024	0.323594
	C5739	C	0.436161	0.691835	0.327929
	C5740	C	0.436210	0.814247	0.327907
	C5741	C	0.423538	0.252844	0.314422
	C5742	C	0.432181	0.252960	0.323558
	C5743	C	0.436182	0.191576	0.327895
	C5744	C	0.436207	0.314389	0.327882
	C5745	C	0.422326	0.752972	0.284932
	C5746	C	0.430674	0.752974	0.276268
	C5747	C	0.434551	0.814333	0.272179
	C5748	C	0.434591	0.691493	0.272206
	C5749	C	0.422363	0.252998	0.284940
	C5750	C	0.430737	0.253086	0.276317
	C5751	C	0.434541	0.314507	0.272184
	C5752	C	0.434703	0.191787	0.272281
	C5753	C	0.533634	0.043408	0.295284
	C5754	C	0.533634	0.962497	0.295274
	C5755	C	0.406179	0.043461	0.299489
	C5756	C	0.406153	0.962549	0.299524
	C5757	C	0.407907	0.043300	0.300224
	C5758	C	0.407911	0.962495	0.300266
	C5759	C	0.405247	0.462840	0.299451
	C5760	C	0.539488	0.462307	0.303003
	C5761	C	0.532609	0.462306	0.306633
	C5762	C	0.405279	0.543162	0.299452
	C5763	C	0.532597	0.543545	0.306652
	C5764	C	0.539528	0.543215	0.303044
	C5765	C	0.516104	0.752786	0.315170
	C5766	C	0.516079	0.252997	0.315172
	C5767	C	0.507965	0.752963	0.324040
	C5768	C	0.504370	0.691113	0.328405
	C5769	C	0.504441	0.814917	0.328390
	C5770	C	0.507931	0.252846	0.324032
	C5771	C	0.504472	0.190944	0.328442
	C5772	C	0.504380	0.314641	0.328395
	C5773	C	0.519175	0.252856	0.287293
	C5774	C	0.486018	0.752700	0.251888
	C5775	C	0.454476	0.752828	0.251444
	C5776	C	0.456722	0.753232	0.349866
	C5777	C	0.506676	0.691089	0.273755
	C5778	C	0.506607	0.813834	0.273796
	C5779	C	0.494745	0.752552	0.260969
	C5780	C	0.446102	0.752880	0.260062
	C5781	C	0.442255	0.691525	0.264190
	C5782	C	0.498791	0.691106	0.265272
	C5783	C	0.498708	0.813906	0.265314
	C5784	C	0.442215	0.814256	0.264158
	C5785	C	0.510657	0.752504	0.278104
	C5786	C	0.487337	0.753077	0.351082
	C5787	C	0.497708	0.691247	0.337094
	C5788	C	0.497774	0.814965	0.337077
	C5789	C	0.494480	0.753165	0.341605
	C5790	C	0.473406	0.462665	0.366252
	C5791	C	0.470851	0.462663	0.236721
	C5792	C	0.472432	0.462359	0.364446
	C5793	C	0.473387	0.543340	0.366267
	C5794	C	0.472438	0.543287	0.364451
	C5795	C	0.470816	0.543410	0.236719
	C5796	C	0.487340	0.252755	0.351088
	C5797	C	0.497803	0.190951	0.337133
	C5798	C	0.497716	0.314633	0.337081
	C5799	C	0.494507	0.252820	0.341628
	C5800	C	0.469471	0.043578	0.236463
	C5801	C	0.486052	0.252899	0.251896
	C5802	C	0.454476	0.253125	0.251454
	C5803	C	0.456743	0.253008	0.349835
	C5804	C	0.506661	0.191454	0.273795
	C5805	C	0.506679	0.314139	0.273747
	C5806	C	0.494729	0.252704	0.261005
	C5807	C	0.446161	0.253207	0.260133
	C5808	C	0.448084	0.753151	0.340728
	C5809	C	0.444097	0.814371	0.336384
	C5810	C	0.444043	0.691836	0.336414
	C5811	C	0.448131	0.253060	0.340671
	C5812	C	0.444094	0.314542	0.336365
	C5813	C	0.444070	0.191563	0.336380
	C5814	C	0.442343	0.191824	0.264245
	C5815	C	0.498784	0.191330	0.265304
	C5816	C	0.498796	0.314093	0.265262
	C5817	C	0.442183	0.314493	0.264144
	C5818	C	0.510614	0.252856	0.278123
	C5819	C	0.472962	0.043051	0.364888
	C5820	C	0.470282	0.043160	0.236975
	C5821	C	0.469475	0.962476	0.236474
	C5822	C	0.472958	0.962044	0.364910
	C5823	C	0.470295	0.962540	0.236980
	N5824	N	0.407266	0.070270	0.299417
	N5825	N	0.407251	0.935759	0.299434
	N5826	N	0.407235	0.435766	0.299404
	N5827	N	0.407325	0.570251	0.299422
	N5828	N	0.472313	0.435715	0.365566
	N5829	N	0.472299	0.570279	0.365552
	N5830	N	0.472355	0.070068	0.365588
	N5831	N	0.472349	0.935478	0.365612
	O5832	O	0.461000	0.694905	0.430088
	O5833	O	0.461027	0.811718	0.430036
	O5834	O	0.417280	0.694348	0.442600
	O5835	O	0.417126	0.811230	0.442638
	O5836	O	0.417317	0.194666	0.442553
	O5837	O	0.417272	0.311686	0.442554
	O5838	O	0.421923	0.694726	0.417155
	O5839	O	0.421880	0.810972	0.417167
	O5840	O	0.421990	0.194847	0.417248
	O5841	O	0.421984	0.311031	0.417252
	O5842	O	0.456322	0.694684	0.455519
	O5843	O	0.456240	0.810966	0.455440
	O5844	O	0.456282	0.194672	0.455456
	O5845	O	0.456254	0.311182	0.455450
	O5846	O	0.461045	0.193965	0.430080
	O5847	O	0.460946	0.310833	0.430082
	O5848	O	0.479790	0.694480	0.380095
	O5849	O	0.457175	0.694833	0.374482
	O5850	O	0.421175	0.694751	0.498279
	O5851	O	0.421150	0.811409	0.498226
	O5852	O	0.398490	0.694093	0.492658
	O5853	O	0.398413	0.810914	0.492682
	O5854	O	0.457001	0.811359	0.374373
	O5855	O	0.479792	0.811156	0.380059
	O5856	O	0.479705	0.194660	0.380057
	O5857	O	0.457025	0.194668	0.374415
	O5858	O	0.421062	0.194005	0.498209
	O5859	O	0.421231	0.310848	0.498328
	O5860	O	0.398513	0.194957	0.492577
	O5861	O	0.398511	0.311882	0.492651
	O5862	O	0.457072	0.311300	0.374421
	O5863	O	0.479824	0.311477	0.380095
	H5864	H	0.411895	0.642435	0.458947
	H5865	H	0.411667	0.862184	0.458867
	H5866	H	0.411728	0.143345	0.458799
	H5867	H	0.411822	0.363475	0.458859
	H5868	H	0.432640	0.862746	0.403054
	H5869	H	0.432524	0.643458	0.402991
	H5870	H	0.432539	0.362312	0.403053
	H5871	H	0.432770	0.143730	0.403130
	H5872	H	0.467685	0.064233	0.441040
	H5873	H	0.464770	0.064630	0.442708
	H5874	H	0.464752	0.941026	0.442749
	H5875	H	0.467685	0.940996	0.441086
	H5876	H	0.472245	0.064954	0.442946
	H5877	H	0.472185	0.941394	0.442919
	H5878	H	0.407530	0.064721	0.426127
	H5879	H	0.407516	0.941467	0.426206
	H5880	H	0.406730	0.064668	0.428251
	H5881	H	0.406702	0.941174	0.428290
	H5882	H	0.409094	0.064871	0.430544
	H5883	H	0.409135	0.941322	0.430593
	H5884	H	0.404395	0.440951	0.428286
	H5885	H	0.406740	0.441373	0.431770
	H5886	H	0.407411	0.441200	0.423815
	H5887	H	0.470190	0.441146	0.440325
	H5888	H	0.473822	0.440833	0.444715
	H5889	H	0.472029	0.440894	0.448221
	H5890	H	0.406754	0.564710	0.431764
	H5891	H	0.404378	0.564730	0.428318
	H5892	H	0.472044	0.564483	0.448204
	H5893	H	0.473867	0.564707	0.444688
	H5894	H	0.470188	0.564587	0.440334
	H5895	H	0.407392	0.564272	0.423766
	H5896	H	0.445723	0.643301	0.469716
	H5897	H	0.445458	0.862594	0.469555
	H5898	H	0.445667	0.143291	0.469662
	H5899	H	0.445363	0.362308	0.469498
	H5900	H	0.444626	0.643575	0.387440
	H5901	H	0.474179	0.643122	0.396317
	H5902	H	0.474482	0.862805	0.396350
	H5903	H	0.444725	0.862549	0.387473
	H5904	H	0.466244	0.643403	0.413846
	H5905	H	0.466542	0.862928	0.413825
	H5906	H	0.433585	0.643501	0.485246
	H5907	H	0.433338	0.862373	0.485117
	H5908	H	0.473275	0.441438	0.367015
	H5909	H	0.406000	0.441271	0.502229
	H5910	H	0.470963	0.441152	0.366798
	H5911	H	0.470231	0.441124	0.365415
	H5912	H	0.401047	0.441218	0.509456
	H5913	H	0.400528	0.441303	0.505344
	H5914	H	0.405959	0.564676	0.502227
	H5915	H	0.473223	0.564592	0.367062
	H5916	H	0.400572	0.564759	0.505360
	H5917	H	0.401043	0.564778	0.509471
	H5918	H	0.470319	0.564189	0.365380
	H5919	H	0.470961	0.564854	0.366760
	H5920	H	0.433579	0.143383	0.485249
	H5921	H	0.433282	0.362048	0.485095
	H5922	H	0.472249	0.064229	0.366910
	H5923	H	0.473521	0.064599	0.366523
	H5924	H	0.470800	0.064623	0.365953
	H5925	H	0.403724	0.862484	0.476350
	H5926	H	0.403956	0.642554	0.476464
	H5927	H	0.403907	0.363345	0.476382
	H5928	H	0.403815	0.143551	0.476330
	H5929	H	0.444820	0.143870	0.387508
	H5930	H	0.474438	0.142930	0.396315
	H5931	H	0.474202	0.362681	0.396274
	H5932	H	0.444608	0.362497	0.387418
	H5933	H	0.466551	0.142591	0.413828
	H5934	H	0.466305	0.362647	0.413809
	H5935	H	0.408826	0.064591	0.506542
	H5936	H	0.407161	0.064977	0.504750
	H5937	H	0.403726	0.065151	0.505262
	H5938	H	0.473482	0.941428	0.366566
	H5939	H	0.472265	0.941341	0.366897
	H5940	H	0.470812	0.941162	0.365961
	H5941	H	0.408920	0.941883	0.506531
	H5942	H	0.407254	0.941243	0.504783
	H5943	H	0.403781	0.941332	0.505277
	Zn5944	Zn	0.409759	0.680339	0.428043
	Zn5945	Zn	0.409707	0.825400	0.428068
	Zn5946	Zn	0.409685	0.180356	0.428031
	Zn5947	Zn	0.409712	0.325541	0.428053
	Zn5948	Zn	0.406076	0.680085	0.507154
	Zn5949	Zn	0.406069	0.825674	0.507162
	Zn5950	Zn	0.405921	0.180273	0.507134
	Zn5951	Zn	0.406099	0.325853	0.507174
	C5952	C	0.462040	0.753219	0.425727
	C5953	C	0.416147	0.752610	0.446952
	C5954	C	0.412393	0.752333	0.457860
	C5955	C	0.410113	0.690212	0.462832
	C5956	C	0.409992	0.814498	0.462775
	C5957	C	0.416227	0.253192	0.446875
	C5958	C	0.412432	0.253422	0.457769
	C5959	C	0.410081	0.191237	0.462709
	C5960	C	0.410103	0.315595	0.462743
	C5961	C	0.424771	0.752930	0.413515
	C5962	C	0.431973	0.753118	0.404079
	C5963	C	0.435292	0.815082	0.399587
	C5964	C	0.435234	0.691213	0.399563
	C5965	C	0.424835	0.252953	0.413590
	C5966	C	0.431980	0.253011	0.404116
	C5967	C	0.435230	0.314777	0.399581
	C5968	C	0.435357	0.191359	0.399627
	C5969	C	0.466789	0.043158	0.442622
	C5970	C	0.466780	0.962374	0.442634
	C5971	C	0.407834	0.043409	0.427453
	C5972	C	0.407841	0.962379	0.427471
	C5973	C	0.410217	0.043293	0.429781
	C5974	C	0.410246	0.962398	0.429794
	C5975	C	0.406713	0.462413	0.429510
	C5976	C	0.468095	0.462622	0.441524
	C5977	C	0.471739	0.462228	0.445957
	C5978	C	0.406704	0.543489	0.429527
	C5979	C	0.471761	0.543351	0.445967
	C5980	C	0.468076	0.543154	0.441532
	C5981	C	0.453461	0.752881	0.459154
	C5982	C	0.453454	0.252892	0.459129
	C5983	C	0.446245	0.752966	0.468602
	C5984	C	0.442992	0.691020	0.473134
	C5985	C	0.442849	0.814884	0.473046
	C5986	C	0.446256	0.252746	0.468582
	C5987	C	0.442983	0.190933	0.473112
	C5988	C	0.442799	0.314626	0.473016
	C5989	C	0.462059	0.252443	0.425758
	C5990	C	0.478730	0.752851	0.384420
	C5991	C	0.453642	0.753069	0.377659
	C5992	C	0.399513	0.752561	0.488344
	C5993	C	0.468033	0.690942	0.409922
	C5994	C	0.468196	0.815102	0.409916
	C5995	C	0.474917	0.752844	0.395279
	C5996	C	0.445518	0.753077	0.386545
	C5997	C	0.441931	0.691228	0.390902
	C5998	C	0.472502	0.690891	0.400217
	C5999	C	0.472671	0.814993	0.400220
	C6000	C	0.441997	0.814960	0.390926
	C6001	C	0.465802	0.753065	0.414861
	C6002	C	0.424589	0.753022	0.495025
	C6003	C	0.436297	0.691110	0.481801
	C6004	C	0.436164	0.814828	0.481725
	C6005	C	0.432752	0.752964	0.486170
	C6006	C	0.407593	0.462419	0.504214
	C6007	C	0.471105	0.462457	0.365960
	C6008	C	0.402138	0.462500	0.507345
	C6009	C	0.407582	0.543353	0.504218
	C6010	C	0.402134	0.543324	0.507357
	C6011	C	0.471100	0.543333	0.365937
	C6012	C	0.424574	0.252435	0.495052
	C6013	C	0.436305	0.190842	0.481795
	C6014	C	0.436124	0.314525	0.481704
	C6015	C	0.432767	0.252599	0.486170
	C6016	C	0.472760	0.043366	0.366420
	C6017	C	0.478714	0.253058	0.384422
	C6018	C	0.453590	0.253029	0.377617
	C6019	C	0.399569	0.253525	0.488275
	C6020	C	0.468215	0.190506	0.409939
	C6021	C	0.468074	0.314821	0.409923
	C6022	C	0.474955	0.252886	0.395304
	C6023	C	0.445448	0.253197	0.386509
	C6024	C	0.403234	0.752524	0.477447
	C6025	C	0.405518	0.814607	0.472478
	C6026	C	0.405628	0.690308	0.472538
	C6027	C	0.403295	0.253541	0.477359
	C6028	C	0.405652	0.315706	0.472457
	C6029	C	0.405605	0.191240	0.472419
	C6030	C	0.442019	0.191420	0.390934
	C6031	C	0.472690	0.190609	0.400244
	C6032	C	0.472558	0.314998	0.400226
	C6033	C	0.441892	0.314933	0.390884
	C6034	C	0.465845	0.252584	0.414880
	C6035	C	0.407430	0.043403	0.506029
	C6036	C	0.471296	0.043303	0.365440
	C6037	C	0.472752	0.962806	0.366429
	C6038	C	0.407484	0.962706	0.506035
	C6039	C	0.471285	0.962394	0.365445
	N6040	N	0.409818	0.070111	0.428050
	N6041	N	0.409833	0.935508	0.428082
	N6042	N	0.409849	0.435618	0.428036
	N6043	N	0.409851	0.570131	0.428028
	N6044	N	0.406023	0.435680	0.507151
	N6045	N	0.406003	0.570142	0.507153
	N6046	N	0.405856	0.070051	0.507138
	N6047	N	0.405914	0.935503	0.507158
	O6048	O	0.457765	0.694810	0.561978
	O6049	O	0.457766	0.810857	0.562014
	O6050	O	0.355458	0.695084	0.581929
	O6051	O	0.355539	0.811110	0.581858
	O6052	O	0.355653	0.194983	0.581877
	O6053	O	0.355507	0.311336	0.581912
	O6054	O	0.358677	0.694611	0.560813
	O6055	O	0.358622	0.811093	0.560751
	O6056	O	0.358650	0.195377	0.560702
	O6057	O	0.358671	0.312126	0.560740
	O6058	O	0.458575	0.694708	0.584613
	O6059	O	0.458687	0.810618	0.584707
	O6060	O	0.458729	0.194254	0.584752
	O6061	O	0.458522	0.310454	0.584655
	O6062	O	0.457809	0.194368	0.561957
	O6063	O	0.457718	0.310425	0.561975
	O6064	O	0.418143	0.695041	0.519422
	O6065	O	0.393698	0.694059	0.517934
	O6066	O	0.420049	0.694964	0.624804
	O6067	O	0.420126	0.811002	0.624830
	O6068	O	0.395126	0.695084	0.624485
	O6069	O	0.395140	0.810952	0.624534
	O6070	O	0.393619	0.810539	0.517854
	O6071	O	0.418135	0.811196	0.519435
	O6072	O	0.418065	0.194170	0.519423
	O6073	O	0.393810	0.195427	0.518047
	O6074	O	0.420073	0.194297	0.624850
	O6075	O	0.420022	0.310350	0.624819
	O6076	O	0.395118	0.195361	0.624492
	O6077	O	0.395241	0.311515	0.624434
	O6078	O	0.393802	0.311802	0.518015
	O6079	O	0.418233	0.310395	0.519388
	H6080	H	0.368183	0.645207	0.595527
	H6081	H	0.368271	0.861315	0.595511
	H6082	H	0.368345	0.144986	0.595496
	H6083	H	0.368194	0.362208	0.595575
	H6084	H	0.371079	0.862187	0.547673
	H6085	H	0.371014	0.643353	0.547731
	H6086	H	0.371014	0.363257	0.547709
	H6087	H	0.370995	0.144172	0.547676
	H6088	H	0.470214	0.064691	0.570861
	H6089	H	0.468014	0.064338	0.571942
	H6090	H	0.467933	0.940732	0.571902
	H6091	H	0.470219	0.941395	0.570876
	H6092	H	0.473379	0.064542	0.572479
	H6093	H	0.473400	0.941534	0.572480
	H6094	H	0.341195	0.064151	0.578567
	H6095	H	0.341117	0.941008	0.578544
	H6096	H	0.350103	0.063962	0.577230
	H6097	H	0.350039	0.940868	0.577160
	H6098	H	0.353865	0.064406	0.567290
	H6099	H	0.353832	0.940730	0.567268
	H6100	H	0.343820	0.441481	0.571113
	H6101	H	0.344994	0.441204	0.570314
	H6102	H	0.342042	0.441340	0.570364
	H6103	H	0.472993	0.441050	0.573582
	H6104	H	0.471444	0.441586	0.575508
	H6105	H	0.469425	0.440962	0.575313
	H6106	H	0.344911	0.564349	0.570322
	H6107	H	0.343818	0.564278	0.571065
	H6108	H	0.469448	0.564744	0.575303
	H6109	H	0.471456	0.564734	0.575513
	H6110	H	0.472989	0.564772	0.573589
	H6111	H	0.342012	0.564578	0.570416
	H6112	H	0.446313	0.645070	0.597501
	H6113	H	0.446344	0.860339	0.597554
	H6114	H	0.446299	0.143726	0.597527
	H6115	H	0.446145	0.360750	0.597483
	H6116	H	0.383067	0.643244	0.532111
	H6117	H	0.430874	0.644700	0.533025
	H6118	H	0.430771	0.860823	0.533140
	H6119	H	0.383067	0.861817	0.532073
	H6120	H	0.445044	0.644679	0.548339
	H6121	H	0.444933	0.860488	0.548501
	H6122	H	0.432533	0.645096	0.611976
	H6123	H	0.432556	0.860395	0.612047
	H6124	H	0.410433	0.441024	0.504125
	H6125	H	0.407492	0.441569	0.636259
	H6126	H	0.411081	0.441257	0.509766
	H6127	H	0.407076	0.441316	0.512081
	H6128	H	0.408622	0.440892	0.636262
	H6129	H	0.408171	0.441114	0.636555
	H6130	H	0.407447	0.564693	0.636259
	H6131	H	0.410412	0.564553	0.504091
	H6132	H	0.408136	0.564399	0.636532
	H6133	H	0.408589	0.564510	0.636242
	H6134	H	0.407138	0.564397	0.512112
	H6135	H	0.411076	0.564380	0.509784
	H6136	H	0.432523	0.143637	0.612030
	H6137	H	0.432339	0.360619	0.611977
	H6138	H	0.405129	0.064390	0.509700
	H6139	H	0.407668	0.064656	0.509316
	H6140	H	0.402860	0.064430	0.507341
	H6141	H	0.382421	0.861352	0.610861
	H6142	H	0.382335	0.645109	0.610837
	H6143	H	0.382303	0.362269	0.610931
	H6144	H	0.382446	0.145045	0.610858
	H6145	H	0.383177	0.144357	0.532160
	H6146	H	0.430849	0.143678	0.533049
	H6147	H	0.430883	0.360616	0.533018
	H6148	H	0.383186	0.363347	0.532163
	H6149	H	0.444963	0.143807	0.548403
	H6150	H	0.444964	0.360521	0.548373
	H6151	H	0.408696	0.065109	0.637979
	H6152	H	0.410206	0.064651	0.636854
	H6153	H	0.409600	0.064547	0.634577
	H6154	H	0.407684	0.940841	0.509358
	H6155	H	0.405133	0.940907	0.509672
	H6156	H	0.402922	0.941738	0.507303
	H6157	H	0.408748	0.941435	0.637996
	H6158	H	0.410255	0.941940	0.636881
	H6159	H	0.409668	0.941420	0.634590
	Zn6160	Zn	0.343471	0.680108	0.569602
	Zn6161	Zn	0.343414	0.825285	0.569544
	Zn6162	Zn	0.343584	0.180194	0.569607
	Zn6163	Zn	0.343446	0.325502	0.569580
	Zn6164	Zn	0.408005	0.680434	0.636002
	Zn6165	Zn	0.408042	0.825617	0.635996
	Zn6166	Zn	0.407891	0.180370	0.635990
	Zn6167	Zn	0.408035	0.325496	0.636007
	C6168	C	0.454437	0.752820	0.558485
	C6169	C	0.358836	0.753128	0.585410
	C6170	C	0.367363	0.753309	0.594594
	C6171	C	0.371334	0.692225	0.598937
	C6172	C	0.371378	0.814398	0.598941
	C6173	C	0.358921	0.253269	0.585396
	C6174	C	0.367438	0.253591	0.594614
	C6175	C	0.371448	0.192108	0.598936
	C6176	C	0.371351	0.315100	0.598981
	C6177	C	0.362064	0.752844	0.557530
	C6178	C	0.370223	0.752729	0.548667
	C6179	C	0.373754	0.814469	0.544256
	C6180	C	0.373735	0.690931	0.544275
	C6181	C	0.362081	0.253779	0.557497
	C6182	C	0.370254	0.253775	0.548658
	C6183	C	0.373779	0.315680	0.544293
	C6184	C	0.373780	0.191852	0.544278
	C6185	C	0.469469	0.043329	0.571956
	C6186	C	0.469452	0.962251	0.571944
	C6187	C	0.345066	0.043042	0.575719
	C6188	C	0.344996	0.962300	0.575689
	C6189	C	0.348888	0.043174	0.565660
	C6190	C	0.348830	0.962243	0.565660
	C6191	C	0.344132	0.462523	0.570408
	C6192	C	0.472011	0.462499	0.572980
	C6193	C	0.470472	0.462528	0.574901
	C6194	C	0.344116	0.543253	0.570416
	C6195	C	0.470485	0.543250	0.574912
	C6196	C	0.472004	0.543567	0.572971
	C6197	C	0.455415	0.752676	0.587987
	C6198	C	0.455421	0.252293	0.588057
	C6199	C	0.447105	0.752771	0.596655
	C6200	C	0.443225	0.691788	0.600726
	C6201	C	0.443251	0.813774	0.600760
	C6202	C	0.447080	0.252212	0.596724
	C6203	C	0.443222	0.190734	0.600784
	C6204	C	0.443129	0.313645	0.600763
	C6205	C	0.454403	0.252302	0.558455
	C6206	C	0.421479	0.753063	0.522939
	C6207	C	0.390834	0.752319	0.521550
	C6208	C	0.391790	0.753096	0.620972
	C6209	C	0.441853	0.691620	0.544957
	C6210	C	0.441797	0.813723	0.545047
	C6211	C	0.430018	0.752896	0.532143
	C6212	C	0.383621	0.752430	0.531013
	C6213	C	0.380388	0.690820	0.535572
	C6214	C	0.433999	0.691597	0.536460
	C6215	C	0.433949	0.813902	0.536537
	C6216	C	0.380398	0.814283	0.535548
	C6217	C	0.445813	0.752700	0.549336
	C6218	C	0.423334	0.752958	0.621499
	C6219	C	0.435589	0.691870	0.608767
	C6220	C	0.435615	0.813836	0.608793
	C6221	C	0.431703	0.752891	0.612849
	C6222	C	0.407593	0.462671	0.636041
	C6223	C	0.408250	0.462611	0.509934
	C6224	C	0.408323	0.462285	0.636290
	C6225	C	0.407606	0.543553	0.636022
	C6226	C	0.408305	0.543270	0.636284
	C6227	C	0.408253	0.543270	0.509939
	C6228	C	0.423303	0.252340	0.621536
	C6229	C	0.435563	0.190786	0.608807
	C6230	C	0.435471	0.313659	0.608790
	C6231	C	0.431665	0.252224	0.612901
	C6232	C	0.406251	0.043407	0.508870
	C6233	C	0.421456	0.252185	0.522932
	C6234	C	0.390960	0.253676	0.521676
	C6235	C	0.391843	0.253475	0.620941
	C6236	C	0.441786	0.190738	0.544996
	C6237	C	0.441797	0.313481	0.544970
	C6238	C	0.429964	0.252036	0.532146
	C6239	C	0.383792	0.253813	0.531138
	C6240	C	0.383162	0.753297	0.611808
	C6241	C	0.379209	0.814412	0.607466
	C6242	C	0.379162	0.692195	0.607459
	C6243	C	0.383240	0.253626	0.611787
	C6244	C	0.379185	0.315091	0.607498
	C6245	C	0.379270	0.192203	0.607458
	C6246	C	0.380481	0.191858	0.535616
	C6247	C	0.433946	0.190696	0.536482
	C6248	C	0.433974	0.313466	0.536455
	C6249	C	0.380485	0.315769	0.535632
	C6250	C	0.445767	0.252085	0.549312
	C6251	C	0.409057	0.043515	0.637068
	C6252	C	0.403957	0.043358	0.506520
	C6253	C	0.406264	0.962246	0.508888
	C6254	C	0.409093	0.962678	0.637069
	C6255	C	0.403994	0.962705	0.506517
	N6256	N	0.343486	0.070245	0.569614
	N6257	N	0.343423	0.935683	0.569573
	N6258	N	0.343407	0.435562	0.569615
	N6259	N	0.343376	0.570079	0.569634
	N6260	N	0.408032	0.435654	0.636014
	N6261	N	0.408026	0.570230	0.636003
	N6262	N	0.408000	0.070237	0.635962
	N6263	N	0.408041	0.935701	0.635965
	O6264	O	0.467675	0.694592	0.684326
	O6265	O	0.467537	0.810634	0.684519
	O6266	O	0.359023	0.695141	0.709490
	O6267	O	0.359074	0.811139	0.709502
	O6268	O	0.359140	0.194979	0.709395
	O6269	O	0.359033	0.311218	0.709518
	O6270	O	0.357654	0.694906	0.687369
	O6271	O	0.357573	0.810592	0.687301
	O6272	O	0.357658	0.195038	0.687410
	O6273	O	0.357496	0.311147	0.687353
	O6274	O	0.469740	0.694912	0.706557
	O6275	O	0.469612	0.811153	0.706540
	O6276	O	0.469660	0.194826	0.706637
	O6277	O	0.469669	0.310791	0.706700
	O6278	O	0.467532	0.194719	0.684492
	O6279	O	0.467622	0.310713	0.684416
	O6280	O	0.421573	0.695123	0.646897
	O6281	O	0.396243	0.695095	0.647247
	O6282	O	0.430610	0.694822	0.746349
	O6283	O	0.430660	0.810914	0.746398
	O6284	O	0.405124	0.695289	0.746979
	O6285	O	0.405173	0.811401	0.746988
	O6286	O	0.396155	0.811000	0.647164
	O6287	O	0.421618	0.811131	0.646932
	O6288	O	0.421547	0.194611	0.646875
	O6289	O	0.396159	0.195619	0.647186
	O6290	O	0.430633	0.194489	0.746441
	O6291	O	0.430460	0.310219	0.746351
	O6292	O	0.405052	0.195052	0.747096
	O6293	O	0.405140	0.310960	0.746988
	O6294	O	0.396152	0.311405	0.647178
	O6295	O	0.421631	0.310483	0.646858
	H6296	H	0.373702	0.644889	0.721628
	H6297	H	0.373873	0.861387	0.721520
	H6298	H	0.373879	0.144614	0.721465
	H6299	H	0.373859	0.361497	0.721456
	H6300	H	0.370117	0.861081	0.674528
	H6301	H	0.370003	0.644966	0.674497
	H6302	H	0.370043	0.361065	0.674625
	H6303	H	0.369937	0.145458	0.674515
	H6304	H	0.479827	0.064422	0.693148
	H6305	H	0.478591	0.064727	0.694773
	H6306	H	0.478583	0.940875	0.694726
	H6307	H	0.479847	0.941328	0.693133
	H6308	H	0.482911	0.064510	0.693443
	H6309	H	0.482988	0.941436	0.693379
	H6310	H	0.346076	0.064714	0.697947
	H6311	H	0.346050	0.941479	0.697911
	H6312	H	0.345325	0.064623	0.697714
	H6313	H	0.345283	0.941120	0.697699
	H6314	H	0.344618	0.064391	0.698344
	H6315	H	0.344522	0.941209	0.698316
	H6316	H	0.346099	0.441763	0.696473
	H6317	H	0.344047	0.441637	0.696730
	H6318	H	0.347994	0.441409	0.698423
	H6319	H	0.481691	0.441331	0.693431
	H6320	H	0.483395	0.441501	0.695011
	H6321	H	0.482871	0.441482	0.696487
	H6322	H	0.344062	0.564430	0.696647
	H6323	H	0.346139	0.565291	0.696430
	H6324	H	0.482862	0.564234	0.696481
	H6325	H	0.483419	0.564752	0.694982
	H6326	H	0.481699	0.565032	0.693409
	H6327	H	0.347993	0.565172	0.698397
	H6328	H	0.457080	0.644458	0.719222
	H6329	H	0.457180	0.861554	0.719310
	H6330	H	0.457149	0.144529	0.719368
	H6331	H	0.457159	0.360726	0.719443
	H6332	H	0.383777	0.645013	0.660026
	H6333	H	0.436284	0.644731	0.658988
	H6334	H	0.436375	0.861134	0.658966
	H6335	H	0.383858	0.861147	0.660033
	H6336	H	0.452787	0.644758	0.672472
	H6337	H	0.452863	0.860870	0.672450
	H6338	H	0.443102	0.644393	0.733548
	H6339	H	0.443140	0.861542	0.733622
	H6340	H	0.407412	0.441522	0.635830
	H6341	H	0.418963	0.441626	0.756593
	H6342	H	0.408034	0.441191	0.635495
	H6343	H	0.408565	0.441647	0.635673
	H6344	H	0.417720	0.441102	0.758184
	H6345	H	0.417654	0.441514	0.757203
	H6346	H	0.418974	0.564684	0.756566
	H6347	H	0.407432	0.564982	0.635826
	H6348	H	0.417629	0.564681	0.757202
	H6349	H	0.417753	0.564814	0.758184
	H6350	H	0.408526	0.564454	0.635659
	H6351	H	0.408040	0.564734	0.635435
	H6352	H	0.443100	0.144345	0.733652
	H6353	H	0.443125	0.360693	0.733740
	H6354	H	0.405658	0.064165	0.635487
	H6355	H	0.406114	0.064327	0.637117
	H6356	H	0.407706	0.064482	0.633981
	H6357	H	0.390393	0.861686	0.734977
	H6358	H	0.390221	0.644827	0.735097
	H6359	H	0.390297	0.361486	0.734984
	H6360	H	0.390338	0.144531	0.734995
	H6361	H	0.383768	0.145463	0.660069
	H6362	H	0.436266	0.144161	0.658963
	H6363	H	0.436421	0.360920	0.658875
	H6364	H	0.383882	0.361184	0.660145
	H6365	H	0.452716	0.144291	0.672505
	H6366	H	0.452870	0.360877	0.672412
	H6367	H	0.416783	0.065151	0.757459
	H6368	H	0.417373	0.065106	0.758926
	H6369	H	0.419774	0.064854	0.759397
	H6370	H	0.406126	0.940918	0.637171
	H6371	H	0.405687	0.941199	0.635436
	H6372	H	0.407763	0.940767	0.633969
	H6373	H	0.416742	0.941617	0.757545
	H6374	H	0.417417	0.941585	0.758952
	H6375	H	0.419804	0.941345	0.759360
	Zn6376	Zn	0.345565	0.680458	0.698523
	Zn6377	Zn	0.345560	0.825780	0.698538
	Zn6378	Zn	0.345543	0.180281	0.698558
	Zn6379	Zn	0.345538	0.325942	0.698577
	Zn6380	Zn	0.418906	0.680408	0.757717
	Zn6381	Zn	0.418895	0.825960	0.757767
	Zn6382	Zn	0.418853	0.180505	0.757750
	Zn6383	Zn	0.418846	0.325979	0.757763
	C6384	C	0.463770	0.752693	0.681309
	C6385	C	0.362874	0.753107	0.712638
	C6386	C	0.372776	0.753094	0.720752
	C6387	C	0.377406	0.691928	0.724599
	C6388	C	0.377503	0.814350	0.724536
	C6389	C	0.362925	0.253088	0.712578
	C6390	C	0.372891	0.253054	0.720662
	C6391	C	0.377554	0.191674	0.724477
	C6392	C	0.377543	0.314419	0.724471
	C6393	C	0.360827	0.752805	0.683986
	C6394	C	0.369182	0.752997	0.675346
	C6395	C	0.373135	0.814179	0.671289
	C6396	C	0.373069	0.691915	0.671277
	C6397	C	0.360855	0.253159	0.684096
	C6398	C	0.369225	0.253294	0.675447
	C6399	C	0.373116	0.314351	0.671378
	C6400	C	0.373061	0.192293	0.671316
	C6401	C	0.479731	0.043349	0.694283
	C6402	C	0.479736	0.962377	0.694269
	C6403	C	0.345646	0.043414	0.698016
	C6404	C	0.345642	0.962540	0.697984
	C6405	C	0.344906	0.043231	0.698626
	C6406	C	0.344891	0.962405	0.698635
	C6407	C	0.345197	0.462937	0.697069
	C6408	C	0.480898	0.462424	0.694007
	C6409	C	0.482646	0.462697	0.695593
	C6410	C	0.345208	0.543545	0.697033
	C6411	C	0.482630	0.543365	0.695581
	C6412	C	0.480917	0.543454	0.693982
	C6413	C	0.466424	0.752926	0.709851
	C6414	C	0.466376	0.252734	0.709961
	C6415	C	0.457947	0.752970	0.718408
	C6416	C	0.453967	0.691580	0.722414
	C6417	C	0.454013	0.814440	0.722468
	C6418	C	0.457907	0.252627	0.718519
	C6419	C	0.453997	0.191419	0.722558
	C6420	C	0.454007	0.313777	0.722608
	C6421	C	0.463728	0.252707	0.681338
	C6422	C	0.425438	0.753044	0.650037
	C6423	C	0.392957	0.753043	0.650525
	C6424	C	0.401286	0.753397	0.743877
	C6425	C	0.449094	0.691664	0.669477
	C6426	C	0.449140	0.813981	0.669477
	C6427	C	0.435340	0.752895	0.658177
	C6428	C	0.384598	0.753036	0.659168
	C6429	C	0.380711	0.691850	0.663249
	C6430	C	0.439952	0.691622	0.661988
	C6431	C	0.440004	0.814074	0.661984
	C6432	C	0.380778	0.814268	0.663260
	C6433	C	0.453794	0.752796	0.673271
	C6434	C	0.433888	0.752873	0.743061
	C6435	C	0.446218	0.691578	0.730368
	C6436	C	0.446250	0.814451	0.730418
	C6437	C	0.442302	0.752969	0.734450
	C6438	C	0.419314	0.462980	0.757080
	C6439	C	0.408242	0.462675	0.635668
	C6440	C	0.418020	0.462489	0.757703
	C6441	C	0.419335	0.543634	0.757071
	C6442	C	0.418030	0.543522	0.757705
	C6443	C	0.408232	0.543266	0.635665
	C6444	C	0.433792	0.252386	0.743089
	C6445	C	0.446202	0.191377	0.730482
	C6446	C	0.446221	0.313654	0.730540
	C6447	C	0.442219	0.252505	0.734514
	C6448	C	0.406437	0.043121	0.636234
	C6449	C	0.425417	0.252488	0.649998
	C6450	C	0.392973	0.253511	0.650559
	C6451	C	0.401256	0.253009	0.743924
	C6452	C	0.449105	0.191309	0.669433
	C6453	C	0.449197	0.313919	0.669373
	C6454	C	0.435370	0.252581	0.658077
	C6455	C	0.384671	0.253419	0.659252
	C6456	C	0.391280	0.753300	0.735836
	C6457	C	0.386670	0.814595	0.732006
	C6458	C	0.386570	0.691995	0.732071
	C6459	C	0.391333	0.252991	0.735805
	C6460	C	0.386670	0.314328	0.731970
	C6461	C	0.386682	0.191701	0.731977
	C6462	C	0.380704	0.192326	0.663281
	C6463	C	0.439978	0.191278	0.661925
	C6464	C	0.440065	0.313852	0.661872
	C6465	C	0.380773	0.314335	0.663345
	C6466	C	0.453817	0.252654	0.673204
	C6467	C	0.417545	0.043774	0.758082
	C6468	C	0.408470	0.043412	0.634745
	C6469	C	0.406455	0.962541	0.636249
	C6470	C	0.417555	0.962899	0.758112
	C6471	C	0.408525	0.962446	0.634733
	N6472	N	0.345483	0.070146	0.698504
	N6473	N	0.345488	0.935667	0.698509
	N6474	N	0.345498	0.435893	0.698541
	N6475	N	0.345521	0.570425	0.698514
	N6476	N	0.418883	0.435818	0.757718
	N6477	N	0.418891	0.570302	0.757712
	N6478	N	0.418904	0.070390	0.757727
	N6479	N	0.418896	0.935912	0.757736
	O6480	O	0.480412	0.695074	0.804289
	O6481	O	0.480485	0.811155	0.804151
	O6482	O	0.370326	0.694891	0.830844
	O6483	O	0.370392	0.810691	0.830859
	O6484	O	0.370496	0.194578	0.830782
	O6485	O	0.370468	0.310731	0.830756
	O6486	O	0.368012	0.695180	0.808870
	O6487	O	0.368095	0.810951	0.808897
	O6488	O	0.367974	0.194608	0.808844
	O6489	O	0.368027	0.310756	0.808807
	O6490	O	0.482734	0.695348	0.826138
	O6491	O	0.482909	0.811207	0.826219
	O6492	O	0.482865	0.194995	0.826237
	O6493	O	0.482942	0.310979	0.826250
	O6494	O	0.480407	0.195009	0.804237
	O6495	O	0.480285	0.311031	0.804306
	O6496	O	0.432714	0.695080	0.768367
	O6497	O	0.407330	0.694552	0.769178
	O6498	O	0.443675	0.695204	0.865894
	O6499	O	0.443475	0.811195	0.865747
	O6500	O	0.418014	0.694608	0.866783
	O6501	O	0.417934	0.810632	0.866856
	O6502	O	0.407189	0.810649	0.769106
	O6503	O	0.432803	0.811157	0.768289
	O6504	O	0.432889	0.194958	0.768176
	O6505	O	0.407161	0.194884	0.769139
	O6506	O	0.443463	0.194838	0.865750
	O6507	O	0.443420	0.310914	0.865763
	O6508	O	0.417993	0.194705	0.866851
	O6509	O	0.417885	0.310642	0.866905
	O6510	O	0.407278	0.310867	0.769218
	O6511	O	0.432764	0.310952	0.768299
	H6512	H	0.385648	0.643986	0.842394
	H6513	H	0.385569	0.860589	0.842487
	H6514	H	0.385731	0.144195	0.842315
	H6515	H	0.385694	0.361107	0.842341
	H6516	H	0.380668	0.861360	0.796140
	H6517	H	0.380604	0.644388	0.796123
	H6518	H	0.380623	0.360895	0.796152
	H6519	H	0.380667	0.144465	0.796218
	H6520	H	0.493386	0.065027	0.814074
	H6521	H	0.493124	0.064574	0.814966
	H6522	H	0.493243	0.941013	0.814940
	H6523	H	0.493401	0.940948	0.814071
	H6524	H	0.494817	0.064791	0.813661
	H6525	H	0.494866	0.941783	0.813668
	H6526	H	0.354423	0.064167	0.818012
	H6527	H	0.354490	0.941275	0.818024
	H6528	H	0.353136	0.064802	0.820070
	H6529	H	0.353145	0.941249	0.820051
	H6530	H	0.355092	0.064597	0.822860
	H6531	H	0.355145	0.940934	0.822863
	H6532	H	0.355642	0.441429	0.819004
	H6533	H	0.354778	0.441623	0.819953
	H6534	H	0.357577	0.440995	0.819276
	H6535	H	0.494329	0.441350	0.813329
	H6536	H	0.495858	0.441242	0.814292
	H6537	H	0.495820	0.440938	0.815396
	H6538	H	0.354704	0.564232	0.819959
	H6539	H	0.355584	0.564587	0.818978
	H6540	H	0.495823	0.564506	0.815494
	H6541	H	0.495976	0.564329	0.814345
	H6542	H	0.494402	0.564636	0.813410
	H6543	H	0.357555	0.565018	0.819237
	H6544	H	0.470278	0.645191	0.838880
	H6545	H	0.470132	0.861627	0.838823
	H6546	H	0.470194	0.145286	0.838840
	H6547	H	0.470263	0.361166	0.838918
	H6548	H	0.394648	0.644189	0.781842
	H6549	H	0.448165	0.644626	0.779746
	H6550	H	0.448030	0.861431	0.779895
	H6551	H	0.394699	0.861099	0.781854
	H6552	H	0.465315	0.644766	0.792616
	H6553	H	0.465142	0.861321	0.792765
	H6554	H	0.456212	0.645080	0.853164
	H6555	H	0.456049	0.861261	0.853072
	H6556	H	0.419895	0.441645	0.757110
	H6557	H	0.432479	0.441241	0.878055
	H6558	H	0.420027	0.441852	0.758432
	H6559	H	0.419054	0.441274	0.758882
	H6560	H	0.432479	0.441508	0.876638
	H6561	H	0.432957	0.441181	0.877252
	H6562	H	0.432501	0.564647	0.877996
	H6563	H	0.419975	0.564926	0.757044
	H6564	H	0.432970	0.564895	0.877224
	H6565	H	0.432452	0.564562	0.876641
	H6566	H	0.419103	0.564738	0.758918
	H6567	H	0.420038	0.565155	0.758460
	H6568	H	0.456038	0.145007	0.853047
	H6569	H	0.456114	0.361325	0.853109
	H6570	H	0.420093	0.064355	0.756338
	H6571	H	0.418376	0.064934	0.756007
	H6572	H	0.420931	0.064651	0.758299
	H6573	H	0.402589	0.860711	0.855428
	H6574	H	0.402724	0.644270	0.855321
	H6575	H	0.402722	0.360946	0.855286
	H6576	H	0.402772	0.144342	0.855298
	H6577	H	0.394707	0.144559	0.781935
	H6578	H	0.448075	0.145104	0.779764
	H6579	H	0.448196	0.361040	0.779648
	H6580	H	0.394656	0.360959	0.781879
	H6581	H	0.465124	0.145054	0.792742
	H6582	H	0.465232	0.361055	0.792595
	H6583	H	0.432215	0.064661	0.877531
	H6584	H	0.432313	0.064775	0.877359
	H6585	H	0.432106	0.064871	0.877040
	H6586	H	0.418317	0.941221	0.756003
	H6587	H	0.420072	0.941608	0.756324
	H6588	H	0.420889	0.941516	0.758297
	H6589	H	0.432205	0.941273	0.877541
	H6590	H	0.432355	0.941520	0.877318
	H6591	H	0.432102	0.941239	0.877045
	Zn6592	Zn	0.356406	0.680306	0.820356
	Zn6593	Zn	0.356468	0.825755	0.820350
	Zn6594	Zn	0.356367	0.180206	0.820312
	Zn6595	Zn	0.356462	0.325977	0.820297
	Zn6596	Zn	0.432034	0.680264	0.877306
	Zn6597	Zn	0.431992	0.825813	0.877283
	Zn6598	Zn	0.431968	0.180182	0.877286
	Zn6599	Zn	0.431944	0.325842	0.877267
	C6600	C	0.476488	0.753053	0.801232
	C6601	C	0.374313	0.752638	0.833862
	C6602	C	0.384586	0.752365	0.841625
	C6603	C	0.389427	0.691108	0.845275
	C6604	C	0.389388	0.813566	0.845319
	C6605	C	0.374447	0.252678	0.833766
	C6606	C	0.384673	0.252642	0.841574
	C6607	C	0.389503	0.191311	0.845228
	C6608	C	0.389469	0.313932	0.845229
	C6609	C	0.371330	0.753055	0.805577
	C6610	C	0.379814	0.752922	0.797021
	C6611	C	0.383788	0.814132	0.792979
	C6612	C	0.383754	0.691477	0.792967
	C6613	C	0.371248	0.252585	0.805521
	C6614	C	0.379724	0.252621	0.796969
	C6615	C	0.383708	0.313964	0.792950
	C6616	C	0.383732	0.191427	0.792997
	C6617	C	0.493609	0.043480	0.814548
	C6618	C	0.493627	0.962405	0.814551
	C6619	C	0.354474	0.043218	0.819387
	C6620	C	0.354505	0.962425	0.819383
	C6621	C	0.356466	0.043463	0.822195
	C6622	C	0.356490	0.962688	0.822203
	C6623	C	0.355532	0.462849	0.819689
	C6624	C	0.493953	0.462479	0.813910
	C6625	C	0.495480	0.462504	0.814816
	C6626	C	0.355488	0.543323	0.819692
	C6627	C	0.495501	0.543290	0.814857
	C6628	C	0.493973	0.543435	0.813922
	C6629	C	0.479551	0.753388	0.829472
	C6630	C	0.479651	0.253079	0.829549
	C6631	C	0.471053	0.753418	0.838015
	C6632	C	0.467111	0.692103	0.842040
	C6633	C	0.467031	0.814625	0.842008
	C6634	C	0.471177	0.253201	0.838114
	C6635	C	0.467102	0.192071	0.842054
	C6636	C	0.467140	0.314316	0.842101
	C6637	C	0.476374	0.252995	0.801274
	C6638	C	0.436733	0.753108	0.771326
	C6639	C	0.404000	0.752581	0.772452
	C6640	C	0.414006	0.752606	0.863833
	C6641	C	0.461413	0.691734	0.789812
	C6642	C	0.461315	0.814301	0.789904
	C6643	C	0.447010	0.752996	0.779097
	C6644	C	0.395549	0.752654	0.781031
	C6645	C	0.391550	0.691329	0.785044
	C6646	C	0.451921	0.691667	0.782666
	C6647	C	0.451833	0.814359	0.782754
	C6648	C	0.391575	0.814001	0.785050
	C6649	C	0.466180	0.753038	0.793510
	C6650	C	0.446837	0.753187	0.862524
	C6651	C	0.459300	0.691941	0.849950
	C6652	C	0.459207	0.814428	0.849913
	C6653	C	0.455292	0.753075	0.853948
	C6654	C	0.432041	0.462640	0.877864
	C6655	C	0.419385	0.462751	0.758419
	C6656	C	0.432536	0.462514	0.877024
	C6657	C	0.432048	0.543594	0.877850
	C6658	C	0.432525	0.543565	0.877019
	C6659	C	0.419406	0.543597	0.758421
	C6660	C	0.446739	0.252927	0.862482
	C6661	C	0.459247	0.191950	0.849931
	C6662	C	0.459291	0.314377	0.849983
	C6663	C	0.455303	0.253088	0.853976
	C6664	C	0.419118	0.043424	0.756589
	C6665	C	0.436786	0.252972	0.771232
	C6666	C	0.403956	0.252840	0.772483
	C6667	C	0.413990	0.252596	0.863878
	C6668	C	0.461318	0.191983	0.789844
	C6669	C	0.461383	0.314198	0.789760
	C6670	C	0.447036	0.253027	0.779009
	C6671	C	0.395475	0.252712	0.781035
	C6672	C	0.403693	0.752543	0.856096
	C6673	C	0.398843	0.813708	0.852496
	C6674	C	0.398887	0.691200	0.852451
	C6675	C	0.403721	0.252533	0.856097
	C6676	C	0.398907	0.313856	0.852424
	C6677	C	0.398940	0.191228	0.852430
	C6678	C	0.391542	0.191488	0.785095
	C6679	C	0.451870	0.191955	0.782654
	C6680	C	0.451928	0.314161	0.782579
	C6681	C	0.391519	0.314005	0.785049
	C6682	C	0.466124	0.253085	0.793487
	C6683	C	0.432186	0.043390	0.877392
	C6684	C	0.419969	0.043550	0.758542
	C6685	C	0.419100	0.962678	0.756599
	C6686	C	0.432200	0.962662	0.877395
	C6687	C	0.419973	0.962759	0.758541
	N6688	N	0.356390	0.070214	0.820328
	N6689	N	0.356427	0.935690	0.820323
	N6690	N	0.356473	0.435940	0.820297
	N6691	N	0.356454	0.570410	0.820317
	N6692	N	0.431992	0.435920	0.877337
	N6693	N	0.432003	0.570425	0.877325
	N6694	N	0.431949	0.070206	0.877307
	N6695	N	0.431967	0.935741	0.877318
	O6696	O	0.493897	0.695219	0.923516
	O6697	O	0.493874	0.811280	0.923552
	O6698	O	0.383563	0.695203	0.950306
	O6699	O	0.383643	0.811054	0.950355
	O6700	O	0.383607	0.195045	0.950333
	O6701	O	0.383621	0.311182	0.950289
	O6702	O	0.381105	0.695098	0.928403
	O6703	O	0.381087	0.810863	0.928342
	O6704	O	0.381055	0.194849	0.928377
	O6705	O	0.381131	0.310739	0.928329
	O6706	O	0.496333	0.694656	0.945517
	O6707	O	0.496360	0.810613	0.945506
	O6708	O	0.496352	0.194889	0.945494
	O6709	O	0.496496	0.310934	0.945576
	O6710	O	0.493865	0.195013	0.923560
	O6711	O	0.493893	0.311033	0.923553
	O6712	O	0.446023	0.695464	0.887760
	O6713	O	0.420456	0.694514	0.888779
	O6714	O	0.457002	0.694926	0.985123
	O6715	O	0.456953	0.810912	0.985088
	O6716	O	0.431463	0.694595	0.986093
	O6717	O	0.431378	0.810648	0.986146
	O6718	O	0.420472	0.810483	0.888828
	O6719	O	0.446005	0.811548	0.887771
	O6720	O	0.446045	0.195187	0.887725
	O6721	O	0.420434	0.194355	0.888794
	O6722	O	0.457001	0.194887	0.985049
	O6723	O	0.456947	0.310968	0.985009
	O6724	O	0.431475	0.194824	0.986087
	O6725	O	0.431449	0.310816	0.986063
	O6726	O	0.420448	0.310606	0.888790
	O6727	O	0.446082	0.311425	0.887703
	H6728	H	0.398895	0.645262	0.961792
	H6729	H	0.398968	0.860510	0.961822
	H6730	H	0.398975	0.144674	0.961765
	H6731	H	0.398869	0.361601	0.961817
	H6732	H	0.393748	0.860895	0.915661
	H6733	H	0.393607	0.644451	0.915628
	H6734	H	0.393819	0.360979	0.915751
	H6735	H	0.393696	0.144316	0.915676
	H6736	H	0.508112	0.065092	0.932946
	H6737	H	0.507154	0.064337	0.933109
	H6738	H	0.507107	0.942160	0.933155
	H6739	H	0.508167	0.941294	0.932951
	H6740	H	0.509129	0.064894	0.933937
	H6741	H	0.509070	0.941122	0.933909
	H6742	H	0.368893	0.064365	0.941661
	H6743	H	0.369016	0.941244	0.941647
	H6744	H	0.370735	0.064546	0.941526
	H6745	H	0.370818	0.941178	0.941487
	H6746	H	0.371714	0.064840	0.939556
	H6747	H	0.371695	0.941100	0.939571
	H6748	H	0.371701	0.441193	0.941964
	H6749	H	0.372783	0.441232	0.939948
	H6750	H	0.368042	0.441597	0.942135
	H6751	H	0.509377	0.441207	0.935024
	H6752	H	0.507312	0.441271	0.935389
	H6753	H	0.506275	0.440829	0.934403
	H6754	H	0.372795	0.564521	0.939916
	H6755	H	0.371720	0.564539	0.941979
	H6756	H	0.506242	0.564501	0.934416
	H6757	H	0.507283	0.564801	0.935384
	H6758	H	0.509260	0.564655	0.935042
	H6759	H	0.368058	0.564571	0.942209
	H6760	H	0.483676	0.644224	0.958193
	H6761	H	0.483737	0.861236	0.958172
	H6762	H	0.483687	0.144672	0.958109
	H6763	H	0.483734	0.361119	0.958123
	H6764	H	0.407787	0.644225	0.901438
	H6765	H	0.461351	0.644999	0.899243
	H6766	H	0.461449	0.862014	0.899123
	H6767	H	0.407899	0.860512	0.901500
	H6768	H	0.478562	0.644791	0.912058
	H6769	H	0.478622	0.862096	0.911947
	H6770	H	0.469603	0.644442	0.972426
	H6771	H	0.469646	0.861198	0.972413
	H6772	H	0.431657	0.441493	0.878083
	H6773	H	0.446062	0.441378	0.997820
	H6774	H	0.430998	0.441289	0.877281
	H6775	H	0.431358	0.441669	0.876669
	H6776	H	0.446418	0.441205	0.995462
	H6777	H	0.447054	0.440974	0.996593
	H6778	H	0.446045	0.564405	0.997882
	H6779	H	0.431685	0.564929	0.878044
	H6780	H	0.446958	0.564444	0.996579
	H6781	H	0.446338	0.564448	0.995520
	H6782	H	0.431408	0.564234	0.876695
	H6783	H	0.431019	0.564373	0.877302
	H6784	H	0.469465	0.144724	0.972282
	H6785	H	0.469510	0.361050	0.972264
	H6786	H	0.431567	0.064579	0.877358
	H6787	H	0.431726	0.064577	0.877539
	H6788	H	0.431746	0.064502	0.877025
	H6789	H	0.416136	0.860364	0.974651
	H6790	H	0.416056	0.644923	0.974635
	H6791	H	0.416040	0.361469	0.974674
	H6792	H	0.416142	0.144635	0.974604
	H6793	H	0.407857	0.144108	0.901458
	H6794	H	0.461416	0.144408	0.899195
	H6795	H	0.461400	0.361734	0.899222
	H6796	H	0.407941	0.361111	0.901549
	H6797	H	0.478587	0.144591	0.912047
	H6798	H	0.478519	0.361893	0.912057
	H6799	H	0.445259	0.064230	0.996018
	H6800	H	0.444887	0.064205	0.996260
	H6801	H	0.444984	0.064459	0.996867
	H6802	H	0.431765	0.941131	0.877520
	H6803	H	0.431628	0.941541	0.877327
	H6804	H	0.431801	0.941412	0.877044
	H6805	H	0.445327	0.941272	0.996096
	H6806	H	0.444913	0.941130	0.996226
	H6807	H	0.444956	0.940704	0.996828
	Zn6808	Zn	0.369511	0.680162	0.939910
	Zn6809	Zn	0.369616	0.825453	0.939856
	Zn6810	Zn	0.369531	0.180159	0.939874
	Zn6811	Zn	0.369626	0.325463	0.939819
	Zn6812	Zn	0.445407	0.679914	0.996598
	Zn6813	Zn	0.445391	0.825507	0.996580
	Zn6814	Zn	0.445459	0.179967	0.996566
	Zn6815	Zn	0.445484	0.325580	0.996546
	C6816	C	0.489895	0.753274	0.920558
	C6817	C	0.387576	0.753033	0.953312
	C6818	C	0.397901	0.752899	0.961035
	C6819	C	0.402737	0.691958	0.964644
	C6820	C	0.402780	0.813729	0.964669
	C6821	C	0.387596	0.253136	0.953290
	C6822	C	0.397884	0.253057	0.961048
	C6823	C	0.402770	0.191745	0.964650
	C6824	C	0.402705	0.314471	0.964675
	C6825	C	0.384375	0.752935	0.925074
	C6826	C	0.392856	0.752713	0.916539
	C6827	C	0.396885	0.813781	0.912541
	C6828	C	0.396810	0.691365	0.912503
	C6829	C	0.384372	0.252683	0.925059
	C6830	C	0.392871	0.252567	0.916522
	C6831	C	0.396920	0.313930	0.912558
	C6832	C	0.396851	0.191198	0.912512
	C6833	C	0.507698	0.043413	0.933301
	C6834	C	0.507701	0.962802	0.933307
	C6835	C	0.369761	0.043157	0.941128
	C6836	C	0.369816	0.962486	0.941123
	C6837	C	0.370699	0.043468	0.939183
	C6838	C	0.370712	0.962415	0.939175
	C6839	C	0.371564	0.462427	0.940659
	C6840	C	0.509102	0.462637	0.934273
	C6841	C	0.507082	0.462439	0.934650
	C6842	C	0.371550	0.543353	0.940678
	C6843	C	0.507049	0.543192	0.934650
	C6844	C	0.509071	0.543487	0.934290
	C6845	C	0.493064	0.752644	0.948810
	C6846	C	0.493114	0.252937	0.948798
	C6847	C	0.484528	0.752715	0.957308
	C6848	C	0.480526	0.691372	0.961324
	C6849	C	0.480556	0.814071	0.961312
	C6850	C	0.484603	0.252824	0.957336
	C6851	C	0.480574	0.191573	0.961311
	C6852	C	0.480604	0.314123	0.961309
	C6853	C	0.489894	0.253066	0.920571
	C6854	C	0.450002	0.753489	0.890734
	C6855	C	0.417164	0.752468	0.892087
	C6856	C	0.427457	0.752577	0.983121
	C6857	C	0.474728	0.691996	0.909199
	C6858	C	0.474763	0.814842	0.909142
	C6859	C	0.460351	0.753492	0.898442
	C6860	C	0.408660	0.752374	0.900628
	C6861	C	0.404647	0.691163	0.904615
	C6862	C	0.465188	0.692025	0.902087
	C6863	C	0.465230	0.814904	0.902021
	C6864	C	0.404723	0.813566	0.904660
	C6865	C	0.479562	0.753366	0.912828
	C6866	C	0.460242	0.752938	0.981795
	C6867	C	0.472688	0.691498	0.969213
	C6868	C	0.472715	0.814124	0.969206
	C6869	C	0.468708	0.752901	0.973217
	C6870	C	0.445411	0.462335	0.997453
	C6871	C	0.431387	0.462762	0.877058
	C6872	C	0.446391	0.462323	0.996167
	C6873	C	0.445393	0.543173	0.997473
	C6874	C	0.446360	0.543154	0.996187
	C6875	C	0.431399	0.543226	0.877066
	C6876	C	0.460248	0.252936	0.981733
	C6877	C	0.472700	0.191626	0.969174
	C6878	C	0.472730	0.314075	0.969164
	C6879	C	0.468751	0.252857	0.973193
	C6880	C	0.431742	0.043398	0.877407
	C6881	C	0.450058	0.253291	0.890685
	C6882	C	0.417158	0.252515	0.892068
	C6883	C	0.427456	0.252796	0.983107
	C6884	C	0.474728	0.191678	0.909218
	C6885	C	0.474700	0.314651	0.909220
	C6886	C	0.460354	0.253133	0.898440
	C6887	C	0.408675	0.252569	0.900622
	C6888	C	0.417135	0.752650	0.975384
	C6889	C	0.412305	0.813663	0.971786
	C6890	C	0.412265	0.691734	0.971766
	C6891	C	0.417115	0.252909	0.975410
	C6892	C	0.412234	0.314382	0.971796
	C6893	C	0.412293	0.191674	0.971765
	C6894	C	0.404697	0.191220	0.904622
	C6895	C	0.465233	0.191631	0.902064
	C6896	C	0.465209	0.314663	0.902064
	C6897	C	0.404761	0.313937	0.904675
	C6898	C	0.479560	0.253177	0.912850
	C6899	C	0.445166	0.043022	0.996255
	C6900	C	0.431931	0.043461	0.877108
	C6901	C	0.431763	0.962556	0.877392
	C6902	C	0.445188	0.962420	0.996266
	C6903	C	0.431942	0.962583	0.877108
	N6904	N	0.369542	0.070191	0.939900
	N6905	N	0.369603	0.935651	0.939919
	N6906	N	0.369600	0.435626	0.939848
	N6907	N	0.369561	0.570147	0.939876
	N6908	N	0.445469	0.435568	0.996501
	N6909	N	0.445422	0.570029	0.996542
	N6910	N	0.445424	0.070063	0.996556
	N6911	N	0.445406	0.935601	0.996569
	O6912	O	0.643711	0.695151	0.038811
	O6913	O	0.643859	0.811327	0.038750
	O6914	O	0.535017	0.695042	0.064051
	O6915	O	0.535134	0.811105	0.064018
	O6916	O	0.535021	0.194753	0.064047
	O6917	O	0.535143	0.310877	0.064025
	O6918	O	0.532882	0.694675	0.041814
	O6919	O	0.532957	0.810752	0.041995
	O6920	O	0.532912	0.194414	0.041883
	O6921	O	0.532932	0.310648	0.041982
	O6922	O	0.645369	0.694668	0.060714
	O6923	O	0.645623	0.810885	0.060894
	O6924	O	0.645456	0.194406	0.060812
	O6925	O	0.645489	0.310498	0.060809
	O6926	O	0.643808	0.195026	0.038802
	O6927	O	0.643802	0.310859	0.038805
	O6928	O	0.597606	0.695183	0.001408
	O6929	O	0.572009	0.694795	0.002209
	O6930	O	0.606875	0.694700	0.100944
	O6931	O	0.606923	0.810506	0.100971
	O6932	O	0.581410	0.694760	0.101276
	O6933	O	0.581392	0.810768	0.101319
	O6934	O	0.572213	0.810697	0.002291
	O6935	O	0.597477	0.811146	0.001484
	O6936	O	0.597692	0.195061	0.001425
	O6937	O	0.572095	0.194512	0.002215
	O6938	O	0.606881	0.194683	0.100895
	O6939	O	0.606938	0.310664	0.100941
	O6940	O	0.581457	0.194505	0.101283
	O6941	O	0.581417	0.310669	0.101290
	O6942	O	0.572223	0.310708	0.002270
	O6943	O	0.597558	0.311129	0.001446
	H6944	H	0.549928	0.644512	0.075952
	H6945	H	0.549919	0.861604	0.076041
	H6946	H	0.549974	0.144046	0.075897
	H6947	H	0.549924	0.361268	0.076000
	H6948	H	0.545457	0.861218	0.029246
	H6949	H	0.545452	0.644825	0.029203
	H6950	H	0.545381	0.361336	0.029146
	H6951	H	0.545432	0.144159	0.029170
	H6952	H	0.658310	0.063890	0.049503
	H6953	H	0.657920	0.064056	0.049038
	H6954	H	0.657951	0.940819	0.049025
	H6955	H	0.658350	0.940926	0.049450
	H6956	H	0.657955	0.064169	0.050143
	H6957	H	0.658001	0.940711	0.050178
	H6958	H	0.521436	0.063907	0.051807
	H6959	H	0.521396	0.941063	0.051856
	H6960	H	0.520046	0.064402	0.052231
	H6961	H	0.520030	0.941222	0.052298
	H6962	H	0.519691	0.064237	0.053902
	H6963	H	0.519745	0.940875	0.053977
	H6964	H	0.521316	0.440472	0.053787
	H6965	H	0.521671	0.441297	0.053705
	H6966	H	0.520931	0.440921	0.053417
	H6967	H	0.658212	0.441340	0.049305
	H6968	H	0.658087	0.440963	0.050113
	H6969	H	0.657450	0.440708	0.050315
	H6970	H	0.521653	0.563903	0.053596
	H6971	H	0.521359	0.564180	0.053704
	H6972	H	0.657512	0.563875	0.050246
	H6973	H	0.658091	0.563997	0.050140
	H6974	H	0.658217	0.564409	0.049314
	H6975	H	0.520947	0.564819	0.053385
	H6976	H	0.633105	0.644203	0.073677
	H6977	H	0.633013	0.861397	0.073586
	H6978	H	0.633066	0.144219	0.073648
	H6979	H	0.633127	0.360919	0.073651
	H6980	H	0.559509	0.644884	0.014890
	H6981	H	0.612458	0.644588	0.013363
	H6982	H	0.612371	0.861882	0.013436
	H6983	H	0.559529	0.861420	0.014950
	H6984	H	0.628991	0.644625	0.026767
	H6985	H	0.628959	0.861973	0.026838
	H6986	H	0.619336	0.644390	0.088148
	H6987	H	0.619216	0.860978	0.088062
	H6988	H	0.585570	0.441286	-0.008046
	H6989	H	0.597821	0.441114	0.115364
	H6990	H	0.583122	0.440657	-0.007402
	H6991	H	0.581658	0.441161	-0.008528
	H6992	H	0.596825	0.440716	0.108668
	H6993	H	0.599417	0.440920	0.111184
	H6994	H	0.597781	0.564242	0.115362
	H6995	H	0.585546	0.564312	-0.007956
	H6996	H	0.599343	0.564447	0.111187
	H6997	H	0.596778	0.564392	0.108675
	H6998	H	0.581589	0.564199	-0.008484
	H6999	H	0.583060	0.564388	-0.007344
	H7000	H	0.619300	0.144152	0.088118
	H7001	H	0.619305	0.360785	0.088115
	H7002	H	0.585313	0.064157	-0.008070
	H7003	H	0.585684	0.064239	-0.009449
	H7004	H	0.583162	0.064415	-0.007584
	H7005	H	0.566515	0.861289	0.089424
	H7006	H	0.566539	0.644484	0.089342
	H7007	H	0.566554	0.361293	0.089375
	H7008	H	0.566622	0.143921	0.089264
	H7009	H	0.559513	0.144372	0.014898
	H7010	H	0.612400	0.145036	0.013437
	H7011	H	0.612512	0.361685	0.013332
	H7012	H	0.559488	0.361375	0.014904
	H7013	H	0.628927	0.144895	0.026887
	H7014	H	0.629051	0.361296	0.026774
	H7015	H	0.593687	0.064500	0.108514
	H7016	H	0.590978	0.064576	0.110626
	H7017	H	0.592138	0.064140	0.114896
	H7018	H	0.585682	0.941367	-0.009515
	H7019	H	0.585326	0.941025	-0.008077
	H7020	H	0.583153	0.940779	-0.007573
	H7021	H	0.593677	0.941032	0.108486
	H7022	H	0.590948	0.940802	0.110582
	H7023	H	0.592145	0.940925	0.114896
	Zn7024	Zn	0.521330	0.679788	0.053290
	Zn7025	Zn	0.521283	0.825633	0.053376
	Zn7026	Zn	0.521341	0.179818	0.053321
	Zn7027	Zn	0.521323	0.325501	0.053424
	Zn7028	Zn	0.595051	0.679891	0.112110
	Zn7029	Zn	0.595093	0.825584	0.112140
	Zn7030	Zn	0.595062	0.179836	0.112086
	Zn7031	Zn	0.595119	0.325606	0.112136
	C7032	C	0.639931	0.753350	0.035688
	C7033	C	0.538949	0.752979	0.067132
	C7034	C	0.548956	0.752993	0.075175
	C7035	C	0.553644	0.691578	0.078936
	C7036	C	0.553635	0.814358	0.078989
	C7037	C	0.538938	0.252710	0.067144
	C7038	C	0.548941	0.252653	0.075187
	C7039	C	0.553670	0.191237	0.078918
	C7040	C	0.553636	0.314110	0.078974
	C7041	C	0.536183	0.752887	0.038600
	C7042	C	0.544659	0.753038	0.030049
	C7043	C	0.548611	0.814322	0.026049
	C7044	C	0.548622	0.691824	0.026021
	C7045	C	0.536164	0.252634	0.038619
	C7046	C	0.544594	0.252763	0.030015
	C7047	C	0.548536	0.314270	0.025979
	C7048	C	0.548562	0.191379	0.025992
	C7049	C	0.657987	0.042930	0.049356
	C7050	C	0.657998	0.962243	0.049332
	C7051	C	0.520920	0.043101	0.052365
	C7052	C	0.520887	0.962317	0.052397
	C7053	C	0.520568	0.043243	0.054077
	C7054	C	0.520579	0.962399	0.054111
	C7055	C	0.521460	0.462344	0.053621
	C7056	C	0.657860	0.462416	0.049248
	C7057	C	0.657731	0.462221	0.050039
	C7058	C	0.521468	0.542990	0.053569
	C7059	C	0.657708	0.542892	0.050026
	C7060	C	0.657844	0.543362	0.049245
	C7061	C	0.642291	0.752795	0.064144
	C7062	C	0.642204	0.252500	0.064102
	C7063	C	0.633949	0.752797	0.072794
	C7064	C	0.630035	0.691430	0.076872
	C7065	C	0.629988	0.814144	0.076824
	C7066	C	0.633815	0.252560	0.072726
	C7067	C	0.629974	0.191209	0.076841
	C7068	C	0.629996	0.313863	0.076838
	C7069	C	0.639954	0.252906	0.035696
	C7070	C	0.601398	0.753232	0.004548
	C7071	C	0.568838	0.752849	0.005544
	C7072	C	0.577530	0.752799	0.098224
	C7073	C	0.625329	0.691897	0.023785
	C7074	C	0.625295	0.814780	0.023827
	C7075	C	0.611420	0.753348	0.012581
	C7076	C	0.560391	0.753096	0.014096
	C7077	C	0.556411	0.691871	0.018096
	C7078	C	0.616145	0.691805	0.016325
	C7079	C	0.616108	0.814768	0.016372
	C7080	C	0.556418	0.814295	0.018131
	C7081	C	0.629989	0.753395	0.027591
	C7082	C	0.610144	0.752589	0.097630
	C7083	C	0.622393	0.691395	0.084904
	C7084	C	0.622333	0.814063	0.084856
	C7085	C	0.618511	0.752680	0.088986
	C7086	C	0.595721	0.462335	0.114716
	C7087	C	0.582744	0.462277	-0.008285
	C7088	C	0.597312	0.462155	0.110501
	C7089	C	0.595690	0.543072	0.114713
	C7090	C	0.597280	0.543123	0.110509
	C7091	C	0.582682	0.543074	-0.008250
	C7092	C	0.610102	0.252638	0.097563
	C7093	C	0.622320	0.191152	0.084857
	C7094	C	0.622339	0.313831	0.084859
	C7095	C	0.618417	0.252477	0.088903
	C7096	C	0.585047	0.042950	-0.008865
	C7097	C	0.601481	0.253230	0.004536
	C7098	C	0.568868	0.252683	0.005521
	C7099	C	0.577576	0.252573	0.098198
	C7100	C	0.625275	0.191938	0.023877
	C7101	C	0.625325	0.314391	0.023810
	C7102	C	0.611453	0.253356	0.012588
	C7103	C	0.560330	0.252809	0.014045
	C7104	C	0.567536	0.752867	0.090179
	C7105	C	0.562845	0.814239	0.086421
	C7106	C	0.562851	0.691611	0.086366
	C7107	C	0.567561	0.252605	0.090167
	C7108	C	0.562870	0.314065	0.086390
	C7109	C	0.562908	0.191179	0.086332
	C7110	C	0.556357	0.191465	0.018070
	C7111	C	0.616104	0.192056	0.016413
	C7112	C	0.616156	0.314601	0.016343
	C7113	C	0.556344	0.314210	0.018066
	C7114	C	0.629963	0.253067	0.027640
	C7115	C	0.593064	0.043272	0.110244
	C7116	C	0.582872	0.043196	-0.008366
	C7117	C	0.585045	0.962327	-0.008881
	C7118	C	0.593059	0.962255	0.110239
	C7119	C	0.582845	0.962146	-0.008376
	N7120	N	0.521335	0.069987	0.053328
	N7121	N	0.521310	0.935521	0.053368
	N7122	N	0.521347	0.435416	0.053377
	N7123	N	0.521339	0.569914	0.053316
	N7124	N	0.595109	0.435489	0.112158
	N7125	N	0.595043	0.569971	0.112154
	N7126	N	0.595104	0.069938	0.112165
	N7127	N	0.595096	0.935475	0.112165
	O7128	O	0.647915	0.694661	0.165973
	O7129	O	0.647878	0.810832	0.166007
	O7130	O	0.545382	0.694306	0.185998
	O7131	O	0.545158	0.810390	0.186124
	O7132	O	0.545217	0.194434	0.186048
	O7133	O	0.545226	0.310708	0.186004
	O7134	O	0.544380	0.695176	0.163481
	O7135	O	0.544202	0.811107	0.163283
	O7136	O	0.544348	0.194695	0.163371
	O7137	O	0.544305	0.310714	0.163296
	O7138	O	0.644840	0.694436	0.187119
	O7139	O	0.644904	0.811072	0.187177
	O7140	O	0.644867	0.194308	0.187077
	O7141	O	0.644812	0.310982	0.187049
	O7142	O	0.647938	0.194472	0.165983
	O7143	O	0.647929	0.310564	0.165968
	O7144	O	0.607865	0.694642	0.123662
	O7145	O	0.583032	0.695104	0.123323
	O7146	O	0.609595	0.694997	0.229842
	O7147	O	0.609637	0.811263	0.229791
	O7148	O	0.585275	0.694363	0.228431
	O7149	O	0.585240	0.810608	0.228432
	O7150	O	0.582993	0.811206	0.123265
	O7151	O	0.607876	0.810597	0.123681
	O7152	O	0.607873	0.194610	0.123680
	O7153	O	0.583015	0.194625	0.123257
	O7154	O	0.609707	0.194581	0.229878
	O7155	O	0.609757	0.311083	0.229898
	O7156	O	0.585295	0.194740	0.228375
	O7157	O	0.585313	0.311013	0.228361
	O7158	O	0.583002	0.310858	0.123213
	O7159	O	0.607948	0.310710	0.123672
	H7160	H	0.558154	0.644235	0.199560
	H7161	H	0.558086	0.860700	0.199643
	H7162	H	0.557971	0.144321	0.199646
	H7163	H	0.558192	0.361330	0.199517
	H7164	H	0.556759	0.861480	0.150569
	H7165	H	0.556618	0.644574	0.150491
	H7166	H	0.556731	0.360836	0.150465
	H7167	H	0.556813	0.144393	0.150571
	H7168	H	0.661333	0.063976	0.180621
	H7169	H	0.663078	0.064405	0.179025
	H7170	H	0.663037	0.940733	0.179072
	H7171	H	0.661292	0.940967	0.180603
	H7172	H	0.657776	0.064041	0.179955
	H7173	H	0.657870	0.940599	0.179935
	H7174	H	0.534802	0.064455	0.174700
	H7175	H	0.534809	0.941298	0.174722
	H7176	H	0.534057	0.064700	0.173068
	H7177	H	0.534056	0.941353	0.173016
	H7178	H	0.531272	0.064745	0.172636
	H7179	H	0.531210	0.941038	0.172567
	H7180	H	0.530713	0.441342	0.174197
	H7181	H	0.531055	0.441638	0.175447
	H7182	H	0.532197	0.441625	0.173038
	H7183	H	0.659953	0.441224	0.178444
	H7184	H	0.659708	0.440824	0.178203
	H7185	H	0.659805	0.440674	0.177973
	H7186	H	0.531100	0.565012	0.175470
	H7187	H	0.530687	0.565262	0.174264
	H7188	H	0.659776	0.564108	0.177973
	H7189	H	0.659680	0.564244	0.178238
	H7190	H	0.659966	0.564386	0.178463
	H7191	H	0.532115	0.565092	0.173086
	H7192	H	0.632442	0.643506	0.200166
	H7193	H	0.632437	0.862249	0.200126
	H7194	H	0.632425	0.143282	0.200115
	H7195	H	0.632442	0.362364	0.200136
	H7196	H	0.570511	0.644545	0.136084
	H7197	H	0.620809	0.644503	0.137192
	H7198	H	0.620709	0.860767	0.137241
	H7199	H	0.570649	0.861435	0.136155
	H7200	H	0.635082	0.644597	0.152432
	H7201	H	0.634980	0.860949	0.152497
	H7202	H	0.620316	0.643651	0.215713
	H7203	H	0.620277	0.862206	0.215675
	H7204	H	0.594087	0.441114	0.115909
	H7205	H	0.596636	0.441055	0.246465
	H7206	H	0.590568	0.441326	0.112463
	H7207	H	0.591736	0.441001	0.109401
	H7208	H	0.603715	0.440946	0.238652
	H7209	H	0.603559	0.440996	0.243516
	H7210	H	0.596672	0.564607	0.246439
	H7211	H	0.594091	0.564252	0.115891
	H7212	H	0.603592	0.564327	0.243534
	H7213	H	0.603699	0.564555	0.238670
	H7214	H	0.591725	0.564412	0.109377
	H7215	H	0.590533	0.564325	0.112425
	H7216	H	0.620393	0.143326	0.215712
	H7217	H	0.620399	0.362353	0.215737
	H7218	H	0.599386	0.064352	0.113043
	H7219	H	0.598550	0.064091	0.109955
	H7220	H	0.595757	0.064166	0.115946
	H7221	H	0.572409	0.860950	0.214868
	H7222	H	0.572447	0.643980	0.214809
	H7223	H	0.572557	0.361463	0.214692
	H7224	H	0.572307	0.144236	0.214879
	H7225	H	0.570663	0.144618	0.136103
	H7226	H	0.620732	0.144233	0.137194
	H7227	H	0.620795	0.360875	0.137199
	H7228	H	0.570564	0.360777	0.136018
	H7229	H	0.635055	0.143974	0.152397
	H7230	H	0.635134	0.360944	0.152416
	H7231	H	0.604303	0.064104	0.239932
	H7232	H	0.600997	0.064845	0.235651
	H7233	H	0.592966	0.065117	0.235809
	H7234	H	0.598549	0.941039	0.109966
	H7235	H	0.599446	0.940861	0.113071
	H7236	H	0.595651	0.941196	0.115915
	H7237	H	0.604289	0.940835	0.239891
	H7238	H	0.601050	0.941066	0.235699
	H7239	H	0.592976	0.941267	0.235732
	Zn7240	Zn	0.532413	0.680246	0.174553
	Zn7241	Zn	0.532401	0.825882	0.174531
	Zn7242	Zn	0.532393	0.180132	0.174507
	Zn7243	Zn	0.532422	0.325957	0.174521
	Zn7244	Zn	0.597414	0.680088	0.240717
	Zn7245	Zn	0.597390	0.825476	0.240633
	Zn7246	Zn	0.597355	0.179924	0.240698
	Zn7247	Zn	0.597341	0.325404	0.240671
	C7248	C	0.644538	0.752791	0.162506
	C7249	C	0.548683	0.752397	0.189537
	C7250	C	0.557403	0.752495	0.198633
	C7251	C	0.561382	0.691173	0.202952
	C7252	C	0.561364	0.813743	0.202998
	C7253	C	0.548598	0.252650	0.189524
	C7254	C	0.557276	0.252762	0.198650
	C7255	C	0.561229	0.191408	0.203006
	C7256	C	0.561358	0.314168	0.202920
	C7257	C	0.547558	0.753009	0.160077
	C7258	C	0.555921	0.752915	0.151427
	C7259	C	0.559839	0.814283	0.147358
	C7260	C	0.559751	0.691544	0.147306
	C7261	C	0.547558	0.252628	0.160006
	C7262	C	0.555954	0.252568	0.151365
	C7263	C	0.559842	0.313848	0.147270
	C7264	C	0.559899	0.191363	0.147343
	C7265	C	0.661661	0.042906	0.179399
	C7266	C	0.661647	0.962185	0.179389
	C7267	C	0.533890	0.043380	0.174058
	C7268	C	0.533894	0.962536	0.174040
	C7269	C	0.531100	0.043326	0.173591
	C7270	C	0.531072	0.962549	0.173590
	C7271	C	0.531308	0.462776	0.174730
	C7272	C	0.660103	0.462276	0.178387
	C7273	C	0.659858	0.462110	0.178121
	C7274	C	0.531298	0.543763	0.174769
	C7275	C	0.659852	0.543031	0.178134
	C7276	C	0.660089	0.543129	0.178390
	C7277	C	0.641456	0.752733	0.190398
	C7278	C	0.641416	0.252638	0.190306
	C7279	C	0.633247	0.752782	0.199223
	C7280	C	0.629704	0.691086	0.203593
	C7281	C	0.629698	0.814657	0.203573
	C7282	C	0.633245	0.252753	0.199178
	C7283	C	0.629736	0.190936	0.203578
	C7284	C	0.629745	0.314714	0.203581
	C7285	C	0.644556	0.252485	0.162471
	C7286	C	0.611241	0.752559	0.127176
	C7287	C	0.579786	0.753160	0.126616
	C7288	C	0.581919	0.752438	0.224910
	C7289	C	0.631902	0.691496	0.149032
	C7290	C	0.631850	0.814048	0.149072
	C7291	C	0.619932	0.752618	0.136279
	C7292	C	0.571399	0.753030	0.135253
	C7293	C	0.567426	0.691621	0.139295
	C7294	C	0.623987	0.691448	0.140576
	C7295	C	0.623919	0.813844	0.140617
	C7296	C	0.567509	0.814333	0.139341
	C7297	C	0.635919	0.752810	0.153348
	C7298	C	0.612476	0.753022	0.226172
	C7299	C	0.622971	0.691214	0.212236
	C7300	C	0.622971	0.814660	0.212220
	C7301	C	0.619680	0.752918	0.216743
	C7302	C	0.595051	0.462429	0.243931
	C7303	C	0.592183	0.462411	0.111233
	C7304	C	0.602035	0.462469	0.240991
	C7305	C	0.595074	0.543268	0.243920
	C7306	C	0.602041	0.543252	0.240984
	C7307	C	0.592154	0.543130	0.111231
	C7308	C	0.612569	0.252806	0.226245
	C7309	C	0.623056	0.190945	0.212256
	C7310	C	0.623068	0.314700	0.212263
	C7311	C	0.619783	0.252787	0.216785
	C7312	C	0.597966	0.043102	0.111677
	C7313	C	0.611291	0.252554	0.127164
	C7314	C	0.579754	0.252784	0.126530
	C7315	C	0.581912	0.252877	0.224874
	C7316	C	0.631895	0.191160	0.149020
	C7317	C	0.631955	0.313868	0.149022
	C7318	C	0.619974	0.252487	0.136255
	C7319	C	0.571386	0.252670	0.135178
	C7320	C	0.573346	0.752393	0.215747
	C7321	C	0.569273	0.813732	0.211468
	C7322	C	0.569288	0.691111	0.211421
	C7323	C	0.573262	0.252784	0.215747
	C7324	C	0.569309	0.314195	0.211364
	C7325	C	0.569165	0.191367	0.211460
	C7326	C	0.567544	0.191450	0.139301
	C7327	C	0.623962	0.191215	0.140575
	C7328	C	0.624007	0.313851	0.140577
	C7329	C	0.567487	0.313884	0.139237
	C7330	C	0.635948	0.252443	0.153330
	C7331	C	0.601298	0.043234	0.238529
	C7332	C	0.594254	0.042885	0.114539
	C7333	C	0.597965	0.962246	0.111699
	C7334	C	0.601310	0.962372	0.238521
	C7335	C	0.594231	0.962284	0.114557
	N7336	N	0.532393	0.070176	0.174504
	N7337	N	0.532364	0.935733	0.174505
	N7338	N	0.532444	0.435928	0.174516
	N7339	N	0.532419	0.570378	0.174574
	N7340	N	0.597427	0.435553	0.240725
	N7341	N	0.597457	0.570104	0.240716
	N7342	N	0.597451	0.070097	0.240604
	N7343	N	0.597441	0.935598	0.240609
	O7344	O	0.586041	0.694491	0.305143
	O7345	O	0.586032	0.811169	0.305148
	O7346	O	0.542231	0.695013	0.317601
	O7347	O	0.542292	0.811663	0.317568
	O7348	O	0.542267	0.194383	0.317547
	O7349	O	0.542197	0.311326	0.317544
	O7350	O	0.546988	0.695124	0.292245
	O7351	O	0.546924	0.811484	0.292182
	O7352	O	0.546906	0.194495	0.292231
	O7353	O	0.546958	0.310816	0.292256
	O7354	O	0.581326	0.694643	0.330505
	O7355	O	0.581261	0.810964	0.330469
	O7356	O	0.581340	0.194552	0.330507
	O7357	O	0.581282	0.310888	0.330466
	O7358	O	0.586033	0.194735	0.305214
	O7359	O	0.586222	0.311709	0.305169
	O7360	O	0.604974	0.694725	0.255233
	O7361	O	0.582175	0.694462	0.249565
	O7362	O	0.546142	0.694682	0.373246
	O7363	O	0.546093	0.811338	0.373180
	O7364	O	0.523455	0.694935	0.367576
	O7365	O	0.523438	0.811751	0.367566
	O7366	O	0.582150	0.811028	0.249499
	O7367	O	0.604912	0.811743	0.255152
	O7368	O	0.604802	0.193923	0.255160
	O7369	O	0.582198	0.194675	0.249578
	O7370	O	0.546102	0.194646	0.373192
	O7371	O	0.546233	0.311234	0.373288
	O7372	O	0.523523	0.194330	0.367588
	O7373	O	0.523448	0.311284	0.367562
	O7374	O	0.582230	0.311447	0.249590
	O7375	O	0.604952	0.310879	0.255201
	H7376	H	0.536872	0.643414	0.333847
	H7377	H	0.536719	0.863353	0.333802
	H7378	H	0.536871	0.142736	0.333811
	H7379	H	0.536722	0.362425	0.333772
	H7380	H	0.557403	0.862656	0.277932
	H7381	H	0.557679	0.643829	0.278124
	H7382	H	0.557899	0.362388	0.278258
	H7383	H	0.557590	0.143116	0.278063
	H7384	H	0.595112	0.064615	0.315312
	H7385	H	0.590570	0.064732	0.315687
	H7386	H	0.590533	0.941372	0.315703
	H7387	H	0.595044	0.941311	0.315286
	H7388	H	0.599077	0.064403	0.319596
	H7389	H	0.599028	0.940951	0.319570
	H7390	H	0.521351	0.064876	0.304800
	H7391	H	0.521317	0.941441	0.304832
	H7392	H	0.528168	0.064800	0.312970
	H7393	H	0.528121	0.941337	0.312968
	H7394	H	0.543750	0.064463	0.312027
	H7395	H	0.543744	0.941464	0.312027
	H7396	H	0.533574	0.441611	0.296983
	H7397	H	0.528547	0.441295	0.299654
	H7398	H	0.540986	0.441025	0.300402
	H7399	H	0.600689	0.441049	0.320288
	H7400	H	0.595637	0.441603	0.325556
	H7401	H	0.589753	0.441422	0.324643
	H7402	H	0.528600	0.564666	0.299626
	H7403	H	0.533684	0.564415	0.296958
	H7404	H	0.589722	0.564251	0.324608
	H7405	H	0.595655	0.564420	0.325549
	H7406	H	0.600620	0.564921	0.320362
	H7407	H	0.541046	0.564341	0.300447
	H7408	H	0.570635	0.643156	0.344667
	H7409	H	0.570621	0.862365	0.344640
	H7410	H	0.570551	0.143297	0.344606
	H7411	H	0.570657	0.362102	0.344612
	H7412	H	0.569874	0.643698	0.262603
	H7413	H	0.599590	0.643494	0.271436
	H7414	H	0.599413	0.863273	0.271394
	H7415	H	0.569617	0.862220	0.262427
	H7416	H	0.591598	0.643233	0.288890
	H7417	H	0.591445	0.863125	0.288893
	H7418	H	0.558530	0.643444	0.360235
	H7419	H	0.558505	0.862487	0.360186
	H7420	H	0.591717	0.441380	0.243722
	H7421	H	0.534754	0.441630	0.380725
	H7422	H	0.591872	0.441108	0.237059
	H7423	H	0.596919	0.440678	0.234818
	H7424	H	0.527590	0.440738	0.379814
	H7425	H	0.530647	0.440928	0.378510
	H7426	H	0.534698	0.565007	0.380733
	H7427	H	0.591766	0.564452	0.243671
	H7428	H	0.530641	0.564317	0.378556
	H7429	H	0.527621	0.564710	0.379874
	H7430	H	0.596960	0.564433	0.234880
	H7431	H	0.591883	0.564106	0.237053
	H7432	H	0.558437	0.143563	0.360168
	H7433	H	0.558562	0.362357	0.360183
	H7434	H	0.594933	0.064272	0.246008
	H7435	H	0.600763	0.064555	0.245964
	H7436	H	0.590415	0.064265	0.240214
	H7437	H	0.528710	0.863106	0.351299
	H7438	H	0.528926	0.643280	0.351321
	H7439	H	0.528866	0.362477	0.351313
	H7440	H	0.529027	0.142651	0.351358
	H7441	H	0.569680	0.143387	0.262487
	H7442	H	0.599383	0.142408	0.271385
	H7443	H	0.599569	0.362481	0.271441
	H7444	H	0.570004	0.362430	0.262682
	H7445	H	0.591429	0.142590	0.288904
	H7446	H	0.591597	0.362626	0.288932
	H7447	H	0.530968	0.065204	0.382311
	H7448	H	0.531150	0.065275	0.382264
	H7449	H	0.531218	0.064812	0.382112
	H7450	H	0.600748	0.940740	0.245943
	H7451	H	0.594908	0.940940	0.246049
	H7452	H	0.590387	0.941746	0.240192
	H7453	H	0.530951	0.941643	0.382348
	H7454	H	0.531123	0.941903	0.382260
	H7455	H	0.531213	0.941158	0.382077
	Zn7456	Zn	0.534724	0.680525	0.303122
	Zn7457	Zn	0.534659	0.825570	0.303043
	Zn7458	Zn	0.534651	0.180392	0.303066
	Zn7459	Zn	0.534638	0.325355	0.303046
	Zn7460	Zn	0.530940	0.680488	0.382097
	Zn7461	Zn	0.530987	0.825272	0.382094
	Zn7462	Zn	0.530969	0.180603	0.382122
	Zn7463	Zn	0.531031	0.325278	0.382079
	C7464	C	0.587130	0.752839	0.300809
	C7465	C	0.541208	0.753386	0.321932
	C7466	C	0.537416	0.753443	0.332789
	C7467	C	0.535131	0.691195	0.337729
	C7468	C	0.535016	0.815536	0.337709
	C7469	C	0.541168	0.252855	0.321874
	C7470	C	0.537386	0.252725	0.332759
	C7471	C	0.535138	0.190495	0.337718
	C7472	C	0.535027	0.314781	0.337685
	C7473	C	0.549767	0.753236	0.288550
	C7474	C	0.557002	0.753189	0.279121
	C7475	C	0.560192	0.814965	0.274550
	C7476	C	0.560372	0.691328	0.274667
	C7477	C	0.549759	0.252665	0.288566
	C7478	C	0.556968	0.252671	0.279124
	C7479	C	0.560432	0.314718	0.274715
	C7480	C	0.560261	0.190786	0.274611
	C7481	C	0.592994	0.043242	0.316589
	C7482	C	0.592972	0.962609	0.316582
	C7483	C	0.527388	0.043570	0.307364
	C7484	C	0.527373	0.962618	0.307364
	C7485	C	0.543059	0.043382	0.306423
	C7486	C	0.543081	0.962658	0.306428
	C7487	C	0.532069	0.462748	0.299585
	C7488	C	0.597974	0.462292	0.318362
	C7489	C	0.592922	0.462683	0.323675
	C7490	C	0.532101	0.543279	0.299576
	C7491	C	0.592892	0.543169	0.323657
	C7492	C	0.597939	0.543488	0.318367
	C7493	C	0.578447	0.752794	0.334139
	C7494	C	0.578459	0.252723	0.334139
	C7495	C	0.571235	0.752704	0.343582
	C7496	C	0.567963	0.690860	0.348112
	C7497	C	0.567949	0.814685	0.348086
	C7498	C	0.571239	0.252841	0.343568
	C7499	C	0.567910	0.191042	0.348073
	C7500	C	0.567965	0.314650	0.348072
	C7501	C	0.587154	0.253081	0.300859
	C7502	C	0.603874	0.753348	0.259511
	C7503	C	0.578721	0.752793	0.252759
	C7504	C	0.524489	0.753331	0.363233
	C7505	C	0.593303	0.691093	0.285012
	C7506	C	0.593203	0.815370	0.285009
	C7507	C	0.600088	0.753417	0.270391
	C7508	C	0.570533	0.753010	0.261597
	C7509	C	0.567083	0.691254	0.266012
	C7510	C	0.597789	0.691244	0.275331
	C7511	C	0.597684	0.815546	0.275311
	C7512	C	0.566914	0.814828	0.265901
	C7513	C	0.590894	0.753084	0.289938
	C7514	C	0.549551	0.752983	0.369994
	C7515	C	0.561267	0.690923	0.356781
	C7516	C	0.561253	0.814802	0.356752
	C7517	C	0.557732	0.752851	0.361141
	C7518	C	0.533711	0.462517	0.382156
	C7519	C	0.595234	0.462256	0.237205
	C7520	C	0.529577	0.462380	0.379918
	C7521	C	0.533673	0.543546	0.382179
	C7522	C	0.529573	0.543228	0.379938
	C7523	C	0.595248	0.543103	0.237201
	C7524	C	0.549593	0.252948	0.370010
	C7525	C	0.561204	0.191087	0.356729
	C7526	C	0.561257	0.314799	0.356730
	C7527	C	0.557743	0.253037	0.361140
	C7528	C	0.597762	0.043252	0.244578
	C7529	C	0.603836	0.252419	0.259514
	C7530	C	0.578751	0.253044	0.252769
	C7531	C	0.524533	0.252790	0.363241
	C7532	C	0.593205	0.190365	0.284997
	C7533	C	0.593295	0.314744	0.285021
	C7534	C	0.600063	0.252512	0.270391
	C7535	C	0.570552	0.252926	0.261614
	C7536	C	0.528272	0.753259	0.352349
	C7537	C	0.530508	0.815413	0.347397
	C7538	C	0.530642	0.691106	0.347419
	C7539	C	0.528273	0.252647	0.352341
	C7540	C	0.530562	0.314751	0.347391
	C7541	C	0.530663	0.190445	0.347421
	C7542	C	0.566994	0.190915	0.265966
	C7543	C	0.597696	0.190217	0.275301
	C7544	C	0.597783	0.314708	0.275333
	C7545	C	0.567166	0.314877	0.266072
	C7546	C	0.590923	0.252646	0.289950
	C7547	C	0.531002	0.043650	0.382255
	C7548	C	0.593210	0.043242	0.238691
	C7549	C	0.597766	0.962190	0.244572
	C7550	C	0.530999	0.962719	0.382230
	C7551	C	0.593217	0.962707	0.238664
	N7552	N	0.534678	0.070079	0.303033
	N7553	N	0.534682	0.935537	0.303046
	N7554	N	0.534720	0.435801	0.303065
	N7555	N	0.534763	0.570411	0.303091
	N7556	N	0.530935	0.435564	0.382025
	N7557	N	0.530894	0.570200	0.382057
	N7558	N	0.530949	0.070213	0.382109
	N7559	N	0.530948	0.935542	0.382109
	O7560	O	0.582611	0.694801	0.436968
	O7561	O	0.582657	0.810799	0.436974
	O7562	O	0.480638	0.695099	0.456820
	O7563	O	0.480718	0.811141	0.456829
	O7564	O	0.480568	0.194923	0.456882
	O7565	O	0.480604	0.311173	0.456845
	O7566	O	0.483666	0.694756	0.435702
	O7567	O	0.483616	0.811459	0.435690
	O7568	O	0.483667	0.194747	0.435704
	O7569	O	0.483678	0.311284	0.435734
	O7570	O	0.583583	0.694841	0.459671
	O7571	O	0.583616	0.810740	0.459705
	O7572	O	0.583603	0.194932	0.459660
	O7573	O	0.583505	0.310649	0.459582
	O7574	O	0.582786	0.194991	0.436911
	O7575	O	0.582562	0.310846	0.437007
	O7576	O	0.543120	0.694787	0.394303
	O7577	O	0.518654	0.694978	0.392896
	O7578	O	0.545018	0.694654	0.499807
	O7579	O	0.545171	0.810719	0.499939
	O7580	O	0.520241	0.694854	0.499450
	O7581	O	0.520209	0.811128	0.499464
	O7582	O	0.518684	0.811357	0.392916
	O7583	O	0.543062	0.811032	0.394321
	O7584	O	0.542992	0.194847	0.394473
	O7585	O	0.518701	0.194946	0.392914
	O7586	O	0.545057	0.194461	0.499791
	O7587	O	0.545160	0.310422	0.499919
	O7588	O	0.520319	0.194929	0.499454
	O7589	O	0.520167	0.311145	0.499482
	O7590	O	0.518614	0.311151	0.392829
	O7591	O	0.543057	0.310934	0.394379
	H7592	H	0.493294	0.644699	0.470526
	H7593	H	0.493373	0.861296	0.470506
	H7594	H	0.493198	0.144124	0.470626
	H7595	H	0.493389	0.361879	0.470502
	H7596	H	0.495998	0.862600	0.422703
	H7597	H	0.495927	0.643722	0.422639
	H7598	H	0.496029	0.362434	0.422669
	H7599	H	0.495976	0.144021	0.422695
	H7600	H	0.596057	0.064818	0.446373
	H7601	H	0.593910	0.065088	0.446681
	H7602	H	0.593874	0.941951	0.446719
	H7603	H	0.595999	0.941410	0.446401
	H7604	H	0.598093	0.064537	0.448299
	H7605	H	0.598025	0.941496	0.448266
	H7606	H	0.465245	0.064721	0.446886
	H7607	H	0.465226	0.941176	0.446945
	H7608	H	0.468532	0.064378	0.448260
	H7609	H	0.468579	0.941233	0.448281
	H7610	H	0.472596	0.064679	0.446043
	H7611	H	0.472587	0.941238	0.446015
	H7612	H	0.463265	0.441202	0.445277
	H7613	H	0.465960	0.441157	0.448493
	H7614	H	0.465797	0.441448	0.440540
	H7615	H	0.595094	0.441439	0.450947
	H7616	H	0.592578	0.441283	0.448953
	H7617	H	0.593169	0.441523	0.446904
	H7618	H	0.465959	0.564364	0.448542
	H7619	H	0.463241	0.564667	0.445350
	H7620	H	0.593091	0.564565	0.446977
	H7621	H	0.592657	0.564871	0.448974
	H7622	H	0.595091	0.564936	0.450944
	H7623	H	0.465726	0.564518	0.440571
	H7624	H	0.571189	0.644708	0.472492
	H7625	H	0.571169	0.860474	0.472506
	H7626	H	0.571150	0.145252	0.472432
	H7627	H	0.571264	0.360194	0.472572
	H7628	H	0.507992	0.643768	0.407036
	H7629	H	0.555696	0.644848	0.408018
	H7630	H	0.555849	0.861394	0.407935
	H7631	H	0.508029	0.862685	0.407087
	H7632	H	0.569775	0.644460	0.423378
	H7633	H	0.569946	0.861343	0.423297
	H7634	H	0.557416	0.644581	0.486952
	H7635	H	0.557383	0.860638	0.486988
	H7636	H	0.534706	0.441490	0.383710
	H7637	H	0.532882	0.440614	0.513283
	H7638	H	0.530551	0.441459	0.385512
	H7639	H	0.527605	0.441121	0.383909
	H7640	H	0.535374	0.441556	0.510094
	H7641	H	0.535476	0.441125	0.512007
	H7642	H	0.532925	0.564415	0.513307
	H7643	H	0.534667	0.564765	0.383744
	H7644	H	0.535495	0.564524	0.512095
	H7645	H	0.535401	0.564720	0.510150
	H7646	H	0.527502	0.564520	0.383921
	H7647	H	0.530529	0.564393	0.385524
	H7648	H	0.557372	0.144858	0.486931
	H7649	H	0.557517	0.360298	0.487055
	H7650	H	0.530774	0.064290	0.381992
	H7651	H	0.530690	0.064421	0.382158
	H7652	H	0.531059	0.064268	0.381937
	H7653	H	0.507428	0.861296	0.485891
	H7654	H	0.507370	0.644624	0.485883
	H7655	H	0.507508	0.361547	0.485828
	H7656	H	0.507357	0.144302	0.485963
	H7657	H	0.508009	0.143938	0.407067
	H7658	H	0.555848	0.144707	0.408022
	H7659	H	0.555778	0.361311	0.407967
	H7660	H	0.508059	0.362379	0.407055
	H7661	H	0.569968	0.144689	0.423341
	H7662	H	0.569901	0.361224	0.423327
	H7663	H	0.532843	0.064522	0.508468
	H7664	H	0.530696	0.064490	0.509470
	H7665	H	0.530687	0.064481	0.512396
	H7666	H	0.530757	0.941436	0.382119
	H7667	H	0.530754	0.941211	0.382012
	H7668	H	0.531069	0.941147	0.381957
	H7669	H	0.532813	0.940956	0.508561
	H7670	H	0.530695	0.940990	0.509433
	H7671	H	0.530631	0.941194	0.512361
	Zn7672	Zn	0.468523	0.680306	0.444589
	Zn7673	Zn	0.468513	0.825318	0.444617
	Zn7674	Zn	0.468541	0.180227	0.444566
	Zn7675	Zn	0.468505	0.325422	0.444561
	Zn7676	Zn	0.533081	0.680225	0.511101
	Zn7677	Zn	0.533016	0.825622	0.511022
	Zn7678	Zn	0.533090	0.179952	0.511032
	Zn7679	Zn	0.532994	0.325678	0.510963
	C7680	C	0.579278	0.752804	0.433463
	C7681	C	0.484011	0.753048	0.460349
	C7682	C	0.492474	0.752944	0.469583
	C7683	C	0.496405	0.691699	0.473952
	C7684	C	0.496461	0.814295	0.473937
	C7685	C	0.483915	0.253044	0.460393
	C7686	C	0.492427	0.252922	0.469610
	C7687	C	0.496367	0.191486	0.474003
	C7688	C	0.496463	0.314428	0.473933
	C7689	C	0.487079	0.753134	0.432480
	C7690	C	0.495190	0.753108	0.423588
	C7691	C	0.498697	0.815093	0.419226
	C7692	C	0.498679	0.691266	0.419196
	C7693	C	0.487128	0.253057	0.432509
	C7694	C	0.495316	0.253169	0.423673
	C7695	C	0.498781	0.314904	0.419251
	C7696	C	0.498768	0.191447	0.419261
	C7697	C	0.595126	0.043561	0.447053
	C7698	C	0.595109	0.962643	0.447076
	C7699	C	0.467282	0.043218	0.446825
	C7700	C	0.467281	0.962465	0.446833
	C7701	C	0.471352	0.043513	0.444532
	C7702	C	0.471343	0.962538	0.444529
	C7703	C	0.465605	0.462572	0.446291
	C7704	C	0.596052	0.462691	0.450131
	C7705	C	0.593562	0.462706	0.448091
	C7706	C	0.465613	0.543406	0.446335
	C7707	C	0.593560	0.543401	0.448106
	C7708	C	0.596045	0.543626	0.450117
	C7709	C	0.580363	0.752762	0.463011
	C7710	C	0.580350	0.252805	0.462985
	C7711	C	0.572012	0.752667	0.471647
	C7712	C	0.568132	0.691588	0.475714
	C7713	C	0.568103	0.813643	0.475723
	C7714	C	0.572046	0.252715	0.471675
	C7715	C	0.568094	0.191796	0.475696
	C7716	C	0.568164	0.313552	0.475768
	C7717	C	0.579360	0.252871	0.433418
	C7718	C	0.546424	0.752934	0.397833
	C7719	C	0.515821	0.753140	0.396565
	C7720	C	0.516852	0.752931	0.495963
	C7721	C	0.566692	0.691644	0.419951
	C7722	C	0.566794	0.814295	0.419903
	C7723	C	0.554954	0.753055	0.407054
	C7724	C	0.508662	0.753191	0.406027
	C7725	C	0.505348	0.691367	0.410519
	C7726	C	0.558882	0.691801	0.411421
	C7727	C	0.558978	0.814357	0.411374
	C7728	C	0.505355	0.815053	0.410546
	C7729	C	0.570707	0.752892	0.424286
	C7730	C	0.548317	0.752689	0.496538
	C7731	C	0.560493	0.691440	0.483739
	C7732	C	0.560468	0.813812	0.483757
	C7733	C	0.556628	0.752648	0.487856
	C7734	C	0.532157	0.462261	0.512321
	C7735	C	0.529523	0.462534	0.384011
	C7736	C	0.534798	0.462484	0.511054
	C7737	C	0.532176	0.543368	0.512342
	C7738	C	0.534795	0.543335	0.511107
	C7739	C	0.529515	0.543212	0.384023
	C7740	C	0.548350	0.252506	0.496551
	C7741	C	0.560488	0.191672	0.483748
	C7742	C	0.560561	0.313520	0.483823
	C7743	C	0.556682	0.252556	0.487892
	C7744	C	0.530784	0.043229	0.382072
	C7745	C	0.546403	0.252953	0.397922
	C7746	C	0.515863	0.253099	0.396562
	C7747	C	0.516889	0.252911	0.495958
	C7748	C	0.566796	0.191739	0.419938
	C7749	C	0.566754	0.314192	0.419925
	C7750	C	0.554938	0.253031	0.407105
	C7751	C	0.508738	0.253165	0.406055
	C7752	C	0.508206	0.752921	0.486811
	C7753	C	0.504270	0.814318	0.482472
	C7754	C	0.504223	0.691617	0.482477
	C7755	C	0.508244	0.252842	0.486812
	C7756	C	0.504303	0.314430	0.482442
	C7757	C	0.504208	0.191447	0.482512
	C7758	C	0.505422	0.191467	0.410570
	C7759	C	0.558937	0.191760	0.411447
	C7760	C	0.558890	0.314360	0.411432
	C7761	C	0.505441	0.314927	0.410560
	C7762	C	0.570763	0.252913	0.424256
	C7763	C	0.532107	0.043396	0.509516
	C7764	C	0.531079	0.043469	0.382038
	C7765	C	0.530785	0.962601	0.382068
	C7766	C	0.532116	0.962326	0.509524
	C7767	C	0.531070	0.962584	0.382041
	N7768	N	0.468469	0.070084	0.444639
	N7769	N	0.468457	0.935516	0.444641
	N7770	N	0.468455	0.435700	0.444566
	N7771	N	0.468477	0.570285	0.444601
	N7772	N	0.533029	0.435635	0.510986
	N7773	N	0.533085	0.570177	0.511061
	N7774	N	0.533070	0.070137	0.511013
	N7775	N	0.533026	0.935670	0.511024
	O7776	O	0.592684	0.695195	0.559471
	O7777	O	0.592571	0.811023	0.559579
	O7778	O	0.484118	0.695309	0.584467
	O7779	O	0.484072	0.811270	0.584451
	O7780	O	0.484184	0.195165	0.584383
	O7781	O	0.484077	0.311320	0.584436
	O7782	O	0.482686	0.695005	0.562409
	O7783	O	0.482521	0.811048	0.562259
	O7784	O	0.482687	0.194873	0.562377
	O7785	O	0.482656	0.311050	0.562394
	O7786	O	0.594715	0.694674	0.581649
	O7787	O	0.594595	0.810522	0.581557
	O7788	O	0.594773	0.194899	0.581634
	O7789	O	0.594783	0.310795	0.581678
	O7790	O	0.592609	0.194930	0.559461
	O7791	O	0.592642	0.310841	0.559454
	O7792	O	0.546628	0.694945	0.521988
	O7793	O	0.521074	0.695340	0.522144
	O7794	O	0.555481	0.694593	0.621324
	O7795	O	0.555478	0.810232	0.621307
	O7796	O	0.530041	0.695354	0.622033
	O7797	O	0.530094	0.811361	0.621996
	O7798	O	0.521088	0.811139	0.522139
	O7799	O	0.546629	0.810848	0.521966
	O7800	O	0.546467	0.194652	0.522056
	O7801	O	0.521156	0.195205	0.522168
	O7802	O	0.555466	0.194677	0.621285
	O7803	O	0.555542	0.310877	0.621334
	O7804	O	0.530099	0.195262	0.621992
	O7805	O	0.530118	0.311335	0.621989
	O7806	O	0.521029	0.311177	0.522062
	O7807	O	0.546586	0.310731	0.521906
	H7808	H	0.498835	0.645358	0.596522
	H7809	H	0.498886	0.861467	0.596416
	H7810	H	0.498871	0.144798	0.596467
	H7811	H	0.498831	0.361894	0.596438
	H7812	H	0.494922	0.861342	0.549449
	H7813	H	0.494972	0.644947	0.549516
	H7814	H	0.495175	0.361189	0.549634
	H7815	H	0.494924	0.144909	0.549447
	H7816	H	0.607011	0.064171	0.570615
	H7817	H	0.607075	0.064554	0.570079
	H7818	H	0.607021	0.940895	0.570180
	H7819	H	0.606923	0.941403	0.570660
	H7820	H	0.606168	0.064329	0.570887
	H7821	H	0.606156	0.941189	0.570872
	H7822	H	0.468017	0.064640	0.574960
	H7823	H	0.467986	0.941048	0.575003
	H7824	H	0.470358	0.064674	0.576156
	H7825	H	0.470333	0.941285	0.576194
	H7826	H	0.473429	0.064733	0.574750
	H7827	H	0.473454	0.941507	0.574755
	H7828	H	0.469339	0.441559	0.571694
	H7829	H	0.468201	0.441571	0.573083
	H7830	H	0.472064	0.441144	0.571968
	H7831	H	0.606220	0.441130	0.571899
	H7832	H	0.604477	0.441172	0.570601
	H7833	H	0.604764	0.441062	0.569203
	H7834	H	0.468147	0.564736	0.573101
	H7835	H	0.469335	0.564464	0.571692
	H7836	H	0.604743	0.564882	0.569218
	H7837	H	0.604383	0.564307	0.570570
	H7838	H	0.606092	0.564588	0.571930
	H7839	H	0.472034	0.564710	0.571976
	H7840	H	0.582292	0.644564	0.594414
	H7841	H	0.582077	0.860669	0.594342
	H7842	H	0.582152	0.144469	0.594328
	H7843	H	0.582236	0.361204	0.594396
	H7844	H	0.508759	0.645019	0.535027
	H7845	H	0.561375	0.645022	0.533976
	H7846	H	0.561322	0.861173	0.534060
	H7847	H	0.508705	0.861558	0.534991
	H7848	H	0.577870	0.645023	0.547474
	H7849	H	0.577837	0.861135	0.547547
	H7850	H	0.568150	0.644490	0.608652
	H7851	H	0.567943	0.860280	0.608548
	H7852	H	0.530832	0.440927	0.512267
	H7853	H	0.545199	0.440963	0.630631
	H7854	H	0.530747	0.441903	0.509629
	H7855	H	0.532662	0.441784	0.508707
	H7856	H	0.540858	0.441442	0.632691
	H7857	H	0.541935	0.441097	0.630821
	H7858	H	0.545163	0.564549	0.630633
	H7859	H	0.530953	0.564774	0.512303
	H7860	H	0.541887	0.564673	0.630798
	H7861	H	0.540913	0.564880	0.632661
	H7862	H	0.532762	0.564564	0.508780
	H7863	H	0.530841	0.564739	0.509709
	H7864	H	0.568002	0.144348	0.608509
	H7865	H	0.568075	0.361248	0.608596
	H7866	H	0.535717	0.064188	0.512255
	H7867	H	0.535747	0.064118	0.510083
	H7868	H	0.532811	0.064393	0.513528
	H7869	H	0.515415	0.861392	0.609875
	H7870	H	0.515313	0.645252	0.610004
	H7871	H	0.515299	0.362305	0.609963
	H7872	H	0.515320	0.144645	0.609985
	H7873	H	0.508637	0.145011	0.534918
	H7874	H	0.561389	0.144211	0.533918
	H7875	H	0.561266	0.361718	0.534049
	H7876	H	0.508901	0.361441	0.535118
	H7877	H	0.577919	0.144437	0.547394
	H7878	H	0.577767	0.361507	0.547513
	H7879	H	0.543923	0.064337	0.632588
	H7880	H	0.543828	0.064341	0.632571
	H7881	H	0.543747	0.064612	0.632721
	H7882	H	0.535718	0.941099	0.510135
	H7883	H	0.535669	0.940919	0.512236
	H7884	H	0.532736	0.941317	0.513556
	H7885	H	0.543964	0.941119	0.632583
	H7886	H	0.543868	0.941386	0.632597
	H7887	H	0.543777	0.941192	0.632713
	Zn7888	Zn	0.470585	0.680345	0.573527
	Zn7889	Zn	0.470566	0.825654	0.573523
	Zn7890	Zn	0.470589	0.180194	0.573539
	Zn7891	Zn	0.470546	0.325658	0.573526
	Zn7892	Zn	0.543761	0.680158	0.632711
	Zn7893	Zn	0.543866	0.825726	0.632727
	Zn7894	Zn	0.543795	0.180156	0.632707
	Zn7895	Zn	0.543850	0.325636	0.632752
	C7896	C	0.588779	0.753125	0.556407
	C7897	C	0.487938	0.753365	0.587567
	C7898	C	0.497877	0.753494	0.595668
	C7899	C	0.502516	0.692292	0.599496
	C7900	C	0.502549	0.814648	0.599429
	C7901	C	0.487926	0.253276	0.587562
	C7902	C	0.497829	0.253334	0.595702
	C7903	C	0.502509	0.191897	0.599497
	C7904	C	0.502495	0.314815	0.599486
	C7905	C	0.485822	0.752998	0.559006
	C7906	C	0.494151	0.753157	0.550343
	C7907	C	0.498010	0.814444	0.546241
	C7908	C	0.498042	0.691845	0.546282
	C7909	C	0.485905	0.252986	0.559066
	C7910	C	0.494217	0.253057	0.550373
	C7911	C	0.498145	0.314314	0.546331
	C7912	C	0.498020	0.191902	0.546234
	C7913	C	0.606856	0.043134	0.570342
	C7914	C	0.606824	0.962483	0.570356
	C7915	C	0.469557	0.043271	0.575037
	C7916	C	0.469536	0.962530	0.575054
	C7917	C	0.472645	0.043405	0.573591
	C7918	C	0.472654	0.962703	0.573594
	C7919	C	0.469221	0.462701	0.572685
	C7920	C	0.606777	0.462447	0.571285
	C7921	C	0.605048	0.462355	0.569994
	C7922	C	0.469225	0.543395	0.572693
	C7923	C	0.605029	0.543339	0.569979
	C7924	C	0.606740	0.543295	0.571312
	C7925	C	0.591403	0.752628	0.584915
	C7926	C	0.591508	0.252789	0.584957
	C7927	C	0.582946	0.752539	0.593494
	C7928	C	0.579058	0.691392	0.597545
	C7929	C	0.578928	0.813618	0.597496
	C7930	C	0.583046	0.252819	0.593524
	C7931	C	0.579036	0.191469	0.597509
	C7932	C	0.579075	0.314126	0.597547
	C7933	C	0.588773	0.252873	0.556336
	C7934	C	0.550454	0.752948	0.525108
	C7935	C	0.517834	0.753268	0.525467
	C7936	C	0.526249	0.753329	0.618890
	C7937	C	0.574198	0.692040	0.544476
	C7938	C	0.574165	0.814243	0.544532
	C7939	C	0.560369	0.753079	0.533218
	C7940	C	0.509520	0.753300	0.534129
	C7941	C	0.505675	0.692035	0.538246
	C7942	C	0.565050	0.691973	0.536997
	C7943	C	0.565017	0.814252	0.537047
	C7944	C	0.505630	0.814440	0.538201
	C7945	C	0.578837	0.753109	0.548312
	C7946	C	0.558737	0.752413	0.618009
	C7947	C	0.571266	0.691316	0.605472
	C7948	C	0.571154	0.813531	0.605426
	C7949	C	0.567198	0.752355	0.609450
	C7950	C	0.545396	0.462377	0.631829
	C7951	C	0.532051	0.462871	0.509657
	C7952	C	0.542039	0.462547	0.631991
	C7953	C	0.545364	0.543084	0.631814
	C7954	C	0.542051	0.543448	0.631988
	C7955	C	0.532079	0.543382	0.509717
	C7956	C	0.558789	0.252754	0.618026
	C7957	C	0.571221	0.191418	0.605415
	C7958	C	0.571261	0.314179	0.605458
	C7959	C	0.567286	0.252786	0.609474
	C7960	C	0.535042	0.043079	0.511132
	C7961	C	0.550372	0.252776	0.525101
	C7962	C	0.517893	0.253237	0.525471
	C7963	C	0.526237	0.253345	0.618893
	C7964	C	0.574196	0.191582	0.544425
	C7965	C	0.574118	0.314335	0.544496
	C7966	C	0.560323	0.252916	0.533175
	C7967	C	0.509573	0.253205	0.534139
	C7968	C	0.516326	0.753401	0.610767
	C7969	C	0.511702	0.814585	0.606908
	C7970	C	0.511666	0.692187	0.606977
	C7971	C	0.516271	0.253449	0.610827
	C7972	C	0.511637	0.314970	0.606976
	C7973	C	0.511650	0.191886	0.606980
	C7974	C	0.505623	0.191930	0.538182
	C7975	C	0.565037	0.191538	0.536942
	C7976	C	0.564967	0.314374	0.537012
	C7977	C	0.505756	0.314431	0.538272
	C7978	C	0.578824	0.252888	0.548249
	C7979	C	0.543863	0.043026	0.632629
	C7980	C	0.532081	0.043135	0.512474
	C7981	C	0.534997	0.962402	0.511157
	C7982	C	0.543904	0.962442	0.632631
	C7983	C	0.532044	0.962432	0.512448
	N7984	N	0.470541	0.070093	0.573518
	N7985	N	0.470540	0.935607	0.573520
	N7986	N	0.470580	0.435629	0.573515
	N7987	N	0.470585	0.570198	0.573508
	N7988	N	0.543797	0.435498	0.632786
	N7989	N	0.543768	0.569980	0.632767
	N7990	N	0.543870	0.070138	0.632705
	N7991	N	0.543914	0.935647	0.632718
	O7992	O	0.605422	0.694505	0.679229
	O7993	O	0.605445	0.810613	0.679155
	O7994	O	0.495177	0.695377	0.705808
	O7995	O	0.495291	0.811355	0.705641
	O7996	O	0.495290	0.194645	0.705718
	O7997	O	0.495203	0.310664	0.705804
	O7998	O	0.493001	0.695183	0.683775
	O7999	O	0.493128	0.811138	0.683850
	O8000	O	0.493004	0.194989	0.683831
	O8001	O	0.492907	0.310908	0.683792
	O8002	O	0.607771	0.695023	0.701125
	O8003	O	0.607794	0.811017	0.701138
	O8004	O	0.607884	0.195281	0.701218
	O8005	O	0.607791	0.311270	0.701179
	O8006	O	0.605417	0.194471	0.679284
	O8007	O	0.605385	0.310129	0.679268
	O8008	O	0.557708	0.694522	0.643238
	O8009	O	0.532188	0.695499	0.644105
	O8010	O	0.568512	0.694938	0.740761
	O8011	O	0.568387	0.810928	0.740683
	O8012	O	0.542861	0.694915	0.741727
	O8013	O	0.542910	0.811248	0.741634
	O8014	O	0.532230	0.811318	0.644121
	O8015	O	0.557762	0.810348	0.643303
	O8016	O	0.557796	0.194477	0.643199
	O8017	O	0.532202	0.195114	0.644120
	O8018	O	0.568369	0.195197	0.740646
	O8019	O	0.568489	0.311291	0.740740
	O8020	O	0.542970	0.194584	0.741650
	O8021	O	0.542897	0.310721	0.741686
	O8022	O	0.532207	0.310990	0.644152
	O8023	O	0.557788	0.310333	0.643259
	H8024	H	0.510503	0.644975	0.717294
	H8025	H	0.510529	0.861792	0.717249
	H8026	H	0.510441	0.143990	0.717363
	H8027	H	0.510542	0.361502	0.717312
	H8028	H	0.505522	0.861251	0.671019
	H8029	H	0.505709	0.645525	0.671191
	H8030	H	0.505670	0.360979	0.671173
	H8031	H	0.505466	0.145097	0.671060
	H8032	H	0.618554	0.064656	0.687900
	H8033	H	0.617234	0.064362	0.689059
	H8034	H	0.617178	0.940812	0.689045
	H8035	H	0.618510	0.941311	0.687858
	H8036	H	0.621152	0.064985	0.688476
	H8037	H	0.621133	0.941431	0.688496
	H8038	H	0.479976	0.064547	0.697214
	H8039	H	0.480023	0.940809	0.697196
	H8040	H	0.482293	0.064597	0.697402
	H8041	H	0.482280	0.941355	0.697394
	H8042	H	0.483946	0.064630	0.695203
	H8043	H	0.483999	0.941615	0.695214
	H8044	H	0.479203	0.441124	0.695761
	H8045	H	0.480487	0.441332	0.696904
	H8046	H	0.479844	0.441147	0.693705
	H8047	H	0.621229	0.441376	0.688807
	H8048	H	0.620976	0.441201	0.690893
	H8049	H	0.619339	0.441096	0.691491
	H8050	H	0.480451	0.564553	0.696848
	H8051	H	0.479177	0.564442	0.695685
	H8052	H	0.619364	0.564561	0.691508
	H8053	H	0.621018	0.564708	0.690934
	H8054	H	0.621283	0.564517	0.688856
	H8055	H	0.479931	0.564669	0.693697
	H8056	H	0.595174	0.645070	0.713867
	H8057	H	0.595183	0.860805	0.713805
	H8058	H	0.595141	0.145469	0.713807
	H8059	H	0.595205	0.361345	0.713850
	H8060	H	0.519788	0.645567	0.656916
	H8061	H	0.573026	0.644179	0.654754
	H8062	H	0.573007	0.860594	0.654853
	H8063	H	0.519610	0.861049	0.656748
	H8064	H	0.590109	0.644026	0.667662
	H8065	H	0.590072	0.860690	0.667743
	H8066	H	0.581077	0.645212	0.728099
	H8067	H	0.581076	0.860854	0.728046
	H8068	H	0.546648	0.441275	0.632338
	H8069	H	0.559432	0.441537	0.752030
	H8070	H	0.545299	0.441252	0.634954
	H8071	H	0.542862	0.441196	0.635082
	H8072	H	0.555364	0.440808	0.750394
	H8073	H	0.557453	0.441630	0.750053
	H8074	H	0.559456	0.564827	0.752043
	H8075	H	0.546587	0.564330	0.632358
	H8076	H	0.557495	0.564889	0.750023
	H8077	H	0.555257	0.565298	0.750340
	H8078	H	0.542849	0.564594	0.635027
	H8079	H	0.545263	0.564479	0.634902
	H8080	H	0.580991	0.145454	0.728017
	H8081	H	0.581019	0.361401	0.728035
	H8082	H	0.543912	0.064404	0.632809
	H8083	H	0.543958	0.064467	0.632731
	H8084	H	0.543793	0.064486	0.632817
	H8085	H	0.527623	0.861430	0.730182
	H8086	H	0.527581	0.644831	0.730204
	H8087	H	0.527684	0.361192	0.730165
	H8088	H	0.527542	0.144155	0.730249
	H8089	H	0.519562	0.145040	0.656818
	H8090	H	0.573056	0.144387	0.654791
	H8091	H	0.573099	0.359847	0.654738
	H8092	H	0.519752	0.360833	0.656927
	H8093	H	0.590080	0.144205	0.667742
	H8094	H	0.590147	0.360055	0.667687
	H8095	H	0.557713	0.064824	0.752718
	H8096	H	0.557894	0.064686	0.751986
	H8097	H	0.557014	0.064770	0.751317
	H8098	H	0.544052	0.940769	0.632775
	H8099	H	0.543953	0.941019	0.632843
	H8100	H	0.543848	0.941073	0.632826
	H8101	H	0.557714	0.941373	0.752700
	H8102	H	0.557837	0.941622	0.752017
	H8103	H	0.556973	0.941641	0.751379
	Zn8104	Zn	0.481364	0.680193	0.695158
	Zn8105	Zn	0.481327	0.825670	0.695166
	Zn8106	Zn	0.481311	0.180216	0.695208
	Zn8107	Zn	0.481280	0.325713	0.695259
	Zn8108	Zn	0.556840	0.680141	0.752182
	Zn8109	Zn	0.556840	0.825863	0.752206
	Zn8110	Zn	0.556934	0.180134	0.752173
	Zn8111	Zn	0.556877	0.325900	0.752192
	C8112	C	0.601463	0.752478	0.676191
	C8113	C	0.499213	0.753428	0.708715
	C8114	C	0.509461	0.753420	0.716526
	C8115	C	0.514294	0.692061	0.720181
	C8116	C	0.514305	0.814639	0.720156
	C8117	C	0.499200	0.252680	0.708773
	C8118	C	0.509505	0.252749	0.716525
	C8119	C	0.514299	0.191233	0.720192
	C8120	C	0.514358	0.314271	0.720151
	C8121	C	0.496342	0.753148	0.680524
	C8122	C	0.504798	0.753312	0.671955
	C8123	C	0.508706	0.814356	0.667875
	C8124	C	0.508803	0.692309	0.667982
	C8125	C	0.496247	0.252998	0.680523
	C8126	C	0.504738	0.253047	0.671972
	C8127	C	0.508772	0.314100	0.667989
	C8128	C	0.508673	0.191937	0.667932
	C8129	C	0.618292	0.043245	0.688808
	C8130	C	0.618270	0.962457	0.688793
	C8131	C	0.481164	0.043377	0.696769
	C8132	C	0.481166	0.962370	0.696755
	C8133	C	0.482873	0.043282	0.694543
	C8134	C	0.482882	0.962691	0.694532
	C8135	C	0.480190	0.462374	0.696033
	C8136	C	0.620207	0.462539	0.688713
	C8137	C	0.619949	0.462406	0.690803
	C8138	C	0.480205	0.543184	0.695996
	C8139	C	0.619988	0.543380	0.690822
	C8140	C	0.620230	0.543312	0.688711
	C8141	C	0.604508	0.753025	0.704421
	C8142	C	0.604559	0.253240	0.704480
	C8143	C	0.596035	0.752990	0.713003
	C8144	C	0.592062	0.691857	0.717031
	C8145	C	0.592064	0.814063	0.717001
	C8146	C	0.596046	0.253338	0.712997
	C8147	C	0.592020	0.192293	0.716987
	C8148	C	0.592054	0.314534	0.717013
	C8149	C	0.601428	0.252252	0.676278
	C8150	C	0.561704	0.752305	0.646259
	C8151	C	0.528952	0.753428	0.647407
	C8152	C	0.538946	0.753046	0.738685
	C8153	C	0.586293	0.691096	0.664812
	C8154	C	0.586297	0.813675	0.664853
	C8155	C	0.571987	0.752312	0.654017
	C8156	C	0.520505	0.753290	0.655984
	C8157	C	0.516598	0.692302	0.660060
	C8158	C	0.576819	0.691108	0.657644
	C8159	C	0.576816	0.813541	0.657692
	C8160	C	0.516511	0.814320	0.659958
	C8161	C	0.591154	0.752405	0.668446
	C8162	C	0.571742	0.752939	0.737451
	C8163	C	0.584236	0.691928	0.724929
	C8164	C	0.584246	0.814033	0.724902
	C8165	C	0.580271	0.752958	0.728932
	C8166	C	0.558475	0.462475	0.752695
	C8167	C	0.544012	0.462387	0.634417
	C8168	C	0.556518	0.462553	0.750725
	C8169	C	0.558492	0.543455	0.752709
	C8170	C	0.556512	0.543595	0.750713
	C8171	C	0.543990	0.543205	0.634369
	C8172	C	0.571718	0.253277	0.737415
	C8173	C	0.584173	0.192273	0.724864
	C8174	C	0.584197	0.314581	0.724882
	C8175	C	0.580233	0.253373	0.728884
	C8176	C	0.543922	0.043313	0.632774
	C8177	C	0.561763	0.252303	0.646230
	C8178	C	0.528932	0.253018	0.647432
	C8179	C	0.538943	0.252640	0.738706
	C8180	C	0.586326	0.191133	0.664828
	C8181	C	0.586368	0.313146	0.664802
	C8182	C	0.572041	0.252166	0.653998
	C8183	C	0.520477	0.252924	0.656002
	C8184	C	0.528616	0.753122	0.730961
	C8185	C	0.523782	0.814438	0.727324
	C8186	C	0.523772	0.691909	0.727343
	C8187	C	0.528658	0.252645	0.730943
	C8188	C	0.523860	0.314147	0.727291
	C8189	C	0.523789	0.191243	0.727340
	C8190	C	0.516441	0.191891	0.659989
	C8191	C	0.576854	0.191176	0.657662
	C8192	C	0.576895	0.313141	0.657636
	C8193	C	0.516558	0.314011	0.660059
	C8194	C	0.591165	0.252131	0.668495
	C8195	C	0.557564	0.043527	0.752309
	C8196	C	0.543790	0.043341	0.632760
	C8197	C	0.543952	0.962323	0.632774
	C8198	C	0.557547	0.962730	0.752316
	C8199	C	0.543811	0.962442	0.632767
	N8200	N	0.481287	0.070201	0.695198
	N8201	N	0.481313	0.935696	0.695182
	N8202	N	0.481221	0.435569	0.695214
	N8203	N	0.481242	0.570082	0.695172
	N8204	N	0.556895	0.435797	0.752173
	N8205	N	0.556892	0.570269	0.752185
	N8206	N	0.556908	0.070220	0.752171
	N8207	N	0.556894	0.935759	0.752184
	O8208	O	0.618769	0.694940	0.798429
	O8209	O	0.618699	0.811035	0.798400
	O8210	O	0.508508	0.694634	0.825146
	O8211	O	0.508331	0.810528	0.825303
	O8212	O	0.508457	0.194617	0.825182
	O8213	O	0.508541	0.310573	0.825037
	O8214	O	0.506094	0.694706	0.803347
	O8215	O	0.505993	0.810705	0.803260
	O8216	O	0.505837	0.194730	0.803146
	O8217	O	0.505909	0.310742	0.803164
	O8218	O	0.621228	0.695222	0.820430
	O8219	O	0.621236	0.811327	0.820368
	O8220	O	0.621295	0.194480	0.820443
	O8221	O	0.621269	0.310655	0.820377
	O8222	O	0.618673	0.194896	0.798469
	O8223	O	0.618672	0.311046	0.798440
	O8224	O	0.570935	0.694589	0.762634
	O8225	O	0.545125	0.694600	0.763553
	O8226	O	0.581858	0.694802	0.859892
	O8227	O	0.581765	0.810802	0.859925
	O8228	O	0.556278	0.694702	0.860924
	O8229	O	0.556208	0.810638	0.861016
	O8230	O	0.545294	0.810643	0.763669
	O8231	O	0.570808	0.810725	0.762705
	O8232	O	0.570923	0.194680	0.762655
	O8233	O	0.545438	0.194657	0.763718
	O8234	O	0.581932	0.194408	0.859999
	O8235	O	0.581771	0.310309	0.859901
	O8236	O	0.556150	0.194697	0.861116
	O8237	O	0.556364	0.310485	0.860944
	O8238	O	0.545288	0.310444	0.763622
	O8239	O	0.570954	0.310644	0.762555
	H8240	H	0.523866	0.644362	0.836626
	H8241	H	0.523765	0.860559	0.836625
	H8242	H	0.523745	0.144397	0.836663
	H8243	H	0.523868	0.360915	0.836615
	H8244	H	0.518615	0.860217	0.790641
	H8245	H	0.518517	0.644541	0.790527
	H8246	H	0.518655	0.360793	0.790584
	H8247	H	0.518543	0.144522	0.790534
	H8248	H	0.632111	0.064578	0.808835
	H8249	H	0.632298	0.064793	0.809272
	H8250	H	0.632372	0.940963	0.809272
	H8251	H	0.632130	0.941299	0.808826
	H8252	H	0.632514	0.064208	0.808358
	H8253	H	0.632509	0.941173	0.808318
	H8254	H	0.494355	0.064616	0.815839
	H8255	H	0.494336	0.941467	0.815768
	H8256	H	0.495424	0.064760	0.815523
	H8257	H	0.495369	0.941241	0.815528
	H8258	H	0.495651	0.065026	0.814271
	H8259	H	0.495674	0.941580	0.814332
	H8260	H	0.493141	0.441498	0.815377
	H8261	H	0.494217	0.441171	0.815983
	H8262	H	0.493184	0.441760	0.813856
	H8263	H	0.630718	0.441329	0.809618
	H8264	H	0.631174	0.441176	0.807486
	H8265	H	0.632872	0.441036	0.806984
	H8266	H	0.494219	0.564993	0.816110
	H8267	H	0.493089	0.564488	0.815429
	H8268	H	0.632934	0.564236	0.807058
	H8269	H	0.631147	0.564537	0.807569
	H8270	H	0.630666	0.565032	0.809550
	H8271	H	0.493204	0.564739	0.813829
	H8272	H	0.608613	0.644932	0.833045
	H8273	H	0.608679	0.861594	0.833130
	H8274	H	0.608436	0.144296	0.832972
	H8275	H	0.608697	0.361190	0.833136
	H8276	H	0.532542	0.644528	0.776232
	H8277	H	0.586154	0.644343	0.774290
	H8278	H	0.586288	0.861094	0.774020
	H8279	H	0.532660	0.860542	0.776372
	H8280	H	0.603288	0.644748	0.787143
	H8281	H	0.603479	0.860879	0.786857
	H8282	H	0.594457	0.644714	0.847246
	H8283	H	0.594519	0.861321	0.847353
	H8284	H	0.558685	0.441003	0.753750
	H8285	H	0.570392	0.441281	0.872224
	H8286	H	0.555752	0.441590	0.754157
	H8287	H	0.554370	0.441229	0.752702
	H8288	H	0.571038	0.440705	0.870947
	H8289	H	0.571184	0.440928	0.871601
	H8290	H	0.570411	0.564604	0.872182
	H8291	H	0.558762	0.564522	0.753762
	H8292	H	0.571174	0.563893	0.871610
	H8293	H	0.570998	0.564829	0.870932
	H8294	H	0.554306	0.564474	0.752711
	H8295	H	0.555774	0.563877	0.754188
	H8296	H	0.594284	0.144265	0.847148
	H8297	H	0.594505	0.361087	0.847301
	H8298	H	0.556040	0.064221	0.752521
	H8299	H	0.556673	0.064600	0.752991
	H8300	H	0.556231	0.064460	0.751557
	H8301	H	0.540931	0.861125	0.849448
	H8302	H	0.541014	0.644518	0.849416
	H8303	H	0.540990	0.360706	0.849514
	H8304	H	0.540867	0.144248	0.849544
	H8305	H	0.532723	0.144581	0.776344
	H8306	H	0.586151	0.144644	0.774164
	H8307	H	0.586166	0.361083	0.774149
	H8308	H	0.532781	0.360672	0.776363
	H8309	H	0.603348	0.144571	0.787008
	H8310	H	0.603319	0.361178	0.786987
	H8311	H	0.570013	0.064548	0.872414
	H8312	H	0.570989	0.064652	0.872305
	H8313	H	0.571463	0.064383	0.871207
	H8314	H	0.556662	0.941120	0.752955
	H8315	H	0.556018	0.941200	0.752522
	H8316	H	0.556277	0.941313	0.751582
	H8317	H	0.570042	0.941272	0.872484
	H8318	H	0.571010	0.940822	0.872315
	H8319	H	0.571497	0.941323	0.871248
	Zn8320	Zn	0.494409	0.680247	0.814766
	Zn8321	Zn	0.494429	0.825757	0.814713
	Zn8322	Zn	0.494384	0.180238	0.814724
	Zn8323	Zn	0.494378	0.325589	0.814667
	Zn8324	Zn	0.570287	0.680085	0.871415
	Zn8325	Zn	0.570250	0.825249	0.871489
	Zn8326	Zn	0.570325	0.180129	0.871431
	Zn8327	Zn	0.570264	0.325277	0.871454
	C8328	C	0.614782	0.752903	0.795406
	C8329	C	0.512405	0.752567	0.828205
	C8330	C	0.522719	0.752576	0.835919
	C8331	C	0.527622	0.691391	0.839497
	C8332	C	0.527583	0.813799	0.839506
	C8333	C	0.512464	0.252652	0.828123
	C8334	C	0.522739	0.252728	0.835887
	C8335	C	0.527575	0.191451	0.839523
	C8336	C	0.527641	0.313813	0.839509
	C8337	C	0.509326	0.752671	0.800013
	C8338	C	0.517796	0.752483	0.791444
	C8339	C	0.521738	0.813543	0.787439
	C8340	C	0.521685	0.691322	0.787372
	C8341	C	0.509166	0.252713	0.799876
	C8342	C	0.517714	0.252599	0.791377
	C8343	C	0.521757	0.313869	0.787397
	C8344	C	0.521713	0.191424	0.787383
	C8345	C	0.632360	0.043262	0.809029
	C8346	C	0.632386	0.962386	0.809021
	C8347	C	0.494790	0.043362	0.815409
	C8348	C	0.494766	0.962645	0.815397
	C8349	C	0.495050	0.043441	0.814160
	C8350	C	0.495057	0.962851	0.814180
	C8351	C	0.493866	0.462565	0.815443
	C8352	C	0.631723	0.462392	0.809773
	C8353	C	0.632181	0.462450	0.807663
	C8354	C	0.493856	0.543356	0.815482
	C8355	C	0.632199	0.543036	0.807712
	C8356	C	0.631731	0.543328	0.809811
	C8357	C	0.617985	0.753362	0.823706
	C8358	C	0.617988	0.252613	0.823681
	C8359	C	0.609448	0.753358	0.832233
	C8360	C	0.605440	0.691903	0.836202
	C8361	C	0.605464	0.814631	0.836251
	C8362	C	0.609430	0.252710	0.832202
	C8363	C	0.605364	0.191384	0.836167
	C8364	C	0.605497	0.314116	0.836236
	C8365	C	0.614668	0.252870	0.795509
	C8366	C	0.574874	0.752680	0.765615
	C8367	C	0.541957	0.752642	0.766914
	C8368	C	0.552264	0.752710	0.857977
	C8369	C	0.599521	0.691537	0.784183
	C8370	C	0.599608	0.814061	0.784015
	C8371	C	0.585216	0.752736	0.773323
	C8372	C	0.533496	0.752586	0.775474
	C8373	C	0.529473	0.691390	0.779445
	C8374	C	0.589999	0.691479	0.777062
	C8375	C	0.590068	0.814038	0.776908
	C8376	C	0.529542	0.813577	0.779524
	C8377	C	0.604442	0.752873	0.787675
	C8378	C	0.585118	0.752906	0.856632
	C8379	C	0.597586	0.691852	0.844082
	C8380	C	0.597607	0.814343	0.844133
	C8381	C	0.593599	0.753015	0.848102
	C8382	C	0.570078	0.462391	0.871927
	C8383	C	0.555530	0.462695	0.753089
	C8384	C	0.570893	0.462247	0.871314
	C8385	C	0.570074	0.543221	0.871898
	C8386	C	0.570882	0.543060	0.871276
	C8387	C	0.555528	0.543116	0.753115
	C8388	C	0.585086	0.252382	0.856626
	C8389	C	0.597492	0.191293	0.844034
	C8390	C	0.597626	0.314078	0.844112
	C8391	C	0.593565	0.252667	0.848062
	C8392	C	0.556498	0.043319	0.752591
	C8393	C	0.574898	0.252708	0.765590
	C8394	C	0.542089	0.252505	0.766974
	C8395	C	0.552260	0.252608	0.858055
	C8396	C	0.599528	0.191535	0.784129
	C8397	C	0.599535	0.314164	0.784109
	C8398	C	0.585209	0.252760	0.773329
	C8399	C	0.533610	0.252548	0.775527
	C8400	C	0.541946	0.752804	0.850257
	C8401	C	0.537102	0.813962	0.846626
	C8402	C	0.537141	0.691538	0.846612
	C8403	C	0.541918	0.252542	0.850336
	C8404	C	0.537135	0.313747	0.846668
	C8405	C	0.537068	0.191319	0.846682
	C8406	C	0.529597	0.191433	0.779528
	C8407	C	0.590030	0.191586	0.776975
	C8408	C	0.590028	0.314067	0.776967
	C8409	C	0.529641	0.313835	0.779541
	C8410	C	0.604366	0.252790	0.787754
	C8411	C	0.570459	0.043416	0.872136
	C8412	C	0.556704	0.043392	0.751626
	C8413	C	0.556510	0.962403	0.752594
	C8414	C	0.570444	0.962240	0.872151
	C8415	C	0.556708	0.962623	0.751647
	N8416	N	0.494469	0.070221	0.814719
	N8417	N	0.494462	0.935700	0.814735
	N8418	N	0.494415	0.435651	0.814688
	N8419	N	0.494443	0.570174	0.814756
	N8420	N	0.570270	0.435404	0.871431
	N8421	N	0.570258	0.569969	0.871394
	N8422	N	0.570304	0.069949	0.871427
	N8423	N	0.570296	0.935354	0.871467
	O8424	O	0.632100	0.694587	0.917698
	O8425	O	0.632073	0.810585	0.917796
	O8426	O	0.521987	0.694263	0.944401
	O8427	O	0.522039	0.810547	0.944403
	O8428	O	0.522020	0.194412	0.944385
	O8429	O	0.521989	0.310466	0.944433
	O8430	O	0.519451	0.694876	0.922498
	O8431	O	0.519342	0.811130	0.922457
	O8432	O	0.519284	0.194822	0.922390
	O8433	O	0.519398	0.310625	0.922476
	O8434	O	0.634561	0.694483	0.939709
	O8435	O	0.634559	0.810402	0.939715
	O8436	O	0.634573	0.194284	0.939718
	O8437	O	0.634573	0.310434	0.939706
	O8438	O	0.632068	0.194569	0.917779
	O8439	O	0.632135	0.310624	0.917775
	O8440	O	0.584361	0.694747	0.881837
	O8441	O	0.558807	0.695023	0.882958
	O8442	O	0.595303	0.694838	0.979420
	O8443	O	0.595227	0.810943	0.979270
	O8444	O	0.569682	0.694487	0.980362
	O8445	O	0.569797	0.810751	0.980257
	O8446	O	0.558659	0.811048	0.882896
	O8447	O	0.584380	0.810962	0.881862
	O8448	O	0.584368	0.195031	0.881884
	O8449	O	0.558720	0.194890	0.882894
	O8450	O	0.595344	0.194886	0.979419
	O8451	O	0.595308	0.310712	0.979265
	O8452	O	0.569681	0.194683	0.980395
	O8453	O	0.569796	0.310555	0.980242
	O8454	O	0.558787	0.310752	0.883023
	O8455	O	0.584255	0.311183	0.881980
	H8456	H	0.537278	0.643575	0.955930
	H8457	H	0.537219	0.861117	0.955955
	H8458	H	0.537273	0.143778	0.955926
	H8459	H	0.537252	0.360799	0.955959
	H8460	H	0.532030	0.861215	0.909856
	H8461	H	0.532048	0.644780	0.909836
	H8462	H	0.531967	0.361046	0.909816
	H8463	H	0.532072	0.144475	0.909841
	H8464	H	0.644168	0.064628	0.927239
	H8465	H	0.644097	0.064483	0.928825
	H8466	H	0.643969	0.941196	0.928774
	H8467	H	0.644141	0.940895	0.927186
	H8468	H	0.646470	0.064490	0.926307
	H8469	H	0.646489	0.941002	0.926325
	H8470	H	0.506795	0.064743	0.934258
	H8471	H	0.506717	0.941618	0.934255
	H8472	H	0.507480	0.064758	0.934964
	H8473	H	0.507478	0.941493	0.934950
	H8474	H	0.508824	0.064352	0.934759
	H8475	H	0.508807	0.941281	0.934733
	H8476	H	0.508262	0.441364	0.932438
	H8477	H	0.506813	0.440938	0.932759
	H8478	H	0.509757	0.441540	0.933814
	H8479	H	0.644924	0.441246	0.930240
	H8480	H	0.643358	0.441070	0.927880
	H8481	H	0.644604	0.440815	0.926221
	H8482	H	0.506763	0.564484	0.932763
	H8483	H	0.508257	0.564014	0.932471
	H8484	H	0.644473	0.564421	0.926229
	H8485	H	0.643350	0.564264	0.927848
	H8486	H	0.644888	0.564509	0.930236
	H8487	H	0.509658	0.564432	0.933771
	H8488	H	0.621841	0.644184	0.952315
	H8489	H	0.621972	0.860775	0.952396
	H8490	H	0.622005	0.144262	0.952408
	H8491	H	0.621964	0.360485	0.952357
	H8492	H	0.546199	0.644570	0.895602
	H8493	H	0.599654	0.644212	0.893280
	H8494	H	0.599720	0.861368	0.893304
	H8495	H	0.546165	0.860987	0.895612
	H8496	H	0.616773	0.643913	0.906155
	H8497	H	0.616805	0.861315	0.906218
	H8498	H	0.607743	0.644108	0.966573
	H8499	H	0.607847	0.861019	0.966630
	H8500	H	0.569636	0.441500	0.872002
	H8501	H	0.585926	0.441500	0.990322
	H8502	H	0.569409	0.441063	0.871087
	H8503	H	0.570006	0.440703	0.870621
	H8504	H	0.582164	0.441320	0.989319
	H8505	H	0.583975	0.440813	0.988828
	H8506	H	0.585944	0.564490	0.990440
	H8507	H	0.569636	0.564305	0.871963
	H8508	H	0.583897	0.564596	0.988865
	H8509	H	0.582090	0.564341	0.989306
	H8510	H	0.569954	0.564993	0.870614
	H8511	H	0.569435	0.564105	0.871034
	H8512	H	0.607878	0.144136	0.966643
	H8513	H	0.607875	0.360728	0.966596
	H8514	H	0.569465	0.064206	0.870647
	H8515	H	0.569071	0.063964	0.871480
	H8516	H	0.570833	0.064357	0.870516
	H8517	H	0.554351	0.861272	0.968819
	H8518	H	0.554403	0.643860	0.968808
	H8519	H	0.554368	0.361070	0.968849
	H8520	H	0.554397	0.143667	0.968803
	H8521	H	0.546193	0.144488	0.895620
	H8522	H	0.599607	0.144590	0.893397
	H8523	H	0.599778	0.361209	0.893316
	H8524	H	0.546110	0.361144	0.895625
	H8525	H	0.616760	0.144502	0.906244
	H8526	H	0.616926	0.361255	0.906161
	H8527	H	0.583991	0.064703	0.989126
	H8528	H	0.582407	0.064584	0.989486
	H8529	H	0.581923	0.064239	0.991394
	H8530	H	0.569117	0.941507	0.871484
	H8531	H	0.569445	0.940399	0.870695
	H8532	H	0.570818	0.940788	0.870503
	H8533	H	0.583966	0.941261	0.989083
	H8534	H	0.582369	0.941064	0.989424
	H8535	H	0.581909	0.940947	0.991376
	Zn8536	Zn	0.507877	0.680320	0.934012
	Zn8537	Zn	0.507928	0.825761	0.934034
	Zn8538	Zn	0.507899	0.180482	0.933989
	Zn8539	Zn	0.507979	0.325618	0.933989
	Zn8540	Zn	0.583693	0.680023	0.990845
	Zn8541	Zn	0.583715	0.825349	0.990741
	Zn8542	Zn	0.583777	0.180011	0.990857
	Zn8543	Zn	0.583781	0.325457	0.990746
	C8544	C	0.628096	0.752636	0.914762
	C8545	C	0.525954	0.752342	0.947398
	C8546	C	0.536232	0.752388	0.955174
	C8547	C	0.541076	0.690789	0.958799
	C8548	C	0.541054	0.814012	0.958814
	C8549	C	0.525997	0.252357	0.947400
	C8550	C	0.536269	0.252267	0.955179
	C8551	C	0.541091	0.190820	0.958811
	C8552	C	0.541065	0.313707	0.958850
	C8553	C	0.522706	0.753038	0.919219
	C8554	C	0.531250	0.752984	0.910696
	C8555	C	0.535188	0.814241	0.906676
	C8556	C	0.535213	0.691682	0.906667
	C8557	C	0.522643	0.252751	0.919152
	C8558	C	0.531198	0.252733	0.910678
	C8559	C	0.535172	0.314073	0.906691
	C8560	C	0.535227	0.191512	0.906690
	C8561	C	0.644647	0.043265	0.928065
	C8562	C	0.644629	0.962351	0.928055
	C8563	C	0.507319	0.043577	0.934461
	C8564	C	0.507304	0.962583	0.934478
	C8565	C	0.508687	0.043378	0.934251
	C8566	C	0.508683	0.962567	0.934255
	C8567	C	0.507650	0.462404	0.932949
	C8568	C	0.646077	0.462424	0.929725
	C8569	C	0.644538	0.462308	0.927342
	C8570	C	0.507631	0.543124	0.932971
	C8571	C	0.644511	0.543106	0.927331
	C8572	C	0.646049	0.543332	0.929724
	C8573	C	0.631273	0.752427	0.942999
	C8574	C	0.631310	0.252326	0.943006
	C8575	C	0.622778	0.752436	0.951552
	C8576	C	0.618734	0.691150	0.955523
	C8577	C	0.618800	0.813817	0.955563
	C8578	C	0.622783	0.252328	0.951533
	C8579	C	0.618815	0.191119	0.955562
	C8580	C	0.618813	0.313631	0.955526
	C8581	C	0.628126	0.252702	0.914785
	C8582	C	0.588343	0.752777	0.884824
	C8583	C	0.555505	0.752918	0.886245
	C8584	C	0.565748	0.752643	0.977335
	C8585	C	0.612960	0.691248	0.903320
	C8586	C	0.612999	0.814148	0.903346
	C8587	C	0.598653	0.752761	0.892553
	C8588	C	0.547040	0.752749	0.894799
	C8589	C	0.543049	0.691562	0.898778
	C8590	C	0.603476	0.691285	0.896161
	C8591	C	0.603504	0.814218	0.896189
	C8592	C	0.543022	0.814021	0.898781
	C8593	C	0.617794	0.752671	0.907001
	C8594	C	0.598514	0.752728	0.976033
	C8595	C	0.610921	0.691186	0.963435
	C8596	C	0.610976	0.813874	0.963466
	C8597	C	0.606973	0.752538	0.967468
	C8598	C	0.585223	0.462597	0.991064
	C8599	C	0.569844	0.462260	0.870991
	C8600	C	0.583229	0.462347	0.989521
	C8601	C	0.585206	0.543245	0.991099
	C8602	C	0.583189	0.543325	0.989539
	C8603	C	0.569839	0.543116	0.870968
	C8604	C	0.598596	0.252648	0.976041
	C8605	C	0.611000	0.191149	0.963463
	C8606	C	0.610988	0.313630	0.963424
	C8607	C	0.607022	0.252419	0.967462
	C8608	C	0.569570	0.042871	0.871172
	C8609	C	0.588297	0.253108	0.884912
	C8610	C	0.555507	0.252710	0.886271
	C8611	C	0.565737	0.252567	0.977341
	C8612	C	0.612965	0.191541	0.903379
	C8613	C	0.613068	0.314203	0.903342
	C8614	C	0.598647	0.252952	0.892617
	C8615	C	0.547056	0.252720	0.894831
	C8616	C	0.555404	0.752568	0.969601
	C8617	C	0.550543	0.814039	0.965973
	C8618	C	0.550572	0.690998	0.965956
	C8619	C	0.555419	0.252387	0.969631
	C8620	C	0.550567	0.313787	0.966001
	C8621	C	0.550583	0.190933	0.965971
	C8622	C	0.543079	0.191486	0.898815
	C8623	C	0.603469	0.191639	0.896239
	C8624	C	0.603572	0.314189	0.896201
	C8625	C	0.543029	0.314034	0.898818
	C8626	C	0.617839	0.252846	0.907027
	C8627	C	0.583354	0.043275	0.989722
	C8628	C	0.570937	0.043008	0.871017
	C8629	C	0.569556	0.962207	0.871196
	C8630	C	0.583330	0.962374	0.989688
	C8631	C	0.570917	0.962359	0.871030
	N8632	N	0.507899	0.070260	0.933991
	N8633	N	0.507892	0.935692	0.934007
	N8634	N	0.507948	0.435657	0.933958
	N8635	N	0.507922	0.570232	0.933977
	N8636	N	0.583745	0.435619	0.990761
	N8637	N	0.583687	0.570104	0.990831
	N8638	N	0.583753	0.069931	0.990814
	N8639	N	0.583739	0.935451	0.990778
	O8640	O	0.772680	0.694808	0.040878
	O8641	O	0.772587	0.810944	0.040907
	O8642	O	0.670453	0.694327	0.060947
	O8643	O	0.670322	0.810405	0.061120
	O8644	O	0.670376	0.194654	0.061078
	O8645	O	0.670462	0.310838	0.061053
	O8646	O	0.669315	0.694564	0.038352
	O8647	O	0.669220	0.810714	0.038268
	O8648	O	0.669327	0.194938	0.038369
	O8649	O	0.669277	0.311059	0.038345
	O8650	O	0.769717	0.694686	0.062005
	O8651	O	0.769719	0.811445	0.062027
	O8652	O	0.769640	0.194331	0.061915
	O8653	O	0.769778	0.311043	0.062028
	O8654	O	0.772727	0.194637	0.040876
	O8655	O	0.772583	0.310872	0.040938
	O8656	O	0.732720	0.695019	-0.001494
	O8657	O	0.707905	0.694935	-0.001770
	O8658	O	0.734682	0.694970	0.104846
	O8659	O	0.734658	0.811223	0.104767
	O8660	O	0.710332	0.694108	0.103447
	O8661	O	0.710221	0.810394	0.103453
	O8662	O	0.707801	0.811111	-0.001819
	O8663	O	0.732801	0.811044	-0.001599
	O8664	O	0.732711	0.194782	-0.001499
	O8665	O	0.707928	0.194710	-0.001716
	O8666	O	0.734633	0.194047	0.104803
	O8667	O	0.734739	0.310484	0.104866
	O8668	O	0.710277	0.194620	0.103485
	O8669	O	0.710313	0.310847	0.103445
	O8670	O	0.707775	0.310806	-0.001831
	O8671	O	0.732782	0.310959	-0.001566
	H8672	H	0.683270	0.643301	0.074555
	H8673	H	0.683301	0.860855	0.074587
	H8674	H	0.683219	0.143761	0.074644
	H8675	H	0.683267	0.361380	0.074588
	H8676	H	0.681718	0.861595	0.025572
	H8677	H	0.681683	0.643780	0.025458
	H8678	H	0.681683	0.361232	0.025541
	H8679	H	0.681685	0.144698	0.025574
	H8680	H	0.786738	0.064484	0.054646
	H8681	H	0.787439	0.064632	0.052924
	H8682	H	0.787409	0.941126	0.052830
	H8683	H	0.786864	0.941051	0.054568
	H8684	H	0.783911	0.064234	0.055137
	H8685	H	0.783902	0.941114	0.055100
	H8686	H	0.657021	0.064882	0.049054
	H8687	H	0.657004	0.941352	0.049060
	H8688	H	0.656767	0.064909	0.049586
	H8689	H	0.656763	0.941568	0.049577
	H8690	H	0.657308	0.064728	0.050203
	H8691	H	0.657282	0.941077	0.050190
	H8692	H	0.656833	0.441315	0.049194
	H8693	H	0.656768	0.441109	0.049822
	H8694	H	0.657718	0.441000	0.048955
	H8695	H	0.786467	0.440779	0.053186
	H8696	H	0.785325	0.440965	0.054481
	H8697	H	0.783982	0.441236	0.054242
	H8698	H	0.656772	0.564399	0.049744
	H8699	H	0.656862	0.565004	0.049193
	H8700	H	0.784026	0.564264	0.054260
	H8701	H	0.785329	0.564594	0.054482
	H8702	H	0.786454	0.564225	0.053209
	H8703	H	0.657730	0.564967	0.048935
	H8704	H	0.757382	0.643415	0.075070
	H8705	H	0.757353	0.862155	0.075007
	H8706	H	0.757313	0.142872	0.075008
	H8707	H	0.757398	0.361977	0.075081
	H8708	H	0.695479	0.644205	0.011002
	H8709	H	0.745600	0.644311	0.012024
	H8710	H	0.745752	0.861667	0.011935
	H8711	H	0.695542	0.861681	0.011109
	H8712	H	0.759799	0.644232	0.027331
	H8713	H	0.759943	0.861626	0.027220
	H8714	H	0.745306	0.643460	0.090642
	H8715	H	0.745285	0.862484	0.090590
	H8716	H	0.722712	0.440830	-0.010980
	H8717	H	0.730860	0.440745	0.115545
	H8718	H	0.718650	0.441058	-0.010126
	H8719	H	0.716468	0.441311	-0.012070
	H8720	H	0.717806	0.441108	0.109654
	H8721	H	0.724810	0.440704	0.108913
	H8722	H	0.730922	0.564498	0.115576
	H8723	H	0.722764	0.564379	-0.010966
	H8724	H	0.724803	0.564525	0.108918
	H8725	H	0.717816	0.564077	0.109615
	H8726	H	0.716503	0.564685	-0.012078
	H8727	H	0.718722	0.564595	-0.010152
	H8728	H	0.745220	0.142929	0.090576
	H8729	H	0.745319	0.361928	0.090674
	H8730	H	0.722166	0.064967	-0.016156
	H8731	H	0.718519	0.064907	-0.016611
	H8732	H	0.724151	0.064469	-0.012121
	H8733	H	0.697507	0.860622	0.089868
	H8734	H	0.697491	0.643220	0.089852
	H8735	H	0.697517	0.361395	0.089868
	H8736	H	0.697489	0.143933	0.089906
	H8737	H	0.695469	0.144477	0.011089
	H8738	H	0.745719	0.144450	0.011936
	H8739	H	0.745615	0.361410	0.012017
	H8740	H	0.695475	0.361022	0.011055
	H8741	H	0.759940	0.144324	0.027221
	H8742	H	0.759846	0.361197	0.027312
	H8743	H	0.718334	0.064780	0.114664
	H8744	H	0.719090	0.064549	0.117681
	H8745	H	0.723725	0.064405	0.119125
	H8746	H	0.718562	0.941484	-0.016631
	H8747	H	0.722221	0.941237	-0.016099
	H8748	H	0.724145	0.941200	-0.012138
	H8749	H	0.718313	0.941389	0.114634
	H8750	H	0.719089	0.941252	0.117658
	H8751	H	0.723702	0.941073	0.119109
	Zn8752	Zn	0.657458	0.679921	0.049539
	Zn8753	Zn	0.657492	0.825616	0.049555
	Zn8754	Zn	0.657481	0.179843	0.049582
	Zn8755	Zn	0.657462	0.325577	0.049575
	Zn8756	Zn	0.722488	0.680115	0.115759
	Zn8757	Zn	0.722411	0.825812	0.115659
	Zn8758	Zn	0.722400	0.179817	0.115709
	Zn8759	Zn	0.722455	0.325711	0.115674
	C8760	C	0.769283	0.752895	0.037373
	C8761	C	0.673742	0.752231	0.064550
	C8762	C	0.682409	0.752060	0.073668
	C8763	C	0.686443	0.690455	0.077957
	C8764	C	0.686450	0.813478	0.077984
	C8765	C	0.673786	0.252706	0.064552
	C8766	C	0.682481	0.252588	0.073641
	C8767	C	0.686447	0.191054	0.077997
	C8768	C	0.686470	0.314147	0.077972
	C8769	C	0.672495	0.752622	0.034992
	C8770	C	0.680882	0.752643	0.026360
	C8771	C	0.684798	0.814436	0.022343
	C8772	C	0.684767	0.691095	0.022264
	C8773	C	0.672514	0.253045	0.035026
	C8774	C	0.680865	0.253005	0.026384
	C8775	C	0.684755	0.314215	0.022313
	C8776	C	0.684754	0.191590	0.022328
	C8777	C	0.786549	0.043200	0.053593
	C8778	C	0.786549	0.962198	0.053558
	C8779	C	0.657055	0.043434	0.049415
	C8780	C	0.657066	0.962675	0.049396
	C8781	C	0.657625	0.043099	0.050028
	C8782	C	0.657639	0.962054	0.050026
	C8783	C	0.656994	0.462427	0.049520
	C8784	C	0.785881	0.462420	0.052765
	C8785	C	0.784746	0.462302	0.054025
	C8786	C	0.657001	0.543310	0.049501
	C8787	C	0.784743	0.543145	0.054057
	C8788	C	0.785873	0.543236	0.052795
	C8789	C	0.766283	0.753035	0.065242
	C8790	C	0.766283	0.252662	0.065201
	C8791	C	0.758087	0.752875	0.074096
	C8792	C	0.754621	0.691030	0.078502
	C8793	C	0.754594	0.814746	0.078469
	C8794	C	0.758070	0.252458	0.074042
	C8795	C	0.754568	0.190566	0.078433
	C8796	C	0.754606	0.314360	0.078472
	C8797	C	0.769272	0.252747	0.037424
	C8798	C	0.736138	0.753103	0.001953
	C8799	C	0.704608	0.752992	0.001517
	C8800	C	0.706894	0.752132	0.099966
	C8801	C	0.756698	0.691502	0.023896
	C8802	C	0.756767	0.814450	0.023842
	C8803	C	0.744834	0.753061	0.011057
	C8804	C	0.696288	0.752976	0.010182
	C8805	C	0.692420	0.691312	0.014244
	C8806	C	0.748814	0.691560	0.015404
	C8807	C	0.748898	0.814468	0.015347
	C8808	C	0.692453	0.814483	0.014318
	C8809	C	0.760728	0.752981	0.028199
	C8810	C	0.737475	0.752992	0.101125
	C8811	C	0.747951	0.691047	0.087183
	C8812	C	0.747919	0.814798	0.087146
	C8813	C	0.744629	0.752942	0.091672
	C8814	C	0.727770	0.462276	0.117622
	C8815	C	0.718188	0.462653	-0.011611
	C8816	C	0.721669	0.462421	0.110984
	C8817	C	0.727811	0.542944	0.117650
	C8818	C	0.721676	0.543205	0.110986
	C8819	C	0.718209	0.543272	-0.011599
	C8820	C	0.737468	0.252243	0.101146
	C8821	C	0.747907	0.190526	0.087125
	C8822	C	0.747946	0.314288	0.087171
	C8823	C	0.744639	0.252326	0.091663
	C8824	C	0.720221	0.043494	-0.015518
	C8825	C	0.736084	0.252884	0.001987
	C8826	C	0.704640	0.252780	0.001558
	C8827	C	0.706956	0.252727	0.099942
	C8828	C	0.756740	0.191420	0.023853
	C8829	C	0.756690	0.314143	0.023889
	C8830	C	0.744771	0.252927	0.011097
	C8831	C	0.696289	0.252783	0.010218
	C8832	C	0.698324	0.751923	0.090787
	C8833	C	0.694339	0.813409	0.086460
	C8834	C	0.694333	0.690451	0.086435
	C8835	C	0.698359	0.252675	0.090773
	C8836	C	0.694361	0.314218	0.086450
	C8837	C	0.694333	0.191080	0.086478
	C8838	C	0.692402	0.191536	0.014302
	C8839	C	0.748862	0.191504	0.015362
	C8840	C	0.748813	0.314240	0.015400
	C8841	C	0.692398	0.314036	0.014283
	C8842	C	0.760674	0.252781	0.028233
	C8843	C	0.719720	0.043402	0.116046
	C8844	C	0.722216	0.043270	-0.011473
	C8845	C	0.720255	0.962439	-0.015510
	C8846	C	0.719707	0.962524	0.116033
	C8847	C	0.722211	0.962571	-0.011480
	N8848	N	0.657551	0.069935	0.049595
	N8849	N	0.657572	0.935480	0.049578
	N8850	N	0.657535	0.435589	0.049617
	N8851	N	0.657527	0.570059	0.049578
	N8852	N	0.722522	0.435758	0.115739
	N8853	N	0.722544	0.570281	0.115779
	N8854	N	0.722479	0.069854	0.115702
	N8855	N	0.722475	0.935406	0.115661
	O8856	O	0.710977	0.694812	0.180206
	O8857	O	0.711013	0.811520	0.180254
	O8858	O	0.667599	0.694292	0.192754
	O8859	O	0.667573	0.811141	0.192728
	O8860	O	0.667604	0.194072	0.192775
	O8861	O	0.667498	0.311091	0.192756
	O8862	O	0.672285	0.694330	0.167429
	O8863	O	0.672405	0.810637	0.167471
	O8864	O	0.672322	0.194429	0.167381
	O8865	O	0.672308	0.310850	0.167411
	O8866	O	0.706345	0.695032	0.205509
	O8867	O	0.706311	0.811321	0.205504
	O8868	O	0.706179	0.194587	0.205481
	O8869	O	0.706201	0.311132	0.205514
	O8870	O	0.710904	0.194894	0.180219
	O8871	O	0.711020	0.311966	0.180209
	O8872	O	0.730030	0.695044	0.130275
	O8873	O	0.707280	0.693806	0.124594
	O8874	O	0.671376	0.694731	0.248405
	O8875	O	0.671416	0.811211	0.248412
	O8876	O	0.648793	0.694593	0.242735
	O8877	O	0.648616	0.811387	0.242742
	O8878	O	0.707346	0.810633	0.124625
	O8879	O	0.729829	0.811885	0.130235
	O8880	O	0.729963	0.194318	0.130235
	O8881	O	0.707240	0.194728	0.124517
	O8882	O	0.671375	0.194724	0.248450
	O8883	O	0.671345	0.311450	0.248446
	O8884	O	0.648749	0.194586	0.242809
	O8885	O	0.648643	0.311376	0.242771
	O8886	O	0.707307	0.311527	0.124587
	O8887	O	0.729869	0.311046	0.130189
	H8888	H	0.662224	0.642748	0.209036
	H8889	H	0.662059	0.862634	0.208914
	H8890	H	0.661982	0.142555	0.209036
	H8891	H	0.662141	0.362512	0.208975
	H8892	H	0.683069	0.861844	0.153330
	H8893	H	0.682922	0.642885	0.153268
	H8894	H	0.682939	0.362594	0.153247
	H8895	H	0.682834	0.143057	0.153183
	H8896	H	0.717330	0.065092	0.196742
	H8897	H	0.719554	0.065070	0.196914
	H8898	H	0.719689	0.941619	0.196911
	H8899	H	0.717342	0.941500	0.196836
	H8900	H	0.715840	0.064468	0.194241
	H8901	H	0.715891	0.940974	0.194282
	H8902	H	0.661853	0.064431	0.176062
	H8903	H	0.661839	0.940797	0.176096
	H8904	H	0.659294	0.064267	0.175573
	H8905	H	0.659257	0.941007	0.175620
	H8906	H	0.656956	0.064430	0.177764
	H8907	H	0.656971	0.940939	0.177822
	H8908	H	0.660334	0.440662	0.178127
	H8909	H	0.660168	0.440716	0.177948
	H8910	H	0.660183	0.441013	0.178452
	H8911	H	0.719476	0.441294	0.196005
	H8912	H	0.717632	0.441088	0.195979
	H8913	H	0.716859	0.441112	0.194940
	H8914	H	0.660158	0.564122	0.178002
	H8915	H	0.660300	0.564274	0.178112
	H8916	H	0.716882	0.564450	0.194911
	H8917	H	0.717654	0.564584	0.195932
	H8918	H	0.719486	0.564515	0.195948
	H8919	H	0.660173	0.564744	0.178452
	H8920	H	0.695793	0.643845	0.219713
	H8921	H	0.695640	0.862320	0.219645
	H8922	H	0.695413	0.143343	0.219547
	H8923	H	0.695672	0.362654	0.219702
	H8924	H	0.694933	0.642879	0.137648
	H8925	H	0.724477	0.643628	0.146507
	H8926	H	0.724377	0.863156	0.146475
	H8927	H	0.695081	0.861918	0.137698
	H8928	H	0.716534	0.643455	0.163979
	H8929	H	0.716447	0.863321	0.163990
	H8930	H	0.683813	0.643555	0.235361
	H8931	H	0.683662	0.862517	0.235281
	H8932	H	0.728352	0.440983	0.121070
	H8933	H	0.650369	0.440936	0.258557
	H8934	H	0.718823	0.440831	0.121999
	H8935	H	0.714379	0.441097	0.117182
	H8936	H	0.660533	0.441890	0.260979
	H8937	H	0.655788	0.441412	0.262407
	H8938	H	0.650317	0.564747	0.258526
	H8939	H	0.728421	0.563889	0.121073
	H8940	H	0.655827	0.564663	0.262396
	H8941	H	0.660492	0.564611	0.260960
	H8942	H	0.714419	0.564376	0.117245
	H8943	H	0.718843	0.564568	0.122086
	H8944	H	0.683430	0.143426	0.235207
	H8945	H	0.683693	0.362746	0.235323
	H8946	H	0.725320	0.064519	0.113212
	H8947	H	0.721934	0.064231	0.112141
	H8948	H	0.726326	0.064705	0.117254
	H8949	H	0.654057	0.862887	0.226404
	H8950	H	0.654252	0.642862	0.226525
	H8951	H	0.654238	0.363011	0.226506
	H8952	H	0.654073	0.142790	0.226552
	H8953	H	0.694920	0.143289	0.137600
	H8954	H	0.724389	0.142951	0.146496
	H8955	H	0.724602	0.362841	0.146470
	H8956	H	0.695024	0.362643	0.137690
	H8957	H	0.716372	0.143324	0.163997
	H8958	H	0.716612	0.363341	0.163944
	H8959	H	0.652676	0.064973	0.259698
	H8960	H	0.656170	0.064615	0.261263
	H8961	H	0.660578	0.064251	0.258874
	H8962	H	0.721925	0.941308	0.112095
	H8963	H	0.725303	0.941025	0.113134
	H8964	H	0.726312	0.940919	0.117252
	H8965	H	0.652718	0.940859	0.259665
	H8966	H	0.656221	0.941261	0.261159
	H8967	H	0.660554	0.940991	0.258835
	Zn8968	Zn	0.659957	0.679849	0.178242
	Zn8969	Zn	0.660030	0.825308	0.178226
	Zn8970	Zn	0.660022	0.179853	0.178234
	Zn8971	Zn	0.659979	0.325284	0.178230
	Zn8972	Zn	0.656232	0.680189	0.257231
	Zn8973	Zn	0.656265	0.825628	0.257216
	Zn8974	Zn	0.656276	0.180120	0.257346
	Zn8975	Zn	0.656212	0.325442	0.257334
	C8976	C	0.712065	0.753230	0.175884
	C8977	C	0.666507	0.752730	0.197071
	C8978	C	0.662720	0.752728	0.207953
	C8979	C	0.660445	0.690538	0.212922
	C8980	C	0.660348	0.814936	0.212854
	C8981	C	0.666497	0.252547	0.197084
	C8982	C	0.662709	0.252506	0.207984
	C8983	C	0.660329	0.190407	0.212951
	C8984	C	0.660401	0.314840	0.212909
	C8985	C	0.675134	0.752441	0.163766
	C8986	C	0.682253	0.752391	0.154259
	C8987	C	0.685630	0.814264	0.149794
	C8988	C	0.685540	0.690422	0.149761
	C8989	C	0.675119	0.252709	0.163734
	C8990	C	0.682297	0.252827	0.154292
	C8991	C	0.685573	0.314833	0.149779
	C8992	C	0.685523	0.190852	0.149744
	C8993	C	0.718479	0.043508	0.196280
	C8994	C	0.718494	0.962654	0.196284
	C8995	C	0.660452	0.043005	0.176460
	C8996	C	0.660443	0.962240	0.176467
	C8997	C	0.658105	0.043081	0.178679
	C8998	C	0.658130	0.962104	0.178686
	C8999	C	0.660215	0.462054	0.178085
	C9000	C	0.719437	0.462742	0.195277
	C9001	C	0.717566	0.462441	0.195271
	C9002	C	0.660206	0.542851	0.178092
	C9003	C	0.717556	0.543238	0.195236
	C9004	C	0.719445	0.543313	0.195241
	C9005	C	0.703516	0.753179	0.209179
	C9006	C	0.703358	0.252869	0.209148
	C9007	C	0.696351	0.753111	0.218645
	C9008	C	0.693097	0.691377	0.223187
	C9009	C	0.693017	0.814875	0.223147
	C9010	C	0.696180	0.252960	0.218600
	C9011	C	0.692828	0.191006	0.223076
	C9012	C	0.692968	0.314953	0.223150
	C9013	C	0.712076	0.253359	0.175909
	C9014	C	0.728866	0.753486	0.134582
	C9015	C	0.703859	0.752283	0.127805
	C9016	C	0.649753	0.753049	0.238403
	C9017	C	0.718231	0.691291	0.160084
	C9018	C	0.718179	0.815548	0.160081
	C9019	C	0.725048	0.753469	0.145438
	C9020	C	0.695680	0.752414	0.136658
	C9021	C	0.692196	0.690487	0.141072
	C9022	C	0.722743	0.691364	0.150401
	C9023	C	0.722681	0.815538	0.150390
	C9024	C	0.692280	0.814281	0.141100
	C9025	C	0.715876	0.753359	0.165012
	C9026	C	0.674828	0.752939	0.245171
	C9027	C	0.686481	0.691243	0.231897
	C9028	C	0.686393	0.814868	0.231856
	C9029	C	0.682954	0.752970	0.236287
	C9030	C	0.652114	0.462434	0.256672
	C9031	C	0.718204	0.462237	0.118582
	C9032	C	0.657575	0.462842	0.260524
	C9033	C	0.652096	0.543380	0.256636
	C9034	C	0.657577	0.543334	0.260505
	C9035	C	0.718197	0.543231	0.118616
	C9036	C	0.674761	0.253124	0.245200
	C9037	C	0.686202	0.191087	0.231785
	C9038	C	0.686348	0.314986	0.231858
	C9039	C	0.682850	0.253084	0.236271
	C9040	C	0.723320	0.043091	0.113462
	C9041	C	0.728837	0.252738	0.134556
	C9042	C	0.703869	0.253101	0.127788
	C9043	C	0.649763	0.252996	0.238447
	C9044	C	0.718169	0.191029	0.160095
	C9045	C	0.718292	0.315334	0.160067
	C9046	C	0.725081	0.252912	0.145457
	C9047	C	0.695682	0.252921	0.136662
	C9048	C	0.653533	0.752921	0.227507
	C9049	C	0.655822	0.814986	0.222532
	C9050	C	0.655944	0.690706	0.222609
	C9051	C	0.653528	0.252964	0.227562
	C9052	C	0.655911	0.315093	0.222605
	C9053	C	0.655829	0.190609	0.222645
	C9054	C	0.692189	0.190897	0.141053
	C9055	C	0.722648	0.190759	0.150385
	C9056	C	0.722766	0.315262	0.150364
	C9057	C	0.692243	0.314889	0.141094
	C9058	C	0.715883	0.253299	0.165027
	C9059	C	0.654887	0.043458	0.259611
	C9060	C	0.724351	0.043209	0.117524
	C9061	C	0.723329	0.962320	0.113435
	C9062	C	0.654902	0.962425	0.259586
	C9063	C	0.724365	0.962272	0.117516
	N9064	N	0.660091	0.069931	0.178191
	N9065	N	0.660084	0.935400	0.178189
	N9066	N	0.660059	0.435281	0.178210
	N9067	N	0.660028	0.569788	0.178223
	N9068	N	0.656097	0.435711	0.257325
	N9069	N	0.656100	0.570263	0.257262
	N9070	N	0.656197	0.070306	0.257312
	N9071	N	0.656186	0.935758	0.257263
	O9072	O	0.707803	0.694694	0.312146
	O9073	O	0.707826	0.810671	0.312168
	O9074	O	0.605618	0.695394	0.331936
	O9075	O	0.605655	0.811181	0.331893
	O9076	O	0.605615	0.195033	0.331981
	O9077	O	0.605787	0.311075	0.331897
	O9078	O	0.608754	0.694691	0.310763
	O9079	O	0.608709	0.811335	0.310768
	O9080	O	0.608745	0.194541	0.310819
	O9081	O	0.608763	0.311347	0.310803
	O9082	O	0.708779	0.694810	0.334760
	O9083	O	0.708748	0.810639	0.334849
	O9084	O	0.708720	0.195092	0.334718
	O9085	O	0.708856	0.311196	0.334916
	O9086	O	0.707858	0.195053	0.312137
	O9087	O	0.707995	0.311092	0.312043
	O9088	O	0.668351	0.694918	0.269467
	O9089	O	0.643972	0.695014	0.268087
	O9090	O	0.670195	0.694723	0.374934
	O9091	O	0.670152	0.810649	0.374840
	O9092	O	0.645218	0.695100	0.374504
	O9093	O	0.645267	0.811071	0.374496
	O9094	O	0.643977	0.811372	0.268096
	O9095	O	0.668344	0.811036	0.269500
	O9096	O	0.668248	0.195072	0.269591
	O9097	O	0.643866	0.194372	0.268023
	O9098	O	0.670145	0.195026	0.374946
	O9099	O	0.670185	0.310997	0.374947
	O9100	O	0.645260	0.194836	0.374549
	O9101	O	0.645395	0.310672	0.374483
	O9102	O	0.643729	0.311084	0.267947
	O9103	O	0.668289	0.311292	0.269574
	H9104	H	0.618389	0.645497	0.345552
	H9105	H	0.618288	0.861214	0.345624
	H9106	H	0.618480	0.145062	0.345525
	H9107	H	0.618381	0.360891	0.345598
	H9108	H	0.621365	0.862756	0.297892
	H9109	H	0.621107	0.643474	0.297708
	H9110	H	0.621033	0.362462	0.297660
	H9111	H	0.621152	0.143061	0.297783
	H9112	H	0.721248	0.064896	0.323739
	H9113	H	0.721014	0.064811	0.323323
	H9114	H	0.721027	0.941480	0.323335
	H9115	H	0.721215	0.941084	0.323748
	H9116	H	0.720882	0.064992	0.324130
	H9117	H	0.720794	0.941503	0.324190
	H9118	H	0.588254	0.064506	0.320636
	H9119	H	0.588216	0.940909	0.320624
	H9120	H	0.591111	0.064193	0.323770
	H9121	H	0.591087	0.940896	0.323765
	H9122	H	0.597382	0.064240	0.323247
	H9123	H	0.597341	0.940664	0.323225
	H9124	H	0.590302	0.441094	0.314226
	H9125	H	0.586657	0.441052	0.318107
	H9126	H	0.598428	0.440888	0.315486
	H9127	H	0.719525	0.441482	0.325211
	H9128	H	0.718565	0.441345	0.323251
	H9129	H	0.719625	0.441757	0.322027
	H9130	H	0.586659	0.564362	0.318148
	H9131	H	0.590272	0.564821	0.314260
	H9132	H	0.719667	0.564278	0.322035
	H9133	H	0.718606	0.564854	0.323187
	H9134	H	0.719572	0.564990	0.325118
	H9135	H	0.598362	0.564885	0.315502
	H9136	H	0.696475	0.644338	0.347733
	H9137	H	0.696468	0.859965	0.347674
	H9138	H	0.696411	0.144479	0.347631
	H9139	H	0.696386	0.361079	0.347684
	H9140	H	0.633282	0.643723	0.282174
	H9141	H	0.681048	0.644704	0.283117
	H9142	H	0.680879	0.860980	0.283283
	H9143	H	0.633547	0.862775	0.282379
	H9144	H	0.695122	0.644392	0.298511
	H9145	H	0.694946	0.860989	0.298655
	H9146	H	0.682656	0.644300	0.362196
	H9147	H	0.682671	0.860362	0.362107
	H9148	H	0.651046	0.441308	0.254359
	H9149	H	0.656957	0.441847	0.385696
	H9150	H	0.657525	0.440949	0.252388
	H9151	H	0.661469	0.440953	0.255243
	H9152	H	0.658333	0.441198	0.387057
	H9153	H	0.657370	0.441262	0.386788
	H9154	H	0.656946	0.564947	0.385619
	H9155	H	0.651070	0.564544	0.254308
	H9156	H	0.657328	0.565213	0.386762
	H9157	H	0.658258	0.565088	0.387038
	H9158	H	0.661520	0.564754	0.255155
	H9159	H	0.657520	0.564612	0.252314
	H9160	H	0.682552	0.144336	0.362081
	H9161	H	0.682571	0.361085	0.362115
	H9162	H	0.655456	0.064744	0.253452
	H9163	H	0.652282	0.064944	0.255163
	H9164	H	0.660247	0.064603	0.255527
	H9165	H	0.632390	0.860991	0.360975
	H9166	H	0.632508	0.645375	0.360917
	H9167	H	0.632496	0.360560	0.360933
	H9168	H	0.632607	0.145301	0.360871
	H9169	H	0.633201	0.143102	0.282148
	H9170	H	0.681081	0.145117	0.283100
	H9171	H	0.680973	0.361352	0.283211
	H9172	H	0.633060	0.362252	0.282041
	H9173	H	0.695222	0.145010	0.298452
	H9174	H	0.695120	0.361198	0.298553
	H9175	H	0.661479	0.064615	0.387010
	H9176	H	0.661002	0.064930	0.384400
	H9177	H	0.657155	0.064960	0.383003
	H9178	H	0.652216	0.941773	0.255171
	H9179	H	0.655410	0.941330	0.253387
	H9180	H	0.660227	0.941531	0.255442
	H9181	H	0.661557	0.941797	0.386954
	H9182	H	0.661080	0.941680	0.384335
	H9183	H	0.657239	0.941354	0.382955
	Zn9184	Zn	0.593588	0.680351	0.319655
	Zn9185	Zn	0.593553	0.825302	0.319658
	Zn9186	Zn	0.593633	0.180233	0.319657
	Zn9187	Zn	0.593632	0.325176	0.319715
	Zn9188	Zn	0.658048	0.680661	0.386029
	Zn9189	Zn	0.658165	0.825784	0.385984
	Zn9190	Zn	0.657991	0.180497	0.386095
	Zn9191	Zn	0.658084	0.325830	0.386077
	C9192	C	0.704469	0.752741	0.308648
	C9193	C	0.608948	0.753294	0.335457
	C9194	C	0.617476	0.753347	0.344675
	C9195	C	0.621487	0.692316	0.349007
	C9196	C	0.621431	0.814345	0.349040
	C9197	C	0.609034	0.252984	0.335459
	C9198	C	0.617519	0.252929	0.344677
	C9199	C	0.621552	0.191937	0.348982
	C9200	C	0.621492	0.313911	0.349020
	C9201	C	0.612168	0.753041	0.307543
	C9202	C	0.620414	0.753131	0.298729
	C9203	C	0.624020	0.815077	0.294410
	C9204	C	0.623887	0.691255	0.294307
	C9205	C	0.612179	0.252929	0.307587
	C9206	C	0.620280	0.252866	0.298674
	C9207	C	0.623760	0.314790	0.294244
	C9208	C	0.623829	0.190775	0.294313
	C9209	C	0.720993	0.043643	0.323563
	C9210	C	0.720986	0.962653	0.323577
	C9211	C	0.590683	0.043067	0.321524
	C9212	C	0.590670	0.962230	0.321527
	C9213	C	0.596972	0.043237	0.320955
	C9214	C	0.596947	0.962197	0.320951
	C9215	C	0.589799	0.462381	0.317090
	C9216	C	0.720472	0.463042	0.324903
	C9217	C	0.719487	0.462856	0.322930
	C9218	C	0.589804	0.543266	0.317091
	C9219	C	0.719518	0.543499	0.322919
	C9220	C	0.720459	0.543701	0.324865
	C9221	C	0.705585	0.752538	0.338169
	C9222	C	0.705555	0.253003	0.338142
	C9223	C	0.697277	0.752167	0.346832
	C9224	C	0.693385	0.691127	0.350917
	C9225	C	0.693381	0.813121	0.350886
	C9226	C	0.697211	0.252748	0.346795
	C9227	C	0.693310	0.191416	0.350856
	C9228	C	0.693305	0.314061	0.350886
	C9229	C	0.704577	0.253073	0.308572
	C9230	C	0.671646	0.752933	0.273033
	C9231	C	0.641154	0.753198	0.271755
	C9232	C	0.641880	0.753124	0.371004
	C9233	C	0.691974	0.691475	0.295114
	C9234	C	0.691871	0.814016	0.295193
	C9235	C	0.680174	0.752803	0.282263
	C9236	C	0.633936	0.753222	0.281181
	C9237	C	0.630602	0.691316	0.285655
	C9238	C	0.684177	0.691562	0.286578
	C9239	C	0.684082	0.813987	0.286659
	C9240	C	0.630746	0.815081	0.285762
	C9241	C	0.695905	0.752777	0.299488
	C9242	C	0.673446	0.752560	0.371599
	C9243	C	0.685725	0.691041	0.358945
	C9244	C	0.685726	0.813373	0.358909
	C9245	C	0.681847	0.752273	0.362996
	C9246	C	0.657527	0.462955	0.385568
	C9247	C	0.658585	0.462285	0.254727
	C9248	C	0.657908	0.462713	0.386709
	C9249	C	0.657528	0.543642	0.385553
	C9250	C	0.657887	0.543787	0.386692
	C9251	C	0.658600	0.543370	0.254683
	C9252	C	0.673414	0.252894	0.371633
	C9253	C	0.685660	0.191353	0.358890
	C9254	C	0.685647	0.314074	0.358906
	C9255	C	0.681763	0.252701	0.362976
	C9256	C	0.654471	0.043403	0.255066
	C9257	C	0.671605	0.253178	0.273076
	C9258	C	0.640947	0.252709	0.271610
	C9259	C	0.641955	0.252785	0.371011
	C9260	C	0.692003	0.191980	0.295068
	C9261	C	0.691956	0.314308	0.295124
	C9262	C	0.680144	0.253197	0.282262
	C9263	C	0.633733	0.252649	0.281081
	C9264	C	0.633241	0.753246	0.361878
	C9265	C	0.629262	0.814289	0.357553
	C9266	C	0.629330	0.692248	0.357508
	C9267	C	0.633325	0.252886	0.361866
	C9268	C	0.629329	0.313817	0.357530
	C9269	C	0.629395	0.191983	0.357493
	C9270	C	0.630488	0.190664	0.285617
	C9271	C	0.684170	0.191955	0.286555
	C9272	C	0.684122	0.314359	0.286610
	C9273	C	0.630414	0.314699	0.285553
	C9274	C	0.695971	0.253103	0.299415
	C9275	C	0.660443	0.043487	0.385781
	C9276	C	0.659285	0.043366	0.257221
	C9277	C	0.654440	0.962718	0.255050
	C9278	C	0.660483	0.962776	0.385761
	C9279	C	0.659279	0.962647	0.257171
	N9280	N	0.593540	0.070149	0.319670
	N9281	N	0.593477	0.935574	0.319675
	N9282	N	0.593557	0.435412	0.319723
	N9283	N	0.593543	0.570042	0.319728
	N9284	N	0.658079	0.435839	0.386094
	N9285	N	0.658063	0.570414	0.386073
	N9286	N	0.658027	0.070373	0.386021
	N9287	N	0.658090	0.935828	0.385978
	O9288	O	0.717657	0.695564	0.434540
	O9289	O	0.717594	0.811523	0.434596
	O9290	O	0.609047	0.695310	0.459368
	O9291	O	0.609030	0.811329	0.459417
	O9292	O	0.608970	0.195215	0.459482
	O9293	O	0.609071	0.310929	0.459401
	O9294	O	0.607477	0.695158	0.437340
	O9295	O	0.607463	0.811065	0.437316
	O9296	O	0.607502	0.195092	0.437263
	O9297	O	0.607664	0.311383	0.437436
	O9298	O	0.719822	0.694770	0.456718
	O9299	O	0.719786	0.810689	0.456733
	O9300	O	0.719649	0.195012	0.456649
	O9301	O	0.719717	0.311237	0.456692
	O9302	O	0.717596	0.195136	0.434607
	O9303	O	0.717709	0.311025	0.434459
	O9304	O	0.671696	0.694904	0.396917
	O9305	O	0.646141	0.695104	0.397193
	O9306	O	0.680334	0.694936	0.496204
	O9307	O	0.680437	0.810830	0.496289
	O9308	O	0.655051	0.695252	0.496993
	O9309	O	0.655010	0.811161	0.497005
	O9310	O	0.646214	0.811138	0.397192
	O9311	O	0.671675	0.811075	0.396930
	O9312	O	0.671592	0.194775	0.396972
	O9313	O	0.646097	0.194986	0.397220
	O9314	O	0.680410	0.194886	0.496288
	O9315	O	0.680553	0.310826	0.496358
	O9316	O	0.655044	0.195320	0.496955
	O9317	O	0.655034	0.311181	0.496930
	O9318	O	0.646096	0.311064	0.397153
	O9319	O	0.671602	0.310830	0.396999
	H9320	H	0.623695	0.644736	0.471531
	H9321	H	0.623822	0.861467	0.471361
	H9322	H	0.623765	0.145481	0.471481
	H9323	H	0.623776	0.360807	0.471472
	H9324	H	0.619865	0.861454	0.424461
	H9325	H	0.619996	0.645274	0.424576
	H9326	H	0.619942	0.362048	0.424549
	H9327	H	0.620107	0.144579	0.424633
	H9328	H	0.731249	0.064589	0.445932
	H9329	H	0.731868	0.065088	0.445794
	H9330	H	0.731848	0.941109	0.445802
	H9331	H	0.731299	0.941651	0.445942
	H9332	H	0.730639	0.064779	0.445418
	H9333	H	0.730721	0.941781	0.445416
	H9334	H	0.593011	0.064731	0.449122
	H9335	H	0.593085	0.941112	0.449159
	H9336	H	0.594545	0.064813	0.450566
	H9337	H	0.594550	0.941227	0.450564
	H9338	H	0.597464	0.064568	0.450027
	H9339	H	0.597438	0.941363	0.450031
	H9340	H	0.598164	0.441399	0.447692
	H9341	H	0.596360	0.441319	0.446187
	H9342	H	0.597396	0.441363	0.450431
	H9343	H	0.730517	0.442065	0.444403
	H9344	H	0.731957	0.441352	0.444331
	H9345	H	0.732639	0.441576	0.445095
	H9346	H	0.596298	0.564719	0.446194
	H9347	H	0.598092	0.564973	0.447649
	H9348	H	0.732717	0.564753	0.445086
	H9349	H	0.732022	0.565160	0.444313
	H9350	H	0.730561	0.565562	0.444405
	H9351	H	0.597401	0.564789	0.450427
	H9352	H	0.707202	0.644574	0.469338
	H9353	H	0.707127	0.860871	0.469365
	H9354	H	0.707154	0.144321	0.469385
	H9355	H	0.707102	0.361647	0.469360
	H9356	H	0.633816	0.645230	0.410132
	H9357	H	0.686359	0.644951	0.408993
	H9358	H	0.686307	0.861540	0.409089
	H9359	H	0.633681	0.861310	0.410004
	H9360	H	0.702806	0.644972	0.422523
	H9361	H	0.702727	0.861584	0.422638
	H9362	H	0.693000	0.644599	0.483558
	H9363	H	0.692955	0.860870	0.483565
	H9364	H	0.657676	0.441550	0.385096
	H9365	H	0.669429	0.441729	0.507308
	H9366	H	0.659000	0.441794	0.385465
	H9367	H	0.659303	0.441840	0.386294
	H9368	H	0.668080	0.441583	0.507435
	H9369	H	0.668556	0.441852	0.507065
	H9370	H	0.669449	0.565025	0.507267
	H9371	H	0.657721	0.564929	0.385075
	H9372	H	0.668564	0.564934	0.507077
	H9373	H	0.668065	0.564741	0.507538
	H9374	H	0.659225	0.564991	0.386272
	H9375	H	0.658975	0.564931	0.385440
	H9376	H	0.693068	0.144212	0.483671
	H9377	H	0.693067	0.361481	0.483642
	H9378	H	0.655490	0.064711	0.388146
	H9379	H	0.658377	0.064486	0.389140
	H9380	H	0.654789	0.064462	0.384579
	H9381	H	0.640302	0.861328	0.484881
	H9382	H	0.640178	0.644969	0.485058
	H9383	H	0.640323	0.360900	0.484896
	H9384	H	0.640291	0.145360	0.484915
	H9385	H	0.633870	0.144497	0.410132
	H9386	H	0.686388	0.144691	0.409046
	H9387	H	0.686389	0.361003	0.409021
	H9388	H	0.633721	0.362063	0.410038
	H9389	H	0.702899	0.144832	0.422528
	H9390	H	0.702875	0.361074	0.422527
	H9391	H	0.667719	0.064746	0.507572
	H9392	H	0.667889	0.064493	0.508322
	H9393	H	0.669084	0.064133	0.508722
	H9394	H	0.658401	0.941157	0.389142
	H9395	H	0.655500	0.941256	0.388090
	H9396	H	0.654877	0.941045	0.384497
	H9397	H	0.667660	0.941180	0.507568
	H9398	H	0.667883	0.941034	0.508367
	H9399	H	0.669154	0.940846	0.508711
	Zn9400	Zn	0.595476	0.680723	0.448515
	Zn9401	Zn	0.595457	0.825616	0.448522
	Zn9402	Zn	0.595497	0.180714	0.448494
	Zn9403	Zn	0.595475	0.325497	0.448497
	Zn9404	Zn	0.668816	0.680273	0.507731
	Zn9405	Zn	0.668764	0.825446	0.507708
	Zn9406	Zn	0.668774	0.180230	0.507713
	Zn9407	Zn	0.668765	0.325700	0.507659
	C9408	C	0.713755	0.753497	0.431474
	C9409	C	0.612850	0.753248	0.462530
	C9410	C	0.622806	0.753126	0.470614
	C9411	C	0.627413	0.691833	0.474488
	C9412	C	0.627473	0.814421	0.474396
	C9413	C	0.612865	0.253091	0.462559
	C9414	C	0.622786	0.253195	0.470683
	C9415	C	0.627445	0.192177	0.474481
	C9416	C	0.627466	0.314216	0.474470
	C9417	C	0.610708	0.753143	0.434004
	C9418	C	0.619096	0.753282	0.425369
	C9419	C	0.622964	0.814469	0.421261
	C9420	C	0.623041	0.692123	0.421331
	C9421	C	0.610824	0.253283	0.434039
	C9422	C	0.619156	0.253324	0.425379
	C9423	C	0.623018	0.314940	0.421298
	C9424	C	0.623114	0.191712	0.421350
	C9425	C	0.731496	0.043690	0.445725
	C9426	C	0.731524	0.962755	0.445731
	C9427	C	0.594253	0.043627	0.449496
	C9428	C	0.594248	0.962649	0.449504
	C9429	C	0.597191	0.043447	0.448992
	C9430	C	0.597171	0.962761	0.449008
	C9431	C	0.596769	0.462581	0.447354
	C9432	C	0.730584	0.463137	0.444937
	C9433	C	0.732072	0.462782	0.444869
	C9434	C	0.596729	0.543493	0.447338
	C9435	C	0.732103	0.543751	0.444860
	C9436	C	0.730636	0.543899	0.444922
	C9437	C	0.716515	0.752665	0.460008
	C9438	C	0.716403	0.253119	0.459952
	C9439	C	0.707960	0.752700	0.468504
	C9440	C	0.703990	0.691453	0.472503
	C9441	C	0.703970	0.813926	0.472512
	C9442	C	0.707946	0.253040	0.468519
	C9443	C	0.704008	0.191492	0.472566
	C9444	C	0.703987	0.314463	0.472547
	C9445	C	0.713803	0.253020	0.431432
	C9446	C	0.675503	0.753003	0.400078
	C9447	C	0.642935	0.753229	0.400532
	C9448	C	0.651175	0.753218	0.493885
	C9449	C	0.699155	0.692032	0.419536
	C9450	C	0.699122	0.814512	0.419599
	C9451	C	0.685398	0.753179	0.408218
	C9452	C	0.634566	0.753273	0.409186
	C9453	C	0.630703	0.692119	0.413310
	C9454	C	0.690027	0.691952	0.412027
	C9455	C	0.689999	0.814471	0.412077
	C9456	C	0.630624	0.814485	0.413242
	C9457	C	0.703798	0.753291	0.423393
	C9458	C	0.683661	0.752846	0.492956
	C9459	C	0.696136	0.691534	0.480379
	C9460	C	0.696117	0.813955	0.480389
	C9461	C	0.692137	0.752707	0.484387
	C9462	C	0.669335	0.462619	0.507629
	C9463	C	0.658852	0.462799	0.385921
	C9464	C	0.668448	0.462821	0.507382
	C9465	C	0.669342	0.543410	0.507644
	C9466	C	0.668452	0.543556	0.507432
	C9467	C	0.658848	0.543538	0.385929
	C9468	C	0.683732	0.252816	0.493020
	C9469	C	0.696209	0.191325	0.480481
	C9470	C	0.696203	0.314373	0.480469
	C9471	C	0.692228	0.252850	0.484478
	C9472	C	0.657231	0.043558	0.387965
	C9473	C	0.675427	0.252783	0.400123
	C9474	C	0.642871	0.253133	0.400511
	C9475	C	0.651202	0.253201	0.493832
	C9476	C	0.699193	0.191780	0.419545
	C9477	C	0.699181	0.314086	0.419549
	C9478	C	0.685360	0.252876	0.408256
	C9479	C	0.634534	0.253345	0.409179
	C9480	C	0.641244	0.753207	0.485756
	C9481	C	0.636633	0.814394	0.481879
	C9482	C	0.636573	0.691949	0.481975
	C9483	C	0.641267	0.253064	0.485747
	C9484	C	0.636617	0.314237	0.481947
	C9485	C	0.636603	0.192055	0.481955
	C9486	C	0.630742	0.191802	0.413310
	C9487	C	0.690044	0.191713	0.412061
	C9488	C	0.690038	0.314066	0.412057
	C9489	C	0.630644	0.314893	0.413256
	C9490	C	0.703844	0.252937	0.423357
	C9491	C	0.668058	0.043353	0.507899
	C9492	C	0.656525	0.043421	0.384374
	C9493	C	0.657263	0.962667	0.387940
	C9494	C	0.668030	0.962355	0.507915
	C9495	C	0.656585	0.962480	0.384356
	N9496	N	0.595511	0.070432	0.448495
	N9497	N	0.595503	0.935851	0.448520
	N9498	N	0.595435	0.435729	0.448526
	N9499	N	0.595420	0.570340	0.448527
	N9500	N	0.668790	0.435702	0.507725
	N9501	N	0.668830	0.570209	0.507761
	N9502	N	0.668744	0.070094	0.507790
	N9503	N	0.668747	0.935533	0.507796
	O9504	O	0.730287	0.695037	0.554271
	O9505	O	0.730437	0.811031	0.554185
	O9506	O	0.620179	0.695023	0.580830
	O9507	O	0.620305	0.810873	0.580787
	O9508	O	0.620339	0.195015	0.580727
	O9509	O	0.620327	0.310985	0.580710
	O9510	O	0.617936	0.695132	0.558778
	O9511	O	0.617944	0.810951	0.558790
	O9512	O	0.618022	0.195710	0.558798
	O9513	O	0.617958	0.311488	0.558760
	O9514	O	0.732777	0.695169	0.576100
	O9515	O	0.732860	0.811379	0.576189
	O9516	O	0.732735	0.195298	0.576135
	O9517	O	0.732721	0.311183	0.576114
	O9518	O	0.730361	0.194963	0.554130
	O9519	O	0.730376	0.310775	0.554115
	O9520	O	0.682751	0.694891	0.518302
	O9521	O	0.657197	0.694837	0.519135
	O9522	O	0.693527	0.694984	0.615767
	O9523	O	0.693398	0.811192	0.615647
	O9524	O	0.667875	0.694895	0.616769
	O9525	O	0.668015	0.810733	0.616697
	O9526	O	0.657110	0.810699	0.519083
	O9527	O	0.682791	0.810780	0.518204
	O9528	O	0.682697	0.194957	0.518271
	O9529	O	0.657199	0.195376	0.519181
	O9530	O	0.693476	0.195277	0.615805
	O9531	O	0.693468	0.311055	0.615765
	O9532	O	0.667835	0.194693	0.616758
	O9533	O	0.667905	0.310799	0.616689
	O9534	O	0.657000	0.311212	0.519021
	O9535	O	0.682656	0.310679	0.518234
	H9536	H	0.635562	0.644620	0.592287
	H9537	H	0.635590	0.860781	0.592240
	H9538	H	0.635524	0.144944	0.592268
	H9539	H	0.635539	0.361304	0.592293
	H9540	H	0.630544	0.860971	0.546113
	H9541	H	0.630481	0.645070	0.546039
	H9542	H	0.630388	0.361625	0.545997
	H9543	H	0.630602	0.145719	0.546153
	H9544	H	0.745481	0.064818	0.564686
	H9545	H	0.745042	0.064565	0.563883
	H9546	H	0.745039	0.941337	0.563897
	H9547	H	0.745508	0.941476	0.564658
	H9548	H	0.744695	0.065023	0.565610
	H9549	H	0.744770	0.941709	0.565667
	H9550	H	0.606400	0.064640	0.569596
	H9551	H	0.606391	0.941005	0.569642
	H9552	H	0.605849	0.064804	0.569781
	H9553	H	0.605826	0.941677	0.569790
	H9554	H	0.605761	0.064887	0.570511
	H9555	H	0.605714	0.941149	0.570551
	H9556	H	0.608075	0.441423	0.569578
	H9557	H	0.606847	0.441082	0.568656
	H9558	H	0.607741	0.441423	0.571449
	H9559	H	0.743172	0.441666	0.565096
	H9560	H	0.743458	0.441287	0.563791
	H9561	H	0.744490	0.441112	0.563543
	H9562	H	0.606886	0.564461	0.568623
	H9563	H	0.608143	0.564449	0.569651
	H9564	H	0.744473	0.564370	0.563493
	H9565	H	0.743403	0.564267	0.563809
	H9566	H	0.743165	0.564520	0.565031
	H9567	H	0.607671	0.564472	0.571495
	H9568	H	0.720258	0.644651	0.588833
	H9569	H	0.720140	0.861639	0.588755
	H9570	H	0.720127	0.145393	0.588790
	H9571	H	0.720178	0.360813	0.588858
	H9572	H	0.644571	0.644920	0.531784
	H9573	H	0.698065	0.644862	0.529751
	H9574	H	0.697985	0.860995	0.529809
	H9575	H	0.644649	0.860822	0.531840
	H9576	H	0.715121	0.644787	0.542665
	H9577	H	0.715065	0.861265	0.542706
	H9578	H	0.706121	0.644577	0.603065
	H9579	H	0.706024	0.861729	0.602987
	H9580	H	0.669608	0.441447	0.507882
	H9581	H	0.683602	0.441390	0.627633
	H9582	H	0.668936	0.440668	0.508460
	H9583	H	0.668277	0.440850	0.508261
	H9584	H	0.681448	0.441208	0.625699
	H9585	H	0.682846	0.441448	0.625939
	H9586	H	0.683523	0.564253	0.627628
	H9587	H	0.669617	0.564815	0.507909
	H9588	H	0.682885	0.564721	0.625986
	H9589	H	0.681450	0.564649	0.625740
	H9590	H	0.668341	0.564262	0.508295
	H9591	H	0.668977	0.564241	0.508443
	H9592	H	0.706040	0.145398	0.603055
	H9593	H	0.706083	0.360503	0.603136
	H9594	H	0.669466	0.064403	0.507136
	H9595	H	0.668583	0.064672	0.506892
	H9596	H	0.669774	0.064526	0.508190
	H9597	H	0.652702	0.860728	0.605122
	H9598	H	0.652660	0.644812	0.605166
	H9599	H	0.652665	0.360999	0.605182
	H9600	H	0.652636	0.144798	0.605150
	H9601	H	0.644664	0.145582	0.531865
	H9602	H	0.698142	0.145450	0.529640
	H9603	H	0.697810	0.360488	0.529852
	H9604	H	0.644470	0.361510	0.531721
	H9605	H	0.715263	0.145772	0.542494
	H9606	H	0.714967	0.360392	0.542713
	H9607	H	0.680020	0.064291	0.626151
	H9608	H	0.679785	0.064452	0.627691
	H9609	H	0.681757	0.064940	0.629105
	H9610	H	0.668680	0.941628	0.506832
	H9611	H	0.669541	0.941489	0.507133
	H9612	H	0.669790	0.941084	0.508148
	H9613	H	0.680048	0.940771	0.626122
	H9614	H	0.679804	0.940973	0.627690
	H9615	H	0.681745	0.941294	0.629132
	Zn9616	Zn	0.606322	0.680016	0.570238
	Zn9617	Zn	0.606337	0.825369	0.570278
	Zn9618	Zn	0.606376	0.180147	0.570178
	Zn9619	Zn	0.606353	0.325404	0.570215
	Zn9620	Zn	0.681922	0.680255	0.627209
	Zn9621	Zn	0.681920	0.825469	0.627228
	Zn9622	Zn	0.681825	0.180363	0.627219
	Zn9623	Zn	0.681877	0.325509	0.627198
	C9624	C	0.726408	0.753053	0.551224
	C9625	C	0.624219	0.752831	0.583790
	C9626	C	0.634519	0.752737	0.591528
	C9627	C	0.639357	0.691597	0.595169
	C9628	C	0.639382	0.813833	0.595145
	C9629	C	0.624274	0.253038	0.583713
	C9630	C	0.634506	0.253071	0.591519
	C9631	C	0.639317	0.191923	0.595154
	C9632	C	0.639329	0.314208	0.595167
	C9633	C	0.621220	0.753072	0.555490
	C9634	C	0.629669	0.753074	0.546909
	C9635	C	0.633658	0.814155	0.542903
	C9636	C	0.633616	0.691871	0.542864
	C9637	C	0.621245	0.253603	0.555483
	C9638	C	0.629712	0.253649	0.546928
	C9639	C	0.633587	0.314809	0.542856
	C9640	C	0.633692	0.192453	0.542930
	C9641	C	0.744999	0.043290	0.564373
	C9642	C	0.745024	0.962601	0.564385
	C9643	C	0.606201	0.043325	0.569847
	C9644	C	0.606197	0.962585	0.569870
	C9645	C	0.606075	0.043326	0.570566
	C9646	C	0.606047	0.962321	0.570577
	C9647	C	0.607173	0.462495	0.569400
	C9648	C	0.743804	0.462570	0.565202
	C9649	C	0.744090	0.462365	0.563933
	C9650	C	0.607175	0.543145	0.569409
	C9651	C	0.744077	0.543110	0.563910
	C9652	C	0.743797	0.543416	0.565191
	C9653	C	0.729557	0.753252	0.579435
	C9654	C	0.729482	0.253258	0.579439
	C9655	C	0.721049	0.753199	0.587968
	C9656	C	0.717089	0.691709	0.591988
	C9657	C	0.717026	0.814624	0.591947
	C9658	C	0.721015	0.253146	0.587993
	C9659	C	0.717010	0.192131	0.591984
	C9660	C	0.717028	0.314025	0.592016
	C9661	C	0.726420	0.252897	0.551113
	C9662	C	0.686737	0.752855	0.521245
	C9663	C	0.653908	0.752768	0.522416
	C9664	C	0.663988	0.752880	0.613714
	C9665	C	0.711324	0.691781	0.539806
	C9666	C	0.711288	0.814251	0.539821
	C9667	C	0.697019	0.752963	0.528989
	C9668	C	0.645411	0.752901	0.530957
	C9669	C	0.641435	0.691735	0.534957
	C9670	C	0.701856	0.691785	0.532641
	C9671	C	0.701815	0.814105	0.532656
	C9672	C	0.641474	0.814060	0.534997
	C9673	C	0.716129	0.753060	0.543451
	C9674	C	0.696753	0.753044	0.612428
	C9675	C	0.709246	0.691648	0.599878
	C9676	C	0.709182	0.814597	0.599833
	C9677	C	0.705256	0.753094	0.603883
	C9678	C	0.682781	0.462555	0.627841
	C9679	C	0.668662	0.462322	0.508200
	C9680	C	0.682086	0.462389	0.626178
	C9681	C	0.682764	0.543324	0.627852
	C9682	C	0.682082	0.543321	0.626189
	C9683	C	0.668688	0.543267	0.508215
	C9684	C	0.696779	0.253087	0.612507
	C9685	C	0.709204	0.192035	0.599899
	C9686	C	0.709225	0.313934	0.599929
	C9687	C	0.705274	0.252969	0.603946
	C9688	C	0.668992	0.043299	0.507205
	C9689	C	0.686683	0.252888	0.521208
	C9690	C	0.653834	0.253341	0.522396
	C9691	C	0.663887	0.252754	0.613747
	C9692	C	0.711370	0.192302	0.539687
	C9693	C	0.711204	0.313773	0.539799
	C9694	C	0.696970	0.253026	0.528957
	C9695	C	0.645400	0.253496	0.530968
	C9696	C	0.653697	0.752917	0.605960
	C9697	C	0.648879	0.813908	0.602291
	C9698	C	0.648854	0.691768	0.602313
	C9699	C	0.653585	0.252886	0.605994
	C9700	C	0.648809	0.314140	0.602332
	C9701	C	0.648794	0.191770	0.602321
	C9702	C	0.641508	0.192438	0.535032
	C9703	C	0.701866	0.192196	0.532558
	C9704	C	0.701690	0.313840	0.532672
	C9705	C	0.641396	0.314650	0.534952
	C9706	C	0.716142	0.253115	0.543361
	C9707	C	0.680422	0.043182	0.627006
	C9708	C	0.669270	0.043144	0.508261
	C9709	C	0.668997	0.962665	0.507193
	C9710	C	0.680441	0.962424	0.626999
	C9711	C	0.669272	0.962276	0.508260
	N9712	N	0.606373	0.070129	0.570249
	N9713	N	0.606339	0.935523	0.570285
	N9714	N	0.606352	0.435554	0.570231
	N9715	N	0.606353	0.570093	0.570257
	N9716	N	0.681896	0.435602	0.627190
	N9717	N	0.681878	0.570160	0.627186
	N9718	N	0.681850	0.070213	0.627243
	N9719	N	0.681890	0.935657	0.627241
	O9720	O	0.743729	0.694561	0.673452
	O9721	O	0.743797	0.810746	0.673411
	O9722	O	0.633432	0.695032	0.700226
	O9723	O	0.633395	0.811004	0.700190
	O9724	O	0.633399	0.195170	0.700246
	O9725	O	0.633404	0.311181	0.700116
	O9726	O	0.631008	0.694419	0.678263
	O9727	O	0.630917	0.810500	0.678230
	O9728	O	0.630891	0.194624	0.678242
	O9729	O	0.631006	0.310479	0.678283
	O9730	O	0.746262	0.694810	0.695472
	O9731	O	0.746224	0.810975	0.695405
	O9732	O	0.746216	0.194684	0.695399
	O9733	O	0.746192	0.310715	0.695338
	O9734	O	0.743738	0.195086	0.673458
	O9735	O	0.743786	0.311234	0.673397
	O9736	O	0.695963	0.695207	0.637615
	O9737	O	0.670254	0.694340	0.638593
	O9738	O	0.706796	0.694759	0.734920
	O9739	O	0.706804	0.810889	0.734928
	O9740	O	0.681272	0.695192	0.735963
	O9741	O	0.681261	0.811257	0.736069
	O9742	O	0.670414	0.810472	0.638749
	O9743	O	0.695873	0.811218	0.637720
	O9744	O	0.695890	0.195371	0.637637
	O9745	O	0.670308	0.194821	0.638706
	O9746	O	0.706969	0.195205	0.735019
	O9747	O	0.706846	0.311163	0.734927
	O9748	O	0.681241	0.194960	0.735997
	O9749	O	0.681296	0.311201	0.735991
	O9750	O	0.670349	0.310643	0.638700
	O9751	O	0.695872	0.311348	0.637713
	H9752	H	0.648799	0.644747	0.711633
	H9753	H	0.648820	0.862205	0.711651
	H9754	H	0.648835	0.144646	0.711603
	H9755	H	0.648732	0.362510	0.711671
	H9756	H	0.643542	0.860874	0.665582
	H9757	H	0.643449	0.644136	0.665478
	H9758	H	0.643654	0.360550	0.665683
	H9759	H	0.643639	0.144511	0.665586
	H9760	H	0.757887	0.064695	0.683825
	H9761	H	0.757739	0.064810	0.683696
	H9762	H	0.757733	0.941529	0.683683
	H9763	H	0.757854	0.941102	0.683798
	H9764	H	0.757924	0.064621	0.684045
	H9765	H	0.757908	0.941135	0.684034
	H9766	H	0.617995	0.064493	0.691209
	H9767	H	0.617919	0.940857	0.691157
	H9768	H	0.619878	0.064499	0.691622
	H9769	H	0.619789	0.941390	0.691638
	H9770	H	0.621680	0.064902	0.690056
	H9771	H	0.621692	0.941649	0.690110
	H9772	H	0.617488	0.441252	0.688671
	H9773	H	0.617358	0.441085	0.690157
	H9774	H	0.619742	0.441366	0.687879
	H9775	H	0.756166	0.441048	0.684199
	H9776	H	0.756788	0.440938	0.682686
	H9777	H	0.758184	0.441105	0.682529
	H9778	H	0.617372	0.564555	0.690212
	H9779	H	0.617545	0.564000	0.688692
	H9780	H	0.758105	0.564335	0.682588
	H9781	H	0.756754	0.564769	0.682750
	H9782	H	0.756155	0.564567	0.684242
	H9783	H	0.619780	0.564388	0.687906
	H9784	H	0.733636	0.644304	0.708147
	H9785	H	0.733534	0.861714	0.708035
	H9786	H	0.733702	0.144763	0.708135
	H9787	H	0.733530	0.360813	0.707960
	H9788	H	0.657519	0.643908	0.651236
	H9789	H	0.711115	0.644453	0.649231
	H9790	H	0.711376	0.861289	0.649034
	H9791	H	0.657699	0.860864	0.651358
	H9792	H	0.728300	0.644060	0.662060
	H9793	H	0.728552	0.861321	0.661858
	H9794	H	0.719541	0.644241	0.722363
	H9795	H	0.719407	0.861727	0.722252
	H9796	H	0.682628	0.440902	0.628569
	H9797	H	0.695604	0.441216	0.746903
	H9798	H	0.680658	0.440959	0.628211
	H9799	H	0.680185	0.441160	0.626980
	H9800	H	0.695580	0.441326	0.746012
	H9801	H	0.695945	0.440993	0.746383
	H9802	H	0.695637	0.564452	0.746947
	H9803	H	0.682642	0.564582	0.628546
	H9804	H	0.695897	0.564435	0.746353
	H9805	H	0.695562	0.564485	0.746010
	H9806	H	0.680171	0.564374	0.626987
	H9807	H	0.680672	0.564687	0.628199
	H9808	H	0.719618	0.144891	0.722381
	H9809	H	0.719414	0.361134	0.722203
	H9810	H	0.683801	0.064987	0.626473
	H9811	H	0.682356	0.064657	0.625409
	H9812	H	0.683443	0.064720	0.628597
	H9813	H	0.666003	0.862082	0.724488
	H9814	H	0.665966	0.644927	0.724502
	H9815	H	0.665899	0.362271	0.724552
	H9816	H	0.665947	0.144640	0.724463
	H9817	H	0.657765	0.144716	0.651388
	H9818	H	0.711247	0.145034	0.649105
	H9819	H	0.711126	0.361693	0.649209
	H9820	H	0.657769	0.360799	0.651425
	H9821	H	0.728462	0.144842	0.661866
	H9822	H	0.728350	0.361815	0.661977
	H9823	H	0.693690	0.064331	0.744765
	H9824	H	0.692854	0.064767	0.746362
	H9825	H	0.694431	0.064409	0.748369
	H9826	H	0.682387	0.941056	0.625424
	H9827	H	0.683829	0.941781	0.626496
	H9828	H	0.683457	0.941404	0.628608
	H9829	H	0.693750	0.941315	0.744827
	H9830	H	0.692897	0.941236	0.746367
	H9831	H	0.694429	0.941292	0.748414
	Zn9832	Zn	0.619422	0.680001	0.689758
	Zn9833	Zn	0.619336	0.825750	0.689697
	Zn9834	Zn	0.619439	0.180112	0.689770
	Zn9835	Zn	0.619327	0.325585	0.689675
	Zn9836	Zn	0.695273	0.679999	0.746430
	Zn9837	Zn	0.695348	0.825629	0.746504
	Zn9838	Zn	0.695277	0.180088	0.746404
	Zn9839	Zn	0.695360	0.325605	0.746457
	C9840	C	0.739790	0.752717	0.670452
	C9841	C	0.637424	0.753166	0.703178
	C9842	C	0.647772	0.753490	0.710871
	C9843	C	0.652621	0.692056	0.714487
	C9844	C	0.652632	0.814953	0.714498
	C9845	C	0.637397	0.253365	0.703148
	C9846	C	0.647741	0.253665	0.710856
	C9847	C	0.652611	0.192057	0.714468
	C9848	C	0.652562	0.315181	0.714515
	C9849	C	0.634236	0.752503	0.674960
	C9850	C	0.642733	0.752512	0.666435
	C9851	C	0.646708	0.813869	0.662419
	C9852	C	0.646662	0.691176	0.662381
	C9853	C	0.634223	0.252485	0.674965
	C9854	C	0.642733	0.252508	0.666428
	C9855	C	0.646768	0.313667	0.662476
	C9856	C	0.646752	0.191464	0.662429
	C9857	C	0.757807	0.043450	0.683790
	C9858	C	0.757792	0.962500	0.683765
	C9859	C	0.619061	0.043257	0.690974
	C9860	C	0.619022	0.962383	0.690966
	C9861	C	0.620890	0.043648	0.689404
	C9862	C	0.620878	0.962761	0.689408
	C9863	C	0.617935	0.462375	0.689500
	C9864	C	0.756918	0.462596	0.684466
	C9865	C	0.757561	0.462374	0.682961
	C9866	C	0.617957	0.543050	0.689512
	C9867	C	0.757544	0.543292	0.682983
	C9868	C	0.756895	0.543354	0.684484
	C9869	C	0.742945	0.752906	0.698714
	C9870	C	0.742929	0.252749	0.698654
	C9871	C	0.734389	0.752961	0.707222
	C9872	C	0.730452	0.691477	0.711273
	C9873	C	0.730393	0.814550	0.711212
	C9874	C	0.734462	0.252859	0.707233
	C9875	C	0.730539	0.191718	0.711291
	C9876	C	0.730436	0.314042	0.711191
	C9877	C	0.739747	0.253153	0.670471
	C9878	C	0.699898	0.753183	0.640647
	C9879	C	0.667041	0.752374	0.641964
	C9880	C	0.677297	0.753338	0.733028
	C9881	C	0.724539	0.691348	0.659173
	C9882	C	0.724662	0.814187	0.659074
	C9883	C	0.710216	0.752922	0.648382
	C9884	C	0.658523	0.752463	0.650503
	C9885	C	0.654472	0.691091	0.654469
	C9886	C	0.715003	0.691508	0.652048
	C9887	C	0.715128	0.814208	0.651953
	C9888	C	0.654536	0.813874	0.654517
	C9889	C	0.729454	0.752772	0.662755
	C9890	C	0.710053	0.752835	0.731622
	C9891	C	0.722603	0.691437	0.719148
	C9892	C	0.722533	0.814557	0.719087
	C9893	C	0.718545	0.752956	0.723096
	C9894	C	0.695343	0.462438	0.746827
	C9895	C	0.680795	0.462404	0.627485
	C9896	C	0.695626	0.462399	0.746279
	C9897	C	0.695329	0.543087	0.746824
	C9898	C	0.695610	0.543270	0.746256
	C9899	C	0.680798	0.543231	0.627478
	C9900	C	0.710167	0.253190	0.731674
	C9901	C	0.722722	0.191781	0.719196
	C9902	C	0.722596	0.314193	0.719081
	C9903	C	0.718668	0.253087	0.723144
	C9904	C	0.682754	0.043474	0.626303
	C9905	C	0.699847	0.253337	0.640660
	C9906	C	0.667055	0.252761	0.642000
	C9907	C	0.677296	0.253182	0.733008
	C9908	C	0.724609	0.191962	0.659065
	C9909	C	0.724539	0.314723	0.659138
	C9910	C	0.710171	0.253378	0.648395
	C9911	C	0.658564	0.252768	0.650537
	C9912	C	0.666992	0.753499	0.725268
	C9913	C	0.662163	0.814935	0.721626
	C9914	C	0.662142	0.692104	0.721618
	C9915	C	0.666976	0.253436	0.725255
	C9916	C	0.662092	0.315004	0.721655
	C9917	C	0.662135	0.191965	0.721604
	C9918	C	0.654610	0.191519	0.654555
	C9919	C	0.715060	0.192039	0.651970
	C9920	C	0.714997	0.314659	0.652036
	C9921	C	0.654614	0.313933	0.654590
	C9922	C	0.729412	0.253305	0.662752
	C9923	C	0.693824	0.043323	0.745804
	C9924	C	0.682396	0.043497	0.628433
	C9925	C	0.682774	0.962571	0.626291
	C9926	C	0.693843	0.962458	0.745823
	C9927	C	0.682423	0.962563	0.628440
	N9928	N	0.619423	0.070295	0.689737
	N9929	N	0.619359	0.935813	0.689709
	N9930	N	0.619329	0.435520	0.689685
	N9931	N	0.619388	0.570014	0.689704
	N9932	N	0.695302	0.435503	0.746445
	N9933	N	0.695262	0.570006	0.746434
	N9934	N	0.695290	0.070116	0.746416
	N9935	N	0.695332	0.935611	0.746473
	O9936	O	0.757160	0.694587	0.792756
	O9937	O	0.757164	0.810466	0.792647
	O9938	O	0.646694	0.695121	0.819386
	O9939	O	0.646868	0.811033	0.819278
	O9940	O	0.646790	0.195149	0.819276
	O9941	O	0.646787	0.311192	0.819229
	O9942	O	0.644288	0.694795	0.797399
	O9943	O	0.644348	0.810635	0.797403
	O9944	O	0.644196	0.195051	0.797320
	O9945	O	0.644263	0.310973	0.797315
	O9946	O	0.759549	0.694784	0.814639
	O9947	O	0.759571	0.810518	0.814650
	O9948	O	0.759518	0.194674	0.814599
	O9949	O	0.759552	0.310688	0.814683
	O9950	O	0.757082	0.194477	0.792735
	O9951	O	0.757040	0.310551	0.792682
	O9952	O	0.709291	0.694511	0.756925
	O9953	O	0.683772	0.694683	0.757927
	O9954	O	0.720161	0.694818	0.854194
	O9955	O	0.720166	0.810685	0.854170
	O9956	O	0.694570	0.694510	0.855136
	O9957	O	0.694697	0.810526	0.855066
	O9958	O	0.683714	0.810560	0.757932
	O9959	O	0.709368	0.810396	0.756886
	O9960	O	0.709331	0.194475	0.756827
	O9961	O	0.683653	0.194678	0.757827
	O9962	O	0.720091	0.194728	0.854155
	O9963	O	0.720088	0.310505	0.854191
	O9964	O	0.694525	0.194934	0.855147
	O9965	O	0.694575	0.310643	0.855134
	O9966	O	0.683906	0.310494	0.757982
	O9967	O	0.709364	0.310485	0.756860
	H9968	H	0.662092	0.644386	0.830820
	H9969	H	0.662077	0.861164	0.830807
	H9970	H	0.662033	0.145074	0.830787
	H9971	H	0.661997	0.361458	0.830855
	H9972	H	0.656924	0.860438	0.784761
	H9973	H	0.656992	0.644582	0.784791
	H9974	H	0.657020	0.361202	0.784732
	H9975	H	0.656875	0.144858	0.784752
	H9976	H	0.772209	0.064375	0.804394
	H9977	H	0.772970	0.064093	0.803268
	H9978	H	0.772899	0.941225	0.803250
	H9979	H	0.772222	0.940762	0.804375
	H9980	H	0.770157	0.064175	0.804393
	H9981	H	0.770158	0.941058	0.804429
	H9982	H	0.633085	0.064417	0.809348
	H9983	H	0.633112	0.940871	0.809303
	H9984	H	0.633388	0.064317	0.808985
	H9985	H	0.633398	0.941027	0.808945
	H9986	H	0.633022	0.064450	0.808410
	H9987	H	0.633042	0.941152	0.808392
	H9988	H	0.634529	0.440779	0.809981
	H9989	H	0.634879	0.440768	0.808446
	H9990	H	0.632102	0.441088	0.810636
	H9991	H	0.769835	0.440963	0.801933
	H9992	H	0.771952	0.440913	0.801768
	H9993	H	0.772891	0.441260	0.802860
	H9994	H	0.634841	0.564208	0.808483
	H9995	H	0.634501	0.563982	0.810020
	H9996	H	0.772939	0.564753	0.802863
	H9997	H	0.772003	0.564190	0.801829
	H9998	H	0.769927	0.564247	0.802017
	H9999	H	0.632100	0.564244	0.810669
	H10000	H	0.746871	0.645031	0.827286
	H10001	H	0.747047	0.860250	0.827355
	H10002	H	0.746862	0.144547	0.827254
	H10003	H	0.746949	0.360760	0.827353
	H10004	H	0.671176	0.644535	0.770582
	H10005	H	0.724657	0.643707	0.768411
	H10006	H	0.724684	0.860401	0.768333
	H10007	H	0.671064	0.860413	0.770576
	H10008	H	0.741841	0.643734	0.781255
	H10009	H	0.741859	0.860660	0.781160
	H10010	H	0.732694	0.644923	0.841466
	H10011	H	0.732901	0.860449	0.841551
	H10012	H	0.695134	0.441177	0.746913
	H10013	H	0.709926	0.441501	0.865299
	H10014	H	0.694635	0.440942	0.746459
	H10015	H	0.694820	0.441113	0.746078
	H10016	H	0.707472	0.440641	0.864719
	H10017	H	0.708578	0.441138	0.864367
	H10018	H	0.709959	0.564297	0.865242
	H10019	H	0.695044	0.564254	0.746970
	H10020	H	0.708617	0.564162	0.864338
	H10021	H	0.707419	0.564384	0.864719
	H10022	H	0.694781	0.564232	0.746067
	H10023	H	0.694581	0.564611	0.746461
	H10024	H	0.732716	0.144176	0.841494
	H10025	H	0.732837	0.360905	0.841590
	H10026	H	0.697673	0.064296	0.746113
	H10027	H	0.696506	0.064362	0.744648
	H10028	H	0.696456	0.064264	0.748301
	H10029	H	0.679251	0.861394	0.843654
	H10030	H	0.679253	0.644321	0.843666
	H10031	H	0.679128	0.361479	0.843729
	H10032	H	0.679187	0.144720	0.843674
	H10033	H	0.671012	0.144454	0.770526
	H10034	H	0.724660	0.143775	0.768374
	H10035	H	0.724760	0.360569	0.768233
	H10036	H	0.671189	0.360827	0.770546
	H10037	H	0.741794	0.143766	0.781204
	H10038	H	0.741873	0.360319	0.781103
	H10039	H	0.709904	0.064232	0.863287
	H10040	H	0.707320	0.064767	0.863098
	H10041	H	0.705466	0.064873	0.865632
	H10042	H	0.696531	0.941231	0.744735
	H10043	H	0.697661	0.940713	0.746226
	H10044	H	0.696483	0.941047	0.748325
	H10045	H	0.709901	0.941569	0.863265
	H10046	H	0.707323	0.940672	0.863144
	H10047	H	0.705452	0.941029	0.865658
	Zn10048	Zn	0.632726	0.679891	0.808924
	Zn10049	Zn	0.632786	0.825500	0.808824
	Zn10050	Zn	0.632750	0.179898	0.808888
	Zn10051	Zn	0.632744	0.325439	0.808816
	Zn10052	Zn	0.708541	0.680090	0.865563
	Zn10053	Zn	0.708610	0.825394	0.865612
	Zn10054	Zn	0.708517	0.180229	0.865591
	Zn10055	Zn	0.708568	0.325548	0.865640
	C10056	C	0.753176	0.752401	0.789718
	C10057	C	0.650743	0.752999	0.822313
	C10058	C	0.661045	0.752859	0.830034
	C10059	C	0.665890	0.691474	0.833670
	C10060	C	0.665901	0.814153	0.833656
	C10061	C	0.650753	0.253228	0.822258
	C10062	C	0.661050	0.253213	0.830016
	C10063	C	0.665890	0.192010	0.833659
	C10064	C	0.665842	0.314461	0.833679
	C10065	C	0.647601	0.752665	0.794119
	C10066	C	0.656082	0.752482	0.785589
	C10067	C	0.660057	0.813605	0.781606
	C10068	C	0.660108	0.691402	0.781608
	C10069	C	0.647520	0.252973	0.794040
	C10070	C	0.656101	0.252950	0.785580
	C10071	C	0.660156	0.314096	0.781587
	C10072	C	0.660065	0.191638	0.781588
	C10073	C	0.772193	0.043126	0.803649
	C10074	C	0.772168	0.962114	0.803635
	C10075	C	0.633101	0.043042	0.809079
	C10076	C	0.633123	0.962266	0.809069
	C10077	C	0.632753	0.043154	0.808508
	C10078	C	0.632769	0.962406	0.808505
	C10079	C	0.634143	0.462083	0.809123
	C10080	C	0.769974	0.462279	0.802721
	C10081	C	0.772071	0.462390	0.802542
	C10082	C	0.634153	0.542977	0.809161
	C10083	C	0.772105	0.543226	0.802568
	C10084	C	0.770035	0.543084	0.802768
	C10085	C	0.756274	0.752614	0.817922
	C10086	C	0.756282	0.252592	0.817948
	C10087	C	0.747799	0.752562	0.826473
	C10088	C	0.743760	0.691696	0.830458
	C10089	C	0.743859	0.813517	0.830508
	C10090	C	0.747746	0.252576	0.826478
	C10091	C	0.743727	0.191398	0.830454
	C10092	C	0.743774	0.313780	0.830508
	C10093	C	0.753097	0.252355	0.789729
	C10094	C	0.713311	0.752394	0.759883
	C10095	C	0.680456	0.752588	0.761217
	C10096	C	0.690644	0.752645	0.852116
	C10097	C	0.738025	0.690794	0.778372
	C10098	C	0.738024	0.813474	0.778328
	C10099	C	0.723644	0.752143	0.767602
	C10100	C	0.671902	0.752562	0.769721
	C10101	C	0.667957	0.691386	0.773727
	C10102	C	0.728493	0.690823	0.771255
	C10103	C	0.728507	0.813397	0.771203
	C10104	C	0.667897	0.813640	0.773726
	C10105	C	0.742862	0.752230	0.781976
	C10106	C	0.723462	0.752717	0.850901
	C10107	C	0.735909	0.691614	0.838338
	C10108	C	0.736016	0.813622	0.838391
	C10109	C	0.731976	0.752594	0.842367
	C10110	C	0.709512	0.462514	0.865736
	C10111	C	0.694866	0.462311	0.746325
	C10112	C	0.708142	0.462124	0.864824
	C10113	C	0.709521	0.543220	0.865715
	C10114	C	0.708144	0.543094	0.864812
	C10115	C	0.694825	0.543190	0.746306
	C10116	C	0.723387	0.252635	0.850896
	C10117	C	0.735875	0.191244	0.838340
	C10118	C	0.735912	0.313912	0.838389
	C10119	C	0.731907	0.252512	0.842371
	C10120	C	0.696618	0.043293	0.745687
	C10121	C	0.713313	0.252359	0.759829
	C10122	C	0.680484	0.252604	0.761190
	C10123	C	0.690552	0.252838	0.852171
	C10124	C	0.737969	0.190772	0.778359
	C10125	C	0.738025	0.313472	0.778294
	C10126	C	0.723641	0.252202	0.767572
	C10127	C	0.671985	0.252641	0.769734
	C10128	C	0.680277	0.752852	0.844401
	C10129	C	0.675420	0.814178	0.840795
	C10130	C	0.675406	0.691511	0.840796
	C10131	C	0.680235	0.253088	0.844436
	C10132	C	0.675346	0.314347	0.840824
	C10133	C	0.675385	0.191913	0.840809
	C10134	C	0.667930	0.191521	0.773724
	C10135	C	0.728485	0.190823	0.771193
	C10136	C	0.728537	0.313488	0.771138
	C10137	C	0.668026	0.313948	0.773725
	C10138	C	0.742816	0.252084	0.781969
	C10139	C	0.708584	0.043236	0.863837
	C10140	C	0.695412	0.043050	0.747841
	C10141	C	0.696616	0.962368	0.745746
	C10142	C	0.708598	0.962497	0.863836
	C10143	C	0.695421	0.962393	0.747863
	N10144	N	0.632729	0.070041	0.808872
	N10145	N	0.632767	0.935530	0.808851
	N10146	N	0.632702	0.435461	0.808870
	N10147	N	0.632707	0.569987	0.808920
	N10148	N	0.708545	0.435587	0.865618
	N10149	N	0.708542	0.570086	0.865583
	N10150	N	0.708520	0.070077	0.865584
	N10151	N	0.708562	0.935480	0.865608
	O10152	O	0.768693	0.694542	0.913645
	O10153	O	0.768562	0.810573	0.913624
	O10154	O	0.659924	0.694655	0.938861
	O10155	O	0.659896	0.810421	0.938866
	O10156	O	0.660022	0.194594	0.938795
	O10157	O	0.659903	0.310414	0.938918
	O10158	O	0.657659	0.694740	0.916759
	O10159	O	0.657712	0.810616	0.916773
	O10160	O	0.657762	0.194847	0.916784
	O10161	O	0.657650	0.310774	0.916712
	O10162	O	0.770345	0.694656	0.935718
	O10163	O	0.770334	0.810763	0.935677
	O10164	O	0.770419	0.194760	0.935710
	O10165	O	0.770298	0.310723	0.935629
	O10166	O	0.768718	0.195081	0.913563
	O10167	O	0.768628	0.310814	0.913657
	O10168	O	0.722498	0.694511	0.876137
	O10169	O	0.697019	0.694950	0.877112
	O10170	O	0.731639	0.694525	0.975782
	O10171	O	0.731719	0.810600	0.975781
	O10172	O	0.706272	0.694787	0.976122
	O10173	O	0.706215	0.810845	0.976165
	O10174	O	0.697038	0.810966	0.877074
	O10175	O	0.722390	0.810736	0.876301
	O10176	O	0.722335	0.194563	0.876287
	O10177	O	0.696995	0.195221	0.877117
	O10178	O	0.731635	0.194956	0.975764
	O10179	O	0.731694	0.310873	0.975771
	O10180	O	0.706226	0.195017	0.976118
	O10181	O	0.706154	0.311023	0.976188
	O10182	O	0.696929	0.311305	0.877047
	O10183	O	0.722361	0.310571	0.876331
	H10184	H	0.674807	0.644468	0.950784
	H10185	H	0.674862	0.860371	0.950784
	H10186	H	0.674824	0.144129	0.950812
	H10187	H	0.674890	0.360556	0.950673
	H10188	H	0.670185	0.861210	0.903953
	H10189	H	0.670419	0.644475	0.904117
	H10190	H	0.670294	0.361083	0.904059
	H10191	H	0.670484	0.144755	0.904169
	H10192	H	0.779952	0.064607	0.924561
	H10193	H	0.781005	0.064505	0.926055
	H10194	H	0.780926	0.941667	0.926050
	H10195	H	0.779896	0.941562	0.924500
	H10196	H	0.781290	0.064673	0.922588
	H10197	H	0.781223	0.941493	0.922546
	H10198	H	0.646239	0.064663	0.930076
	H10199	H	0.646141	0.941149	0.930110
	H10200	H	0.647890	0.064262	0.929410
	H10201	H	0.647869	0.940977	0.929421
	H10202	H	0.648077	0.064033	0.927253
	H10203	H	0.647967	0.941290	0.927241
	H10204	H	0.648822	0.441255	0.928122
	H10205	H	0.647751	0.441095	0.926389
	H10206	H	0.647197	0.441293	0.930338
	H10207	H	0.781585	0.441370	0.924814
	H10208	H	0.781698	0.441185	0.923914
	H10209	H	0.782379	0.441046	0.923701
	H10210	H	0.647656	0.564325	0.926351
	H10211	H	0.648825	0.564131	0.928102
	H10212	H	0.782357	0.564072	0.923753
	H10213	H	0.781706	0.564829	0.923999
	H10214	H	0.781638	0.564545	0.924807
	H10215	H	0.647156	0.564738	0.930322
	H10216	H	0.757786	0.644405	0.948462
	H10217	H	0.758000	0.861154	0.948578
	H10218	H	0.757942	0.144419	0.948529
	H10219	H	0.757969	0.360963	0.948511
	H10220	H	0.684552	0.644545	0.889906
	H10221	H	0.737362	0.643883	0.888135
	H10222	H	0.737131	0.861012	0.888279
	H10223	H	0.684320	0.861316	0.889731
	H10224	H	0.753919	0.643805	0.901562
	H10225	H	0.753661	0.861032	0.901696
	H10226	H	0.743906	0.644525	0.962902
	H10227	H	0.744115	0.860984	0.962985
	H10228	H	0.709803	0.441318	0.866320
	H10229	H	0.723502	0.441291	0.986507
	H10230	H	0.708254	0.441024	0.866828
	H10231	H	0.707277	0.440983	0.866169
	H10232	H	0.717512	0.441398	0.984510
	H10233	H	0.720455	0.441118	0.983892
	H10234	H	0.723501	0.563997	0.986591
	H10235	H	0.709759	0.565193	0.866273
	H10236	H	0.720502	0.564163	0.983936
	H10237	H	0.717555	0.565200	0.984460
	H10238	H	0.707246	0.564199	0.866152
	H10239	H	0.708204	0.564774	0.866826
	H10240	H	0.744075	0.144668	0.962938
	H10241	H	0.744104	0.361061	0.962951
	H10242	H	0.710256	0.064790	0.867868
	H10243	H	0.711560	0.064797	0.866039
	H10244	H	0.706693	0.063909	0.867621
	H10245	H	0.691427	0.860497	0.964178
	H10246	H	0.691421	0.644320	0.964200
	H10247	H	0.691485	0.360763	0.964064
	H10248	H	0.691418	0.144693	0.964200
	H10249	H	0.684535	0.144813	0.889896
	H10250	H	0.737202	0.144394	0.888252
	H10251	H	0.737257	0.361034	0.888186
	H10252	H	0.684381	0.361181	0.889784
	H10253	H	0.753812	0.144914	0.901676
	H10254	H	0.753826	0.361140	0.901596
	H10255	H	0.715532	0.064638	0.986692
	H10256	H	0.716981	0.064227	0.989651
	H10257	H	0.721974	0.064219	0.990347
	H10258	H	0.711641	0.941423	0.866026
	H10259	H	0.710287	0.941092	0.867892
	H10260	H	0.706716	0.941398	0.867705
	H10261	H	0.715532	0.941647	0.986697
	H10262	H	0.717042	0.941208	0.989622
	H10263	H	0.721934	0.941294	0.990297
	Zn10264	Zn	0.646076	0.680049	0.928183
	Zn10265	Zn	0.646084	0.825500	0.928214
	Zn10266	Zn	0.646167	0.180177	0.928201
	Zn10267	Zn	0.646140	0.325573	0.928247
	Zn10268	Zn	0.719860	0.680224	0.987006
	Zn10269	Zn	0.719868	0.825533	0.986966
	Zn10270	Zn	0.719811	0.180301	0.986986
	Zn10271	Zn	0.719820	0.325485	0.986968
	C10272	C	0.764764	0.752384	0.910527
	C10273	C	0.663762	0.752531	0.941988
	C10274	C	0.673779	0.752449	0.950007
	C10275	C	0.678512	0.691379	0.953762
	C10276	C	0.678529	0.813482	0.953765
	C10277	C	0.663829	0.252450	0.941950
	C10278	C	0.673825	0.252407	0.949971
	C10279	C	0.678489	0.191221	0.953782
	C10280	C	0.678526	0.313669	0.953706
	C10281	C	0.660970	0.752673	0.913472
	C10282	C	0.669444	0.752816	0.904919
	C10283	C	0.673364	0.814117	0.900828
	C10284	C	0.673500	0.691525	0.900941
	C10285	C	0.660989	0.252816	0.913449
	C10286	C	0.669482	0.252980	0.904887
	C10287	C	0.673437	0.314249	0.900858
	C10288	C	0.673529	0.191711	0.900920
	C10289	C	0.780962	0.043322	0.925084
	C10290	C	0.780913	0.962611	0.925079
	C10291	C	0.646801	0.043216	0.929347
	C10292	C	0.646770	0.962291	0.929361
	C10293	C	0.646972	0.043088	0.927163
	C10294	C	0.646947	0.962336	0.927157
	C10295	C	0.647696	0.462362	0.927488
	C10296	C	0.781996	0.462573	0.924841
	C10297	C	0.782131	0.462536	0.923983
	C10298	C	0.647673	0.543090	0.927468
	C10299	C	0.782126	0.543362	0.924026
	C10300	C	0.782014	0.543101	0.924840
	C10301	C	0.767097	0.752729	0.939000
	C10302	C	0.767138	0.252703	0.939009
	C10303	C	0.758718	0.752666	0.947628
	C10304	C	0.754756	0.691425	0.951698
	C10305	C	0.754878	0.814039	0.951742
	C10306	C	0.758786	0.252733	0.947648
	C10307	C	0.754850	0.191540	0.951717
	C10308	C	0.754855	0.314024	0.951707
	C10309	C	0.764824	0.252998	0.910483
	C10310	C	0.726299	0.752521	0.879320
	C10311	C	0.693746	0.752992	0.880392
	C10312	C	0.702364	0.752763	0.973067
	C10313	C	0.750166	0.690938	0.898631
	C10314	C	0.750040	0.813856	0.898702
	C10315	C	0.736264	0.752381	0.887397
	C10316	C	0.685250	0.752945	0.888963
	C10317	C	0.681332	0.691616	0.893036
	C10318	C	0.740996	0.691014	0.891162
	C10319	C	0.740875	0.813830	0.891232
	C10320	C	0.681199	0.814212	0.892924
	C10321	C	0.754791	0.752334	0.902462
	C10322	C	0.734896	0.752502	0.972448
	C10323	C	0.747075	0.691375	0.959703
	C10324	C	0.747188	0.814012	0.959745
	C10325	C	0.743256	0.752601	0.963789
	C10326	C	0.722254	0.462308	0.987578
	C10327	C	0.707940	0.462533	0.866265
	C10328	C	0.719227	0.462412	0.984947
	C10329	C	0.722267	0.543116	0.987585
	C10330	C	0.719249	0.543393	0.984944
	C10331	C	0.707958	0.543327	0.866247
	C10332	C	0.734930	0.252873	0.972448
	C10333	C	0.747188	0.191527	0.959730
	C10334	C	0.747205	0.314072	0.959737
	C10335	C	0.743301	0.252838	0.963808
	C10336	C	0.710285	0.043423	0.866596
	C10337	C	0.726221	0.252540	0.879397
	C10338	C	0.693708	0.253215	0.880380
	C10339	C	0.702335	0.252998	0.973047
	C10340	C	0.750111	0.191779	0.898678
	C10341	C	0.750133	0.314102	0.898635
	C10342	C	0.736234	0.252641	0.887429
	C10343	C	0.685227	0.253027	0.888935
	C10344	C	0.692381	0.752464	0.965004
	C10345	C	0.687731	0.813493	0.961197
	C10346	C	0.687732	0.691286	0.961190
	C10347	C	0.692359	0.252829	0.965000
	C10348	C	0.687721	0.313858	0.961152
	C10349	C	0.687684	0.191454	0.961228
	C10350	C	0.681344	0.191799	0.893015
	C10351	C	0.740902	0.191517	0.891234
	C10352	C	0.740927	0.313970	0.891197
	C10353	C	0.681248	0.314219	0.892950
	C10354	C	0.754831	0.253027	0.902434
	C10355	C	0.717211	0.043235	0.987849
	C10356	C	0.706733	0.043120	0.866376
	C10357	C	0.710318	0.962387	0.866611
	C10358	C	0.717220	0.962566	0.987831
	C10359	C	0.706757	0.962492	0.866404
	N10360	N	0.646137	0.070022	0.928176
	N10361	N	0.646080	0.935507	0.928187
	N10362	N	0.646084	0.435523	0.928206
	N10363	N	0.646050	0.569991	0.928191
	N10364	N	0.719888	0.435657	0.986948
	N10365	N	0.719926	0.570225	0.986946
	N10366	N	0.719861	0.070147	0.986940
	N10367	N	0.719891	0.935581	0.986957
	O10368	O	0.835896	0.694390	0.055041
	O10369	O	0.835837	0.811356	0.055027
	O10370	O	0.792412	0.693910	0.067694
	O10371	O	0.792403	0.810829	0.067628
	O10372	O	0.792424	0.194212	0.067542
	O10373	O	0.792500	0.310848	0.067600
	O10374	O	0.797121	0.694571	0.042299
	O10375	O	0.797174	0.810964	0.042322
	O10376	O	0.797079	0.194802	0.042277
	O10377	O	0.797201	0.311012	0.042384
	O10378	O	0.831142	0.694494	0.080447
	O10379	O	0.831188	0.810828	0.080438
	O10380	O	0.831066	0.194876	0.080350
	O10381	O	0.831148	0.311243	0.080363
	O10382	O	0.835856	0.194082	0.055037
	O10383	O	0.835842	0.311031	0.055068
	O10384	O	0.854835	0.694175	0.005050
	O10385	O	0.832117	0.694518	-0.000540
	O10386	O	0.796148	0.694914	0.123270
	O10387	O	0.796202	0.811572	0.123303
	O10388	O	0.773540	0.694748	0.117648
	O10389	O	0.773472	0.811506	0.117621
	O10390	O	0.832126	0.811114	-0.000587
	O10391	O	0.854860	0.810912	0.005087
	O10392	O	0.854808	0.194130	0.005061
	O10393	O	0.832064	0.194217	-0.000538
	O10394	O	0.796127	0.195103	0.123211
	O10395	O	0.796224	0.311640	0.123283
	O10396	O	0.773540	0.194328	0.117582
	O10397	O	0.773586	0.311312	0.117560
	O10398	O	0.832078	0.310904	-0.000569
	O10399	O	0.854796	0.310987	0.005091
	H10400	H	0.786879	0.642814	0.083889
	H10401	H	0.786961	0.862486	0.083868
	H10402	H	0.786860	0.142916	0.083761
	H10403	H	0.787035	0.362513	0.083910
	H10404	H	0.807533	0.862265	0.028031
	H10405	H	0.807671	0.643511	0.028107
	H10406	H	0.807677	0.362378	0.028097
	H10407	H	0.807791	0.143575	0.028185
	H10408	H	0.840222	0.064968	0.066992
	H10409	H	0.839041	0.064633	0.069762
	H10410	H	0.839043	0.941559	0.069726
	H10411	H	0.840290	0.941437	0.066867
	H10412	H	0.845096	0.064976	0.066372
	H10413	H	0.845119	0.940807	0.066329
	H10414	H	0.785427	0.064404	0.050938
	H10415	H	0.785382	0.941105	0.050908
	H10416	H	0.783291	0.064682	0.051322
	H10417	H	0.783306	0.940933	0.051339
	H10418	H	0.782439	0.064362	0.053727
	H10419	H	0.782390	0.940767	0.053692
	H10420	H	0.784063	0.440974	0.051821
	H10421	H	0.783253	0.441085	0.052717
	H10422	H	0.785909	0.441187	0.052083
	H10423	H	0.846537	0.441613	0.069671
	H10424	H	0.844545	0.441258	0.072167
	H10425	H	0.841832	0.441205	0.071909
	H10426	H	0.783233	0.564502	0.052787
	H10427	H	0.784079	0.564480	0.051817
	H10428	H	0.841850	0.565208	0.071866
	H10429	H	0.844485	0.564994	0.072195
	H10430	H	0.846485	0.564556	0.069712
	H10431	H	0.785934	0.564620	0.052121
	H10432	H	0.820494	0.643347	0.094621
	H10433	H	0.820634	0.862479	0.094602
	H10434	H	0.820489	0.143751	0.094557
	H10435	H	0.820431	0.362756	0.094483
	H10436	H	0.819748	0.643436	0.012503
	H10437	H	0.849339	0.642627	0.021263
	H10438	H	0.849546	0.862336	0.021406
	H10439	H	0.819573	0.862299	0.012421
	H10440	H	0.841349	0.642621	0.038784
	H10441	H	0.841530	0.862284	0.038829
	H10442	H	0.808495	0.643730	0.110241
	H10443	H	0.808641	0.862904	0.110228
	H10444	H	0.841862	0.440891	-0.010078
	H10445	H	0.779675	0.441601	0.130055
	H10446	H	0.845759	0.441408	-0.013910
	H10447	H	0.850226	0.440649	-0.013119
	H10448	H	0.779571	0.441121	0.133981
	H10449	H	0.778294	0.441278	0.132367
	H10450	H	0.779729	0.564769	0.130087
	H10451	H	0.841868	0.564043	-0.010066
	H10452	H	0.778326	0.564410	0.132353
	H10453	H	0.779522	0.564140	0.133991
	H10454	H	0.850231	0.565034	-0.013064
	H10455	H	0.845810	0.563846	-0.013873
	H10456	H	0.808429	0.143800	0.110157
	H10457	H	0.808378	0.363132	0.110079
	H10458	H	0.850238	0.064460	-0.011538
	H10459	H	0.847174	0.064143	-0.012743
	H10460	H	0.850683	0.064647	-0.007757
	H10461	H	0.779000	0.862871	0.101364
	H10462	H	0.778958	0.642965	0.101381
	H10463	H	0.779070	0.362489	0.101386
	H10464	H	0.778934	0.142774	0.101285
	H10465	H	0.819766	0.143362	0.012536
	H10466	H	0.849352	0.142724	0.021310
	H10467	H	0.849401	0.362508	0.021377
	H10468	H	0.819644	0.362127	0.012447
	H10469	H	0.841327	0.142628	0.038818
	H10470	H	0.841399	0.362534	0.038858
	H10471	H	0.786641	0.064393	0.132728
	H10472	H	0.784996	0.064765	0.128869
	H10473	H	0.778491	0.064329	0.127665
	H10474	H	0.847266	0.941017	-0.012803
	H10475	H	0.850293	0.940956	-0.011579
	H10476	H	0.850786	0.940668	-0.007693
	H10477	H	0.786634	0.940999	0.132734
	H10478	H	0.784973	0.940993	0.128820
	H10479	H	0.778480	0.941419	0.127692
	Zn10480	Zn	0.784860	0.680125	0.053149
	Zn10481	Zn	0.784854	0.825257	0.053104
	Zn10482	Zn	0.784857	0.179957	0.053108
	Zn10483	Zn	0.784855	0.325285	0.053072
	Zn10484	Zn	0.781058	0.680230	0.132150
	Zn10485	Zn	0.781002	0.825246	0.132138
	Zn10486	Zn	0.781017	0.180371	0.132144
	Zn10487	Zn	0.781031	0.325184	0.132133
	C10488	C	0.836952	0.752853	0.050708
	C10489	C	0.791336	0.752462	0.071990
	C10490	C	0.787524	0.752667	0.082860
	C10491	C	0.785176	0.690577	0.087796
	C10492	C	0.785192	0.814894	0.087784
	C10493	C	0.791371	0.252537	0.071913
	C10494	C	0.787608	0.252734	0.082799
	C10495	C	0.785203	0.190563	0.087692
	C10496	C	0.785279	0.314740	0.087777
	C10497	C	0.799942	0.752748	0.038635
	C10498	C	0.807086	0.752811	0.029156
	C10499	C	0.810270	0.814614	0.024594
	C10500	C	0.810362	0.690980	0.024639
	C10501	C	0.799952	0.252945	0.038660
	C10502	C	0.807128	0.252903	0.029216
	C10503	C	0.810351	0.314694	0.024655
	C10504	C	0.810414	0.191122	0.024693
	C10505	C	0.840611	0.043486	0.068677
	C10506	C	0.840603	0.962765	0.068633
	C10507	C	0.784526	0.043308	0.051658
	C10508	C	0.784506	0.962362	0.051656
	C10509	C	0.783655	0.043043	0.054063
	C10510	C	0.783642	0.962363	0.054071
	C10511	C	0.784002	0.462368	0.052497
	C10512	C	0.845256	0.462627	0.068854
	C10513	C	0.843212	0.462389	0.071368
	C10514	C	0.783996	0.543340	0.052507
	C10515	C	0.843195	0.543630	0.071383
	C10516	C	0.845242	0.543337	0.068889
	C10517	C	0.828349	0.752706	0.084115
	C10518	C	0.828295	0.253090	0.084027
	C10519	C	0.821190	0.752906	0.093570
	C10520	C	0.817881	0.691104	0.098094
	C10521	C	0.817944	0.814854	0.098076
	C10522	C	0.821115	0.253162	0.093495
	C10523	C	0.817835	0.191415	0.098024
	C10524	C	0.817796	0.315141	0.097982
	C10525	C	0.836913	0.252585	0.050728
	C10526	C	0.853770	0.752498	0.009403
	C10527	C	0.828685	0.752861	0.002678
	C10528	C	0.774584	0.753117	0.113300
	C10529	C	0.843108	0.690394	0.034880
	C10530	C	0.843203	0.814548	0.034927
	C10531	C	0.850046	0.752457	0.020291
	C10532	C	0.820490	0.752881	0.011527
	C10533	C	0.817007	0.691038	0.015939
	C10534	C	0.847638	0.690345	0.025186
	C10535	C	0.847738	0.814547	0.025250
	C10536	C	0.816904	0.814686	0.015886
	C10537	C	0.840756	0.752519	0.039825
	C10538	C	0.799595	0.753252	0.120045
	C10539	C	0.811231	0.691262	0.106793
	C10540	C	0.811288	0.815113	0.106774
	C10541	C	0.807747	0.753334	0.111168
	C10542	C	0.780820	0.462470	0.130599
	C10543	C	0.847840	0.462271	-0.012426
	C10544	C	0.779429	0.462327	0.132884
	C10545	C	0.780853	0.543304	0.130616
	C10546	C	0.779433	0.542923	0.132890
	C10547	C	0.847844	0.543089	-0.012413
	C10548	C	0.799596	0.253389	0.119994
	C10549	C	0.811180	0.191493	0.106715
	C10550	C	0.811140	0.315332	0.106674
	C10551	C	0.807735	0.253422	0.111132
	C10552	C	0.848371	0.043022	-0.011441
	C10553	C	0.853743	0.252527	0.009417
	C10554	C	0.828653	0.252620	0.002691
	C10555	C	0.774629	0.252744	0.113252
	C10556	C	0.843103	0.190409	0.034920
	C10557	C	0.843125	0.314762	0.034947
	C10558	C	0.850009	0.252560	0.020326
	C10559	C	0.820514	0.252713	0.011579
	C10560	C	0.778354	0.752924	0.102411
	C10561	C	0.780703	0.815014	0.097477
	C10562	C	0.780675	0.690748	0.097482
	C10563	C	0.778398	0.252588	0.102360
	C10564	C	0.780766	0.314702	0.097457
	C10565	C	0.780695	0.190455	0.097386
	C10566	C	0.817055	0.190974	0.015997
	C10567	C	0.847646	0.190384	0.025244
	C10568	C	0.847666	0.314694	0.025275
	C10569	C	0.816995	0.314599	0.015952
	C10570	C	0.840773	0.252517	0.039864
	C10571	C	0.784499	0.043409	0.131151
	C10572	C	0.848860	0.043080	-0.007592
	C10573	C	0.848410	0.962395	-0.011464
	C10574	C	0.784505	0.962460	0.131146
	C10575	C	0.848886	0.962193	-0.007589
	N10576	N	0.784910	0.070053	0.053118
	N10577	N	0.784901	0.935482	0.053085
	N10578	N	0.784875	0.435563	0.053109
	N10579	N	0.784868	0.570116	0.053123
	N10580	N	0.780935	0.435577	0.132106
	N10581	N	0.780917	0.570188	0.132132
	N10582	N	0.780899	0.070208	0.132122
	N10583	N	0.780933	0.935576	0.132127
	O10584	O	0.832602	0.694922	0.187072
	O10585	O	0.832757	0.811116	0.187003
	O10586	O	0.730637	0.694611	0.206914
	O10587	O	0.730795	0.810647	0.206839
	O10588	O	0.730689	0.194620	0.206926
	O10589	O	0.730669	0.310879	0.206996
	O10590	O	0.733758	0.694011	0.185814
	O10591	O	0.733740	0.810673	0.185833
	O10592	O	0.733656	0.194756	0.185777
	O10593	O	0.733687	0.311351	0.185860
	O10594	O	0.833661	0.694842	0.209734
	O10595	O	0.833787	0.810831	0.209804
	O10596	O	0.833716	0.194073	0.209741
	O10597	O	0.833650	0.310105	0.209711
	O10598	O	0.832729	0.194499	0.187024
	O10599	O	0.832689	0.310585	0.187138
	O10600	O	0.793175	0.694906	0.144386
	O10601	O	0.768806	0.694506	0.143032
	O10602	O	0.795089	0.694964	0.249870
	O10603	O	0.795156	0.810744	0.249868
	O10604	O	0.770258	0.694729	0.249531
	O10605	O	0.770244	0.810909	0.249470
	O10606	O	0.768831	0.810714	0.143033
	O10607	O	0.793127	0.811083	0.144393
	O10608	O	0.793165	0.194825	0.144403
	O10609	O	0.768801	0.195003	0.143017
	O10610	O	0.794967	0.194703	0.249833
	O10611	O	0.795056	0.310815	0.249860
	O10612	O	0.770285	0.194929	0.249590
	O10613	O	0.770268	0.311026	0.249507
	O10614	O	0.768720	0.311516	0.142990
	O10615	O	0.793152	0.311274	0.144399
	H10616	H	0.743370	0.644372	0.220556
	H10617	H	0.743399	0.860577	0.220546
	H10618	H	0.743511	0.144012	0.220521
	H10619	H	0.743257	0.361134	0.220642
	H10620	H	0.746137	0.861893	0.172792
	H10621	H	0.746218	0.643255	0.172842
	H10622	H	0.746030	0.362800	0.172787
	H10623	H	0.746147	0.143739	0.172732
	H10624	H	0.845528	0.064399	0.197413
	H10625	H	0.844466	0.064523	0.197836
	H10626	H	0.844463	0.941307	0.197784
	H10627	H	0.845611	0.941398	0.197437
	H10628	H	0.846895	0.064595	0.198256
	H10629	H	0.846899	0.941351	0.198312
	H10630	H	0.721278	0.064902	0.194763
	H10631	H	0.721280	0.941345	0.194770
	H10632	H	0.720198	0.064491	0.192917
	H10633	H	0.720247	0.941098	0.192932
	H10634	H	0.717067	0.064559	0.192665
	H10635	H	0.717107	0.941060	0.192654
	H10636	H	0.719137	0.441497	0.193493
	H10637	H	0.717777	0.441063	0.193444
	H10638	H	0.720129	0.441594	0.194894
	H10639	H	0.845232	0.440883	0.199523
	H10640	H	0.844526	0.441333	0.198576
	H10641	H	0.844836	0.441475	0.197899
	H10642	H	0.717751	0.564797	0.193409
	H10643	H	0.719126	0.564758	0.193447
	H10644	H	0.844827	0.564567	0.197891
	H10645	H	0.844475	0.564530	0.198588
	H10646	H	0.845231	0.564561	0.199418
	H10647	H	0.720163	0.564586	0.194876
	H10648	H	0.821379	0.644532	0.222670
	H10649	H	0.821406	0.860500	0.222616
	H10650	H	0.821236	0.143571	0.222550
	H10651	H	0.821330	0.360851	0.222615
	H10652	H	0.758316	0.643454	0.157271
	H10653	H	0.805850	0.644578	0.158060
	H10654	H	0.805897	0.861780	0.157972
	H10655	H	0.758226	0.861900	0.157225
	H10656	H	0.819877	0.644713	0.173464
	H10657	H	0.819962	0.861821	0.173398
	H10658	H	0.807554	0.644627	0.237123
	H10659	H	0.807573	0.860659	0.237055
	H10660	H	0.781938	0.441098	0.130077
	H10661	H	0.782733	0.441246	0.260626
	H10662	H	0.783591	0.440772	0.132248
	H10663	H	0.782608	0.441109	0.133994
	H10664	H	0.782703	0.441713	0.261574
	H10665	H	0.782415	0.441754	0.261160
	H10666	H	0.782740	0.565037	0.260626
	H10667	H	0.781974	0.564402	0.130097
	H10668	H	0.782432	0.565111	0.261170
	H10669	H	0.782717	0.565027	0.261563
	H10670	H	0.782574	0.564204	0.133979
	H10671	H	0.783598	0.564683	0.132334
	H10672	H	0.807379	0.143839	0.236993
	H10673	H	0.807512	0.361087	0.237038
	H10674	H	0.777755	0.065080	0.136035
	H10675	H	0.782483	0.064439	0.136871
	H10676	H	0.775458	0.064730	0.130697
	H10677	H	0.757458	0.860588	0.235919
	H10678	H	0.757483	0.644148	0.235925
	H10679	H	0.757398	0.361501	0.235972
	H10680	H	0.757662	0.143965	0.235864
	H10681	H	0.758263	0.144162	0.157180
	H10682	H	0.805742	0.144161	0.158090
	H10683	H	0.805697	0.361710	0.158132
	H10684	H	0.758125	0.362752	0.157190
	H10685	H	0.819865	0.143888	0.173440
	H10686	H	0.819792	0.361750	0.173509
	H10687	H	0.784123	0.064747	0.260623
	H10688	H	0.783179	0.064496	0.260092
	H10689	H	0.781966	0.064635	0.260555
	H10690	H	0.782492	0.941168	0.136889
	H10691	H	0.777767	0.941192	0.136084
	H10692	H	0.775456	0.941136	0.130664
	H10693	H	0.784041	0.941489	0.260568
	H10694	H	0.783196	0.941577	0.260048
	H10695	H	0.781945	0.941469	0.260555
	Zn10696	Zn	0.718553	0.680109	0.194666
	Zn10697	Zn	0.718654	0.825906	0.194688
	Zn10698	Zn	0.718548	0.180345	0.194672
	Zn10699	Zn	0.718582	0.325905	0.194744
	Zn10700	Zn	0.783082	0.679898	0.261097
	Zn10701	Zn	0.783050	0.825707	0.260990
	Zn10702	Zn	0.783049	0.179969	0.261159
	Zn10703	Zn	0.783050	0.325699	0.261077
	C10704	C	0.829388	0.753064	0.183497
	C10705	C	0.734052	0.752589	0.210401
	C10706	C	0.742511	0.752461	0.219661
	C10707	C	0.746482	0.691237	0.224009
	C10708	C	0.746488	0.813596	0.224003
	C10709	C	0.734007	0.252675	0.210476
	C10710	C	0.742564	0.252550	0.219665
	C10711	C	0.746631	0.191161	0.223952
	C10712	C	0.746476	0.314089	0.224024
	C10713	C	0.737196	0.752389	0.182612
	C10714	C	0.745376	0.752613	0.173769
	C10715	C	0.748898	0.814353	0.169372
	C10716	C	0.748935	0.690929	0.169400
	C10717	C	0.737113	0.253150	0.182593
	C10718	C	0.745300	0.253253	0.173747
	C10719	C	0.748783	0.315152	0.169360
	C10720	C	0.748853	0.191521	0.169331
	C10721	C	0.845158	0.043153	0.197867
	C10722	C	0.845185	0.962308	0.197877
	C10723	C	0.720157	0.043525	0.194066
	C10724	C	0.720173	0.962719	0.194054
	C10725	C	0.717002	0.043281	0.193781
	C10726	C	0.717004	0.962489	0.193788
	C10727	C	0.718427	0.462513	0.193807
	C10728	C	0.845682	0.462377	0.199230
	C10729	C	0.844902	0.462597	0.198342
	C10730	C	0.718435	0.543454	0.193769
	C10731	C	0.844894	0.543217	0.198329
	C10732	C	0.845662	0.543330	0.199211
	C10733	C	0.830503	0.752797	0.213103
	C10734	C	0.830439	0.252064	0.213057
	C10735	C	0.822139	0.752522	0.221737
	C10736	C	0.818261	0.691400	0.225847
	C10737	C	0.818280	0.813625	0.225797
	C10738	C	0.822098	0.252158	0.221730
	C10739	C	0.818169	0.190695	0.225773
	C10740	C	0.818239	0.313725	0.225823
	C10741	C	0.829356	0.252639	0.183557
	C10742	C	0.796496	0.753024	0.147905
	C10743	C	0.766011	0.752614	0.146713
	C10744	C	0.766912	0.752721	0.245993
	C10745	C	0.816747	0.691824	0.170043
	C10746	C	0.816791	0.814707	0.170005
	C10747	C	0.804999	0.753143	0.157151
	C10748	C	0.758876	0.752694	0.156197
	C10749	C	0.755623	0.690983	0.160729
	C10750	C	0.808961	0.691728	0.161501
	C10751	C	0.808989	0.814630	0.161462
	C10752	C	0.755577	0.814387	0.160700
	C10753	C	0.820771	0.753278	0.174345
	C10754	C	0.798381	0.752771	0.246560
	C10755	C	0.810597	0.691428	0.233863
	C10756	C	0.810610	0.813759	0.233807
	C10757	C	0.806706	0.752672	0.237896
	C10758	C	0.783025	0.462528	0.260756
	C10759	C	0.782515	0.462360	0.132844
	C10760	C	0.782721	0.462954	0.261321
	C10761	C	0.783033	0.543260	0.260763
	C10762	C	0.782728	0.543804	0.261316
	C10763	C	0.782517	0.543449	0.132872
	C10764	C	0.798242	0.252696	0.246531
	C10765	C	0.810497	0.190986	0.233793
	C10766	C	0.810571	0.313810	0.233840
	C10767	C	0.806620	0.252452	0.237894
	C10768	C	0.780302	0.043291	0.135322
	C10769	C	0.796488	0.253057	0.147914
	C10770	C	0.765942	0.253255	0.146666
	C10771	C	0.766940	0.252848	0.246021
	C10772	C	0.816776	0.191246	0.169998
	C10773	C	0.816741	0.314392	0.170034
	C10774	C	0.805043	0.252920	0.157105
	C10775	C	0.758764	0.253391	0.156147
	C10776	C	0.758272	0.752427	0.236860
	C10777	C	0.754288	0.813652	0.232531
	C10778	C	0.754294	0.691162	0.232532
	C10779	C	0.758371	0.252673	0.236836
	C10780	C	0.754315	0.314191	0.232534
	C10781	C	0.754452	0.191147	0.232476
	C10782	C	0.755538	0.191571	0.160657
	C10783	C	0.808959	0.191306	0.161467
	C10784	C	0.808933	0.314498	0.161496
	C10785	C	0.755457	0.315215	0.160672
	C10786	C	0.820783	0.252760	0.174350
	C10787	C	0.783487	0.043487	0.260566
	C10788	C	0.778005	0.043273	0.129955
	C10789	C	0.780314	0.962359	0.135323
	C10790	C	0.783464	0.962810	0.260520
	C10791	C	0.777995	0.962599	0.129953
	N10792	N	0.718488	0.070336	0.194691
	N10793	N	0.718521	0.935830	0.194721
	N10794	N	0.718447	0.435700	0.194768
	N10795	N	0.718431	0.570183	0.194717
	N10796	N	0.783064	0.435638	0.261111
	N10797	N	0.783069	0.570079	0.261111
	N10798	N	0.783051	0.070233	0.261142
	N10799	N	0.783028	0.935778	0.261076
	O10800	O	0.842572	0.695433	0.309569
	O10801	O	0.842654	0.811420	0.309550
	O10802	O	0.734260	0.695026	0.334555
	O10803	O	0.734164	0.810867	0.334633
	O10804	O	0.734377	0.195010	0.334521
	O10805	O	0.734274	0.310885	0.334617
	O10806	O	0.732792	0.695323	0.312520
	O10807	O	0.732656	0.811399	0.312456
	O10808	O	0.732874	0.195036	0.312554
	O10809	O	0.732526	0.311213	0.312434
	O10810	O	0.844731	0.695270	0.331655
	O10811	O	0.844653	0.811300	0.331659
	O10812	O	0.844884	0.195194	0.331794
	O10813	O	0.844831	0.311099	0.331806
	O10814	O	0.842617	0.195308	0.309625
	O10815	O	0.842696	0.311261	0.309580
	O10816	O	0.796578	0.695028	0.272058
	O10817	O	0.771207	0.695247	0.272289
	O10818	O	0.805660	0.695388	0.371410
	O10819	O	0.805771	0.811362	0.371543
	O10820	O	0.780323	0.695234	0.372095
	O10821	O	0.780281	0.811001	0.372089
	O10822	O	0.771156	0.811429	0.272210
	O10823	O	0.796611	0.811145	0.271927
	O10824	O	0.796725	0.194874	0.271981
	O10825	O	0.771202	0.195605	0.272329
	O10826	O	0.805533	0.195266	0.371324
	O10827	O	0.805515	0.311269	0.371430
	O10828	O	0.780236	0.195371	0.372217
	O10829	O	0.780253	0.311427	0.372087
	O10830	O	0.771107	0.311608	0.272259
	O10831	O	0.796725	0.310754	0.271885
	H10832	H	0.748889	0.645096	0.346726
	H10833	H	0.748948	0.861014	0.346640
	H10834	H	0.749058	0.144936	0.346680
	H10835	H	0.749205	0.361868	0.346510
	H10836	H	0.745044	0.862178	0.299625
	H10837	H	0.745223	0.644962	0.299723
	H10838	H	0.745062	0.361550	0.299678
	H10839	H	0.745095	0.145343	0.299673
	H10840	H	0.854932	0.064648	0.320624
	H10841	H	0.855814	0.064926	0.321374
	H10842	H	0.855802	0.941386	0.321401
	H10843	H	0.855011	0.940918	0.320602
	H10844	H	0.855419	0.064391	0.319263
	H10845	H	0.855515	0.941010	0.319277
	H10846	H	0.720399	0.064762	0.323325
	H10847	H	0.720386	0.941542	0.323261
	H10848	H	0.720221	0.064820	0.323596
	H10849	H	0.720111	0.941890	0.323596
	H10850	H	0.720437	0.064837	0.324072
	H10851	H	0.720336	0.941843	0.324139
	H10852	H	0.722751	0.441524	0.323810
	H10853	H	0.722027	0.441499	0.322355
	H10854	H	0.721291	0.442264	0.325424
	H10855	H	0.856595	0.441470	0.320289
	H10856	H	0.856447	0.441643	0.320492
	H10857	H	0.856186	0.441305	0.320465
	H10858	H	0.722067	0.564875	0.322387
	H10859	H	0.722731	0.565133	0.323844
	H10860	H	0.856161	0.564900	0.320526
	H10861	H	0.856404	0.564691	0.320559
	H10862	H	0.856601	0.564381	0.320333
	H10863	H	0.721248	0.565041	0.325379
	H10864	H	0.832289	0.644995	0.344481
	H10865	H	0.832062	0.861907	0.344314
	H10866	H	0.832231	0.144834	0.344425
	H10867	H	0.832295	0.361645	0.344554
	H10868	H	0.758995	0.644829	0.285263
	H10869	H	0.811362	0.645120	0.284023
	H10870	H	0.811305	0.861844	0.284069
	H10871	H	0.758808	0.862426	0.285151
	H10872	H	0.827844	0.645009	0.297522
	H10873	H	0.827781	0.862037	0.297563
	H10874	H	0.818277	0.645282	0.358807
	H10875	H	0.818045	0.861900	0.358652
	H10876	H	0.783256	0.441182	0.260634
	H10877	H	0.795366	0.441406	0.381748
	H10878	H	0.783713	0.440709	0.261136
	H10879	H	0.783525	0.441209	0.261562
	H10880	H	0.792058	0.441671	0.382423
	H10881	H	0.793125	0.441103	0.381343
	H10882	H	0.795402	0.564718	0.381687
	H10883	H	0.783301	0.564178	0.260623
	H10884	H	0.793168	0.564441	0.381315
	H10885	H	0.792141	0.564496	0.382378
	H10886	H	0.783497	0.564684	0.261572
	H10887	H	0.783725	0.564129	0.261122
	H10888	H	0.818112	0.144895	0.358633
	H10889	H	0.818154	0.361705	0.358753
	H10890	H	0.783006	0.064439	0.262175
	H10891	H	0.783941	0.064648	0.261831
	H10892	H	0.781896	0.064449	0.261472
	H10893	H	0.765466	0.860889	0.360083
	H10894	H	0.765418	0.645137	0.360189
	H10895	H	0.765602	0.361966	0.360019
	H10896	H	0.765499	0.144904	0.360221
	H10897	H	0.758850	0.145300	0.285192
	H10898	H	0.811503	0.145219	0.283965
	H10899	H	0.811460	0.361097	0.284017
	H10900	H	0.758839	0.361843	0.285198
	H10901	H	0.827913	0.145287	0.297516
	H10902	H	0.827895	0.361471	0.297548
	H10903	H	0.793281	0.064958	0.383075
	H10904	H	0.793692	0.064859	0.383433
	H10905	H	0.794513	0.064909	0.383289
	H10906	H	0.783913	0.941073	0.261794
	H10907	H	0.783025	0.940761	0.262084
	H10908	H	0.781921	0.941080	0.261411
	H10909	H	0.793318	0.941690	0.383107
	H10910	H	0.793724	0.941307	0.383477
	H10911	H	0.794514	0.941502	0.383296
	Zn10912	Zn	0.720703	0.680642	0.323615
	Zn10913	Zn	0.720629	0.825712	0.323714
	Zn10914	Zn	0.720732	0.180720	0.323670
	Zn10915	Zn	0.720657	0.325932	0.323729
	Zn10916	Zn	0.794064	0.680506	0.382864
	Zn10917	Zn	0.793997	0.825893	0.382889
	Zn10918	Zn	0.793978	0.180559	0.382887
	Zn10919	Zn	0.793924	0.325900	0.382914
	C10920	C	0.838754	0.753522	0.306436
	C10921	C	0.738027	0.752953	0.337742
	C10922	C	0.747986	0.752975	0.345824
	C10923	C	0.752624	0.691953	0.349657
	C10924	C	0.752665	0.814107	0.349608
	C10925	C	0.738161	0.252983	0.337708
	C10926	C	0.748090	0.253254	0.345815
	C10927	C	0.752732	0.192026	0.349663
	C10928	C	0.752802	0.314686	0.349564
	C10929	C	0.735968	0.753401	0.309171
	C10930	C	0.744301	0.753430	0.300496
	C10931	C	0.748146	0.815042	0.296405
	C10932	C	0.748238	0.691994	0.296443
	C10933	C	0.735926	0.253276	0.309164
	C10934	C	0.744250	0.253381	0.300499
	C10935	C	0.748155	0.314715	0.296456
	C10936	C	0.748177	0.192206	0.296443
	C10937	C	0.855649	0.043446	0.320820
	C10938	C	0.855662	0.962572	0.320821
	C10939	C	0.720384	0.043674	0.323503
	C10940	C	0.720348	0.962915	0.323491
	C10941	C	0.720655	0.043560	0.324000
	C10942	C	0.720604	0.962755	0.324018
	C10943	C	0.721905	0.462654	0.323268
	C10944	C	0.856527	0.462474	0.320214
	C10945	C	0.856334	0.462556	0.320445
	C10946	C	0.721921	0.543798	0.323262
	C10947	C	0.856304	0.543462	0.320467
	C10948	C	0.856533	0.543380	0.320246
	C10949	C	0.841442	0.753268	0.334965
	C10950	C	0.841571	0.253099	0.335090
	C10951	C	0.833016	0.753479	0.343549
	C10952	C	0.829132	0.692148	0.347630
	C10953	C	0.829001	0.814880	0.347535
	C10954	C	0.833058	0.253207	0.343609
	C10955	C	0.829080	0.191892	0.347600
	C10956	C	0.829100	0.314516	0.347667
	C10957	C	0.838782	0.253333	0.306505
	C10958	C	0.800415	0.753246	0.275133
	C10959	C	0.767972	0.753426	0.275598
	C10960	C	0.776440	0.753054	0.368981
	C10961	C	0.824171	0.692228	0.294522
	C10962	C	0.824135	0.814842	0.294551
	C10963	C	0.810344	0.753465	0.283238
	C10964	C	0.759684	0.753575	0.284278
	C10965	C	0.755874	0.692065	0.288407
	C10966	C	0.815030	0.692199	0.287032
	C10967	C	0.814995	0.814791	0.287055
	C10968	C	0.755774	0.815154	0.288358
	C10969	C	0.828816	0.753515	0.298348
	C10970	C	0.808981	0.753523	0.368176
	C10971	C	0.821365	0.692311	0.355569
	C10972	C	0.821240	0.815061	0.355482
	C10973	C	0.817403	0.753763	0.359570
	C10974	C	0.795206	0.462697	0.382537
	C10975	C	0.783465	0.462175	0.261293
	C10976	C	0.792964	0.462712	0.382126
	C10977	C	0.795226	0.543416	0.382499
	C10978	C	0.793003	0.543450	0.382095
	C10979	C	0.783471	0.543127	0.261304
	C10980	C	0.808777	0.253419	0.368068
	C10981	C	0.821240	0.191982	0.355483
	C10982	C	0.821245	0.314662	0.355543
	C10983	C	0.817237	0.253373	0.359506
	C10984	C	0.783359	0.043220	0.261779
	C10985	C	0.800546	0.252957	0.275076
	C10986	C	0.767956	0.253583	0.275649
	C10987	C	0.776419	0.253291	0.369038
	C10988	C	0.824263	0.192168	0.294502
	C10989	C	0.824265	0.314420	0.294524
	C10990	C	0.810476	0.253159	0.283204
	C10991	C	0.759674	0.253483	0.284318
	C10992	C	0.766506	0.752972	0.360884
	C10993	C	0.761829	0.814036	0.357084
	C10994	C	0.761792	0.691970	0.357130
	C10995	C	0.766510	0.253307	0.360940
	C10996	C	0.761921	0.314772	0.357066
	C10997	C	0.761849	0.192005	0.357173
	C10998	C	0.755772	0.192246	0.288391
	C10999	C	0.815146	0.192132	0.286989
	C11000	C	0.815144	0.314320	0.287010
	C11001	C	0.755773	0.314719	0.288410
	C11002	C	0.828883	0.253281	0.298374
	C11003	C	0.793611	0.043613	0.383167
	C11004	C	0.782201	0.043413	0.261054
	C11005	C	0.783375	0.962246	0.261735
	C11006	C	0.793639	0.962872	0.383171
	C11007	C	0.782198	0.962652	0.261025
	N11008	N	0.720686	0.070468	0.323688
	N11009	N	0.720630	0.935879	0.323712
	N11010	N	0.720638	0.435950	0.323695
	N11011	N	0.720659	0.570504	0.323659
	N11012	N	0.793968	0.435913	0.382930
	N11013	N	0.794030	0.570447	0.382859
	N11014	N	0.793946	0.070515	0.382894
	N11015	N	0.793956	0.935982	0.382894
	O11016	O	0.855574	0.694841	0.429390
	O11017	O	0.855584	0.810860	0.429349
	O11018	O	0.745399	0.694833	0.455779
	O11019	O	0.745397	0.810668	0.455772
	O11020	O	0.745281	0.195245	0.455811
	O11021	O	0.745252	0.311219	0.455843
	O11022	O	0.743034	0.695600	0.433823
	O11023	O	0.743079	0.811488	0.433872
	O11024	O	0.743152	0.194932	0.433979
	O11025	O	0.742993	0.311170	0.433860
	O11026	O	0.857968	0.695423	0.451353
	O11027	O	0.858082	0.811092	0.451396
	O11028	O	0.857888	0.195219	0.451243
	O11029	O	0.858095	0.310948	0.451420
	O11030	O	0.855446	0.194802	0.429410
	O11031	O	0.855621	0.310706	0.429298
	O11032	O	0.807952	0.695071	0.393418
	O11033	O	0.782380	0.695362	0.394268
	O11034	O	0.818401	0.695191	0.490791
	O11035	O	0.818510	0.811367	0.490817
	O11036	O	0.792865	0.695104	0.491813
	O11037	O	0.792828	0.810973	0.491922
	O11038	O	0.782345	0.811435	0.394297
	O11039	O	0.807962	0.810971	0.393402
	O11040	O	0.807952	0.194775	0.393334
	O11041	O	0.782336	0.195343	0.394298
	O11042	O	0.818440	0.195180	0.490701
	O11043	O	0.818487	0.311096	0.490776
	O11044	O	0.792857	0.195031	0.491820
	O11045	O	0.792968	0.311044	0.491744
	O11046	O	0.782392	0.311136	0.394321
	O11047	O	0.807937	0.310584	0.393430
	H11048	H	0.760666	0.644923	0.467288
	H11049	H	0.760579	0.861308	0.467346
	H11050	H	0.760603	0.145285	0.467281
	H11051	H	0.760668	0.361440	0.467291
	H11052	H	0.755633	0.862027	0.421155
	H11053	H	0.755671	0.644960	0.421199
	H11054	H	0.755636	0.361290	0.421169
	H11055	H	0.755675	0.144814	0.421246
	H11056	H	0.869121	0.064664	0.438762
	H11057	H	0.868297	0.064408	0.439426
	H11058	H	0.868299	0.941436	0.439406
	H11059	H	0.869101	0.941066	0.438768
	H11060	H	0.870655	0.064612	0.439185
	H11061	H	0.870651	0.941048	0.439156
	H11062	H	0.732049	0.064913	0.445130
	H11063	H	0.732075	0.941436	0.445134
	H11064	H	0.731650	0.064876	0.444736
	H11065	H	0.731633	0.941953	0.444772
	H11066	H	0.730842	0.065142	0.444920
	H11067	H	0.730807	0.941457	0.444941
	H11068	H	0.730993	0.441427	0.446312
	H11069	H	0.732070	0.441474	0.446262
	H11070	H	0.730047	0.442012	0.445230
	H11071	H	0.869702	0.441170	0.442732
	H11072	H	0.866504	0.441270	0.440943
	H11073	H	0.866628	0.441671	0.438638
	H11074	H	0.732111	0.564498	0.446214
	H11075	H	0.731017	0.564714	0.446313
	H11076	H	0.866676	0.564573	0.438613
	H11077	H	0.866551	0.564788	0.440917
	H11078	H	0.869704	0.564636	0.442678
	H11079	H	0.730166	0.565207	0.445224
	H11080	H	0.845409	0.645218	0.464064
	H11081	H	0.845348	0.861337	0.464004
	H11082	H	0.845339	0.145260	0.463964
	H11083	H	0.845412	0.360631	0.463996
	H11084	H	0.769758	0.644750	0.406952
	H11085	H	0.823316	0.644738	0.404836
	H11086	H	0.823156	0.861261	0.405013
	H11087	H	0.769722	0.862025	0.406906
	H11088	H	0.840417	0.644749	0.417731
	H11089	H	0.840282	0.860820	0.417876
	H11090	H	0.831188	0.645463	0.478252
	H11091	H	0.831153	0.861030	0.478154
	H11092	H	0.795922	0.441712	0.383100
	H11093	H	0.808311	0.441420	0.502263
	H11094	H	0.794466	0.441716	0.384541
	H11095	H	0.792815	0.441775	0.384290
	H11096	H	0.806190	0.441582	0.501305
	H11097	H	0.807344	0.441331	0.501202
	H11098	H	0.808324	0.564558	0.502303
	H11099	H	0.795996	0.564849	0.383058
	H11100	H	0.807338	0.565034	0.501161
	H11101	H	0.806143	0.564864	0.501263
	H11102	H	0.792880	0.565110	0.384184
	H11103	H	0.794487	0.565271	0.384472
	H11104	H	0.831120	0.145666	0.478095
	H11105	H	0.831186	0.360539	0.478170
	H11106	H	0.794104	0.064661	0.382290
	H11107	H	0.793516	0.064835	0.382410
	H11108	H	0.794679	0.064852	0.382819
	H11109	H	0.777617	0.861174	0.480318
	H11110	H	0.777645	0.645048	0.480295
	H11111	H	0.777740	0.361365	0.480199
	H11112	H	0.777689	0.145235	0.480180
	H11113	H	0.769782	0.144886	0.406991
	H11114	H	0.823204	0.144868	0.404920
	H11115	H	0.823194	0.360987	0.404988
	H11116	H	0.769695	0.361466	0.406926
	H11117	H	0.840280	0.145069	0.417854
	H11118	H	0.840282	0.361049	0.417910
	H11119	H	0.808038	0.064084	0.502714
	H11120	H	0.807975	0.064542	0.501906
	H11121	H	0.806824	0.064858	0.501334
	H11122	H	0.793503	0.941765	0.382439
	H11123	H	0.794098	0.941374	0.382312
	H11124	H	0.794684	0.941081	0.382792
	H11125	H	0.807973	0.940989	0.502677
	H11126	H	0.807945	0.941136	0.501909
	H11127	H	0.806750	0.941334	0.501301
	Zn11128	Zn	0.731473	0.680630	0.445245
	Zn11129	Zn	0.731398	0.825785	0.445302
	Zn11130	Zn	0.731369	0.180419	0.445298
	Zn11131	Zn	0.731310	0.325774	0.445294
	Zn11132	Zn	0.806850	0.680087	0.502299
	Zn11133	Zn	0.806873	0.825589	0.502269
	Zn11134	Zn	0.806918	0.180050	0.502236
	Zn11135	Zn	0.806928	0.325794	0.502265
	C11136	C	0.851611	0.752774	0.426370
	C11137	C	0.749371	0.752823	0.458755
	C11138	C	0.759638	0.753030	0.466524
	C11139	C	0.764425	0.691837	0.470201
	C11140	C	0.764402	0.814342	0.470221
	C11141	C	0.749253	0.253257	0.458803
	C11142	C	0.759548	0.253335	0.466551
	C11143	C	0.764398	0.192209	0.470172
	C11144	C	0.764425	0.314485	0.470176
	C11145	C	0.746349	0.753547	0.430571
	C11146	C	0.754852	0.753570	0.422038
	C11147	C	0.758795	0.814907	0.417996
	C11148	C	0.758808	0.692077	0.418020
	C11149	C	0.746304	0.253057	0.430603
	C11150	C	0.754751	0.253048	0.422016
	C11151	C	0.758747	0.314324	0.418010
	C11152	C	0.758778	0.191823	0.418055
	C11153	C	0.868936	0.043424	0.439302
	C11154	C	0.868934	0.962518	0.439298
	C11155	C	0.731714	0.043589	0.445047
	C11156	C	0.731736	0.962844	0.445045
	C11157	C	0.730917	0.043650	0.445219
	C11158	C	0.730932	0.962713	0.445219
	C11159	C	0.731482	0.462737	0.446008
	C11160	C	0.870513	0.462518	0.441593
	C11161	C	0.867355	0.462789	0.439831
	C11162	C	0.731521	0.543504	0.445995
	C11163	C	0.867380	0.543545	0.439814
	C11164	C	0.870516	0.543322	0.441575
	C11165	C	0.854725	0.753304	0.454655
	C11166	C	0.854715	0.253030	0.454621
	C11167	C	0.846173	0.753273	0.463151
	C11168	C	0.842190	0.692185	0.467175
	C11169	C	0.842169	0.814366	0.467129
	C11170	C	0.846195	0.252992	0.463140
	C11171	C	0.842171	0.192050	0.467103
	C11172	C	0.842214	0.313958	0.467136
	C11173	C	0.851578	0.252855	0.426350
	C11174	C	0.811927	0.753036	0.396404
	C11175	C	0.779112	0.753365	0.397590
	C11176	C	0.788892	0.753140	0.488849
	C11177	C	0.836581	0.691655	0.414887
	C11178	C	0.836487	0.813949	0.414967
	C11179	C	0.822211	0.752973	0.404129
	C11180	C	0.770618	0.753382	0.406132
	C11181	C	0.766643	0.691902	0.410138
	C11182	C	0.827085	0.691746	0.407735
	C11183	C	0.826995	0.814133	0.407822
	C11184	C	0.766627	0.814857	0.410109
	C11185	C	0.841341	0.752758	0.418580
	C11186	C	0.821754	0.753200	0.487528
	C11187	C	0.834331	0.692165	0.475051
	C11188	C	0.834311	0.814238	0.474998
	C11189	C	0.830290	0.753205	0.479009
	C11190	C	0.807773	0.462579	0.502624
	C11191	C	0.793723	0.462878	0.383982
	C11192	C	0.806795	0.462555	0.501518
	C11193	C	0.807774	0.543346	0.502634
	C11194	C	0.806786	0.543653	0.501489
	C11195	C	0.793763	0.543861	0.383959
	C11196	C	0.821776	0.253167	0.487467
	C11197	C	0.834294	0.192245	0.474955
	C11198	C	0.834316	0.313952	0.474979
	C11199	C	0.830304	0.253167	0.478960
	C11200	C	0.793850	0.043560	0.382524
	C11201	C	0.811918	0.252639	0.396370
	C11202	C	0.779044	0.253250	0.397574
	C11203	C	0.788962	0.253063	0.488779
	C11204	C	0.836462	0.191896	0.414957
	C11205	C	0.836466	0.314137	0.415007
	C11206	C	0.822188	0.252821	0.404136
	C11207	C	0.770523	0.253123	0.406095
	C11208	C	0.778681	0.753200	0.481050
	C11209	C	0.773856	0.814410	0.477405
	C11210	C	0.773875	0.692008	0.477387
	C11211	C	0.778682	0.253238	0.481009
	C11212	C	0.773908	0.314381	0.477335
	C11213	C	0.773867	0.192185	0.477333
	C11214	C	0.766588	0.191782	0.410140
	C11215	C	0.826995	0.191816	0.407790
	C11216	C	0.826996	0.314012	0.407832
	C11217	C	0.766569	0.314507	0.410111
	C11218	C	0.841306	0.252981	0.418588
	C11219	C	0.807707	0.043133	0.502306
	C11220	C	0.794425	0.043491	0.383022
	C11221	C	0.793840	0.962795	0.382522
	C11222	C	0.807704	0.962369	0.502296
	C11223	C	0.794417	0.962643	0.383000
	N11224	N	0.731386	0.070402	0.445314
	N11225	N	0.731417	0.935874	0.445340
	N11226	N	0.731352	0.435997	0.445262
	N11227	N	0.731439	0.570555	0.445247
	N11228	N	0.806910	0.435705	0.502303
	N11229	N	0.806876	0.570187	0.502301
	N11230	N	0.806959	0.070108	0.502273
	N11231	N	0.806944	0.935623	0.502280
	O11232	O	0.868733	0.694604	0.548515
	O11233	O	0.868761	0.810766	0.548487
	O11234	O	0.758403	0.694950	0.575046
	O11235	O	0.758385	0.811001	0.575169
	O11236	O	0.758279	0.195148	0.575116
	O11237	O	0.758439	0.311004	0.575082
	O11238	O	0.755882	0.695360	0.553190
	O11239	O	0.755745	0.811249	0.553082
	O11240	O	0.755866	0.194831	0.553152
	O11241	O	0.755899	0.310699	0.553204
	O11242	O	0.871262	0.694993	0.570454
	O11243	O	0.871299	0.810931	0.570437
	O11244	O	0.871268	0.194939	0.570461
	O11245	O	0.871252	0.310766	0.570452
	O11246	O	0.868780	0.194948	0.548510
	O11247	O	0.868769	0.310742	0.548577
	O11248	O	0.820903	0.694781	0.512689
	O11249	O	0.795409	0.695050	0.513812
	O11250	O	0.831797	0.694764	0.609859
	O11251	O	0.831690	0.811065	0.609850
	O11252	O	0.806226	0.694755	0.610894
	O11253	O	0.806196	0.810786	0.610928
	O11254	O	0.795337	0.811154	0.513744
	O11255	O	0.820971	0.810785	0.512706
	O11256	O	0.820981	0.194856	0.512726
	O11257	O	0.795357	0.194561	0.513723
	O11258	O	0.831793	0.194584	0.609878
	O11259	O	0.831810	0.310624	0.609946
	O11260	O	0.806265	0.194697	0.610874
	O11261	O	0.806200	0.310693	0.610976
	O11262	O	0.795501	0.310708	0.513808
	O11263	O	0.820959	0.311095	0.512777
	H11264	H	0.773662	0.644635	0.586648
	H11265	H	0.773753	0.861110	0.586626
	H11266	H	0.773596	0.144773	0.586667
	H11267	H	0.773655	0.360991	0.586649
	H11268	H	0.768485	0.861068	0.540539
	H11269	H	0.768390	0.645392	0.540465
	H11270	H	0.768577	0.360955	0.540573
	H11271	H	0.768533	0.144509	0.540500
	H11272	H	0.883933	0.064453	0.559199
	H11273	H	0.883707	0.064521	0.558328
	H11274	H	0.883712	0.941575	0.558380
	H11275	H	0.883860	0.941315	0.559174
	H11276	H	0.882946	0.064382	0.559920
	H11277	H	0.882938	0.940755	0.559845
	H11278	H	0.743648	0.064836	0.563710
	H11279	H	0.743669	0.941148	0.563795
	H11280	H	0.743077	0.064710	0.564421
	H11281	H	0.743130	0.941525	0.564522
	H11282	H	0.743728	0.065036	0.565502
	H11283	H	0.743787	0.941727	0.565570
	H11284	H	0.745476	0.440740	0.565331
	H11285	H	0.745665	0.441172	0.564443
	H11286	H	0.744023	0.441236	0.565690
	H11287	H	0.883089	0.441325	0.559105
	H11288	H	0.882873	0.440799	0.559202
	H11289	H	0.882643	0.441064	0.559067
	H11290	H	0.745686	0.564326	0.564361
	H11291	H	0.745490	0.564778	0.565374
	H11292	H	0.882644	0.564281	0.559052
	H11293	H	0.882806	0.565042	0.559189
	H11294	H	0.883080	0.564367	0.559022
	H11295	H	0.743974	0.564978	0.565715
	H11296	H	0.858665	0.644625	0.583111
	H11297	H	0.858697	0.861727	0.583118
	H11298	H	0.858515	0.144129	0.583034
	H11299	H	0.858599	0.361511	0.583070
	H11300	H	0.782642	0.645451	0.526333
	H11301	H	0.836335	0.644409	0.524102
	H11302	H	0.836281	0.860563	0.524201
	H11303	H	0.782742	0.861158	0.526394
	H11304	H	0.853482	0.644462	0.536969
	H11305	H	0.853442	0.860798	0.537065
	H11306	H	0.844470	0.644682	0.597281
	H11307	H	0.844470	0.861744	0.597275
	H11308	H	0.807840	0.441324	0.503190
	H11309	H	0.822909	0.440966	0.622155
	H11310	H	0.806326	0.440685	0.503320
	H11311	H	0.805584	0.441246	0.502507
	H11312	H	0.819532	0.441008	0.619074
	H11313	H	0.821843	0.441039	0.619550
	H11314	H	0.822946	0.564595	0.622109
	H11315	H	0.807821	0.564669	0.503230
	H11316	H	0.821886	0.564188	0.619486
	H11317	H	0.819575	0.564495	0.618990
	H11318	H	0.805484	0.564184	0.502534
	H11319	H	0.806243	0.564162	0.503342
	H11320	H	0.844295	0.144429	0.597181
	H11321	H	0.844379	0.361449	0.597207
	H11322	H	0.806045	0.064475	0.502822
	H11323	H	0.806900	0.064419	0.503220
	H11324	H	0.805988	0.064430	0.501692
	H11325	H	0.790925	0.861093	0.599444
	H11326	H	0.790863	0.644400	0.599467
	H11327	H	0.790874	0.360608	0.599463
	H11328	H	0.790796	0.144637	0.599452
	H11329	H	0.782747	0.144460	0.526339
	H11330	H	0.836253	0.144942	0.524207
	H11331	H	0.836383	0.361187	0.524142
	H11332	H	0.782813	0.360769	0.526429
	H11333	H	0.853438	0.144941	0.537024
	H11334	H	0.853520	0.361286	0.536993
	H11335	H	0.821062	0.064970	0.621992
	H11336	H	0.821384	0.064503	0.621248
	H11337	H	0.820498	0.064431	0.620438
	H11338	H	0.806907	0.940905	0.503236
	H11339	H	0.806019	0.940976	0.502820
	H11340	H	0.805960	0.941478	0.501692
	H11341	H	0.821077	0.941537	0.622013
	H11342	H	0.821365	0.941501	0.621270
	H11343	H	0.820392	0.940876	0.620481
	Zn11344	Zn	0.744339	0.680080	0.564639
	Zn11345	Zn	0.744406	0.825819	0.564730
	Zn11346	Zn	0.744266	0.180231	0.564615
	Zn11347	Zn	0.744380	0.325641	0.564656
	Zn11348	Zn	0.820284	0.680153	0.621321
	Zn11349	Zn	0.820221	0.825690	0.621422
	Zn11350	Zn	0.820279	0.180160	0.621355
	Zn11351	Zn	0.820244	0.325665	0.621424
	C11352	C	0.864770	0.752691	0.545531
	C11353	C	0.762379	0.752918	0.578101
	C11354	C	0.772729	0.752847	0.585808
	C11355	C	0.777539	0.691642	0.589460
	C11356	C	0.777590	0.814070	0.589447
	C11357	C	0.762360	0.252983	0.578074
	C11358	C	0.772640	0.252888	0.585827
	C11359	C	0.777445	0.191692	0.589491
	C11360	C	0.777480	0.313866	0.589498
	C11361	C	0.759100	0.753314	0.549859
	C11362	C	0.767597	0.753268	0.541317
	C11363	C	0.771618	0.814299	0.537343
	C11364	C	0.771565	0.692191	0.537305
	C11365	C	0.759191	0.252776	0.549903
	C11366	C	0.767752	0.252690	0.541404
	C11367	C	0.771748	0.313949	0.537424
	C11368	C	0.771715	0.191419	0.537373
	C11369	C	0.883553	0.043130	0.558798
	C11370	C	0.883543	0.962641	0.558796
	C11371	C	0.743615	0.043541	0.564235
	C11372	C	0.743639	0.962625	0.564278
	C11373	C	0.744234	0.043661	0.565323
	C11374	C	0.744290	0.962802	0.565351
	C11375	C	0.745257	0.462449	0.564825
	C11376	C	0.883027	0.462675	0.558955
	C11377	C	0.882763	0.462292	0.559085
	C11378	C	0.745279	0.543381	0.564817
	C11379	C	0.882757	0.543332	0.559072
	C11380	C	0.883020	0.543198	0.558940
	C11381	C	0.868020	0.753005	0.573744
	C11382	C	0.867954	0.252857	0.573716
	C11383	C	0.859500	0.753136	0.582260
	C11384	C	0.855484	0.691762	0.586247
	C11385	C	0.855504	0.814589	0.586256
	C11386	C	0.859456	0.252801	0.582242
	C11387	C	0.855407	0.191372	0.586215
	C11388	C	0.855445	0.314292	0.586229
	C11389	C	0.864794	0.252928	0.545554
	C11390	C	0.824917	0.752702	0.515683
	C11391	C	0.792088	0.753154	0.517043
	C11392	C	0.802223	0.752789	0.607942
	C11393	C	0.849649	0.691384	0.534121
	C11394	C	0.849622	0.813781	0.534172
	C11395	C	0.835257	0.752520	0.523400
	C11396	C	0.783503	0.753327	0.525512
	C11397	C	0.779465	0.692238	0.529470
	C11398	C	0.840139	0.691319	0.526984
	C11399	C	0.840104	0.813657	0.527047
	C11400	C	0.779519	0.814327	0.529507
	C11401	C	0.854463	0.752605	0.537783
	C11402	C	0.835057	0.753028	0.606596
	C11403	C	0.847603	0.691839	0.594104
	C11404	C	0.847616	0.814640	0.594108
	C11405	C	0.843602	0.753234	0.598094
	C11406	C	0.821647	0.462405	0.622470
	C11407	C	0.806188	0.462421	0.502768
	C11408	C	0.820577	0.462355	0.619847
	C11409	C	0.821658	0.543287	0.622443
	C11410	C	0.820594	0.543120	0.619803
	C11411	C	0.806160	0.543016	0.502768
	C11412	C	0.835087	0.252713	0.606616
	C11413	C	0.847535	0.191507	0.594079
	C11414	C	0.847569	0.314276	0.594078
	C11415	C	0.843598	0.252930	0.598105
	C11416	C	0.806597	0.043296	0.502830
	C11417	C	0.824942	0.252944	0.515728
	C11418	C	0.792150	0.252646	0.517036
	C11419	C	0.802236	0.252738	0.607943
	C11420	C	0.849619	0.191955	0.534188
	C11421	C	0.849669	0.314279	0.534159
	C11422	C	0.835262	0.252977	0.523446
	C11423	C	0.783626	0.252660	0.525560
	C11424	C	0.791927	0.752786	0.600209
	C11425	C	0.787103	0.814069	0.596578
	C11426	C	0.787067	0.691487	0.596585
	C11427	C	0.791863	0.252683	0.600243
	C11428	C	0.787007	0.313836	0.596626
	C11429	C	0.786969	0.191585	0.596616
	C11430	C	0.779601	0.191443	0.529524
	C11431	C	0.840087	0.191883	0.527069
	C11432	C	0.840147	0.314223	0.527037
	C11433	C	0.779640	0.313894	0.529576
	C11434	C	0.854473	0.253057	0.537820
	C11435	C	0.820970	0.043457	0.621560
	C11436	C	0.806536	0.043261	0.501716
	C11437	C	0.806600	0.962341	0.502829
	C11438	C	0.820943	0.962739	0.621582
	C11439	C	0.806538	0.962524	0.501716
	N11440	N	0.744296	0.070236	0.564657
	N11441	N	0.744347	0.935790	0.564701
	N11442	N	0.744362	0.435663	0.564675
	N11443	N	0.744352	0.570166	0.564643
	N11444	N	0.820249	0.435659	0.621417
	N11445	N	0.820284	0.570118	0.621358
	N11446	N	0.820239	0.070215	0.621330
	N11447	N	0.820206	0.935760	0.621388
	O11448	O	0.881953	0.695065	0.667688
	O11449	O	0.881975	0.811233	0.667736
	O11450	O	0.771792	0.694469	0.694366
	O11451	O	0.771805	0.810240	0.694319
	O11452	O	0.771844	0.194622	0.694337
	O11453	O	0.771760	0.310451	0.694370
	O11454	O	0.769292	0.694482	0.672416
	O11455	O	0.769308	0.810666	0.672367
	O11456	O	0.769318	0.194864	0.672426
	O11457	O	0.769273	0.310799	0.672410
	O11458	O	0.884481	0.694639	0.689634
	O11459	O	0.884382	0.810628	0.689591
	O11460	O	0.884495	0.194708	0.689602
	O11461	O	0.884499	0.310714	0.689631
	O11462	O	0.882051	0.195040	0.667665
	O11463	O	0.882134	0.310951	0.667675
	O11464	O	0.834357	0.694962	0.631718
	O11465	O	0.808771	0.694392	0.632863
	O11466	O	0.845040	0.695118	0.729175
	O11467	O	0.845153	0.810888	0.729250
	O11468	O	0.819610	0.694530	0.730178
	O11469	O	0.819482	0.810552	0.730292
	O11470	O	0.808753	0.810610	0.632940
	O11471	O	0.834296	0.811005	0.631794
	O11472	O	0.834164	0.194923	0.631927
	O11473	O	0.808730	0.194844	0.632886
	O11474	O	0.845222	0.195208	0.729231
	O11475	O	0.845210	0.310945	0.729235
	O11476	O	0.819677	0.195082	0.730097
	O11477	O	0.819600	0.310909	0.730182
	O11478	O	0.808552	0.310691	0.632829
	O11479	O	0.834330	0.311098	0.631830
	H11480	H	0.787110	0.644276	0.705924
	H11481	H	0.787265	0.860528	0.705746
	H11482	H	0.787234	0.144015	0.705785
	H11483	H	0.787071	0.361246	0.705910
	H11484	H	0.781896	0.861025	0.659648
	H11485	H	0.781890	0.643590	0.659674
	H11486	H	0.781888	0.360575	0.659759
	H11487	H	0.781833	0.144519	0.659651
	H11488	H	0.895946	0.064830	0.678976
	H11489	H	0.896741	0.064648	0.678867
	H11490	H	0.896737	0.941238	0.678864
	H11491	H	0.895949	0.941503	0.678988
	H11492	H	0.895152	0.064687	0.678209
	H11493	H	0.895162	0.941106	0.678239
	H11494	H	0.757560	0.064421	0.683894
	H11495	H	0.757475	0.941763	0.683843
	H11496	H	0.757545	0.064870	0.684031
	H11497	H	0.757541	0.941319	0.684066
	H11498	H	0.757820	0.064684	0.684106
	H11499	H	0.757805	0.941301	0.684128
	H11500	H	0.758927	0.441232	0.684915
	H11501	H	0.759413	0.441783	0.683861
	H11502	H	0.757088	0.441249	0.685128
	H11503	H	0.894756	0.441621	0.677903
	H11504	H	0.895963	0.440543	0.677115
	H11505	H	0.897019	0.440639	0.677409
	H11506	H	0.759414	0.564471	0.683860
	H11507	H	0.758963	0.564899	0.684982
	H11508	H	0.896893	0.563692	0.677359
	H11509	H	0.895874	0.564567	0.677077
	H11510	H	0.894783	0.564651	0.677911
	H11511	H	0.757064	0.564529	0.685162
	H11512	H	0.872004	0.644821	0.702379
	H11513	H	0.871817	0.860646	0.702319
	H11514	H	0.871792	0.144404	0.702248
	H11515	H	0.871891	0.360919	0.702303
	H11516	H	0.796100	0.643662	0.645507
	H11517	H	0.849593	0.644410	0.643365
	H11518	H	0.849533	0.861493	0.643333
	H11519	H	0.796092	0.860809	0.645492
	H11520	H	0.866692	0.644625	0.656259
	H11521	H	0.866655	0.861740	0.656236
	H11522	H	0.857807	0.644743	0.716585
	H11523	H	0.857663	0.860769	0.716515
	H11524	H	0.821422	0.441429	0.623563
	H11525	H	0.835045	0.441427	0.739749
	H11526	H	0.818223	0.441518	0.622996
	H11527	H	0.817420	0.441326	0.621045
	H11528	H	0.831944	0.440903	0.740066
	H11529	H	0.833032	0.441421	0.739209
	H11530	H	0.835010	0.564627	0.739777
	H11531	H	0.821391	0.564547	0.623548
	H11532	H	0.833039	0.564189	0.739201
	H11533	H	0.831963	0.564578	0.740093
	H11534	H	0.817453	0.564601	0.621020
	H11535	H	0.818198	0.564384	0.622948
	H11536	H	0.857726	0.144679	0.716513
	H11537	H	0.857795	0.361043	0.716569
	H11538	H	0.819106	0.064395	0.621630
	H11539	H	0.819861	0.064862	0.622236
	H11540	H	0.819488	0.064222	0.620590
	H11541	H	0.804339	0.860387	0.718636
	H11542	H	0.804250	0.644471	0.718810
	H11543	H	0.804253	0.361171	0.718722
	H11544	H	0.804371	0.144475	0.718601
	H11545	H	0.796032	0.144593	0.645471
	H11546	H	0.849541	0.144600	0.643391
	H11547	H	0.849632	0.361512	0.643315
	H11548	H	0.796032	0.360526	0.645578
	H11549	H	0.866757	0.144882	0.656183
	H11550	H	0.866803	0.361376	0.656167
	H11551	H	0.832364	0.064781	0.739543
	H11552	H	0.831853	0.064433	0.740681
	H11553	H	0.833153	0.064309	0.742053
	H11554	H	0.819794	0.941090	0.622267
	H11555	H	0.819136	0.941141	0.621683
	H11556	H	0.819555	0.941232	0.620667
	H11557	H	0.832353	0.941252	0.739529
	H11558	H	0.831848	0.941572	0.740724
	H11559	H	0.833103	0.941641	0.742036
	Zn11560	Zn	0.757741	0.680103	0.683944
	Zn11561	Zn	0.757791	0.825707	0.683885
	Zn11562	Zn	0.757756	0.180211	0.683944
	Zn11563	Zn	0.757788	0.325805	0.683891
	Zn11564	Zn	0.833571	0.679988	0.740693
	Zn11565	Zn	0.833565	0.825744	0.740684
	Zn11566	Zn	0.833629	0.180159	0.740646
	Zn11567	Zn	0.833595	0.325498	0.740677
	C11568	C	0.877965	0.753226	0.664752
	C11569	C	0.775789	0.752410	0.697321
	C11570	C	0.786120	0.752322	0.705044
	C11571	C	0.790946	0.691215	0.708738
	C11572	C	0.791007	0.813556	0.708635
	C11573	C	0.775784	0.252536	0.697351
	C11574	C	0.786122	0.252670	0.705061
	C11575	C	0.791022	0.191289	0.708638
	C11576	C	0.790931	0.314062	0.708722
	C11577	C	0.772572	0.752486	0.669099
	C11578	C	0.781060	0.752324	0.660541
	C11579	C	0.785054	0.813755	0.656520
	C11580	C	0.785044	0.690801	0.656529
	C11581	C	0.772587	0.252797	0.669137
	C11582	C	0.781084	0.252610	0.660591
	C11583	C	0.785041	0.313693	0.656597
	C11584	C	0.785022	0.191364	0.656525
	C11585	C	0.896293	0.043223	0.678712
	C11586	C	0.896276	0.962553	0.678731
	C11587	C	0.757596	0.043342	0.683954
	C11588	C	0.757579	0.962681	0.683947
	C11589	C	0.757834	0.043415	0.684045
	C11590	C	0.757835	0.962549	0.684041
	C11591	C	0.758810	0.462632	0.684270
	C11592	C	0.895202	0.462630	0.678326
	C11593	C	0.896350	0.462148	0.677483
	C11594	C	0.758803	0.543386	0.684285
	C11595	C	0.896312	0.543075	0.677481
	C11596	C	0.895197	0.543263	0.678315
	C11597	C	0.881167	0.752634	0.692900
	C11598	C	0.881215	0.252658	0.692904
	C11599	C	0.872677	0.752650	0.701453
	C11600	C	0.868780	0.691599	0.705502
	C11601	C	0.868674	0.813748	0.705467
	C11602	C	0.872688	0.252739	0.701419
	C11603	C	0.868675	0.191500	0.705420
	C11604	C	0.868721	0.313986	0.705451
	C11605	C	0.878121	0.253103	0.664674
	C11606	C	0.838296	0.752953	0.634758
	C11607	C	0.805485	0.752399	0.636191
	C11608	C	0.815590	0.752526	0.727244
	C11609	C	0.862881	0.691722	0.653359
	C11610	C	0.862863	0.814556	0.653355
	C11611	C	0.848597	0.753019	0.642508
	C11612	C	0.796936	0.752244	0.644685
	C11613	C	0.792920	0.690728	0.648661
	C11614	C	0.853409	0.691641	0.646187
	C11615	C	0.853396	0.814456	0.646177
	C11616	C	0.792926	0.813720	0.648658
	C11617	C	0.867688	0.753173	0.656996
	C11618	C	0.848363	0.752931	0.725906
	C11619	C	0.860951	0.691571	0.713400
	C11620	C	0.860848	0.813851	0.713366
	C11621	C	0.856870	0.752684	0.717360
	C11622	C	0.834788	0.462233	0.740463
	C11623	C	0.818460	0.462581	0.621839
	C11624	C	0.832784	0.462430	0.739902
	C11625	C	0.834781	0.543353	0.740486
	C11626	C	0.832787	0.543119	0.739919
	C11627	C	0.818462	0.543390	0.621800
	C11628	C	0.848476	0.253037	0.725923
	C11629	C	0.860863	0.191615	0.713328
	C11630	C	0.860904	0.314098	0.713359
	C11631	C	0.856913	0.252946	0.717351
	C11632	C	0.819660	0.043414	0.621788
	C11633	C	0.838234	0.252983	0.634846
	C11634	C	0.805352	0.252661	0.636143
	C11635	C	0.815652	0.252999	0.727164
	C11636	C	0.862915	0.191821	0.653346
	C11637	C	0.862940	0.314413	0.653334
	C11638	C	0.848553	0.253035	0.642595
	C11639	C	0.796880	0.252525	0.644684
	C11640	C	0.805307	0.752432	0.719474
	C11641	C	0.800502	0.813532	0.715789
	C11642	C	0.800448	0.691300	0.715890
	C11643	C	0.805359	0.252844	0.719420
	C11644	C	0.800468	0.314093	0.715830
	C11645	C	0.800558	0.191437	0.715740
	C11646	C	0.792880	0.191404	0.648650
	C11647	C	0.853381	0.191707	0.646229
	C11648	C	0.853420	0.314403	0.646204
	C11649	C	0.792887	0.313600	0.648718
	C11650	C	0.867783	0.253123	0.656956
	C11651	C	0.832524	0.043417	0.740262
	C11652	C	0.820056	0.043199	0.620751
	C11653	C	0.819646	0.962462	0.621815
	C11654	C	0.832508	0.962536	0.740274
	C11655	C	0.820035	0.962268	0.620790
	N11656	N	0.757744	0.070094	0.683937
	N11657	N	0.757727	0.935574	0.683931
	N11658	N	0.757771	0.435677	0.683886
	N11659	N	0.757738	0.570136	0.683926
	N11660	N	0.833612	0.435500	0.740657
	N11661	N	0.833602	0.569966	0.740679
	N11662	N	0.833640	0.070103	0.740626
	N11663	N	0.833577	0.935633	0.740663
	O11664	O	0.893757	0.694745	0.788566
	O11665	O	0.893683	0.810476	0.788597
	O11666	O	0.785065	0.695144	0.813746
	O11667	O	0.784885	0.811128	0.813847
	O11668	O	0.784930	0.195449	0.813824
	O11669	O	0.784860	0.311371	0.813788
	O11670	O	0.782751	0.694958	0.791777
	O11671	O	0.782665	0.810893	0.791766
	O11672	O	0.782694	0.194540	0.791676
	O11673	O	0.782620	0.310658	0.791658
	O11674	O	0.895472	0.694349	0.810790
	O11675	O	0.895294	0.810477	0.810627
	O11676	O	0.895292	0.194807	0.810663
	O11677	O	0.895324	0.310716	0.810670
	O11678	O	0.893667	0.194731	0.788645
	O11679	O	0.893689	0.310664	0.788660
	O11680	O	0.847296	0.694913	0.751414
	O11681	O	0.822073	0.695274	0.752214
	O11682	O	0.856703	0.694804	0.850823
	O11683	O	0.856662	0.810758	0.850758
	O11684	O	0.831119	0.694913	0.851102
	O11685	O	0.831194	0.811029	0.851227
	O11686	O	0.821874	0.811233	0.752084
	O11687	O	0.847392	0.811006	0.751350
	O11688	O	0.847357	0.195228	0.751348
	O11689	O	0.822026	0.194550	0.752113
	O11690	O	0.856645	0.194569	0.850791
	O11691	O	0.856752	0.310564	0.850799
	O11692	O	0.831087	0.195182	0.851077
	O11693	O	0.831214	0.311318	0.851156
	O11694	O	0.821992	0.310464	0.752138
	O11695	O	0.847377	0.310918	0.751331
	H11696	H	0.799903	0.645089	0.825664
	H11697	H	0.799757	0.861865	0.825805
	H11698	H	0.799661	0.145602	0.825794
	H11699	H	0.799849	0.361781	0.825707
	H11700	H	0.795310	0.861010	0.779090
	H11701	H	0.795168	0.645120	0.778970
	H11702	H	0.795386	0.360526	0.779109
	H11703	H	0.795301	0.144534	0.778992
	H11704	H	0.908029	0.064379	0.797563
	H11705	H	0.906107	0.064511	0.797708
	H11706	H	0.906111	0.941075	0.797704
	H11707	H	0.908070	0.941082	0.797534
	H11708	H	0.909640	0.064519	0.799493
	H11709	H	0.909742	0.940861	0.799454
	H11710	H	0.771801	0.064334	0.801751
	H11711	H	0.771682	0.941545	0.801785
	H11712	H	0.770277	0.064996	0.801816
	H11713	H	0.770224	0.941137	0.801791
	H11714	H	0.769355	0.064442	0.803312
	H11715	H	0.769257	0.940861	0.803324
	H11716	H	0.770591	0.441280	0.804684
	H11717	H	0.772071	0.441129	0.804493
	H11718	H	0.769295	0.440943	0.803152
	H11719	H	0.912294	0.441035	0.800048
	H11720	H	0.908559	0.440927	0.803567
	H11721	H	0.904448	0.441093	0.802742
	H11722	H	0.772173	0.564662	0.804527
	H11723	H	0.770622	0.564688	0.804656
	H11724	H	0.904436	0.564362	0.802635
	H11725	H	0.908506	0.564232	0.803494
	H11726	H	0.912295	0.564090	0.800043
	H11727	H	0.769367	0.564104	0.803215
	H11728	H	0.882998	0.643962	0.823544
	H11729	H	0.882885	0.860776	0.823415
	H11730	H	0.883003	0.145185	0.823567
	H11731	H	0.882980	0.360474	0.823547
	H11732	H	0.809286	0.645302	0.764725
	H11733	H	0.862320	0.644594	0.763219
	H11734	H	0.862112	0.861016	0.763341
	H11735	H	0.809462	0.861092	0.764853
	H11736	H	0.878948	0.644645	0.776575
	H11737	H	0.878749	0.861009	0.776712
	H11738	H	0.869150	0.643975	0.837995
	H11739	H	0.869048	0.861016	0.837880
	H11740	H	0.835381	0.440814	0.741024
	H11741	H	0.844671	0.440774	0.861500
	H11742	H	0.833895	0.440805	0.742212
	H11743	H	0.832400	0.440891	0.741810
	H11744	H	0.844521	0.441059	0.862366
	H11745	H	0.844316	0.440376	0.861999
	H11746	H	0.844714	0.564416	0.861476
	H11747	H	0.835395	0.564822	0.741039
	H11748	H	0.844309	0.564372	0.861928
	H11749	H	0.844417	0.563944	0.862335
	H11750	H	0.832354	0.564331	0.741818
	H11751	H	0.833852	0.564057	0.742249
	H11752	H	0.869107	0.144872	0.837981
	H11753	H	0.869123	0.360293	0.837960
	H11754	H	0.835323	0.064685	0.740281
	H11755	H	0.834389	0.064637	0.739331
	H11756	H	0.834563	0.064582	0.741855
	H11757	H	0.816335	0.861796	0.839231
	H11758	H	0.816419	0.645319	0.839108
	H11759	H	0.816414	0.361795	0.839131
	H11760	H	0.816254	0.145662	0.839206
	H11761	H	0.809464	0.144675	0.764795
	H11762	H	0.862234	0.145282	0.763311
	H11763	H	0.862251	0.360659	0.763325
	H11764	H	0.809521	0.360338	0.764912
	H11765	H	0.878831	0.144957	0.776708
	H11766	H	0.878847	0.360697	0.776713
	H11767	H	0.845041	0.064224	0.864334
	H11768	H	0.847116	0.064472	0.863420
	H11769	H	0.847139	0.064604	0.860650
	H11770	H	0.834353	0.941258	0.739378
	H11771	H	0.835281	0.941079	0.740349
	H11772	H	0.834570	0.941028	0.741923
	H11773	H	0.845103	0.940997	0.864362
	H11774	H	0.847216	0.941038	0.863511
	H11775	H	0.847198	0.941437	0.860695
	Zn11776	Zn	0.771185	0.680079	0.803221
	Zn11777	Zn	0.771075	0.825371	0.803170
	Zn11778	Zn	0.771148	0.180009	0.803163
	Zn11779	Zn	0.771018	0.325509	0.803125
	Zn11780	Zn	0.844765	0.680004	0.861933
	Zn11781	Zn	0.844903	0.825525	0.862018
	Zn11782	Zn	0.844706	0.179974	0.861882
	Zn11783	Zn	0.844908	0.325434	0.861991
	C11784	C	0.889853	0.752625	0.785477
	C11785	C	0.788842	0.753222	0.816885
	C11786	C	0.798825	0.753397	0.824922
	C11787	C	0.803545	0.692208	0.828667
	C11788	C	0.803461	0.814764	0.828753
	C11789	C	0.788770	0.253492	0.816903
	C11790	C	0.798748	0.253664	0.824954
	C11791	C	0.803376	0.192505	0.828766
	C11792	C	0.803477	0.314793	0.828725
	C11793	C	0.785963	0.753036	0.788467
	C11794	C	0.794415	0.753151	0.779895
	C11795	C	0.798437	0.814180	0.775903
	C11796	C	0.798352	0.692089	0.775835
	C11797	C	0.785944	0.252657	0.788393
	C11798	C	0.794451	0.252583	0.779877
	C11799	C	0.798466	0.313677	0.775910
	C11800	C	0.798456	0.191391	0.775864
	C11801	C	0.907155	0.043158	0.798102
	C11802	C	0.907169	0.962215	0.798081
	C11803	C	0.771043	0.043264	0.802127
	C11804	C	0.770984	0.962477	0.802137
	C11805	C	0.770081	0.043054	0.803676
	C11806	C	0.770059	0.962308	0.803692
	C11807	C	0.771276	0.462414	0.804200
	C11808	C	0.910508	0.462264	0.798633
	C11809	C	0.906740	0.462349	0.802137
	C11810	C	0.771338	0.543258	0.804227
	C11811	C	0.906718	0.543186	0.802101
	C11812	C	0.910514	0.542954	0.798626
	C11813	C	0.892161	0.752430	0.814025
	C11814	C	0.892077	0.252767	0.813990
	C11815	C	0.883788	0.752374	0.822682
	C11816	C	0.879908	0.690963	0.826775
	C11817	C	0.879840	0.813794	0.826691
	C11818	C	0.883716	0.252719	0.822647
	C11819	C	0.879849	0.191755	0.826748
	C11820	C	0.879852	0.313676	0.826728
	C11821	C	0.889815	0.252707	0.785552
	C11822	C	0.851214	0.752899	0.754468
	C11823	C	0.818665	0.753255	0.755412
	C11824	C	0.827297	0.753181	0.848067
	C11825	C	0.875204	0.691674	0.773640
	C11826	C	0.875084	0.813958	0.773705
	C11827	C	0.861236	0.752800	0.762478
	C11828	C	0.810164	0.753223	0.763956
	C11829	C	0.806167	0.691997	0.767930
	C11830	C	0.865978	0.691617	0.766228
	C11831	C	0.865868	0.814040	0.766283
	C11832	C	0.806266	0.814265	0.768004
	C11833	C	0.879849	0.752832	0.777447
	C11834	C	0.859917	0.752742	0.847466
	C11835	C	0.872215	0.691088	0.834785
	C11836	C	0.872153	0.813884	0.834700
	C11837	C	0.868292	0.752589	0.838829
	C11838	C	0.844896	0.462245	0.861640
	C11839	C	0.833265	0.462251	0.741676
	C11840	C	0.844527	0.462047	0.862132
	C11841	C	0.844878	0.543034	0.861620
	C11842	C	0.844500	0.543014	0.862109
	C11843	C	0.833272	0.542951	0.741686
	C11844	C	0.859963	0.252462	0.847492
	C11845	C	0.872176	0.191597	0.834760
	C11846	C	0.872187	0.313513	0.834738
	C11847	C	0.868291	0.252494	0.838829
	C11848	C	0.834546	0.043322	0.740033
	C11849	C	0.851260	0.253047	0.754435
	C11850	C	0.818741	0.252483	0.755428
	C11851	C	0.827322	0.253529	0.848006
	C11852	C	0.875157	0.191878	0.773701
	C11853	C	0.875166	0.313890	0.773705
	C11854	C	0.861280	0.252882	0.762463
	C11855	C	0.810267	0.252521	0.763990
	C11856	C	0.817339	0.753490	0.839974
	C11857	C	0.812647	0.814827	0.836208
	C11858	C	0.812710	0.692276	0.836124
	C11859	C	0.817313	0.253754	0.839958
	C11860	C	0.812669	0.314935	0.836176
	C11861	C	0.812572	0.192521	0.836208
	C11862	C	0.806290	0.191357	0.767971
	C11863	C	0.865958	0.192021	0.766259
	C11864	C	0.865963	0.313872	0.766270
	C11865	C	0.806308	0.313594	0.768027
	C11866	C	0.879867	0.252771	0.777479
	C11867	C	0.845747	0.043152	0.863365
	C11868	C	0.833833	0.043270	0.741621
	C11869	C	0.834509	0.962458	0.740055
	C11870	C	0.845798	0.962233	0.863406
	C11871	C	0.833787	0.962532	0.741622
	N11872	N	0.771133	0.069937	0.803148
	N11873	N	0.771083	0.935435	0.803162
	N11874	N	0.771087	0.435533	0.803120
	N11875	N	0.771151	0.570063	0.803190
	N11876	N	0.844881	0.435524	0.861959
	N11877	N	0.844843	0.570051	0.861940
	N11878	N	0.844779	0.069951	0.861904
	N11879	N	0.844868	0.935471	0.861974
	O11880	O	0.897673	0.694145	0.915887
	O11881	O	0.897667	0.810429	0.915879
	O11882	O	0.795166	0.695268	0.935946
	O11883	O	0.795180	0.811255	0.935929
	O11884	O	0.795224	0.194665	0.935942
	O11885	O	0.795284	0.310601	0.935845
	O11886	O	0.794113	0.694765	0.913189
	O11887	O	0.794127	0.810659	0.913236
	O11888	O	0.794170	0.194970	0.913206
	O11889	O	0.794263	0.310929	0.913263
	O11890	O	0.894698	0.694365	0.936963
	O11891	O	0.894634	0.810851	0.936957
	O11892	O	0.894732	0.194192	0.937075
	O11893	O	0.894663	0.310678	0.937004
	O11894	O	0.897708	0.193814	0.915881
	O11895	O	0.897701	0.310162	0.915826
	O11896	O	0.857701	0.694230	0.873496
	O11897	O	0.832885	0.694529	0.873188
	O11898	O	0.859445	0.694127	0.979664
	O11899	O	0.859608	0.810583	0.979770
	O11900	O	0.835066	0.694978	0.978340
	O11901	O	0.835115	0.811176	0.978345
	O11902	O	0.832893	0.810542	0.873271
	O11903	O	0.857724	0.810370	0.873535
	O11904	O	0.857689	0.193929	0.873482
	O11905	O	0.832812	0.194831	0.873149
	O11906	O	0.859422	0.194807	0.979716
	O11907	O	0.859548	0.311216	0.979804
	O11908	O	0.835131	0.194635	0.978341
	O11909	O	0.835030	0.310969	0.978398
	O11910	O	0.832765	0.310856	0.873108
	O11911	O	0.857736	0.309979	0.873510
	H11912	H	0.807997	0.644992	0.949539
	H11913	H	0.808256	0.861571	0.949363
	H11914	H	0.808234	0.144156	0.949441
	H11915	H	0.807929	0.361413	0.949530
	H11916	H	0.806499	0.861054	0.900373
	H11917	H	0.806651	0.644597	0.900445
	H11918	H	0.806674	0.361294	0.900469
	H11919	H	0.806584	0.144493	0.900392
	H11920	H	0.913524	0.064312	0.925836
	H11921	H	0.910101	0.064384	0.924248
	H11922	H	0.910043	0.940871	0.924219
	H11923	H	0.913497	0.940736	0.925840
	H11924	H	0.913771	0.064543	0.930356
	H11925	H	0.913756	0.941065	0.930376
	H11926	H	0.783706	0.064633	0.926156
	H11927	H	0.783617	0.940951	0.926102
	H11928	H	0.784613	0.064739	0.924651
	H11929	H	0.784630	0.940821	0.924664
	H11930	H	0.783249	0.064360	0.922636
	H11931	H	0.783209	0.941304	0.922593
	H11932	H	0.783017	0.440710	0.924829
	H11933	H	0.783142	0.441038	0.924265
	H11934	H	0.782195	0.441535	0.925201
	H11935	H	0.911621	0.440741	0.933422
	H11936	H	0.904644	0.441209	0.931065
	H11937	H	0.903579	0.441670	0.926480
	H11938	H	0.783129	0.564535	0.924259
	H11939	H	0.783004	0.564802	0.924880
	H11940	H	0.903684	0.564607	0.926480
	H11941	H	0.904649	0.564438	0.931062
	H11942	H	0.911688	0.564567	0.933423
	H11943	H	0.782165	0.564506	0.925177
	H11944	H	0.882256	0.643092	0.949946
	H11945	H	0.882461	0.861934	0.950099
	H11946	H	0.882216	0.143108	0.950054
	H11947	H	0.882334	0.361922	0.950027
	H11948	H	0.820537	0.644424	0.886053
	H11949	H	0.870526	0.643408	0.887080
	H11950	H	0.870630	0.860809	0.887013
	H11951	H	0.820407	0.860556	0.885965
	H11952	H	0.884763	0.643192	0.902342
	H11953	H	0.884885	0.860865	0.902301
	H11954	H	0.870043	0.642872	0.965436
	H11955	H	0.870250	0.861938	0.965626
	H11956	H	0.845141	0.440874	0.861533
	H11957	H	0.843438	0.441188	0.993606
	H11958	H	0.845399	0.441324	0.862022
	H11959	H	0.845136	0.441470	0.862378
	H11960	H	0.852458	0.440844	0.991924
	H11961	H	0.849590	0.441363	0.994747
	H11962	H	0.843432	0.564334	0.993614
	H11963	H	0.845078	0.564019	0.861527
	H11964	H	0.849585	0.564047	0.994764
	H11965	H	0.852454	0.565378	0.991923
	H11966	H	0.845103	0.564164	0.862401
	H11967	H	0.845429	0.564983	0.862032
	H11968	H	0.870085	0.143455	0.965605
	H11969	H	0.870218	0.362130	0.965608
	H11970	H	0.842158	0.064739	0.860792
	H11971	H	0.842164	0.064110	0.862809
	H11972	H	0.845054	0.064607	0.859540
	H11973	H	0.822560	0.861562	0.964627
	H11974	H	0.822264	0.644989	0.964783
	H11975	H	0.822136	0.361558	0.964822
	H11976	H	0.822440	0.144240	0.964726
	H11977	H	0.820392	0.144573	0.885922
	H11978	H	0.870715	0.143095	0.886936
	H11979	H	0.870628	0.360287	0.887033
	H11980	H	0.820462	0.361125	0.885969
	H11981	H	0.884983	0.143042	0.902199
	H11982	H	0.884857	0.359952	0.902290
	H11983	H	0.843547	0.064567	0.989373
	H11984	H	0.843884	0.064272	0.992177
	H11985	H	0.848050	0.064220	0.993856
	H11986	H	0.842242	0.941014	0.862869
	H11987	H	0.842277	0.940982	0.860845
	H11988	H	0.845137	0.941084	0.859599
	H11989	H	0.843527	0.940968	0.989367
	H11990	H	0.843865	0.941084	0.992186
	H11991	H	0.848095	0.941094	0.993862
	Zn11992	Zn	0.782331	0.680275	0.924484
	Zn11993	Zn	0.782253	0.825589	0.924417
	Zn11994	Zn	0.782342	0.180188	0.924434
	Zn11995	Zn	0.782312	0.325486	0.924423
	Zn11996	Zn	0.847270	0.680241	0.990605
	Zn11997	Zn	0.847312	0.824819	0.990581
	Zn11998	Zn	0.847203	0.180265	0.990581
	Zn11999	Zn	0.847223	0.324879	0.990594
	C12000	C	0.894335	0.752246	0.912367
	C12001	C	0.798571	0.753269	0.939419
	C12002	C	0.807296	0.753283	0.948513
	C12003	C	0.811233	0.692059	0.952886
	C12004	C	0.811386	0.814525	0.952801
	C12005	C	0.798610	0.252710	0.939405
	C12006	C	0.807277	0.252814	0.948519
	C12007	C	0.811349	0.191356	0.952835
	C12008	C	0.811190	0.314312	0.952882
	C12009	C	0.797339	0.752824	0.909879
	C12010	C	0.805731	0.752801	0.901260
	C12011	C	0.809611	0.813959	0.897178
	C12012	C	0.809701	0.691585	0.897218
	C12013	C	0.797462	0.252942	0.909917
	C12014	C	0.805808	0.252896	0.901280
	C12015	C	0.809728	0.314296	0.897222
	C12016	C	0.809688	0.191521	0.897186
	C12017	C	0.911341	0.043066	0.925855
	C12018	C	0.911312	0.962229	0.925855
	C12019	C	0.783662	0.043434	0.925164
	C12020	C	0.783665	0.962269	0.925149
	C12021	C	0.782263	0.043194	0.923089
	C12022	C	0.782241	0.962550	0.923067
	C12023	C	0.782883	0.462295	0.924521
	C12024	C	0.912697	0.462251	0.930977
	C12025	C	0.905663	0.462358	0.928600
	C12026	C	0.782880	0.543364	0.924544
	C12027	C	0.905682	0.543081	0.928614
	C12028	C	0.912728	0.543268	0.930980
	C12029	C	0.891232	0.752582	0.940195
	C12030	C	0.891228	0.252416	0.940257
	C12031	C	0.882992	0.752604	0.949003
	C12032	C	0.879478	0.690649	0.953379
	C12033	C	0.879578	0.814370	0.953462
	C12034	C	0.883033	0.252484	0.949088
	C12035	C	0.879495	0.190740	0.953485
	C12036	C	0.879571	0.314422	0.953484
	C12037	C	0.894336	0.251862	0.912352
	C12038	C	0.861081	0.752178	0.877021
	C12039	C	0.829632	0.752447	0.876525
	C12040	C	0.831775	0.753105	0.974812
	C12041	C	0.881644	0.690515	0.898925
	C12042	C	0.881719	0.813572	0.898891
	C12043	C	0.869777	0.752042	0.886116
	C12044	C	0.821240	0.752473	0.885140
	C12045	C	0.817398	0.691353	0.889229
	C12046	C	0.873743	0.690527	0.890457
	C12047	C	0.873809	0.813565	0.890427
	C12048	C	0.817310	0.813804	0.889189
	C12049	C	0.885733	0.752048	0.903208
	C12050	C	0.862313	0.752365	0.976038
	C12051	C	0.872758	0.690632	0.962029
	C12052	C	0.872872	0.814216	0.962127
	C12053	C	0.869507	0.752383	0.966591
	C12054	C	0.843887	0.462231	0.991465
	C12055	C	0.845153	0.462507	0.862142
	C12056	C	0.850060	0.462454	0.992609
	C12057	C	0.843905	0.543074	0.991458
	C12058	C	0.850050	0.543282	0.992615
	C12059	C	0.845138	0.543295	0.862133
	C12060	C	0.862300	0.253029	0.976090
	C12061	C	0.872794	0.191024	0.962147
	C12062	C	0.872866	0.314497	0.962151
	C12063	C	0.869517	0.252850	0.966655
	C12064	C	0.842863	0.043142	0.861842
	C12065	C	0.861077	0.251870	0.877000
	C12066	C	0.829586	0.252870	0.876471
	C12067	C	0.831716	0.252806	0.974866
	C12068	C	0.881776	0.190218	0.898825
	C12069	C	0.881699	0.312950	0.898875
	C12070	C	0.869772	0.251723	0.886102
	C12071	C	0.821247	0.252920	0.885126
	C12072	C	0.823188	0.753210	0.965646
	C12073	C	0.819287	0.814558	0.961282
	C12074	C	0.819119	0.691991	0.961366
	C12075	C	0.823145	0.252905	0.965679
	C12076	C	0.819057	0.314366	0.961380
	C12077	C	0.819237	0.191416	0.961322
	C12078	C	0.817335	0.191526	0.889165
	C12079	C	0.873862	0.190208	0.890358
	C12080	C	0.873799	0.313129	0.890407
	C12081	C	0.817369	0.314257	0.889195
	C12082	C	0.885728	0.251585	0.903194
	C12083	C	0.844673	0.043280	0.990719
	C12084	C	0.845752	0.043226	0.860574
	C12085	C	0.842935	0.962290	0.861877
	C12086	C	0.844682	0.962294	0.990703
	C12087	C	0.845813	0.962487	0.860608
	N12088	N	0.782305	0.070043	0.924447
	N12089	N	0.782263	0.935488	0.924417
	N12090	N	0.782336	0.435644	0.924451
	N12091	N	0.782340	0.570197	0.924476
	N12092	N	0.847225	0.435319	0.990554
	N12093	N	0.847254	0.569980	0.990552
	N12094	N	0.847300	0.070066	0.990608
	N12095	N	0.847323	0.935404	0.990587
	O12096	O	0.957716	0.694767	0.061903
	O12097	O	0.957596	0.810888	0.061964
	O12098	O	0.855537	0.694807	0.081752
	O12099	O	0.855485	0.811013	0.081814
	O12100	O	0.855548	0.194632	0.081798
	O12101	O	0.855509	0.310788	0.081814
	O12102	O	0.858584	0.694637	0.060775
	O12103	O	0.858562	0.811001	0.060710
	O12104	O	0.858560	0.194119	0.060707
	O12105	O	0.858552	0.310719	0.060633
	O12106	O	0.958602	0.695001	0.084726
	O12107	O	0.958528	0.811266	0.084627
	O12108	O	0.958534	0.194906	0.084661
	O12109	O	0.958534	0.310887	0.084586
	O12110	O	0.957647	0.194635	0.061970
	O12111	O	0.957655	0.310484	0.061922
	O12112	O	0.918084	0.694375	0.019342
	O12113	O	0.893638	0.694551	0.017872
	O12114	O	0.919995	0.694664	0.124773
	O12115	O	0.920047	0.810731	0.124891
	O12116	O	0.895095	0.695019	0.124422
	O12117	O	0.895154	0.811002	0.124418
	O12118	O	0.893659	0.811001	0.017922
	O12119	O	0.917992	0.810507	0.019378
	O12120	O	0.918125	0.194361	0.019323
	O12121	O	0.893720	0.194566	0.017921
	O12122	O	0.920090	0.194917	0.124813
	O12123	O	0.920104	0.310959	0.124879
	O12124	O	0.895167	0.194813	0.124393
	O12125	O	0.895152	0.310717	0.124359
	O12126	O	0.893743	0.310950	0.017960
	O12127	O	0.917979	0.310692	0.019388
	H12128	H	0.868195	0.644466	0.095459
	H12129	H	0.868237	0.861453	0.095487
	H12130	H	0.868096	0.144464	0.095499
	H12131	H	0.868151	0.360750	0.095451
	H12132	H	0.871084	0.862156	0.047727
	H12133	H	0.870997	0.643122	0.047672
	H12134	H	0.870919	0.361771	0.047663
	H12135	H	0.871099	0.142915	0.047750
	H12136	H	0.968199	0.064492	0.072089
	H12137	H	0.967856	0.064414	0.074017
	H12138	H	0.967905	0.940780	0.074061
	H12139	H	0.968154	0.941359	0.072136
	H12140	H	0.971022	0.064504	0.071248
	H12141	H	0.971050	0.941771	0.071210
	H12142	H	0.842273	0.064782	0.073145
	H12143	H	0.842245	0.941285	0.073077
	H12144	H	0.845819	0.064560	0.072675
	H12145	H	0.845780	0.941390	0.072645
	H12146	H	0.847467	0.064490	0.068797
	H12147	H	0.847445	0.941008	0.068774
	H12148	H	0.841805	0.441213	0.067150
	H12149	H	0.840273	0.441446	0.068988
	H12150	H	0.845417	0.441397	0.067528
	H12151	H	0.970806	0.441264	0.073624
	H12152	H	0.970338	0.440983	0.073771
	H12153	H	0.970131	0.440450	0.073648
	H12154	H	0.840305	0.564452	0.068994
	H12155	H	0.841774	0.564600	0.067213
	H12156	H	0.970054	0.564126	0.073632
	H12157	H	0.970363	0.564510	0.073813
	H12158	H	0.970765	0.564292	0.073679
	H12159	H	0.845328	0.564841	0.067606
	H12160	H	0.946154	0.644542	0.097499
	H12161	H	0.946250	0.861743	0.097578
	H12162	H	0.946248	0.144975	0.097523
	H12163	H	0.946248	0.361119	0.097529
	H12164	H	0.883125	0.643218	0.032130
	H12165	H	0.930741	0.643922	0.033053
	H12166	H	0.930797	0.861166	0.032971
	H12167	H	0.883225	0.862112	0.032218
	H12168	H	0.944893	0.644277	0.048366
	H12169	H	0.944928	0.861264	0.048278
	H12170	H	0.932310	0.644500	0.111960
	H12171	H	0.932427	0.861817	0.112038
	H12172	H	0.906286	0.441133	0.008807
	H12173	H	0.908513	0.441142	0.136552
	H12174	H	0.904196	0.441272	0.007888
	H12175	H	0.903987	0.441260	0.006460
	H12176	H	0.908152	0.440937	0.135222
	H12177	H	0.908765	0.441122	0.135714
	H12178	H	0.908548	0.564314	0.136525
	H12179	H	0.906344	0.564732	0.008787
	H12180	H	0.908737	0.564216	0.135670
	H12181	H	0.908209	0.564699	0.135228
	H12182	H	0.903966	0.564692	0.006479
	H12183	H	0.904172	0.564452	0.007905
	H12184	H	0.932448	0.145030	0.112000
	H12185	H	0.932498	0.361236	0.112039
	H12186	H	0.905964	0.064485	0.009471
	H12187	H	0.908101	0.064633	0.008587
	H12188	H	0.903284	0.064404	0.007811
	H12189	H	0.882389	0.861639	0.110780
	H12190	H	0.882324	0.644639	0.110785
	H12191	H	0.882308	0.360639	0.110771
	H12192	H	0.882246	0.144575	0.110841
	H12193	H	0.883181	0.143190	0.032150
	H12194	H	0.930761	0.144335	0.032986
	H12195	H	0.930643	0.360901	0.033037
	H12196	H	0.883012	0.361891	0.032062
	H12197	H	0.944902	0.143924	0.048288
	H12198	H	0.944835	0.360985	0.048354
	H12199	H	0.909837	0.064828	0.135645
	H12200	H	0.908767	0.064566	0.134574
	H12201	H	0.906540	0.064748	0.134780
	H12202	H	0.908102	0.941447	0.008586
	H12203	H	0.905995	0.941324	0.009511
	H12204	H	0.903273	0.941251	0.007862
	H12205	H	0.909808	0.941322	0.135685
	H12206	H	0.908781	0.941214	0.134567
	H12207	H	0.906601	0.941075	0.134813
	Zn12208	Zn	0.843368	0.680592	0.069554
	Zn12209	Zn	0.843329	0.825328	0.069502
	Zn12210	Zn	0.843365	0.180591	0.069587
	Zn12211	Zn	0.843435	0.325360	0.069534
	Zn12212	Zn	0.907968	0.679987	0.135943
	Zn12213	Zn	0.907914	0.825787	0.135995
	Zn12214	Zn	0.907956	0.180099	0.135925
	Zn12215	Zn	0.907908	0.325468	0.135989
	C12216	C	0.954316	0.752761	0.058411
	C12217	C	0.858830	0.752885	0.085333
	C12218	C	0.867338	0.752910	0.094577
	C12219	C	0.871331	0.691599	0.098892
	C12220	C	0.871366	0.814312	0.098906
	C12221	C	0.858858	0.252759	0.085320
	C12222	C	0.867387	0.252617	0.094528
	C12223	C	0.871299	0.191406	0.098892
	C12224	C	0.871325	0.313804	0.098867
	C12225	C	0.862005	0.752727	0.057490
	C12226	C	0.870179	0.752502	0.048632
	C12227	C	0.873758	0.814421	0.044275
	C12228	C	0.873707	0.690755	0.044228
	C12229	C	0.861998	0.252350	0.057452
	C12230	C	0.870170	0.252310	0.048615
	C12231	C	0.873665	0.314218	0.044219
	C12232	C	0.873751	0.190506	0.044272
	C12233	C	0.968634	0.043377	0.073171
	C12234	C	0.968666	0.962421	0.073185
	C12235	C	0.843829	0.043313	0.072013
	C12236	C	0.843810	0.962528	0.071993
	C12237	C	0.845482	0.043556	0.068100
	C12238	C	0.845494	0.962519	0.068081
	C12239	C	0.841611	0.462743	0.068457
	C12240	C	0.970702	0.462601	0.073463
	C12241	C	0.970287	0.462076	0.073642
	C12242	C	0.841619	0.543400	0.068490
	C12243	C	0.970275	0.543220	0.073652
	C12244	C	0.970692	0.543046	0.073486
	C12245	C	0.955329	0.753201	0.088000
	C12246	C	0.955295	0.252993	0.087942
	C12247	C	0.946969	0.753144	0.096652
	C12248	C	0.943056	0.691689	0.100725
	C12249	C	0.943125	0.814647	0.100764
	C12250	C	0.946972	0.253060	0.096607
	C12251	C	0.943135	0.191901	0.100720
	C12252	C	0.943149	0.314276	0.100730
	C12253	C	0.954311	0.252500	0.058420
	C12254	C	0.921375	0.752474	0.022880
	C12255	C	0.890842	0.752722	0.021566
	C12256	C	0.891764	0.753051	0.120917
	C12257	C	0.941715	0.691323	0.044950
	C12258	C	0.941733	0.814048	0.044890
	C12259	C	0.929899	0.752453	0.032076
	C12260	C	0.883623	0.752651	0.031007
	C12261	C	0.880375	0.690858	0.035538
	C12262	C	0.933870	0.691189	0.036445
	C12263	C	0.933888	0.813977	0.036384
	C12264	C	0.880422	0.814491	0.035585
	C12265	C	0.945676	0.752698	0.049274
	C12266	C	0.923252	0.752859	0.121519
	C12267	C	0.935427	0.691644	0.108764
	C12268	C	0.935502	0.814673	0.108807
	C12269	C	0.931581	0.753115	0.112852
	C12270	C	0.908077	0.462443	0.136463
	C12271	C	0.904525	0.462472	0.007151
	C12272	C	0.908312	0.462331	0.135599
	C12273	C	0.908111	0.543252	0.136435
	C12274	C	0.908316	0.543171	0.135588
	C12275	C	0.904509	0.543342	0.007162
	C12276	C	0.923326	0.253007	0.121519
	C12277	C	0.935511	0.191843	0.108759
	C12278	C	0.935535	0.314334	0.108780
	C12279	C	0.931630	0.253064	0.112844
	C12280	C	0.906707	0.043517	0.008499
	C12281	C	0.921399	0.252580	0.022860
	C12282	C	0.890896	0.252701	0.021602
	C12283	C	0.891780	0.252698	0.120875
	C12284	C	0.941726	0.191208	0.044918
	C12285	C	0.941700	0.313872	0.044941
	C12286	C	0.929918	0.252648	0.032069
	C12287	C	0.883682	0.252456	0.031053
	C12288	C	0.883159	0.753139	0.111779
	C12289	C	0.879196	0.814440	0.107426
	C12290	C	0.879156	0.691761	0.107416
	C12291	C	0.883155	0.252568	0.111729
	C12292	C	0.879163	0.313711	0.107382
	C12293	C	0.879138	0.191458	0.107411
	C12294	C	0.880458	0.190636	0.035608
	C12295	C	0.933894	0.191310	0.036409
	C12296	C	0.933855	0.313968	0.036431
	C12297	C	0.880369	0.314283	0.035549
	C12298	C	0.945722	0.252480	0.049254
	C12299	C	0.908919	0.043400	0.135345
	C12300	C	0.903970	0.043144	0.006908
	C12301	C	0.906717	0.962571	0.008512
	C12302	C	0.908899	0.962584	0.135347
	C12303	C	0.903987	0.962169	0.006931
	N12304	N	0.843286	0.070367	0.069619
	N12305	N	0.843254	0.935735	0.069561
	N12306	N	0.843387	0.435576	0.069570
	N12307	N	0.843355	0.570189	0.069587
	N12308	N	0.907884	0.435480	0.135958
	N12309	N	0.907900	0.569969	0.135933
	N12310	N	0.907920	0.070127	0.135999
	N12311	N	0.907922	0.935629	0.136006
	O12312	O	0.967525	0.694609	0.184467
	O12313	O	0.967525	0.810534	0.184414
	O12314	O	0.859250	0.695078	0.209351
	O12315	O	0.859128	0.811067	0.209519
	O12316	O	0.859139	0.195482	0.209513
	O12317	O	0.859172	0.311377	0.209524
	O12318	O	0.857684	0.694984	0.187461
	O12319	O	0.857523	0.810722	0.187353
	O12320	O	0.857581	0.195351	0.187378
	O12321	O	0.857581	0.311357	0.187346
	O12322	O	0.969643	0.694902	0.206638
	O12323	O	0.969586	0.811120	0.206576
	O12324	O	0.969524	0.195149	0.206510
	O12325	O	0.969533	0.311148	0.206502
	O12326	O	0.967503	0.194445	0.184483
	O12327	O	0.967545	0.310462	0.184352
	O12328	O	0.921453	0.694483	0.146896
	O12329	O	0.896039	0.695213	0.147137
	O12330	O	0.930501	0.694919	0.246383
	O12331	O	0.930464	0.810970	0.246318
	O12332	O	0.905050	0.695423	0.247120
	O12333	O	0.905139	0.811284	0.247068
	O12334	O	0.896033	0.811266	0.147203
	O12335	O	0.921493	0.810582	0.146894
	O12336	O	0.921530	0.194341	0.146868
	O12337	O	0.896076	0.195290	0.147118
	O12338	O	0.930454	0.195310	0.246234
	O12339	O	0.930598	0.311227	0.246364
	O12340	O	0.905173	0.195319	0.247070
	O12341	O	0.905123	0.311362	0.247122
	O12342	O	0.896097	0.311310	0.147171
	O12343	O	0.921551	0.310547	0.146896
	H12344	H	0.873836	0.645129	0.221612
	H12345	H	0.873960	0.861052	0.221406
	H12346	H	0.873866	0.145214	0.221564
	H12347	H	0.873873	0.361392	0.221603
	H12348	H	0.870004	0.861096	0.174621
	H12349	H	0.869951	0.644702	0.174530
	H12350	H	0.869972	0.361757	0.174502
	H12351	H	0.869992	0.144856	0.174544
	H12352	H	0.980887	0.064129	0.194422
	H12353	H	0.980352	0.064051	0.194907
	H12354	H	0.980331	0.940869	0.194898
	H12355	H	0.980870	0.941087	0.194461
	H12356	H	0.981937	0.064357	0.194660
	H12357	H	0.981860	0.941062	0.194663
	H12358	H	0.844342	0.064727	0.199188
	H12359	H	0.844313	0.941293	0.199147
	H12360	H	0.845299	0.064625	0.199806
	H12361	H	0.845289	0.940998	0.199840
	H12362	H	0.846762	0.064707	0.199247
	H12363	H	0.846795	0.941350	0.199301
	H12364	H	0.846675	0.441180	0.198496
	H12365	H	0.846126	0.441305	0.197872
	H12366	H	0.846205	0.440962	0.199431
	H12367	H	0.983613	0.441219	0.194454
	H12368	H	0.982861	0.440971	0.196827
	H12369	H	0.980783	0.440736	0.197234
	H12370	H	0.846054	0.564834	0.197815
	H12371	H	0.846631	0.564545	0.198449
	H12372	H	0.980914	0.564591	0.197333
	H12373	H	0.982947	0.564084	0.196830
	H12374	H	0.983591	0.564051	0.194430
	H12375	H	0.846132	0.564394	0.199445
	H12376	H	0.957036	0.644413	0.219280
	H12377	H	0.957235	0.861824	0.219484
	H12378	H	0.957102	0.145487	0.219300
	H12379	H	0.957093	0.361040	0.219256
	H12380	H	0.883657	0.644749	0.159990
	H12381	H	0.936232	0.644063	0.158949
	H12382	H	0.936197	0.860464	0.158913
	H12383	H	0.883767	0.861296	0.160126
	H12384	H	0.952736	0.644131	0.172435
	H12385	H	0.952700	0.860656	0.172420
	H12386	H	0.942964	0.644536	0.233565
	H12387	H	0.943181	0.861572	0.233765
	H12388	H	0.907773	0.441457	0.136736
	H12389	H	0.920273	0.441079	0.256670
	H12390	H	0.906985	0.441231	0.136099
	H12391	H	0.907145	0.440881	0.135454
	H12392	H	0.917108	0.441234	0.257350
	H12393	H	0.918078	0.441062	0.256316
	H12394	H	0.920254	0.564379	0.256702
	H12395	H	0.907866	0.564465	0.136689
	H12396	H	0.918108	0.564174	0.256344
	H12397	H	0.917069	0.564194	0.257313
	H12398	H	0.907235	0.564423	0.135491
	H12399	H	0.907039	0.564519	0.136073
	H12400	H	0.943113	0.145693	0.233624
	H12401	H	0.943106	0.361218	0.233596
	H12402	H	0.907438	0.064473	0.137519
	H12403	H	0.908990	0.064478	0.137375
	H12404	H	0.905987	0.064551	0.136053
	H12405	H	0.890406	0.861451	0.234962
	H12406	H	0.890256	0.645218	0.235128
	H12407	H	0.890348	0.361277	0.235090
	H12408	H	0.890352	0.145528	0.235067
	H12409	H	0.883778	0.144752	0.160062
	H12410	H	0.936182	0.143688	0.158963
	H12411	H	0.936240	0.360926	0.158935
	H12412	H	0.883755	0.361516	0.160021
	H12413	H	0.952675	0.143714	0.172458
	H12414	H	0.952725	0.360684	0.172455
	H12415	H	0.920436	0.064358	0.257400
	H12416	H	0.919453	0.064486	0.256553
	H12417	H	0.917668	0.064380	0.256958
	H12418	H	0.909009	0.941285	0.137357
	H12419	H	0.907392	0.941472	0.137546
	H12420	H	0.905976	0.941325	0.136044
	H12421	H	0.920384	0.941138	0.257313
	H12422	H	0.919417	0.941228	0.256543
	H12423	H	0.917632	0.941490	0.256974
	Zn12424	Zn	0.845530	0.680273	0.198562
	Zn12425	Zn	0.845589	0.825730	0.198605
	Zn12426	Zn	0.845605	0.180261	0.198575
	Zn12427	Zn	0.845595	0.325724	0.198625
	Zn12428	Zn	0.918855	0.680180	0.257766
	Zn12429	Zn	0.918912	0.825591	0.257796
	Zn12430	Zn	0.918896	0.180138	0.257762
	Zn12431	Zn	0.918935	0.325539	0.257807
	C12432	C	0.963657	0.752452	0.181340
	C12433	C	0.863008	0.753013	0.212582
	C12434	C	0.872880	0.753117	0.220739
	C12435	C	0.877503	0.692094	0.224591
	C12436	C	0.877571	0.814276	0.224492
	C12437	C	0.862966	0.253373	0.212649
	C12438	C	0.872892	0.253295	0.220753
	C12439	C	0.877544	0.192167	0.224555
	C12440	C	0.877569	0.314443	0.224559
	C12441	C	0.860848	0.752852	0.184083
	C12442	C	0.869177	0.752876	0.175431
	C12443	C	0.873070	0.814151	0.171374
	C12444	C	0.873034	0.691684	0.171306
	C12445	C	0.860796	0.253329	0.184036
	C12446	C	0.869128	0.253245	0.175365
	C12447	C	0.873034	0.314620	0.171290
	C12448	C	0.873039	0.191855	0.171315
	C12449	C	0.980770	0.042992	0.194798
	C12450	C	0.980768	0.962134	0.194794
	C12451	C	0.845027	0.043411	0.199257
	C12452	C	0.845016	0.962542	0.199280
	C12453	C	0.846512	0.043382	0.198712
	C12454	C	0.846538	0.962561	0.198745
	C12455	C	0.846166	0.462391	0.198277
	C12456	C	0.982389	0.462255	0.194156
	C12457	C	0.981680	0.462194	0.196541
	C12458	C	0.846140	0.543370	0.198265
	C12459	C	0.981720	0.543156	0.196561
	C12460	C	0.982407	0.542785	0.194154
	C12461	C	0.966346	0.753044	0.209907
	C12462	C	0.966277	0.253179	0.209805
	C12463	C	0.957915	0.753125	0.218506
	C12464	C	0.953931	0.691621	0.222506
	C12465	C	0.954044	0.814662	0.222610
	C12466	C	0.957878	0.253266	0.218432
	C12467	C	0.953965	0.192288	0.222481
	C12468	C	0.953951	0.314350	0.222466
	C12469	C	0.963650	0.252350	0.181326
	C12470	C	0.925292	0.752465	0.150024
	C12471	C	0.892818	0.753147	0.150516
	C12472	C	0.901243	0.753379	0.243982
	C12473	C	0.949070	0.691095	0.169425
	C12474	C	0.949054	0.813558	0.169419
	C12475	C	0.935237	0.752252	0.158143
	C12476	C	0.884508	0.753024	0.159182
	C12477	C	0.880621	0.691743	0.163245
	C12478	C	0.939908	0.691086	0.161953
	C12479	C	0.939897	0.813520	0.161933
	C12480	C	0.880672	0.814250	0.163318
	C12481	C	0.953714	0.752288	0.173252
	C12482	C	0.933742	0.752880	0.243052
	C12483	C	0.946139	0.691594	0.230426
	C12484	C	0.946245	0.814439	0.230530
	C12485	C	0.942214	0.752906	0.234492
	C12486	C	0.920115	0.462490	0.257466
	C12487	C	0.907293	0.462344	0.135835
	C12488	C	0.917934	0.462246	0.257106
	C12489	C	0.920089	0.543408	0.257457
	C12490	C	0.917912	0.543005	0.257099
	C12491	C	0.907328	0.543147	0.135825
	C12492	C	0.933787	0.253357	0.243008
	C12493	C	0.946215	0.192436	0.230424
	C12494	C	0.946202	0.314433	0.230415
	C12495	C	0.942250	0.253468	0.234445
	C12496	C	0.908137	0.043361	0.137049
	C12497	C	0.925346	0.252401	0.150009
	C12498	C	0.892870	0.253224	0.150497
	C12499	C	0.901281	0.253371	0.243995
	C12500	C	0.949006	0.190803	0.169447
	C12501	C	0.949026	0.313665	0.169443
	C12502	C	0.935233	0.252298	0.158149
	C12503	C	0.884549	0.253100	0.159177
	C12504	C	0.891296	0.753389	0.235888
	C12505	C	0.886712	0.814451	0.231989
	C12506	C	0.886635	0.692225	0.232085
	C12507	C	0.891342	0.253379	0.235873
	C12508	C	0.886701	0.314463	0.232056
	C12509	C	0.886691	0.192307	0.232051
	C12510	C	0.880665	0.191873	0.163266
	C12511	C	0.939867	0.190851	0.161954
	C12512	C	0.939894	0.313727	0.161945
	C12513	C	0.880660	0.314496	0.163240
	C12514	C	0.953668	0.252212	0.173252
	C12515	C	0.919671	0.043263	0.257176
	C12516	C	0.906707	0.043272	0.135560
	C12517	C	0.908110	0.962650	0.137055
	C12518	C	0.919649	0.962517	0.257159
	C12519	C	0.906698	0.962369	0.135556
	N12520	N	0.845542	0.070093	0.198625
	N12521	N	0.845563	0.935572	0.198646
	N12522	N	0.845633	0.435572	0.198642
	N12523	N	0.845571	0.570099	0.198598
	N12524	N	0.918933	0.435514	0.257811
	N12525	N	0.918884	0.570047	0.257799
	N12526	N	0.918938	0.070222	0.257790
	N12527	N	0.918920	0.935706	0.257796
	O12528	O	0.980409	0.694630	0.304295
	O12529	O	0.980432	0.810700	0.304261
	O12530	O	0.870234	0.695149	0.330920
	O12531	O	0.870307	0.811419	0.330889
	O12532	O	0.870351	0.195158	0.330806
	O12533	O	0.870422	0.311007	0.330733
	O12534	O	0.867979	0.694928	0.308853
	O12535	O	0.868016	0.810970	0.308851
	O12536	O	0.868012	0.194763	0.308846
	O12537	O	0.868012	0.310855	0.308811
	O12538	O	0.982753	0.694855	0.326168
	O12539	O	0.982770	0.810928	0.326196
	O12540	O	0.982961	0.195035	0.326290
	O12541	O	0.982846	0.310865	0.326216
	O12542	O	0.980468	0.194687	0.304229
	O12543	O	0.980359	0.310754	0.304336
	O12544	O	0.932809	0.694778	0.268282
	O12545	O	0.907217	0.694638	0.269241
	O12546	O	0.943652	0.694589	0.365932
	O12547	O	0.943575	0.810694	0.365853
	O12548	O	0.917980	0.694783	0.366799
	O12549	O	0.918103	0.810979	0.366739
	O12550	O	0.907358	0.810654	0.269230
	O12551	O	0.932807	0.810709	0.268347
	O12552	O	0.932882	0.194900	0.268274
	O12553	O	0.907460	0.194471	0.269306
	O12554	O	0.943515	0.195304	0.365750
	O12555	O	0.943459	0.311428	0.365755
	O12556	O	0.917911	0.194598	0.366853
	O12557	O	0.917831	0.310485	0.366898
	O12558	O	0.907352	0.310436	0.269217
	O12559	O	0.932950	0.310953	0.268242
	H12560	H	0.885569	0.644095	0.342415
	H12561	H	0.885536	0.862057	0.342442
	H12562	H	0.885638	0.144998	0.342388
	H12563	H	0.885527	0.360623	0.342396
	H12564	H	0.880645	0.861554	0.296149
	H12565	H	0.880587	0.644545	0.296202
	H12566	H	0.880580	0.361268	0.296116
	H12567	H	0.880576	0.144369	0.296177
	H12568	H	0.993238	0.064678	0.314318
	H12569	H	0.993322	0.064743	0.315186
	H12570	H	0.993294	0.941085	0.315199
	H12571	H	0.993247	0.941428	0.314306
	H12572	H	0.994418	0.064988	0.313728
	H12573	H	0.994432	0.941174	0.313685
	H12574	H	0.857502	0.064960	0.321161
	H12575	H	0.857445	0.941374	0.321128
	H12576	H	0.857864	0.064669	0.320143
	H12577	H	0.857836	0.941563	0.320217
	H12578	H	0.856672	0.064289	0.319044
	H12579	H	0.856674	0.941335	0.319158
	H12580	H	0.856220	0.440945	0.320083
	H12581	H	0.856104	0.441122	0.320231
	H12582	H	0.856588	0.440989	0.320094
	H12583	H	0.994470	0.441591	0.314172
	H12584	H	0.995064	0.441415	0.314609
	H12585	H	0.994919	0.441340	0.315039
	H12586	H	0.856036	0.564424	0.320228
	H12587	H	0.856220	0.564256	0.320072
	H12588	H	0.994929	0.564738	0.315102
	H12589	H	0.995113	0.564872	0.314663
	H12590	H	0.994528	0.564614	0.314164
	H12591	H	0.856576	0.564680	0.320138
	H12592	H	0.970235	0.644518	0.338916
	H12593	H	0.970256	0.861157	0.338930
	H12594	H	0.970297	0.144467	0.338920
	H12595	H	0.970309	0.361764	0.339001
	H12596	H	0.894688	0.644466	0.281981
	H12597	H	0.948031	0.644284	0.279871
	H12598	H	0.948172	0.861014	0.279771
	H12599	H	0.894747	0.861267	0.281910
	H12600	H	0.965147	0.644301	0.292753
	H12601	H	0.965276	0.860970	0.292640
	H12602	H	0.956192	0.644321	0.353204
	H12603	H	0.956213	0.861210	0.353235
	H12604	H	0.920834	0.441316	0.257993
	H12605	H	0.933151	0.440870	0.374639
	H12606	H	0.919382	0.441404	0.259357
	H12607	H	0.917890	0.441613	0.259154
	H12608	H	0.928659	0.441507	0.377565
	H12609	H	0.929450	0.441366	0.375325
	H12610	H	0.933193	0.564629	0.374653
	H12611	H	0.920775	0.565175	0.257987
	H12612	H	0.929495	0.564548	0.375311
	H12613	H	0.928668	0.564276	0.377553
	H12614	H	0.917812	0.564922	0.259074
	H12615	H	0.919396	0.565009	0.259379
	H12616	H	0.956103	0.144643	0.353097
	H12617	H	0.956105	0.361685	0.353187
	H12618	H	0.918735	0.064796	0.259055
	H12619	H	0.919971	0.064351	0.258812
	H12620	H	0.917360	0.064842	0.258015
	H12621	H	0.902698	0.861824	0.355285
	H12622	H	0.902732	0.644216	0.355249
	H12623	H	0.902548	0.360710	0.355352
	H12624	H	0.902627	0.144920	0.355353
	H12625	H	0.894704	0.144235	0.281942
	H12626	H	0.948073	0.144206	0.279838
	H12627	H	0.948073	0.361299	0.279912
	H12628	H	0.894683	0.361095	0.281851
	H12629	H	0.965122	0.144204	0.292793
	H12630	H	0.965089	0.361233	0.292847
	H12631	H	0.934524	0.065054	0.374471
	H12632	H	0.931034	0.064859	0.373689
	H12633	H	0.927785	0.064524	0.376654
	H12634	H	0.920017	0.941319	0.258799
	H12635	H	0.918765	0.940933	0.259129
	H12636	H	0.917382	0.941316	0.258035
	H12637	H	0.934509	0.941834	0.374432
	H12638	H	0.931000	0.941400	0.373702
	H12639	H	0.927816	0.941230	0.376712
	Zn12640	Zn	0.856350	0.680180	0.320302
	Zn12641	Zn	0.856406	0.825632	0.320321
	Zn12642	Zn	0.856414	0.180165	0.320317
	Zn12643	Zn	0.856391	0.325603	0.320323
	Zn12644	Zn	0.931954	0.680285	0.377308
	Zn12645	Zn	0.931993	0.825760	0.377326
	Zn12646	Zn	0.931926	0.180292	0.377258
	Zn12647	Zn	0.931913	0.325681	0.377287
	C12648	C	0.976421	0.752641	0.301315
	C12649	C	0.874261	0.753219	0.333866
	C12650	C	0.884553	0.753004	0.341623
	C12651	C	0.889383	0.691377	0.345261
	C12652	C	0.889361	0.814668	0.345283
	C12653	C	0.874327	0.253045	0.333800
	C12654	C	0.884585	0.252873	0.341590
	C12655	C	0.889424	0.191829	0.345258
	C12656	C	0.889369	0.313879	0.345254
	C12657	C	0.871285	0.752896	0.305570
	C12658	C	0.879726	0.752966	0.297008
	C12659	C	0.883728	0.814426	0.292978
	C12660	C	0.883691	0.691550	0.293005
	C12661	C	0.871260	0.252824	0.305521
	C12662	C	0.879744	0.252843	0.296974
	C12663	C	0.883715	0.314216	0.292938
	C12664	C	0.883726	0.191388	0.292988
	C12665	C	0.993559	0.043174	0.314740
	C12666	C	0.993532	0.962521	0.314741
	C12667	C	0.857327	0.043437	0.320562
	C12668	C	0.857306	0.962629	0.320565
	C12669	C	0.856139	0.043263	0.319469
	C12670	C	0.856167	0.962490	0.319505
	C12671	C	0.856220	0.462379	0.320199
	C12672	C	0.994286	0.462537	0.314342
	C12673	C	0.994824	0.462679	0.314805
	C12674	C	0.856199	0.543085	0.320190
	C12675	C	0.994851	0.543563	0.314822
	C12676	C	0.994284	0.543307	0.314327
	C12677	C	0.979503	0.752874	0.329483
	C12678	C	0.979657	0.252952	0.329578
	C12679	C	0.971027	0.752853	0.338049
	C12680	C	0.967089	0.691522	0.342093
	C12681	C	0.967098	0.814170	0.342100
	C12682	C	0.971134	0.253142	0.338100
	C12683	C	0.967124	0.191685	0.342075
	C12684	C	0.967117	0.314563	0.342126
	C12685	C	0.976443	0.252692	0.301298
	C12686	C	0.936738	0.752670	0.271322
	C12687	C	0.904011	0.752753	0.272534
	C12688	C	0.914088	0.752941	0.363765
	C12689	C	0.961297	0.691367	0.289901
	C12690	C	0.961382	0.813953	0.289830
	C12691	C	0.946987	0.752661	0.279111
	C12692	C	0.895485	0.752954	0.281063
	C12693	C	0.891524	0.691566	0.285109
	C12694	C	0.951811	0.691308	0.282752
	C12695	C	0.951900	0.813937	0.282686
	C12696	C	0.891554	0.814389	0.285075
	C12697	C	0.966103	0.752666	0.293569
	C12698	C	0.946870	0.752645	0.362604
	C12699	C	0.959311	0.691370	0.350022
	C12700	C	0.959317	0.814199	0.350034
	C12701	C	0.955336	0.752792	0.354037
	C12702	C	0.933546	0.462522	0.376018
	C12703	C	0.918713	0.462731	0.258872
	C12704	C	0.929813	0.462758	0.376666
	C12705	C	0.933550	0.543369	0.376019
	C12706	C	0.929827	0.543319	0.376643
	C12707	C	0.918694	0.543547	0.258866
	C12708	C	0.946771	0.253391	0.362479
	C12709	C	0.959255	0.191722	0.349932
	C12710	C	0.959248	0.314626	0.349987
	C12711	C	0.955259	0.253195	0.353950
	C12712	C	0.919260	0.043293	0.258641
	C12713	C	0.936870	0.252842	0.271258
	C12714	C	0.904100	0.252457	0.272539
	C12715	C	0.913895	0.252574	0.363891
	C12716	C	0.961343	0.191284	0.289905
	C12717	C	0.961328	0.314146	0.289941
	C12718	C	0.947087	0.252745	0.279074
	C12719	C	0.895563	0.252586	0.281067
	C12720	C	0.903758	0.752967	0.356022
	C12721	C	0.898884	0.814619	0.352419
	C12722	C	0.898902	0.691426	0.352398
	C12723	C	0.903638	0.252812	0.356113
	C12724	C	0.898810	0.313846	0.352451
	C12725	C	0.898864	0.191760	0.352448
	C12726	C	0.891576	0.191312	0.285103
	C12727	C	0.951874	0.191348	0.282735
	C12728	C	0.951875	0.314133	0.282766
	C12729	C	0.891560	0.314050	0.285054
	C12730	C	0.966158	0.252690	0.293559
	C12731	C	0.932544	0.043634	0.374894
	C12732	C	0.917917	0.043346	0.257561
	C12733	C	0.919282	0.962369	0.258655
	C12734	C	0.932555	0.962721	0.374898
	C12735	C	0.917895	0.962578	0.257575
	N12736	N	0.856362	0.070216	0.320270
	N12737	N	0.856369	0.935701	0.320307
	N12738	N	0.856374	0.435631	0.320285
	N12739	N	0.856338	0.570181	0.320301
	N12740	N	0.931927	0.435826	0.377282
	N12741	N	0.931933	0.570385	0.377267
	N12742	N	0.931972	0.070306	0.377270
	N12743	N	0.932009	0.935807	0.377275
	O12744	O	0.993842	0.695213	0.423495
	O12745	O	0.993849	0.811247	0.423492
	O12746	O	0.883623	0.695275	0.450249
	O12747	O	0.883586	0.811255	0.450303
	O12748	O	0.883616	0.195093	0.450275
	O12749	O	0.883481	0.311078	0.450416
	O12750	O	0.881145	0.694977	0.428368
	O12751	O	0.881040	0.810925	0.428294
	O12752	O	0.881144	0.195001	0.428431
	O12753	O	0.881042	0.311191	0.428341
	O12754	O	0.996344	0.694809	0.445459
	O12755	O	0.996324	0.810808	0.445496
	O12756	O	0.996289	0.195049	0.445382
	O12757	O	0.996289	0.311125	0.445469
	O12758	O	0.993771	0.195211	0.423498
	O12759	O	0.993764	0.311218	0.423551
	O12760	O	0.946004	0.695402	0.387728
	O12761	O	0.920356	0.694828	0.388724
	O12762	O	0.956990	0.694937	0.485074
	O12763	O	0.956919	0.810770	0.485024
	O12764	O	0.931360	0.695022	0.486142
	O12765	O	0.931415	0.810843	0.486114
	O12766	O	0.920404	0.810880	0.388772
	O12767	O	0.945948	0.811279	0.387783
	O12768	O	0.945991	0.195155	0.387663
	O12769	O	0.920365	0.194670	0.388812
	O12770	O	0.956976	0.194929	0.484987
	O12771	O	0.956994	0.311217	0.485060
	O12772	O	0.931422	0.194796	0.486060
	O12773	O	0.931467	0.310774	0.486052
	O12774	O	0.920376	0.310913	0.388771
	O12775	O	0.945957	0.311316	0.387718
	H12776	H	0.898924	0.645166	0.461735
	H12777	H	0.898924	0.861101	0.461788
	H12778	H	0.898832	0.144864	0.461819
	H12779	H	0.898969	0.360987	0.461698
	H12780	H	0.893645	0.861643	0.415607
	H12781	H	0.893694	0.644432	0.415654
	H12782	H	0.893791	0.361614	0.415804
	H12783	H	0.893555	0.144437	0.415701
	H12784	H	1.007169	0.065221	0.434873
	H12785	H	1.008221	0.064292	0.434967
	H12786	H	1.008229	0.942099	0.434967
	H12787	H	1.007205	0.941080	0.434850
	H12788	H	1.006578	0.064705	0.433676
	H12789	H	1.006644	0.941029	0.433670
	H12790	H	0.868706	0.064918	0.440660
	H12791	H	0.868754	0.941864	0.440722
	H12792	H	0.869812	0.065167	0.440985
	H12793	H	0.869820	0.941629	0.441003
	H12794	H	0.870907	0.064775	0.440158
	H12795	H	0.870954	0.941106	0.440136
	H12796	H	0.872233	0.441304	0.438463
	H12797	H	0.869882	0.441438	0.437161
	H12798	H	0.872086	0.441385	0.441656
	H12799	H	1.007614	0.441514	0.435112
	H12800	H	1.006576	0.441539	0.434163
	H12801	H	1.006816	0.441525	0.433211
	H12802	H	0.869896	0.564702	0.437188
	H12803	H	0.872208	0.564865	0.438477
	H12804	H	1.006824	0.564440	0.433195
	H12805	H	1.006503	0.564549	0.434112
	H12806	H	1.007521	0.565049	0.435093
	H12807	H	0.872070	0.564862	0.441639
	H12808	H	0.983757	0.644440	0.458209
	H12809	H	0.983680	0.861039	0.458186
	H12810	H	0.983611	0.144742	0.458057
	H12811	H	0.983716	0.361441	0.458152
	H12812	H	0.907828	0.644232	0.401444
	H12813	H	0.961359	0.645008	0.399199
	H12814	H	0.961290	0.861298	0.399193
	H12815	H	0.907763	0.861493	0.401388
	H12816	H	0.978560	0.644854	0.412022
	H12817	H	0.978496	0.861392	0.411987
	H12818	H	0.969576	0.644804	0.472381
	H12819	H	0.969518	0.860946	0.472356
	H12820	H	0.935071	0.441374	0.376480
	H12821	H	0.948334	0.441246	0.499221
	H12822	H	0.933993	0.441943	0.379555
	H12823	H	0.931279	0.441395	0.380041
	H12824	H	0.946561	0.441433	0.493228
	H12825	H	0.949217	0.441313	0.495306
	H12826	H	0.948315	0.564720	0.499226
	H12827	H	0.935087	0.564577	0.376512
	H12828	H	0.949184	0.564492	0.495221
	H12829	H	0.946496	0.564433	0.493239
	H12830	H	0.931249	0.565150	0.379998
	H12831	H	0.933982	0.565291	0.379575
	H12832	H	0.969589	0.144607	0.472351
	H12833	H	0.969638	0.361615	0.472410
	H12834	H	0.933645	0.064232	0.380678
	H12835	H	0.936003	0.064548	0.378439
	H12836	H	0.928893	0.064561	0.379587
	H12837	H	0.916086	0.861213	0.474651
	H12838	H	0.916104	0.644859	0.474590
	H12839	H	0.916172	0.361211	0.474504
	H12840	H	0.916015	0.144962	0.474643
	H12841	H	0.907679	0.144275	0.401459
	H12842	H	0.961299	0.144578	0.399160
	H12843	H	0.961361	0.362080	0.399149
	H12844	H	0.907897	0.361336	0.401560
	H12845	H	0.978429	0.144584	0.412035
	H12846	H	0.978489	0.361656	0.412031
	H12847	H	0.944955	0.064234	0.496512
	H12848	H	0.945085	0.064792	0.496882
	H12849	H	0.945644	0.064834	0.496970
	H12850	H	0.936036	0.941278	0.378443
	H12851	H	0.933736	0.941049	0.380664
	H12852	H	0.928887	0.941138	0.379603
	H12853	H	0.944938	0.941272	0.496543
	H12854	H	0.945061	0.941343	0.496897
	H12855	H	0.945645	0.940971	0.496959
	Zn12856	Zn	0.869547	0.680341	0.439877
	Zn12857	Zn	0.869547	0.825619	0.439856
	Zn12858	Zn	0.869536	0.180427	0.439836
	Zn12859	Zn	0.869528	0.325607	0.439851
	Zn12860	Zn	0.945399	0.680485	0.496574
	Zn12861	Zn	0.945399	0.825582	0.496587
	Zn12862	Zn	0.945482	0.180305	0.496536
	Zn12863	Zn	0.945445	0.325699	0.496530
	C12864	C	0.989868	0.753265	0.420516
	C12865	C	0.887593	0.753237	0.453250
	C12866	C	0.897927	0.753199	0.460973
	C12867	C	0.902765	0.692013	0.464603
	C12868	C	0.902756	0.814241	0.464630
	C12869	C	0.887521	0.253066	0.453328
	C12870	C	0.897829	0.252967	0.461055
	C12871	C	0.902661	0.191833	0.464689
	C12872	C	0.902747	0.314173	0.464606
	C12873	C	0.884380	0.752998	0.425038
	C12874	C	0.892884	0.752980	0.416512
	C12875	C	0.896828	0.814439	0.412475
	C12876	C	0.896871	0.691510	0.412507
	C12877	C	0.884369	0.253054	0.425121
	C12878	C	0.892857	0.252987	0.416574
	C12879	C	0.896877	0.314474	0.412588
	C12880	C	0.896739	0.191476	0.412536
	C12881	C	1.007719	0.043466	0.434669
	C12882	C	1.007733	0.962779	0.434668
	C12883	C	0.869337	0.043634	0.440595
	C12884	C	0.869354	0.962857	0.440600
	C12885	C	0.870452	0.043370	0.439735
	C12886	C	0.870455	0.962443	0.439712
	C12887	C	0.870636	0.462485	0.438399
	C12888	C	1.008041	0.462553	0.434726
	C12889	C	1.006961	0.462687	0.433763
	C12890	C	0.870642	0.543403	0.438396
	C12891	C	1.006962	0.543301	0.433730
	C12892	C	1.008044	0.543380	0.434738
	C12893	C	0.993071	0.752718	0.448781
	C12894	C	0.993026	0.253010	0.448728
	C12895	C	0.984563	0.752706	0.457317
	C12896	C	0.980592	0.691476	0.461340
	C12897	C	0.980549	0.813985	0.461326
	C12898	C	0.984553	0.253058	0.457295
	C12899	C	0.980539	0.191716	0.461270
	C12900	C	0.980578	0.314451	0.461329
	C12901	C	0.989767	0.253291	0.420556
	C12902	C	0.949964	0.753319	0.390729
	C12903	C	0.917118	0.752809	0.392049
	C12904	C	0.927416	0.752958	0.483129
	C12905	C	0.974702	0.691929	0.409179
	C12906	C	0.974643	0.814376	0.409168
	C12907	C	0.960272	0.753162	0.398464
	C12908	C	0.908668	0.752833	0.400607
	C12909	C	0.904699	0.691444	0.404620
	C12910	C	0.965162	0.691928	0.402070
	C12911	C	0.965115	0.814329	0.402057
	C12912	C	0.904650	0.814334	0.404588
	C12913	C	0.979512	0.753223	0.412813
	C12914	C	0.960260	0.752875	0.481774
	C12915	C	0.972742	0.691640	0.469219
	C12916	C	0.972702	0.814038	0.469213
	C12917	C	0.968760	0.752861	0.473232
	C12918	C	0.946328	0.462555	0.498847
	C12919	C	0.932443	0.462633	0.379141
	C12920	C	0.947232	0.462736	0.494864
	C12921	C	0.946332	0.543366	0.498856
	C12922	C	0.947208	0.543401	0.494872
	C12923	C	0.932451	0.543729	0.379145
	C12924	C	0.960262	0.253127	0.481744
	C12925	C	0.972716	0.191751	0.469170
	C12926	C	0.972776	0.314584	0.469240
	C12927	C	0.968768	0.253164	0.473214
	C12928	C	0.934071	0.043281	0.378938
	C12929	C	0.949930	0.253210	0.390689
	C12930	C	0.917130	0.252808	0.392108
	C12931	C	0.927447	0.252869	0.483082
	C12932	C	0.974597	0.191748	0.409183
	C12933	C	0.974625	0.314652	0.409185
	C12934	C	0.960245	0.253301	0.398422
	C12935	C	0.908619	0.252755	0.400655
	C12936	C	0.917129	0.753126	0.475375
	C12937	C	0.912276	0.814268	0.471767
	C12938	C	0.912279	0.691903	0.471738
	C12939	C	0.917094	0.253030	0.475381
	C12940	C	0.912297	0.314141	0.471698
	C12941	C	0.912203	0.191936	0.471785
	C12942	C	0.904562	0.191406	0.404640
	C12943	C	0.965093	0.191717	0.402035
	C12944	C	0.965120	0.314775	0.402041
	C12945	C	0.904705	0.314296	0.404693
	C12946	C	0.979426	0.253207	0.412839
	C12947	C	0.945133	0.043137	0.496653
	C12948	C	0.929298	0.043382	0.377900
	C12949	C	0.934123	0.962539	0.378955
	C12950	C	0.945116	0.962435	0.496664
	C12951	C	0.929333	0.962499	0.377929
	N12952	N	0.869580	0.070248	0.439866
	N12953	N	0.869590	0.935733	0.439861
	N12954	N	0.869509	0.435708	0.439944
	N12955	N	0.869525	0.570262	0.439928
	N12956	N	0.945397	0.435824	0.496593
	N12957	N	0.945400	0.570367	0.496584
	N12958	N	0.945458	0.070090	0.496565
	N12959	N	0.945428	0.935530	0.496559
	O12960	O	1.007233	0.695007	0.542796
	O12961	O	1.007278	0.810684	0.542841
	O12962	O	0.896811	0.695160	0.569365
	O12963	O	0.896834	0.810971	0.569329
	O12964	O	0.896826	0.194772	0.569407
	O12965	O	0.896836	0.310779	0.569405
	O12966	O	0.894320	0.694985	0.547484
	O12967	O	0.894246	0.810655	0.547366
	O12968	O	0.894310	0.195068	0.547465
	O12969	O	0.894410	0.311054	0.547498
	O12970	O	1.009716	0.694586	0.564806
	O12971	O	1.009657	0.810572	0.564802
	O12972	O	1.009658	0.194950	0.564796
	O12973	O	1.009727	0.310668	0.564848
	O12974	O	1.007263	0.195179	0.542894
	O12975	O	1.007280	0.310898	0.542881
	O12976	O	0.959431	0.694976	0.506956
	O12977	O	0.933882	0.695071	0.508095
	O12978	O	0.970241	0.694746	0.604232
	O12979	O	0.970180	0.810858	0.604273
	O12980	O	0.944572	0.694865	0.605239
	O12981	O	0.944546	0.810733	0.605263
	O12982	O	0.933891	0.810899	0.508051
	O12983	O	0.959468	0.810615	0.507013
	O12984	O	0.959560	0.194990	0.506960
	O12985	O	0.933915	0.194746	0.508018
	O12986	O	0.970156	0.194882	0.604242
	O12987	O	0.970290	0.310613	0.604413
	O12988	O	0.944727	0.194963	0.605225
	O12989	O	0.944513	0.311190	0.605361
	O12990	O	0.933961	0.310786	0.508079
	O12991	O	0.959524	0.310964	0.506978
	H12992	H	0.912167	0.644908	0.580849
	H12993	H	0.912095	0.860904	0.580870
	H12994	H	0.912189	0.144565	0.580875
	H12995	H	0.912161	0.361204	0.580897
	H12996	H	0.907051	0.860752	0.534831
	H12997	H	0.906974	0.644810	0.534853
	H12998	H	0.907055	0.361016	0.534843
	H12999	H	0.907079	0.144511	0.534840
	H13000	H	1.021114	0.064251	0.553635
	H13001	H	1.021439	0.064510	0.553603
	H13002	H	1.021384	0.940863	0.553567
	H13003	H	1.021149	0.941048	0.553614
	H13004	H	1.020860	0.064393	0.553290
	H13005	H	1.020868	0.941454	0.553277
	H13006	H	0.882441	0.064837	0.557929
	H13007	H	0.882595	0.941030	0.557982
	H13008	H	0.881771	0.064668	0.558478
	H13009	H	0.881900	0.940878	0.558422
	H13010	H	0.882024	0.064370	0.559647
	H13011	H	0.882072	0.941262	0.559562
	H13012	H	0.882824	0.441010	0.558684
	H13013	H	0.882584	0.441432	0.558760
	H13014	H	0.883122	0.441522	0.558844
	H13015	H	1.020427	0.441351	0.553833
	H13016	H	1.020368	0.441320	0.552811
	H13017	H	1.021089	0.441356	0.552481
	H13018	H	0.882650	0.564312	0.558771
	H13019	H	0.882794	0.564713	0.558648
	H13020	H	1.021091	0.564370	0.552473
	H13021	H	1.020335	0.564746	0.552831
	H13022	H	1.020452	0.564941	0.553814
	H13023	H	0.883084	0.564445	0.558805
	H13024	H	0.997222	0.644307	0.577536
	H13025	H	0.997005	0.860902	0.577447
	H13026	H	0.997039	0.145055	0.577451
	H13027	H	0.997051	0.360688	0.577464
	H13028	H	0.921287	0.644830	0.520736
	H13029	H	0.974761	0.644722	0.518422
	H13030	H	0.974845	0.860520	0.518418
	H13031	H	0.921301	0.860634	0.520716
	H13032	H	0.991913	0.644681	0.531248
	H13033	H	0.992016	0.860595	0.531265
	H13034	H	0.983028	0.644455	0.591710
	H13035	H	0.982811	0.860753	0.591642
	H13036	H	0.945013	0.441174	0.500070
	H13037	H	0.958421	0.440960	0.614891
	H13038	H	0.941361	0.440921	0.497264
	H13039	H	0.942004	0.441256	0.494359
	H13040	H	0.957802	0.441089	0.616428
	H13041	H	0.957498	0.440600	0.615643
	H13042	H	0.958363	0.564650	0.614762
	H13043	H	0.945018	0.564553	0.500095
	H13044	H	0.957531	0.564369	0.615597
	H13045	H	0.957835	0.564107	0.616393
	H13046	H	0.942043	0.564955	0.494408
	H13047	H	0.941426	0.564798	0.497284
	H13048	H	0.982866	0.145259	0.591639
	H13049	H	0.982876	0.360704	0.591682
	H13050	H	0.945767	0.064467	0.496213
	H13051	H	0.945371	0.064226	0.496106
	H13052	H	0.945955	0.064731	0.496742
	H13053	H	0.929248	0.860873	0.593739
	H13054	H	0.929320	0.645009	0.593668
	H13055	H	0.929314	0.361219	0.593777
	H13056	H	0.929306	0.144393	0.593728
	H13057	H	0.921255	0.144714	0.520655
	H13058	H	0.974786	0.144857	0.518513
	H13059	H	0.974839	0.361052	0.518492
	H13060	H	0.921233	0.360682	0.520650
	H13061	H	0.991864	0.144879	0.531456
	H13062	H	0.991943	0.360983	0.531395
	H13063	H	0.958538	0.064323	0.616950
	H13064	H	0.959669	0.064411	0.616694
	H13065	H	0.959990	0.064190	0.615285
	H13066	H	0.945306	0.940897	0.496127
	H13067	H	0.945668	0.941124	0.496196
	H13068	H	0.945933	0.941508	0.496654
	H13069	H	0.958424	0.940638	0.616910
	H13070	H	0.959599	0.940478	0.616661
	H13071	H	0.959952	0.940921	0.615286
	Zn13072	Zn	0.882752	0.680070	0.558961
	Zn13073	Zn	0.882808	0.825439	0.558908
	Zn13074	Zn	0.882717	0.180106	0.558954
	Zn13075	Zn	0.882801	0.325546	0.558971
	Zn13076	Zn	0.958654	0.680096	0.615682
	Zn13077	Zn	0.958630	0.825457	0.615683
	Zn13078	Zn	0.958640	0.179968	0.615745
	Zn13079	Zn	0.958621	0.325499	0.615820
	C13080	C	1.003275	0.752873	0.539824
	C13081	C	0.900801	0.753104	0.572334
	C13082	C	0.911128	0.753044	0.580067
	C13083	C	0.915983	0.691921	0.583701
	C13084	C	0.915930	0.814058	0.583726
	C13085	C	0.900816	0.252793	0.572387
	C13086	C	0.911145	0.252923	0.580113
	C13087	C	0.916002	0.191603	0.583727
	C13088	C	0.915994	0.314223	0.583742
	C13089	C	0.897615	0.752762	0.544177
	C13090	C	0.906183	0.752743	0.535712
	C13091	C	0.910206	0.813770	0.531708
	C13092	C	0.910168	0.691706	0.531717
	C13093	C	0.897650	0.252971	0.544192
	C13094	C	0.906196	0.252718	0.535677
	C13095	C	0.910205	0.313976	0.531698
	C13096	C	0.910218	0.191526	0.531680
	C13097	C	1.021254	0.043306	0.553526
	C13098	C	1.021256	0.962308	0.553519
	C13099	C	0.882311	0.043552	0.558384
	C13100	C	0.882363	0.962414	0.558366
	C13101	C	0.882583	0.043160	0.559535
	C13102	C	0.882595	0.962288	0.559499
	C13103	C	0.882752	0.462476	0.558769
	C13104	C	1.020923	0.462565	0.553807
	C13105	C	1.020853	0.462507	0.552819
	C13106	C	0.882743	0.543338	0.558764
	C13107	C	1.020851	0.543178	0.552821
	C13108	C	1.020923	0.543398	0.553784
	C13109	C	1.006389	0.752525	0.568081
	C13110	C	1.006393	0.252806	0.568097
	C13111	C	0.997861	0.752643	0.576598
	C13112	C	0.993977	0.691293	0.580642
	C13113	C	0.993843	0.813909	0.580611
	C13114	C	0.997855	0.252830	0.576612
	C13115	C	0.993862	0.191860	0.580604
	C13116	C	0.993882	0.313967	0.580632
	C13117	C	1.003294	0.253017	0.539897
	C13118	C	0.963448	0.752725	0.509947
	C13119	C	0.930635	0.752958	0.511377
	C13120	C	0.940563	0.752776	0.602254
	C13121	C	0.988101	0.691698	0.528426
	C13122	C	0.988169	0.813662	0.528435
	C13123	C	0.973787	0.752717	0.517661
	C13124	C	0.922102	0.752755	0.519905
	C13125	C	0.918079	0.691668	0.523879
	C13126	C	0.978583	0.691581	0.521291
	C13127	C	0.978655	0.813728	0.521297
	C13128	C	0.918105	0.813835	0.523866
	C13129	C	0.992975	0.752702	0.532088
	C13130	C	0.973492	0.752837	0.600970
	C13131	C	0.986112	0.691424	0.588503
	C13132	C	0.985979	0.813872	0.588473
	C13133	C	0.982008	0.752668	0.592441
	C13134	C	0.958789	0.462354	0.615162
	C13135	C	0.942676	0.462482	0.496032
	C13136	C	0.957924	0.462261	0.615979
	C13137	C	0.958766	0.543214	0.615123
	C13138	C	0.957905	0.543061	0.615951
	C13139	C	0.942672	0.543499	0.496041
	C13140	C	0.973499	0.252823	0.601036
	C13141	C	0.985997	0.191955	0.588471
	C13142	C	0.986001	0.313958	0.588497
	C13143	C	0.981989	0.252916	0.592489
	C13144	C	0.945546	0.043237	0.496269
	C13145	C	0.963534	0.252994	0.509958
	C13146	C	0.930650	0.252674	0.511327
	C13147	C	0.940634	0.252981	0.602318
	C13148	C	0.988131	0.191808	0.528524
	C13149	C	0.988147	0.314108	0.528514
	C13150	C	0.973831	0.252967	0.517713
	C13151	C	0.922111	0.252670	0.519847
	C13152	C	0.930290	0.752891	0.594501
	C13153	C	0.925441	0.813991	0.590862
	C13154	C	0.925492	0.691847	0.590837
	C13155	C	0.930334	0.252840	0.594550
	C13156	C	0.925492	0.314191	0.590903
	C13157	C	0.925492	0.191500	0.590883
	C13158	C	0.918102	0.191537	0.523827
	C13159	C	0.978638	0.191797	0.521373
	C13160	C	0.978651	0.314130	0.521371
	C13161	C	0.918093	0.313856	0.523840
	C13162	C	0.993002	0.252942	0.532158
	C13163	C	0.958966	0.043104	0.616511
	C13164	C	0.945716	0.043517	0.496790
	C13165	C	0.945502	0.962276	0.496266
	C13166	C	0.958922	0.962013	0.616497
	C13167	C	0.945700	0.962590	0.496770
	N13168	N	0.882798	0.070197	0.558909
	N13169	N	0.882826	0.935644	0.558883
	N13170	N	0.882868	0.435625	0.558944
	N13171	N	0.882836	0.570135	0.558919
	N13172	N	0.958660	0.435568	0.615793
	N13173	N	0.958643	0.570094	0.615737
	N13174	N	0.958666	0.069929	0.615710
	N13175	N	0.958614	0.935409	0.615695
	O13176	O	1.018578	0.694775	0.663771
	O13177	O	1.018690	0.810758	0.663740
	O13178	O	0.909897	0.694623	0.688683
	O13179	O	0.909909	0.810608	0.688795
	O13180	O	0.909900	0.194224	0.688793
	O13181	O	0.909910	0.310239	0.688793
	O13182	O	0.907565	0.694939	0.666612
	O13183	O	0.907562	0.810781	0.666658
	O13184	O	0.907610	0.194786	0.666701
	O13185	O	0.907608	0.310975	0.666687
	O13186	O	1.020479	0.695300	0.685812
	O13187	O	1.020518	0.811064	0.685851
	O13188	O	1.020490	0.195143	0.685838
	O13189	O	1.020374	0.311179	0.685714
	O13190	O	1.018736	0.194658	0.663699
	O13191	O	1.018704	0.310518	0.663724
	O13192	O	0.972486	0.694992	0.626304
	O13193	O	0.947150	0.695290	0.627273
	O13194	O	0.981609	0.695116	0.725689
	O13195	O	0.981652	0.810857	0.725748
	O13196	O	0.956065	0.694863	0.726129
	O13197	O	0.955996	0.810581	0.726161
	O13198	O	0.947110	0.811093	0.627225
	O13199	O	0.972567	0.810942	0.626305
	O13200	O	0.972320	0.194784	0.626512
	O13201	O	0.947012	0.194979	0.627188
	O13202	O	0.981675	0.195113	0.725770
	O13203	O	0.981650	0.311025	0.725771
	O13204	O	0.956173	0.194484	0.726097
	O13205	O	0.956162	0.310413	0.726081
	O13206	O	0.946824	0.311033	0.627069
	O13207	O	0.972494	0.310584	0.626399
	H13208	H	0.924651	0.644125	0.700781
	H13209	H	0.924674	0.860528	0.700755
	H13210	H	0.924754	0.143812	0.700733
	H13211	H	0.924698	0.360325	0.700770
	H13212	H	0.920237	0.860936	0.654045
	H13213	H	0.920231	0.645047	0.654009
	H13214	H	0.920260	0.361257	0.654083
	H13215	H	0.920193	0.144579	0.654015
	H13216	H	1.033456	0.064594	0.678202
	H13217	H	1.036317	0.064802	0.676286
	H13218	H	1.036343	0.941096	0.676237
	H13219	H	1.033495	0.941470	0.678209
	H13220	H	1.028698	0.064241	0.676578
	H13221	H	1.028746	0.940948	0.676601
	H13222	H	0.897065	0.064339	0.677898
	H13223	H	0.897018	0.940654	0.677940
	H13224	H	0.896489	0.064353	0.677366
	H13225	H	0.896421	0.941299	0.677403
	H13226	H	0.895328	0.064384	0.677565
	H13227	H	0.895388	0.941250	0.677590
	H13228	H	0.896501	0.440816	0.679245
	H13229	H	0.897314	0.441120	0.678670
	H13230	H	0.894991	0.441346	0.678834
	H13231	H	1.031478	0.441023	0.675868
	H13232	H	1.030536	0.441026	0.674212
	H13233	H	1.031407	0.441461	0.673100
	H13234	H	0.897256	0.564000	0.678575
	H13235	H	0.896467	0.564672	0.679215
	H13236	H	1.031342	0.564631	0.673122
	H13237	H	1.030493	0.564310	0.674203
	H13238	H	1.031419	0.564643	0.675897
	H13239	H	0.895038	0.564559	0.678778
	H13240	H	1.008033	0.645172	0.698567
	H13241	H	1.008041	0.861282	0.698632
	H13242	H	1.007902	0.145252	0.698531
	H13243	H	1.007865	0.361591	0.698449
	H13244	H	0.934506	0.645156	0.639912
	H13245	H	0.987300	0.645092	0.638254
	H13246	H	0.987347	0.861025	0.638327
	H13247	H	0.934540	0.860995	0.639934
	H13248	H	1.003859	0.644891	0.651730
	H13249	H	1.003861	0.861053	0.651804
	H13250	H	0.994101	0.645056	0.712927
	H13251	H	0.994098	0.861040	0.712994
	H13252	H	0.959297	0.441260	0.615074
	H13253	H	0.970900	0.440973	0.737446
	H13254	H	0.959677	0.441277	0.616136
	H13255	H	0.959089	0.441352	0.616698
	H13256	H	0.969804	0.441538	0.735892
	H13257	H	0.970741	0.441164	0.736245
	H13258	H	0.970886	0.564509	0.737403
	H13259	H	0.959285	0.564471	0.614963
	H13260	H	0.970832	0.564467	0.736230
	H13261	H	0.969828	0.564743	0.735858
	H13262	H	0.959096	0.564372	0.616666
	H13263	H	0.959741	0.564477	0.616031
	H13264	H	0.994080	0.145246	0.712982
	H13265	H	0.994059	0.361618	0.712906
	H13266	H	0.957456	0.064595	0.614874
	H13267	H	0.957220	0.064386	0.615929
	H13268	H	0.959041	0.064077	0.614514
	H13269	H	0.941211	0.860583	0.714196
	H13270	H	0.941217	0.644336	0.714202
	H13271	H	0.941263	0.360370	0.714180
	H13272	H	0.941342	0.143905	0.714141
	H13273	H	0.934326	0.144481	0.639775
	H13274	H	0.987297	0.144677	0.638365
	H13275	H	0.987302	0.360317	0.638366
	H13276	H	0.934367	0.361493	0.639839
	H13277	H	1.003891	0.144554	0.651744
	H13278	H	1.003882	0.360639	0.651752
	H13279	H	0.968315	0.064605	0.736687
	H13280	H	0.968679	0.064449	0.737739
	H13281	H	0.970347	0.064632	0.738179
	H13282	H	0.957171	0.941447	0.615866
	H13283	H	0.957430	0.941439	0.614902
	H13284	H	0.959023	0.941012	0.614535
	H13285	H	0.968307	0.941197	0.736708
	H13286	H	0.968693	0.941445	0.737733
	H13287	H	0.970384	0.941339	0.738129
	Zn13288	Zn	0.896004	0.679869	0.678080
	Zn13289	Zn	0.896062	0.825586	0.678145
	Zn13290	Zn	0.896061	0.180066	0.678123
	Zn13291	Zn	0.896112	0.325520	0.678202
	Zn13292	Zn	0.969779	0.680029	0.736884
	Zn13293	Zn	0.969716	0.825486	0.736912
	Zn13294	Zn	0.969815	0.179924	0.736965
	Zn13295	Zn	0.969696	0.325457	0.736940
	C13296	C	1.014780	0.752882	0.660654
	C13297	C	0.913766	0.752484	0.691844
	C13298	C	0.923753	0.752256	0.699893
	C13299	C	0.928374	0.691058	0.703728
	C13300	C	0.928384	0.813545	0.703719
	C13301	C	0.913768	0.252213	0.691897
	C13302	C	0.923742	0.252153	0.699972
	C13303	C	0.928421	0.190862	0.703747
	C13304	C	0.928387	0.313353	0.703768
	C13305	C	0.910849	0.752914	0.663353
	C13306	C	0.919363	0.752983	0.654821
	C13307	C	0.923398	0.814121	0.650874
	C13308	C	0.923365	0.691834	0.650842
	C13309	C	0.910864	0.252871	0.663399
	C13310	C	0.919369	0.252927	0.654869
	C13311	C	0.923400	0.314211	0.650899
	C13312	C	0.923354	0.191588	0.650863
	C13313	C	1.034232	0.043460	0.676521
	C13314	C	1.034246	0.962377	0.676506
	C13315	C	0.896611	0.043223	0.677778
	C13316	C	0.896581	0.962239	0.677814
	C13317	C	0.895497	0.043303	0.677935
	C13318	C	0.895482	0.962432	0.677966
	C13319	C	0.896691	0.462164	0.678749
	C13320	C	1.032273	0.462406	0.675569
	C13321	C	1.031338	0.462545	0.673875
	C13322	C	0.896643	0.543116	0.678714
	C13323	C	1.031286	0.543281	0.673881
	C13324	C	1.032240	0.543221	0.675574
	C13325	C	1.017212	0.753166	0.689120
	C13326	C	1.017212	0.253227	0.689106
	C13327	C	1.008770	0.753212	0.697699
	C13328	C	1.004888	0.692064	0.701744
	C13329	C	1.004906	0.814339	0.701812
	C13330	C	1.008779	0.253332	0.697694
	C13331	C	1.004801	0.192195	0.701731
	C13332	C	1.004820	0.314655	0.701693
	C13333	C	1.014895	0.252582	0.660588
	C13334	C	0.976369	0.752945	0.629415
	C13335	C	0.943846	0.753172	0.630537
	C13336	C	0.952195	0.752674	0.723025
	C13337	C	1.000150	0.691796	0.648728
	C13338	C	1.000179	0.814174	0.648777
	C13339	C	0.986329	0.753081	0.637476
	C13340	C	0.935294	0.753066	0.639028
	C13341	C	0.931284	0.691938	0.643018
	C13342	C	0.990981	0.691928	0.641249
	C13343	C	0.991028	0.814168	0.641287
	C13344	C	0.931318	0.814131	0.643048
	C13345	C	1.004813	0.752944	0.652560
	C13346	C	0.984852	0.753008	0.722390
	C13347	C	0.997150	0.691978	0.709698
	C13348	C	0.997167	0.814235	0.709771
	C13349	C	0.993211	0.753041	0.713764
	C13350	C	0.970271	0.462378	0.737468
	C13351	C	0.959174	0.462430	0.616246
	C13352	C	0.970165	0.462455	0.736268
	C13353	C	0.970279	0.543143	0.737456
	C13354	C	0.970177	0.543170	0.736269
	C13355	C	0.959199	0.543285	0.616221
	C13356	C	0.984910	0.253138	0.722452
	C13357	C	0.997124	0.192193	0.709737
	C13358	C	0.997133	0.314679	0.709695
	C13359	C	0.993258	0.253354	0.713800
	C13360	C	0.957682	0.043239	0.615482
	C13361	C	0.976307	0.252611	0.629522
	C13362	C	0.943637	0.253005	0.630411
	C13363	C	0.952304	0.252386	0.723005
	C13364	C	1.000227	0.191509	0.648764
	C13365	C	1.000226	0.313673	0.648756
	C13366	C	0.986344	0.252530	0.637538
	C13367	C	0.935170	0.252988	0.638973
	C13368	C	0.942239	0.752491	0.714952
	C13369	C	0.937554	0.813560	0.711182
	C13370	C	0.937555	0.691297	0.711180
	C13371	C	0.942286	0.252216	0.714990
	C13372	C	0.937581	0.313348	0.711207
	C13373	C	0.937625	0.190957	0.711185
	C13374	C	0.931182	0.191567	0.642973
	C13375	C	0.991016	0.191496	0.641336
	C13376	C	0.991021	0.313629	0.641328
	C13377	C	0.931222	0.314347	0.643005
	C13378	C	1.004950	0.252606	0.652511
	C13379	C	0.968859	0.043190	0.737146
	C13380	C	0.959292	0.042913	0.615107
	C13381	C	0.957664	0.962613	0.615461
	C13382	C	0.968860	0.962472	0.737143
	C13383	C	0.959264	0.962193	0.615106
	N13384	N	0.896119	0.070023	0.678123
	N13385	N	0.896093	0.935526	0.678173
	N13386	N	0.896087	0.435558	0.678194
	N13387	N	0.896068	0.570032	0.678162
	N13388	N	0.969764	0.435467	0.736913
	N13389	N	0.969797	0.569989	0.736869
	N13390	N	0.969824	0.069944	0.736924
	N13391	N	0.969785	0.935511	0.736910
	O13392	O	1.022535	0.694605	0.790871
	O13393	O	1.022675	0.810916	0.790814
	O13394	O	0.920232	0.694936	0.810892
	O13395	O	0.920259	0.810888	0.810901
	O13396	O	0.920154	0.194357	0.810990
	O13397	O	0.920205	0.310329	0.810951
	O13398	O	0.919151	0.694794	0.788163
	O13399	O	0.919135	0.810737	0.788235
	O13400	O	0.919171	0.194096	0.788271
	O13401	O	0.919170	0.310047	0.788285
	O13402	O	1.019668	0.694545	0.811934
	O13403	O	1.019666	0.811443	0.811896
	O13404	O	1.019697	0.194013	0.811975
	O13405	O	1.019624	0.310718	0.811886
	O13406	O	1.022608	0.194750	0.790790
	O13407	O	1.022610	0.311164	0.790800
	O13408	O	0.982660	0.694697	0.748426
	O13409	O	0.957823	0.694700	0.748142
	O13410	O	0.984542	0.694501	0.854668
	O13411	O	0.984654	0.810855	0.854813
	O13412	O	0.960123	0.694937	0.853325
	O13413	O	0.960026	0.811159	0.853394
	O13414	O	0.957738	0.810527	0.748130
	O13415	O	0.982673	0.810629	0.748379
	O13416	O	0.982658	0.194805	0.748441
	O13417	O	0.957766	0.194122	0.748109
	O13418	O	0.984612	0.194454	0.854771
	O13419	O	0.984558	0.310951	0.854763
	O13420	O	0.960248	0.194585	0.853301
	O13421	O	0.960196	0.310792	0.853365
	O13422	O	0.957716	0.310194	0.748117
	O13423	O	0.982497	0.310783	0.748509
	H13424	H	0.933044	0.644506	0.824494
	H13425	H	0.933052	0.861558	0.824505
	H13426	H	0.933004	0.144159	0.824573
	H13427	H	0.933017	0.360693	0.824557
	H13428	H	0.931540	0.861002	0.775391
	H13429	H	0.931547	0.644278	0.775327
	H13430	H	0.931603	0.360380	0.775446
	H13431	H	0.931616	0.143662	0.775450
	H13432	H	1.035864	0.064520	0.805683
	H13433	H	1.037905	0.064399	0.804204
	H13434	H	1.037945	0.940918	0.804169
	H13435	H	1.036034	0.941099	0.805709
	H13436	H	1.032308	0.064304	0.804624
	H13437	H	1.032342	0.940710	0.804682
	H13438	H	0.905070	0.064159	0.799757
	H13439	H	0.905053	0.941341	0.799791
	H13440	H	0.906267	0.064295	0.801129
	H13441	H	0.906272	0.941239	0.801181
	H13442	H	0.908879	0.064425	0.800961
	H13443	H	0.908895	0.940878	0.800978
	H13444	H	0.905365	0.440799	0.795513
	H13445	H	0.902632	0.441224	0.798022
	H13446	H	0.910942	0.441115	0.796686
	H13447	H	1.036335	0.440894	0.807857
	H13448	H	1.029964	0.441174	0.805629
	H13449	H	1.029116	0.440932	0.801372
	H13450	H	0.902622	0.564422	0.798001
	H13451	H	0.905317	0.564457	0.795500
	H13452	H	1.029145	0.564207	0.801369
	H13453	H	1.029940	0.564303	0.805588
	H13454	H	1.036270	0.564452	0.807858
	H13455	H	0.910972	0.564407	0.796663
	H13456	H	1.007214	0.643632	0.824921
	H13457	H	1.007380	0.862656	0.825053
	H13458	H	1.007466	0.143033	0.825132
	H13459	H	1.007195	0.362195	0.824896
	H13460	H	0.945434	0.644372	0.760923
	H13461	H	0.995440	0.644365	0.762085
	H13462	H	0.995567	0.861088	0.761910
	H13463	H	0.945374	0.861073	0.760989
	H13464	H	1.009710	0.644737	0.777348
	H13465	H	1.009836	0.861258	0.777149
	H13466	H	0.995095	0.643516	0.840472
	H13467	H	0.995264	0.862551	0.840645
	H13468	H	0.969962	0.440981	0.737918
	H13469	H	0.968563	0.440786	0.863092
	H13470	H	0.968691	0.440970	0.737420
	H13471	H	0.968552	0.441093	0.736537
	H13472	H	0.971827	0.440776	0.869495
	H13473	H	0.968485	0.440562	0.867616
	H13474	H	0.968595	0.564606	0.863162
	H13475	H	0.970018	0.564347	0.737925
	H13476	H	0.968590	0.563960	0.867572
	H13477	H	0.971831	0.563841	0.869406
	H13478	H	0.968609	0.564498	0.736519
	H13479	H	0.968676	0.564480	0.737381
	H13480	H	0.995355	0.143515	0.840691
	H13481	H	0.995061	0.362467	0.840446
	H13482	H	0.970773	0.064000	0.735972
	H13483	H	0.969537	0.064132	0.735627
	H13484	H	0.971264	0.064624	0.737400
	H13485	H	0.947241	0.861511	0.839805
	H13486	H	0.947213	0.644675	0.839799
	H13487	H	0.947287	0.360854	0.839795
	H13488	H	0.947277	0.144490	0.839816
	H13489	H	0.945411	0.143814	0.760976
	H13490	H	0.995531	0.144237	0.761974
	H13491	H	0.995273	0.361530	0.762121
	H13492	H	0.945371	0.360154	0.760984
	H13493	H	1.009850	0.144281	0.777202
	H13494	H	1.009604	0.361580	0.777340
	H13495	H	0.975095	0.063927	0.863363
	H13496	H	0.972088	0.063969	0.862314
	H13497	H	0.968634	0.064722	0.864565
	H13498	H	0.969524	0.940667	0.735683
	H13499	H	0.970683	0.940601	0.735950
	H13500	H	0.971239	0.940988	0.737370
	H13501	H	0.975159	0.941027	0.863365
	H13502	H	0.972084	0.940679	0.862328
	H13503	H	0.968637	0.940593	0.864594
	Zn13504	Zn	0.907362	0.679927	0.799389
	Zn13505	Zn	0.907311	0.825399	0.799420
	Zn13506	Zn	0.907322	0.179899	0.799461
	Zn13507	Zn	0.907342	0.325401	0.799482
	Zn13508	Zn	0.972329	0.679796	0.865478
	Zn13509	Zn	0.972327	0.825156	0.865564
	Zn13510	Zn	0.972273	0.179878	0.865571
	Zn13511	Zn	0.972286	0.325209	0.865610
	C13512	C	1.019232	0.752868	0.787336
	C13513	C	0.923604	0.752887	0.814411
	C13514	C	0.932237	0.752987	0.823535
	C13515	C	0.936223	0.691737	0.827867
	C13516	C	0.936226	0.814381	0.827880
	C13517	C	0.923554	0.252318	0.814469
	C13518	C	0.932274	0.252424	0.823541
	C13519	C	0.936279	0.191184	0.827880
	C13520	C	0.936281	0.313720	0.827874
	C13521	C	0.922373	0.752815	0.784869
	C13522	C	0.930753	0.752564	0.776248
	C13523	C	0.934637	0.813944	0.772203
	C13524	C	0.934654	0.691226	0.772148
	C13525	C	0.922422	0.252047	0.784969
	C13526	C	0.930776	0.251948	0.776319
	C13527	C	0.934671	0.313349	0.772249
	C13528	C	0.934659	0.190623	0.772227
	C13529	C	1.036407	0.043007	0.804444
	C13530	C	1.036471	0.962211	0.804445
	C13531	C	0.906104	0.043020	0.800183
	C13532	C	0.906100	0.962446	0.800181
	C13533	C	0.908765	0.043201	0.800016
	C13534	C	0.908788	0.962267	0.800010
	C13535	C	0.904882	0.462298	0.797463
	C13536	C	1.037331	0.462076	0.805645
	C13537	C	1.030964	0.462296	0.803359
	C13538	C	0.904883	0.543173	0.797440
	C13539	C	1.030954	0.542989	0.803362
	C13540	C	1.037321	0.543114	0.805661
	C13541	C	1.016258	0.753061	0.815147
	C13542	C	1.016207	0.252409	0.815130
	C13543	C	1.008076	0.753245	0.824022
	C13544	C	1.004531	0.691288	0.828396
	C13545	C	1.004628	0.815028	0.828479
	C13546	C	1.008013	0.252597	0.823981
	C13547	C	1.004638	0.190812	0.828485
	C13548	C	1.004462	0.314674	0.828344
	C13549	C	1.019258	0.252950	0.787287
	C13550	C	0.986023	0.752707	0.751904
	C13551	C	0.954551	0.752572	0.751461
	C13552	C	0.956709	0.753038	0.849855
	C13553	C	1.006534	0.691657	0.773913
	C13554	C	1.006599	0.814193	0.773812
	C13555	C	0.994654	0.752791	0.761051
	C13556	C	0.946219	0.752612	0.760112
	C13557	C	0.942334	0.691208	0.764149
	C13558	C	0.998633	0.691529	0.765432
	C13559	C	0.998701	0.814091	0.765331
	C13560	C	0.942306	0.813946	0.764197
	C13561	C	1.010572	0.753030	0.778182
	C13562	C	0.987414	0.752821	0.851075
	C13563	C	0.997859	0.691220	0.837077
	C13564	C	0.997955	0.814962	0.837169
	C13565	C	0.994649	0.753064	0.841652
	C13566	C	0.970816	0.461935	0.863217
	C13567	C	0.968918	0.462243	0.736950
	C13568	C	0.970744	0.462081	0.867769
	C13569	C	0.970819	0.543017	0.863195
	C13570	C	0.970777	0.542679	0.867733
	C13571	C	0.968937	0.543306	0.736935
	C13572	C	0.987395	0.252751	0.851099
	C13573	C	0.997947	0.190996	0.837166
	C13574	C	0.997780	0.314756	0.837026
	C13575	C	0.994552	0.252908	0.841598
	C13576	C	0.970070	0.042975	0.736120
	C13577	C	0.985980	0.252828	0.751964
	C13578	C	0.954515	0.252048	0.751437
	C13579	C	0.956825	0.252743	0.849842
	C13580	C	1.006687	0.191466	0.773796
	C13581	C	1.006547	0.314385	0.773877
	C13582	C	0.994720	0.252880	0.761032
	C13583	C	0.946197	0.251946	0.760124
	C13584	C	0.948094	0.753043	0.840698
	C13585	C	0.944081	0.814426	0.836383
	C13586	C	0.944074	0.691761	0.836367
	C13587	C	0.948261	0.252699	0.840649
	C13588	C	0.944186	0.313802	0.836351
	C13589	C	0.944201	0.191418	0.836352
	C13590	C	0.942311	0.190593	0.764196
	C13591	C	0.998781	0.191496	0.765325
	C13592	C	0.998631	0.314317	0.765411
	C13593	C	0.942316	0.313287	0.764220
	C13594	C	1.010703	0.252943	0.778103
	C13595	C	0.973291	0.042823	0.863592
	C13596	C	0.970557	0.043260	0.737552
	C13597	C	0.970021	0.962106	0.736112
	C13598	C	0.973306	0.962114	0.863579
	C13599	C	0.970539	0.962345	0.737529
	N13600	N	0.907350	0.069902	0.799437
	N13601	N	0.907354	0.935411	0.799430
	N13602	N	0.907368	0.435532	0.799425
	N13603	N	0.907371	0.570044	0.799389
	N13604	N	0.972341	0.435246	0.865584
	N13605	N	0.972360	0.569780	0.865542
	N13606	N	0.972361	0.069764	0.865609
	N13607	N	0.972395	0.935241	0.865586
	O13608	O	0.960889	0.694158	0.930109
	O13609	O	0.960945	0.811008	0.930087
	O13610	O	0.917443	0.694286	0.942639
	O13611	O	0.917426	0.811247	0.942621
	O13612	O	0.917368	0.194899	0.942683
	O13613	O	0.917309	0.311952	0.942630
	O13614	O	0.922155	0.694092	0.917319
	O13615	O	0.922068	0.810336	0.917292
	O13616	O	0.922186	0.194710	0.917347
	O13617	O	0.922084	0.310846	0.917273
	O13618	O	0.956146	0.694863	0.955410
	O13619	O	0.956267	0.811274	0.955463
	O13620	O	0.956164	0.194575	0.955364
	O13621	O	0.956128	0.310836	0.955402
	O13622	O	0.960926	0.194115	0.930109
	O13623	O	0.960829	0.310971	0.930163
	O13624	O	0.979854	0.693738	0.880089
	O13625	O	0.957188	0.694521	0.874434
	O13626	O	0.921050	0.694472	0.998166
	O13627	O	0.921157	0.811190	0.998258
	O13628	O	0.898415	0.694716	0.992575
	O13629	O	0.898414	0.811620	0.992595
	O13630	O	0.957126	0.811106	0.874431
	O13631	O	0.979767	0.810575	0.880088
	O13632	O	0.979804	0.194047	0.880145
	O13633	O	0.957132	0.194283	0.874434
	O13634	O	0.921120	0.194157	0.998194
	O13635	O	0.921062	0.310867	0.998160
	O13636	O	0.898416	0.194500	0.992582
	O13637	O	0.898277	0.311291	0.992594
	O13638	O	0.957107	0.310921	0.874423
	O13639	O	0.979761	0.310796	0.880126
	H13640	H	0.911837	0.643092	0.958841
	H13641	H	0.911872	0.863062	0.958855
	H13642	H	0.911846	0.143395	0.958883
	H13643	H	0.911753	0.363411	0.958858
	H13644	H	0.932736	0.861807	0.903111
	H13645	H	0.932708	0.643087	0.903057
	H13646	H	0.932764	0.362288	0.903081
	H13647	H	0.932825	0.143477	0.903172
	H13648	H	0.967561	0.064131	0.940882
	H13649	H	0.964579	0.064360	0.942670
	H13650	H	0.964548	0.940474	0.942735
	H13651	H	0.967468	0.940944	0.940904
	H13652	H	0.972247	0.063932	0.942682
	H13653	H	0.972222	0.941310	0.942718
	H13654	H	0.905670	0.064414	0.926493
	H13655	H	0.905659	0.940850	0.926498
	H13656	H	0.905838	0.064523	0.929794
	H13657	H	0.905808	0.940758	0.929818
	H13658	H	0.910535	0.064730	0.932009
	H13659	H	0.910548	0.941192	0.932067
	H13660	H	0.914285	0.441039	0.924327
	H13661	H	0.909170	0.440663	0.922612
	H13662	H	0.915713	0.441126	0.930605
	H13663	H	0.964240	0.440967	0.943571
	H13664	H	0.968013	0.440841	0.940953
	H13665	H	0.971463	0.441340	0.942151
	H13666	H	0.909208	0.564131	0.922632
	H13667	H	0.914306	0.564395	0.924302
	H13668	H	0.971441	0.564589	0.942132
	H13669	H	0.967999	0.564467	0.940935
	H13670	H	0.964223	0.564606	0.943558
	H13671	H	0.915739	0.564730	0.930562
	H13672	H	0.945612	0.643541	0.969632
	H13673	H	0.945641	0.862648	0.969625
	H13674	H	0.945596	0.142984	0.969570
	H13675	H	0.945507	0.361946	0.969557
	H13676	H	0.944785	0.643297	0.887481
	H13677	H	0.974166	0.642555	0.896300
	H13678	H	0.974483	0.861843	0.896358
	H13679	H	0.944821	0.862029	0.887528
	H13680	H	0.966165	0.642676	0.913804
	H13681	H	0.966547	0.862225	0.913847
	H13682	H	0.933409	0.643532	0.985138
	H13683	H	0.933472	0.862671	0.985177
	H13684	H	0.971905	0.440727	0.861579
	H13685	H	0.907691	0.441118	1.007928
	H13686	H	0.976476	0.440713	0.864083
	H13687	H	0.976444	0.440448	0.867380
	H13688	H	0.905891	0.441126	1.005347
	H13689	H	0.907396	0.441348	1.005961
	H13690	H	0.907720	0.564775	1.007901
	H13691	H	0.971898	0.564286	0.861579
	H13692	H	0.907461	0.564528	1.005983
	H13693	H	0.905887	0.564359	1.005328
	H13694	H	0.976447	0.564140	0.867359
	H13695	H	0.976558	0.564050	0.864030
	H13696	H	0.933544	0.142999	0.985170
	H13697	H	0.933472	0.361923	0.985170
	H13698	H	0.973309	0.063743	0.868804
	H13699	H	0.975800	0.064061	0.867191
	H13700	H	0.969122	0.064329	0.867351
	H13701	H	0.903871	0.863128	0.976349
	H13702	H	0.903820	0.643129	0.976322
	H13703	H	0.903763	0.363291	0.976359
	H13704	H	0.903880	0.143242	0.976365
	H13705	H	0.944838	0.143201	0.887552
	H13706	H	0.974257	0.142916	0.896360
	H13707	H	0.974267	0.362644	0.896375
	H13708	H	0.944799	0.362119	0.887471
	H13709	H	0.966288	0.142988	0.913864
	H13710	H	0.966298	0.362762	0.913877
	H13711	H	0.908283	0.064531	1.005884
	H13712	H	0.906316	0.064238	1.004709
	H13713	H	0.903377	0.064325	1.005883
	H13714	H	0.975849	0.940575	0.867154
	H13715	H	0.973295	0.940635	0.868742
	H13716	H	0.969176	0.940858	0.867322
	H13717	H	0.908244	0.941482	1.005896
	H13718	H	0.906265	0.940872	1.004727
	H13719	H	0.903388	0.940637	1.005893
	Zn13720	Zn	0.909844	0.680351	0.928119
	Zn13721	Zn	0.909797	0.825021	0.928127
	Zn13722	Zn	0.909895	0.180356	0.928151
	Zn13723	Zn	0.909795	0.325138	0.928112
	Zn13724	Zn	0.905922	0.680326	1.007069
	Zn13725	Zn	0.905941	0.825421	1.007095
	Zn13726	Zn	0.905944	0.180346	1.007068
	Zn13727	Zn	0.905933	0.325324	1.007063
	C13728	C	0.961990	0.752524	0.925768
	C13729	C	0.916309	0.752823	0.946943
	C13730	C	0.912498	0.753054	0.957829
	C13731	C	0.910110	0.690875	0.962746
	C13732	C	0.910139	0.815301	0.962755
	C13733	C	0.916281	0.253462	0.946969
	C13734	C	0.912482	0.253395	0.957855
	C13735	C	0.910145	0.191176	0.962789
	C13736	C	0.910086	0.315588	0.962776
	C13737	C	0.924912	0.752285	0.913610
	C13738	C	0.932091	0.752483	0.904152
	C13739	C	0.935412	0.814279	0.899648
	C13740	C	0.935390	0.690780	0.899611
	C13741	C	0.924994	0.252746	0.913638
	C13742	C	0.932125	0.252787	0.904150
	C13743	C	0.935404	0.314580	0.899612
	C13744	C	0.935439	0.190967	0.899658
	C13745	C	0.966671	0.043186	0.942518
	C13746	C	0.966655	0.961927	0.942545
	C13747	C	0.906874	0.043211	0.928147
	C13748	C	0.906850	0.962202	0.928152
	C13749	C	0.911593	0.043135	0.930393
	C13750	C	0.911570	0.962402	0.930393
	C13751	C	0.911267	0.462385	0.924661
	C13752	C	0.965580	0.462364	0.944968
	C13753	C	0.969397	0.462334	0.942351
	C13754	C	0.911282	0.543184	0.924689
	C13755	C	0.969362	0.543230	0.942351
	C13756	C	0.965577	0.543318	0.944962
	C13757	C	0.953404	0.753105	0.959101
	C13758	C	0.953331	0.252629	0.959057
	C13759	C	0.946211	0.753109	0.968556
	C13760	C	0.942927	0.691181	0.973075
	C13761	C	0.942942	0.814969	0.973076
	C13762	C	0.946165	0.252522	0.968518
	C13763	C	0.942907	0.190578	0.973028
	C13764	C	0.942867	0.314340	0.973030
	C13765	C	0.961929	0.252655	0.925804
	C13766	C	0.978734	0.752105	0.884430
	C13767	C	0.953713	0.752762	0.877660
	C13768	C	0.899499	0.753204	0.988260
	C13769	C	0.968011	0.690361	0.909940
	C13770	C	0.968205	0.814383	0.909955
	C13771	C	0.974949	0.752134	0.895322
	C13772	C	0.945530	0.752654	0.886515
	C13773	C	0.942051	0.690839	0.890917
	C13774	C	0.972496	0.690207	0.900242
	C13775	C	0.972689	0.814251	0.900259
	C13776	C	0.942063	0.814391	0.890946
	C13777	C	0.965762	0.752453	0.914893
	C13778	C	0.924502	0.752877	0.994957
	C13779	C	0.936242	0.691057	0.981752
	C13780	C	0.936258	0.815003	0.981757
	C13781	C	0.932751	0.753043	0.986142
	C13782	C	0.906684	0.462291	1.008013
	C13783	C	0.975397	0.462095	0.865699
	C13784	C	0.906411	0.462585	1.006018
	C13785	C	0.906684	0.543377	1.008012
	C13786	C	0.906418	0.543179	1.006011
	C13787	C	0.975395	0.542793	0.865649
	C13788	C	0.924550	0.252508	0.994973
	C13789	C	0.936248	0.190604	0.981717
	C13790	C	0.936202	0.314371	0.981719
	C13791	C	0.932731	0.252483	0.986118
	C13792	C	0.974025	0.042762	0.867364
	C13793	C	0.978692	0.252459	0.884472
	C13794	C	0.953705	0.252596	0.877663
	C13795	C	0.899443	0.253010	0.988251
	C13796	C	0.968055	0.190759	0.909971
	C13797	C	0.968034	0.314987	0.909979
	C13798	C	0.974907	0.252765	0.895348
	C13799	C	0.945562	0.252656	0.886525
	C13800	C	0.903237	0.753194	0.977363
	C13801	C	0.905619	0.815347	0.972441
	C13802	C	0.905597	0.690952	0.972433
	C13803	C	0.903257	0.253237	0.977383
	C13804	C	0.905551	0.315600	0.972455
	C13805	C	0.905621	0.191051	0.972468
	C13806	C	0.942074	0.190890	0.890953
	C13807	C	0.972555	0.190678	0.900279
	C13808	C	0.972547	0.314943	0.900288
	C13809	C	0.942045	0.314541	0.890907
	C13810	C	0.965713	0.252861	0.914911
	C13811	C	0.906887	0.043187	1.005761
	C13812	C	0.969820	0.042978	0.865864
	C13813	C	0.974023	0.961914	0.867325
	C13814	C	0.906867	0.962461	1.005784
	C13815	C	0.969848	0.961938	0.865858
	N13816	N	0.909954	0.070070	0.928151
	N13817	N	0.909938	0.935396	0.928157
	N13818	N	0.909839	0.435406	0.928101
	N13819	N	0.909889	0.570011	0.928078
	N13820	N	0.905886	0.435493	1.007046
	N13821	N	0.905899	0.570089	1.007036
	N13822	N	0.905876	0.070216	1.007046
	N13823	N	0.905864	0.935661	1.007072
