data_Molecule from HDF5

_cell_length_a		125.121404
_cell_length_b		19.220707
_cell_length_c		125.082940
_cell_angle_alpha	90.003636
_cell_angle_beta	90.003949
_cell_angle_gamma	89.998598
_symmetry_space_group_name_H-M	'P 1'
_symmetry_Int_Tables_number		1

loop_
	_symmetry_equiv_pos_as_xyz
	x,y,z

loop_
	_atom_site_label
	_atom_site_type_symbol
	_atom_site_fract_x
	_atom_site_fract_y
	_atom_site_fract_z
	O0	O	0.114747	0.695424	0.050101
	O1	O	0.114846	0.811407	0.050023
	O2	O	0.012966	0.694890	0.073094
	O3	O	0.012932	0.810769	0.073171
	O4	O	0.012896	0.194853	0.073194
	O5	O	0.012946	0.310871	0.073127
	O6	O	0.012980	0.695093	0.050050
	O7	O	0.012992	0.810903	0.050137
	O8	O	0.013031	0.194794	0.050171
	O9	O	0.012953	0.310710	0.050073
	O10	O	0.114732	0.694775	0.073137
	O11	O	0.114853	0.810694	0.073188
	O12	O	0.114807	0.194983	0.073203
	O13	O	0.114785	0.310699	0.073139
	O14	O	0.114735	0.194829	0.050091
	O15	O	0.114744	0.310785	0.050123
	O16	O	0.075468	0.695516	0.010538
	O17	O	0.052396	0.695405	0.010561
	O18	O	0.075329	0.694933	0.112634
	O19	O	0.075373	0.810895	0.112670
	O20	O	0.052320	0.694948	0.112633
	O21	O	0.052311	0.810801	0.112650
	O22	O	0.052348	0.811106	0.010553
	O23	O	0.075345	0.811410	0.010573
	O24	O	0.075323	0.195095	0.010607
	O25	O	0.052392	0.194868	0.010617
	O26	O	0.075424	0.195018	0.112716
	O27	O	0.075306	0.310887	0.112650
	O28	O	0.052305	0.194709	0.112651
	O29	O	0.052336	0.310821	0.112629
	O30	O	0.052211	0.310792	0.010516
	O31	O	0.075383	0.311003	0.010536
	H32	H	0.025564	0.644376	0.085830
	H33	H	0.025594	0.860986	0.085769
	H34	H	0.025669	0.144357	0.085714
	H35	H	0.025648	0.361193	0.085715
	H36	H	0.025573	0.861521	0.037398
	H37	H	0.025562	0.644681	0.037303
	H38	H	0.025603	0.361064	0.037440
	H39	H	0.025616	0.144370	0.037444
	H40	H	0.127028	0.064422	0.062092
	H41	H	0.127105	0.064575	0.061217
	H42	H	0.127153	0.941186	0.061222
	H43	H	0.127130	0.941231	0.062004
	H44	H	0.126141	0.064697	0.062582
	H45	H	0.126173	0.941439	0.062554
	H46	H	0.001516	0.063773	0.062951
	H47	H	0.001510	0.941082	0.062929
	H48	H	0.002477	0.064374	0.062452
	H49	H	0.002411	0.941063	0.062450
	H50	H	0.002544	0.064749	0.060953
	H51	H	0.002581	0.941103	0.060988
	H52	H	0.000764	0.440939	0.060585
	H53	H	0.000228	0.441725	0.061466
	H54	H	0.002173	0.440929	0.060600
	H55	H	0.124944	0.441843	0.063033
	H56	H	0.124506	0.441249	0.060827
	H57	H	0.125692	0.441162	0.059760
	H58	H	0.000202	0.564593	0.061448
	H59	H	0.000776	0.565017	0.060510
	H60	H	0.125729	0.564384	0.059742
	H61	H	0.124472	0.564467	0.060819
	H62	H	0.124923	0.564638	0.062981
	H63	H	0.002251	0.564552	0.060540
	H64	H	0.102049	0.644865	0.085779
	H65	H	0.102134	0.860939	0.085827
	H66	H	0.102176	0.145380	0.085877
	H67	H	0.102084	0.360876	0.085818
	H68	H	0.039618	0.644742	0.023105
	H69	H	0.088032	0.645197	0.023265
	H70	H	0.087943	0.862024	0.023276
	H71	H	0.039647	0.861596	0.023194
	H72	H	0.102186	0.645339	0.037436
	H73	H	0.102114	0.861858	0.037437
	H74	H	0.087895	0.644803	0.099911
	H75	H	0.087968	0.861104	0.099918
	H76	H	0.063665	0.440829	-0.000041
	H77	H	0.064075	0.441069	0.124473
	H78	H	0.063017	0.440976	-0.000784
	H79	H	0.063160	0.441442	-0.001525
	H80	H	0.063949	0.441826	0.123788
	H81	H	0.064146	0.441104	0.124072
	H82	H	0.064023	0.564461	0.124375
	H83	H	0.063694	0.563888	-0.000065
	H84	H	0.064176	0.564713	0.124023
	H85	H	0.063912	0.564471	0.123847
	H86	H	0.063204	0.564600	-0.001535
	H87	H	0.062966	0.564372	-0.000810
	H88	H	0.088059	0.145532	0.100054
	H89	H	0.087948	0.360455	0.099969
	H90	H	0.064272	0.064407	-0.000603
	H91	H	0.064426	0.064353	-0.001038
	H92	H	0.063681	0.064166	-0.000461
	H93	H	0.039728	0.860903	0.099919
	H94	H	0.039686	0.644519	0.100005
	H95	H	0.039789	0.361264	0.099891
	H96	H	0.039780	0.144525	0.099892
	H97	H	0.039746	0.144446	0.023244
	H98	H	0.088028	0.145068	0.023197
	H99	H	0.087966	0.361173	0.023274
	H100	H	0.039754	0.360892	0.023282
	H101	H	0.102164	0.144860	0.037371
	H102	H	0.102109	0.361181	0.037406
	H103	H	0.061615	0.064939	0.125400
	H104	H	0.063323	0.064992	0.126643
	H105	H	0.065968	0.064474	0.125488
	H106	H	0.064437	0.940901	-0.001017
	H107	H	0.064282	0.940902	-0.000571
	H108	H	0.063629	0.941286	-0.000430
	H109	H	0.061611	0.941697	0.125375
	H110	H	0.063307	0.941533	0.126677
	H111	H	0.066003	0.941241	0.125484
	Zn112	Zn	0.001466	0.680333	0.061601
	Zn113	Zn	0.001463	0.825507	0.061614
	Zn114	Zn	0.001429	0.180191	0.061628
	Zn115	Zn	0.001429	0.325629	0.061626
	Zn116	Zn	0.063826	0.679922	0.124167
	Zn117	Zn	0.063828	0.825788	0.124170
	Zn118	Zn	0.063861	0.180172	0.124197
	Zn119	Zn	0.063828	0.325895	0.124188
	C120	C	0.111527	0.753471	0.046765
	C121	C	0.016222	0.752755	0.076428
	C122	C	0.024702	0.752660	0.084962
	C123	C	0.028702	0.691411	0.088969
	C124	C	0.028729	0.813952	0.088928
	C125	C	0.016229	0.252836	0.076421
	C126	C	0.024733	0.252814	0.084947
	C127	C	0.028758	0.191474	0.088917
	C128	C	0.028757	0.314151	0.088918
	C129	C	0.016248	0.753029	0.046778
	C130	C	0.024720	0.753100	0.038260
	C131	C	0.028713	0.814347	0.034257
	C132	C	0.028711	0.691857	0.034205
	C133	C	0.016262	0.252717	0.046820
	C134	C	0.024746	0.252659	0.038292
	C135	C	0.028738	0.313980	0.034297
	C136	C	0.028743	0.191387	0.034277
	C137	C	0.126855	0.043398	0.061649
	C138	C	0.126901	0.962527	0.061616
	C139	C	0.001847	0.042909	0.062408
	C140	C	0.001836	0.962254	0.062403
	C141	C	0.001942	0.043337	0.060923
	C142	C	0.001954	0.962776	0.060925
	C143	C	0.000771	0.462649	0.061141
	C144	C	0.125849	0.462916	0.062851
	C145	C	0.125424	0.462426	0.060638
	C146	C	0.000769	0.543433	0.061134
	C147	C	0.125412	0.543165	0.060646
	C148	C	0.125828	0.543470	0.062820
	C149	C	0.111480	0.752785	0.076432
	C150	C	0.111516	0.252899	0.076462
	C151	C	0.102970	0.752864	0.084966
	C152	C	0.098935	0.691716	0.088957
	C153	C	0.098980	0.814034	0.088963
	C154	C	0.103015	0.253055	0.084997
	C155	C	0.099038	0.192107	0.089025
	C156	C	0.098977	0.313997	0.088982
	C157	C	0.111491	0.252853	0.046789
	C158	C	0.078684	0.753540	0.013840
	C159	C	0.049059	0.753201	0.013834
	C160	C	0.049027	0.752865	0.109368
	C161	C	0.099027	0.692284	0.034263
	C162	C	0.098983	0.814804	0.034255
	C163	C	0.087176	0.753571	0.022379
	C164	C	0.040551	0.753220	0.022358
	C165	C	0.036542	0.691812	0.026337
	C166	C	0.091183	0.692363	0.026403
	C167	C	0.091129	0.814858	0.026401
	C168	C	0.036543	0.814500	0.026382
	C169	C	0.103010	0.753530	0.038242
	C170	C	0.078616	0.752886	0.109354
	C171	C	0.091083	0.691717	0.096812
	C172	C	0.091132	0.814186	0.096822
	C173	C	0.087130	0.752946	0.100836
	C174	C	0.063872	0.462334	0.124414
	C175	C	0.063286	0.462433	-0.001099
	C176	C	0.063984	0.462644	0.124002
	C177	C	0.063882	0.543157	0.124387
	C178	C	0.063947	0.543396	0.123986
	C179	C	0.063288	0.543303	-0.001120
	C180	C	0.078650	0.253026	0.109400
	C181	C	0.091195	0.192175	0.096890
	C182	C	0.091144	0.313854	0.096852
	C183	C	0.087183	0.252985	0.100891
	C184	C	0.064213	0.043194	-0.000877
	C185	C	0.078661	0.253066	0.013835
	C186	C	0.049020	0.252764	0.013853
	C187	C	0.049068	0.252799	0.109330
	C188	C	0.098979	0.191821	0.034262
	C189	C	0.098972	0.314176	0.034282
	C190	C	0.087148	0.253075	0.022391
	C191	C	0.040517	0.252712	0.022379
	C192	C	0.040544	0.752699	0.100821
	C193	C	0.036569	0.813959	0.096786
	C194	C	0.036544	0.691474	0.096830
	C195	C	0.040563	0.252905	0.100803
	C196	C	0.036592	0.314230	0.096780
	C197	C	0.036591	0.191503	0.096785
	C198	C	0.036556	0.191379	0.026387
	C199	C	0.091143	0.191888	0.026401
	C200	C	0.091125	0.314242	0.026423
	C201	C	0.036562	0.313996	0.026417
	C202	C	0.102985	0.252900	0.038264
	C203	C	0.062832	0.043668	0.125533
	C204	C	0.063601	0.043034	-0.000723
	C205	C	0.064231	0.962147	-0.000827
	C206	C	0.062820	0.962796	0.125536
	C207	C	0.063605	0.962498	-0.000706
	N208	N	0.001468	0.070058	0.061636
	N209	N	0.001463	0.935609	0.061635
	N210	N	0.001470	0.435739	0.061605
	N211	N	0.001474	0.570189	0.061584
	N212	N	0.063824	0.435751	0.124179
	N213	N	0.063824	0.570093	0.124143
	N214	N	0.063827	0.070122	0.124187
	N215	N	0.063829	0.935761	0.124170
	O216	O	0.114977	0.694541	0.175018
	O217	O	0.114882	0.810481	0.175096
	O218	O	0.012880	0.694717	0.198179
	O219	O	0.012931	0.810696	0.198205
	O220	O	0.012889	0.195041	0.198111
	O221	O	0.012917	0.310958	0.198140
	O222	O	0.012904	0.694925	0.175154
	O223	O	0.012880	0.810969	0.175106
	O224	O	0.012887	0.195366	0.175127
	O225	O	0.012951	0.311147	0.175164
	O226	O	0.114884	0.695057	0.198156
	O227	O	0.114925	0.811120	0.198104
	O228	O	0.114840	0.194999	0.198172
	O229	O	0.114872	0.310904	0.198211
	O230	O	0.114896	0.195019	0.175091
	O231	O	0.114899	0.310890	0.175107
	O232	O	0.075355	0.694751	0.135754
	O233	O	0.052349	0.694929	0.135643
	O234	O	0.075477	0.695031	0.237637
	O235	O	0.075522	0.811181	0.237609
	O236	O	0.052418	0.694799	0.237578
	O237	O	0.052412	0.810737	0.237590
	O238	O	0.052272	0.810926	0.135656
	O239	O	0.075347	0.810752	0.135713
	O240	O	0.075373	0.195290	0.135678
	O241	O	0.052319	0.195157	0.135668
	O242	O	0.075381	0.195062	0.237642
	O243	O	0.075333	0.310799	0.237592
	O244	O	0.052333	0.194789	0.237600
	O245	O	0.052322	0.310516	0.237626
	O246	O	0.052327	0.310967	0.135664
	O247	O	0.075371	0.311046	0.135680
	H248	H	0.025575	0.644074	0.210830
	H249	H	0.025519	0.861102	0.210903
	H250	H	0.025568	0.144530	0.210744
	H251	H	0.025532	0.361046	0.210833
	H252	H	0.025478	0.861214	0.162465
	H253	H	0.025478	0.644438	0.162427
	H254	H	0.025479	0.360954	0.162360
	H255	H	0.025521	0.145320	0.162430
	H256	H	0.128830	0.064587	0.186096
	H257	H	0.127573	0.063903	0.184441
	H258	H	0.127583	0.941919	0.184368
	H259	H	0.128852	0.941488	0.186047
	H260	H	0.127765	0.064501	0.188715
	H261	H	0.127761	0.941170	0.188680
	H262	H	0.002568	0.064853	0.186888
	H263	H	0.002610	0.941316	0.186964
	H264	H	0.002427	0.064770	0.185898
	H265	H	0.002369	0.941254	0.185899
	H266	H	0.001074	0.064418	0.185427
	H267	H	0.001065	0.941671	0.185456
	H268	H	0.000618	0.441084	0.186723
	H269	H	0.001004	0.440891	0.187284
	H270	H	0.000896	0.441229	0.185978
	H271	H	0.126484	0.441102	0.184302
	H272	H	0.128639	0.441482	0.185909
	H273	H	0.128385	0.441680	0.187818
	H274	H	0.000970	0.564305	0.187298
	H275	H	0.000611	0.564175	0.186806
	H276	H	0.128409	0.564710	0.187810
	H277	H	0.128595	0.564388	0.185838
	H278	H	0.126485	0.565052	0.184300
	H279	H	0.000902	0.564146	0.186024
	H280	H	0.102252	0.644032	0.210816
	H281	H	0.102233	0.862012	0.210682
	H282	H	0.102192	0.144352	0.210854
	H283	H	0.102188	0.361369	0.210834
	H284	H	0.039629	0.644261	0.148233
	H285	H	0.088130	0.644034	0.148320
	H286	H	0.088052	0.861330	0.148354
	H287	H	0.039630	0.861389	0.148307
	H288	H	0.102294	0.644085	0.162390
	H289	H	0.102240	0.861151	0.162446
	H290	H	0.088096	0.644031	0.224979
	H291	H	0.088092	0.862232	0.224836
	H292	H	0.063783	0.440790	0.124507
	H293	H	0.062837	0.441637	0.248907
	H294	H	0.063473	0.441226	0.124236
	H295	H	0.063539	0.441599	0.123951
	H296	H	0.064183	0.441556	0.250072
	H297	H	0.063384	0.441565	0.249967
	H298	H	0.062879	0.565036	0.248855
	H299	H	0.063783	0.564042	0.124503
	H300	H	0.063331	0.564981	0.249958
	H301	H	0.064197	0.564581	0.250009
	H302	H	0.063523	0.564205	0.123907
	H303	H	0.063459	0.564500	0.124233
	H304	H	0.088035	0.144323	0.224955
	H305	H	0.088039	0.361364	0.224953
	H306	H	0.063927	0.064406	0.121692
	H307	H	0.061971	0.064876	0.122522
	H308	H	0.066201	0.064229	0.123429
	H309	H	0.039675	0.860836	0.225022
	H310	H	0.039732	0.644200	0.224955
	H311	H	0.039671	0.360727	0.224986
	H312	H	0.039704	0.144427	0.224899
	H313	H	0.039683	0.145308	0.148279
	H314	H	0.088084	0.145388	0.148260
	H315	H	0.088184	0.361346	0.148267
	H316	H	0.039614	0.361114	0.148202
	H317	H	0.102242	0.144871	0.162364
	H318	H	0.102355	0.361239	0.162378
	H319	H	0.065030	0.064695	0.248942
	H320	H	0.064465	0.064329	0.248135
	H321	H	0.063131	0.064901	0.248279
	H322	H	0.061924	0.941841	0.122470
	H323	H	0.063870	0.941672	0.121615
	H324	H	0.066286	0.941293	0.123376
	H325	H	0.065040	0.941521	0.248867
	H326	H	0.064432	0.941750	0.248136
	H327	H	0.063097	0.941813	0.248283
	Zn328	Zn	0.001328	0.680215	0.186643
	Zn329	Zn	0.001423	0.825694	0.186666
	Zn330	Zn	0.001372	0.180285	0.186604
	Zn331	Zn	0.001407	0.325705	0.186619
	Zn332	Zn	0.063912	0.680104	0.249108
	Zn333	Zn	0.063946	0.825794	0.249101
	Zn334	Zn	0.063885	0.180265	0.249180
	Zn335	Zn	0.063864	0.325786	0.249124
	C336	C	0.111619	0.752473	0.171790
	C337	C	0.016195	0.752622	0.201468
	C338	C	0.024710	0.752586	0.209973
	C339	C	0.028727	0.691266	0.213967
	C340	C	0.028697	0.813904	0.213999
	C341	C	0.016234	0.252956	0.201365
	C342	C	0.024719	0.252808	0.209905
	C343	C	0.028675	0.191500	0.213934
	C344	C	0.028654	0.313961	0.213989
	C345	C	0.016180	0.752923	0.171853
	C346	C	0.024730	0.752756	0.163354
	C347	C	0.028685	0.814133	0.159346
	C348	C	0.028690	0.691419	0.159309
	C349	C	0.016207	0.253206	0.171853
	C350	C	0.024740	0.253099	0.163357
	C351	C	0.028693	0.314088	0.159283
	C352	C	0.028716	0.192174	0.159325
	C353	C	0.127725	0.043039	0.185583
	C354	C	0.127732	0.962598	0.185570
	C355	C	0.002223	0.043536	0.186451
	C356	C	0.002213	0.962545	0.186453
	C357	C	0.000856	0.043130	0.185997
	C358	C	0.000876	0.962617	0.186027
	C359	C	0.000949	0.462379	0.186917
	C360	C	0.125803	0.462258	0.185186
	C361	C	0.127968	0.462766	0.186784
	C362	C	0.000928	0.543168	0.186940
	C363	C	0.127962	0.543182	0.186775
	C364	C	0.125807	0.543469	0.185178
	C365	C	0.111598	0.753106	0.201397
	C366	C	0.111561	0.252932	0.201468
	C367	C	0.103093	0.753001	0.209926
	C368	C	0.099105	0.691394	0.213967
	C369	C	0.099104	0.814695	0.213882
	C370	C	0.103040	0.252876	0.209975
	C371	C	0.099055	0.191567	0.213991
	C372	C	0.099057	0.314157	0.213990
	C373	C	0.111617	0.252999	0.171813
	C374	C	0.078621	0.752792	0.139034
	C375	C	0.049035	0.752856	0.138931
	C376	C	0.049123	0.752766	0.234300
	C377	C	0.099137	0.691176	0.159261
	C378	C	0.099094	0.813994	0.159288
	C379	C	0.087190	0.752701	0.147491
	C380	C	0.040558	0.752779	0.147480
	C381	C	0.036536	0.691376	0.151444
	C382	C	0.091247	0.691276	0.151451
	C383	C	0.091212	0.814034	0.151463
	C384	C	0.036530	0.814142	0.151483
	C385	C	0.103096	0.752570	0.163291
	C386	C	0.078759	0.753062	0.234319
	C387	C	0.091262	0.691446	0.221831
	C388	C	0.091263	0.814762	0.221743
	C389	C	0.087271	0.753172	0.225808
	C390	C	0.063311	0.462718	0.248695
	C391	C	0.063554	0.462585	0.124113
	C392	C	0.063805	0.462610	0.249779
	C393	C	0.063324	0.543598	0.248668
	C394	C	0.063789	0.543406	0.249777
	C395	C	0.063576	0.543112	0.124105
	C396	C	0.078652	0.252939	0.234321
	C397	C	0.091187	0.191525	0.221829
	C398	C	0.091180	0.314193	0.221818
	C399	C	0.087181	0.252875	0.225815
	C400	C	0.063170	0.043363	0.122653
	C401	C	0.078678	0.253177	0.138946
	C402	C	0.049050	0.253079	0.138942
	C403	C	0.049068	0.252668	0.234299
	C404	C	0.099037	0.192045	0.159322
	C405	C	0.099097	0.314341	0.159323
	C406	C	0.087161	0.253291	0.147502
	C407	C	0.040563	0.253156	0.147475
	C408	C	0.040605	0.752622	0.225787
	C409	C	0.036568	0.813873	0.221833
	C410	C	0.036595	0.691313	0.221800
	C411	C	0.040535	0.252643	0.225806
	C412	C	0.036495	0.313825	0.221851
	C413	C	0.036520	0.191440	0.221793
	C414	C	0.036572	0.192088	0.151479
	C415	C	0.091171	0.192184	0.151482
	C416	C	0.091233	0.314374	0.151479
	C417	C	0.036541	0.314251	0.151431
	C418	C	0.103034	0.253136	0.163354
	C419	C	0.064516	0.043323	0.248689
	C420	C	0.065508	0.043240	0.124388
	C421	C	0.063156	0.962750	0.122618
	C422	C	0.064519	0.962771	0.248674
	C423	C	0.065526	0.962513	0.124362
	N424	N	0.001408	0.070070	0.186604
	N425	N	0.001429	0.935637	0.186605
	N426	N	0.001366	0.435792	0.186614
	N427	N	0.001329	0.570237	0.186630
	N428	N	0.063845	0.435832	0.249082
	N429	N	0.063863	0.570243	0.249078
	N430	N	0.063884	0.070239	0.249120
	N431	N	0.063898	0.935825	0.249113
	O432	O	0.114843	0.694872	0.300137
	O433	O	0.114996	0.810817	0.300053
	O434	O	0.012964	0.695607	0.323122
	O435	O	0.012984	0.811361	0.323146
	O436	O	0.012946	0.195600	0.323143
	O437	O	0.013005	0.311666	0.323115
	O438	O	0.012881	0.694949	0.300107
	O439	O	0.012990	0.810780	0.300090
	O440	O	0.012955	0.194997	0.300122
	O441	O	0.012986	0.310918	0.300099
	O442	O	0.114881	0.694896	0.323056
	O443	O	0.114933	0.810983	0.323103
	O444	O	0.114877	0.194339	0.323108
	O445	O	0.114926	0.310453	0.323120
	O446	O	0.114875	0.195052	0.300063
	O447	O	0.114958	0.311090	0.300030
	O448	O	0.075438	0.694908	0.260670
	O449	O	0.052360	0.694930	0.260634
	O450	O	0.075559	0.695107	0.362668
	O451	O	0.075472	0.810946	0.362547
	O452	O	0.052390	0.695367	0.362638
	O453	O	0.052540	0.811235	0.362518
	O454	O	0.052346	0.810780	0.260589
	O455	O	0.075432	0.810782	0.260620
	O456	O	0.075367	0.195554	0.260681
	O457	O	0.052324	0.194669	0.260628
	O458	O	0.075516	0.195000	0.362600
	O459	O	0.075484	0.310852	0.362560
	O460	O	0.052400	0.195507	0.362577
	O461	O	0.052413	0.311339	0.362602
	O462	O	0.052312	0.310554	0.260598
	O463	O	0.075413	0.311327	0.260682
	H464	H	0.025660	0.645244	0.335792
	H465	H	0.025612	0.861769	0.335843
	H466	H	0.025647	0.145315	0.335737
	H467	H	0.025714	0.361953	0.335710
	H468	H	0.025682	0.860792	0.287509
	H469	H	0.025492	0.644850	0.287371
	H470	H	0.025647	0.360851	0.287513
	H471	H	0.025624	0.144454	0.287476
	H472	H	0.125997	0.064615	0.311112
	H473	H	0.125784	0.064341	0.311606
	H474	H	0.125864	0.941395	0.311592
	H475	H	0.126055	0.941348	0.311104
	H476	H	0.126707	0.064754	0.311026
	H477	H	0.126738	0.941514	0.310965
	H478	H	0.003589	0.064256	0.312283
	H479	H	0.003585	0.941591	0.312240
	H480	H	0.003336	0.064363	0.310448
	H481	H	0.003300	0.941593	0.310469
	H482	H	0.000998	0.064674	0.309560
	H483	H	0.000999	0.941353	0.309594
	H484	H	0.002274	0.441310	0.311135
	H485	H	0.001573	0.441092	0.310714
	H486	H	0.002203	0.441878	0.312218
	H487	H	0.126842	0.441555	0.312335
	H488	H	0.125851	0.441086	0.312293
	H489	H	0.125528	0.441156	0.311594
	H490	H	0.001597	0.564384	0.310751
	H491	H	0.002235	0.564634	0.311169
	H492	H	0.125556	0.564655	0.311598
	H493	H	0.125836	0.564583	0.312203
	H494	H	0.126808	0.564887	0.312319
	H495	H	0.002218	0.564804	0.312176
	H496	H	0.102216	0.644797	0.335673
	H497	H	0.102275	0.861179	0.335751
	H498	H	0.102204	0.144142	0.335756
	H499	H	0.102234	0.361047	0.335705
	H500	H	0.039603	0.644609	0.273197
	H501	H	0.088138	0.644472	0.273279
	H502	H	0.088116	0.861208	0.273306
	H503	H	0.039750	0.861199	0.273325
	H504	H	0.102284	0.644681	0.287442
	H505	H	0.102301	0.861133	0.287448
	H506	H	0.088145	0.644610	0.349907
	H507	H	0.088184	0.861062	0.349969
	H508	H	0.063339	0.441272	0.248198
	H509	H	0.062229	0.441028	0.375476
	H510	H	0.064592	0.441324	0.248327
	H511	H	0.064891	0.441147	0.249081
	H512	H	0.066017	0.441770	0.374944
	H513	H	0.064654	0.441599	0.376241
	H514	H	0.062183	0.564321	0.375525
	H515	H	0.063425	0.564530	0.248188
	H516	H	0.064663	0.564709	0.376239
	H517	H	0.066045	0.564444	0.374921
	H518	H	0.064894	0.564052	0.249139
	H519	H	0.064583	0.564089	0.248310
	H520	H	0.088107	0.144286	0.349962
	H521	H	0.088148	0.361266	0.349897
	H522	H	0.063508	0.064465	0.250247
	H523	H	0.064462	0.064667	0.250161
	H524	H	0.062747	0.064786	0.249178
	H525	H	0.039723	0.861573	0.349995
	H526	H	0.039801	0.645475	0.349964
	H527	H	0.039868	0.361978	0.349899
	H528	H	0.039773	0.145133	0.349900
	H529	H	0.039747	0.144717	0.273299
	H530	H	0.088138	0.145599	0.273236
	H531	H	0.088066	0.361124	0.273330
	H532	H	0.039735	0.360818	0.273309
	H533	H	0.102359	0.145440	0.287303
	H534	H	0.102309	0.360902	0.287412
	H535	H	0.065408	0.064834	0.371432
	H536	H	0.062817	0.064853	0.371293
	H537	H	0.060871	0.064139	0.374243
	H538	H	0.064515	0.941294	0.250120
	H539	H	0.063527	0.941283	0.250278
	H540	H	0.062758	0.941499	0.249183
	H541	H	0.065463	0.941190	0.371451
	H542	H	0.062909	0.941348	0.371264
	H543	H	0.060939	0.941152	0.374241
	Zn544	Zn	0.001412	0.680062	0.311635
	Zn545	Zn	0.001459	0.825709	0.311597
	Zn546	Zn	0.001418	0.180091	0.311679
	Zn547	Zn	0.001438	0.325851	0.311635
	Zn548	Zn	0.063966	0.680181	0.374077
	Zn549	Zn	0.064041	0.825633	0.374098
	Zn550	Zn	0.063949	0.180138	0.374092
	Zn551	Zn	0.063988	0.325722	0.374109
	C552	C	0.111643	0.752933	0.296814
	C553	C	0.016259	0.753415	0.326427
	C554	C	0.024758	0.753392	0.334962
	C555	C	0.028775	0.692315	0.338958
	C556	C	0.028744	0.814639	0.338981
	C557	C	0.016257	0.253625	0.326414
	C558	C	0.024762	0.253716	0.334953
	C559	C	0.028777	0.192361	0.338922
	C560	C	0.028820	0.314887	0.338914
	C561	C	0.016221	0.752801	0.296807
	C562	C	0.024749	0.752839	0.288309
	C563	C	0.028787	0.813995	0.284332
	C564	C	0.028693	0.691714	0.284265
	C565	C	0.016244	0.252913	0.296812
	C566	C	0.024754	0.252695	0.288294
	C567	C	0.028762	0.313864	0.284317
	C568	C	0.028756	0.191529	0.284306
	C569	C	0.126056	0.043374	0.311409
	C570	C	0.126079	0.962684	0.311401
	C571	C	0.002938	0.043259	0.311457
	C572	C	0.002919	0.962785	0.311438
	C573	C	0.000585	0.043204	0.310545
	C574	C	0.000611	0.962505	0.310550
	C575	C	0.001809	0.462479	0.311116
	C576	C	0.126867	0.462670	0.311937
	C577	C	0.125884	0.462517	0.311830
	C578	C	0.001792	0.543433	0.311116
	C579	C	0.125878	0.543465	0.311804
	C580	C	0.126864	0.543314	0.311907
	C581	C	0.111620	0.752981	0.326345
	C582	C	0.111627	0.252416	0.326410
	C583	C	0.103106	0.753036	0.334879
	C584	C	0.099107	0.691748	0.338872
	C585	C	0.099131	0.814120	0.338918
	C586	C	0.103091	0.252523	0.334911
	C587	C	0.099077	0.191295	0.338908
	C588	C	0.099091	0.313898	0.338870
	C589	C	0.111652	0.253098	0.296750
	C590	C	0.078724	0.752879	0.263938
	C591	C	0.049078	0.752919	0.263894
	C592	C	0.049170	0.753349	0.359298
	C593	C	0.099123	0.691605	0.284307
	C594	C	0.099120	0.814099	0.284303
	C595	C	0.087243	0.752821	0.272458
	C596	C	0.040575	0.752951	0.272433
	C597	C	0.036535	0.691655	0.276406
	C598	C	0.091271	0.691565	0.276445
	C599	C	0.091257	0.814091	0.276460
	C600	C	0.036621	0.814177	0.276468
	C601	C	0.103119	0.752909	0.288306
	C602	C	0.078777	0.752966	0.359285
	C603	C	0.091290	0.691654	0.346754
	C604	C	0.091305	0.814082	0.346797
	C605	C	0.087277	0.752870	0.350766
	C606	C	0.062494	0.462306	0.374461
	C607	C	0.064506	0.462558	0.248814
	C608	C	0.064959	0.462902	0.375205
	C609	C	0.062497	0.543142	0.374478
	C610	C	0.064987	0.543448	0.375201
	C611	C	0.064504	0.543135	0.248824
	C612	C	0.078776	0.252915	0.359298
	C613	C	0.091255	0.191384	0.346785
	C614	C	0.091276	0.314073	0.346754
	C615	C	0.087269	0.252760	0.350781
	C616	C	0.063960	0.043394	0.249899
	C617	C	0.078696	0.253385	0.263943
	C618	C	0.049044	0.252675	0.263898
	C619	C	0.049118	0.253451	0.359323
	C620	C	0.099133	0.192188	0.284234
	C621	C	0.099117	0.314206	0.284288
	C622	C	0.087240	0.253288	0.272435
	C623	C	0.040564	0.252761	0.272423
	C624	C	0.040634	0.753465	0.350814
	C625	C	0.036603	0.814652	0.346832
	C626	C	0.036638	0.692345	0.346806
	C627	C	0.040599	0.253596	0.350822
	C628	C	0.036663	0.314857	0.346781
	C629	C	0.036616	0.192316	0.346789
	C630	C	0.036597	0.191574	0.276444
	C631	C	0.091275	0.192202	0.276385
	C632	C	0.091248	0.314352	0.276450
	C633	C	0.036597	0.313891	0.276458
	C634	C	0.103134	0.253111	0.288236
	C635	C	0.064077	0.043521	0.372091
	C636	C	0.063184	0.043555	0.248843
	C637	C	0.063987	0.962585	0.249888
	C638	C	0.064122	0.962498	0.372093
	C639	C	0.063198	0.962721	0.248834
	N640	N	0.001509	0.070168	0.311690
	N641	N	0.001521	0.935754	0.311649
	N642	N	0.001481	0.435769	0.311617
	N643	N	0.001454	0.570142	0.311621
	N644	N	0.063945	0.435727	0.374146
	N645	N	0.063937	0.570162	0.374127
	N646	N	0.063931	0.070164	0.374122
	N647	N	0.063982	0.935776	0.374125
	O648	O	0.114823	0.694277	0.425208
	O649	O	0.114893	0.810229	0.425075
	O650	O	0.013001	0.695346	0.448062
	O651	O	0.012955	0.811302	0.448176
	O652	O	0.013041	0.195195	0.448008
	O653	O	0.012982	0.311196	0.448102
	O654	O	0.013013	0.695341	0.425049
	O655	O	0.012947	0.810976	0.425018
	O656	O	0.013015	0.195022	0.425091
	O657	O	0.012966	0.310802	0.425000
	O658	O	0.114875	0.694483	0.448131
	O659	O	0.114897	0.810395	0.448229
	O660	O	0.114922	0.194825	0.448157
	O661	O	0.114838	0.310608	0.448131
	O662	O	0.114914	0.194370	0.425101
	O663	O	0.114893	0.310127	0.425080
	O664	O	0.075534	0.694237	0.385546
	O665	O	0.052397	0.695311	0.385559
	O666	O	0.075451	0.694667	0.487661
	O667	O	0.075453	0.810340	0.487663
	O668	O	0.052381	0.695075	0.487702
	O669	O	0.052440	0.811110	0.487608
	O670	O	0.052543	0.811216	0.385704
	O671	O	0.075478	0.810071	0.385638
	O672	O	0.075498	0.194515	0.385568
	O673	O	0.052460	0.194613	0.385619
	O674	O	0.075385	0.194859	0.487587
	O675	O	0.075478	0.310729	0.487705
	O676	O	0.052344	0.195182	0.487641
	O677	O	0.052290	0.310915	0.487686
	O678	O	0.052556	0.310612	0.385668
	O679	O	0.075508	0.310421	0.385615
	H680	H	0.025653	0.644715	0.460775
	H681	H	0.025704	0.861515	0.460770
	H682	H	0.025540	0.144919	0.460789
	H683	H	0.025626	0.361034	0.460766
	H684	H	0.025576	0.861682	0.412326
	H685	H	0.025683	0.645189	0.412413
	H686	H	0.025700	0.360920	0.412458
	H687	H	0.025711	0.144498	0.412503
	H688	H	0.127708	0.064311	0.436141
	H689	H	0.126857	0.064569	0.435239
	H690	H	0.126884	0.941317	0.435263
	H691	H	0.127699	0.941383	0.436206
	H692	H	0.127229	0.064655	0.437750
	H693	H	0.127184	0.940867	0.437787
	H694	H	0.002893	0.064319	0.437713
	H695	H	0.002928	0.941674	0.437676
	H696	H	0.003290	0.064779	0.436250
	H697	H	0.003261	0.941645	0.436208
	H698	H	0.001759	0.064706	0.434731
	H699	H	0.001737	0.941351	0.434744
	H700	H	0.000182	0.441233	0.436524
	H701	H	0.000644	0.441224	0.437591
	H702	H	0.001114	0.441827	0.435327
	H703	H	0.125964	0.441478	0.436862
	H704	H	0.125958	0.441085	0.436331
	H705	H	0.126268	0.441218	0.436090
	H706	H	0.000630	0.564683	0.437564
	H707	H	0.000143	0.564550	0.436516
	H708	H	0.126362	0.564606	0.436109
	H709	H	0.126015	0.564620	0.436335
	H710	H	0.126033	0.564591	0.436909
	H711	H	0.001045	0.564678	0.435235
	H712	H	0.102206	0.644239	0.460795
	H713	H	0.102231	0.860681	0.460833
	H714	H	0.102232	0.144294	0.460799
	H715	H	0.102232	0.360856	0.460830
	H716	H	0.039824	0.645350	0.398262
	H717	H	0.088047	0.643802	0.398362
	H718	H	0.088116	0.859986	0.398335
	H719	H	0.039742	0.861532	0.398225
	H720	H	0.102170	0.643972	0.412561
	H721	H	0.102220	0.859885	0.412500
	H722	H	0.088076	0.644159	0.474989
	H723	H	0.088098	0.860840	0.474979
	H724	H	0.061752	0.440849	0.373642
	H725	H	0.064501	0.441127	0.497955
	H726	H	0.063613	0.441314	0.371947
	H727	H	0.065428	0.441374	0.372509
	H728	H	0.062593	0.440923	0.499242
	H729	H	0.062986	0.440998	0.498210
	H730	H	0.064516	0.564658	0.497961
	H731	H	0.061772	0.564081	0.373676
	H732	H	0.063022	0.564324	0.498245
	H733	H	0.062648	0.564168	0.499242
	H734	H	0.065440	0.564569	0.372407
	H735	H	0.063589	0.564617	0.371926
	H736	H	0.088106	0.144273	0.474988
	H737	H	0.088103	0.360991	0.474994
	H738	H	0.065565	0.064632	0.376775
	H739	H	0.066975	0.064208	0.374583
	H740	H	0.062033	0.064283	0.376521
	H741	H	0.039826	0.861368	0.474928
	H742	H	0.039773	0.644612	0.474978
	H743	H	0.039686	0.361118	0.474953
	H744	H	0.039657	0.144787	0.475010
	H745	H	0.039858	0.144593	0.398335
	H746	H	0.088107	0.143816	0.398271
	H747	H	0.088198	0.360609	0.398258
	H748	H	0.039864	0.360896	0.398324
	H749	H	0.102254	0.143739	0.412440
	H750	H	0.102325	0.360419	0.412373
	H751	H	0.064527	0.064277	0.499692
	H752	H	0.064691	0.064048	0.499085
	H753	H	0.064096	0.064416	0.498392
	H754	H	0.067010	0.941447	0.374575
	H755	H	0.065608	0.941411	0.376745
	H756	H	0.062080	0.941126	0.376508
	H757	H	0.064509	0.941266	0.499684
	H758	H	0.064728	0.941277	0.499090
	H759	H	0.064101	0.941475	0.498410
	Zn760	Zn	0.001480	0.680098	0.436506
	Zn761	Zn	0.001464	0.825733	0.436562
	Zn762	Zn	0.001472	0.179946	0.436549
	Zn763	Zn	0.001483	0.325800	0.436575
	Zn764	Zn	0.063958	0.680219	0.499195
	Zn765	Zn	0.063948	0.825625	0.499186
	Zn766	Zn	0.063900	0.180171	0.499178
	Zn767	Zn	0.063894	0.325647	0.499153
	C768	C	0.111611	0.752133	0.421830
	C769	C	0.016274	0.753251	0.451407
	C770	C	0.024804	0.753122	0.459938
	C771	C	0.028803	0.691773	0.463944
	C772	C	0.028829	0.814394	0.463933
	C773	C	0.016266	0.253165	0.451371
	C774	C	0.024765	0.252949	0.459899
	C775	C	0.028727	0.191781	0.463927
	C776	C	0.028763	0.314061	0.463903
	C777	C	0.016280	0.753249	0.421753
	C778	C	0.024786	0.753369	0.413234
	C779	C	0.028744	0.814610	0.409213
	C780	C	0.028805	0.692214	0.409244
	C781	C	0.016282	0.252817	0.421771
	C782	C	0.024798	0.252631	0.413244
	C783	C	0.028821	0.313883	0.409275
	C784	C	0.028830	0.191456	0.409289
	C785	C	0.127054	0.043180	0.435936
	C786	C	0.127043	0.962582	0.435961
	C787	C	0.002677	0.043272	0.436858
	C788	C	0.002668	0.962723	0.436856
	C789	C	0.001132	0.043241	0.435354
	C790	C	0.001120	0.962544	0.435374
	C791	C	0.000706	0.462484	0.436918
	C792	C	0.126193	0.462705	0.436862
	C793	C	0.126210	0.462454	0.436308
	C794	C	0.000696	0.543435	0.436900
	C795	C	0.126244	0.543345	0.436313
	C796	C	0.126235	0.543144	0.436881
	C797	C	0.111617	0.752353	0.451481
	C798	C	0.111614	0.252637	0.451457
	C799	C	0.103100	0.752370	0.460010
	C800	C	0.099072	0.691154	0.463975
	C801	C	0.099097	0.813694	0.463998
	C802	C	0.103102	0.252560	0.459996
	C803	C	0.099095	0.191273	0.463978
	C804	C	0.099091	0.313836	0.463993
	C805	C	0.111593	0.252179	0.421822
	C806	C	0.078808	0.752078	0.388861
	C807	C	0.049183	0.753283	0.388912
	C808	C	0.049152	0.753089	0.484341
	C809	C	0.099079	0.690623	0.409327
	C810	C	0.099119	0.812964	0.409296
	C811	C	0.087329	0.751773	0.397369
	C812	C	0.040656	0.753384	0.397397
	C813	C	0.036661	0.692288	0.401400
	C814	C	0.091245	0.690714	0.401452
	C815	C	0.091285	0.812904	0.401427
	C816	C	0.036613	0.814552	0.401381
	C817	C	0.103134	0.751787	0.413269
	C818	C	0.078746	0.752479	0.484389
	C819	C	0.091225	0.691202	0.471834
	C820	C	0.091244	0.813735	0.471846
	C821	C	0.087262	0.752481	0.475876
	C822	C	0.064607	0.462665	0.498593
	C823	C	0.064373	0.462507	0.372707
	C824	C	0.063104	0.462361	0.498857
	C825	C	0.064609	0.543377	0.498601
	C826	C	0.063127	0.543087	0.498864
	C827	C	0.064356	0.543282	0.372693
	C828	C	0.078727	0.252781	0.484377
	C829	C	0.091253	0.191375	0.471844
	C830	C	0.091252	0.313857	0.471860
	C831	C	0.087262	0.252647	0.475877
	C832	C	0.065665	0.043141	0.375258
	C833	C	0.078762	0.252371	0.388905
	C834	C	0.049208	0.252696	0.388910
	C835	C	0.049027	0.253046	0.484373
	C836	C	0.099086	0.190824	0.409298
	C837	C	0.099132	0.313344	0.409269
	C838	C	0.087237	0.252173	0.397441
	C839	C	0.040661	0.252760	0.397392
	C840	C	0.040681	0.753042	0.475797
	C841	C	0.036680	0.814322	0.471784
	C842	C	0.036654	0.691782	0.471804
	C843	C	0.040566	0.252969	0.475815
	C844	C	0.036576	0.314054	0.471792
	C845	C	0.036546	0.191791	0.471821
	C846	C	0.036688	0.191591	0.401437
	C847	C	0.091240	0.190921	0.401439
	C848	C	0.091284	0.313405	0.401419
	C849	C	0.036687	0.313914	0.401435
	C850	C	0.103075	0.252021	0.413321
	C851	C	0.064427	0.043086	0.499310
	C852	C	0.062135	0.043112	0.375059
	C853	C	0.065691	0.962619	0.375259
	C854	C	0.064442	0.962487	0.499323
	C855	C	0.062158	0.962495	0.375059
	N856	N	0.001450	0.070072	0.436565
	N857	N	0.001450	0.935701	0.436576
	N858	N	0.001507	0.435747	0.436548
	N859	N	0.001500	0.570141	0.436532
	N860	N	0.063928	0.435643	0.499133
	N861	N	0.063958	0.570073	0.499155
	N862	N	0.063941	0.070083	0.499170
	N863	N	0.063944	0.935631	0.499176
	O864	O	0.114818	0.694872	0.550252
	O865	O	0.114787	0.810649	0.550324
	O866	O	0.012856	0.694683	0.573113
	O867	O	0.012930	0.810653	0.573015
	O868	O	0.012843	0.194524	0.573056
	O869	O	0.012814	0.310481	0.573093
	O870	O	0.012754	0.694937	0.549977
	O871	O	0.012865	0.811025	0.550057
	O872	O	0.012783	0.195027	0.550028
	O873	O	0.012850	0.310875	0.550056
	O874	O	0.114845	0.694624	0.573352
	O875	O	0.114817	0.810467	0.573241
	O876	O	0.114829	0.195146	0.573257
	O877	O	0.114804	0.310969	0.573176
	O878	O	0.114804	0.195087	0.550194
	O879	O	0.114796	0.310830	0.550235
	O880	O	0.075504	0.694919	0.510718
	O881	O	0.052419	0.694822	0.510699
	O882	O	0.075175	0.694720	0.612520
	O883	O	0.075215	0.810718	0.612605
	O884	O	0.052214	0.694717	0.612650
	O885	O	0.052204	0.810747	0.612622
	O886	O	0.052421	0.810843	0.510692
	O887	O	0.075529	0.810689	0.510633
	O888	O	0.075416	0.194604	0.510697
	O889	O	0.052419	0.194808	0.510730
	O890	O	0.075292	0.195413	0.612588
	O891	O	0.075271	0.311374	0.612647
	O892	O	0.052234	0.194636	0.612627
	O893	O	0.052166	0.310505	0.612615
	O894	O	0.052373	0.310860	0.510670
	O895	O	0.075456	0.310691	0.510677
	H896	H	0.025507	0.644319	0.585770
	H897	H	0.025514	0.861030	0.585718
	H898	H	0.025500	0.144201	0.585681
	H899	H	0.025468	0.360692	0.585734
	H900	H	0.025463	0.861197	0.537365
	H901	H	0.025523	0.644376	0.537412
	H902	H	0.025468	0.360836	0.537373
	H903	H	0.025439	0.144928	0.537371
	H904	H	0.124327	0.064562	0.561449
	H905	H	0.124807	0.064608	0.563042
	H906	H	0.124887	0.941117	0.563015
	H907	H	0.124407	0.941351	0.561454
	H908	H	0.125838	0.063933	0.559752
	H909	H	0.125917	0.941451	0.559793
	H910	H	0.001372	0.064280	0.561860
	H911	H	0.001369	0.940769	0.561837
	H912	H	0.001615	0.064116	0.561662
	H913	H	0.001623	0.941352	0.561687
	H914	H	0.001599	0.064011	0.561257
	H915	H	0.001587	0.941138	0.561234
	H916	H	0.001003	0.440669	0.558384
	H917	H	-0.001307	0.441248	0.559779
	H918	H	0.004218	0.440906	0.560132
	H919	H	0.126795	0.441356	0.562115
	H920	H	0.126099	0.441341	0.562269
	H921	H	0.125722	0.441285	0.561805
	H922	H	-0.001302	0.564579	0.559768
	H923	H	0.000995	0.564311	0.558401
	H924	H	0.125681	0.564249	0.561910
	H925	H	0.126058	0.564625	0.562247
	H926	H	0.126773	0.564668	0.562141
	H927	H	0.004210	0.564082	0.560171
	H928	H	0.102167	0.644506	0.585960
	H929	H	0.102127	0.861045	0.585896
	H930	H	0.102071	0.145066	0.585807
	H931	H	0.102132	0.361559	0.585863
	H932	H	0.039754	0.644475	0.523325
	H933	H	0.088145	0.645143	0.523321
	H934	H	0.088086	0.860257	0.523388
	H935	H	0.039666	0.861096	0.523261
	H936	H	0.102267	0.645033	0.537504
	H937	H	0.102223	0.860507	0.537554
	H938	H	0.087917	0.644489	0.599964
	H939	H	0.087864	0.861125	0.599957
	H940	H	0.065243	0.441464	0.498804
	H941	H	0.063311	0.440963	0.622279
	H942	H	0.064688	0.441438	0.500240
	H943	H	0.063597	0.441534	0.500402
	H944	H	0.062231	0.441006	0.625522
	H945	H	0.061772	0.441358	0.623881
	H946	H	0.063389	0.564115	0.622205
	H947	H	0.065185	0.564798	0.498774
	H948	H	0.061795	0.563731	0.623866
	H949	H	0.062286	0.564232	0.625459
	H950	H	0.063638	0.564398	0.500401
	H951	H	0.064721	0.564614	0.500237
	H952	H	0.087880	0.145090	0.599878
	H953	H	0.087932	0.361871	0.599940
	H954	H	0.063204	0.064644	0.499405
	H955	H	0.063664	0.064339	0.499813
	H956	H	0.063519	0.064410	0.498543
	H957	H	0.039583	0.861551	0.599913
	H958	H	0.039583	0.644233	0.599977
	H959	H	0.039571	0.360705	0.599954
	H960	H	0.039609	0.144213	0.599896
	H961	H	0.039644	0.144721	0.523275
	H962	H	0.088102	0.144619	0.523305
	H963	H	0.088052	0.361244	0.523386
	H964	H	0.039650	0.360902	0.523257
	H965	H	0.102240	0.144633	0.537425
	H966	H	0.102189	0.361276	0.537512
	H967	H	0.065141	0.064082	0.622924
	H968	H	0.063669	0.064032	0.622373
	H969	H	0.062064	0.063981	0.623624
	H970	H	0.063621	0.940929	0.499885
	H971	H	0.063216	0.940994	0.499397
	H972	H	0.063467	0.941238	0.498574
	H973	H	0.065130	0.940668	0.622942
	H974	H	0.063740	0.940914	0.622332
	H975	H	0.062087	0.941045	0.623562
	Zn976	Zn	0.001357	0.679959	0.561571
	Zn977	Zn	0.001352	0.825643	0.561560
	Zn978	Zn	0.001317	0.179842	0.561555
	Zn979	Zn	0.001331	0.325715	0.561575
	Zn980	Zn	0.063745	0.679695	0.624128
	Zn981	Zn	0.063714	0.825658	0.624134
	Zn982	Zn	0.063751	0.179726	0.624102
	Zn983	Zn	0.063671	0.325598	0.624138
	C984	C	0.111536	0.752795	0.546982
	C985	C	0.016166	0.752686	0.576360
	C986	C	0.024652	0.752599	0.584896
	C987	C	0.028632	0.691417	0.588939
	C988	C	0.028626	0.814016	0.588900
	C989	C	0.016077	0.252465	0.576379
	C990	C	0.024590	0.252394	0.584922
	C991	C	0.028611	0.191176	0.588889
	C992	C	0.028594	0.313684	0.588904
	C993	C	0.016088	0.752898	0.546731
	C994	C	0.024606	0.752751	0.538212
	C995	C	0.028615	0.814064	0.534219
	C996	C	0.028654	0.691455	0.534242
	C997	C	0.016113	0.252939	0.546761
	C998	C	0.024671	0.252924	0.538273
	C999	C	0.028660	0.313968	0.534253
	C1000	C	0.028642	0.191812	0.534257
	C1001	C	0.125046	0.043385	0.562115
	C1002	C	0.125095	0.962514	0.562095
	C1003	C	0.001453	0.043140	0.561701
	C1004	C	0.001448	0.962351	0.561700
	C1005	C	0.001408	0.042937	0.561281
	C1006	C	0.001416	0.962199	0.561284
	C1007	C	0.000251	0.462252	0.559737
	C1008	C	0.126745	0.462642	0.561806
	C1009	C	0.126011	0.462510	0.561956
	C1010	C	0.000259	0.543291	0.559739
	C1011	C	0.125991	0.543197	0.561985
	C1012	C	0.126732	0.543309	0.561826
	C1013	C	0.111547	0.752653	0.576589
	C1014	C	0.111521	0.253147	0.576495
	C1015	C	0.102976	0.752848	0.585041
	C1016	C	0.098967	0.691543	0.589031
	C1017	C	0.098929	0.814101	0.589008
	C1018	C	0.103001	0.253269	0.585011
	C1019	C	0.098963	0.192091	0.588966
	C1020	C	0.098982	0.314590	0.588999
	C1021	C	0.111525	0.252954	0.546922
	C1022	C	0.078815	0.752863	0.513942
	C1023	C	0.049118	0.752819	0.513964
	C1024	C	0.048943	0.752720	0.609339
	C1025	C	0.099099	0.691830	0.534401
	C1026	C	0.099048	0.813746	0.534441
	C1027	C	0.087312	0.752844	0.522489
	C1028	C	0.040529	0.752805	0.522413
	C1029	C	0.036543	0.691491	0.526427
	C1030	C	0.091291	0.691906	0.526502
	C1031	C	0.091252	0.813671	0.526531
	C1032	C	0.036492	0.814049	0.526392
	C1033	C	0.103065	0.752853	0.538440
	C1034	C	0.078501	0.752778	0.609290
	C1035	C	0.091077	0.691614	0.596835
	C1036	C	0.091035	0.814079	0.596822
	C1037	C	0.087041	0.752848	0.600806
	C1038	C	0.064047	0.462312	0.622899
	C1039	C	0.064082	0.462548	0.500017
	C1040	C	0.062486	0.462460	0.624550
	C1041	C	0.064075	0.542869	0.622891
	C1042	C	0.062484	0.542876	0.624526
	C1043	C	0.064108	0.543208	0.500010
	C1044	C	0.078584	0.253439	0.609343
	C1045	C	0.091105	0.192165	0.596812
	C1046	C	0.091124	0.314728	0.596856
	C1047	C	0.087125	0.253429	0.600852
	C1048	C	0.063566	0.043215	0.499495
	C1049	C	0.078724	0.252687	0.513970
	C1050	C	0.049108	0.252857	0.513980
	C1051	C	0.048923	0.252481	0.609342
	C1052	C	0.099079	0.191776	0.534315
	C1053	C	0.099063	0.314217	0.534369
	C1054	C	0.087233	0.252910	0.522483
	C1055	C	0.040580	0.252828	0.522464
	C1056	C	0.040435	0.752829	0.600820
	C1057	C	0.036442	0.814231	0.596787
	C1058	C	0.036448	0.691437	0.596826
	C1059	C	0.040398	0.252408	0.600828
	C1060	C	0.036409	0.313623	0.596801
	C1061	C	0.036433	0.191178	0.596780
	C1062	C	0.036522	0.191756	0.526428
	C1063	C	0.091229	0.191667	0.526458
	C1064	C	0.091213	0.314268	0.526508
	C1065	C	0.036530	0.313974	0.526415
	C1066	C	0.103060	0.252953	0.538363
	C1067	C	0.064245	0.042903	0.623025
	C1068	C	0.063848	0.043233	0.498660
	C1069	C	0.063568	0.962327	0.499503
	C1070	C	0.064252	0.962169	0.623028
	C1071	C	0.063851	0.962500	0.498659
	N1072	N	0.001300	0.069892	0.561514
	N1073	N	0.001305	0.935539	0.561505
	N1074	N	0.001344	0.435577	0.561569
	N1075	N	0.001345	0.569944	0.561578
	N1076	N	0.063714	0.435511	0.624172
	N1077	N	0.063742	0.569892	0.624160
	N1078	N	0.063772	0.069880	0.624149
	N1079	N	0.063759	0.935527	0.624134
	O1080	O	0.114620	0.694973	0.675217
	O1081	O	0.114749	0.810834	0.675125
	O1082	O	0.012695	0.694780	0.698289
	O1083	O	0.012849	0.810552	0.698119
	O1084	O	0.012807	0.194876	0.698175
	O1085	O	0.012777	0.310641	0.698108
	O1086	O	0.012701	0.694604	0.675098
	O1087	O	0.012829	0.810430	0.675194
	O1088	O	0.012753	0.194479	0.675128
	O1089	O	0.012721	0.310265	0.675114
	O1090	O	0.114771	0.695181	0.698215
	O1091	O	0.114801	0.811104	0.698265
	O1092	O	0.114726	0.195065	0.698184
	O1093	O	0.114785	0.310675	0.698200
	O1094	O	0.114704	0.194531	0.675126
	O1095	O	0.114829	0.310367	0.675042
	O1096	O	0.075310	0.695391	0.635595
	O1097	O	0.052209	0.695335	0.635664
	O1098	O	0.075227	0.695158	0.737580
	O1099	O	0.075199	0.810985	0.737554
	O1100	O	0.052239	0.694918	0.737660
	O1101	O	0.052217	0.810633	0.737657
	O1102	O	0.052191	0.811296	0.635662
	O1103	O	0.075364	0.811298	0.635548
	O1104	O	0.075218	0.195088	0.635663
	O1105	O	0.052246	0.194898	0.635672
	O1106	O	0.075318	0.194900	0.737645
	O1107	O	0.075310	0.310723	0.737632
	O1108	O	0.052189	0.194772	0.737676
	O1109	O	0.052280	0.310747	0.737555
	O1110	O	0.052177	0.310600	0.635638
	O1111	O	0.075247	0.310895	0.635659
	H1112	H	0.025502	0.644824	0.710805
	H1113	H	0.025410	0.860409	0.710807
	H1114	H	0.025523	0.144577	0.710774
	H1115	H	0.025458	0.360818	0.710777
	H1116	H	0.025327	0.860867	0.662396
	H1117	H	0.025526	0.644496	0.662565
	H1118	H	0.025449	0.360440	0.662486
	H1119	H	0.025426	0.144634	0.662481
	H1120	H	0.129036	0.064630	0.688212
	H1121	H	0.129217	0.064771	0.685481
	H1122	H	0.129251	0.941183	0.685507
	H1123	H	0.129122	0.941587	0.688227
	H1124	H	0.125741	0.064910	0.689849
	H1125	H	0.125809	0.942049	0.689866
	H1126	H	0.000681	0.064496	0.684968
	H1127	H	0.000680	0.941310	0.685007
	H1128	H	-0.000408	0.064552	0.686055
	H1129	H	-0.000336	0.941268	0.686072
	H1130	H	0.000166	0.064532	0.688036
	H1131	H	0.000198	0.940929	0.687989
	H1132	H	0.003201	0.441186	0.687789
	H1133	H	0.003367	0.441585	0.685810
	H1134	H	0.000829	0.441107	0.688905
	H1135	H	0.124577	0.441734	0.685975
	H1136	H	0.126337	0.441475	0.684833
	H1137	H	0.127689	0.441466	0.685527
	H1138	H	0.003412	0.564906	0.685922
	H1139	H	0.003203	0.564746	0.687801
	H1140	H	0.127577	0.564801	0.685476
	H1141	H	0.126290	0.564543	0.684829
	H1142	H	0.124524	0.564592	0.685965
	H1143	H	0.000870	0.564118	0.688893
	H1144	H	0.102126	0.644912	0.710885
	H1145	H	0.102153	0.861158	0.710864
	H1146	H	0.102101	0.145063	0.710887
	H1147	H	0.102090	0.360744	0.710761
	H1148	H	0.039696	0.644952	0.648436
	H1149	H	0.087987	0.645250	0.648220
	H1150	H	0.087991	0.861554	0.648236
	H1151	H	0.039456	0.861111	0.648265
	H1152	H	0.102088	0.645153	0.662427
	H1153	H	0.102099	0.861334	0.662459
	H1154	H	0.087931	0.644649	0.724964
	H1155	H	0.087942	0.861423	0.724977
	H1156	H	0.064904	0.441445	0.622645
	H1157	H	0.063594	0.441235	0.746048
	H1158	H	0.065577	0.441370	0.624769
	H1159	H	0.064444	0.440774	0.625963
	H1160	H	0.061186	0.441719	0.750839
	H1161	H	0.060745	0.441535	0.748243
	H1162	H	0.063590	0.564812	0.746014
	H1163	H	0.064986	0.563933	0.622609
	H1164	H	0.060805	0.564550	0.748275
	H1165	H	0.061205	0.564554	0.750833
	H1166	H	0.064467	0.564878	0.625965
	H1167	H	0.065594	0.564241	0.624776
	H1168	H	0.087950	0.144896	0.725024
	H1169	H	0.087921	0.360948	0.724890
	H1170	H	0.064196	0.064854	0.625908
	H1171	H	0.065409	0.064737	0.624961
	H1172	H	0.062272	0.064053	0.625100
	H1173	H	0.039543	0.860925	0.724976
	H1174	H	0.039657	0.644684	0.724933
	H1175	H	0.039581	0.360688	0.724986
	H1176	H	0.039634	0.144629	0.724952
	H1177	H	0.039573	0.144712	0.648356
	H1178	H	0.087998	0.144782	0.648206
	H1179	H	0.087846	0.361189	0.648460
	H1180	H	0.039575	0.360534	0.648344
	H1181	H	0.102168	0.144550	0.662315
	H1182	H	0.102042	0.360846	0.662583
	H1183	H	0.063684	0.065089	0.748817
	H1184	H	0.063504	0.064976	0.748987
	H1185	H	0.063514	0.064486	0.749370
	H1186	H	0.065369	0.941289	0.624973
	H1187	H	0.064176	0.941595	0.625901
	H1188	H	0.062261	0.941184	0.625094
	H1189	H	0.063761	0.941868	0.748831
	H1190	H	0.063485	0.942171	0.748941
	H1191	H	0.063467	0.941109	0.749323
	Zn1192	Zn	0.001274	0.680123	0.686722
	Zn1193	Zn	0.001299	0.825681	0.686692
	Zn1194	Zn	0.001200	0.180199	0.686663
	Zn1195	Zn	0.001197	0.325587	0.686639
	Zn1196	Zn	0.063790	0.680223	0.749169
	Zn1197	Zn	0.063766	0.825848	0.749156
	Zn1198	Zn	0.063802	0.180328	0.749157
	Zn1199	Zn	0.063765	0.325799	0.749136
	C1200	C	0.111403	0.752953	0.671894
	C1201	C	0.016053	0.752647	0.701488
	C1202	C	0.024574	0.752583	0.710022
	C1203	C	0.028620	0.691621	0.713997
	C1204	C	0.028566	0.813712	0.714002
	C1205	C	0.016095	0.252815	0.701416
	C1206	C	0.024630	0.252791	0.709922
	C1207	C	0.028644	0.191598	0.713928
	C1208	C	0.028612	0.313880	0.713942
	C1209	C	0.016063	0.752498	0.671859
	C1210	C	0.024564	0.752684	0.663335
	C1211	C	0.028515	0.813960	0.659283
	C1212	C	0.028624	0.691526	0.659378
	C1213	C	0.016016	0.252396	0.671813
	C1214	C	0.024553	0.252524	0.663321
	C1215	C	0.028600	0.313592	0.659349
	C1216	C	0.028584	0.191546	0.659352
	C1217	C	0.128385	0.043450	0.686810
	C1218	C	0.128394	0.962691	0.686812
	C1219	C	0.000457	0.043261	0.685821
	C1220	C	0.000486	0.962518	0.685828
	C1221	C	0.000972	0.043304	0.687787
	C1222	C	0.000999	0.962634	0.687797
	C1223	C	0.002740	0.462583	0.686777
	C1224	C	0.125039	0.462685	0.686706
	C1225	C	0.126781	0.462656	0.685560
	C1226	C	0.002745	0.543534	0.686804
	C1227	C	0.126761	0.543274	0.685539
	C1228	C	0.125037	0.543399	0.686698
	C1229	C	0.111496	0.753110	0.701522
	C1230	C	0.111452	0.252866	0.701470
	C1231	C	0.102962	0.753125	0.710014
	C1232	C	0.098957	0.691917	0.714007
	C1233	C	0.098962	0.814264	0.713998
	C1234	C	0.102943	0.252825	0.709982
	C1235	C	0.098948	0.191849	0.714018
	C1236	C	0.098935	0.313933	0.713937
	C1237	C	0.111492	0.252471	0.671797
	C1238	C	0.078613	0.753381	0.638861
	C1239	C	0.048936	0.753287	0.638953
	C1240	C	0.048944	0.752764	0.734360
	C1241	C	0.098909	0.692102	0.659308
	C1242	C	0.098919	0.814461	0.659322
	C1243	C	0.087102	0.753476	0.647412
	C1244	C	0.040412	0.753061	0.647461
	C1245	C	0.036468	0.691807	0.651509
	C1246	C	0.091096	0.692208	0.651415
	C1247	C	0.091111	0.814641	0.651417
	C1248	C	0.036353	0.814104	0.651417
	C1249	C	0.102879	0.753209	0.663358
	C1250	C	0.078500	0.753082	0.734286
	C1251	C	0.091075	0.691849	0.721827
	C1252	C	0.091085	0.814269	0.721824
	C1253	C	0.087029	0.753101	0.725793
	C1254	C	0.064525	0.462629	0.747183
	C1255	C	0.064695	0.462181	0.625060
	C1256	C	0.061732	0.462738	0.749423
	C1257	C	0.064524	0.543423	0.747170
	C1258	C	0.061742	0.543323	0.749421
	C1259	C	0.064709	0.543251	0.625067
	C1260	C	0.078580	0.252813	0.734328
	C1261	C	0.091092	0.191866	0.721862
	C1262	C	0.091088	0.313960	0.721787
	C1263	C	0.087076	0.252910	0.725814
	C1264	C	0.064536	0.043234	0.625097
	C1265	C	0.078534	0.252984	0.638939
	C1266	C	0.048927	0.252685	0.638939
	C1267	C	0.048971	0.252703	0.734311
	C1268	C	0.098952	0.191517	0.659271
	C1269	C	0.098873	0.313935	0.659411
	C1270	C	0.087028	0.252978	0.647493
	C1271	C	0.040424	0.252531	0.647459
	C1272	C	0.040435	0.752758	0.725868
	C1273	C	0.036412	0.813826	0.721852
	C1274	C	0.036482	0.691660	0.721835
	C1275	C	0.040487	0.252633	0.725785
	C1276	C	0.036453	0.313737	0.721808
	C1277	C	0.036486	0.191510	0.721795
	C1278	C	0.036419	0.191584	0.651487
	C1279	C	0.091084	0.191769	0.651426
	C1280	C	0.091010	0.314109	0.651562
	C1281	C	0.036438	0.313581	0.651478
	C1282	C	0.102931	0.252625	0.663316
	C1283	C	0.063646	0.043640	0.748948
	C1284	C	0.062592	0.043045	0.624310
	C1285	C	0.064512	0.962356	0.625093
	C1286	C	0.063653	0.962903	0.748945
	C1287	C	0.062582	0.962516	0.624276
	N1288	N	0.001279	0.070103	0.686662
	N1289	N	0.001331	0.935718	0.686687
	N1290	N	0.001202	0.435569	0.686640
	N1291	N	0.001264	0.569998	0.686678
	N1292	N	0.063769	0.435742	0.749121
	N1293	N	0.063807	0.570163	0.749128
	N1294	N	0.063773	0.070224	0.749144
	N1295	N	0.063769	0.935811	0.749120
	O1296	O	0.114734	0.694913	0.800140
	O1297	O	0.114748	0.810718	0.800159
	O1298	O	0.012846	0.694953	0.823169
	O1299	O	0.012838	0.810978	0.823134
	O1300	O	0.012777	0.195067	0.823091
	O1301	O	0.012813	0.311049	0.823104
	O1302	O	0.012812	0.694623	0.800158
	O1303	O	0.012797	0.810573	0.800063
	O1304	O	0.012717	0.194769	0.800052
	O1305	O	0.012832	0.310901	0.800140
	O1306	O	0.114811	0.694774	0.823120
	O1307	O	0.114849	0.810668	0.823235
	O1308	O	0.114833	0.194853	0.823063
	O1309	O	0.114904	0.310848	0.823165
	O1310	O	0.114763	0.194889	0.800126
	O1311	O	0.114779	0.310697	0.800115
	O1312	O	0.075401	0.694875	0.760592
	O1313	O	0.052290	0.694627	0.760671
	O1314	O	0.075351	0.694753	0.862524
	O1315	O	0.075394	0.810654	0.862539
	O1316	O	0.052335	0.695149	0.862586
	O1317	O	0.052316	0.811123	0.862574
	O1318	O	0.052319	0.810562	0.760670
	O1319	O	0.075355	0.810735	0.760636
	O1320	O	0.075360	0.195052	0.760662
	O1321	O	0.052167	0.194752	0.760614
	O1322	O	0.075287	0.195022	0.862453
	O1323	O	0.075356	0.310761	0.862452
	O1324	O	0.052330	0.195094	0.862461
	O1325	O	0.052263	0.310737	0.862554
	O1326	O	0.052304	0.310748	0.760762
	O1327	O	0.075286	0.310739	0.760711
	H1328	H	0.025501	0.644182	0.835816
	H1329	H	0.025457	0.861483	0.835807
	H1330	H	0.025446	0.145068	0.835694
	H1331	H	0.025480	0.360382	0.835715
	H1332	H	0.025498	0.860832	0.787470
	H1333	H	0.025405	0.644007	0.787414
	H1334	H	0.025423	0.361085	0.787509
	H1335	H	0.025383	0.144024	0.787403
	H1336	H	0.127906	0.064718	0.814313
	H1337	H	0.129476	0.064738	0.812188
	H1338	H	0.129425	0.941439	0.812280
	H1339	H	0.127812	0.941585	0.814377
	H1340	H	0.124232	0.064858	0.813905
	H1341	H	0.124173	0.941718	0.813940
	H1342	H	0.002962	0.064349	0.811891
	H1343	H	0.002938	0.940904	0.811816
	H1344	H	0.002524	0.064288	0.810514
	H1345	H	0.002484	0.941239	0.810508
	H1346	H	0.000597	0.064442	0.810101
	H1347	H	0.000607	0.942049	0.810101
	H1348	H	0.001104	0.441433	0.812019
	H1349	H	0.001439	0.441495	0.811951
	H1350	H	0.000863	0.441261	0.811667
	H1351	H	0.127864	0.441509	0.810761
	H1352	H	0.127676	0.441166	0.812762
	H1353	H	0.126296	0.441487	0.813350
	H1354	H	0.001387	0.565030	0.811950
	H1355	H	0.001123	0.564564	0.811995
	H1356	H	0.126289	0.564850	0.813283
	H1357	H	0.127641	0.564858	0.812637
	H1358	H	0.127819	0.564435	0.810711
	H1359	H	0.000849	0.564426	0.811609
	H1360	H	0.102228	0.644449	0.835805
	H1361	H	0.102273	0.860697	0.835933
	H1362	H	0.102188	0.144618	0.835699
	H1363	H	0.102157	0.360706	0.835687
	H1364	H	0.039566	0.644079	0.773265
	H1365	H	0.087994	0.644751	0.773298
	H1366	H	0.088046	0.860963	0.773278
	H1367	H	0.039636	0.861117	0.773326
	H1368	H	0.102094	0.644633	0.787505
	H1369	H	0.102155	0.860982	0.787490
	H1370	H	0.088015	0.644409	0.849884
	H1371	H	0.088050	0.860410	0.849975
	H1372	H	0.065993	0.441409	0.746984
	H1373	H	0.063427	0.441276	0.874585
	H1374	H	0.066501	0.441273	0.750516
	H1375	H	0.064530	0.441552	0.752106
	H1376	H	0.064364	0.441307	0.874071
	H1377	H	0.064111	0.440802	0.874495
	H1378	H	0.063438	0.564567	0.874678
	H1379	H	0.065993	0.564407	0.746953
	H1380	H	0.064181	0.564303	0.874600
	H1381	H	0.064407	0.564344	0.874110
	H1382	H	0.064523	0.564719	0.752116
	H1383	H	0.066609	0.564630	0.750512
	H1384	H	0.087983	0.144600	0.849797
	H1385	H	0.087966	0.360685	0.849786
	H1386	H	0.064112	0.064317	0.749273
	H1387	H	0.064098	0.064700	0.748949
	H1388	H	0.063764	0.064184	0.749527
	H1389	H	0.039615	0.861549	0.849957
	H1390	H	0.039689	0.644226	0.849956
	H1391	H	0.039600	0.360547	0.849890
	H1392	H	0.039582	0.144980	0.849852
	H1393	H	0.039575	0.144119	0.773279
	H1394	H	0.087970	0.144811	0.773302
	H1395	H	0.087987	0.361217	0.773358
	H1396	H	0.039587	0.361406	0.773388
	H1397	H	0.102113	0.144773	0.787481
	H1398	H	0.102143	0.360978	0.787514
	H1399	H	0.063870	0.065100	0.874315
	H1400	H	0.064082	0.065038	0.874235
	H1401	H	0.064092	0.064400	0.873924
	H1402	H	0.064054	0.941338	0.748988
	H1403	H	0.064049	0.941468	0.749281
	H1404	H	0.063706	0.941248	0.749456
	H1405	H	0.063871	0.941636	0.874313
	H1406	H	0.064114	0.941804	0.874206
	H1407	H	0.064135	0.941870	0.873927
	Zn1408	Zn	0.001281	0.680143	0.811647
	Zn1409	Zn	0.001315	0.825990	0.811629
	Zn1410	Zn	0.001229	0.180235	0.811654
	Zn1411	Zn	0.001244	0.325803	0.811629
	Zn1412	Zn	0.063826	0.680104	0.874095
	Zn1413	Zn	0.063879	0.825707	0.874032
	Zn1414	Zn	0.063873	0.180395	0.874045
	Zn1415	Zn	0.063805	0.325508	0.873992
	C1416	C	0.111481	0.752882	0.796847
	C1417	C	0.016145	0.752962	0.826417
	C1418	C	0.024680	0.752856	0.834905
	C1419	C	0.028678	0.691412	0.838940
	C1420	C	0.028641	0.814321	0.838929
	C1421	C	0.016071	0.252946	0.826377
	C1422	C	0.024594	0.252804	0.834894
	C1423	C	0.028588	0.191785	0.838878
	C1424	C	0.028613	0.313691	0.838887
	C1425	C	0.016126	0.752511	0.796843
	C1426	C	0.024627	0.752428	0.788325
	C1427	C	0.028623	0.813779	0.784302
	C1428	C	0.028576	0.691146	0.784273
	C1429	C	0.016053	0.252782	0.796810
	C1430	C	0.024580	0.252586	0.788299
	C1431	C	0.028585	0.314031	0.784342
	C1432	C	0.028579	0.191183	0.784282
	C1433	C	0.128047	0.043530	0.812803
	C1434	C	0.128023	0.962872	0.812835
	C1435	C	0.002346	0.043305	0.811326
	C1436	C	0.002358	0.962467	0.811301
	C1437	C	0.000424	0.043432	0.810895
	C1438	C	0.000419	0.962879	0.810897
	C1439	C	0.001257	0.462491	0.811893
	C1440	C	0.127032	0.462787	0.810653
	C1441	C	0.126826	0.462448	0.812668
	C1442	C	0.001251	0.543397	0.811893
	C1443	C	0.126811	0.543447	0.812626
	C1444	C	0.127003	0.543332	0.810626
	C1445	C	0.111558	0.752648	0.826467
	C1446	C	0.111584	0.252807	0.826391
	C1447	C	0.103033	0.752613	0.834949
	C1448	C	0.099039	0.691446	0.838924
	C1449	C	0.099057	0.813724	0.838984
	C1450	C	0.103088	0.252725	0.834932
	C1451	C	0.099055	0.191556	0.838888
	C1452	C	0.099041	0.313803	0.838882
	C1453	C	0.111479	0.252802	0.796842
	C1454	C	0.078669	0.752843	0.763897
	C1455	C	0.049015	0.752662	0.763948
	C1456	C	0.049041	0.753072	0.859284
	C1457	C	0.098964	0.691595	0.784324
	C1458	C	0.098992	0.814025	0.784323
	C1459	C	0.087170	0.752927	0.772416
	C1460	C	0.040494	0.752634	0.772463
	C1461	C	0.036442	0.691250	0.776437
	C1462	C	0.091135	0.691724	0.776450
	C1463	C	0.091161	0.813950	0.776444
	C1464	C	0.036492	0.813918	0.776473
	C1465	C	0.102975	0.752891	0.788315
	C1466	C	0.078668	0.752635	0.859262
	C1467	C	0.091163	0.691372	0.846747
	C1468	C	0.091175	0.813674	0.846796
	C1469	C	0.087157	0.752479	0.850741
	C1470	C	0.063428	0.462547	0.874290
	C1471	C	0.065066	0.462622	0.750731
	C1472	C	0.064145	0.462437	0.874247
	C1473	C	0.063433	0.543228	0.874325
	C1474	C	0.064164	0.543184	0.874255
	C1475	C	0.065092	0.543408	0.750729
	C1476	C	0.078624	0.252786	0.859181
	C1477	C	0.091176	0.191540	0.846711
	C1478	C	0.091163	0.313734	0.846701
	C1479	C	0.087179	0.252651	0.850714
	C1480	C	0.064008	0.043452	0.749129
	C1481	C	0.078622	0.252987	0.763962
	C1482	C	0.048959	0.252790	0.763980
	C1483	C	0.049018	0.252900	0.859215
	C1484	C	0.098961	0.191769	0.784327
	C1485	C	0.098979	0.314048	0.784345
	C1486	C	0.087135	0.253021	0.772465
	C1487	C	0.040455	0.252795	0.772490
	C1488	C	0.040553	0.752932	0.850760
	C1489	C	0.036493	0.814313	0.846783
	C1490	C	0.036538	0.691438	0.846784
	C1491	C	0.040475	0.252815	0.850724
	C1492	C	0.036477	0.313707	0.846734
	C1493	C	0.036445	0.191828	0.846721
	C1494	C	0.036431	0.191312	0.776432
	C1495	C	0.091117	0.191791	0.776464
	C1496	C	0.091130	0.314247	0.776491
	C1497	C	0.036444	0.314107	0.776501
	C1498	C	0.102965	0.252877	0.788334
	C1499	C	0.063936	0.043808	0.874231
	C1500	C	0.063678	0.043358	0.749352
	C1501	C	0.064000	0.962724	0.749145
	C1502	C	0.063939	0.962866	0.874223
	C1503	C	0.063659	0.962559	0.749332
	N1504	N	0.001252	0.070267	0.811660
	N1505	N	0.001269	0.935842	0.811652
	N1506	N	0.001240	0.435697	0.811676
	N1507	N	0.001251	0.570046	0.811659
	N1508	N	0.063781	0.435499	0.874036
	N1509	N	0.063799	0.569906	0.874079
	N1510	N	0.063874	0.070307	0.874057
	N1511	N	0.063883	0.935870	0.874050
	O1512	O	0.114878	0.694922	0.924962
	O1513	O	0.114819	0.810841	0.925026
	O1514	O	0.012906	0.694421	0.948041
	O1515	O	0.012883	0.810237	0.948102
	O1516	O	0.012800	0.194661	0.948144
	O1517	O	0.012969	0.310661	0.948040
	O1518	O	0.012892	0.695297	0.925001
	O1519	O	0.012909	0.810877	0.925046
	O1520	O	0.012855	0.195158	0.925040
	O1521	O	0.012884	0.311023	0.925062
	O1522	O	0.114812	0.695276	0.948051
	O1523	O	0.114832	0.810972	0.947997
	O1524	O	0.114969	0.194818	0.948176
	O1525	O	0.114883	0.310929	0.948029
	O1526	O	0.115001	0.195074	0.924941
	O1527	O	0.114792	0.310885	0.925161
	O1528	O	0.075428	0.694661	0.885534
	O1529	O	0.052382	0.694999	0.885645
	O1530	O	0.075451	0.695353	0.987581
	O1531	O	0.075318	0.810960	0.987453
	O1532	O	0.052264	0.694186	0.987622
	O1533	O	0.052329	0.809874	0.987595
	O1534	O	0.052350	0.811049	0.885582
	O1535	O	0.075392	0.810577	0.885552
	O1536	O	0.075406	0.195208	0.885583
	O1537	O	0.052357	0.194483	0.885584
	O1538	O	0.075350	0.195130	0.987424
	O1539	O	0.075426	0.310840	0.987540
	O1540	O	0.052353	0.194647	0.987504
	O1541	O	0.052328	0.310604	0.987533
	O1542	O	0.052314	0.310328	0.885540
	O1543	O	0.075370	0.311076	0.885531
	H1544	H	0.025538	0.644285	0.960675
	H1545	H	0.025492	0.860024	0.960804
	H1546	H	0.025473	0.143838	0.960768
	H1547	H	0.025583	0.360789	0.960673
	H1548	H	0.025538	0.861192	0.912402
	H1549	H	0.025518	0.644860	0.912347
	H1550	H	0.025419	0.360990	0.912312
	H1551	H	0.025548	0.144538	0.912424
	H1552	H	0.126094	0.064495	0.936227
	H1553	H	0.125963	0.064165	0.936566
	H1554	H	0.125936	0.941115	0.936578
	H1555	H	0.126047	0.941123	0.936211
	H1556	H	0.126562	0.064650	0.936112
	H1557	H	0.126571	0.941726	0.936112
	H1558	H	0.003439	0.064294	0.935539
	H1559	H	0.003464	0.941129	0.935523
	H1560	H	0.001940	0.064538	0.934334
	H1561	H	0.002002	0.941417	0.934299
	H1562	H	-0.000521	0.063932	0.935290
	H1563	H	-0.000527	0.940984	0.935266
	H1564	H	0.001557	0.441225	0.934662
	H1565	H	-0.000004	0.441417	0.935191
	H1566	H	0.003257	0.441355	0.936062
	H1567	H	0.126644	0.441205	0.934810
	H1568	H	0.128036	0.441072	0.936238
	H1569	H	0.127719	0.441435	0.937621
	H1570	H	0.000002	0.563980	0.935172
	H1571	H	0.001504	0.564293	0.934635
	H1572	H	0.127628	0.564312	0.937661
	H1573	H	0.128018	0.564572	0.936275
	H1574	H	0.126609	0.564845	0.934883
	H1575	H	0.003246	0.564291	0.936024
	H1576	H	0.102154	0.645514	0.960714
	H1577	H	0.102131	0.860989	0.960651
	H1578	H	0.102102	0.144585	0.960619
	H1579	H	0.102315	0.361367	0.960797
	H1580	H	0.039687	0.644975	0.898213
	H1581	H	0.088048	0.644247	0.898203
	H1582	H	0.087958	0.860967	0.898234
	H1583	H	0.039715	0.861055	0.898247
	H1584	H	0.102181	0.644488	0.912355
	H1585	H	0.102113	0.860977	0.912420
	H1586	H	0.088062	0.645454	0.974895
	H1587	H	0.088007	0.860750	0.974834
	H1588	H	0.063116	0.441510	0.874147
	H1589	H	0.064405	0.441021	0.999727
	H1590	H	0.063460	0.441755	0.873479
	H1591	H	0.064043	0.441133	0.873421
	H1592	H	0.064125	0.441853	0.998242
	H1593	H	0.064701	0.441105	0.998755
	H1594	H	0.064427	0.563995	0.999738
	H1595	H	0.063132	0.564569	0.874197
	H1596	H	0.064787	0.564608	0.998783
	H1597	H	0.064215	0.564267	0.998226
	H1598	H	0.063995	0.564705	0.873497
	H1599	H	0.063456	0.564638	0.873485
	H1600	H	0.087901	0.144754	0.974690
	H1601	H	0.088139	0.361384	0.974899
	H1602	H	0.063634	0.064319	0.873944
	H1603	H	0.063591	0.064180	0.874170
	H1604	H	0.063900	0.064525	0.873823
	H1605	H	0.039627	0.859949	0.974972
	H1606	H	0.039670	0.643989	0.974815
	H1607	H	0.039754	0.361029	0.974811
	H1608	H	0.039667	0.144018	0.974854
	H1609	H	0.039677	0.144523	0.898270
	H1610	H	0.088088	0.144560	0.898223
	H1611	H	0.088067	0.361715	0.898214
	H1612	H	0.039579	0.360498	0.898138
	H1613	H	0.102220	0.144687	0.912358
	H1614	H	0.102189	0.361504	0.912400
	H1615	H	0.063952	0.064154	0.998456
	H1616	H	0.063514	0.064589	0.998587
	H1617	H	0.063337	0.064413	0.999218
	H1618	H	0.063621	0.941340	0.874172
	H1619	H	0.063660	0.940827	0.873945
	H1620	H	0.063926	0.941093	0.873787
	H1621	H	0.064006	0.941565	0.998504
	H1622	H	0.063541	0.941272	0.998602
	H1623	H	0.063340	0.941199	0.999195
	Zn1624	Zn	0.001340	0.679905	0.936521
	Zn1625	Zn	0.001422	0.825464	0.936539
	Zn1626	Zn	0.001326	0.179863	0.936529
	Zn1627	Zn	0.001379	0.325467	0.936568
	Zn1628	Zn	0.063916	0.680024	0.999054
	Zn1629	Zn	0.063900	0.825541	0.999059
	Zn1630	Zn	0.063848	0.179928	0.999025
	Zn1631	Zn	0.063826	0.325488	0.999059
	C1632	C	0.111526	0.752880	0.921740
	C1633	C	0.016180	0.752303	0.951358
	C1634	C	0.024705	0.752124	0.959858
	C1635	C	0.028692	0.691017	0.963852
	C1636	C	0.028668	0.813115	0.963919
	C1637	C	0.016192	0.252521	0.951345
	C1638	C	0.024700	0.252365	0.959877
	C1639	C	0.028653	0.190962	0.963900
	C1640	C	0.028695	0.313807	0.963872
	C1641	C	0.016176	0.753089	0.921721
	C1642	C	0.024656	0.753059	0.913171
	C1643	C	0.028666	0.814271	0.909202
	C1644	C	0.028666	0.691865	0.909180
	C1645	C	0.016140	0.253047	0.921753
	C1646	C	0.024661	0.252873	0.913240
	C1647	C	0.028620	0.313925	0.909198
	C1648	C	0.028695	0.191563	0.909263
	C1649	C	0.126121	0.043295	0.936446
	C1650	C	0.126103	0.962590	0.936425
	C1651	C	0.002349	0.043240	0.935351
	C1652	C	0.002379	0.962482	0.935325
	C1653	C	-0.000112	0.042919	0.936299
	C1654	C	-0.000109	0.962095	0.936302
	C1655	C	0.000954	0.462302	0.935337
	C1656	C	0.126030	0.462771	0.935445
	C1657	C	0.127463	0.462399	0.936831
	C1658	C	0.000931	0.542844	0.935328
	C1659	C	0.127438	0.543059	0.936864
	C1660	C	0.126032	0.543347	0.935438
	C1661	C	0.111546	0.753194	0.951328
	C1662	C	0.111617	0.252947	0.951367
	C1663	C	0.103056	0.753284	0.959855
	C1664	C	0.099051	0.692356	0.963874
	C1665	C	0.099041	0.814121	0.963848
	C1666	C	0.103085	0.252987	0.959856
	C1667	C	0.099013	0.191741	0.963798
	C1668	C	0.099124	0.314265	0.963894
	C1669	C	0.111607	0.253008	0.921740
	C1670	C	0.078680	0.752624	0.888845
	C1671	C	0.049069	0.753074	0.888881
	C1672	C	0.049006	0.752056	0.984323
	C1673	C	0.099012	0.691511	0.909227
	C1674	C	0.098970	0.813991	0.909261
	C1675	C	0.087164	0.752706	0.897378
	C1676	C	0.040523	0.753072	0.897342
	C1677	C	0.036533	0.691936	0.901344
	C1678	C	0.091163	0.691403	0.901374
	C1679	C	0.091124	0.813994	0.901401
	C1680	C	0.036531	0.814160	0.901359
	C1681	C	0.102981	0.752817	0.913262
	C1682	C	0.078690	0.753155	0.984243
	C1683	C	0.091200	0.692249	0.971726
	C1684	C	0.091179	0.814059	0.971695
	C1685	C	0.087213	0.753138	0.975733
	C1686	C	0.063999	0.462373	0.999626
	C1687	C	0.063757	0.462447	0.873626
	C1688	C	0.064285	0.462464	0.998644
	C1689	C	0.064002	0.542979	0.999637
	C1690	C	0.064326	0.543180	0.998649
	C1691	C	0.063757	0.543265	0.873657
	C1692	C	0.078671	0.253057	0.984183
	C1693	C	0.091132	0.191796	0.971616
	C1694	C	0.091253	0.314365	0.971731
	C1695	C	0.087181	0.253147	0.975672
	C1696	C	0.063676	0.043182	0.874052
	C1697	C	0.078679	0.253249	0.888843
	C1698	C	0.049046	0.252405	0.888858
	C1699	C	0.049069	0.252608	0.984224
	C1700	C	0.099040	0.191808	0.909248
	C1701	C	0.099023	0.314488	0.909252
	C1702	C	0.087166	0.253226	0.897384
	C1703	C	0.040535	0.252582	0.897383
	C1704	C	0.040523	0.752007	0.975773
	C1705	C	0.036512	0.813055	0.971789
	C1706	C	0.036530	0.690985	0.971723
	C1707	C	0.040545	0.252484	0.975733
	C1708	C	0.036558	0.313813	0.971717
	C1709	C	0.036518	0.191097	0.971737
	C1710	C	0.036541	0.191524	0.901404
	C1711	C	0.091195	0.191903	0.901382
	C1712	C	0.091183	0.314510	0.901383
	C1713	C	0.036478	0.313633	0.901348
	C1714	C	0.103067	0.253155	0.913238
	C1715	C	0.063780	0.043116	0.998673
	C1716	C	0.063973	0.043198	0.873929
	C1717	C	0.063674	0.962509	0.874044
	C1718	C	0.063808	0.962574	0.998687
	C1719	C	0.063983	0.962689	0.873911
	N1720	N	0.001392	0.069905	0.936523
	N1721	N	0.001435	0.935466	0.936531
	N1722	N	0.001364	0.435392	0.936566
	N1723	N	0.001352	0.569814	0.936552
	N1724	N	0.063827	0.435627	0.999091
	N1725	N	0.063869	0.570052	0.999058
	N1726	N	0.063880	0.069982	0.999007
	N1727	N	0.063909	0.935580	0.999043
	O1728	O	0.239802	0.694929	0.050013
	O1729	O	0.239756	0.810659	0.050090
	O1730	O	0.137887	0.694912	0.073036
	O1731	O	0.137856	0.810646	0.073120
	O1732	O	0.137761	0.194938	0.073188
	O1733	O	0.137798	0.310922	0.073183
	O1734	O	0.137873	0.694807	0.050165
	O1735	O	0.137780	0.810779	0.050015
	O1736	O	0.137825	0.194605	0.050155
	O1737	O	0.137823	0.310474	0.050085
	O1738	O	0.239946	0.694893	0.073175
	O1739	O	0.239836	0.810848	0.073060
	O1740	O	0.239864	0.195080	0.073100
	O1741	O	0.239820	0.311128	0.073035
	O1742	O	0.239791	0.195140	0.049986
	O1743	O	0.239714	0.311146	0.050061
	O1744	O	0.200384	0.694834	0.010554
	O1745	O	0.177338	0.694958	0.010683
	O1746	O	0.200474	0.694688	0.112576
	O1747	O	0.200306	0.810539	0.112450
	O1748	O	0.177297	0.695001	0.112593
	O1749	O	0.177391	0.810961	0.112422
	O1750	O	0.177296	0.810666	0.010636
	O1751	O	0.200319	0.810479	0.010596
	O1752	O	0.200213	0.195022	0.010695
	O1753	O	0.177352	0.195047	0.010672
	O1754	O	0.200421	0.195021	0.112482
	O1755	O	0.200408	0.310859	0.112506
	O1756	O	0.177356	0.194807	0.112514
	O1757	O	0.177389	0.310738	0.112457
	O1758	O	0.177206	0.310958	0.010542
	O1759	O	0.200407	0.310885	0.010510
	H1760	H	0.150426	0.644190	0.085850
	H1761	H	0.150552	0.860875	0.085725
	H1762	H	0.150551	0.144262	0.085725
	H1763	H	0.150487	0.361080	0.085802
	H1764	H	0.150517	0.861199	0.037431
	H1765	H	0.150467	0.643967	0.037426
	H1766	H	0.150458	0.360975	0.037418
	H1767	H	0.150499	0.143923	0.037427
	H1768	H	0.251419	0.064293	0.060152
	H1769	H	0.250356	0.064370	0.060551
	H1770	H	0.250365	0.941159	0.060541
	H1771	H	0.251449	0.941467	0.060131
	H1772	H	0.252574	0.064672	0.061109
	H1773	H	0.252686	0.941249	0.061129
	H1774	H	0.126165	0.064361	0.060690
	H1775	H	0.126163	0.941275	0.060612
	H1776	H	0.125421	0.064570	0.061040
	H1777	H	0.125515	0.941648	0.061050
	H1778	H	0.125460	0.064807	0.062123
	H1779	H	0.125484	0.941841	0.062170
	H1780	H	0.128148	0.441347	0.062083
	H1781	H	0.127855	0.441097	0.060529
	H1782	H	0.126498	0.441489	0.063545
	H1783	H	0.250441	0.441266	0.063057
	H1784	H	0.249651	0.441612	0.061188
	H1785	H	0.250509	0.441483	0.060007
	H1786	H	0.127807	0.564297	0.060517
	H1787	H	0.128119	0.564816	0.062130
	H1788	H	0.250538	0.564591	0.060085
	H1789	H	0.249643	0.564472	0.061228
	H1790	H	0.250490	0.564179	0.063057
	H1791	H	0.126417	0.564623	0.063504
	H1792	H	0.227211	0.644371	0.085684
	H1793	H	0.227294	0.861342	0.085862
	H1794	H	0.227177	0.144717	0.085674
	H1795	H	0.227246	0.361522	0.085746
	H1796	H	0.164639	0.643872	0.023300
	H1797	H	0.212980	0.644905	0.023198
	H1798	H	0.213074	0.860491	0.023187
	H1799	H	0.164652	0.861185	0.023314
	H1800	H	0.227151	0.644711	0.037350
	H1801	H	0.227238	0.860427	0.037345
	H1802	H	0.213044	0.644103	0.099823
	H1803	H	0.213118	0.861000	0.099999
	H1804	H	0.189527	0.440781	-0.002990
	H1805	H	0.190147	0.441210	0.122367
	H1806	H	0.191011	0.441669	-0.001014
	H1807	H	0.190280	0.441428	0.000626
	H1808	H	0.186742	0.441470	0.123782
	H1809	H	0.187704	0.441350	0.122264
	H1810	H	0.190133	0.564878	0.122381
	H1811	H	0.189535	0.564531	-0.003068
	H1812	H	0.187672	0.564928	0.122269
	H1813	H	0.186749	0.564497	0.123856
	H1814	H	0.190331	0.564561	0.000653
	H1815	H	0.191057	0.564209	-0.001043
	H1816	H	0.213017	0.144745	0.099808
	H1817	H	0.213086	0.361366	0.099892
	H1818	H	0.189448	0.064273	0.000816
	H1819	H	0.190630	0.064494	-0.000279
	H1820	H	0.187402	0.064302	0.000150
	H1821	H	0.164727	0.861117	0.099835
	H1822	H	0.164585	0.644014	0.100000
	H1823	H	0.164645	0.360911	0.099936
	H1824	H	0.164740	0.144291	0.099864
	H1825	H	0.164639	0.144239	0.023277
	H1826	H	0.212994	0.144318	0.023239
	H1827	H	0.213000	0.361622	0.023189
	H1828	H	0.164602	0.361222	0.023272
	H1829	H	0.227133	0.144696	0.037396
	H1830	H	0.227145	0.361647	0.037362
	H1831	H	0.187594	0.064505	0.123310
	H1832	H	0.187533	0.064473	0.124636
	H1833	H	0.189015	0.064435	0.125561
	H1834	H	0.190553	0.940922	-0.000272
	H1835	H	0.189412	0.941245	0.000804
	H1836	H	0.187344	0.941192	0.000200
	H1837	H	0.187585	0.941085	0.123368
	H1838	H	0.187555	0.941388	0.124610
	H1839	H	0.188956	0.941200	0.125555
	Zn1840	Zn	0.126256	0.680148	0.061604
	Zn1841	Zn	0.126354	0.825834	0.061587
	Zn1842	Zn	0.126226	0.180147	0.061643
	Zn1843	Zn	0.126314	0.325777	0.061629
	Zn1844	Zn	0.188882	0.680088	0.124066
	Zn1845	Zn	0.188878	0.825750	0.124010
	Zn1846	Zn	0.188929	0.180147	0.124027
	Zn1847	Zn	0.188865	0.325638	0.124013
	C1848	C	0.236480	0.752803	0.046784
	C1849	C	0.141178	0.752698	0.076359
	C1850	C	0.149702	0.752561	0.084858
	C1851	C	0.153634	0.691266	0.088927
	C1852	C	0.153700	0.813778	0.088857
	C1853	C	0.141098	0.252882	0.076436
	C1854	C	0.149641	0.252702	0.084928
	C1855	C	0.153666	0.191386	0.088905
	C1856	C	0.153633	0.313947	0.088947
	C1857	C	0.141126	0.752708	0.046819
	C1858	C	0.149628	0.752531	0.038294
	C1859	C	0.153648	0.813909	0.034295
	C1860	C	0.153621	0.691143	0.034290
	C1861	C	0.141121	0.252455	0.046833
	C1862	C	0.149649	0.252426	0.038341
	C1863	C	0.153640	0.313802	0.034308
	C1864	C	0.153643	0.191158	0.034310
	C1865	C	0.251002	0.042974	0.060634
	C1866	C	0.251027	0.962473	0.060619
	C1867	C	0.125913	0.043238	0.061081
	C1868	C	0.125952	0.962608	0.061056
	C1869	C	0.125902	0.043503	0.062182
	C1870	C	0.125952	0.962836	0.062166
	C1871	C	0.127536	0.462400	0.061388
	C1872	C	0.251225	0.462447	0.062703
	C1873	C	0.250407	0.462669	0.060858
	C1874	C	0.127535	0.543246	0.061396
	C1875	C	0.250429	0.543313	0.060900
	C1876	C	0.251241	0.543055	0.062720
	C1877	C	0.236597	0.752873	0.076398
	C1878	C	0.236554	0.253115	0.076348
	C1879	C	0.228055	0.752850	0.084886
	C1880	C	0.224044	0.691431	0.088840
	C1881	C	0.224089	0.814160	0.088939
	C1882	C	0.228054	0.253119	0.084885
	C1883	C	0.224039	0.191831	0.088845
	C1884	C	0.224077	0.314413	0.088884
	C1885	C	0.236483	0.253189	0.046737
	C1886	C	0.203627	0.752709	0.013865
	C1887	C	0.174025	0.752750	0.013950
	C1888	C	0.174054	0.752854	0.109226
	C1889	C	0.223991	0.691647	0.034215
	C1890	C	0.224052	0.813567	0.034212
	C1891	C	0.212140	0.752741	0.022385
	C1892	C	0.165505	0.752502	0.022450
	C1893	C	0.161480	0.691079	0.026436
	C1894	C	0.216142	0.691702	0.026361
	C1895	C	0.216202	0.813643	0.026360
	C1896	C	0.161499	0.813978	0.026435
	C1897	C	0.227982	0.752613	0.038250
	C1898	C	0.203661	0.752606	0.109212
	C1899	C	0.216172	0.691370	0.096670
	C1900	C	0.216212	0.813997	0.096767
	C1901	C	0.212147	0.752623	0.100680
	C1902	C	0.190112	0.462657	0.123409
	C1903	C	0.190187	0.462637	-0.000388
	C1904	C	0.187657	0.462598	0.123295
	C1905	C	0.190131	0.543436	0.123402
	C1906	C	0.187665	0.543290	0.123322
	C1907	C	0.190208	0.543109	-0.000399
	C1908	C	0.203699	0.252966	0.109209
	C1909	C	0.216181	0.191797	0.096685
	C1910	C	0.216222	0.314381	0.096731
	C1911	C	0.212195	0.253076	0.100706
	C1912	C	0.189703	0.043101	-0.000055
	C1913	C	0.203596	0.252963	0.013898
	C1914	C	0.174006	0.253029	0.013910
	C1915	C	0.174121	0.252730	0.109169
	C1916	C	0.223990	0.191817	0.034234
	C1917	C	0.223993	0.314558	0.034218
	C1918	C	0.212144	0.253055	0.022371
	C1919	C	0.165508	0.252832	0.022464
	C1920	C	0.165547	0.752535	0.100710
	C1921	C	0.161556	0.813842	0.096704
	C1922	C	0.161483	0.691178	0.096785
	C1923	C	0.165569	0.252596	0.100700
	C1924	C	0.161504	0.313916	0.096779
	C1925	C	0.161539	0.191318	0.096741
	C1926	C	0.161495	0.191287	0.026445
	C1927	C	0.216146	0.191649	0.026369
	C1928	C	0.216156	0.314498	0.026347
	C1929	C	0.161477	0.314118	0.026439
	C1930	C	0.227998	0.253252	0.038217
	C1931	C	0.187928	0.043351	0.124006
	C1932	C	0.187632	0.043162	-0.000699
	C1933	C	0.189669	0.962438	-0.000048
	C1934	C	0.187930	0.962470	0.123982
	C1935	C	0.187606	0.962355	-0.000693
	N1936	N	0.126211	0.070185	0.061629
	N1937	N	0.126274	0.935812	0.061606
	N1938	N	0.126269	0.435744	0.061638
	N1939	N	0.126254	0.570181	0.061605
	N1940	N	0.188848	0.435724	0.124070
	N1941	N	0.188871	0.570144	0.124080
	N1942	N	0.188937	0.070157	0.124027
	N1943	N	0.188929	0.935693	0.124011
	O1944	O	0.239869	0.695072	0.175040
	O1945	O	0.239848	0.811012	0.175004
	O1946	O	0.137910	0.694807	0.198161
	O1947	O	0.137980	0.810713	0.198078
	O1948	O	0.137918	0.194541	0.198148
	O1949	O	0.137920	0.310383	0.198138
	O1950	O	0.137901	0.694939	0.175001
	O1951	O	0.137943	0.810848	0.175057
	O1952	O	0.137974	0.194818	0.175091
	O1953	O	0.137946	0.310721	0.175048
	O1954	O	0.239791	0.694722	0.197972
	O1955	O	0.239899	0.810703	0.198064
	O1956	O	0.239900	0.195116	0.198103
	O1957	O	0.239938	0.310870	0.198071
	O1958	O	0.239894	0.194969	0.175074
	O1959	O	0.239833	0.310654	0.175049
	O1960	O	0.200388	0.694857	0.135564
	O1961	O	0.177247	0.695036	0.135478
	O1962	O	0.200477	0.694917	0.237571
	O1963	O	0.200549	0.810754	0.237653
	O1964	O	0.177486	0.694773	0.237508
	O1965	O	0.177399	0.810704	0.237575
	O1966	O	0.177417	0.810946	0.135614
	O1967	O	0.200305	0.810631	0.135616
	O1968	O	0.200552	0.195012	0.135484
	O1969	O	0.177413	0.194817	0.135543
	O1970	O	0.200440	0.195028	0.237566
	O1971	O	0.200380	0.310646	0.237546
	O1972	O	0.177411	0.194977	0.237587
	O1973	O	0.177470	0.310757	0.237561
	O1974	O	0.177386	0.310753	0.135572
	O1975	O	0.200366	0.310847	0.135611
	H1976	H	0.150486	0.644350	0.210825
	H1977	H	0.150529	0.861065	0.210834
	H1978	H	0.150684	0.144266	0.210719
	H1979	H	0.150647	0.360953	0.210720
	H1980	H	0.150547	0.861034	0.162381
	H1981	H	0.150586	0.644775	0.162367
	H1982	H	0.150557	0.361018	0.162314
	H1983	H	0.150682	0.144504	0.162438
	H1984	H	0.251645	0.064516	0.186590
	H1985	H	0.251531	0.064518	0.186409
	H1986	H	0.251497	0.941427	0.186363
	H1987	H	0.251635	0.941211	0.186502
	H1988	H	0.251496	0.064358	0.186831
	H1989	H	0.251540	0.941225	0.186757
	H1990	H	0.124771	0.063969	0.184770
	H1991	H	0.124694	0.941544	0.184699
	H1992	H	0.123989	0.064718	0.186694
	H1993	H	0.123930	0.940896	0.186683
	H1994	H	0.125646	0.064704	0.188964
	H1995	H	0.125677	0.940830	0.188968
	H1996	H	0.124380	0.441203	0.187795
	H1997	H	0.125948	0.440763	0.188915
	H1998	H	0.124709	0.441269	0.185096
	H1999	H	0.250618	0.440784	0.186045
	H2000	H	0.251685	0.440918	0.185599
	H2001	H	0.252315	0.441636	0.186063
	H2002	H	0.125965	0.564160	0.188872
	H2003	H	0.124344	0.563907	0.187740
	H2004	H	0.252262	0.564198	0.186089
	H2005	H	0.251622	0.564163	0.185587
	H2006	H	0.250642	0.564573	0.186093
	H2007	H	0.124698	0.564494	0.185077
	H2008	H	0.227262	0.644655	0.210725
	H2009	H	0.227257	0.861127	0.210742
	H2010	H	0.227169	0.145445	0.210685
	H2011	H	0.227180	0.360677	0.210674
	H2012	H	0.164694	0.644703	0.148190
	H2013	H	0.212997	0.644720	0.148280
	H2014	H	0.213012	0.860841	0.148238
	H2015	H	0.164704	0.861296	0.148196
	H2016	H	0.227158	0.644792	0.162437
	H2017	H	0.227178	0.860882	0.162358
	H2018	H	0.213190	0.644566	0.224921
	H2019	H	0.213133	0.861018	0.224926
	H2020	H	0.190990	0.441440	0.123999
	H2021	H	0.187511	0.441446	0.248201
	H2022	H	0.189648	0.441249	0.126023
	H2023	H	0.187855	0.441069	0.125967
	H2024	H	0.188915	0.441278	0.250888
	H2025	H	0.187631	0.441456	0.250189
	H2026	H	0.187527	0.564371	0.248162
	H2027	H	0.190993	0.564665	0.123938
	H2028	H	0.187599	0.564370	0.250206
	H2029	H	0.188949	0.564605	0.250905
	H2030	H	0.187908	0.563932	0.125985
	H2031	H	0.189690	0.564299	0.126053
	H2032	H	0.213035	0.145252	0.224859
	H2033	H	0.213041	0.361066	0.224831
	H2034	H	0.190206	0.064570	0.123245
	H2035	H	0.189141	0.064769	0.122508
	H2036	H	0.190140	0.064758	0.124962
	H2037	H	0.164731	0.861051	0.224945
	H2038	H	0.164685	0.644065	0.224934
	H2039	H	0.164812	0.360913	0.224870
	H2040	H	0.164810	0.144403	0.224861
	H2041	H	0.164856	0.144666	0.148309
	H2042	H	0.213259	0.144540	0.148074
	H2043	H	0.213068	0.361523	0.148188
	H2044	H	0.164739	0.360887	0.148205
	H2045	H	0.227364	0.144437	0.162266
	H2046	H	0.227176	0.361341	0.162371
	H2047	H	0.189084	0.064184	0.248862
	H2048	H	0.188844	0.064365	0.248889
	H2049	H	0.188759	0.064714	0.249220
	H2050	H	0.189143	0.941560	0.122525
	H2051	H	0.190196	0.941707	0.123203
	H2052	H	0.190161	0.941643	0.124964
	H2053	H	0.188982	0.941319	0.248858
	H2054	H	0.188800	0.941154	0.248955
	H2055	H	0.188817	0.941325	0.249228
	Zn2056	Zn	0.126446	0.680204	0.186590
	Zn2057	Zn	0.126433	0.825775	0.186567
	Zn2058	Zn	0.126414	0.180157	0.186617
	Zn2059	Zn	0.126411	0.325752	0.186611
	Zn2060	Zn	0.188991	0.679990	0.249098
	Zn2061	Zn	0.188928	0.825780	0.249121
	Zn2062	Zn	0.189006	0.180164	0.249111
	Zn2063	Zn	0.188943	0.325860	0.249122
	C2064	C	0.236566	0.752965	0.171745
	C2065	C	0.141232	0.752758	0.201406
	C2066	C	0.149762	0.752774	0.209934
	C2067	C	0.153710	0.691347	0.213949
	C2068	C	0.153747	0.814061	0.213947
	C2069	C	0.141225	0.252488	0.201420
	C2070	C	0.149719	0.252634	0.209939
	C2071	C	0.153773	0.191440	0.213900
	C2072	C	0.153766	0.313850	0.213907
	C2073	C	0.141206	0.752917	0.171760
	C2074	C	0.149765	0.752854	0.163260
	C2075	C	0.153724	0.814125	0.159244
	C2076	C	0.153760	0.691660	0.159248
	C2077	C	0.141232	0.252749	0.171772
	C2078	C	0.149734	0.252739	0.163230
	C2079	C	0.153717	0.313998	0.159202
	C2080	C	0.153796	0.191561	0.159270
	C2081	C	0.251546	0.043355	0.186509
	C2082	C	0.251526	0.962460	0.186476
	C2083	C	0.124898	0.043183	0.185959
	C2084	C	0.124867	0.962336	0.185953
	C2085	C	0.126632	0.043364	0.188239
	C2086	C	0.126642	0.962462	0.188252
	C2087	C	0.125498	0.462429	0.187869
	C2088	C	0.250814	0.462291	0.186475
	C2089	C	0.251832	0.462402	0.186020
	C2090	C	0.125502	0.542991	0.187869
	C2091	C	0.251824	0.542921	0.186024
	C2092	C	0.250818	0.543206	0.186493
	C2093	C	0.236572	0.752791	0.201316
	C2094	C	0.236604	0.253061	0.201349
	C2095	C	0.228081	0.752915	0.209844
	C2096	C	0.224104	0.691697	0.213854
	C2097	C	0.224093	0.814133	0.213863
	C2098	C	0.228057	0.253089	0.209854
	C2099	C	0.224041	0.192228	0.213858
	C2100	C	0.224058	0.313979	0.213855
	C2101	C	0.236568	0.252719	0.171776
	C2102	C	0.203633	0.752768	0.138874
	C2103	C	0.174059	0.753002	0.138834
	C2104	C	0.174156	0.752697	0.234264
	C2105	C	0.224018	0.691670	0.159265
	C2106	C	0.224037	0.813930	0.159225
	C2107	C	0.212149	0.752788	0.147401
	C2108	C	0.165601	0.753010	0.147403
	C2109	C	0.161606	0.691667	0.151391
	C2110	C	0.216147	0.691633	0.151429
	C2111	C	0.216163	0.813876	0.151383
	C2112	C	0.161579	0.814288	0.151382
	C2113	C	0.228045	0.752849	0.163223
	C2114	C	0.203802	0.752795	0.234314
	C2115	C	0.216303	0.691636	0.221759
	C2116	C	0.216285	0.814013	0.221763
	C2117	C	0.212282	0.752748	0.225766
	C2118	C	0.188370	0.462563	0.248128
	C2119	C	0.188791	0.462434	0.125492
	C2120	C	0.188466	0.462428	0.250161
	C2121	C	0.188372	0.543237	0.248118
	C2122	C	0.188455	0.543254	0.250178
	C2123	C	0.188824	0.543104	0.125502
	C2124	C	0.203658	0.252918	0.234233
	C2125	C	0.216175	0.192131	0.221702
	C2126	C	0.216191	0.314095	0.221703
	C2127	C	0.212167	0.253126	0.225693
	C2128	C	0.189489	0.043340	0.123191
	C2129	C	0.203745	0.252989	0.138831
	C2130	C	0.174100	0.252691	0.138824
	C2131	C	0.174162	0.252878	0.234276
	C2132	C	0.224150	0.191620	0.159174
	C2133	C	0.224042	0.314215	0.159230
	C2134	C	0.212236	0.252994	0.147366
	C2135	C	0.165588	0.252696	0.147359
	C2136	C	0.165645	0.752634	0.225761
	C2137	C	0.161608	0.813922	0.221793
	C2138	C	0.161578	0.691298	0.221782
	C2139	C	0.165600	0.252763	0.225789
	C2140	C	0.161622	0.313971	0.221759
	C2141	C	0.161619	0.191494	0.221756
	C2142	C	0.161653	0.191515	0.151414
	C2143	C	0.216321	0.191663	0.151303
	C2144	C	0.216202	0.314346	0.151361
	C2145	C	0.161587	0.314004	0.151352
	C2146	C	0.228058	0.252846	0.163267
	C2147	C	0.188960	0.043108	0.248949
	C2148	C	0.189398	0.043378	0.124949
	C2149	C	0.189487	0.962864	0.123177
	C2150	C	0.188942	0.962605	0.248972
	C2151	C	0.189388	0.962632	0.124928
	N2152	N	0.126439	0.069976	0.186593
	N2153	N	0.126426	0.935575	0.186575
	N2154	N	0.126406	0.435622	0.186636
	N2155	N	0.126426	0.570043	0.186626
	N2156	N	0.189011	0.435712	0.249128
	N2157	N	0.189016	0.570066	0.249129
	N2158	N	0.189020	0.070200	0.249111
	N2159	N	0.188997	0.935788	0.249123
	O2160	O	0.239951	0.695173	0.300044
	O2161	O	0.239844	0.810999	0.300126
	O2162	O	0.137960	0.694415	0.323076
	O2163	O	0.137904	0.810460	0.323150
	O2164	O	0.137953	0.194884	0.323171
	O2165	O	0.137945	0.310772	0.323178
	O2166	O	0.138005	0.694477	0.300089
	O2167	O	0.137956	0.810402	0.300009
	O2168	O	0.137995	0.194878	0.300155
	O2169	O	0.137931	0.310855	0.300068
	O2170	O	0.239845	0.694722	0.323112
	O2171	O	0.239788	0.810670	0.323067
	O2172	O	0.239764	0.194674	0.323070
	O2173	O	0.239866	0.310687	0.323115
	O2174	O	0.239948	0.195208	0.300090
	O2175	O	0.239915	0.310986	0.300061
	O2176	O	0.200412	0.695202	0.260711
	O2177	O	0.177512	0.694779	0.260651
	O2178	O	0.200461	0.694545	0.362692
	O2179	O	0.200411	0.810413	0.362589
	O2180	O	0.177405	0.694389	0.362580
	O2181	O	0.177378	0.810296	0.362567
	O2182	O	0.177401	0.810696	0.260605
	O2183	O	0.200494	0.811057	0.260625
	O2184	O	0.200429	0.195032	0.260684
	O2185	O	0.177360	0.195254	0.260506
	O2186	O	0.200489	0.194683	0.362677
	O2187	O	0.200449	0.310567	0.362615
	O2188	O	0.177399	0.194964	0.362615
	O2189	O	0.177492	0.310691	0.362502
	O2190	O	0.177323	0.310978	0.260582
	O2191	O	0.200359	0.310694	0.260688
	H2192	H	0.150583	0.643829	0.335771
	H2193	H	0.150526	0.860553	0.335804
	H2194	H	0.150601	0.144514	0.335847
	H2195	H	0.150614	0.360836	0.335759
	H2196	H	0.150597	0.860789	0.287357
	H2197	H	0.150612	0.644097	0.287359
	H2198	H	0.150541	0.361266	0.287414
	H2199	H	0.150599	0.144336	0.287381
	H2200	H	0.252274	0.064654	0.311572
	H2201	H	0.251976	0.064242	0.310943
	H2202	H	0.251952	0.941302	0.310966
	H2203	H	0.252247	0.941061	0.311563
	H2204	H	0.251752	0.063528	0.312388
	H2205	H	0.251732	0.940935	0.312361
	H2206	H	0.126279	0.064551	0.312210
	H2207	H	0.126290	0.941561	0.312187
	H2208	H	0.126767	0.064682	0.312135
	H2209	H	0.126826	0.941352	0.312118
	H2210	H	0.127050	0.064959	0.311468
	H2211	H	0.127114	0.941376	0.311394
	H2212	H	0.126835	0.441923	0.310881
	H2213	H	0.126086	0.441658	0.310807
	H2214	H	0.127244	0.441653	0.311740
	H2215	H	0.251554	0.441208	0.312718
	H2216	H	0.250418	0.441008	0.312043
	H2217	H	0.250375	0.441026	0.311112
	H2218	H	0.126130	0.564537	0.310760
	H2219	H	0.126826	0.564513	0.310844
	H2220	H	0.250413	0.564467	0.311091
	H2221	H	0.250348	0.564110	0.312026
	H2222	H	0.251575	0.564114	0.312723
	H2223	H	0.127230	0.564513	0.311715
	H2224	H	0.227209	0.644067	0.335785
	H2225	H	0.227179	0.861112	0.335806
	H2226	H	0.227126	0.144222	0.335673
	H2227	H	0.227145	0.360889	0.335753
	H2228	H	0.164769	0.644027	0.273250
	H2229	H	0.213074	0.645364	0.273296
	H2230	H	0.213076	0.861245	0.273374
	H2231	H	0.164789	0.860669	0.273222
	H2232	H	0.227245	0.645437	0.287423
	H2233	H	0.227230	0.860924	0.287510
	H2234	H	0.213076	0.643747	0.349958
	H2235	H	0.213086	0.860839	0.349983
	H2236	H	0.188766	0.441256	0.247383
	H2237	H	0.187214	0.440965	0.374183
	H2238	H	0.190519	0.441410	0.248309
	H2239	H	0.190626	0.441307	0.249770
	H2240	H	0.189759	0.441322	0.375552
	H2241	H	0.188370	0.441200	0.375747
	H2242	H	0.187244	0.564197	0.374222
	H2243	H	0.188775	0.564452	0.247355
	H2244	H	0.188348	0.564492	0.375726
	H2245	H	0.189801	0.564308	0.375604
	H2246	H	0.190632	0.564398	0.249765
	H2247	H	0.190555	0.564541	0.248301
	H2248	H	0.213000	0.143990	0.349861
	H2249	H	0.213024	0.360832	0.349944
	H2250	H	0.189190	0.064414	0.249268
	H2251	H	0.189269	0.064201	0.249046
	H2252	H	0.188895	0.064737	0.249361
	H2253	H	0.164702	0.860586	0.349920
	H2254	H	0.164750	0.643904	0.349915
	H2255	H	0.164803	0.360841	0.349883
	H2256	H	0.164751	0.144730	0.349974
	H2257	H	0.164720	0.144503	0.273215
	H2258	H	0.213111	0.144910	0.273331
	H2259	H	0.213087	0.360994	0.273269
	H2260	H	0.164707	0.361244	0.273267
	H2261	H	0.227234	0.144926	0.287490
	H2262	H	0.227246	0.361088	0.287375
	H2263	H	0.187903	0.064748	0.375302
	H2264	H	0.189118	0.064836	0.375599
	H2265	H	0.190357	0.064368	0.374397
	H2266	H	0.189204	0.941253	0.249034
	H2267	H	0.189194	0.941426	0.249222
	H2268	H	0.189001	0.941403	0.249328
	H2269	H	0.187924	0.941394	0.375332
	H2270	H	0.189130	0.941392	0.375621
	H2271	H	0.190326	0.941091	0.374394
	Zn2272	Zn	0.126384	0.680272	0.311558
	Zn2273	Zn	0.126477	0.825682	0.311576
	Zn2274	Zn	0.126412	0.180343	0.311622
	Zn2275	Zn	0.126457	0.325771	0.311634
	Zn2276	Zn	0.188873	0.679991	0.374166
	Zn2277	Zn	0.188869	0.825645	0.374106
	Zn2278	Zn	0.188874	0.179979	0.374143
	Zn2279	Zn	0.188885	0.325640	0.374116
	C2280	C	0.236597	0.753077	0.296823
	C2281	C	0.141188	0.752362	0.326433
	C2282	C	0.149676	0.752220	0.334960
	C2283	C	0.153715	0.690918	0.338934
	C2284	C	0.153687	0.813507	0.338943
	C2285	C	0.141229	0.252811	0.326468
	C2286	C	0.149725	0.252744	0.335000
	C2287	C	0.153741	0.191565	0.338998
	C2288	C	0.153743	0.313921	0.338956
	C2289	C	0.141249	0.752414	0.296735
	C2290	C	0.149759	0.752437	0.288218
	C2291	C	0.153760	0.813724	0.284210
	C2292	C	0.153769	0.691175	0.284231
	C2293	C	0.141220	0.252815	0.296788
	C2294	C	0.149736	0.252878	0.288272
	C2295	C	0.153729	0.314167	0.284288
	C2296	C	0.153760	0.191562	0.284264
	C2297	C	0.251953	0.043214	0.311367
	C2298	C	0.251931	0.962268	0.311366
	C2299	C	0.126509	0.043290	0.312011
	C2300	C	0.126543	0.962625	0.311992
	C2301	C	0.126774	0.043470	0.311318
	C2302	C	0.126801	0.962692	0.311295
	C2303	C	0.126476	0.462809	0.311035
	C2304	C	0.251821	0.462411	0.312225
	C2305	C	0.250673	0.462287	0.311558
	C2306	C	0.126461	0.543307	0.311020
	C2307	C	0.250668	0.542985	0.311544
	C2308	C	0.251836	0.543055	0.312223
	C2309	C	0.236528	0.752652	0.326371
	C2310	C	0.236524	0.252732	0.326369
	C2311	C	0.228044	0.752539	0.334927
	C2312	C	0.224068	0.691069	0.338954
	C2313	C	0.224052	0.813893	0.338961
	C2314	C	0.228054	0.252599	0.334926
	C2315	C	0.224042	0.191305	0.338907
	C2316	C	0.224056	0.313820	0.338950
	C2317	C	0.236661	0.253024	0.296769
	C2318	C	0.203720	0.753169	0.263968
	C2319	C	0.174152	0.752631	0.263889
	C2320	C	0.174072	0.752300	0.359319
	C2321	C	0.224097	0.692219	0.284287
	C2322	C	0.224078	0.814178	0.284345
	C2323	C	0.212254	0.753305	0.272465
	C2324	C	0.165626	0.752433	0.272375
	C2325	C	0.161627	0.691104	0.276383
	C2326	C	0.216252	0.692234	0.276428
	C2327	C	0.216244	0.814325	0.276477
	C2328	C	0.161625	0.813726	0.276371
	C2329	C	0.228095	0.753166	0.288316
	C2330	C	0.203724	0.752415	0.359356
	C2331	C	0.216226	0.690953	0.346819
	C2332	C	0.216218	0.813746	0.346830
	C2333	C	0.212238	0.752279	0.350850
	C2334	C	0.187864	0.462445	0.373694
	C2335	C	0.190165	0.462633	0.249057
	C2336	C	0.189014	0.462430	0.375248
	C2337	C	0.187860	0.543048	0.373687
	C2338	C	0.189010	0.543077	0.375261
	C2339	C	0.190188	0.543228	0.249055
	C2340	C	0.203743	0.252543	0.359345
	C2341	C	0.216213	0.191076	0.346786
	C2342	C	0.216223	0.313731	0.346823
	C2343	C	0.212264	0.252345	0.350843
	C2344	C	0.189180	0.043249	0.249161
	C2345	C	0.203692	0.252909	0.263949
	C2346	C	0.174037	0.252956	0.263816
	C2347	C	0.174156	0.252795	0.359286
	C2348	C	0.224118	0.191774	0.284295
	C2349	C	0.224090	0.314102	0.284267
	C2350	C	0.212236	0.252874	0.272439
	C2351	C	0.165541	0.252959	0.272354
	C2352	C	0.165539	0.752320	0.350809
	C2353	C	0.161550	0.813505	0.346783
	C2354	C	0.161577	0.691011	0.346783
	C2355	C	0.165600	0.252820	0.350821
	C2356	C	0.161613	0.313912	0.346790
	C2357	C	0.161605	0.191610	0.346834
	C2358	C	0.161567	0.191595	0.276367
	C2359	C	0.216253	0.191781	0.276464
	C2360	C	0.216223	0.314057	0.276432
	C2361	C	0.161544	0.314226	0.276395
	C2362	C	0.228128	0.252941	0.288260
	C2363	C	0.188626	0.043405	0.375123
	C2364	C	0.188893	0.043441	0.249233
	C2365	C	0.189155	0.962529	0.249128
	C2366	C	0.188610	0.962402	0.375122
	C2367	C	0.188911	0.962559	0.249244
	N2368	N	0.126414	0.070216	0.311607
	N2369	N	0.126473	0.935753	0.311566
	N2370	N	0.126405	0.435762	0.311621
	N2371	N	0.126401	0.570153	0.311581
	N2372	N	0.188907	0.435555	0.374109
	N2373	N	0.188908	0.569945	0.374132
	N2374	N	0.188860	0.069981	0.374140
	N2375	N	0.188856	0.935563	0.374129
	O2376	O	0.239880	0.694943	0.425043
	O2377	O	0.239823	0.811062	0.425105
	O2378	O	0.137992	0.695069	0.448153
	O2379	O	0.137809	0.811023	0.448195
	O2380	O	0.137902	0.195249	0.448209
	O2381	O	0.137832	0.311183	0.448191
	O2382	O	0.137996	0.695005	0.425157
	O2383	O	0.137925	0.810855	0.425103
	O2384	O	0.137990	0.195165	0.425166
	O2385	O	0.137897	0.311058	0.425055
	O2386	O	0.239798	0.694917	0.448219
	O2387	O	0.239746	0.811122	0.448183
	O2388	O	0.239726	0.194926	0.448197
	O2389	O	0.239718	0.311104	0.448128
	O2390	O	0.239841	0.195164	0.425074
	O2391	O	0.239821	0.311032	0.425063
	O2392	O	0.200321	0.694677	0.385751
	O2393	O	0.177338	0.694863	0.385676
	O2394	O	0.200365	0.695030	0.487670
	O2395	O	0.200352	0.811090	0.487771
	O2396	O	0.177332	0.695003	0.487629
	O2397	O	0.177266	0.811266	0.487662
	O2398	O	0.177397	0.810800	0.385670
	O2399	O	0.200304	0.810763	0.385720
	O2400	O	0.200383	0.194775	0.385707
	O2401	O	0.177286	0.194946	0.385588
	O2402	O	0.200396	0.194547	0.487715
	O2403	O	0.200373	0.310640	0.487743
	O2404	O	0.177337	0.195506	0.487616
	O2405	O	0.177314	0.311371	0.487694
	O2406	O	0.177442	0.310704	0.385693
	O2407	O	0.200274	0.310756	0.385740
	H2408	H	0.150596	0.644878	0.460773
	H2409	H	0.150596	0.861893	0.460750
	H2410	H	0.150526	0.144936	0.460858
	H2411	H	0.150495	0.362040	0.460854
	H2412	H	0.150703	0.861148	0.412559
	H2413	H	0.150569	0.644742	0.412479
	H2414	H	0.150586	0.361241	0.412476
	H2415	H	0.150642	0.145035	0.412513
	H2416	H	0.252894	0.064798	0.435865
	H2417	H	0.251756	0.064188	0.434870
	H2418	H	0.251732	0.941583	0.434952
	H2419	H	0.252880	0.941050	0.435907
	H2420	H	0.252542	0.064378	0.437891
	H2421	H	0.252468	0.941096	0.437860
	H2422	H	0.125270	0.064398	0.435634
	H2423	H	0.125281	0.941109	0.435634
	H2424	H	0.124880	0.064198	0.436842
	H2425	H	0.124880	0.941584	0.436798
	H2426	H	0.126018	0.064640	0.438006
	H2427	H	0.125979	0.941275	0.438023
	H2428	H	0.126793	0.441281	0.436787
	H2429	H	0.126820	0.441329	0.436393
	H2430	H	0.126300	0.441563	0.437043
	H2431	H	0.250900	0.441025	0.436633
	H2432	H	0.251199	0.441560	0.436240
	H2433	H	0.251550	0.441327	0.436300
	H2434	H	0.126875	0.564317	0.436379
	H2435	H	0.126871	0.564943	0.436824
	H2436	H	0.251508	0.564718	0.436271
	H2437	H	0.251158	0.564690	0.436266
	H2438	H	0.250893	0.564251	0.436646
	H2439	H	0.126383	0.564563	0.437105
	H2440	H	0.227096	0.644897	0.460853
	H2441	H	0.227196	0.861248	0.460897
	H2442	H	0.227233	0.144645	0.460975
	H2443	H	0.227167	0.361425	0.460861
	H2444	H	0.164738	0.644606	0.398365
	H2445	H	0.213029	0.644441	0.398314
	H2446	H	0.212925	0.861446	0.398387
	H2447	H	0.164876	0.861306	0.398417
	H2448	H	0.227260	0.644560	0.412406
	H2449	H	0.227136	0.861406	0.412495
	H2450	H	0.212995	0.644986	0.475051
	H2451	H	0.213060	0.861442	0.475088
	H2452	H	0.187788	0.441412	0.372918
	H2453	H	0.190123	0.441563	0.499399
	H2454	H	0.189668	0.440875	0.372703
	H2455	H	0.190516	0.441073	0.373774
	H2456	H	0.188319	0.441766	0.498026
	H2457	H	0.189391	0.441325	0.498064
	H2458	H	0.190127	0.564361	0.499380
	H2459	H	0.187784	0.564071	0.372848
	H2460	H	0.189434	0.564958	0.498053
	H2461	H	0.188362	0.564589	0.498034
	H2462	H	0.190566	0.564207	0.373817
	H2463	H	0.189725	0.564238	0.372652
	H2464	H	0.213090	0.144411	0.475141
	H2465	H	0.212998	0.361508	0.475021
	H2466	H	0.188323	0.063838	0.372723
	H2467	H	0.187487	0.063976	0.373670
	H2468	H	0.189961	0.064015	0.373211
	H2469	H	0.164707	0.861777	0.474960
	H2470	H	0.164692	0.644515	0.474967
	H2471	H	0.164694	0.361692	0.474952
	H2472	H	0.164694	0.145129	0.474919
	H2473	H	0.164787	0.144736	0.398392
	H2474	H	0.213103	0.144929	0.398277
	H2475	H	0.212914	0.360843	0.398363
	H2476	H	0.164726	0.361456	0.398324
	H2477	H	0.227275	0.144774	0.412388
	H2478	H	0.227118	0.361298	0.412474
	H2479	H	0.189994	0.064486	0.499229
	H2480	H	0.189590	0.064495	0.498294
	H2481	H	0.188147	0.064826	0.498158
	H2482	H	0.187479	0.941658	0.373636
	H2483	H	0.188334	0.940962	0.372737
	H2484	H	0.190013	0.940884	0.373219
	H2485	H	0.189993	0.941275	0.499282
	H2486	H	0.189576	0.941652	0.498345
	H2487	H	0.188123	0.941617	0.498199
	Zn2488	Zn	0.126467	0.680235	0.436639
	Zn2489	Zn	0.126351	0.825611	0.436612
	Zn2490	Zn	0.126427	0.180195	0.436634
	Zn2491	Zn	0.126322	0.325634	0.436592
	Zn2492	Zn	0.188833	0.680059	0.499180
	Zn2493	Zn	0.188747	0.825755	0.499283
	Zn2494	Zn	0.188829	0.180133	0.499156
	Zn2495	Zn	0.188809	0.325829	0.499260
	C2496	C	0.236544	0.752984	0.421822
	C2497	C	0.141157	0.753230	0.451482
	C2498	C	0.149623	0.753417	0.460045
	C2499	C	0.153667	0.692007	0.464005
	C2500	C	0.153662	0.814723	0.463986
	C2501	C	0.141170	0.253321	0.451463
	C2502	C	0.149650	0.253526	0.460013
	C2503	C	0.153652	0.192155	0.464001
	C2504	C	0.153649	0.314839	0.464001
	C2505	C	0.141235	0.752944	0.421838
	C2506	C	0.149757	0.752938	0.413330
	C2507	C	0.153821	0.814212	0.409379
	C2508	C	0.153747	0.691658	0.409355
	C2509	C	0.141227	0.253099	0.421825
	C2510	C	0.149742	0.253126	0.413333
	C2511	C	0.153746	0.314317	0.409334
	C2512	C	0.153791	0.191967	0.409368
	C2513	C	0.252040	0.043291	0.435710
	C2514	C	0.252035	0.962442	0.435744
	C2515	C	0.125411	0.043193	0.436324
	C2516	C	0.125400	0.962586	0.436315
	C2517	C	0.126561	0.043317	0.437552
	C2518	C	0.126518	0.962359	0.437564
	C2519	C	0.126695	0.462513	0.436597
	C2520	C	0.251088	0.462337	0.436748
	C2521	C	0.251374	0.462633	0.436362
	C2522	C	0.126726	0.543319	0.436604
	C2523	C	0.251344	0.543392	0.436357
	C2524	C	0.251084	0.543229	0.436733
	C2525	C	0.236501	0.753014	0.451498
	C2526	C	0.236439	0.253094	0.451442
	C2527	C	0.228010	0.753045	0.460057
	C2528	C	0.223985	0.691883	0.464043
	C2529	C	0.224034	0.814302	0.464060
	C2530	C	0.227954	0.253053	0.460008
	C2531	C	0.224026	0.191703	0.464085
	C2532	C	0.224006	0.314397	0.464025
	C2533	C	0.236548	0.253099	0.421785
	C2534	C	0.203576	0.752752	0.389029
	C2535	C	0.174091	0.752898	0.388950
	C2536	C	0.174012	0.753103	0.484368
	C2537	C	0.224040	0.691679	0.409300
	C2538	C	0.223983	0.814339	0.409346
	C2539	C	0.212102	0.752949	0.397535
	C2540	C	0.165604	0.752920	0.397493
	C2541	C	0.161593	0.691635	0.401498
	C2542	C	0.216149	0.691615	0.401482
	C2543	C	0.216094	0.814359	0.401525
	C2544	C	0.161675	0.814277	0.401530
	C2545	C	0.227996	0.752969	0.413332
	C2546	C	0.203644	0.753172	0.484439
	C2547	C	0.216151	0.692055	0.471921
	C2548	C	0.216199	0.814345	0.471943
	C2549	C	0.212185	0.753251	0.475951
	C2550	C	0.189585	0.462587	0.499679
	C2551	C	0.189789	0.462289	0.373474
	C2552	C	0.188876	0.462751	0.498361
	C2553	C	0.189584	0.543231	0.499663
	C2554	C	0.188897	0.543551	0.498364
	C2555	C	0.189808	0.543112	0.373474
	C2556	C	0.203673	0.252694	0.484453
	C2557	C	0.216202	0.191678	0.471966
	C2558	C	0.216175	0.314317	0.471902
	C2559	C	0.212177	0.252983	0.475936
	C2560	C	0.188153	0.042897	0.373459
	C2561	C	0.203617	0.252845	0.388993
	C2562	C	0.174089	0.252910	0.388948
	C2563	C	0.174043	0.253499	0.484357
	C2564	C	0.224053	0.191775	0.409294
	C2565	C	0.223966	0.314268	0.409336
	C2566	C	0.212112	0.252919	0.397514
	C2567	C	0.165596	0.253083	0.397480
	C2568	C	0.165466	0.753088	0.475881
	C2569	C	0.161524	0.814617	0.471833
	C2570	C	0.161521	0.691692	0.471848
	C2571	C	0.165497	0.253463	0.475870
	C2572	C	0.161502	0.314788	0.471857
	C2573	C	0.161492	0.192159	0.471857
	C2574	C	0.161627	0.191920	0.401513
	C2575	C	0.216187	0.191850	0.401464
	C2576	C	0.216088	0.314064	0.401515
	C2577	C	0.161587	0.314351	0.401477
	C2578	C	0.227998	0.253111	0.413314
	C2579	C	0.189511	0.043418	0.498893
	C2580	C	0.189834	0.043030	0.373902
	C2581	C	0.188156	0.962449	0.373443
	C2582	C	0.189504	0.962680	0.498908
	C2583	C	0.189827	0.962392	0.373896
	N2584	N	0.126336	0.070098	0.436591
	N2585	N	0.126311	0.935674	0.436601
	N2586	N	0.126363	0.435595	0.436600
	N2587	N	0.126432	0.570057	0.436614
	N2588	N	0.188825	0.435665	0.499210
	N2589	N	0.188855	0.570051	0.499193
	N2590	N	0.188774	0.070060	0.499214
	N2591	N	0.188751	0.935657	0.499262
	O2592	O	0.239855	0.694820	0.550201
	O2593	O	0.239863	0.810595	0.550133
	O2594	O	0.137828	0.695096	0.573286
	O2595	O	0.137863	0.810935	0.573236
	O2596	O	0.137859	0.194641	0.573295
	O2597	O	0.137947	0.310772	0.573140
	O2598	O	0.137824	0.694888	0.550220
	O2599	O	0.137938	0.810669	0.550218
	O2600	O	0.137795	0.194966	0.550200
	O2601	O	0.138019	0.310935	0.550253
	O2602	O	0.239797	0.695335	0.573225
	O2603	O	0.239881	0.811190	0.573233
	O2604	O	0.239876	0.195001	0.573302
	O2605	O	0.239799	0.311055	0.573223
	O2606	O	0.239865	0.194450	0.550163
	O2607	O	0.239845	0.310422	0.550185
	O2608	O	0.200309	0.694583	0.510791
	O2609	O	0.177264	0.694491	0.510695
	O2610	O	0.200294	0.695189	0.612631
	O2611	O	0.200344	0.811075	0.612661
	O2612	O	0.177257	0.694952	0.612747
	O2613	O	0.177271	0.810937	0.612739
	O2614	O	0.177290	0.810486	0.510791
	O2615	O	0.200284	0.810595	0.510789
	O2616	O	0.200393	0.194298	0.510714
	O2617	O	0.177305	0.194930	0.510739
	O2618	O	0.200346	0.195027	0.612722
	O2619	O	0.200334	0.311144	0.612675
	O2620	O	0.177269	0.194949	0.612790
	O2621	O	0.177338	0.310933	0.612672
	O2622	O	0.177260	0.310546	0.510731
	O2623	O	0.200315	0.310378	0.510774
	H2624	H	0.150491	0.644662	0.585919
	H2625	H	0.150501	0.861255	0.585902
	H2626	H	0.150586	0.144273	0.585852
	H2627	H	0.150487	0.361018	0.585920
	H2628	H	0.150533	0.860194	0.537560
	H2629	H	0.150550	0.644523	0.537610
	H2630	H	0.150495	0.360751	0.537570
	H2631	H	0.150575	0.144562	0.537648
	H2632	H	0.250723	0.064529	0.558523
	H2633	H	0.248549	0.064234	0.560124
	H2634	H	0.248533	0.941191	0.560175
	H2635	H	0.250654	0.941289	0.558494
	H2636	H	0.254109	0.064560	0.559985
	H2637	H	0.254128	0.941227	0.559918
	H2638	H	0.127091	0.065036	0.563529
	H2639	H	0.127059	0.941660	0.563494
	H2640	H	0.128178	0.064870	0.562278
	H2641	H	0.128194	0.941619	0.562325
	H2642	H	0.127445	0.064184	0.560144
	H2643	H	0.127527	0.941269	0.560099
	H2644	H	0.126519	0.441197	0.561019
	H2645	H	0.125952	0.441033	0.561150
	H2646	H	0.126991	0.441429	0.561583
	H2647	H	0.251017	0.441325	0.561958
	H2648	H	0.250972	0.441472	0.561495
	H2649	H	0.251267	0.441830	0.561298
	H2650	H	0.125974	0.564358	0.561214
	H2651	H	0.126469	0.564337	0.561053
	H2652	H	0.251239	0.564852	0.561306
	H2653	H	0.250956	0.564772	0.561504
	H2654	H	0.251040	0.564119	0.562008
	H2655	H	0.126936	0.564454	0.561627
	H2656	H	0.227132	0.645097	0.585907
	H2657	H	0.227227	0.861621	0.585857
	H2658	H	0.227223	0.144097	0.585979
	H2659	H	0.227171	0.361812	0.585893
	H2660	H	0.164689	0.644415	0.523438
	H2661	H	0.213059	0.644725	0.523382
	H2662	H	0.212952	0.860351	0.523388
	H2663	H	0.164668	0.860235	0.523400
	H2664	H	0.227273	0.644765	0.537475
	H2665	H	0.227165	0.860706	0.537475
	H2666	H	0.212989	0.644981	0.600025
	H2667	H	0.213069	0.861739	0.600012
	H2668	H	0.189582	0.440816	0.500262
	H2669	H	0.188577	0.441950	0.624648
	H2670	H	0.188092	0.440730	0.500254
	H2671	H	0.187556	0.441741	0.499306
	H2672	H	0.189278	0.441350	0.624249
	H2673	H	0.189119	0.441650	0.624604
	H2674	H	0.188584	0.564305	0.624639
	H2675	H	0.189547	0.564591	0.500294
	H2676	H	0.189108	0.564862	0.624634
	H2677	H	0.189257	0.564596	0.624276
	H2678	H	0.187603	0.564285	0.499325
	H2679	H	0.188085	0.564483	0.500211
	H2680	H	0.213082	0.144096	0.600120
	H2681	H	0.213009	0.361869	0.600048
	H2682	H	0.188187	0.064366	0.500279
	H2683	H	0.189171	0.064369	0.500375
	H2684	H	0.187588	0.064802	0.499004
	H2685	H	0.164677	0.861410	0.600030
	H2686	H	0.164643	0.644833	0.600063
	H2687	H	0.164640	0.361160	0.600105
	H2688	H	0.164715	0.144368	0.600010
	H2689	H	0.164744	0.144808	0.523485
	H2690	H	0.213025	0.144377	0.523391
	H2691	H	0.213033	0.360405	0.523373
	H2692	H	0.164638	0.360674	0.523402
	H2693	H	0.227177	0.144112	0.537537
	H2694	H	0.227200	0.360665	0.537556
	H2695	H	0.189718	0.064636	0.624775
	H2696	H	0.189781	0.064717	0.623935
	H2697	H	0.188865	0.064173	0.623220
	H2698	H	0.189180	0.941584	0.500460
	H2699	H	0.188124	0.941203	0.500357
	H2700	H	0.187532	0.941112	0.499033
	H2701	H	0.189693	0.941605	0.624768
	H2702	H	0.189789	0.940999	0.623903
	H2703	H	0.188810	0.941470	0.623176
	Zn2704	Zn	0.126311	0.679932	0.561790
	Zn2705	Zn	0.126386	0.825757	0.561701
	Zn2706	Zn	0.126280	0.180142	0.561774
	Zn2707	Zn	0.126408	0.325679	0.561663
	Zn2708	Zn	0.188821	0.680236	0.624206
	Zn2709	Zn	0.188815	0.825629	0.624210
	Zn2710	Zn	0.188858	0.180038	0.624240
	Zn2711	Zn	0.188828	0.325651	0.624236
	C2712	C	0.236562	0.752680	0.546888
	C2713	C	0.141118	0.753030	0.576539
	C2714	C	0.149603	0.752904	0.585092
	C2715	C	0.153607	0.691685	0.589089
	C2716	C	0.153610	0.814273	0.589077
	C2717	C	0.141178	0.252787	0.576517
	C2718	C	0.149688	0.252718	0.585055
	C2719	C	0.153705	0.191409	0.589026
	C2720	C	0.153670	0.314002	0.589061
	C2721	C	0.141157	0.752574	0.546931
	C2722	C	0.149657	0.752343	0.538411
	C2723	C	0.153672	0.813367	0.534421
	C2724	C	0.153690	0.691325	0.534442
	C2725	C	0.141198	0.252701	0.546964
	C2726	C	0.149690	0.252585	0.538435
	C2727	C	0.153650	0.313789	0.534425
	C2728	C	0.153705	0.191434	0.534475
	C2729	C	0.250097	0.043163	0.559942
	C2730	C	0.250073	0.962345	0.559944
	C2731	C	0.127272	0.043542	0.562601
	C2732	C	0.127302	0.962745	0.562584
	C2733	C	0.126569	0.043069	0.560429
	C2734	C	0.126590	0.962633	0.560419
	C2735	C	0.126254	0.462425	0.561232
	C2736	C	0.251227	0.462547	0.561948
	C2737	C	0.251195	0.462755	0.561479
	C2738	C	0.126239	0.543125	0.561274
	C2739	C	0.251178	0.543457	0.561503
	C2740	C	0.251239	0.543061	0.561969
	C2741	C	0.236562	0.753392	0.576532
	C2742	C	0.236562	0.253044	0.576565
	C2743	C	0.228061	0.753389	0.585052
	C2744	C	0.224001	0.692193	0.589048
	C2745	C	0.224065	0.814608	0.589031
	C2746	C	0.228018	0.253029	0.585069
	C2747	C	0.224040	0.191393	0.589094
	C2748	C	0.224010	0.314567	0.589061
	C2749	C	0.236586	0.252416	0.546883
	C2750	C	0.203592	0.752610	0.514066
	C2751	C	0.173995	0.752376	0.514025
	C2752	C	0.173986	0.752958	0.609454
	C2753	C	0.224058	0.691671	0.534375
	C2754	C	0.223989	0.813686	0.534377
	C2755	C	0.212109	0.752576	0.522580
	C2756	C	0.165488	0.752287	0.522546
	C2757	C	0.161530	0.691296	0.526579
	C2758	C	0.216173	0.691611	0.526557
	C2759	C	0.216105	0.813593	0.526556
	C2760	C	0.161514	0.813383	0.526556
	C2761	C	0.228015	0.752731	0.538401
	C2762	C	0.203608	0.753137	0.609367
	C2763	C	0.216145	0.692044	0.596892
	C2764	C	0.216195	0.814585	0.596874
	C2765	C	0.212167	0.753264	0.600891
	C2766	C	0.188536	0.462690	0.624432
	C2767	C	0.188088	0.462372	0.499643
	C2768	C	0.189080	0.462545	0.624375
	C2769	C	0.188555	0.543436	0.624424
	C2770	C	0.189085	0.543467	0.624390
	C2771	C	0.188112	0.543083	0.499618
	C2772	C	0.203639	0.253050	0.609439
	C2773	C	0.216181	0.191390	0.596939
	C2774	C	0.216149	0.314504	0.596898
	C2775	C	0.212159	0.252968	0.600927
	C2776	C	0.188693	0.043069	0.500045
	C2777	C	0.203647	0.252367	0.514022
	C2778	C	0.174007	0.252712	0.514031
	C2779	C	0.174024	0.252906	0.609453
	C2780	C	0.224031	0.191213	0.534397
	C2781	C	0.224034	0.313592	0.534396
	C2782	C	0.212167	0.252345	0.522542
	C2783	C	0.165505	0.252716	0.522569
	C2784	C	0.165433	0.753045	0.600962
	C2785	C	0.161459	0.814326	0.596939
	C2786	C	0.161453	0.691770	0.596948
	C2787	C	0.165523	0.252749	0.600927
	C2788	C	0.161521	0.314015	0.596930
	C2789	C	0.161560	0.191451	0.596885
	C2790	C	0.161547	0.191590	0.526607
	C2791	C	0.216165	0.191222	0.526553
	C2792	C	0.216169	0.313571	0.526547
	C2793	C	0.161492	0.313847	0.526559
	C2794	C	0.228048	0.252380	0.538381
	C2795	C	0.189485	0.043392	0.624347
	C2796	C	0.188095	0.043420	0.498757
	C2797	C	0.188682	0.962672	0.500090
	C2798	C	0.189475	0.962493	0.624310
	C2799	C	0.188074	0.962458	0.498781
	N2800	N	0.126294	0.070168	0.561729
	N2801	N	0.126338	0.935757	0.561711
	N2802	N	0.126353	0.435642	0.561657
	N2803	N	0.126337	0.570060	0.561718
	N2804	N	0.188792	0.435739	0.624241
	N2805	N	0.188802	0.570194	0.624253
	N2806	N	0.188818	0.069928	0.624260
	N2807	N	0.188797	0.935531	0.624256
	O2808	O	0.239895	0.695236	0.675087
	O2809	O	0.239897	0.810872	0.675048
	O2810	O	0.137723	0.695059	0.698180
	O2811	O	0.137758	0.810957	0.698198
	O2812	O	0.137780	0.195219	0.698123
	O2813	O	0.137736	0.311013	0.698223
	O2814	O	0.137815	0.694697	0.675167
	O2815	O	0.137747	0.810649	0.675156
	O2816	O	0.137832	0.194844	0.675189
	O2817	O	0.137694	0.310514	0.675032
	O2818	O	0.239954	0.694857	0.698139
	O2819	O	0.239839	0.810652	0.698147
	O2820	O	0.239926	0.194513	0.698169
	O2821	O	0.239892	0.310485	0.698153
	O2822	O	0.239936	0.194845	0.675142
	O2823	O	0.239868	0.310896	0.675187
	O2824	O	0.200419	0.694929	0.635671
	O2825	O	0.177292	0.695034	0.635727
	O2826	O	0.200351	0.694340	0.737498
	O2827	O	0.200363	0.810220	0.737532
	O2828	O	0.177275	0.695081	0.737613
	O2829	O	0.177285	0.810809	0.737505
	O2830	O	0.177368	0.810833	0.635810
	O2831	O	0.200369	0.810797	0.635699
	O2832	O	0.200470	0.195058	0.635652
	O2833	O	0.177383	0.194703	0.635769
	O2834	O	0.200380	0.194446	0.737561
	O2835	O	0.200320	0.310448	0.737469
	O2836	O	0.177253	0.195061	0.737667
	O2837	O	0.177311	0.311060	0.737543
	O2838	O	0.177326	0.310583	0.635744
	O2839	O	0.200371	0.310885	0.635733
	H2840	H	0.150411	0.644886	0.710821
	H2841	H	0.150457	0.860948	0.710778
	H2842	H	0.150441	0.144717	0.710792
	H2843	H	0.150441	0.361120	0.710834
	H2844	H	0.150449	0.860911	0.662526
	H2845	H	0.150422	0.644716	0.662484
	H2846	H	0.150374	0.360424	0.662413
	H2847	H	0.150391	0.144825	0.662427
	H2848	H	0.249652	0.064678	0.687193
	H2849	H	0.250688	0.064275	0.688378
	H2850	H	0.250641	0.941541	0.688333
	H2851	H	0.249643	0.941480	0.687173
	H2852	H	0.250335	0.064300	0.685194
	H2853	H	0.250314	0.941075	0.685206
	H2854	H	0.126163	0.064523	0.683491
	H2855	H	0.126157	0.941194	0.683500
	H2856	H	0.123744	0.064160	0.684692
	H2857	H	0.123778	0.941274	0.684706
	H2858	H	0.123537	0.064759	0.688345
	H2859	H	0.123514	0.941651	0.688376
	H2860	H	0.126500	0.440983	0.688442
	H2861	H	0.127768	0.441020	0.687640
	H2862	H	0.124666	0.441317	0.687475
	H2863	H	0.250939	0.441357	0.685605
	H2864	H	0.252249	0.441277	0.685876
	H2865	H	0.252565	0.441442	0.686765
	H2866	H	0.127752	0.564550	0.687552
	H2867	H	0.126493	0.564537	0.688410
	H2868	H	0.252596	0.564260	0.686718
	H2869	H	0.252280	0.564491	0.685834
	H2870	H	0.250988	0.564406	0.685591
	H2871	H	0.124595	0.564646	0.687496
	H2872	H	0.227375	0.643807	0.710936
	H2873	H	0.227202	0.860801	0.710792
	H2874	H	0.227189	0.143863	0.710742
	H2875	H	0.227293	0.360983	0.710889
	H2876	H	0.164616	0.644697	0.648351
	H2877	H	0.212966	0.644508	0.648408
	H2878	H	0.212969	0.861084	0.648391
	H2879	H	0.164615	0.860936	0.648393
	H2880	H	0.227162	0.644353	0.662492
	H2881	H	0.227170	0.861339	0.662451
	H2882	H	0.213170	0.643836	0.725020
	H2883	H	0.213019	0.860834	0.724875
	H2884	H	0.188340	0.441037	0.624354
	H2885	H	0.190008	0.441274	0.749755
	H2886	H	0.188558	0.441284	0.623821
	H2887	H	0.188948	0.441618	0.623809
	H2888	H	0.188986	0.441681	0.747646
	H2889	H	0.189909	0.441346	0.748205
	H2890	H	0.189968	0.564349	0.749707
	H2891	H	0.188344	0.564730	0.624318
	H2892	H	0.189942	0.564545	0.748215
	H2893	H	0.188919	0.564572	0.747667
	H2894	H	0.188976	0.564254	0.623771
	H2895	H	0.188569	0.564765	0.623849
	H2896	H	0.212996	0.143847	0.724866
	H2897	H	0.213090	0.360809	0.724985
	H2898	H	0.187899	0.064452	0.624768
	H2899	H	0.188578	0.064271	0.625303
	H2900	H	0.188057	0.064183	0.623571
	H2901	H	0.164627	0.860831	0.724914
	H2902	H	0.164587	0.644858	0.724953
	H2903	H	0.164598	0.361238	0.724972
	H2904	H	0.164601	0.144352	0.724964
	H2905	H	0.164614	0.144751	0.648351
	H2906	H	0.213082	0.144334	0.648387
	H2907	H	0.213073	0.361378	0.648383
	H2908	H	0.164590	0.360262	0.648335
	H2909	H	0.227217	0.144399	0.662556
	H2910	H	0.227210	0.361407	0.662541
	H2911	H	0.187043	0.064146	0.751290
	H2912	H	0.189384	0.064647	0.751970
	H2913	H	0.191709	0.064804	0.749565
	H2914	H	0.188593	0.941449	0.625293
	H2915	H	0.187882	0.941080	0.624758
	H2916	H	0.187959	0.941180	0.623544
	H2917	H	0.187045	0.941154	0.751268
	H2918	H	0.189365	0.940852	0.751862
	H2919	H	0.191672	0.941096	0.749532
	Zn2920	Zn	0.126211	0.680318	0.686607
	Zn2921	Zn	0.126254	0.825950	0.686695
	Zn2922	Zn	0.126245	0.180318	0.686602
	Zn2923	Zn	0.126255	0.325817	0.686673
	Zn2924	Zn	0.188841	0.680190	0.749082
	Zn2925	Zn	0.188809	0.825856	0.749018
	Zn2926	Zn	0.188885	0.180254	0.749143
	Zn2927	Zn	0.188855	0.326032	0.749032
	C2928	C	0.236596	0.753038	0.671782
	C2929	C	0.141048	0.752931	0.701444
	C2930	C	0.149594	0.752832	0.709934
	C2931	C	0.153577	0.691803	0.713947
	C2932	C	0.153592	0.813962	0.713931
	C2933	C	0.141056	0.253041	0.701450
	C2934	C	0.149611	0.252927	0.709940
	C2935	C	0.153605	0.191647	0.713941
	C2936	C	0.153616	0.314120	0.713956
	C2937	C	0.141111	0.752760	0.671910
	C2938	C	0.149651	0.752814	0.663426
	C2939	C	0.153618	0.813966	0.659389
	C2940	C	0.153616	0.691607	0.659367
	C2941	C	0.141064	0.252657	0.671837
	C2942	C	0.149619	0.252645	0.663349
	C2943	C	0.153581	0.313580	0.659320
	C2944	C	0.153604	0.191609	0.659333
	C2945	C	0.250512	0.043272	0.687491
	C2946	C	0.250474	0.962700	0.687477
	C2947	C	0.125302	0.043310	0.684772
	C2948	C	0.125294	0.962543	0.684780
	C2949	C	0.125084	0.043482	0.688457
	C2950	C	0.125081	0.962893	0.688481
	C2951	C	0.126885	0.462497	0.687651
	C2952	C	0.250854	0.462408	0.686148
	C2953	C	0.252166	0.462524	0.686396
	C2954	C	0.126887	0.543379	0.687620
	C2955	C	0.252176	0.543227	0.686362
	C2956	C	0.250860	0.543011	0.686132
	C2957	C	0.236595	0.752589	0.701423
	C2958	C	0.236600	0.252445	0.701426
	C2959	C	0.228087	0.752347	0.709940
	C2960	C	0.224163	0.690979	0.714009
	C2961	C	0.224065	0.813687	0.713927
	C2962	C	0.228035	0.252388	0.709909
	C2963	C	0.224027	0.191058	0.713888
	C2964	C	0.224089	0.313768	0.713967
	C2965	C	0.236583	0.252849	0.671923
	C2966	C	0.203682	0.752910	0.638958
	C2967	C	0.174064	0.752926	0.639071
	C2968	C	0.174013	0.752821	0.734249
	C2969	C	0.223995	0.691561	0.659381
	C2970	C	0.224004	0.814156	0.659360
	C2971	C	0.212150	0.752844	0.647519
	C2972	C	0.165529	0.752853	0.647583
	C2973	C	0.161481	0.691636	0.651519
	C2974	C	0.216122	0.691571	0.651548
	C2975	C	0.216125	0.814095	0.651536
	C2976	C	0.161476	0.813962	0.651547
	C2977	C	0.228030	0.752860	0.663343
	C2978	C	0.203656	0.752330	0.734243
	C2979	C	0.216290	0.690981	0.721842
	C2980	C	0.216199	0.813705	0.721758
	C2981	C	0.212201	0.752351	0.725761
	C2982	C	0.189343	0.462656	0.749773
	C2983	C	0.188745	0.462698	0.623920
	C2984	C	0.189309	0.462720	0.748220
	C2985	C	0.189328	0.543169	0.749757
	C2986	C	0.189281	0.543421	0.748216
	C2987	C	0.188772	0.543160	0.623933
	C2988	C	0.203636	0.252360	0.734238
	C2989	C	0.216159	0.190930	0.721726
	C2990	C	0.216207	0.313662	0.721793
	C2991	C	0.212141	0.252238	0.725729
	C2992	C	0.188371	0.043155	0.624811
	C2993	C	0.203678	0.252951	0.639017
	C2994	C	0.174055	0.252606	0.639024
	C2995	C	0.174012	0.252977	0.734299
	C2996	C	0.224080	0.191463	0.659391
	C2997	C	0.224059	0.314227	0.659391
	C2998	C	0.212186	0.252890	0.647554
	C2999	C	0.165530	0.252591	0.647541
	C3000	C	0.165493	0.752740	0.725750
	C3001	C	0.161470	0.813899	0.721760
	C3002	C	0.161447	0.691720	0.721789
	C3003	C	0.165488	0.252779	0.725782
	C3004	C	0.161466	0.314118	0.721809
	C3005	C	0.161454	0.191528	0.721802
	C3006	C	0.161493	0.191548	0.651512
	C3007	C	0.216210	0.191502	0.651541
	C3008	C	0.216198	0.314260	0.651540
	C3009	C	0.161481	0.313537	0.651513
	C3010	C	0.228040	0.252837	0.663428
	C3011	C	0.188396	0.043147	0.750944
	C3012	C	0.188527	0.042967	0.623613
	C3013	C	0.188372	0.962346	0.624807
	C3014	C	0.188369	0.962471	0.750892
	C3015	C	0.188506	0.962495	0.623594
	N3016	N	0.126247	0.070243	0.686701
	N3017	N	0.126264	0.935830	0.686724
	N3018	N	0.126258	0.435825	0.686637
	N3019	N	0.126237	0.570267	0.686605
	N3020	N	0.188847	0.435860	0.749008
	N3021	N	0.188848	0.570195	0.748989
	N3022	N	0.188896	0.070344	0.749094
	N3023	N	0.188842	0.935962	0.749042
	O3024	O	0.239744	0.695035	0.800075
	O3025	O	0.239787	0.810968	0.800020
	O3026	O	0.137826	0.694593	0.823131
	O3027	O	0.137854	0.810603	0.823085
	O3028	O	0.137915	0.194800	0.823081
	O3029	O	0.137916	0.310772	0.823149
	O3030	O	0.137801	0.694789	0.799991
	O3031	O	0.137805	0.810970	0.800045
	O3032	O	0.137867	0.195315	0.800005
	O3033	O	0.137826	0.310920	0.800051
	O3034	O	0.239748	0.694957	0.823072
	O3035	O	0.239850	0.810956	0.823109
	O3036	O	0.239713	0.195343	0.822993
	O3037	O	0.239929	0.311367	0.823147
	O3038	O	0.239817	0.195355	0.800072
	O3039	O	0.239944	0.311280	0.799971
	O3040	O	0.200359	0.695000	0.760568
	O3041	O	0.177294	0.694884	0.760605
	O3042	O	0.200404	0.694936	0.862540
	O3043	O	0.200414	0.810862	0.862618
	O3044	O	0.177384	0.694654	0.862524
	O3045	O	0.177338	0.810658	0.862482
	O3046	O	0.177321	0.810856	0.760582
	O3047	O	0.200379	0.810762	0.760514
	O3048	O	0.200421	0.195518	0.760605
	O3049	O	0.177299	0.195119	0.760546
	O3050	O	0.200400	0.195155	0.862454
	O3051	O	0.200413	0.311082	0.862599
	O3052	O	0.177357	0.195131	0.862543
	O3053	O	0.177319	0.311112	0.862581
	O3054	O	0.177357	0.311013	0.760618
	O3055	O	0.200306	0.311306	0.760642
	H3056	H	0.150396	0.644026	0.835804
	H3057	H	0.150461	0.861155	0.835754
	H3058	H	0.150492	0.144311	0.835850
	H3059	H	0.150604	0.361250	0.835708
	H3060	H	0.150436	0.861381	0.787397
	H3061	H	0.150484	0.644239	0.787401
	H3062	H	0.150378	0.361630	0.787238
	H3063	H	0.150507	0.145246	0.787327
	H3064	H	0.253060	0.064316	0.811743
	H3065	H	0.252596	0.064894	0.810383
	H3066	H	0.252569	0.941290	0.810362
	H3067	H	0.253018	0.941548	0.811777
	H3068	H	0.251734	0.064487	0.813271
	H3069	H	0.251717	0.940894	0.813225
	H3070	H	0.128001	0.064625	0.808825
	H3071	H	0.128015	0.941238	0.808850
	H3072	H	0.125352	0.064016	0.808486
	H3073	H	0.125337	0.941052	0.808573
	H3074	H	0.123168	0.064332	0.811435
	H3075	H	0.123131	0.941137	0.811460
	H3076	H	0.124842	0.441273	0.810681
	H3077	H	0.124696	0.441506	0.812161
	H3078	H	0.126656	0.441599	0.809879
	H3079	H	0.250969	0.441573	0.810305
	H3080	H	0.252362	0.441876	0.810723
	H3081	H	0.252632	0.441423	0.811817
	H3082	H	0.124677	0.564248	0.812159
	H3083	H	0.124807	0.564628	0.810710
	H3084	H	0.252586	0.564266	0.811864
	H3085	H	0.252351	0.564744	0.810805
	H3086	H	0.250928	0.564585	0.810337
	H3087	H	0.126629	0.564619	0.809893
	H3088	H	0.227088	0.644628	0.835709
	H3089	H	0.227176	0.861479	0.835777
	H3090	H	0.227229	0.145668	0.835678
	H3091	H	0.227205	0.361700	0.835768
	H3092	H	0.164655	0.644296	0.773257
	H3093	H	0.213096	0.644632	0.773159
	H3094	H	0.212915	0.861025	0.773254
	H3095	H	0.164617	0.861496	0.773246
	H3096	H	0.227200	0.644707	0.787332
	H3097	H	0.227047	0.861217	0.787436
	H3098	H	0.212971	0.644806	0.849883
	H3099	H	0.213045	0.861544	0.849967
	H3100	H	0.189013	0.441702	0.750359
	H3101	H	0.189384	0.441726	0.873100
	H3102	H	0.187664	0.441506	0.749626
	H3103	H	0.187643	0.441726	0.748475
	H3104	H	0.187842	0.441191	0.874221
	H3105	H	0.188137	0.441147	0.873338
	H3106	H	0.189393	0.564935	0.873109
	H3107	H	0.189003	0.564490	0.750324
	H3108	H	0.188233	0.564712	0.873312
	H3109	H	0.187946	0.564224	0.874161
	H3110	H	0.187655	0.565051	0.748493
	H3111	H	0.187684	0.565082	0.749563
	H3112	H	0.213076	0.145234	0.849836
	H3113	H	0.213066	0.361986	0.849943
	H3114	H	0.187944	0.064443	0.746392
	H3115	H	0.186272	0.064815	0.748134
	H3116	H	0.191076	0.064487	0.747325
	H3117	H	0.164660	0.861377	0.849863
	H3118	H	0.164609	0.643703	0.849928
	H3119	H	0.164736	0.361213	0.849871
	H3120	H	0.164652	0.144946	0.849965
	H3121	H	0.164664	0.145162	0.773171
	H3122	H	0.213018	0.144961	0.773258
	H3123	H	0.212966	0.361822	0.773344
	H3124	H	0.164540	0.361595	0.773129
	H3125	H	0.227125	0.145195	0.787429
	H3126	H	0.227156	0.361426	0.787467
	H3127	H	0.189203	0.064228	0.871660
	H3128	H	0.187291	0.064553	0.872222
	H3129	H	0.186793	0.064791	0.874969
	H3130	H	0.186213	0.941219	0.748141
	H3131	H	0.187782	0.941572	0.746379
	H3132	H	0.191063	0.941616	0.747209
	H3133	H	0.189153	0.941145	0.871672
	H3134	H	0.187242	0.940878	0.872306
	H3135	H	0.186721	0.941674	0.875043
	Zn3136	Zn	0.126319	0.680219	0.811555
	Zn3137	Zn	0.126279	0.825899	0.811649
	Zn3138	Zn	0.126390	0.180202	0.811523
	Zn3139	Zn	0.126352	0.325887	0.811623
	Zn3140	Zn	0.188948	0.679910	0.874065
	Zn3141	Zn	0.188856	0.825856	0.874078
	Zn3142	Zn	0.188922	0.180054	0.873991
	Zn3143	Zn	0.188837	0.325766	0.874084
	C3144	C	0.236485	0.752969	0.796760
	C3145	C	0.141130	0.752621	0.826390
	C3146	C	0.149659	0.752608	0.834888
	C3147	C	0.153628	0.691151	0.838916
	C3148	C	0.153659	0.814016	0.838875
	C3149	C	0.141209	0.252728	0.826385
	C3150	C	0.149724	0.252853	0.834889
	C3151	C	0.153674	0.191526	0.838926
	C3152	C	0.153737	0.314281	0.838871
	C3153	C	0.141101	0.752921	0.796747
	C3154	C	0.149636	0.752849	0.788239
	C3155	C	0.153630	0.814240	0.784252
	C3156	C	0.153659	0.691468	0.784257
	C3157	C	0.141113	0.253217	0.796718
	C3158	C	0.149622	0.253317	0.788203
	C3159	C	0.153568	0.314554	0.784159
	C3160	C	0.153655	0.192234	0.784194
	C3161	C	0.252426	0.043238	0.811202
	C3162	C	0.252405	0.962635	0.811193
	C3163	C	0.126596	0.043030	0.809411
	C3164	C	0.126575	0.962367	0.809450
	C3165	C	0.124384	0.043407	0.812361
	C3166	C	0.124360	0.962603	0.812372
	C3167	C	0.125185	0.462749	0.811492
	C3168	C	0.250757	0.462750	0.810907
	C3169	C	0.252210	0.462633	0.811341
	C3170	C	0.125164	0.543340	0.811475
	C3171	C	0.252172	0.543256	0.811380
	C3172	C	0.250734	0.543512	0.810922
	C3173	C	0.236507	0.753033	0.826372
	C3174	C	0.236531	0.253469	0.826333
	C3175	C	0.227981	0.753021	0.834882
	C3176	C	0.223973	0.691781	0.838868
	C3177	C	0.224003	0.814364	0.838905
	C3178	C	0.228006	0.253718	0.834826
	C3179	C	0.224051	0.192502	0.838832
	C3180	C	0.224035	0.314789	0.838883
	C3181	C	0.236601	0.253341	0.796718
	C3182	C	0.203645	0.752862	0.763832
	C3183	C	0.174026	0.752968	0.763892
	C3184	C	0.174064	0.752572	0.859231
	C3185	C	0.224050	0.691716	0.784180
	C3186	C	0.223959	0.814200	0.784230
	C3187	C	0.212175	0.752809	0.772329
	C3188	C	0.165510	0.752942	0.772404
	C3189	C	0.161517	0.691512	0.776407
	C3190	C	0.216198	0.691614	0.776325
	C3191	C	0.216115	0.814115	0.776365
	C3192	C	0.161485	0.814281	0.776396
	C3193	C	0.228003	0.752959	0.788206
	C3194	C	0.203672	0.753019	0.859292
	C3195	C	0.216134	0.691928	0.846739
	C3196	C	0.216174	0.814430	0.846773
	C3197	C	0.212156	0.753208	0.850756
	C3198	C	0.189476	0.462715	0.873619
	C3199	C	0.187977	0.462892	0.749028
	C3200	C	0.188254	0.462487	0.873858
	C3201	C	0.189503	0.543232	0.873612
	C3202	C	0.188291	0.543248	0.873829
	C3203	C	0.187985	0.543746	0.749032
	C3204	C	0.203664	0.253319	0.859209
	C3205	C	0.216214	0.192326	0.846694
	C3206	C	0.216200	0.314873	0.846750
	C3207	C	0.212168	0.253604	0.850680
	C3208	C	0.187563	0.043437	0.747746
	C3209	C	0.203647	0.253444	0.763909
	C3210	C	0.174025	0.253110	0.763850
	C3211	C	0.174081	0.253088	0.859249
	C3212	C	0.224014	0.192143	0.784251
	C3213	C	0.224008	0.314587	0.784285
	C3214	C	0.212160	0.253453	0.772411
	C3215	C	0.165490	0.253296	0.772360
	C3216	C	0.165539	0.752548	0.850718
	C3217	C	0.161529	0.814061	0.846710
	C3218	C	0.161492	0.690984	0.846761
	C3219	C	0.165575	0.253048	0.850724
	C3220	C	0.161570	0.314246	0.846739
	C3221	C	0.161508	0.191809	0.846797
	C3222	C	0.161513	0.192150	0.776348
	C3223	C	0.216154	0.192066	0.776407
	C3224	C	0.216144	0.314670	0.776447
	C3225	C	0.161435	0.314587	0.776320
	C3226	C	0.228057	0.253388	0.788231
	C3227	C	0.188415	0.043269	0.872514
	C3228	C	0.190731	0.043345	0.748611
	C3229	C	0.187510	0.962660	0.747729
	C3230	C	0.188367	0.962375	0.872536
	C3231	C	0.190688	0.962684	0.748567
	N3232	N	0.126365	0.070164	0.811548
	N3233	N	0.126300	0.935795	0.811595
	N3234	N	0.126340	0.435771	0.811603
	N3235	N	0.126298	0.570170	0.811556
	N3236	N	0.188913	0.435578	0.874103
	N3237	N	0.188959	0.569998	0.874078
	N3238	N	0.188924	0.070206	0.873992
	N3239	N	0.188862	0.935832	0.874048
	O3240	O	0.239765	0.695159	0.925103
	O3241	O	0.239771	0.810967	0.925054
	O3242	O	0.137873	0.694629	0.948074
	O3243	O	0.137930	0.810486	0.948026
	O3244	O	0.137832	0.195153	0.948189
	O3245	O	0.137984	0.311154	0.948042
	O3246	O	0.137877	0.694547	0.925010
	O3247	O	0.137874	0.810545	0.924997
	O3248	O	0.137878	0.194613	0.925008
	O3249	O	0.138041	0.310567	0.925119
	O3250	O	0.239739	0.695416	0.948134
	O3251	O	0.239879	0.811223	0.948200
	O3252	O	0.239803	0.195266	0.948123
	O3253	O	0.239777	0.311133	0.948072
	O3254	O	0.239816	0.195015	0.924979
	O3255	O	0.239804	0.310950	0.925054
	O3256	O	0.200423	0.695312	0.885585
	O3257	O	0.177402	0.694590	0.885595
	O3258	O	0.200337	0.695452	0.987524
	O3259	O	0.200327	0.811208	0.987601
	O3260	O	0.177354	0.694780	0.987560
	O3261	O	0.177250	0.810870	0.987574
	O3262	O	0.177332	0.810492	0.885583
	O3263	O	0.200326	0.811033	0.885587
	O3264	O	0.200366	0.194812	0.885623
	O3265	O	0.177317	0.194625	0.885504
	O3266	O	0.200315	0.194874	0.987479
	O3267	O	0.200448	0.310844	0.987712
	O3268	O	0.177436	0.195267	0.987542
	O3269	O	0.177241	0.311311	0.987641
	O3270	O	0.177305	0.310566	0.885544
	O3271	O	0.200372	0.310625	0.885616
	H3272	H	0.150661	0.644188	0.960645
	H3273	H	0.150504	0.860874	0.960776
	H3274	H	0.150472	0.144673	0.960888
	H3275	H	0.150628	0.361939	0.960718
	H3276	H	0.150544	0.861096	0.912325
	H3277	H	0.150603	0.643854	0.912434
	H3278	H	0.150562	0.360955	0.912328
	H3279	H	0.150580	0.144002	0.912394
	H3280	H	0.251379	0.063894	0.936853
	H3281	H	0.251536	0.064406	0.936668
	H3282	H	0.251511	0.940906	0.936692
	H3283	H	0.251304	0.940974	0.936838
	H3284	H	0.251018	0.063887	0.936744
	H3285	H	0.251002	0.941205	0.936733
	H3286	H	0.126257	0.064521	0.936997
	H3287	H	0.126300	0.941162	0.937038
	H3288	H	0.126635	0.064486	0.936968
	H3289	H	0.126677	0.941508	0.936900
	H3290	H	0.126840	0.064551	0.936424
	H3291	H	0.126852	0.941497	0.936400
	H3292	H	0.124722	0.441249	0.937172
	H3293	H	0.125795	0.440921	0.938165
	H3294	H	0.125217	0.441893	0.935237
	H3295	H	0.249063	0.441087	0.935371
	H3296	H	0.251724	0.441377	0.934035
	H3297	H	0.253517	0.441258	0.935241
	H3298	H	0.125669	0.564455	0.938196
	H3299	H	0.124677	0.564275	0.937110
	H3300	H	0.253440	0.564588	0.935308
	H3301	H	0.251707	0.564373	0.934088
	H3302	H	0.249039	0.564437	0.935386
	H3303	H	0.125228	0.564146	0.935235
	H3304	H	0.227156	0.645569	0.960775
	H3305	H	0.227145	0.861552	0.960799
	H3306	H	0.227179	0.144957	0.960762
	H3307	H	0.227141	0.361777	0.960784
	H3308	H	0.164802	0.643937	0.898310
	H3309	H	0.213088	0.645460	0.898148
	H3310	H	0.212992	0.860881	0.898245
	H3311	H	0.164732	0.860728	0.898203
	H3312	H	0.227167	0.645195	0.912338
	H3313	H	0.227086	0.860897	0.912458
	H3314	H	0.213013	0.645438	0.974911
	H3315	H	0.212977	0.861399	0.974928
	H3316	H	0.189942	0.441815	0.873778
	H3317	H	0.187713	0.440963	0.997195
	H3318	H	0.189551	0.441406	0.874930
	H3319	H	0.188713	0.441082	0.875107
	H3320	H	0.187796	0.441274	1.000967
	H3321	H	0.186743	0.441705	0.999485
	H3322	H	0.187740	0.564495	0.997161
	H3323	H	0.189983	0.564132	0.873855
	H3324	H	0.186694	0.564346	0.999507
	H3325	H	0.187846	0.564816	1.000951
	H3326	H	0.188683	0.564257	0.875091
	H3327	H	0.189570	0.564446	0.874889
	H3328	H	0.213058	0.144637	0.974945
	H3329	H	0.213019	0.361630	0.974975
	H3330	H	0.190822	0.064280	0.875398
	H3331	H	0.191203	0.064370	0.873457
	H3332	H	0.188292	0.064727	0.876282
	H3333	H	0.164594	0.860908	0.974956
	H3334	H	0.164765	0.644266	0.974868
	H3335	H	0.164743	0.361836	0.974890
	H3336	H	0.164625	0.144605	0.975025
	H3337	H	0.164650	0.144091	0.898149
	H3338	H	0.213018	0.144824	0.898197
	H3339	H	0.213022	0.360975	0.898264
	H3340	H	0.164621	0.360564	0.898120
	H3341	H	0.227202	0.144815	0.912324
	H3342	H	0.227215	0.361156	0.912389
	H3343	H	0.190114	0.064331	0.997629
	H3344	H	0.188635	0.064451	0.997155
	H3345	H	0.187040	0.064523	0.998631
	H3346	H	0.191184	0.941190	0.873484
	H3347	H	0.190746	0.941441	0.875435
	H3348	H	0.188241	0.941880	0.876312
	H3349	H	0.190077	0.941429	0.997649
	H3350	H	0.188595	0.941456	0.997164
	H3351	H	0.186978	0.941021	0.998621
	Zn3352	Zn	0.126322	0.680043	0.936544
	Zn3353	Zn	0.126413	0.825681	0.936503
	Zn3354	Zn	0.126407	0.179991	0.936589
	Zn3355	Zn	0.126449	0.325700	0.936545
	Zn3356	Zn	0.188851	0.679994	0.999087
	Zn3357	Zn	0.188768	0.825555	0.999075
	Zn3358	Zn	0.188869	0.179952	0.999078
	Zn3359	Zn	0.188804	0.325646	0.999076
	C3360	C	0.236507	0.753027	0.921772
	C3361	C	0.141184	0.752529	0.951343
	C3362	C	0.149688	0.752484	0.959878
	C3363	C	0.153749	0.691210	0.963845
	C3364	C	0.153651	0.813853	0.963900
	C3365	C	0.141198	0.253178	0.951399
	C3366	C	0.149682	0.253313	0.959959
	C3367	C	0.153639	0.191773	0.964021
	C3368	C	0.153719	0.314782	0.963934
	C3369	C	0.141165	0.752516	0.921741
	C3370	C	0.149684	0.752465	0.913206
	C3371	C	0.153681	0.813847	0.909196
	C3372	C	0.153722	0.691009	0.909254
	C3373	C	0.141224	0.252537	0.921762
	C3374	C	0.149707	0.252504	0.913221
	C3375	C	0.153701	0.313751	0.909194
	C3376	C	0.153708	0.191096	0.909227
	C3377	C	0.251380	0.042969	0.936716
	C3378	C	0.251368	0.962215	0.936718
	C3379	C	0.126455	0.043244	0.936881
	C3380	C	0.126468	0.962449	0.936865
	C3381	C	0.126651	0.043246	0.936373
	C3382	C	0.126640	0.962573	0.936331
	C3383	C	0.125547	0.462432	0.937375
	C3384	C	0.249599	0.462352	0.936529
	C3385	C	0.252270	0.462525	0.935168
	C3386	C	0.125502	0.543322	0.937369
	C3387	C	0.252235	0.543375	0.935217
	C3388	C	0.249589	0.542994	0.936509
	C3389	C	0.236547	0.753439	0.951460
	C3390	C	0.236504	0.253247	0.951380
	C3391	C	0.228029	0.753595	0.959957
	C3392	C	0.224005	0.692430	0.963912
	C3393	C	0.223999	0.814684	0.963928
	C3394	C	0.227991	0.253385	0.959890
	C3395	C	0.224012	0.192073	0.963897
	C3396	C	0.223985	0.314622	0.963908
	C3397	C	0.236528	0.253040	0.921734
	C3398	C	0.203661	0.753257	0.888871
	C3399	C	0.174081	0.752438	0.888872
	C3400	C	0.174029	0.752725	0.984293
	C3401	C	0.224040	0.692048	0.909209
	C3402	C	0.223993	0.814009	0.909259
	C3403	C	0.212179	0.753240	0.897387
	C3404	C	0.165561	0.752347	0.897377
	C3405	C	0.161585	0.690983	0.901409
	C3406	C	0.216204	0.692196	0.901350
	C3407	C	0.216153	0.814172	0.901396
	C3408	C	0.161544	0.813698	0.901352
	C3409	C	0.228030	0.753012	0.913236
	C3410	C	0.203629	0.753418	0.984290
	C3411	C	0.216163	0.692412	0.971772
	C3412	C	0.216147	0.814614	0.971779
	C3413	C	0.212155	0.753487	0.975784
	C3414	C	0.188688	0.462176	0.997605
	C3415	C	0.189079	0.462431	0.874788
	C3416	C	0.187692	0.462648	0.999908
	C3417	C	0.188688	0.543321	0.997586
	C3418	C	0.187690	0.543324	0.999920
	C3419	C	0.189083	0.543221	0.874765
	C3420	C	0.203649	0.252967	0.984298
	C3421	C	0.216170	0.191911	0.971764
	C3422	C	0.216143	0.314539	0.971774
	C3423	C	0.212132	0.253163	0.975750
	C3424	C	0.190456	0.043216	0.874327
	C3425	C	0.203665	0.252759	0.888890
	C3426	C	0.174030	0.252497	0.888802
	C3427	C	0.174065	0.253193	0.984323
	C3428	C	0.224011	0.191788	0.909227
	C3429	C	0.224020	0.314096	0.909263
	C3430	C	0.212156	0.252937	0.897412
	C3431	C	0.165528	0.252315	0.897337
	C3432	C	0.165504	0.752587	0.975770
	C3433	C	0.161484	0.813860	0.971775
	C3434	C	0.161588	0.691258	0.971725
	C3435	C	0.165525	0.253237	0.975828
	C3436	C	0.161561	0.314679	0.971793
	C3437	C	0.161502	0.191796	0.971866
	C3438	C	0.161536	0.191026	0.901347
	C3439	C	0.216155	0.191734	0.901383
	C3440	C	0.216160	0.314081	0.901422
	C3441	C	0.161527	0.313613	0.901321
	C3442	C	0.228004	0.253003	0.913244
	C3443	C	0.189217	0.043213	0.997833
	C3444	C	0.187885	0.043465	0.875217
	C3445	C	0.190434	0.962513	0.874338
	C3446	C	0.189195	0.962608	0.997828
	C3447	C	0.187851	0.962915	0.875230
	N3448	N	0.126384	0.070013	0.936562
	N3449	N	0.126384	0.935630	0.936523
	N3450	N	0.126366	0.435733	0.936554
	N3451	N	0.126335	0.570135	0.936575
	N3452	N	0.188843	0.435674	0.999015
	N3453	N	0.188863	0.570036	0.999018
	N3454	N	0.188855	0.070070	0.999048
	N3455	N	0.188803	0.935652	0.999045
	O3456	O	0.364811	0.695040	0.050081
	O3457	O	0.364997	0.811197	0.049960
	O3458	O	0.262859	0.694976	0.073077
	O3459	O	0.262937	0.810891	0.072955
	O3460	O	0.262913	0.194885	0.073011
	O3461	O	0.263014	0.310837	0.072921
	O3462	O	0.262879	0.694584	0.050014
	O3463	O	0.262943	0.810652	0.049993
	O3464	O	0.262765	0.195025	0.049929
	O3465	O	0.262845	0.311063	0.049964
	O3466	O	0.364837	0.695311	0.073030
	O3467	O	0.364919	0.811162	0.073059
	O3468	O	0.364918	0.194949	0.073164
	O3469	O	0.364881	0.310905	0.073064
	O3470	O	0.364864	0.194839	0.050053
	O3471	O	0.364865	0.310960	0.050090
	O3472	O	0.325343	0.695077	0.010642
	O3473	O	0.302388	0.694483	0.010567
	O3474	O	0.325522	0.695411	0.112549
	O3475	O	0.325460	0.811311	0.112603
	O3476	O	0.302370	0.694895	0.112488
	O3477	O	0.302472	0.810796	0.112413
	O3478	O	0.302321	0.810452	0.010514
	O3479	O	0.325409	0.810911	0.010556
	O3480	O	0.325379	0.195036	0.010608
	O3481	O	0.302407	0.195099	0.010631
	O3482	O	0.325459	0.195141	0.112476
	O3483	O	0.325422	0.311165	0.112513
	O3484	O	0.302350	0.194949	0.112489
	O3485	O	0.302368	0.310933	0.112523
	O3486	O	0.302378	0.310781	0.010607
	O3487	O	0.325460	0.310796	0.010528
	H3488	H	0.275574	0.644730	0.085624
	H3489	H	0.275517	0.861066	0.085707
	H3490	H	0.275574	0.144183	0.085697
	H3491	H	0.275543	0.361515	0.085674
	H3492	H	0.275679	0.860784	0.037467
	H3493	H	0.275639	0.644328	0.037442
	H3494	H	0.275561	0.361114	0.037408
	H3495	H	0.275513	0.144823	0.037392
	H3496	H	0.376226	0.064431	0.063097
	H3497	H	0.377450	0.064531	0.062670
	H3498	H	0.377485	0.941676	0.062633
	H3499	H	0.376256	0.941611	0.063035
	H3500	H	0.374894	0.063924	0.061926
	H3501	H	0.374986	0.941171	0.061928
	H3502	H	0.250077	0.064393	0.062119
	H3503	H	0.250074	0.940947	0.062104
	H3504	H	0.250986	0.064054	0.062819
	H3505	H	0.250995	0.941381	0.062830
	H3506	H	0.252447	0.064303	0.062236
	H3507	H	0.252484	0.941392	0.062277
	H3508	H	0.253078	0.441062	0.061575
	H3509	H	0.252511	0.441191	0.060196
	H3510	H	0.251911	0.441070	0.063201
	H3511	H	0.376964	0.440825	0.061524
	H3512	H	0.376574	0.440834	0.062101
	H3513	H	0.376078	0.441385	0.062009
	H3514	H	0.252492	0.564658	0.060315
	H3515	H	0.253069	0.564301	0.061644
	H3516	H	0.376025	0.564136	0.061997
	H3517	H	0.376530	0.564424	0.062058
	H3518	H	0.376954	0.564975	0.061565
	H3519	H	0.251932	0.564376	0.063195
	H3520	H	0.352287	0.645300	0.085848
	H3521	H	0.352195	0.861621	0.085693
	H3522	H	0.352265	0.145140	0.085752
	H3523	H	0.352193	0.361488	0.085682
	H3524	H	0.289789	0.644341	0.023286
	H3525	H	0.338099	0.644468	0.023212
	H3526	H	0.337981	0.861625	0.023304
	H3527	H	0.289820	0.860824	0.023314
	H3528	H	0.352269	0.644612	0.037368
	H3529	H	0.352176	0.861832	0.037401
	H3530	H	0.338198	0.645678	0.099987
	H3531	H	0.338076	0.861642	0.099882
	H3532	H	0.314675	0.440971	0.000544
	H3533	H	0.313136	0.440802	0.120169
	H3534	H	0.312691	0.441457	0.000281
	H3535	H	0.312126	0.441688	-0.001030
	H3536	H	0.311002	0.441800	0.126700
	H3537	H	0.310056	0.441199	0.123500
	H3538	H	0.313159	0.564345	0.120139
	H3539	H	0.314632	0.564778	0.000534
	H3540	H	0.310015	0.564488	0.123489
	H3541	H	0.310960	0.564678	0.126619
	H3542	H	0.312190	0.564436	-0.001077
	H3543	H	0.312720	0.564618	0.000247
	H3544	H	0.338126	0.144984	0.099912
	H3545	H	0.338061	0.361744	0.099854
	H3546	H	0.313966	0.064482	0.000295
	H3547	H	0.314920	0.064463	-0.000187
	H3548	H	0.312681	0.064523	-0.000403
	H3549	H	0.289673	0.860974	0.099890
	H3550	H	0.289692	0.644543	0.099795
	H3551	H	0.289688	0.361579	0.099837
	H3552	H	0.289712	0.144619	0.099824
	H3553	H	0.289679	0.144829	0.023278
	H3554	H	0.338040	0.144709	0.023284
	H3555	H	0.338086	0.361320	0.023223
	H3556	H	0.289745	0.360955	0.023286
	H3557	H	0.352185	0.144666	0.037427
	H3558	H	0.352219	0.361326	0.037422
	H3559	H	0.312226	0.064095	0.123634
	H3560	H	0.312514	0.064617	0.124989
	H3561	H	0.314339	0.064467	0.125598
	H3562	H	0.314918	0.941365	-0.000252
	H3563	H	0.314031	0.941371	0.000338
	H3564	H	0.312676	0.941657	-0.000401
	H3565	H	0.312243	0.941219	0.123703
	H3566	H	0.312518	0.941179	0.125095
	H3567	H	0.314447	0.941570	0.125627
	Zn3568	Zn	0.251341	0.679882	0.061566
	Zn3569	Zn	0.251359	0.825645	0.061491
	Zn3570	Zn	0.251306	0.179835	0.061495
	Zn3571	Zn	0.251344	0.325855	0.061474
	Zn3572	Zn	0.313945	0.680193	0.123967
	Zn3573	Zn	0.313935	0.825689	0.124074
	Zn3574	Zn	0.313883	0.180257	0.123978
	Zn3575	Zn	0.313914	0.325608	0.124092
	C3576	C	0.361635	0.753189	0.046716
	C3577	C	0.266172	0.753003	0.076321
	C3578	C	0.274678	0.753013	0.084847
	C3579	C	0.278694	0.691702	0.088815
	C3580	C	0.278677	0.814098	0.088860
	C3581	C	0.266232	0.252850	0.076272
	C3582	C	0.274728	0.252851	0.084806
	C3583	C	0.278720	0.191492	0.088817
	C3584	C	0.278713	0.314325	0.088811
	C3585	C	0.266199	0.752526	0.046724
	C3586	C	0.274725	0.752486	0.038214
	C3587	C	0.278773	0.813743	0.034262
	C3588	C	0.278748	0.691273	0.034251
	C3589	C	0.266105	0.253039	0.046681
	C3590	C	0.274659	0.252937	0.038205
	C3591	C	0.278711	0.314110	0.034256
	C3592	C	0.278678	0.191721	0.034237
	C3593	C	0.376735	0.043326	0.062530
	C3594	C	0.376757	0.962645	0.062499
	C3595	C	0.250735	0.043084	0.062200
	C3596	C	0.250744	0.962402	0.062194
	C3597	C	0.252210	0.043256	0.061633
	C3598	C	0.252247	0.962313	0.061649
	C3599	C	0.252414	0.462445	0.061068
	C3600	C	0.376765	0.462327	0.061378
	C3601	C	0.376334	0.462493	0.061896
	C3602	C	0.252413	0.543321	0.061102
	C3603	C	0.376307	0.543023	0.061890
	C3604	C	0.376733	0.543227	0.061383
	C3605	C	0.361592	0.753290	0.076337
	C3606	C	0.361590	0.253018	0.076374
	C3607	C	0.353055	0.753412	0.084821
	C3608	C	0.349104	0.692413	0.088899
	C3609	C	0.349039	0.814636	0.088823
	C3610	C	0.353067	0.253295	0.084871
	C3611	C	0.349106	0.192085	0.088889
	C3612	C	0.349065	0.314586	0.088854
	C3613	C	0.361591	0.252956	0.046778
	C3614	C	0.328672	0.752994	0.013876
	C3615	C	0.299074	0.752454	0.013833
	C3616	C	0.299125	0.752839	0.109179
	C3617	C	0.349087	0.691728	0.034226
	C3618	C	0.349029	0.814611	0.034261
	C3619	C	0.337209	0.752979	0.022377
	C3620	C	0.290559	0.752502	0.022347
	C3621	C	0.286604	0.691311	0.026400
	C3622	C	0.341237	0.691642	0.026363
	C3623	C	0.341173	0.814425	0.026405
	C3624	C	0.286627	0.813750	0.026407
	C3625	C	0.353098	0.753190	0.038214
	C3626	C	0.328776	0.753498	0.109303
	C3627	C	0.341268	0.692489	0.096764
	C3628	C	0.341196	0.814770	0.096695
	C3629	C	0.337231	0.753633	0.100719
	C3630	C	0.314547	0.462214	0.121483
	C3631	C	0.312796	0.462649	-0.000541
	C3632	C	0.311426	0.462645	0.124821
	C3633	C	0.314548	0.543142	0.121435
	C3634	C	0.311429	0.543381	0.124793
	C3635	C	0.312804	0.543030	-0.000562
	C3636	C	0.328717	0.253224	0.109217
	C3637	C	0.341252	0.192080	0.096733
	C3638	C	0.341212	0.314655	0.096702
	C3639	C	0.337238	0.253371	0.100716
	C3640	C	0.314294	0.043254	-0.000222
	C3641	C	0.328697	0.252937	0.013858
	C3642	C	0.299117	0.252976	0.013910
	C3643	C	0.299057	0.253051	0.109220
	C3644	C	0.349075	0.191763	0.034245
	C3645	C	0.349093	0.314266	0.034236
	C3646	C	0.337243	0.252961	0.022361
	C3647	C	0.290589	0.252930	0.022421
	C3648	C	0.290562	0.752804	0.100682
	C3649	C	0.286540	0.813968	0.096709
	C3650	C	0.286551	0.691644	0.096665
	C3651	C	0.290548	0.253172	0.100706
	C3652	C	0.286553	0.314440	0.096675
	C3653	C	0.286567	0.191766	0.096683
	C3654	C	0.286554	0.191791	0.026418
	C3655	C	0.341220	0.191722	0.026389
	C3656	C	0.341244	0.314245	0.026371
	C3657	C	0.286597	0.314034	0.026435
	C3658	C	0.353098	0.252998	0.038231
	C3659	C	0.312767	0.043244	0.124252
	C3660	C	0.313008	0.043243	-0.000964
	C3661	C	0.314311	0.962556	-0.000241
	C3662	C	0.312790	0.962621	0.124308
	C3663	C	0.313018	0.962563	-0.000966
	N3664	N	0.251297	0.069858	0.061476
	N3665	N	0.251339	0.935438	0.061499
	N3666	N	0.251342	0.435727	0.061526
	N3667	N	0.251360	0.570068	0.061556
	N3668	N	0.313923	0.435756	0.124044
	N3669	N	0.313942	0.570186	0.124003
	N3670	N	0.313861	0.070148	0.124002
	N3671	N	0.313894	0.935715	0.124035
	O3672	O	0.364776	0.694965	0.175096
	O3673	O	0.364911	0.810926	0.174969
	O3674	O	0.262906	0.695030	0.198105
	O3675	O	0.262898	0.810848	0.198112
	O3676	O	0.262999	0.194823	0.198057
	O3677	O	0.263013	0.310844	0.198000
	O3678	O	0.262918	0.694870	0.175011
	O3679	O	0.262908	0.810618	0.174993
	O3680	O	0.262915	0.194990	0.174985
	O3681	O	0.262852	0.311012	0.174947
	O3682	O	0.364715	0.694825	0.198054
	O3683	O	0.364789	0.810965	0.198096
	O3684	O	0.364894	0.195012	0.198195
	O3685	O	0.364893	0.310611	0.198151
	O3686	O	0.364830	0.194733	0.175088
	O3687	O	0.364805	0.310434	0.175089
	O3688	O	0.325393	0.695157	0.135550
	O3689	O	0.302369	0.695040	0.135472
	O3690	O	0.325400	0.694780	0.237559
	O3691	O	0.325513	0.810861	0.237632
	O3692	O	0.302325	0.695109	0.237549
	O3693	O	0.302436	0.810899	0.237514
	O3694	O	0.302387	0.810971	0.135534
	O3695	O	0.325390	0.811178	0.135696
	O3696	O	0.325426	0.194639	0.135508
	O3697	O	0.302456	0.194854	0.135615
	O3698	O	0.325297	0.195041	0.237501
	O3699	O	0.325338	0.310887	0.237512
	O3700	O	0.302346	0.195035	0.237601
	O3701	O	0.302318	0.310918	0.237678
	O3702	O	0.302408	0.310707	0.135594
	O3703	O	0.325566	0.310558	0.135494
	H3704	H	0.275504	0.645086	0.210820
	H3705	H	0.275574	0.860836	0.210692
	H3706	H	0.275634	0.144977	0.210670
	H3707	H	0.275550	0.361129	0.210816
	H3708	H	0.275566	0.860895	0.162313
	H3709	H	0.275628	0.644419	0.162384
	H3710	H	0.275499	0.360994	0.162321
	H3711	H	0.275591	0.144507	0.162355
	H3712	H	0.375944	0.064556	0.187450
	H3713	H	0.376722	0.065012	0.187451
	H3714	H	0.376677	0.941468	0.187430
	H3715	H	0.375881	0.941804	0.187377
	H3716	H	0.375417	0.064741	0.186494
	H3717	H	0.375422	0.941661	0.186460
	H3718	H	0.251259	0.064478	0.186397
	H3719	H	0.251184	0.941747	0.186405
	H3720	H	0.251196	0.064837	0.186569
	H3721	H	0.251136	0.941683	0.186608
	H3722	H	0.251268	0.064423	0.186827
	H3723	H	0.251350	0.941113	0.186817
	H3724	H	0.251416	0.441060	0.187487
	H3725	H	0.252140	0.441406	0.187129
	H3726	H	0.250525	0.441096	0.186809
	H3727	H	0.375799	0.441699	0.184795
	H3728	H	0.377832	0.441128	0.185487
	H3729	H	0.378122	0.441398	0.187047
	H3730	H	0.252196	0.564353	0.187127
	H3731	H	0.251455	0.564437	0.187502
	H3732	H	0.378116	0.564230	0.187117
	H3733	H	0.377822	0.564877	0.185494
	H3734	H	0.375800	0.564767	0.184844
	H3735	H	0.250591	0.564615	0.186927
	H3736	H	0.352242	0.644271	0.210816
	H3737	H	0.352182	0.861427	0.210751
	H3738	H	0.352117	0.144787	0.210726
	H3739	H	0.352215	0.360872	0.210771
	H3740	H	0.289743	0.644507	0.148217
	H3741	H	0.338008	0.644423	0.148276
	H3742	H	0.338009	0.861197	0.148256
	H3743	H	0.289722	0.861021	0.148151
	H3744	H	0.352244	0.644415	0.162330
	H3745	H	0.352235	0.861257	0.162357
	H3746	H	0.338109	0.644211	0.224981
	H3747	H	0.338058	0.861393	0.224918
	H3748	H	0.316393	0.440839	0.120978
	H3749	H	0.312659	0.440944	0.247735
	H3750	H	0.317678	0.441343	0.125295
	H3751	H	0.315402	0.441692	0.127709
	H3752	H	0.313302	0.441316	0.250834
	H3753	H	0.312199	0.441196	0.249783
	H3754	H	0.312602	0.564335	0.247695
	H3755	H	0.316334	0.564470	0.120903
	H3756	H	0.312098	0.563929	0.249803
	H3757	H	0.313228	0.564368	0.250867
	H3758	H	0.315466	0.564704	0.127700
	H3759	H	0.317759	0.564552	0.125246
	H3760	H	0.337898	0.144889	0.224770
	H3761	H	0.337965	0.360921	0.224825
	H3762	H	0.314979	0.064960	0.122765
	H3763	H	0.313659	0.064689	0.122379
	H3764	H	0.315430	0.064579	0.124626
	H3765	H	0.289702	0.860935	0.224895
	H3766	H	0.289601	0.645079	0.224977
	H3767	H	0.289628	0.361013	0.225029
	H3768	H	0.289712	0.144771	0.224889
	H3769	H	0.289771	0.144205	0.148234
	H3770	H	0.338063	0.144319	0.148183
	H3771	H	0.338066	0.360347	0.148258
	H3772	H	0.289671	0.361149	0.148194
	H3773	H	0.352151	0.144307	0.162423
	H3774	H	0.352120	0.360342	0.162462
	H3775	H	0.316298	0.064501	0.249193
	H3776	H	0.315449	0.064112	0.247290
	H3777	H	0.312672	0.064194	0.246936
	H3778	H	0.313645	0.941215	0.122402
	H3779	H	0.314978	0.941337	0.122809
	H3780	H	0.315402	0.941955	0.124656
	H3781	H	0.316300	0.941001	0.249142
	H3782	H	0.315481	0.941460	0.247258
	H3783	H	0.312638	0.941678	0.246938
	Zn3784	Zn	0.251421	0.679956	0.186557
	Zn3785	Zn	0.251391	0.825818	0.186502
	Zn3786	Zn	0.251436	0.180180	0.186597
	Zn3787	Zn	0.251418	0.325747	0.186513
	Zn3788	Zn	0.313842	0.679937	0.249091
	Zn3789	Zn	0.313893	0.825478	0.249096
	Zn3790	Zn	0.313882	0.179891	0.249119
	Zn3791	Zn	0.313908	0.325470	0.249129
	C3792	C	0.361559	0.752912	0.171751
	C3793	C	0.266207	0.752940	0.201379
	C3794	C	0.274750	0.752932	0.209862
	C3795	C	0.278682	0.691936	0.213928
	C3796	C	0.278733	0.814024	0.213867
	C3797	C	0.266294	0.252863	0.201303
	C3798	C	0.274800	0.252983	0.209833
	C3799	C	0.278771	0.191859	0.213842
	C3800	C	0.278724	0.314058	0.213921
	C3801	C	0.266237	0.752728	0.171740
	C3802	C	0.274742	0.752649	0.163211
	C3803	C	0.278720	0.813868	0.159171
	C3804	C	0.278744	0.691478	0.159215
	C3805	C	0.266172	0.252989	0.171685
	C3806	C	0.274693	0.252742	0.163160
	C3807	C	0.278682	0.313965	0.159178
	C3808	C	0.278732	0.191475	0.159197
	C3809	C	0.376323	0.043495	0.187223
	C3810	C	0.376286	0.962887	0.187197
	C3811	C	0.251252	0.043357	0.186522
	C3812	C	0.251232	0.962764	0.186521
	C3813	C	0.251399	0.043235	0.186760
	C3814	C	0.251424	0.962535	0.186744
	C3815	C	0.251695	0.462588	0.187122
	C3816	C	0.375510	0.462755	0.185644
	C3817	C	0.377546	0.462471	0.186359
	C3818	C	0.251728	0.543288	0.187113
	C3819	C	0.377523	0.543255	0.186393
	C3820	C	0.375489	0.543191	0.185674
	C3821	C	0.361485	0.752908	0.201362
	C3822	C	0.361605	0.252826	0.201452
	C3823	C	0.352961	0.752820	0.209873
	C3824	C	0.349009	0.691325	0.213901
	C3825	C	0.349005	0.814397	0.213873
	C3826	C	0.353056	0.252819	0.209930
	C3827	C	0.348983	0.191748	0.213866
	C3828	C	0.349043	0.313999	0.213904
	C3829	C	0.361520	0.252552	0.171805
	C3830	C	0.328701	0.752990	0.138883
	C3831	C	0.299136	0.752908	0.138839
	C3832	C	0.299125	0.753063	0.234211
	C3833	C	0.349052	0.691434	0.159228
	C3834	C	0.349065	0.814175	0.159228
	C3835	C	0.337224	0.752776	0.147370
	C3836	C	0.290617	0.752682	0.147359
	C3837	C	0.286588	0.691493	0.151354
	C3838	C	0.341204	0.691475	0.151373
	C3839	C	0.341210	0.814079	0.151375
	C3840	C	0.286569	0.813935	0.151312
	C3841	C	0.353063	0.752770	0.163214
	C3842	C	0.328745	0.752760	0.234321
	C3843	C	0.341193	0.691412	0.221779
	C3844	C	0.341179	0.814274	0.221745
	C3845	C	0.337194	0.752800	0.225755
	C3846	C	0.313520	0.462241	0.247931
	C3847	C	0.315880	0.462707	0.125857
	C3848	C	0.313025	0.462406	0.249976
	C3849	C	0.313474	0.543212	0.247907
	C3850	C	0.312978	0.543016	0.249979
	C3851	C	0.315916	0.543332	0.125829
	C3852	C	0.328612	0.252964	0.234228
	C3853	C	0.341076	0.191850	0.221670
	C3854	C	0.341135	0.314054	0.221709
	C3855	C	0.337124	0.253011	0.225700
	C3856	C	0.314185	0.043476	0.122948
	C3857	C	0.328747	0.252482	0.138813
	C3858	C	0.299143	0.252706	0.138888
	C3859	C	0.299059	0.253021	0.234336
	C3860	C	0.349052	0.191240	0.159227
	C3861	C	0.349051	0.313465	0.159252
	C3862	C	0.337258	0.252332	0.147336
	C3863	C	0.290614	0.252630	0.147383
	C3864	C	0.290613	0.753036	0.225699
	C3865	C	0.286589	0.814061	0.221721
	C3866	C	0.286533	0.692008	0.221767
	C3867	C	0.290581	0.252944	0.225781
	C3868	C	0.286546	0.314093	0.221807
	C3869	C	0.286586	0.191804	0.221732
	C3870	C	0.286602	0.191341	0.151360
	C3871	C	0.341242	0.191254	0.151328
	C3872	C	0.341241	0.313413	0.151362
	C3873	C	0.286550	0.313949	0.151339
	C3874	C	0.353055	0.252338	0.163240
	C3875	C	0.315363	0.043369	0.248453
	C3876	C	0.314602	0.043279	0.124819
	C3877	C	0.314201	0.962432	0.122983
	C3878	C	0.315363	0.962510	0.248449
	C3879	C	0.314642	0.962822	0.124837
	N3880	N	0.251386	0.070150	0.186614
	N3881	N	0.251376	0.935769	0.186581
	N3882	N	0.251465	0.435638	0.186526
	N3883	N	0.251479	0.569992	0.186539
	N3884	N	0.313867	0.435616	0.249088
	N3885	N	0.313817	0.570029	0.249090
	N3886	N	0.313815	0.069974	0.249107
	N3887	N	0.313837	0.935554	0.249096
	O3888	O	0.364800	0.694722	0.300063
	O3889	O	0.364754	0.810563	0.300119
	O3890	O	0.262837	0.694812	0.323201
	O3891	O	0.262817	0.810712	0.323255
	O3892	O	0.262830	0.194452	0.323257
	O3893	O	0.262906	0.310349	0.323239
	O3894	O	0.263048	0.695099	0.300161
	O3895	O	0.262974	0.810878	0.300173
	O3896	O	0.262961	0.194807	0.300129
	O3897	O	0.262957	0.310664	0.300176
	O3898	O	0.364682	0.695200	0.323095
	O3899	O	0.364665	0.811125	0.323054
	O3900	O	0.364675	0.194959	0.323134
	O3901	O	0.364742	0.310796	0.323162
	O3902	O	0.364731	0.194210	0.300150
	O3903	O	0.364755	0.310126	0.300133
	O3904	O	0.325348	0.695033	0.260630
	O3905	O	0.302311	0.695168	0.260590
	O3906	O	0.325295	0.695566	0.362626
	O3907	O	0.325441	0.811383	0.362789
	O3908	O	0.302382	0.694952	0.362581
	O3909	O	0.302246	0.810866	0.362726
	O3910	O	0.302297	0.811131	0.260602
	O3911	O	0.325357	0.810758	0.260661
	O3912	O	0.325420	0.194950	0.260551
	O3913	O	0.302337	0.194953	0.260624
	O3914	O	0.325322	0.195211	0.362645
	O3915	O	0.325331	0.311036	0.362650
	O3916	O	0.302253	0.194601	0.362730
	O3917	O	0.302318	0.310552	0.362663
	O3918	O	0.302348	0.310775	0.260628
	O3919	O	0.325405	0.310831	0.260646
	H3920	H	0.275523	0.644309	0.335833
	H3921	H	0.275466	0.861362	0.335901
	H3922	H	0.275486	0.144002	0.335896
	H3923	H	0.275617	0.361192	0.335846
	H3924	H	0.275537	0.861315	0.287464
	H3925	H	0.275656	0.644912	0.287442
	H3926	H	0.275522	0.360981	0.287455
	H3927	H	0.275510	0.144428	0.287343
	H3928	H	0.375765	0.065233	0.309945
	H3929	H	0.374569	0.064292	0.310908
	H3930	H	0.374564	0.941474	0.310934
	H3931	H	0.375703	0.940855	0.309930
	H3932	H	0.377674	0.064748	0.310652
	H3933	H	0.377666	0.941337	0.310572
	H3934	H	0.251030	0.064037	0.310900
	H3935	H	0.250985	0.941295	0.310933
	H3936	H	0.250627	0.064519	0.311516
	H3937	H	0.250631	0.940619	0.311479
	H3938	H	0.251065	0.063707	0.312342
	H3939	H	0.251037	0.940636	0.312326
	H3940	H	0.252393	0.441436	0.310914
	H3941	H	0.251543	0.441028	0.310405
	H3942	H	0.252367	0.441331	0.312214
	H3943	H	0.376643	0.441360	0.311355
	H3944	H	0.376733	0.441276	0.311962
	H3945	H	0.376311	0.441233	0.312277
	H3946	H	0.251539	0.564545	0.310392
	H3947	H	0.252394	0.564226	0.310876
	H3948	H	0.376341	0.564761	0.312298
	H3949	H	0.376713	0.564646	0.311946
	H3950	H	0.376629	0.564011	0.311260
	H3951	H	0.252410	0.564187	0.312212
	H3952	H	0.352067	0.645167	0.335781
	H3953	H	0.352143	0.861631	0.335853
	H3954	H	0.352080	0.145284	0.335829
	H3955	H	0.352070	0.360840	0.335756
	H3956	H	0.289733	0.645337	0.273257
	H3957	H	0.337939	0.644631	0.273356
	H3958	H	0.337997	0.860591	0.273344
	H3959	H	0.289641	0.861392	0.273277
	H3960	H	0.352137	0.644786	0.287482
	H3961	H	0.352189	0.860337	0.287457
	H3962	H	0.337990	0.645365	0.349998
	H3963	H	0.338088	0.861815	0.350084
	H3964	H	0.314124	0.441179	0.247317
	H3965	H	0.312167	0.441599	0.375296
	H3966	H	0.315608	0.441308	0.248752
	H3967	H	0.315324	0.441434	0.250247
	H3968	H	0.315512	0.440569	0.375176
	H3969	H	0.314192	0.440977	0.376122
	H3970	H	0.312190	0.564466	0.375271
	H3971	H	0.314057	0.564687	0.247250
	H3972	H	0.314237	0.563823	0.376093
	H3973	H	0.315518	0.563514	0.375100
	H3974	H	0.315271	0.564576	0.250230
	H3975	H	0.315667	0.564406	0.248737
	H3976	H	0.337948	0.145481	0.350030
	H3977	H	0.337945	0.361051	0.349940
	H3978	H	0.312560	0.064423	0.251185
	H3979	H	0.314595	0.064452	0.251401
	H3980	H	0.311411	0.064715	0.248630
	H3981	H	0.289640	0.861205	0.350047
	H3982	H	0.289697	0.644392	0.349964
	H3983	H	0.289748	0.361106	0.350016
	H3984	H	0.289580	0.143821	0.350049
	H3985	H	0.289561	0.144447	0.273136
	H3986	H	0.338039	0.144492	0.273267
	H3987	H	0.337935	0.360269	0.273363
	H3988	H	0.289571	0.361278	0.273216
	H3989	H	0.352166	0.144588	0.287463
	H3990	H	0.352060	0.360106	0.287538
	H3991	H	0.312284	0.064357	0.373618
	H3992	H	0.312365	0.064405	0.375051
	H3993	H	0.314110	0.064402	0.375944
	H3994	H	0.314615	0.941526	0.251422
	H3995	H	0.312576	0.941286	0.251184
	H3996	H	0.311413	0.941058	0.248591
	H3997	H	0.312302	0.941433	0.373572
	H3998	H	0.312332	0.941135	0.375017
	H3999	H	0.314051	0.940709	0.375900
	Zn4000	Zn	0.251403	0.680043	0.311566
	Zn4001	Zn	0.251391	0.825481	0.311641
	Zn4002	Zn	0.251411	0.179905	0.311631
	Zn4003	Zn	0.251405	0.325520	0.311655
	Zn4004	Zn	0.313848	0.679909	0.374151
	Zn4005	Zn	0.313796	0.825625	0.374178
	Zn4006	Zn	0.313863	0.179983	0.374184
	Zn4007	Zn	0.313793	0.325418	0.374225
	C4008	C	0.361469	0.752627	0.296840
	C4009	C	0.266114	0.752723	0.326517
	C4010	C	0.274640	0.752796	0.335007
	C4011	C	0.278669	0.691461	0.338983
	C4012	C	0.278635	0.814150	0.339023
	C4013	C	0.266150	0.252420	0.326540
	C4014	C	0.274661	0.252626	0.335045
	C4015	C	0.278636	0.191185	0.339038
	C4016	C	0.278718	0.314012	0.339025
	C4017	C	0.266284	0.753055	0.296868
	C4018	C	0.274746	0.753200	0.288312
	C4019	C	0.278683	0.814424	0.284296
	C4020	C	0.278746	0.692026	0.284292
	C4021	C	0.266198	0.252758	0.296828
	C4022	C	0.274689	0.252756	0.288288
	C4023	C	0.278661	0.313989	0.284289
	C4024	C	0.278668	0.191556	0.284233
	C4025	C	0.375437	0.043526	0.310750
	C4026	C	0.375438	0.962401	0.310741
	C4027	C	0.250989	0.043119	0.311318
	C4028	C	0.250996	0.962254	0.311323
	C4029	C	0.251422	0.042638	0.312158
	C4030	C	0.251399	0.962265	0.312153
	C4031	C	0.251844	0.462389	0.310889
	C4032	C	0.376385	0.462397	0.311339
	C4033	C	0.376429	0.462423	0.312024
	C4034	C	0.251834	0.543240	0.310876
	C4035	C	0.376440	0.543290	0.312014
	C4036	C	0.376360	0.543074	0.311321
	C4037	C	0.361432	0.753218	0.326397
	C4038	C	0.361424	0.252943	0.326429
	C4039	C	0.352988	0.753338	0.334985
	C4040	C	0.348973	0.692173	0.338979
	C4041	C	0.349023	0.814639	0.339023
	C4042	C	0.352930	0.253036	0.334954
	C4043	C	0.348948	0.192115	0.338993
	C4044	C	0.348943	0.314097	0.338945
	C4045	C	0.361460	0.252190	0.296868
	C4046	C	0.328620	0.752830	0.263934
	C4047	C	0.299029	0.753140	0.263881
	C4048	C	0.299027	0.752885	0.359369
	C4049	C	0.348944	0.691476	0.284345
	C4050	C	0.348965	0.813613	0.284333
	C4051	C	0.337090	0.752582	0.272489
	C4052	C	0.290518	0.753345	0.272399
	C4053	C	0.286566	0.692139	0.276411
	C4054	C	0.341087	0.691546	0.276493
	C4055	C	0.341105	0.813599	0.276488
	C4056	C	0.286519	0.814466	0.276429
	C4057	C	0.352918	0.752568	0.288348
	C4058	C	0.328669	0.753502	0.359426
	C4059	C	0.341144	0.692317	0.346858
	C4060	C	0.341207	0.814775	0.346914
	C4061	C	0.337184	0.753596	0.350907
	C4062	C	0.312535	0.462632	0.374402
	C4063	C	0.315041	0.462715	0.249393
	C4064	C	0.314594	0.462089	0.375263
	C4065	C	0.312547	0.543268	0.374383
	C4066	C	0.314616	0.542795	0.375239
	C4067	C	0.315031	0.543258	0.249393
	C4068	C	0.328616	0.253135	0.359356
	C4069	C	0.341114	0.192181	0.346859
	C4070	C	0.341105	0.314192	0.346809
	C4071	C	0.337136	0.253197	0.350850
	C4072	C	0.313652	0.043006	0.250741
	C4073	C	0.328669	0.252748	0.263907
	C4074	C	0.299041	0.252863	0.263903
	C4075	C	0.299013	0.252568	0.359403
	C4076	C	0.349009	0.191347	0.284317
	C4077	C	0.348948	0.313437	0.284357
	C4078	C	0.337169	0.252408	0.272443
	C4079	C	0.290510	0.252957	0.272397
	C4080	C	0.290519	0.752885	0.350845
	C4081	C	0.286497	0.814206	0.346858
	C4082	C	0.286529	0.691507	0.346825
	C4083	C	0.290512	0.252501	0.350888
	C4084	C	0.286565	0.313969	0.346882
	C4085	C	0.286479	0.191093	0.346897
	C4086	C	0.286484	0.191570	0.276350
	C4087	C	0.341186	0.191350	0.276433
	C4088	C	0.341125	0.313397	0.276477
	C4089	C	0.286471	0.314151	0.276401
	C4090	C	0.352971	0.252419	0.288341
	C4091	C	0.312738	0.043247	0.374289
	C4092	C	0.312509	0.043188	0.248140
	C4093	C	0.313663	0.962432	0.250731
	C4094	C	0.312728	0.962462	0.374265
	C4095	C	0.312519	0.962394	0.248117
	N4096	N	0.251435	0.069951	0.311601
	N4097	N	0.251425	0.935592	0.311617
	N4098	N	0.251441	0.435525	0.311589
	N4099	N	0.251432	0.569946	0.311560
	N4100	N	0.313768	0.435467	0.374228
	N4101	N	0.313796	0.569915	0.374200
	N4102	N	0.313874	0.070081	0.374235
	N4103	N	0.313843	0.935681	0.374199
	O4104	O	0.364897	0.694742	0.425120
	O4105	O	0.364888	0.810771	0.425097
	O4106	O	0.262712	0.694926	0.448368
	O4107	O	0.262841	0.810835	0.448212
	O4108	O	0.262695	0.194922	0.448247
	O4109	O	0.262770	0.310859	0.448228
	O4110	O	0.262909	0.695065	0.425274
	O4111	O	0.262918	0.811018	0.425245
	O4112	O	0.262971	0.194031	0.425231
	O4113	O	0.262852	0.309915	0.425182
	O4114	O	0.364735	0.694642	0.448207
	O4115	O	0.364718	0.810537	0.448187
	O4116	O	0.364751	0.195135	0.448213
	O4117	O	0.364768	0.311102	0.448204
	O4118	O	0.364788	0.194777	0.425212
	O4119	O	0.364897	0.310714	0.425144
	O4120	O	0.325291	0.694845	0.385792
	O4121	O	0.302321	0.694789	0.385705
	O4122	O	0.325351	0.694723	0.487723
	O4123	O	0.325382	0.810549	0.487715
	O4124	O	0.302303	0.694832	0.487685
	O4125	O	0.302309	0.810566	0.487693
	O4126	O	0.302164	0.810673	0.385599
	O4127	O	0.325316	0.810732	0.385713
	O4128	O	0.325315	0.195114	0.385775
	O4129	O	0.302325	0.194418	0.385683
	O4130	O	0.325410	0.195145	0.487839
	O4131	O	0.325394	0.311098	0.487781
	O4132	O	0.302286	0.194930	0.487651
	O4133	O	0.302375	0.310983	0.487598
	O4134	O	0.302272	0.310295	0.385683
	O4135	O	0.325310	0.311031	0.385743
	H4136	H	0.275455	0.644466	0.460961
	H4137	H	0.275504	0.861142	0.460883
	H4138	H	0.275387	0.144889	0.460917
	H4139	H	0.275463	0.361033	0.460838
	H4140	H	0.275551	0.861146	0.412602
	H4141	H	0.275498	0.644563	0.412547
	H4142	H	0.275481	0.360224	0.412479
	H4143	H	0.275596	0.143931	0.412539
	H4144	H	0.377564	0.064213	0.436829
	H4145	H	0.377213	0.064377	0.435831
	H4146	H	0.377154	0.941128	0.435854
	H4147	H	0.377587	0.940743	0.436850
	H4148	H	0.376645	0.064220	0.437958
	H4149	H	0.376694	0.941172	0.437900
	H4150	H	0.249813	0.063936	0.435580
	H4151	H	0.249825	0.941346	0.435621
	H4152	H	0.249526	0.064526	0.437057
	H4153	H	0.249582	0.940912	0.437078
	H4154	H	0.251081	0.064636	0.438406
	H4155	H	0.251092	0.940941	0.438378
	H4156	H	0.251611	0.441425	0.437000
	H4157	H	0.251776	0.441437	0.436743
	H4158	H	0.251055	0.441027	0.437000
	H4159	H	0.375990	0.440927	0.437157
	H4160	H	0.375833	0.440772	0.436499
	H4161	H	0.376199	0.441260	0.436129
	H4162	H	0.251735	0.564501	0.436724
	H4163	H	0.251545	0.564044	0.436976
	H4164	H	0.376213	0.563977	0.436088
	H4165	H	0.375759	0.564269	0.436454
	H4166	H	0.375897	0.564550	0.437133
	H4167	H	0.251050	0.564391	0.436933
	H4168	H	0.352080	0.644393	0.460834
	H4169	H	0.352156	0.860645	0.460916
	H4170	H	0.352126	0.144982	0.460899
	H4171	H	0.352144	0.361619	0.460905
	H4172	H	0.289611	0.644409	0.398376
	H4173	H	0.337958	0.644658	0.398455
	H4174	H	0.337888	0.861471	0.398481
	H4175	H	0.289640	0.861128	0.398414
	H4176	H	0.352197	0.644386	0.412528
	H4177	H	0.352103	0.861193	0.412581
	H4178	H	0.337967	0.644350	0.475048
	H4179	H	0.338048	0.860687	0.475115
	H4180	H	0.311933	0.441874	0.373683
	H4181	H	0.316368	0.441138	0.499066
	H4182	H	0.313750	0.441317	0.372294
	H4183	H	0.315209	0.441258	0.372945
	H4184	H	0.312433	0.441469	0.497106
	H4185	H	0.314545	0.441502	0.496811
	H4186	H	0.316327	0.564691	0.499111
	H4187	H	0.311963	0.564430	0.373646
	H4188	H	0.314558	0.564213	0.496730
	H4189	H	0.312390	0.564443	0.497056
	H4190	H	0.315252	0.564560	0.372919
	H4191	H	0.313785	0.564687	0.372283
	H4192	H	0.338030	0.144889	0.475117
	H4193	H	0.338043	0.361278	0.475121
	H4194	H	0.315249	0.064128	0.373189
	H4195	H	0.313957	0.064622	0.372515
	H4196	H	0.315335	0.064056	0.375159
	H4197	H	0.289684	0.861132	0.475002
	H4198	H	0.289618	0.644625	0.475092
	H4199	H	0.289654	0.361322	0.474938
	H4200	H	0.289579	0.144705	0.474991
	H4201	H	0.289720	0.143873	0.398343
	H4202	H	0.337984	0.144749	0.398431
	H4203	H	0.338013	0.361137	0.398391
	H4204	H	0.289572	0.360367	0.398306
	H4205	H	0.352136	0.144649	0.412585
	H4206	H	0.352159	0.361453	0.412535
	H4207	H	0.315242	0.064023	0.498658
	H4208	H	0.314380	0.064132	0.497742
	H4209	H	0.312686	0.064523	0.498220
	H4210	H	0.313927	0.941671	0.372525
	H4211	H	0.315196	0.941466	0.373197
	H4212	H	0.315247	0.940855	0.375104
	H4213	H	0.315262	0.940827	0.498664
	H4214	H	0.314332	0.940966	0.497718
	H4215	H	0.312672	0.941349	0.498177
	Zn4216	Zn	0.251279	0.680170	0.436673
	Zn4217	Zn	0.251307	0.825568	0.436700
	Zn4218	Zn	0.251226	0.180026	0.436627
	Zn4219	Zn	0.251331	0.325631	0.436647
	Zn4220	Zn	0.313772	0.680306	0.499228
	Zn4221	Zn	0.313838	0.825728	0.499237
	Zn4222	Zn	0.313755	0.180194	0.499205
	Zn4223	Zn	0.313815	0.325696	0.499247
	C4224	C	0.361598	0.752702	0.421834
	C4225	C	0.266075	0.752882	0.451569
	C4226	C	0.274613	0.752756	0.460074
	C4227	C	0.278611	0.691529	0.464090
	C4228	C	0.278640	0.814080	0.464037
	C4229	C	0.266035	0.252787	0.451512
	C4230	C	0.274567	0.252853	0.460031
	C4231	C	0.278554	0.191711	0.464047
	C4232	C	0.278602	0.314153	0.464010
	C4233	C	0.266177	0.753012	0.421956
	C4234	C	0.274657	0.752868	0.413402
	C4235	C	0.278675	0.814078	0.409418
	C4236	C	0.278650	0.691621	0.409397
	C4237	C	0.266172	0.252013	0.421886
	C4238	C	0.274670	0.251997	0.413351
	C4239	C	0.278643	0.313255	0.409341
	C4240	C	0.278715	0.190817	0.409365
	C4241	C	0.377099	0.043143	0.436447
	C4242	C	0.377097	0.962315	0.436462
	C4243	C	0.250089	0.043016	0.436398
	C4244	C	0.250119	0.962479	0.436422
	C4245	C	0.251661	0.043172	0.437731
	C4246	C	0.251663	0.962359	0.437743
	C4247	C	0.251590	0.462595	0.436783
	C4248	C	0.376218	0.462490	0.437117
	C4249	C	0.376089	0.462247	0.436433
	C4250	C	0.251557	0.543118	0.436770
	C4251	C	0.376086	0.542951	0.436391
	C4252	C	0.376206	0.543024	0.437101
	C4253	C	0.361430	0.752600	0.451483
	C4254	C	0.361442	0.253140	0.451466
	C4255	C	0.352917	0.752582	0.460005
	C4256	C	0.348925	0.691359	0.464003
	C4257	C	0.348969	0.813718	0.464046
	C4258	C	0.352916	0.253183	0.459982
	C4259	C	0.348958	0.191963	0.464036
	C4260	C	0.348968	0.314431	0.464030
	C4261	C	0.361565	0.252793	0.421896
	C4262	C	0.328576	0.752871	0.389052
	C4263	C	0.298961	0.752698	0.388946
	C4264	C	0.299031	0.752721	0.484400
	C4265	C	0.349026	0.691474	0.409381
	C4266	C	0.348970	0.814161	0.409404
	C4267	C	0.337095	0.753017	0.397569
	C4268	C	0.290476	0.752708	0.397493
	C4269	C	0.286470	0.691487	0.401512
	C4270	C	0.341135	0.691696	0.401564
	C4271	C	0.341083	0.814290	0.401584
	C4272	C	0.286499	0.814038	0.401535
	C4273	C	0.353049	0.752746	0.413336
	C4274	C	0.328630	0.752633	0.484427
	C4275	C	0.341094	0.691415	0.471881
	C4276	C	0.341142	0.813650	0.471922
	C4277	C	0.337112	0.752565	0.475897
	C4278	C	0.315410	0.462428	0.499868
	C4279	C	0.314319	0.462469	0.373035
	C4280	C	0.313573	0.462697	0.497540
	C4281	C	0.315383	0.543380	0.499861
	C4282	C	0.313556	0.543140	0.497521
	C4283	C	0.314327	0.543292	0.373020
	C4284	C	0.328659	0.253051	0.484489
	C4285	C	0.341143	0.191846	0.471927
	C4286	C	0.341164	0.314279	0.471935
	C4287	C	0.337129	0.252959	0.475918
	C4288	C	0.314402	0.043180	0.373203
	C4289	C	0.328583	0.253096	0.389063
	C4290	C	0.298994	0.252268	0.388946
	C4291	C	0.299024	0.253006	0.484355
	C4292	C	0.348998	0.191663	0.409417
	C4293	C	0.349011	0.314307	0.409402
	C4294	C	0.337115	0.253039	0.397580
	C4295	C	0.290500	0.252107	0.397464
	C4296	C	0.290519	0.752799	0.475890
	C4297	C	0.286506	0.814002	0.471880
	C4298	C	0.286476	0.691638	0.471931
	C4299	C	0.290481	0.252969	0.475857
	C4300	C	0.286481	0.314197	0.471839
	C4301	C	0.286437	0.191836	0.471871
	C4302	C	0.286561	0.190841	0.401499
	C4303	C	0.341126	0.191837	0.401579
	C4304	C	0.341137	0.314184	0.401564
	C4305	C	0.286478	0.313256	0.401477
	C4306	C	0.353026	0.252972	0.413391
	C4307	C	0.314549	0.043165	0.498476
	C4308	C	0.314500	0.043031	0.375186
	C4309	C	0.314388	0.962691	0.373201
	C4310	C	0.314568	0.962390	0.498448
	C4311	C	0.314466	0.962095	0.375161
	N4312	N	0.251264	0.069987	0.436606
	N4313	N	0.251266	0.935608	0.436630
	N4314	N	0.251327	0.435667	0.436660
	N4315	N	0.251301	0.570096	0.436644
	N4316	N	0.313825	0.435616	0.499232
	N4317	N	0.313755	0.570020	0.499200
	N4318	N	0.313797	0.070214	0.499178
	N4319	N	0.313820	0.935793	0.499160
	O4320	O	0.364896	0.694953	0.550105
	O4321	O	0.364912	0.810892	0.550101
	O4322	O	0.262829	0.695214	0.573261
	O4323	O	0.262863	0.811076	0.573271
	O4324	O	0.262836	0.195139	0.573281
	O4325	O	0.262849	0.311108	0.573294
	O4326	O	0.262955	0.694776	0.550251
	O4327	O	0.262840	0.810648	0.550187
	O4328	O	0.262865	0.194874	0.550253
	O4329	O	0.262920	0.310691	0.550310
	O4330	O	0.364802	0.694479	0.573096
	O4331	O	0.364867	0.810651	0.573160
	O4332	O	0.364826	0.194433	0.573073
	O4333	O	0.364867	0.309987	0.573183
	O4334	O	0.364939	0.194819	0.550052
	O4335	O	0.364903	0.310629	0.550069
	O4336	O	0.325318	0.695432	0.510770
	O4337	O	0.302343	0.694853	0.510788
	O4338	O	0.325391	0.694699	0.612657
	O4339	O	0.325451	0.810806	0.612623
	O4340	O	0.302319	0.695275	0.612686
	O4341	O	0.302436	0.810979	0.612636
	O4342	O	0.302302	0.810511	0.510730
	O4343	O	0.325336	0.811167	0.510756
	O4344	O	0.325267	0.195056	0.510797
	O4345	O	0.302195	0.194819	0.510690
	O4346	O	0.325374	0.194743	0.612623
	O4347	O	0.325460	0.310592	0.612609
	O4348	O	0.302369	0.194804	0.612688
	O4349	O	0.302390	0.310926	0.612663
	O4350	O	0.302202	0.310535	0.510665
	O4351	O	0.325239	0.311007	0.510843
	H4352	H	0.275537	0.645194	0.585828
	H4353	H	0.275608	0.861580	0.585843
	H4354	H	0.275517	0.144511	0.585931
	H4355	H	0.275579	0.361237	0.585873
	H4356	H	0.275473	0.860628	0.537517
	H4357	H	0.275595	0.644480	0.537577
	H4358	H	0.275557	0.360832	0.537637
	H4359	H	0.275561	0.144801	0.537675
	H4360	H	0.376127	0.064846	0.559265
	H4361	H	0.374464	0.064405	0.560401
	H4362	H	0.374383	0.941195	0.560399
	H4363	H	0.376073	0.941103	0.559284
	H4364	H	0.378592	0.064494	0.560485
	H4365	H	0.378571	0.941337	0.560473
	H4366	H	0.249010	0.064132	0.563784
	H4367	H	0.249035	0.941599	0.563860
	H4368	H	0.251486	0.064355	0.564917
	H4369	H	0.251501	0.941108	0.564855
	H4370	H	0.254433	0.064412	0.562672
	H4371	H	0.254427	0.940836	0.562620
	H4372	H	0.251701	0.441021	0.561821
	H4373	H	0.251622	0.441585	0.561497
	H4374	H	0.251369	0.441033	0.562133
	H4375	H	0.377800	0.441060	0.561854
	H4376	H	0.376647	0.441321	0.563029
	H4377	H	0.375498	0.440796	0.562813
	H4378	H	0.251678	0.564777	0.561544
	H4379	H	0.251709	0.564833	0.561861
	H4380	H	0.375563	0.564253	0.562783
	H4381	H	0.376705	0.563996	0.563026
	H4382	H	0.377804	0.564485	0.561861
	H4383	H	0.251313	0.564129	0.562173
	H4384	H	0.352134	0.643945	0.585740
	H4385	H	0.352196	0.861104	0.585798
	H4386	H	0.352169	0.143948	0.585773
	H4387	H	0.352191	0.359968	0.585779
	H4388	H	0.289745	0.644633	0.523450
	H4389	H	0.338136	0.644555	0.523291
	H4390	H	0.337935	0.861808	0.523456
	H4391	H	0.289632	0.860700	0.523380
	H4392	H	0.352337	0.644568	0.537383
	H4393	H	0.352138	0.861720	0.537554
	H4394	H	0.338001	0.644126	0.599916
	H4395	H	0.338098	0.860992	0.599984
	H4396	H	0.315591	0.441271	0.501111
	H4397	H	0.315222	0.441166	0.623272
	H4398	H	0.312673	0.441506	0.501513
	H4399	H	0.311322	0.441565	0.499811
	H4400	H	0.312471	0.441434	0.623453
	H4401	H	0.313532	0.441617	0.622601
	H4402	H	0.315209	0.564034	0.623331
	H4403	H	0.315489	0.564512	0.501063
	H4404	H	0.313511	0.564072	0.622662
	H4405	H	0.312496	0.564687	0.623420
	H4406	H	0.311296	0.564649	0.499803
	H4407	H	0.312577	0.564562	0.501485
	H4408	H	0.338044	0.143930	0.599977
	H4409	H	0.338093	0.360126	0.599981
	H4410	H	0.313543	0.064531	0.500633
	H4411	H	0.314753	0.064140	0.500360
	H4412	H	0.312308	0.064677	0.499405
	H4413	H	0.289808	0.861340	0.599988
	H4414	H	0.289726	0.645129	0.599923
	H4415	H	0.289788	0.361265	0.599982
	H4416	H	0.289728	0.144551	0.600013
	H4417	H	0.289671	0.144789	0.523442
	H4418	H	0.337991	0.144864	0.523357
	H4419	H	0.338006	0.360863	0.523381
	H4420	H	0.289665	0.360757	0.523410
	H4421	H	0.352264	0.144458	0.537390
	H4422	H	0.352270	0.360763	0.537406
	H4423	H	0.313647	0.064761	0.623312
	H4424	H	0.313062	0.063886	0.623826
	H4425	H	0.313223	0.064164	0.624930
	H4426	H	0.314810	0.941418	0.500374
	H4427	H	0.313543	0.941352	0.500676
	H4428	H	0.312338	0.941150	0.499442
	H4429	H	0.313649	0.940993	0.623240
	H4430	H	0.313047	0.941452	0.623811
	H4431	H	0.313249	0.941662	0.624848
	Zn4432	Zn	0.251349	0.679935	0.561738
	Zn4433	Zn	0.251369	0.825840	0.561699
	Zn4434	Zn	0.251370	0.179738	0.561734
	Zn4435	Zn	0.251327	0.325783	0.561707
	Zn4436	Zn	0.313865	0.679859	0.624204
	Zn4437	Zn	0.313925	0.825637	0.624140
	Zn4438	Zn	0.313881	0.179904	0.624228
	Zn4439	Zn	0.313928	0.325519	0.624149
	C4440	C	0.361625	0.752947	0.546811
	C4441	C	0.266136	0.753169	0.576549
	C4442	C	0.274678	0.753337	0.585040
	C4443	C	0.278688	0.692171	0.588987
	C4444	C	0.278740	0.814527	0.589007
	C4445	C	0.266145	0.253066	0.576546
	C4446	C	0.274705	0.252963	0.585030
	C4447	C	0.278703	0.191675	0.589036
	C4448	C	0.278746	0.314200	0.589014
	C4449	C	0.266192	0.752718	0.546943
	C4450	C	0.274700	0.752661	0.538427
	C4451	C	0.278658	0.813763	0.534396
	C4452	C	0.278724	0.691504	0.534429
	C4453	C	0.266183	0.252802	0.547006
	C4454	C	0.274690	0.252856	0.538462
	C4455	C	0.278687	0.313968	0.534446
	C4456	C	0.278685	0.191700	0.534473
	C4457	C	0.375595	0.043409	0.560303
	C4458	C	0.375572	0.962433	0.560298
	C4459	C	0.250546	0.042971	0.563660
	C4460	C	0.250559	0.962495	0.563651
	C4461	C	0.253525	0.043312	0.561414
	C4462	C	0.253514	0.962455	0.561376
	C4463	C	0.251589	0.462316	0.561686
	C4464	C	0.377263	0.462409	0.561402
	C4465	C	0.376165	0.462301	0.562605
	C4466	C	0.251604	0.543334	0.561714
	C4467	C	0.376185	0.542872	0.562570
	C4468	C	0.377289	0.543380	0.561372
	C4469	C	0.361556	0.752539	0.576407
	C4470	C	0.361571	0.252086	0.576428
	C4471	C	0.353072	0.752456	0.584977
	C4472	C	0.349042	0.691045	0.588950
	C4473	C	0.349091	0.813925	0.588986
	C4474	C	0.353043	0.251919	0.584920
	C4475	C	0.349033	0.190815	0.588925
	C4476	C	0.349051	0.313042	0.588930
	C4477	C	0.361611	0.252690	0.546788
	C4478	C	0.328635	0.753251	0.514042
	C4479	C	0.299028	0.752750	0.514034
	C4480	C	0.299080	0.753213	0.609383
	C4481	C	0.349127	0.691753	0.534294
	C4482	C	0.349019	0.814561	0.534386
	C4483	C	0.337180	0.753194	0.522532
	C4484	C	0.290523	0.752729	0.522547
	C4485	C	0.286570	0.691538	0.526575
	C4486	C	0.341244	0.691732	0.526476
	C4487	C	0.341139	0.814607	0.526568
	C4488	C	0.286509	0.813787	0.526543
	C4489	C	0.353101	0.753118	0.538326
	C4490	C	0.328703	0.752631	0.609359
	C4491	C	0.341207	0.691098	0.596828
	C4492	C	0.341255	0.813933	0.596859
	C4493	C	0.337247	0.752514	0.600867
	C4494	C	0.314961	0.462149	0.624024
	C4495	C	0.312461	0.462650	0.500283
	C4496	C	0.313239	0.462580	0.623325
	C4497	C	0.314937	0.542924	0.624036
	C4498	C	0.313232	0.543097	0.623328
	C4499	C	0.312426	0.543392	0.500273
	C4500	C	0.328709	0.252518	0.609336
	C4501	C	0.341182	0.190864	0.596785
	C4502	C	0.341204	0.313156	0.596786
	C4503	C	0.337214	0.252109	0.600800
	C4504	C	0.314070	0.043020	0.500180
	C4505	C	0.328550	0.252959	0.514089
	C4506	C	0.298951	0.252704	0.513993
	C4507	C	0.299106	0.252871	0.609379
	C4508	C	0.349066	0.191529	0.534298
	C4509	C	0.349066	0.313813	0.534309
	C4510	C	0.337126	0.252794	0.522550
	C4511	C	0.290478	0.252749	0.522547
	C4512	C	0.290555	0.753317	0.600882
	C4513	C	0.286605	0.814473	0.596856
	C4514	C	0.286553	0.692240	0.596829
	C4515	C	0.290605	0.252916	0.600843
	C4516	C	0.286613	0.314241	0.596852
	C4517	C	0.286558	0.191607	0.596876
	C4518	C	0.286515	0.191713	0.526595
	C4519	C	0.341167	0.191652	0.526491
	C4520	C	0.341165	0.313979	0.526507
	C4521	C	0.286513	0.313834	0.526568
	C4522	C	0.353072	0.252596	0.538297
	C4523	C	0.313507	0.043143	0.623727
	C4524	C	0.312838	0.043384	0.498911
	C4525	C	0.314087	0.962493	0.500167
	C4526	C	0.313516	0.962545	0.623690
	C4527	C	0.312852	0.962526	0.498899
	N4528	N	0.251372	0.069941	0.561689
	N4529	N	0.251374	0.935652	0.561668
	N4530	N	0.251319	0.435572	0.561701
	N4531	N	0.251327	0.569928	0.561749
	N4532	N	0.313907	0.435524	0.624165
	N4533	N	0.313881	0.569924	0.624170
	N4534	N	0.313915	0.069982	0.624220
	N4535	N	0.313927	0.935670	0.624169
	O4536	O	0.364968	0.694559	0.675028
	O4537	O	0.364922	0.810521	0.675096
	O4538	O	0.262989	0.694916	0.698109
	O4539	O	0.262929	0.810778	0.698146
	O4540	O	0.262977	0.194961	0.698158
	O4541	O	0.263018	0.310933	0.698138
	O4542	O	0.262934	0.695210	0.675083
	O4543	O	0.262905	0.811226	0.675119
	O4544	O	0.262950	0.195037	0.675115
	O4545	O	0.262895	0.310907	0.675132
	O4546	O	0.364944	0.695258	0.698158
	O4547	O	0.364880	0.811275	0.698095
	O4548	O	0.364947	0.195116	0.698175
	O4549	O	0.364893	0.310886	0.698166
	O4550	O	0.364938	0.194680	0.675059
	O4551	O	0.364877	0.310606	0.675183
	O4552	O	0.325425	0.694577	0.635682
	O4553	O	0.302337	0.695387	0.635687
	O4554	O	0.325487	0.695356	0.737646
	O4555	O	0.325468	0.811315	0.737606
	O4556	O	0.302404	0.694716	0.737633
	O4557	O	0.302431	0.810636	0.737643
	O4558	O	0.302434	0.811258	0.635713
	O4559	O	0.325394	0.810527	0.635693
	O4560	O	0.325432	0.195133	0.635674
	O4561	O	0.302377	0.194958	0.635742
	O4562	O	0.325483	0.194898	0.737579
	O4563	O	0.325476	0.310886	0.737677
	O4564	O	0.302425	0.194726	0.737607
	O4565	O	0.302361	0.310667	0.737669
	O4566	O	0.302360	0.310668	0.635655
	O4567	O	0.325434	0.310856	0.635684
	H4568	H	0.275668	0.644461	0.710735
	H4569	H	0.275613	0.861073	0.710835
	H4570	H	0.275485	0.144494	0.710877
	H4571	H	0.275664	0.361119	0.710778
	H4572	H	0.275496	0.861856	0.662437
	H4573	H	0.275593	0.645095	0.662468
	H4574	H	0.275556	0.361356	0.662509
	H4575	H	0.275631	0.144834	0.662528
	H4576	H	0.378027	0.064283	0.687013
	H4577	H	0.377760	0.064145	0.685659
	H4578	H	0.377692	0.941305	0.685681
	H4579	H	0.377958	0.941458	0.686994
	H4580	H	0.376596	0.064509	0.688189
	H4581	H	0.376589	0.941087	0.688171
	H4582	H	0.252832	0.064342	0.687972
	H4583	H	0.252739	0.940784	0.687975
	H4584	H	0.253330	0.064118	0.686489
	H4585	H	0.253258	0.940958	0.686471
	H4586	H	0.251897	0.064104	0.684891
	H4587	H	0.251830	0.941006	0.684860
	H4588	H	0.250712	0.440708	0.687575
	H4589	H	0.251691	0.441137	0.687753
	H4590	H	0.250314	0.441410	0.686355
	H4591	H	0.376923	0.441527	0.688066
	H4592	H	0.375277	0.441665	0.687561
	H4593	H	0.374945	0.440998	0.686324
	H4594	H	0.251770	0.564116	0.687774
	H4595	H	0.250772	0.564568	0.687580
	H4596	H	0.374981	0.564329	0.686267
	H4597	H	0.375236	0.564627	0.687512
	H4598	H	0.376914	0.564786	0.688021
	H4599	H	0.250355	0.564525	0.686310
	H4600	H	0.352324	0.644674	0.710830
	H4601	H	0.352217	0.862032	0.710713
	H4602	H	0.352261	0.144395	0.710742
	H4603	H	0.352319	0.361678	0.710935
	H4604	H	0.289761	0.645294	0.648348
	H4605	H	0.338039	0.644142	0.648402
	H4606	H	0.338087	0.860743	0.648274
	H4607	H	0.289689	0.862006	0.648316
	H4608	H	0.352180	0.644218	0.662543
	H4609	H	0.352253	0.860856	0.662421
	H4610	H	0.338201	0.644780	0.725025
	H4611	H	0.338120	0.862128	0.724892
	H4612	H	0.315437	0.440742	0.624650
	H4613	H	0.316089	0.441226	0.748837
	H4614	H	0.313965	0.440655	0.625756
	H4615	H	0.312714	0.440954	0.625274
	H4616	H	0.312611	0.441916	0.747380
	H4617	H	0.314434	0.441835	0.747058
	H4618	H	0.316162	0.564658	0.748929
	H4619	H	0.315435	0.564323	0.624682
	H4620	H	0.314464	0.564569	0.746952
	H4621	H	0.312650	0.564895	0.747317
	H4622	H	0.312678	0.564577	0.625294
	H4623	H	0.313952	0.564194	0.625789
	H4624	H	0.338101	0.144408	0.724904
	H4625	H	0.338184	0.361544	0.725114
	H4626	H	0.314834	0.064418	0.624459
	H4627	H	0.314646	0.064047	0.623670
	H4628	H	0.313985	0.064569	0.625157
	H4629	H	0.289762	0.860725	0.724995
	H4630	H	0.289805	0.644526	0.724898
	H4631	H	0.289782	0.361306	0.724950
	H4632	H	0.289653	0.144439	0.725052
	H4633	H	0.289776	0.145027	0.648386
	H4634	H	0.338172	0.144460	0.648203
	H4635	H	0.338088	0.361416	0.648385
	H4636	H	0.289689	0.361244	0.648328
	H4637	H	0.352285	0.144133	0.662375
	H4638	H	0.352217	0.361245	0.662563
	H4639	H	0.312539	0.064232	0.751571
	H4640	H	0.314887	0.064123	0.751752
	H4641	H	0.316669	0.064422	0.749174
	H4642	H	0.314696	0.941277	0.623619
	H4643	H	0.314836	0.940880	0.624417
	H4644	H	0.314015	0.941028	0.625123
	H4645	H	0.312491	0.940791	0.751583
	H4646	H	0.314872	0.941195	0.751813
	H4647	H	0.316731	0.941317	0.749215
	Zn4648	Zn	0.251442	0.680030	0.686566
	Zn4649	Zn	0.251340	0.825572	0.686625
	Zn4650	Zn	0.251494	0.180067	0.686654
	Zn4651	Zn	0.251398	0.325566	0.686687
	Zn4652	Zn	0.313955	0.680091	0.749128
	Zn4653	Zn	0.313935	0.825811	0.749200
	Zn4654	Zn	0.313970	0.179925	0.749114
	Zn4655	Zn	0.313935	0.325809	0.749150
	C4656	C	0.361638	0.752522	0.671799
	C4657	C	0.266257	0.752909	0.701417
	C4658	C	0.274788	0.752795	0.709913
	C4659	C	0.278812	0.691595	0.713903
	C4660	C	0.278772	0.813946	0.713952
	C4661	C	0.266271	0.252953	0.701433
	C4662	C	0.274796	0.252787	0.709926
	C4663	C	0.278721	0.191482	0.713985
	C4664	C	0.278791	0.314144	0.713937
	C4665	C	0.266190	0.753278	0.671818
	C4666	C	0.274693	0.753451	0.663291
	C4667	C	0.278681	0.814774	0.659300
	C4668	C	0.278730	0.692199	0.659316
	C4669	C	0.266239	0.253058	0.671865
	C4670	C	0.274725	0.253109	0.663354
	C4671	C	0.278687	0.314296	0.659338
	C4672	C	0.278729	0.191916	0.659350
	C4673	C	0.377483	0.043092	0.686420
	C4674	C	0.377464	0.962653	0.686411
	C4675	C	0.252627	0.043100	0.687083
	C4676	C	0.252592	0.962271	0.687084
	C4677	C	0.251200	0.043031	0.685472
	C4678	C	0.251162	0.962253	0.685462
	C4679	C	0.251286	0.462223	0.687412
	C4680	C	0.377165	0.462738	0.687334
	C4681	C	0.375468	0.462502	0.686843
	C4682	C	0.251298	0.543114	0.687383
	C4683	C	0.375463	0.543223	0.686822
	C4684	C	0.377163	0.543547	0.687342
	C4685	C	0.361656	0.753281	0.701445
	C4686	C	0.361658	0.252954	0.701474
	C4687	C	0.353157	0.753345	0.709974
	C4688	C	0.349165	0.691989	0.713984
	C4689	C	0.349113	0.814809	0.713923
	C4690	C	0.353124	0.253022	0.709974
	C4691	C	0.349105	0.191581	0.713910
	C4692	C	0.349132	0.314408	0.714025
	C4693	C	0.361638	0.252701	0.671823
	C4694	C	0.328679	0.752559	0.638981
	C4695	C	0.299101	0.753407	0.638968
	C4696	C	0.299141	0.752712	0.734336
	C4697	C	0.349070	0.691227	0.659351
	C4698	C	0.349104	0.813774	0.659288
	C4699	C	0.337199	0.752507	0.647496
	C4700	C	0.290573	0.753607	0.647477
	C4701	C	0.286595	0.692306	0.651480
	C4702	C	0.341195	0.691256	0.651521
	C4703	C	0.341230	0.813768	0.651449
	C4704	C	0.286553	0.814879	0.651465
	C4705	C	0.353098	0.752534	0.663305
	C4706	C	0.328797	0.753334	0.734357
	C4707	C	0.341321	0.692104	0.721853
	C4708	C	0.341275	0.814794	0.721791
	C4709	C	0.337323	0.753436	0.725869
	C4710	C	0.315317	0.462375	0.749607
	C4711	C	0.313500	0.462294	0.625172
	C4712	C	0.313635	0.462872	0.747680
	C4713	C	0.315343	0.543393	0.749609
	C4714	C	0.313657	0.543367	0.747659
	C4715	C	0.313469	0.543176	0.625166
	C4716	C	0.328758	0.253010	0.734347
	C4717	C	0.341262	0.191600	0.721769
	C4718	C	0.341283	0.314405	0.721883
	C4719	C	0.337261	0.252986	0.725810
	C4720	C	0.314531	0.043062	0.624082
	C4721	C	0.328750	0.252996	0.638945
	C4722	C	0.299101	0.252933	0.639007
	C4723	C	0.299129	0.252687	0.734343
	C4724	C	0.349151	0.191406	0.659236
	C4725	C	0.349101	0.314173	0.659347
	C4726	C	0.337295	0.252956	0.647425
	C4727	C	0.290571	0.253159	0.647494
	C4728	C	0.290640	0.752665	0.725800
	C4729	C	0.286623	0.813803	0.721811
	C4730	C	0.286659	0.691533	0.721766
	C4731	C	0.290632	0.252752	0.725795
	C4732	C	0.286643	0.314172	0.721793
	C4733	C	0.286571	0.191436	0.721843
	C4734	C	0.286580	0.192007	0.651499
	C4735	C	0.341303	0.191523	0.651381
	C4736	C	0.341255	0.314229	0.651491
	C4737	C	0.286530	0.314276	0.651480
	C4738	C	0.353143	0.252773	0.663294
	C4739	C	0.313769	0.043083	0.751012
	C4740	C	0.313717	0.043224	0.624806
	C4741	C	0.314569	0.962329	0.624050
	C4742	C	0.313736	0.962260	0.751040
	C4743	C	0.313730	0.962372	0.624775
	N4744	N	0.251457	0.070018	0.686677
	N4745	N	0.251394	0.935633	0.686665
	N4746	N	0.251440	0.435435	0.686646
	N4747	N	0.251473	0.569863	0.686603
	N4748	N	0.313937	0.435646	0.749110
	N4749	N	0.313920	0.570001	0.749109
	N4750	N	0.313955	0.070129	0.749151
	N4751	N	0.313925	0.935788	0.749180
	O4752	O	0.364900	0.694588	0.800131
	O4753	O	0.364920	0.810882	0.800125
	O4754	O	0.262788	0.694433	0.823073
	O4755	O	0.262889	0.810125	0.823031
	O4756	O	0.262910	0.195022	0.823000
	O4757	O	0.262878	0.310787	0.823065
	O4758	O	0.262788	0.694643	0.799987
	O4759	O	0.262863	0.810741	0.800011
	O4760	O	0.262898	0.194666	0.800062
	O4761	O	0.262840	0.310613	0.799916
	O4762	O	0.364905	0.694965	0.823190
	O4763	O	0.364905	0.810900	0.823172
	O4764	O	0.364843	0.195184	0.823169
	O4765	O	0.364849	0.310947	0.823181
	O4766	O	0.364858	0.195140	0.800114
	O4767	O	0.364806	0.310965	0.800201
	O4768	O	0.325440	0.694857	0.760685
	O4769	O	0.302470	0.694379	0.760692
	O4770	O	0.325388	0.694913	0.862611
	O4771	O	0.325223	0.811063	0.862471
	O4772	O	0.302236	0.694104	0.862594
	O4773	O	0.302266	0.809970	0.862530
	O4774	O	0.302477	0.810132	0.760747
	O4775	O	0.325451	0.810953	0.760715
	O4776	O	0.325482	0.194858	0.760628
	O4777	O	0.302465	0.194660	0.760670
	O4778	O	0.325294	0.195079	0.862575
	O4779	O	0.325294	0.310987	0.862551
	O4780	O	0.302250	0.194568	0.862545
	O4781	O	0.302301	0.310597	0.862516
	O4782	O	0.302362	0.310738	0.760600
	O4783	O	0.325530	0.310873	0.760599
	H4784	H	0.275536	0.644172	0.835611
	H4785	H	0.275492	0.860111	0.835736
	H4786	H	0.275424	0.144544	0.835774
	H4787	H	0.275575	0.361053	0.835665
	H4788	H	0.275521	0.860782	0.787375
	H4789	H	0.275554	0.643672	0.787476
	H4790	H	0.275547	0.360804	0.787358
	H4791	H	0.275435	0.143872	0.787274
	H4792	H	0.376490	0.064455	0.811570
	H4793	H	0.376390	0.064458	0.811533
	H4794	H	0.376450	0.941046	0.811512
	H4795	H	0.376537	0.940867	0.811551
	H4796	H	0.376540	0.064531	0.811707
	H4797	H	0.376540	0.941237	0.811713
	H4798	H	0.250584	0.064536	0.810024
	H4799	H	0.250595	0.941580	0.809982
	H4800	H	0.249654	0.064282	0.811075
	H4801	H	0.249653	0.941869	0.811091
	H4802	H	0.250317	0.064508	0.813017
	H4803	H	0.250311	0.940831	0.812974
	H4804	H	0.250519	0.441263	0.812495
	H4805	H	0.251563	0.441314	0.812802
	H4806	H	0.250142	0.441172	0.811072
	H4807	H	0.376254	0.441388	0.812008
	H4808	H	0.376012	0.440961	0.811629
	H4809	H	0.376137	0.440503	0.811330
	H4810	H	0.251457	0.564292	0.812846
	H4811	H	0.250449	0.564997	0.812524
	H4812	H	0.376174	0.564206	0.811272
	H4813	H	0.376031	0.564317	0.811610
	H4814	H	0.376261	0.564396	0.812021
	H4815	H	0.250098	0.564765	0.811093
	H4816	H	0.352248	0.644871	0.835863
	H4817	H	0.352190	0.861347	0.835782
	H4818	H	0.352113	0.144981	0.835770
	H4819	H	0.352238	0.361090	0.835910
	H4820	H	0.289773	0.643282	0.773389
	H4821	H	0.338042	0.643847	0.773440
	H4822	H	0.338099	0.861466	0.773381
	H4823	H	0.289743	0.860703	0.773307
	H4824	H	0.352208	0.644200	0.787572
	H4825	H	0.352273	0.861178	0.787533
	H4826	H	0.338019	0.644908	0.849956
	H4827	H	0.337971	0.861536	0.849863
	H4828	H	0.315519	0.441060	0.750623
	H4829	H	0.314916	0.441488	0.873447
	H4830	H	0.313008	0.441195	0.751101
	H4831	H	0.311854	0.441515	0.749727
	H4832	H	0.312564	0.441174	0.873462
	H4833	H	0.313453	0.441302	0.872803
	H4834	H	0.314969	0.564585	0.873420
	H4835	H	0.315543	0.564388	0.750674
	H4836	H	0.313508	0.564274	0.872785
	H4837	H	0.312607	0.564423	0.873475
	H4838	H	0.311757	0.564450	0.749686
	H4839	H	0.312968	0.564053	0.751122
	H4840	H	0.337933	0.145125	0.849908
	H4841	H	0.338055	0.360852	0.850016
	H4842	H	0.312568	0.064469	0.746771
	H4843	H	0.311225	0.064223	0.748675
	H4844	H	0.315737	0.064591	0.747040
	H4845	H	0.289599	0.859904	0.849960
	H4846	H	0.289631	0.643989	0.849804
	H4847	H	0.289706	0.361067	0.849812
	H4848	H	0.289531	0.144423	0.849984
	H4849	H	0.289627	0.143918	0.773176
	H4850	H	0.338124	0.144862	0.773297
	H4851	H	0.338051	0.361113	0.773364
	H4852	H	0.289756	0.361035	0.773267
	H4853	H	0.352257	0.145039	0.787444
	H4854	H	0.352196	0.361150	0.787515
	H4855	H	0.312997	0.063967	0.873672
	H4856	H	0.312939	0.063995	0.874399
	H4857	H	0.313763	0.064405	0.874850
	H4858	H	0.311203	0.941368	0.748647
	H4859	H	0.312581	0.941355	0.746767
	H4860	H	0.315720	0.941538	0.747101
	H4861	H	0.312936	0.941074	0.873664
	H4862	H	0.312922	0.941244	0.874354
	H4863	H	0.313771	0.941293	0.874906
	Zn4864	Zn	0.251279	0.680161	0.811586
	Zn4865	Zn	0.251350	0.825578	0.811529
	Zn4866	Zn	0.251347	0.180187	0.811581
	Zn4867	Zn	0.251431	0.325640	0.811530
	Zn4868	Zn	0.313829	0.680113	0.874102
	Zn4869	Zn	0.313757	0.825565	0.874035
	Zn4870	Zn	0.313765	0.179767	0.874091
	Zn4871	Zn	0.313736	0.325745	0.874090
	C4872	C	0.361637	0.752739	0.796848
	C4873	C	0.266118	0.752208	0.826340
	C4874	C	0.274633	0.752141	0.834868
	C4875	C	0.278645	0.691009	0.838833
	C4876	C	0.278635	0.813190	0.838894
	C4877	C	0.266159	0.252873	0.826331
	C4878	C	0.274669	0.252822	0.834829
	C4879	C	0.278605	0.191556	0.838883
	C4880	C	0.278695	0.314018	0.838809
	C4881	C	0.266116	0.752631	0.796728
	C4882	C	0.274637	0.752302	0.788198
	C4883	C	0.278659	0.813615	0.784213
	C4884	C	0.278681	0.690757	0.784266
	C4885	C	0.266158	0.252507	0.796710
	C4886	C	0.274695	0.252320	0.788229
	C4887	C	0.278718	0.313677	0.784237
	C4888	C	0.278648	0.190953	0.784190
	C4889	C	0.376429	0.043333	0.811555
	C4890	C	0.376468	0.962410	0.811555
	C4891	C	0.250439	0.043324	0.810814
	C4892	C	0.250433	0.962913	0.810799
	C4893	C	0.251102	0.043282	0.812705
	C4894	C	0.251091	0.962116	0.812692
	C4895	C	0.251101	0.462473	0.812379
	C4896	C	0.376420	0.462415	0.811892
	C4897	C	0.376178	0.462149	0.811505
	C4898	C	0.251060	0.543294	0.812396
	C4899	C	0.376188	0.543039	0.811493
	C4900	C	0.376416	0.543072	0.811919
	C4901	C	0.361607	0.752941	0.826468
	C4902	C	0.361591	0.253062	0.826489
	C4903	C	0.353035	0.753017	0.834948
	C4904	C	0.349039	0.691862	0.838957
	C4905	C	0.349007	0.814324	0.838915
	C4906	C	0.353082	0.253078	0.835006
	C4907	C	0.349017	0.191953	0.838950
	C4908	C	0.349079	0.314115	0.839020
	C4909	C	0.361564	0.253093	0.796864
	C4910	C	0.328721	0.752852	0.763993
	C4911	C	0.299168	0.752154	0.763996
	C4912	C	0.298973	0.751999	0.859268
	C4913	C	0.349059	0.691284	0.784395
	C4914	C	0.349092	0.814099	0.784368
	C4915	C	0.337218	0.752703	0.772526
	C4916	C	0.290594	0.752015	0.772435
	C4917	C	0.286583	0.690613	0.776452
	C4918	C	0.341207	0.691193	0.776542
	C4919	C	0.341240	0.814186	0.776504
	C4920	C	0.286561	0.813434	0.776411
	C4921	C	0.353102	0.752702	0.788341
	C4922	C	0.328609	0.753007	0.859278
	C4923	C	0.341156	0.691924	0.846782
	C4924	C	0.341125	0.814343	0.846739
	C4925	C	0.337138	0.753100	0.850771
	C4926	C	0.314669	0.462554	0.874030
	C4927	C	0.312804	0.462460	0.750083
	C4928	C	0.313220	0.462618	0.873391
	C4929	C	0.314693	0.543526	0.874032
	C4930	C	0.313246	0.543183	0.873373
	C4931	C	0.312783	0.543124	0.750100
	C4932	C	0.328595	0.252996	0.859291
	C4933	C	0.341131	0.191935	0.846776
	C4934	C	0.341197	0.313974	0.846845
	C4935	C	0.337155	0.252933	0.850799
	C4936	C	0.312434	0.043243	0.748094
	C4937	C	0.328777	0.252833	0.763900
	C4938	C	0.299125	0.252692	0.763925
	C4939	C	0.298995	0.252621	0.859242
	C4940	C	0.349088	0.191868	0.784305
	C4941	C	0.349049	0.314283	0.784354
	C4942	C	0.337268	0.253016	0.772428
	C4943	C	0.290596	0.252551	0.772416
	C4944	C	0.290473	0.751995	0.850748
	C4945	C	0.286477	0.813065	0.846759
	C4946	C	0.286485	0.690994	0.846692
	C4947	C	0.290489	0.252776	0.850709
	C4948	C	0.286531	0.314030	0.846668
	C4949	C	0.286439	0.191509	0.846759
	C4950	C	0.286514	0.191098	0.776349
	C4951	C	0.341275	0.191781	0.776415
	C4952	C	0.341241	0.314250	0.776462
	C4953	C	0.286584	0.313841	0.776402
	C4954	C	0.353073	0.253099	0.788304
	C4955	C	0.313148	0.042957	0.874018
	C4956	C	0.315625	0.043320	0.748384
	C4957	C	0.312421	0.962690	0.748090
	C4958	C	0.313134	0.962524	0.874016
	C4959	C	0.315627	0.962472	0.748426
	N4960	N	0.251338	0.070177	0.811575
	N4961	N	0.251312	0.935719	0.811545
	N4962	N	0.251378	0.435635	0.811542
	N4963	N	0.251310	0.570038	0.811587
	N4964	N	0.313753	0.435739	0.874106
	N4965	N	0.313774	0.570117	0.874119
	N4966	N	0.313726	0.070001	0.874067
	N4967	N	0.313727	0.935622	0.874061
	O4968	O	0.364835	0.695263	0.924966
	O4969	O	0.364988	0.810892	0.924880
	O4970	O	0.262791	0.695284	0.948123
	O4971	O	0.262832	0.811156	0.948138
	O4972	O	0.262783	0.194954	0.948112
	O4973	O	0.262954	0.310800	0.947982
	O4974	O	0.262816	0.694786	0.925143
	O4975	O	0.262832	0.810624	0.925086
	O4976	O	0.262806	0.194705	0.925079
	O4977	O	0.262923	0.310505	0.925087
	O4978	O	0.364803	0.694830	0.947957
	O4979	O	0.364908	0.810764	0.948103
	O4980	O	0.364805	0.195254	0.947996
	O4981	O	0.364874	0.311131	0.948104
	O4982	O	0.364819	0.195582	0.924969
	O4983	O	0.364802	0.311507	0.925041
	O4984	O	0.325342	0.695610	0.885580
	O4985	O	0.302228	0.694505	0.885579
	O4986	O	0.325431	0.694830	0.987495
	O4987	O	0.325456	0.810710	0.987544
	O4988	O	0.302416	0.694927	0.987417
	O4989	O	0.302350	0.811031	0.987512
	O4990	O	0.302278	0.810279	0.885599
	O4991	O	0.325230	0.811293	0.885675
	O4992	O	0.325318	0.195277	0.885558
	O4993	O	0.302234	0.194596	0.885579
	O4994	O	0.325325	0.194914	0.987493
	O4995	O	0.325394	0.310888	0.987601
	O4996	O	0.302358	0.194148	0.987512
	O4997	O	0.302251	0.310108	0.987598
	O4998	O	0.302216	0.310446	0.885614
	O4999	O	0.325248	0.311239	0.885639
	H5000	H	0.275510	0.644498	0.960714
	H5001	H	0.275499	0.861616	0.960761
	H5002	H	0.275432	0.144595	0.960781
	H5003	H	0.275495	0.360403	0.960735
	H5004	H	0.275543	0.860600	0.912475
	H5005	H	0.275571	0.644245	0.912535
	H5006	H	0.275463	0.360337	0.912376
	H5007	H	0.275631	0.144108	0.912553
	H5008	H	0.377634	0.064319	0.936962
	H5009	H	0.377591	0.064566	0.935797
	H5010	H	0.377579	0.941261	0.935828
	H5011	H	0.377682	0.941292	0.937013
	H5012	H	0.376305	0.064415	0.937875
	H5013	H	0.376346	0.941186	0.937899
	H5014	H	0.251482	0.064759	0.936336
	H5015	H	0.251453	0.941323	0.936339
	H5016	H	0.251241	0.064747	0.936248
	H5017	H	0.251238	0.941260	0.936287
	H5018	H	0.250964	0.064623	0.936501
	H5019	H	0.250931	0.941296	0.936466
	H5020	H	0.251434	0.441157	0.939185
	H5021	H	0.253334	0.441224	0.938191
	H5022	H	0.248910	0.441272	0.937543
	H5023	H	0.376798	0.441014	0.939176
	H5024	H	0.374043	0.441377	0.937758
	H5025	H	0.373933	0.441558	0.935561
	H5026	H	0.253231	0.564593	0.938234
	H5027	H	0.251249	0.564207	0.939138
	H5028	H	0.374002	0.564737	0.935516
	H5029	H	0.374117	0.564718	0.937766
	H5030	H	0.376818	0.564015	0.939120
	H5031	H	0.248871	0.564366	0.937499
	H5032	H	0.352318	0.644423	0.960813
	H5033	H	0.352234	0.860901	0.960661
	H5034	H	0.352214	0.144734	0.960743
	H5035	H	0.352128	0.361346	0.960717
	H5036	H	0.289690	0.644294	0.898355
	H5037	H	0.338026	0.645543	0.898188
	H5038	H	0.337917	0.861240	0.898314
	H5039	H	0.289648	0.860477	0.898302
	H5040	H	0.352264	0.645502	0.912223
	H5041	H	0.352204	0.861139	0.912367
	H5042	H	0.338196	0.644653	0.974978
	H5043	H	0.338074	0.861445	0.974800
	H5044	H	0.315029	0.441562	0.874566
	H5045	H	0.315542	0.441492	0.999405
	H5046	H	0.313751	0.441686	0.875493
	H5047	H	0.312738	0.441284	0.875043
	H5048	H	0.313395	0.440783	0.997359
	H5049	H	0.314799	0.441272	0.997565
	H5050	H	0.315479	0.564107	0.999420
	H5051	H	0.315091	0.565043	0.874577
	H5052	H	0.314774	0.564274	0.997599
	H5053	H	0.313378	0.564448	0.997419
	H5054	H	0.312689	0.564382	0.875035
	H5055	H	0.313787	0.564671	0.875557
	H5056	H	0.338100	0.144522	0.974905
	H5057	H	0.337993	0.361126	0.974911
	H5058	H	0.314405	0.064290	0.873602
	H5059	H	0.313818	0.064142	0.873252
	H5060	H	0.314375	0.064148	0.874545
	H5061	H	0.289680	0.861548	0.974872
	H5062	H	0.289709	0.644581	0.974806
	H5063	H	0.289613	0.360433	0.974922
	H5064	H	0.289574	0.144344	0.974972
	H5065	H	0.289761	0.144022	0.898374
	H5066	H	0.337937	0.144907	0.898281
	H5067	H	0.338040	0.361724	0.898173
	H5068	H	0.289594	0.360391	0.898240
	H5069	H	0.352100	0.145154	0.912446
	H5070	H	0.352189	0.361817	0.912302
	H5071	H	0.314920	0.064235	0.998285
	H5072	H	0.313986	0.064661	0.997729
	H5073	H	0.312684	0.064660	0.998522
	H5074	H	0.313836	0.940557	0.873235
	H5075	H	0.314461	0.940705	0.873567
	H5076	H	0.314353	0.941072	0.874560
	H5077	H	0.314885	0.941311	0.998257
	H5078	H	0.313962	0.941050	0.997735
	H5079	H	0.312705	0.940943	0.998474
	Zn5080	Zn	0.251216	0.680036	0.936663
	Zn5081	Zn	0.251282	0.825609	0.936615
	Zn5082	Zn	0.251265	0.179801	0.936574
	Zn5083	Zn	0.251377	0.325654	0.936555
	Zn5084	Zn	0.313891	0.679948	0.999009
	Zn5085	Zn	0.313903	0.825660	0.999043
	Zn5086	Zn	0.313849	0.180057	0.999052
	Zn5087	Zn	0.313862	0.325757	0.999062
	C5088	C	0.361611	0.753178	0.921633
	C5089	C	0.266114	0.753167	0.951400
	C5090	C	0.274632	0.753041	0.959890
	C5091	C	0.278652	0.691683	0.963859
	C5092	C	0.278648	0.814412	0.963896
	C5093	C	0.266152	0.252780	0.951330
	C5094	C	0.274666	0.252488	0.959871
	C5095	C	0.278624	0.191388	0.963915
	C5096	C	0.278642	0.313547	0.963894
	C5097	C	0.266122	0.752622	0.921833
	C5098	C	0.274624	0.752451	0.913310
	C5099	C	0.278645	0.813527	0.909309
	C5100	C	0.278657	0.691269	0.909337
	C5101	C	0.266145	0.252459	0.921791
	C5102	C	0.274647	0.252212	0.913280
	C5103	C	0.278620	0.313295	0.909241
	C5104	C	0.278710	0.191045	0.909342
	C5105	C	0.377288	0.043301	0.936426
	C5106	C	0.377297	0.962439	0.936437
	C5107	C	0.251327	0.043273	0.936372
	C5108	C	0.251324	0.962457	0.936379
	C5109	C	0.251068	0.043107	0.936598
	C5110	C	0.251054	0.962511	0.936582
	C5111	C	0.252106	0.462585	0.938149
	C5112	C	0.377368	0.462347	0.938014
	C5113	C	0.374628	0.462548	0.936626
	C5114	C	0.252027	0.543242	0.938162
	C5115	C	0.374653	0.543368	0.936597
	C5116	C	0.377396	0.543029	0.937984
	C5117	C	0.361569	0.752737	0.951311
	C5118	C	0.361580	0.253162	0.951376
	C5119	C	0.353051	0.752737	0.959819
	C5120	C	0.349107	0.691548	0.963900
	C5121	C	0.349051	0.814080	0.963804
	C5122	C	0.353057	0.253065	0.959892
	C5123	C	0.349054	0.191774	0.963872
	C5124	C	0.349002	0.314303	0.963871
	C5125	C	0.361516	0.253640	0.921731
	C5126	C	0.328578	0.753474	0.888900
	C5127	C	0.298974	0.752415	0.888885
	C5128	C	0.299099	0.752999	0.984170
	C5129	C	0.349037	0.692370	0.909162
	C5130	C	0.349000	0.814429	0.909233
	C5131	C	0.337097	0.753477	0.897412
	C5132	C	0.290465	0.752405	0.897420
	C5133	C	0.286496	0.691229	0.901470
	C5134	C	0.341149	0.692443	0.901347
	C5135	C	0.341105	0.814402	0.901415
	C5136	C	0.286477	0.813542	0.901439
	C5137	C	0.353050	0.753379	0.913164
	C5138	C	0.328725	0.752824	0.984224
	C5139	C	0.341265	0.691676	0.971764
	C5140	C	0.341211	0.814260	0.971666
	C5141	C	0.337201	0.753031	0.975683
	C5142	C	0.314766	0.462492	0.999728
	C5143	C	0.313379	0.462683	0.874973
	C5144	C	0.314022	0.462398	0.997879
	C5145	C	0.314745	0.543245	0.999714
	C5146	C	0.314019	0.543341	0.997900
	C5147	C	0.313379	0.543347	0.874970
	C5148	C	0.328665	0.252898	0.984279
	C5149	C	0.341229	0.191643	0.971753
	C5150	C	0.341174	0.314164	0.971757
	C5151	C	0.337195	0.252834	0.975774
	C5152	C	0.314005	0.043003	0.873581
	C5153	C	0.328557	0.253265	0.888898
	C5154	C	0.298937	0.252443	0.888874
	C5155	C	0.299026	0.252162	0.984272
	C5156	C	0.348969	0.192206	0.909259
	C5157	C	0.349025	0.314711	0.909183
	C5158	C	0.337105	0.253283	0.897399
	C5159	C	0.290460	0.252230	0.897407
	C5160	C	0.290545	0.753056	0.975679
	C5161	C	0.286517	0.814463	0.971729
	C5162	C	0.286532	0.691678	0.971683
	C5163	C	0.290518	0.252352	0.975748
	C5164	C	0.286494	0.313517	0.971752
	C5165	C	0.286478	0.191264	0.971777
	C5166	C	0.286554	0.191000	0.901481
	C5167	C	0.341112	0.192009	0.901403
	C5168	C	0.341171	0.314648	0.901329
	C5169	C	0.286460	0.313363	0.901392
	C5170	C	0.352996	0.253509	0.913227
	C5171	C	0.314295	0.043183	0.998279
	C5172	C	0.313964	0.043004	0.874549
	C5173	C	0.314024	0.962006	0.873569
	C5174	C	0.314298	0.962409	0.998271
	C5175	C	0.313967	0.962358	0.874569
	N5176	N	0.251258	0.069917	0.936581
	N5177	N	0.251225	0.935565	0.936582
	N5178	N	0.251344	0.435664	0.936589
	N5179	N	0.251252	0.570069	0.936628
	N5180	N	0.313882	0.435667	0.999034
	N5181	N	0.313864	0.570049	0.999011
	N5182	N	0.313871	0.070048	0.999051
	N5183	N	0.313880	0.935674	0.999031
	O5184	O	0.489772	0.695930	0.049951
	O5185	O	0.489967	0.811843	0.049870
	O5186	O	0.387921	0.694696	0.073047
	O5187	O	0.387838	0.810485	0.073198
	O5188	O	0.387964	0.194636	0.073095
	O5189	O	0.387920	0.310673	0.073153
	O5190	O	0.387931	0.694873	0.050079
	O5191	O	0.387977	0.810601	0.050044
	O5192	O	0.387912	0.194707	0.050027
	O5193	O	0.387989	0.310455	0.050073
	O5194	O	0.489630	0.694884	0.072957
	O5195	O	0.489785	0.810780	0.073063
	O5196	O	0.489861	0.194846	0.073101
	O5197	O	0.489844	0.310858	0.073070
	O5198	O	0.489795	0.195581	0.050013
	O5199	O	0.489821	0.311531	0.050108
	O5200	O	0.450355	0.696078	0.010545
	O5201	O	0.427338	0.694951	0.010527
	O5202	O	0.450535	0.695107	0.112758
	O5203	O	0.450293	0.811031	0.112544
	O5204	O	0.427328	0.694503	0.112654
	O5205	O	0.427465	0.810458	0.112462
	O5206	O	0.427348	0.810551	0.010470
	O5207	O	0.450341	0.811867	0.010601
	O5208	O	0.450409	0.195721	0.010576
	O5209	O	0.427398	0.194590	0.010635
	O5210	O	0.450321	0.194915	0.112457
	O5211	O	0.450241	0.310770	0.112505
	O5212	O	0.427341	0.194515	0.112608
	O5213	O	0.427244	0.310387	0.112675
	O5214	O	0.427335	0.310260	0.010530
	O5215	O	0.450445	0.311528	0.010517
	H5216	H	0.400598	0.644401	0.085744
	H5217	H	0.400569	0.860491	0.085768
	H5218	H	0.400652	0.144338	0.085701
	H5219	H	0.400536	0.360375	0.085831
	H5220	H	0.400628	0.860444	0.037376
	H5221	H	0.400576	0.644855	0.037387
	H5222	H	0.400651	0.360016	0.037446
	H5223	H	0.400388	0.145114	0.037233
	H5224	H	0.502291	0.064465	0.061687
	H5225	H	0.502077	0.064514	0.060900
	H5226	H	0.502090	0.941594	0.060949
	H5227	H	0.502366	0.941548	0.061713
	H5228	H	0.501530	0.064424	0.062547
	H5229	H	0.501595	0.940791	0.062580
	H5230	H	0.377798	0.064800	0.060919
	H5231	H	0.377797	0.941509	0.060897
	H5232	H	0.376848	0.064671	0.060068
	H5233	H	0.376823	0.941208	0.060089
	H5234	H	0.375154	0.064156	0.060650
	H5235	H	0.375193	0.940991	0.060681
	H5236	H	0.376149	0.441111	0.060982
	H5237	H	0.375822	0.441438	0.061363
	H5238	H	0.376798	0.441145	0.061084
	H5239	H	0.499797	0.441725	0.061006
	H5240	H	0.501319	0.441804	0.059930
	H5241	H	0.502558	0.441461	0.060481
	H5242	H	0.375825	0.564171	0.061359
	H5243	H	0.376136	0.564223	0.060978
	H5244	H	0.502434	0.564658	0.060446
	H5245	H	0.501241	0.564802	0.059857
	H5246	H	0.499730	0.564531	0.060951
	H5247	H	0.376772	0.564307	0.061097
	H5248	H	0.477081	0.644699	0.085733
	H5249	H	0.477116	0.861512	0.085773
	H5250	H	0.477308	0.144748	0.085827
	H5251	H	0.477158	0.361258	0.085755
	H5252	H	0.414665	0.645049	0.023182
	H5253	H	0.462899	0.646123	0.023292
	H5254	H	0.462884	0.862360	0.023316
	H5255	H	0.414763	0.860328	0.023229
	H5256	H	0.477124	0.646308	0.037346
	H5257	H	0.477123	0.862398	0.037396
	H5258	H	0.462991	0.644771	0.099934
	H5259	H	0.462991	0.861282	0.099941
	H5260	H	0.440843	0.441402	-0.001643
	H5261	H	0.439741	0.441372	0.124807
	H5262	H	0.440207	0.441462	0.000654
	H5263	H	0.438548	0.441447	0.001163
	H5264	H	0.438976	0.441339	0.122945
	H5265	H	0.439784	0.441613	0.123442
	H5266	H	0.439818	0.564745	0.124812
	H5267	H	0.440821	0.564370	-0.001698
	H5268	H	0.439863	0.564793	0.123449
	H5269	H	0.438937	0.564547	0.122944
	H5270	H	0.438498	0.564293	0.001104
	H5271	H	0.440244	0.564497	0.000636
	H5272	H	0.463144	0.144981	0.099960
	H5273	H	0.463002	0.361186	0.099890
	H5274	H	0.440126	0.064512	0.001425
	H5275	H	0.441488	0.064095	-0.000308
	H5276	H	0.437036	0.064620	0.001022
	H5277	H	0.414717	0.860263	0.099922
	H5278	H	0.414744	0.644458	0.099929
	H5279	H	0.414663	0.360265	0.100004
	H5280	H	0.414771	0.144536	0.099883
	H5281	H	0.414531	0.145179	0.023047
	H5282	H	0.463017	0.145787	0.023233
	H5283	H	0.463036	0.362068	0.023222
	H5284	H	0.414795	0.359808	0.023291
	H5285	H	0.477135	0.145708	0.037395
	H5286	H	0.477154	0.362025	0.037429
	H5287	H	0.437307	0.064794	0.122565
	H5288	H	0.436693	0.064581	0.124303
	H5289	H	0.438376	0.064843	0.126277
	H5290	H	0.441495	0.940795	-0.000342
	H5291	H	0.440099	0.941044	0.001420
	H5292	H	0.437036	0.941356	0.001006
	H5293	H	0.437235	0.941737	0.122553
	H5294	H	0.436666	0.941262	0.124340
	H5295	H	0.438373	0.941204	0.126293
	Zn5296	Zn	0.376375	0.679975	0.061555
	Zn5297	Zn	0.376481	0.825573	0.061581
	Zn5298	Zn	0.376391	0.180119	0.061608
	Zn5299	Zn	0.376462	0.325501	0.061588
	Zn5300	Zn	0.438856	0.680135	0.124123
	Zn5301	Zn	0.438811	0.825763	0.124117
	Zn5302	Zn	0.438890	0.180223	0.124099
	Zn5303	Zn	0.438781	0.325941	0.124084
	C5304	C	0.486569	0.754068	0.046659
	C5305	C	0.391163	0.752534	0.076400
	C5306	C	0.399709	0.752397	0.084884
	C5307	C	0.403732	0.691310	0.088892
	C5308	C	0.403713	0.813488	0.088897
	C5309	C	0.391213	0.252610	0.076410
	C5310	C	0.399731	0.252364	0.084903
	C5311	C	0.403784	0.191289	0.088860
	C5312	C	0.403710	0.313484	0.088921
	C5313	C	0.391233	0.752621	0.046768
	C5314	C	0.399690	0.752548	0.038190
	C5315	C	0.403715	0.813526	0.034195
	C5316	C	0.403674	0.691629	0.034192
	C5317	C	0.391212	0.252523	0.046741
	C5318	C	0.399707	0.252573	0.038222
	C5319	C	0.403764	0.313313	0.034269
	C5320	C	0.403629	0.191762	0.034166
	C5321	C	0.501968	0.043181	0.061356
	C5322	C	0.501987	0.962730	0.061384
	C5323	C	0.377108	0.043431	0.060782
	C5324	C	0.377106	0.962479	0.060760
	C5325	C	0.375394	0.043090	0.061350
	C5326	C	0.375442	0.962575	0.061359
	C5327	C	0.376100	0.462467	0.061270
	C5328	C	0.500242	0.462692	0.061660
	C5329	C	0.501762	0.462667	0.060536
	C5330	C	0.376084	0.543160	0.061273
	C5331	C	0.501689	0.543529	0.060508
	C5332	C	0.500182	0.543289	0.061616
	C5333	C	0.486432	0.752905	0.076312
	C5334	C	0.486578	0.252921	0.076377
	C5335	C	0.477951	0.753085	0.084854
	C5336	C	0.473960	0.691843	0.088882
	C5337	C	0.473974	0.814329	0.088904
	C5338	C	0.478074	0.253073	0.084913
	C5339	C	0.474116	0.191865	0.088947
	C5340	C	0.474024	0.314285	0.088905
	C5341	C	0.486496	0.253664	0.046796
	C5342	C	0.453600	0.753979	0.013890
	C5343	C	0.424064	0.752806	0.013797
	C5344	C	0.424104	0.752404	0.109279
	C5345	C	0.473989	0.693246	0.034202
	C5346	C	0.473997	0.815474	0.034227
	C5347	C	0.462125	0.754269	0.022404
	C5348	C	0.415530	0.752702	0.022301
	C5349	C	0.411517	0.691778	0.026323
	C5350	C	0.466105	0.693087	0.026386
	C5351	C	0.466109	0.815410	0.026409
	C5352	C	0.411560	0.813585	0.026325
	C5353	C	0.478032	0.754364	0.038184
	C5354	C	0.453705	0.753083	0.109376
	C5355	C	0.466150	0.691795	0.096783
	C5356	C	0.466150	0.814258	0.096793
	C5357	C	0.462198	0.753009	0.100828
	C5358	C	0.439180	0.462608	0.124778
	C5359	C	0.439258	0.462661	0.000405
	C5360	C	0.439219	0.462815	0.123430
	C5361	C	0.439220	0.543328	0.124821
	C5362	C	0.439231	0.543441	0.123426
	C5363	C	0.439263	0.543203	0.000397
	C5364	C	0.453578	0.253002	0.109197
	C5365	C	0.466234	0.191979	0.096781
	C5366	C	0.466144	0.314269	0.096740
	C5367	C	0.462138	0.253154	0.100716
	C5368	C	0.440304	0.043083	0.000184
	C5369	C	0.453667	0.253673	0.013870
	C5370	C	0.424068	0.252443	0.013859
	C5371	C	0.424012	0.252396	0.109359
	C5372	C	0.474000	0.192685	0.034247
	C5373	C	0.474011	0.315069	0.034267
	C5374	C	0.462163	0.253847	0.022392
	C5375	C	0.415551	0.252440	0.022375
	C5376	C	0.415579	0.752343	0.100744
	C5377	C	0.411570	0.813432	0.096744
	C5378	C	0.411592	0.691241	0.096753
	C5379	C	0.415554	0.252412	0.100772
	C5380	C	0.411549	0.313463	0.096789
	C5381	C	0.411616	0.191331	0.096727
	C5382	C	0.411484	0.191767	0.026313
	C5383	C	0.466172	0.192673	0.026372
	C5384	C	0.466183	0.315108	0.026379
	C5385	C	0.411611	0.313232	0.026415
	C5386	C	0.477984	0.253798	0.038280
	C5387	C	0.437469	0.043403	0.123620
	C5388	C	0.437236	0.043160	-0.000285
	C5389	C	0.440310	0.962196	0.000157
	C5390	C	0.437465	0.962664	0.123628
	C5391	C	0.437215	0.962585	-0.000284
	N5392	N	0.376398	0.070192	0.061563
	N5393	N	0.376443	0.935727	0.061538
	N5394	N	0.376412	0.435605	0.061510
	N5395	N	0.376369	0.570051	0.061495
	N5396	N	0.438800	0.435948	0.124084
	N5397	N	0.438826	0.570284	0.124114
	N5398	N	0.438873	0.070043	0.124099
	N5399	N	0.438849	0.935631	0.124120
	O5400	O	0.489787	0.695290	0.175060
	O5401	O	0.489813	0.811396	0.175085
	O5402	O	0.387819	0.695177	0.198197
	O5403	O	0.387770	0.811099	0.198189
	O5404	O	0.387945	0.195036	0.198076
	O5405	O	0.387832	0.310875	0.198105
	O5406	O	0.387915	0.695038	0.175179
	O5407	O	0.387905	0.810977	0.175068
	O5408	O	0.387846	0.195028	0.175075
	O5409	O	0.387862	0.310843	0.175056
	O5410	O	0.489681	0.694753	0.198128
	O5411	O	0.489734	0.810910	0.198196
	O5412	O	0.489825	0.195411	0.198283
	O5413	O	0.489739	0.311183	0.198145
	O5414	O	0.489779	0.195489	0.175118
	O5415	O	0.489725	0.311390	0.175181
	O5416	O	0.450355	0.694805	0.135603
	O5417	O	0.427175	0.695108	0.135512
	O5418	O	0.450270	0.694907	0.237543
	O5419	O	0.450330	0.810916	0.237745
	O5420	O	0.427272	0.695590	0.237561
	O5421	O	0.427264	0.811361	0.237547
	O5422	O	0.427306	0.811107	0.135660
	O5423	O	0.450173	0.810783	0.135805
	O5424	O	0.450385	0.195262	0.135629
	O5425	O	0.427411	0.195188	0.135659
	O5426	O	0.450270	0.195194	0.237535
	O5427	O	0.450239	0.311037	0.237579
	O5428	O	0.427204	0.195297	0.237649
	O5429	O	0.427139	0.311045	0.237744
	O5430	O	0.427422	0.310952	0.135713
	O5431	O	0.450416	0.311330	0.135521
	H5432	H	0.400398	0.645277	0.210890
	H5433	H	0.400497	0.861453	0.210728
	H5434	H	0.400448	0.145324	0.210763
	H5435	H	0.400503	0.361133	0.210770
	H5436	H	0.400531	0.861435	0.162459
	H5437	H	0.400612	0.644185	0.162525
	H5438	H	0.400613	0.360585	0.162516
	H5439	H	0.400484	0.145032	0.162398
	H5440	H	0.501981	0.064307	0.189985
	H5441	H	0.504249	0.064015	0.188260
	H5442	H	0.504328	0.941108	0.188302
	H5443	H	0.501995	0.941109	0.190051
	H5444	H	0.498365	0.064382	0.188386
	H5445	H	0.498445	0.941000	0.188479
	H5446	H	0.377216	0.064770	0.186559
	H5447	H	0.377250	0.941274	0.186569
	H5448	H	0.376855	0.064547	0.185897
	H5449	H	0.376873	0.941887	0.185855
	H5450	H	0.375896	0.065056	0.185848
	H5451	H	0.375860	0.941296	0.185781
	H5452	H	0.375044	0.440967	0.187914
	H5453	H	0.376504	0.440878	0.188448
	H5454	H	0.374597	0.441480	0.185810
	H5455	H	0.502297	0.441365	0.187048
	H5456	H	0.501278	0.441585	0.187688
	H5457	H	0.500533	0.441552	0.187256
	H5458	H	0.376473	0.564064	0.188476
	H5459	H	0.374985	0.564617	0.187933
	H5460	H	0.500507	0.564555	0.187313
	H5461	H	0.501299	0.564688	0.187702
	H5462	H	0.502271	0.564647	0.187055
	H5463	H	0.374552	0.564269	0.185843
	H5464	H	0.477095	0.644455	0.210827
	H5465	H	0.477141	0.861508	0.210894
	H5466	H	0.477161	0.145414	0.210901
	H5467	H	0.477033	0.361794	0.210769
	H5468	H	0.414627	0.644104	0.148307
	H5469	H	0.462930	0.644908	0.148334
	H5470	H	0.462914	0.861238	0.148348
	H5471	H	0.414598	0.861554	0.148240
	H5472	H	0.477090	0.645160	0.162453
	H5473	H	0.477097	0.861616	0.162442
	H5474	H	0.462940	0.644593	0.224973
	H5475	H	0.462982	0.861698	0.225039
	H5476	H	0.438892	0.441689	0.125259
	H5477	H	0.438373	0.440768	0.250261
	H5478	H	0.437780	0.441322	0.124554
	H5479	H	0.437765	0.440971	0.123570
	H5480	H	0.439966	0.441837	0.248871
	H5481	H	0.439717	0.441065	0.249824
	H5482	H	0.438393	0.564741	0.250262
	H5483	H	0.438933	0.564113	0.125345
	H5484	H	0.439818	0.564676	0.249838
	H5485	H	0.439998	0.563927	0.248834
	H5486	H	0.437762	0.564168	0.123608
	H5487	H	0.437724	0.564251	0.124662
	H5488	H	0.462965	0.145232	0.224981
	H5489	H	0.462834	0.361762	0.224865
	H5490	H	0.441052	0.064441	0.123448
	H5491	H	0.439801	0.064610	0.122045
	H5492	H	0.440197	0.064494	0.125934
	H5493	H	0.414724	0.861772	0.224784
	H5494	H	0.414594	0.645290	0.224969
	H5495	H	0.414590	0.361267	0.225005
	H5496	H	0.414536	0.145050	0.225035
	H5497	H	0.414657	0.145079	0.148268
	H5498	H	0.462939	0.145239	0.148362
	H5499	H	0.462996	0.362012	0.148255
	H5500	H	0.414784	0.360733	0.148383
	H5501	H	0.477053	0.145280	0.162533
	H5502	H	0.477121	0.361909	0.162441
	H5503	H	0.439587	0.064610	0.251496
	H5504	H	0.441147	0.064843	0.250028
	H5505	H	0.440514	0.064374	0.247252
	H5506	H	0.439699	0.941372	0.122082
	H5507	H	0.440988	0.941698	0.123452
	H5508	H	0.440194	0.941488	0.125890
	H5509	H	0.439567	0.941512	0.251537
	H5510	H	0.441078	0.941477	0.250065
	H5511	H	0.440458	0.941473	0.247239
	Zn5512	Zn	0.376327	0.680246	0.186634
	Zn5513	Zn	0.376335	0.826010	0.186519
	Zn5514	Zn	0.376350	0.180405	0.186658
	Zn5515	Zn	0.376345	0.325770	0.186563
	Zn5516	Zn	0.438734	0.679797	0.249051
	Zn5517	Zn	0.438687	0.825656	0.249173
	Zn5518	Zn	0.438824	0.179958	0.249081
	Zn5519	Zn	0.438725	0.325561	0.249191
	C5520	C	0.486547	0.753398	0.171752
	C5521	C	0.391083	0.753191	0.201472
	C5522	C	0.399598	0.753346	0.209980
	C5523	C	0.403580	0.692231	0.213999
	C5524	C	0.403642	0.814612	0.213907
	C5525	C	0.391165	0.253042	0.201378
	C5526	C	0.399669	0.253183	0.209915
	C5527	C	0.403623	0.192131	0.213940
	C5528	C	0.403642	0.314270	0.213946
	C5529	C	0.391200	0.752902	0.171850
	C5530	C	0.399691	0.752781	0.163340
	C5531	C	0.403659	0.814193	0.159295
	C5532	C	0.403674	0.691378	0.159321
	C5533	C	0.391133	0.252868	0.171772
	C5534	C	0.399658	0.252802	0.163258
	C5535	C	0.403724	0.313793	0.159313
	C5536	C	0.403650	0.191872	0.159250
	C5537	C	0.502637	0.042832	0.188489
	C5538	C	0.502681	0.962373	0.188505
	C5539	C	0.376868	0.043364	0.186332
	C5540	C	0.376872	0.962855	0.186315
	C5541	C	0.375821	0.043721	0.186284
	C5542	C	0.375814	0.962649	0.186246
	C5543	C	0.375914	0.462431	0.187772
	C5544	C	0.502038	0.462455	0.186607
	C5545	C	0.501025	0.462548	0.187260
	C5546	C	0.375875	0.543344	0.187799
	C5547	C	0.501020	0.543308	0.187274
	C5548	C	0.502007	0.543333	0.186618
	C5549	C	0.486461	0.752832	0.201476
	C5550	C	0.486489	0.253396	0.201503
	C5551	C	0.477958	0.752920	0.210004
	C5552	C	0.473944	0.691596	0.213976
	C5553	C	0.473962	0.814345	0.214018
	C5554	C	0.477976	0.253570	0.210001
	C5555	C	0.474001	0.192399	0.214037
	C5556	C	0.473928	0.314765	0.213955
	C5557	C	0.486442	0.253495	0.171883
	C5558	C	0.453567	0.752803	0.138967
	C5559	C	0.423981	0.753073	0.138903
	C5560	C	0.423984	0.753460	0.234281
	C5561	C	0.473990	0.692074	0.159269
	C5562	C	0.473985	0.814553	0.159284
	C5563	C	0.462134	0.752996	0.147428
	C5564	C	0.415485	0.752882	0.147437
	C5565	C	0.411503	0.691354	0.151452
	C5566	C	0.466104	0.691901	0.151445
	C5567	C	0.466109	0.814336	0.151448
	C5568	C	0.411489	0.814336	0.151429
	C5569	C	0.478046	0.753344	0.163226
	C5570	C	0.453613	0.753072	0.234390
	C5571	C	0.466102	0.691736	0.221834
	C5572	C	0.466117	0.814515	0.221876
	C5573	C	0.462122	0.753147	0.225865
	C5574	C	0.438207	0.462454	0.249687
	C5575	C	0.438027	0.462481	0.124079
	C5576	C	0.439564	0.462488	0.249280
	C5577	C	0.438202	0.543269	0.249665
	C5578	C	0.439593	0.543025	0.249258
	C5579	C	0.438030	0.543261	0.124108
	C5580	C	0.453544	0.253211	0.234276
	C5581	C	0.466114	0.192341	0.221845
	C5582	C	0.466044	0.314757	0.221775
	C5583	C	0.462077	0.253486	0.225795
	C5584	C	0.440003	0.043269	0.123111
	C5585	C	0.453663	0.253387	0.138869
	C5586	C	0.424102	0.252985	0.138941
	C5587	C	0.423898	0.253201	0.234406
	C5588	C	0.473945	0.192365	0.159349
	C5589	C	0.473981	0.314883	0.159294
	C5590	C	0.462149	0.253574	0.147424
	C5591	C	0.415551	0.252842	0.147425
	C5592	C	0.415479	0.753501	0.225772
	C5593	C	0.411527	0.814683	0.221717
	C5594	C	0.411458	0.692331	0.221818
	C5595	C	0.415439	0.253128	0.225845
	C5596	C	0.411457	0.314318	0.221836
	C5597	C	0.411428	0.192016	0.221844
	C5598	C	0.411523	0.191836	0.151414
	C5599	C	0.466114	0.192334	0.151475
	C5600	C	0.466152	0.314904	0.151416
	C5601	C	0.411594	0.313876	0.151476
	C5602	C	0.477940	0.253588	0.163356
	C5603	C	0.439954	0.043374	0.250323
	C5604	C	0.439181	0.043389	0.125578
	C5605	C	0.439991	0.962636	0.123117
	C5606	C	0.439931	0.962680	0.250342
	C5607	C	0.439173	0.962565	0.125583
	N5608	N	0.376347	0.070260	0.186627
	N5609	N	0.376331	0.935829	0.186578
	N5610	N	0.376324	0.435811	0.186578
	N5611	N	0.376305	0.570234	0.186628
	N5612	N	0.438802	0.435419	0.249118
	N5613	N	0.438814	0.569792	0.249056
	N5614	N	0.438829	0.070236	0.249103
	N5615	N	0.438763	0.935810	0.249122
	O5616	O	0.489660	0.694493	0.300177
	O5617	O	0.489736	0.810481	0.300074
	O5618	O	0.387670	0.694997	0.323248
	O5619	O	0.387744	0.810708	0.323155
	O5620	O	0.387749	0.195082	0.323233
	O5621	O	0.387761	0.311012	0.323226
	O5622	O	0.387782	0.694607	0.300188
	O5623	O	0.387794	0.810447	0.300158
	O5624	O	0.387821	0.194704	0.300145
	O5625	O	0.387723	0.310726	0.300097
	O5626	O	0.489706	0.694650	0.323156
	O5627	O	0.489705	0.810766	0.323148
	O5628	O	0.489685	0.194473	0.323083
	O5629	O	0.489779	0.310270	0.323178
	O5630	O	0.489697	0.194847	0.300157
	O5631	O	0.489734	0.310512	0.300127
	O5632	O	0.450143	0.694366	0.260715
	O5633	O	0.427190	0.694973	0.260598
	O5634	O	0.450353	0.694906	0.362683
	O5635	O	0.450252	0.810758	0.362596
	O5636	O	0.427243	0.695139	0.362654
	O5637	O	0.427364	0.811062	0.362488
	O5638	O	0.427178	0.810708	0.260653
	O5639	O	0.450252	0.810337	0.260651
	O5640	O	0.450291	0.194980	0.260655
	O5641	O	0.427293	0.194792	0.260682
	O5642	O	0.450359	0.194422	0.362694
	O5643	O	0.450239	0.310252	0.362528
	O5644	O	0.427299	0.195219	0.362596
	O5645	O	0.427337	0.311130	0.362534
	O5646	O	0.427233	0.310623	0.260710
	O5647	O	0.450257	0.310718	0.260668
	H5648	H	0.400466	0.644591	0.335827
	H5649	H	0.400348	0.860893	0.335811
	H5650	H	0.400406	0.144625	0.335880
	H5651	H	0.400358	0.361637	0.335967
	H5652	H	0.400388	0.860820	0.287482
	H5653	H	0.400532	0.643742	0.287578
	H5654	H	0.400349	0.360731	0.287389
	H5655	H	0.400476	0.144469	0.287493
	H5656	H	0.500828	0.064081	0.311072
	H5657	H	0.500554	0.064078	0.311552
	H5658	H	0.500541	0.941225	0.311611
	H5659	H	0.500809	0.940916	0.311044
	H5660	H	0.501655	0.064416	0.311040
	H5661	H	0.501621	0.940887	0.311103
	H5662	H	0.374980	0.063830	0.312989
	H5663	H	0.374985	0.941451	0.312940
	H5664	H	0.376430	0.064221	0.313499
	H5665	H	0.376463	0.941302	0.313474
	H5666	H	0.377950	0.064666	0.312097
	H5667	H	0.378007	0.941633	0.312100
	H5668	H	0.375655	0.441255	0.311492
	H5669	H	0.375688	0.441421	0.311976
	H5670	H	0.376200	0.441005	0.311115
	H5671	H	0.500060	0.441587	0.314532
	H5672	H	0.498126	0.441375	0.311515
	H5673	H	0.499280	0.441142	0.309122
	H5674	H	0.375699	0.564349	0.312039
	H5675	H	0.375579	0.564253	0.311539
	H5676	H	0.499288	0.564282	0.309238
	H5677	H	0.498118	0.564379	0.311570
	H5678	H	0.500154	0.564315	0.314536
	H5679	H	0.376183	0.564203	0.311049
	H5680	H	0.477103	0.644705	0.335805
	H5681	H	0.477181	0.861196	0.335934
	H5682	H	0.477045	0.144616	0.335754
	H5683	H	0.477117	0.359985	0.335852
	H5684	H	0.414686	0.644079	0.273423
	H5685	H	0.462907	0.644047	0.273298
	H5686	H	0.462907	0.860793	0.273320
	H5687	H	0.414550	0.860909	0.273341
	H5688	H	0.477073	0.643961	0.287423
	H5689	H	0.477089	0.860597	0.287443
	H5690	H	0.462962	0.644337	0.349946
	H5691	H	0.463052	0.861146	0.350099
	H5692	H	0.437648	0.441453	0.249550
	H5693	H	0.437960	0.441315	0.374294
	H5694	H	0.437960	0.441186	0.248185
	H5695	H	0.438946	0.441614	0.247886
	H5696	H	0.439422	0.441007	0.374781
	H5697	H	0.438694	0.441055	0.375006
	H5698	H	0.437969	0.564033	0.374280
	H5699	H	0.437626	0.564572	0.249506
	H5700	H	0.438705	0.564440	0.374960
	H5701	H	0.439406	0.564524	0.374792
	H5702	H	0.438986	0.563921	0.247848
	H5703	H	0.437976	0.564628	0.248173
	H5704	H	0.462882	0.144305	0.349877
	H5705	H	0.462949	0.360056	0.349954
	H5706	H	0.436423	0.064612	0.248578
	H5707	H	0.436857	0.064511	0.250619
	H5708	H	0.438540	0.064236	0.246589
	H5709	H	0.414517	0.861285	0.349949
	H5710	H	0.414609	0.644751	0.349969
	H5711	H	0.414570	0.361496	0.350068
	H5712	H	0.414612	0.144736	0.349983
	H5713	H	0.414617	0.144537	0.273321
	H5714	H	0.462898	0.144674	0.273356
	H5715	H	0.462884	0.360512	0.273347
	H5716	H	0.414484	0.360517	0.273245
	H5717	H	0.477011	0.144775	0.287533
	H5718	H	0.477042	0.360674	0.287506
	H5719	H	0.440797	0.064704	0.374413
	H5720	H	0.440250	0.064557	0.372847
	H5721	H	0.437999	0.064430	0.372323
	H5722	H	0.436800	0.941370	0.250609
	H5723	H	0.436367	0.940761	0.248561
	H5724	H	0.438444	0.941354	0.246649
	H5725	H	0.440732	0.940717	0.374380
	H5726	H	0.440225	0.941485	0.372728
	H5727	H	0.437976	0.941611	0.372274
	Zn5728	Zn	0.376228	0.679951	0.311672
	Zn5729	Zn	0.376268	0.825854	0.311624
	Zn5730	Zn	0.376280	0.180088	0.311702
	Zn5731	Zn	0.376267	0.325702	0.311661
	Zn5732	Zn	0.438778	0.679747	0.374150
	Zn5733	Zn	0.438776	0.825588	0.374117
	Zn5734	Zn	0.438792	0.179754	0.374134
	Zn5735	Zn	0.438823	0.325626	0.374096
	C5736	C	0.486423	0.752426	0.296832
	C5737	C	0.391012	0.752832	0.326473
	C5738	C	0.399562	0.752881	0.334969
	C5739	C	0.403587	0.691665	0.338976
	C5740	C	0.403526	0.814058	0.338969
	C5741	C	0.391026	0.253040	0.326531
	C5742	C	0.399547	0.253087	0.335026
	C5743	C	0.403568	0.191772	0.339008
	C5744	C	0.403539	0.314411	0.339061
	C5745	C	0.391106	0.752419	0.296906
	C5746	C	0.399594	0.752280	0.288361
	C5747	C	0.403541	0.813654	0.284319
	C5748	C	0.403616	0.690953	0.284365
	C5749	C	0.391033	0.252729	0.296823
	C5750	C	0.399538	0.252643	0.288295
	C5751	C	0.403505	0.313753	0.284273
	C5752	C	0.403586	0.191418	0.284329
	C5753	C	0.500838	0.042923	0.311393
	C5754	C	0.500821	0.962439	0.311393
	C5755	C	0.375848	0.043031	0.312812
	C5756	C	0.375834	0.962619	0.312812
	C5757	C	0.377407	0.043133	0.311445
	C5758	C	0.377425	0.962547	0.311414
	C5759	C	0.375816	0.462478	0.311744
	C5760	C	0.501355	0.462445	0.313721
	C5761	C	0.499379	0.462444	0.310682
	C5762	C	0.375807	0.543119	0.311758
	C5763	C	0.499380	0.543253	0.310717
	C5764	C	0.501385	0.543181	0.313727
	C5765	C	0.486436	0.752710	0.326453
	C5766	C	0.486432	0.252374	0.326402
	C5767	C	0.477887	0.752940	0.334944
	C5768	C	0.473907	0.691604	0.338935
	C5769	C	0.473938	0.814252	0.339003
	C5770	C	0.477907	0.252298	0.334923
	C5771	C	0.473903	0.191368	0.338917
	C5772	C	0.473947	0.313215	0.338974
	C5773	C	0.486418	0.252656	0.296870
	C5774	C	0.453501	0.752311	0.263955
	C5775	C	0.423924	0.752743	0.263936
	C5776	C	0.424014	0.753061	0.359285
	C5777	C	0.473933	0.691031	0.284266
	C5778	C	0.473937	0.813581	0.284285
	C5779	C	0.462054	0.752366	0.272428
	C5780	C	0.415415	0.752516	0.272446
	C5781	C	0.411461	0.691180	0.276497
	C5782	C	0.466068	0.691087	0.276422
	C5783	C	0.466073	0.813635	0.276435
	C5784	C	0.411389	0.813683	0.276457
	C5785	C	0.477925	0.752277	0.288280
	C5786	C	0.453587	0.752807	0.359366
	C5787	C	0.466057	0.691581	0.346783
	C5788	C	0.466086	0.814089	0.346859
	C5789	C	0.462039	0.752767	0.350805
	C5790	C	0.438252	0.462329	0.373965
	C5791	C	0.438540	0.462467	0.248313
	C5792	C	0.438989	0.462343	0.374675
	C5793	C	0.438257	0.542887	0.373972
	C5794	C	0.438983	0.543182	0.374687
	C5795	C	0.438542	0.543120	0.248274
	C5796	C	0.453582	0.252267	0.359331
	C5797	C	0.466058	0.191223	0.346775
	C5798	C	0.466083	0.313184	0.346814
	C5799	C	0.462084	0.252162	0.350810
	C5800	C	0.437214	0.043380	0.249453
	C5801	C	0.453556	0.252804	0.263951
	C5802	C	0.423974	0.252565	0.263972
	C5803	C	0.424000	0.253135	0.359321
	C5804	C	0.473894	0.191688	0.284360
	C5805	C	0.473914	0.313730	0.284336
	C5806	C	0.462065	0.252722	0.272474
	C5807	C	0.415426	0.252525	0.272478
	C5808	C	0.415479	0.753069	0.350781
	C5809	C	0.411408	0.814161	0.346792
	C5810	C	0.411468	0.691777	0.346804
	C5811	C	0.415444	0.253139	0.350833
	C5812	C	0.411429	0.314516	0.346879
	C5813	C	0.411452	0.191760	0.346827
	C5814	C	0.411445	0.191341	0.276472
	C5815	C	0.466067	0.191664	0.276487
	C5816	C	0.466062	0.313726	0.276471
	C5817	C	0.411373	0.313671	0.276432
	C5818	C	0.477909	0.252695	0.288349
	C5819	C	0.440031	0.043405	0.373757
	C5820	C	0.439336	0.043164	0.247492
	C5821	C	0.437174	0.962369	0.249475
	C5822	C	0.440028	0.962457	0.373739
	C5823	C	0.439299	0.962758	0.247515
	N5824	N	0.376233	0.070019	0.311678
	N5825	N	0.376232	0.935651	0.311648
	N5826	N	0.376205	0.435623	0.311700
	N5827	N	0.376198	0.569988	0.311696
	N5828	N	0.438826	0.435569	0.374091
	N5829	N	0.438807	0.569905	0.374112
	N5830	N	0.438795	0.069866	0.374152
	N5831	N	0.438778	0.935532	0.374132
	O5832	O	0.489852	0.694601	0.425054
	O5833	O	0.489888	0.810551	0.424999
	O5834	O	0.387845	0.694922	0.448283
	O5835	O	0.387803	0.810845	0.448320
	O5836	O	0.387846	0.195033	0.448232
	O5837	O	0.387832	0.310811	0.448309
	O5838	O	0.387871	0.694982	0.425181
	O5839	O	0.387949	0.810866	0.425287
	O5840	O	0.387946	0.194830	0.425248
	O5841	O	0.387848	0.310722	0.425169
	O5842	O	0.489757	0.694458	0.448048
	O5843	O	0.489765	0.810539	0.448081
	O5844	O	0.489818	0.195136	0.448051
	O5845	O	0.489793	0.310856	0.448111
	O5846	O	0.489829	0.194986	0.425035
	O5847	O	0.489876	0.310819	0.424993
	O5848	O	0.450333	0.694726	0.385625
	O5849	O	0.427158	0.694875	0.385601
	O5850	O	0.450356	0.694515	0.487551
	O5851	O	0.450505	0.810645	0.487667
	O5852	O	0.427425	0.694721	0.487561
	O5853	O	0.427382	0.810766	0.487610
	O5854	O	0.427313	0.810900	0.385712
	O5855	O	0.450289	0.810549	0.385661
	O5856	O	0.450351	0.195089	0.385650
	O5857	O	0.427218	0.194979	0.385597
	O5858	O	0.450508	0.194736	0.487666
	O5859	O	0.450437	0.310704	0.487600
	O5860	O	0.427413	0.195089	0.487602
	O5861	O	0.427475	0.310866	0.487540
	O5862	O	0.427298	0.310657	0.385607
	O5863	O	0.450223	0.310944	0.385760
	H5864	H	0.400508	0.644581	0.460878
	H5865	H	0.400499	0.860893	0.460903
	H5866	H	0.400446	0.145116	0.460958
	H5867	H	0.400521	0.360480	0.460832
	H5868	H	0.400535	0.861440	0.412529
	H5869	H	0.400527	0.644676	0.412560
	H5870	H	0.400488	0.360760	0.412482
	H5871	H	0.400560	0.144940	0.412552
	H5872	H	0.498837	0.064389	0.437971
	H5873	H	0.500786	0.064315	0.439405
	H5874	H	0.500760	0.941136	0.439471
	H5875	H	0.498830	0.941068	0.438052
	H5876	H	0.499173	0.064304	0.434654
	H5877	H	0.499123	0.941012	0.434740
	H5878	H	0.375789	0.064758	0.435660
	H5879	H	0.375787	0.941001	0.435646
	H5880	H	0.375136	0.064508	0.436456
	H5881	H	0.375172	0.941090	0.436467
	H5882	H	0.375602	0.063944	0.437779
	H5883	H	0.375629	0.941577	0.437777
	H5884	H	0.376963	0.440892	0.436858
	H5885	H	0.376825	0.441087	0.436386
	H5886	H	0.376431	0.441479	0.437345
	H5887	H	0.501375	0.441004	0.436915
	H5888	H	0.501110	0.440754	0.436681
	H5889	H	0.501094	0.441328	0.436440
	H5890	H	0.376838	0.564065	0.436355
	H5891	H	0.376922	0.564341	0.436854
	H5892	H	0.501074	0.563884	0.436457
	H5893	H	0.501063	0.564379	0.436719
	H5894	H	0.501404	0.564222	0.436946
	H5895	H	0.376433	0.564253	0.437324
	H5896	H	0.477218	0.643734	0.460848
	H5897	H	0.477078	0.860827	0.460640
	H5898	H	0.477242	0.144467	0.460776
	H5899	H	0.477286	0.361083	0.460863
	H5900	H	0.414620	0.644411	0.398349
	H5901	H	0.462967	0.644643	0.398284
	H5902	H	0.463047	0.860760	0.398237
	H5903	H	0.414621	0.861593	0.398282
	H5904	H	0.477144	0.644413	0.412400
	H5905	H	0.477213	0.860709	0.412376
	H5906	H	0.463084	0.643811	0.475014
	H5907	H	0.462966	0.860824	0.474838
	H5908	H	0.438149	0.441269	0.373568
	H5909	H	0.438772	0.441574	0.496760
	H5910	H	0.439130	0.441219	0.373277
	H5911	H	0.439702	0.441408	0.373798
	H5912	H	0.436833	0.440975	0.500460
	H5913	H	0.436557	0.441032	0.498486
	H5914	H	0.438796	0.564348	0.496763
	H5915	H	0.438148	0.564145	0.373580
	H5916	H	0.436560	0.564091	0.498429
	H5917	H	0.436836	0.564409	0.500482
	H5918	H	0.439629	0.564385	0.373806
	H5919	H	0.439100	0.564626	0.373298
	H5920	H	0.463130	0.144414	0.474962
	H5921	H	0.463158	0.361091	0.475027
	H5922	H	0.437569	0.063711	0.375742
	H5923	H	0.439221	0.064443	0.376080
	H5924	H	0.436875	0.064235	0.373552
	H5925	H	0.414710	0.860987	0.475028
	H5926	H	0.414708	0.644352	0.474992
	H5927	H	0.414756	0.361075	0.474906
	H5928	H	0.414667	0.145135	0.475034
	H5929	H	0.414659	0.145079	0.398345
	H5930	H	0.462867	0.145143	0.398387
	H5931	H	0.462926	0.360869	0.398373
	H5932	H	0.414570	0.360988	0.398273
	H5933	H	0.477075	0.145216	0.412467
	H5934	H	0.477218	0.360751	0.412377
	H5935	H	0.441789	0.064619	0.500867
	H5936	H	0.442094	0.064624	0.498038
	H5937	H	0.438995	0.064405	0.495668
	H5938	H	0.439239	0.940921	0.376106
	H5939	H	0.437569	0.941119	0.375753
	H5940	H	0.436834	0.941088	0.373560
	H5941	H	0.441842	0.941416	0.500945
	H5942	H	0.442173	0.940975	0.498051
	H5943	H	0.439003	0.940847	0.495662
	Zn5944	Zn	0.376346	0.679760	0.436699
	Zn5945	Zn	0.376362	0.825589	0.436770
	Zn5946	Zn	0.376328	0.179848	0.436730
	Zn5947	Zn	0.376368	0.325677	0.436753
	Zn5948	Zn	0.438949	0.679855	0.499155
	Zn5949	Zn	0.438974	0.825788	0.499146
	Zn5950	Zn	0.438890	0.180015	0.499126
	Zn5951	Zn	0.438915	0.325769	0.499136
	C5952	C	0.486582	0.752546	0.421748
	C5953	C	0.391121	0.752882	0.451565
	C5954	C	0.399706	0.752825	0.460026
	C5955	C	0.403698	0.691483	0.464014
	C5956	C	0.403703	0.813984	0.464026
	C5957	C	0.391138	0.252835	0.451532
	C5958	C	0.399688	0.252770	0.460008
	C5959	C	0.403665	0.191901	0.464043
	C5960	C	0.403709	0.313829	0.463968
	C5961	C	0.391199	0.752975	0.421944
	C5962	C	0.399664	0.753014	0.413376
	C5963	C	0.403658	0.814316	0.409355
	C5964	C	0.403654	0.691648	0.409378
	C5965	C	0.391177	0.252820	0.421901
	C5966	C	0.399663	0.252882	0.413342
	C5967	C	0.403634	0.313916	0.409317
	C5968	C	0.403700	0.191931	0.409370
	C5969	C	0.500210	0.042985	0.438160
	C5970	C	0.500197	0.962308	0.438177
	C5971	C	0.375663	0.043175	0.436237
	C5972	C	0.375687	0.962308	0.436254
	C5973	C	0.376182	0.042898	0.437582
	C5974	C	0.376215	0.962482	0.437570
	C5975	C	0.376757	0.462282	0.436662
	C5976	C	0.501461	0.462233	0.436764
	C5977	C	0.501168	0.462386	0.436572
	C5978	C	0.376733	0.543129	0.436649
	C5979	C	0.501158	0.542886	0.436589
	C5980	C	0.501480	0.542934	0.436780
	C5981	C	0.486497	0.752445	0.451365
	C5982	C	0.486533	0.252900	0.451377
	C5983	C	0.478004	0.752285	0.459911
	C5984	C	0.474053	0.690837	0.463965
	C5985	C	0.473984	0.813759	0.463858
	C5986	C	0.478039	0.252801	0.459901
	C5987	C	0.474078	0.191549	0.463920
	C5988	C	0.474080	0.314015	0.463952
	C5989	C	0.486556	0.252889	0.421738
	C5990	C	0.453605	0.752661	0.388925
	C5991	C	0.423963	0.752952	0.388949
	C5992	C	0.424129	0.752740	0.484305
	C5993	C	0.474022	0.691457	0.409241
	C5994	C	0.474055	0.813765	0.409228
	C5995	C	0.462168	0.752693	0.397393
	C5996	C	0.415474	0.753018	0.397481
	C5997	C	0.411481	0.691556	0.401499
	C5998	C	0.466156	0.691567	0.401399
	C5999	C	0.466194	0.813822	0.401381
	C6000	C	0.411481	0.814406	0.401468
	C6001	C	0.478053	0.752577	0.413236
	C6002	C	0.453697	0.752497	0.484313
	C6003	C	0.466199	0.690937	0.471817
	C6004	C	0.466143	0.813694	0.471718
	C6005	C	0.462198	0.752366	0.475796
	C6006	C	0.439473	0.462796	0.497674
	C6007	C	0.439246	0.462579	0.373689
	C6008	C	0.437264	0.462416	0.499383
	C6009	C	0.439496	0.543283	0.497682
	C6010	C	0.437274	0.543104	0.499394
	C6011	C	0.439236	0.543334	0.373694
	C6012	C	0.453753	0.252712	0.484341
	C6013	C	0.466248	0.191496	0.471792
	C6014	C	0.466246	0.313980	0.471816
	C6015	C	0.462251	0.252719	0.475804
	C6016	C	0.438489	0.042750	0.375468
	C6017	C	0.453582	0.253003	0.388976
	C6018	C	0.423970	0.252922	0.388889
	C6019	C	0.424161	0.253014	0.484292
	C6020	C	0.473979	0.191980	0.409270
	C6021	C	0.473997	0.313978	0.409289
	C6022	C	0.462123	0.252941	0.397444
	C6023	C	0.415487	0.253096	0.397438
	C6024	C	0.415617	0.752679	0.475793
	C6025	C	0.411585	0.813954	0.471848
	C6026	C	0.411582	0.691426	0.471831
	C6027	C	0.415629	0.253038	0.475772
	C6028	C	0.411600	0.314078	0.471787
	C6029	C	0.411557	0.191960	0.471857
	C6030	C	0.411520	0.191996	0.401475
	C6031	C	0.466111	0.191948	0.401437
	C6032	C	0.466128	0.313988	0.401458
	C6033	C	0.411466	0.314086	0.401438
	C6034	C	0.478024	0.252935	0.413235
	C6035	C	0.441160	0.043285	0.499371
	C6036	C	0.437785	0.042977	0.373265
	C6037	C	0.438486	0.962185	0.375463
	C6038	C	0.441184	0.962533	0.499383
	C6039	C	0.437760	0.962289	0.373252
	N6040	N	0.376290	0.069946	0.436758
	N6041	N	0.376322	0.935545	0.436768
	N6042	N	0.376359	0.435599	0.436760
	N6043	N	0.376338	0.569961	0.436717
	N6044	N	0.438859	0.435723	0.499170
	N6045	N	0.438876	0.570074	0.499179
	N6046	N	0.438891	0.070204	0.499089
	N6047	N	0.438919	0.935803	0.499133
	O6048	O	0.489891	0.694910	0.550147
	O6049	O	0.489956	0.810902	0.550085
	O6050	O	0.387926	0.694770	0.573170
	O6051	O	0.387935	0.810887	0.573130
	O6052	O	0.387923	0.194876	0.573169
	O6053	O	0.387947	0.310705	0.573177
	O6054	O	0.387992	0.694820	0.550113
	O6055	O	0.387921	0.810838	0.550124
	O6056	O	0.388015	0.195217	0.550137
	O6057	O	0.387936	0.311105	0.550169
	O6058	O	0.489948	0.694930	0.573147
	O6059	O	0.489951	0.810681	0.573196
	O6060	O	0.489940	0.194575	0.573131
	O6061	O	0.489954	0.310557	0.573177
	O6062	O	0.489930	0.194699	0.550095
	O6063	O	0.490006	0.310752	0.550049
	O6064	O	0.450448	0.694873	0.510725
	O6065	O	0.427437	0.695036	0.510700
	O6066	O	0.450538	0.694457	0.612596
	O6067	O	0.450431	0.810548	0.612528
	O6068	O	0.427369	0.695192	0.612649
	O6069	O	0.427462	0.810935	0.612536
	O6070	O	0.427335	0.810893	0.510586
	O6071	O	0.450508	0.810718	0.510643
	O6072	O	0.450406	0.194407	0.510718
	O6073	O	0.427257	0.195318	0.510586
	O6074	O	0.450462	0.194940	0.612605
	O6075	O	0.450400	0.310811	0.612547
	O6076	O	0.427400	0.194785	0.612632
	O6077	O	0.427486	0.310731	0.612526
	O6078	O	0.427326	0.311131	0.510593
	O6079	O	0.450382	0.310504	0.510716
	H6080	H	0.400582	0.644641	0.585804
	H6081	H	0.400595	0.861186	0.585783
	H6082	H	0.400559	0.144117	0.585857
	H6083	H	0.400675	0.361069	0.585766
	H6084	H	0.400579	0.861203	0.537484
	H6085	H	0.400595	0.644703	0.537460
	H6086	H	0.400558	0.361279	0.537468
	H6087	H	0.400577	0.145452	0.537463
	H6088	H	0.502591	0.064572	0.560926
	H6089	H	0.501630	0.064641	0.560301
	H6090	H	0.501677	0.941311	0.560344
	H6091	H	0.502565	0.941669	0.560936
	H6092	H	0.502473	0.065014	0.562412
	H6093	H	0.502465	0.941334	0.562433
	H6094	H	0.374639	0.064539	0.563125
	H6095	H	0.374590	0.941640	0.563154
	H6096	H	0.376378	0.064897	0.564004
	H6097	H	0.376415	0.941371	0.564065
	H6098	H	0.378721	0.064535	0.562537
	H6099	H	0.378708	0.941468	0.562456
	H6100	H	0.375810	0.441735	0.560405
	H6101	H	0.375000	0.441197	0.561267
	H6102	H	0.377403	0.441126	0.560733
	H6103	H	0.502190	0.440924	0.560257
	H6104	H	0.503011	0.441175	0.561886
	H6105	H	0.502250	0.441005	0.562994
	H6106	H	0.375047	0.564408	0.561280
	H6107	H	0.375805	0.564374	0.560356
	H6108	H	0.502274	0.564457	0.562990
	H6109	H	0.503051	0.564472	0.561873
	H6110	H	0.502148	0.564278	0.560269
	H6111	H	0.377436	0.564470	0.560695
	H6112	H	0.477320	0.644163	0.585814
	H6113	H	0.477393	0.860973	0.585919
	H6114	H	0.477328	0.144530	0.585845
	H6115	H	0.477311	0.360542	0.585826
	H6116	H	0.414726	0.644669	0.523272
	H6117	H	0.463147	0.644636	0.523335
	H6118	H	0.463077	0.860937	0.523381
	H6119	H	0.414729	0.861268	0.523325
	H6120	H	0.477323	0.644968	0.537471
	H6121	H	0.477219	0.860953	0.537555
	H6122	H	0.463196	0.644123	0.599946
	H6123	H	0.463222	0.860864	0.600034
	H6124	H	0.440604	0.441602	0.497480
	H6125	H	0.437643	0.440780	0.623599
	H6126	H	0.441010	0.441219	0.500264
	H6127	H	0.439392	0.441502	0.501495
	H6128	H	0.439159	0.441207	0.625466
	H6129	H	0.438024	0.441320	0.625173
	H6130	H	0.437664	0.564142	0.623619
	H6131	H	0.440664	0.564755	0.497553
	H6132	H	0.438044	0.564506	0.625088
	H6133	H	0.439152	0.564694	0.625390
	H6134	H	0.439377	0.564702	0.501538
	H6135	H	0.441007	0.564923	0.500312
	H6136	H	0.463165	0.144451	0.599974
	H6137	H	0.463131	0.360794	0.599929
	H6138	H	0.435866	0.064321	0.500734
	H6139	H	0.438163	0.064904	0.502459
	H6140	H	0.436354	0.064263	0.496827
	H6141	H	0.414782	0.861179	0.599922
	H6142	H	0.414749	0.644711	0.599965
	H6143	H	0.414866	0.361092	0.599864
	H6144	H	0.414760	0.144342	0.599980
	H6145	H	0.414676	0.145383	0.523308
	H6146	H	0.463058	0.144086	0.523364
	H6147	H	0.463124	0.361187	0.523293
	H6148	H	0.414708	0.361380	0.523291
	H6149	H	0.477284	0.144121	0.537448
	H6150	H	0.477375	0.361309	0.537337
	H6151	H	0.437912	0.064862	0.624032
	H6152	H	0.438194	0.064866	0.624877
	H6153	H	0.439400	0.064588	0.625076
	H6154	H	0.438193	0.941581	0.502469
	H6155	H	0.435896	0.941650	0.500772
	H6156	H	0.436344	0.941441	0.496832
	H6157	H	0.437901	0.941528	0.624016
	H6158	H	0.438281	0.941695	0.624824
	H6159	H	0.439420	0.941077	0.625032
	Zn6160	Zn	0.376418	0.679926	0.561626
	Zn6161	Zn	0.376392	0.825938	0.561648
	Zn6162	Zn	0.376455	0.180020	0.561601
	Zn6163	Zn	0.376352	0.325654	0.561673
	Zn6164	Zn	0.438921	0.679945	0.624058
	Zn6165	Zn	0.438966	0.825963	0.624075
	Zn6166	Zn	0.438937	0.180035	0.624107
	Zn6167	Zn	0.438941	0.325746	0.624122
	C6168	C	0.486645	0.752933	0.546827
	C6169	C	0.391195	0.752851	0.576445
	C6170	C	0.399724	0.752851	0.584951
	C6171	C	0.403736	0.691651	0.588952
	C6172	C	0.403740	0.814155	0.588931
	C6173	C	0.391238	0.252776	0.576442
	C6174	C	0.399757	0.252653	0.584951
	C6175	C	0.403736	0.191331	0.588976
	C6176	C	0.403793	0.313936	0.588925
	C6177	C	0.391227	0.752915	0.546826
	C6178	C	0.399740	0.752942	0.538293
	C6179	C	0.403739	0.814224	0.534322
	C6180	C	0.403756	0.691692	0.534294
	C6181	C	0.391284	0.253295	0.546893
	C6182	C	0.399771	0.253459	0.538347
	C6183	C	0.403707	0.314549	0.534298
	C6184	C	0.403706	0.192370	0.534299
	C6185	C	0.501940	0.043227	0.560873
	C6186	C	0.501933	0.962740	0.560896
	C6187	C	0.375777	0.043349	0.563054
	C6188	C	0.375765	0.962701	0.563069
	C6189	C	0.378069	0.043168	0.561517
	C6190	C	0.378056	0.962583	0.561505
	C6191	C	0.375662	0.462523	0.561047
	C6192	C	0.501503	0.462322	0.560576
	C6193	C	0.502340	0.462399	0.562232
	C6194	C	0.375687	0.543109	0.561048
	C6195	C	0.502321	0.543093	0.562233
	C6196	C	0.501502	0.542855	0.560597
	C6197	C	0.486689	0.752748	0.576478
	C6198	C	0.486650	0.252537	0.576433
	C6199	C	0.478196	0.752681	0.585016
	C6200	C	0.474194	0.691244	0.588970
	C6201	C	0.474206	0.813947	0.589021
	C6202	C	0.478103	0.252479	0.584936
	C6203	C	0.474135	0.191329	0.588970
	C6204	C	0.474122	0.313640	0.588957
	C6205	C	0.486688	0.252755	0.546790
	C6206	C	0.453758	0.752814	0.513960
	C6207	C	0.424097	0.753015	0.513926
	C6208	C	0.424113	0.753035	0.609328
	C6209	C	0.474148	0.691761	0.534309
	C6210	C	0.474092	0.814056	0.534340
	C6211	C	0.462276	0.752777	0.522467
	C6212	C	0.415595	0.753041	0.522445
	C6213	C	0.411598	0.691761	0.526437
	C6214	C	0.466276	0.691709	0.526472
	C6215	C	0.466231	0.813947	0.526493
	C6216	C	0.411586	0.814221	0.526466
	C6217	C	0.478127	0.752942	0.538306
	C6218	C	0.453775	0.752536	0.609290
	C6219	C	0.466329	0.691247	0.596808
	C6220	C	0.466338	0.813814	0.596855
	C6221	C	0.462318	0.752564	0.600820
	C6222	C	0.438279	0.462235	0.623451
	C6223	C	0.439837	0.462537	0.500444
	C6224	C	0.438682	0.462423	0.624965
	C6225	C	0.438280	0.542874	0.623448
	C6226	C	0.438681	0.543262	0.624934
	C6227	C	0.439849	0.543374	0.500473
	C6228	C	0.453717	0.252872	0.609302
	C6229	C	0.466267	0.191482	0.596804
	C6230	C	0.466258	0.313736	0.596793
	C6231	C	0.462228	0.252704	0.600789
	C6232	C	0.437528	0.043376	0.500937
	C6233	C	0.453703	0.252524	0.513985
	C6234	C	0.424040	0.253295	0.513904
	C6235	C	0.424151	0.252733	0.609297
	C6236	C	0.474133	0.191302	0.534294
	C6237	C	0.474181	0.314052	0.534235
	C6238	C	0.462250	0.252638	0.522462
	C6239	C	0.415558	0.253412	0.522433
	C6240	C	0.415591	0.752955	0.600805
	C6241	C	0.411608	0.814197	0.596780
	C6242	C	0.411600	0.691741	0.596804
	C6243	C	0.415623	0.252685	0.600796
	C6244	C	0.411664	0.313897	0.596762
	C6245	C	0.411601	0.191356	0.596815
	C6246	C	0.411545	0.192375	0.526439
	C6247	C	0.466244	0.191277	0.526476
	C6248	C	0.466294	0.314040	0.526417
	C6249	C	0.411554	0.314494	0.526432
	C6250	C	0.478165	0.252713	0.538257
	C6251	C	0.438298	0.043432	0.624355
	C6252	C	0.437996	0.043322	0.497001
	C6253	C	0.437550	0.962770	0.500963
	C6254	C	0.438318	0.962696	0.624332
	C6255	C	0.438008	0.962553	0.496994
	N6256	N	0.376502	0.070106	0.561634
	N6257	N	0.376461	0.935758	0.561649
	N6258	N	0.376354	0.435622	0.561668
	N6259	N	0.376385	0.570021	0.561642
	N6260	N	0.438925	0.435709	0.624106
	N6261	N	0.438913	0.570039	0.624062
	N6262	N	0.438961	0.070058	0.624129
	N6263	N	0.438988	0.935731	0.624087
	O6264	O	0.489753	0.694926	0.675212
	O6265	O	0.489831	0.810545	0.675186
	O6266	O	0.387918	0.694741	0.698165
	O6267	O	0.387952	0.810796	0.698176
	O6268	O	0.387902	0.195115	0.698189
	O6269	O	0.387997	0.310870	0.698064
	O6270	O	0.387958	0.694714	0.675036
	O6271	O	0.387970	0.810799	0.675118
	O6272	O	0.387900	0.195026	0.675110
	O6273	O	0.387965	0.310727	0.675152
	O6274	O	0.489763	0.694563	0.698153
	O6275	O	0.489903	0.810354	0.698299
	O6276	O	0.489878	0.194746	0.698186
	O6277	O	0.489857	0.310611	0.698207
	O6278	O	0.489913	0.195003	0.675062
	O6279	O	0.489877	0.310836	0.675137
	O6280	O	0.450523	0.694816	0.635528
	O6281	O	0.427363	0.695069	0.635547
	O6282	O	0.450375	0.694846	0.737656
	O6283	O	0.450443	0.810653	0.737660
	O6284	O	0.427306	0.694775	0.737670
	O6285	O	0.427335	0.810675	0.737655
	O6286	O	0.427513	0.811068	0.635683
	O6287	O	0.450476	0.810785	0.635627
	O6288	O	0.450463	0.195164	0.635572
	O6289	O	0.427431	0.194852	0.635661
	O6290	O	0.450366	0.194669	0.737642
	O6291	O	0.450406	0.310592	0.737680
	O6292	O	0.427426	0.194915	0.737622
	O6293	O	0.427350	0.310740	0.737651
	O6294	O	0.427475	0.310698	0.635680
	O6295	O	0.450459	0.310934	0.635635
	H6296	H	0.400607	0.644228	0.710748
	H6297	H	0.400623	0.861014	0.710778
	H6298	H	0.400653	0.144713	0.710737
	H6299	H	0.400575	0.361324	0.710835
	H6300	H	0.400556	0.861693	0.662355
	H6301	H	0.400718	0.644402	0.662454
	H6302	H	0.400586	0.361016	0.662445
	H6303	H	0.400633	0.144739	0.662514
	H6304	H	0.501788	0.064572	0.686108
	H6305	H	0.501167	0.064244	0.685949
	H6306	H	0.501192	0.941383	0.685994
	H6307	H	0.501733	0.940876	0.686170
	H6308	H	0.501960	0.064541	0.686879
	H6309	H	0.501998	0.941449	0.686928
	H6310	H	0.375957	0.064841	0.685055
	H6311	H	0.375976	0.941130	0.685139
	H6312	H	0.374971	0.064829	0.685957
	H6313	H	0.374963	0.941571	0.686009
	H6314	H	0.375300	0.064237	0.687792
	H6315	H	0.375385	0.941370	0.687725
	H6316	H	0.377464	0.441388	0.685474
	H6317	H	0.376258	0.441257	0.685082
	H6318	H	0.377869	0.441186	0.687160
	H6319	H	0.501694	0.441378	0.687097
	H6320	H	0.501079	0.440998	0.687146
	H6321	H	0.500796	0.441176	0.686843
	H6322	H	0.376233	0.564134	0.685068
	H6323	H	0.377489	0.564262	0.685494
	H6324	H	0.500789	0.564218	0.686811
	H6325	H	0.501071	0.564738	0.687154
	H6326	H	0.501676	0.564700	0.687005
	H6327	H	0.377884	0.564376	0.687144
	H6328	H	0.477187	0.644252	0.710842
	H6329	H	0.477217	0.860657	0.710887
	H6330	H	0.477328	0.144484	0.710938
	H6331	H	0.477145	0.360789	0.710855
	H6332	H	0.414841	0.644637	0.648289
	H6333	H	0.463014	0.644598	0.648316
	H6334	H	0.463107	0.861141	0.648308
	H6335	H	0.414677	0.861754	0.648192
	H6336	H	0.477091	0.644544	0.662530
	H6337	H	0.477195	0.860913	0.662498
	H6338	H	0.463038	0.644023	0.724980
	H6339	H	0.463044	0.861069	0.724988
	H6340	H	0.438437	0.440935	0.622823
	H6341	H	0.439031	0.440946	0.749510
	H6342	H	0.439958	0.441413	0.623214
	H6343	H	0.440235	0.441255	0.624327
	H6344	H	0.439180	0.441530	0.748864
	H6345	H	0.439363	0.441474	0.749201
	H6346	H	0.439002	0.564513	0.749515
	H6347	H	0.438444	0.564077	0.622816
	H6348	H	0.439257	0.564008	0.749227
	H6349	H	0.439153	0.564446	0.748947
	H6350	H	0.440226	0.564498	0.624278
	H6351	H	0.439927	0.564307	0.623206
	H6352	H	0.463192	0.144550	0.725131
	H6353	H	0.463040	0.360485	0.725023
	H6354	H	0.439537	0.064470	0.623264
	H6355	H	0.438712	0.064570	0.623138
	H6356	H	0.439964	0.064503	0.624385
	H6357	H	0.414765	0.861107	0.724919
	H6358	H	0.414775	0.644241	0.724893
	H6359	H	0.414715	0.361108	0.724983
	H6360	H	0.414802	0.144681	0.724901
	H6361	H	0.414779	0.144686	0.648360
	H6362	H	0.463043	0.145054	0.648264
	H6363	H	0.463146	0.361359	0.648269
	H6364	H	0.414744	0.360949	0.648256
	H6365	H	0.477125	0.144969	0.662478
	H6366	H	0.477201	0.361287	0.662480
	H6367	H	0.439386	0.065053	0.747939
	H6368	H	0.438256	0.064701	0.747975
	H6369	H	0.437566	0.063937	0.749330
	H6370	H	0.438700	0.941630	0.623098
	H6371	H	0.439588	0.941652	0.623233
	H6372	H	0.439964	0.941226	0.624381
	H6373	H	0.439321	0.941340	0.747861
	H6374	H	0.438205	0.941688	0.747926
	H6375	H	0.437506	0.941445	0.749313
	Zn6376	Zn	0.376442	0.679833	0.686613
	Zn6377	Zn	0.376459	0.825838	0.686613
	Zn6378	Zn	0.376415	0.179916	0.686637
	Zn6379	Zn	0.376427	0.325821	0.686636
	Zn6380	Zn	0.438891	0.679810	0.749206
	Zn6381	Zn	0.438867	0.825734	0.749127
	Zn6382	Zn	0.438877	0.179958	0.749212
	Zn6383	Zn	0.438880	0.325684	0.749167
	C6384	C	0.486531	0.752829	0.671881
	C6385	C	0.391251	0.752735	0.701421
	C6386	C	0.399795	0.752643	0.709910
	C6387	C	0.403776	0.691263	0.713902
	C6388	C	0.403789	0.813915	0.713925
	C6389	C	0.391218	0.253020	0.701433
	C6390	C	0.399752	0.253017	0.709918
	C6391	C	0.403809	0.191782	0.713879
	C6392	C	0.403758	0.314227	0.713926
	C6393	C	0.391228	0.752832	0.671772
	C6394	C	0.399730	0.753023	0.663232
	C6395	C	0.403698	0.814508	0.659203
	C6396	C	0.403796	0.691632	0.659266
	C6397	C	0.391223	0.252862	0.671852
	C6398	C	0.399754	0.252916	0.663325
	C6399	C	0.403754	0.314036	0.659293
	C6400	C	0.403762	0.191765	0.659345
	C6401	C	0.501411	0.043259	0.686206
	C6402	C	0.501409	0.962440	0.686244
	C6403	C	0.375718	0.043366	0.685803
	C6404	C	0.375748	0.962426	0.685826
	C6405	C	0.376077	0.043289	0.687630
	C6406	C	0.376094	0.962584	0.687616
	C6407	C	0.376753	0.462323	0.685630
	C6408	C	0.501636	0.462563	0.686800
	C6409	C	0.501031	0.462441	0.686901
	C6410	C	0.376766	0.542875	0.685624
	C6411	C	0.501028	0.543240	0.686901
	C6412	C	0.501624	0.543386	0.686789
	C6413	C	0.486546	0.752446	0.701504
	C6414	C	0.486593	0.252632	0.701492
	C6415	C	0.478051	0.752482	0.710035
	C6416	C	0.474053	0.691216	0.714023
	C6417	C	0.474062	0.813765	0.714035
	C6418	C	0.478065	0.252612	0.710008
	C6419	C	0.474116	0.191419	0.714048
	C6420	C	0.474025	0.313705	0.714006
	C6421	C	0.486604	0.252960	0.671812
	C6422	C	0.453776	0.752773	0.638872
	C6423	C	0.424156	0.753103	0.638899
	C6424	C	0.424078	0.752746	0.734339
	C6425	C	0.474015	0.691655	0.659337
	C6426	C	0.474071	0.813946	0.659330
	C6427	C	0.462267	0.752805	0.647408
	C6428	C	0.415610	0.753126	0.647395
	C6429	C	0.411656	0.691702	0.651413
	C6430	C	0.466201	0.691629	0.651444
	C6431	C	0.466254	0.813988	0.651445
	C6432	C	0.411563	0.814584	0.651357
	C6433	C	0.478055	0.752785	0.663331
	C6434	C	0.453693	0.752663	0.734384
	C6435	C	0.466215	0.691190	0.721884
	C6436	C	0.466211	0.813825	0.721887
	C6437	C	0.462217	0.752544	0.725886
	C6438	C	0.438897	0.462259	0.749431
	C6439	C	0.439783	0.462694	0.623849
	C6440	C	0.439154	0.462619	0.749082
	C6441	C	0.438893	0.543217	0.749434
	C6442	C	0.439140	0.543137	0.749112
	C6443	C	0.439777	0.543292	0.623843
	C6444	C	0.453669	0.252616	0.734383
	C6445	C	0.466266	0.191390	0.721913
	C6446	C	0.466183	0.313680	0.721870
	C6447	C	0.462195	0.252527	0.725862
	C6448	C	0.439086	0.043199	0.623426
	C6449	C	0.453721	0.253031	0.638916
	C6450	C	0.424173	0.252809	0.638959
	C6451	C	0.424110	0.252787	0.734330
	C6452	C	0.474031	0.192017	0.659301
	C6453	C	0.474071	0.314256	0.659319
	C6454	C	0.462206	0.253186	0.647451
	C6455	C	0.415628	0.252779	0.647459
	C6456	C	0.415621	0.752663	0.725787
	C6457	C	0.411636	0.813963	0.721775
	C6458	C	0.411625	0.691321	0.721760
	C6459	C	0.415621	0.252869	0.725786
	C6460	C	0.411593	0.314157	0.721801
	C6461	C	0.411646	0.191679	0.721756
	C6462	C	0.411609	0.191717	0.651483
	C6463	C	0.466175	0.192011	0.651453
	C6464	C	0.466228	0.314345	0.651457
	C6465	C	0.411606	0.313977	0.651435
	C6466	C	0.478064	0.253096	0.663314
	C6467	C	0.438824	0.043502	0.748244
	C6468	C	0.439500	0.043383	0.624563
	C6469	C	0.439105	0.962734	0.623398
	C6470	C	0.438802	0.962592	0.748220
	C6471	C	0.439507	0.962387	0.624546
	N6472	N	0.376431	0.070087	0.686624
	N6473	N	0.376432	0.935768	0.686613
	N6474	N	0.376426	0.435690	0.686627
	N6475	N	0.376441	0.570037	0.686581
	N6476	N	0.438935	0.435496	0.749181
	N6477	N	0.438915	0.569864	0.749210
	N6478	N	0.438875	0.070039	0.749158
	N6479	N	0.438847	0.935679	0.749105
	O6480	O	0.489832	0.694892	0.800167
	O6481	O	0.489878	0.810936	0.800137
	O6482	O	0.387923	0.694462	0.823146
	O6483	O	0.387947	0.810332	0.823117
	O6484	O	0.387862	0.194409	0.823232
	O6485	O	0.387965	0.310278	0.823112
	O6486	O	0.387894	0.694950	0.800067
	O6487	O	0.387956	0.810677	0.800133
	O6488	O	0.387812	0.194970	0.800099
	O6489	O	0.387936	0.310464	0.800206
	O6490	O	0.489866	0.695045	0.823127
	O6491	O	0.489982	0.810760	0.823165
	O6492	O	0.489870	0.194669	0.823115
	O6493	O	0.490026	0.310462	0.823217
	O6494	O	0.489880	0.195458	0.800147
	O6495	O	0.489905	0.311229	0.800111
	O6496	O	0.450482	0.695172	0.760652
	O6497	O	0.427347	0.694866	0.760653
	O6498	O	0.450480	0.694780	0.862613
	O6499	O	0.450401	0.810575	0.862537
	O6500	O	0.427368	0.694631	0.862643
	O6501	O	0.427395	0.810487	0.862568
	O6502	O	0.427435	0.810616	0.760721
	O6503	O	0.450416	0.811045	0.760648
	O6504	O	0.450432	0.194702	0.760693
	O6505	O	0.427342	0.194851	0.760711
	O6506	O	0.450367	0.194797	0.862463
	O6507	O	0.450515	0.310438	0.862589
	O6508	O	0.427443	0.194753	0.862511
	O6509	O	0.427376	0.310533	0.862587
	O6510	O	0.427361	0.310601	0.760718
	O6511	O	0.450486	0.310416	0.760584
	H6512	H	0.400585	0.644226	0.835835
	H6513	H	0.400546	0.860696	0.835814
	H6514	H	0.400658	0.144492	0.835728
	H6515	H	0.400507	0.360478	0.835820
	H6516	H	0.400606	0.860747	0.787477
	H6517	H	0.400578	0.644796	0.787425
	H6518	H	0.400545	0.360400	0.787527
	H6519	H	0.400562	0.145079	0.787521
	H6520	H	0.499848	0.064184	0.809432
	H6521	H	0.498747	0.064280	0.811467
	H6522	H	0.498794	0.941066	0.811352
	H6523	H	0.499936	0.941165	0.809455
	H6524	H	0.502983	0.064280	0.809431
	H6525	H	0.503025	0.941066	0.809456
	H6526	H	0.376302	0.064201	0.811580
	H6527	H	0.376299	0.941017	0.811552
	H6528	H	0.376293	0.064381	0.811725
	H6529	H	0.376318	0.941363	0.811735
	H6530	H	0.376406	0.064110	0.811812
	H6531	H	0.376435	0.941423	0.811788
	H6532	H	0.376787	0.441510	0.811565
	H6533	H	0.376614	0.440920	0.811301
	H6534	H	0.376556	0.441284	0.811974
	H6535	H	0.503282	0.441291	0.811535
	H6536	H	0.502179	0.440965	0.813323
	H6537	H	0.500659	0.441106	0.813281
	H6538	H	0.376687	0.564409	0.811305
	H6539	H	0.376887	0.564189	0.811623
	H6540	H	0.500658	0.564517	0.813247
	H6541	H	0.502179	0.564336	0.813297
	H6542	H	0.503256	0.564168	0.811523
	H6543	H	0.376567	0.564238	0.812028
	H6544	H	0.477266	0.645153	0.835803
	H6545	H	0.477182	0.860954	0.835710
	H6546	H	0.477302	0.144539	0.835803
	H6547	H	0.477337	0.360796	0.835816
	H6548	H	0.414743	0.644985	0.773278
	H6549	H	0.463124	0.644876	0.773312
	H6550	H	0.463088	0.861513	0.773309
	H6551	H	0.414762	0.860691	0.773331
	H6552	H	0.477239	0.644750	0.787489
	H6553	H	0.477214	0.861360	0.787517
	H6554	H	0.463103	0.644764	0.849928
	H6555	H	0.463014	0.860705	0.849854
	H6556	H	0.438727	0.441081	0.749484
	H6557	H	0.437546	0.440999	0.874217
	H6558	H	0.438555	0.441559	0.749113
	H6559	H	0.438733	0.441496	0.748868
	H6560	H	0.439723	0.441162	0.875189
	H6561	H	0.438602	0.440890	0.875446
	H6562	H	0.437575	0.564117	0.874227
	H6563	H	0.438769	0.564390	0.749487
	H6564	H	0.438634	0.564320	0.875428
	H6565	H	0.439813	0.564662	0.875185
	H6566	H	0.438768	0.564853	0.748896
	H6567	H	0.438596	0.564720	0.749131
	H6568	H	0.463106	0.144545	0.849894
	H6569	H	0.463183	0.360769	0.849956
	H6570	H	0.439689	0.064336	0.750187
	H6571	H	0.440229	0.064279	0.749144
	H6572	H	0.438173	0.064481	0.750265
	H6573	H	0.414698	0.860559	0.849981
	H6574	H	0.414728	0.644172	0.849985
	H6575	H	0.414685	0.360608	0.849947
	H6576	H	0.414831	0.144285	0.849865
	H6577	H	0.414693	0.144961	0.773378
	H6578	H	0.463122	0.145020	0.773342
	H6579	H	0.463054	0.361057	0.773273
	H6580	H	0.414685	0.360470	0.773357
	H6581	H	0.477246	0.145160	0.787501
	H6582	H	0.477199	0.361323	0.787463
	H6583	H	0.438329	0.064148	0.876139
	H6584	H	0.440135	0.064307	0.875789
	H6585	H	0.440946	0.063892	0.873512
	H6586	H	0.440177	0.941467	0.749115
	H6587	H	0.439722	0.941358	0.750158
	H6588	H	0.438150	0.940994	0.750273
	H6589	H	0.438384	0.940974	0.876112
	H6590	H	0.440107	0.941107	0.875866
	H6591	H	0.441007	0.941565	0.873563
	Zn6592	Zn	0.376445	0.679835	0.811634
	Zn6593	Zn	0.376430	0.825491	0.811652
	Zn6594	Zn	0.376353	0.179946	0.811669
	Zn6595	Zn	0.376364	0.325615	0.811668
	Zn6596	Zn	0.438981	0.679998	0.874087
	Zn6597	Zn	0.438928	0.825450	0.874082
	Zn6598	Zn	0.438942	0.180137	0.874075
	Zn6599	Zn	0.438922	0.325305	0.874066
	C6600	C	0.486600	0.752949	0.796846
	C6601	C	0.391231	0.752462	0.826406
	C6602	C	0.399729	0.752532	0.834926
	C6603	C	0.403721	0.691303	0.838968
	C6604	C	0.403707	0.813627	0.838952
	C6605	C	0.391192	0.252367	0.826473
	C6606	C	0.399700	0.252409	0.834986
	C6607	C	0.403775	0.191354	0.838924
	C6608	C	0.403710	0.313594	0.838949
	C6609	C	0.391211	0.752791	0.796814
	C6610	C	0.399725	0.752745	0.788308
	C6611	C	0.403744	0.813812	0.784327
	C6612	C	0.403722	0.691734	0.784284
	C6613	C	0.391146	0.252701	0.796840
	C6614	C	0.399654	0.252719	0.788317
	C6615	C	0.403686	0.313604	0.784353
	C6616	C	0.403686	0.191829	0.784352
	C6617	C	0.499873	0.043080	0.810746
	C6618	C	0.499908	0.962485	0.810730
	C6619	C	0.376321	0.043105	0.811638
	C6620	C	0.376326	0.962310	0.811632
	C6621	C	0.376439	0.043045	0.811721
	C6622	C	0.376455	0.962522	0.811718
	C6623	C	0.376636	0.462471	0.811490
	C6624	C	0.502533	0.462344	0.811084
	C6625	C	0.501443	0.462351	0.812859
	C6626	C	0.376674	0.543159	0.811499
	C6627	C	0.501437	0.543330	0.812869
	C6628	C	0.502539	0.542891	0.811091
	C6629	C	0.486643	0.753018	0.826430
	C6630	C	0.486662	0.252638	0.826447
	C6631	C	0.478110	0.753032	0.834932
	C6632	C	0.474101	0.691953	0.838944
	C6633	C	0.474063	0.814001	0.838884
	C6634	C	0.478124	0.252671	0.834922
	C6635	C	0.474113	0.191508	0.838919
	C6636	C	0.474149	0.313896	0.838936
	C6637	C	0.486593	0.253331	0.796848
	C6638	C	0.453753	0.753183	0.763918
	C6639	C	0.424116	0.752731	0.763970
	C6640	C	0.424101	0.752500	0.859318
	C6641	C	0.474103	0.691852	0.784320
	C6642	C	0.474081	0.814378	0.784332
	C6643	C	0.462279	0.753216	0.772435
	C6644	C	0.415596	0.752805	0.772477
	C6645	C	0.411585	0.691800	0.776439
	C6646	C	0.466273	0.691907	0.776453
	C6647	C	0.466248	0.814457	0.776458
	C6648	C	0.411600	0.813822	0.776476
	C6649	C	0.478106	0.753119	0.788305
	C6650	C	0.453740	0.752732	0.859295
	C6651	C	0.466252	0.691781	0.846796
	C6652	C	0.466208	0.813896	0.846737
	C6653	C	0.462247	0.752807	0.850777
	C6654	C	0.438049	0.462234	0.873767
	C6655	C	0.438726	0.462620	0.749044
	C6656	C	0.439125	0.462204	0.874986
	C6657	C	0.438073	0.542875	0.873776
	C6658	C	0.439145	0.543100	0.874995
	C6659	C	0.438739	0.543335	0.749060
	C6660	C	0.453736	0.252624	0.859245
	C6661	C	0.466241	0.191542	0.846739
	C6662	C	0.466287	0.313808	0.846771
	C6663	C	0.462236	0.252645	0.850727
	C6664	C	0.439663	0.043114	0.749533
	C6665	C	0.453733	0.252670	0.763937
	C6666	C	0.424082	0.252759	0.764021
	C6667	C	0.424112	0.252637	0.859295
	C6668	C	0.474089	0.192098	0.784353
	C6669	C	0.474059	0.314325	0.784322
	C6670	C	0.462230	0.253067	0.772463
	C6671	C	0.415548	0.252787	0.772501
	C6672	C	0.415574	0.752409	0.850794
	C6673	C	0.411555	0.813617	0.846818
	C6674	C	0.411569	0.691188	0.846825
	C6675	C	0.415564	0.252537	0.850813
	C6676	C	0.411545	0.313683	0.846817
	C6677	C	0.411618	0.191371	0.846784
	C6678	C	0.411542	0.191874	0.776505
	C6679	C	0.466250	0.192020	0.776488
	C6680	C	0.466224	0.314221	0.776445
	C6681	C	0.411529	0.313654	0.776495
	C6682	C	0.478075	0.253255	0.788346
	C6683	C	0.439150	0.043111	0.875481
	C6684	C	0.438120	0.043231	0.749616
	C6685	C	0.439681	0.962747	0.749499
	C6686	C	0.439165	0.962268	0.875495
	C6687	C	0.438104	0.962402	0.749595
	N6688	N	0.376402	0.070034	0.811662
	N6689	N	0.376421	0.935615	0.811669
	N6690	N	0.376389	0.435571	0.811642
	N6691	N	0.376423	0.569945	0.811645
	N6692	N	0.438936	0.435273	0.874075
	N6693	N	0.438994	0.569715	0.874081
	N6694	N	0.438906	0.070082	0.874081
	N6695	N	0.438922	0.935588	0.874084
	O6696	O	0.489966	0.695122	0.925071
	O6697	O	0.490064	0.810749	0.925001
	O6698	O	0.387888	0.694711	0.948082
	O6699	O	0.387782	0.810609	0.948200
	O6700	O	0.387818	0.193941	0.948051
	O6701	O	0.387877	0.310057	0.948057
	O6702	O	0.387995	0.695045	0.925114
	O6703	O	0.387948	0.810674	0.925046
	O6704	O	0.387839	0.194705	0.924955
	O6705	O	0.387926	0.310637	0.925049
	O6706	O	0.489821	0.694655	0.947976
	O6707	O	0.489928	0.810667	0.948066
	O6708	O	0.489875	0.194928	0.948139
	O6709	O	0.489965	0.310877	0.948162
	O6710	O	0.489888	0.195003	0.925105
	O6711	O	0.489940	0.311019	0.925112
	O6712	O	0.450458	0.695212	0.885633
	O6713	O	0.427371	0.694876	0.885564
	O6714	O	0.450475	0.694784	0.987519
	O6715	O	0.450414	0.810705	0.987498
	O6716	O	0.427395	0.694418	0.987515
	O6717	O	0.427373	0.810336	0.987479
	O6718	O	0.427363	0.810762	0.885571
	O6719	O	0.450433	0.811067	0.885654
	O6720	O	0.450423	0.195188	0.885640
	O6721	O	0.427388	0.194924	0.885606
	O6722	O	0.450369	0.195016	0.987475
	O6723	O	0.450358	0.310898	0.987480
	O6724	O	0.427422	0.194160	0.987450
	O6725	O	0.427335	0.310194	0.987496
	O6726	O	0.427341	0.310891	0.885550
	O6727	O	0.450510	0.311135	0.885577
	H6728	H	0.400541	0.644144	0.960718
	H6729	H	0.400451	0.860558	0.960831
	H6730	H	0.400504	0.143190	0.960756
	H6731	H	0.400467	0.359975	0.960718
	H6732	H	0.400667	0.861043	0.912386
	H6733	H	0.400623	0.644607	0.912397
	H6734	H	0.400642	0.361088	0.912460
	H6735	H	0.400625	0.144365	0.912446
	H6736	H	0.500685	0.064454	0.935991
	H6737	H	0.500505	0.064691	0.936888
	H6738	H	0.500538	0.941290	0.936894
	H6739	H	0.500677	0.941383	0.936051
	H6740	H	0.501803	0.064117	0.935604
	H6741	H	0.501755	0.941132	0.935632
	H6742	H	0.376135	0.064332	0.935058
	H6743	H	0.376156	0.940964	0.935130
	H6744	H	0.375113	0.064233	0.935754
	H6745	H	0.375175	0.940921	0.935774
	H6746	H	0.375263	0.064147	0.937336
	H6747	H	0.375242	0.941181	0.937381
	H6748	H	0.378528	0.441264	0.934918
	H6749	H	0.376500	0.441489	0.933842
	H6750	H	0.378632	0.441035	0.937967
	H6751	H	0.499433	0.441575	0.939788
	H6752	H	0.497843	0.441125	0.935814
	H6753	H	0.499833	0.440912	0.933288
	H6754	H	0.376471	0.564546	0.933843
	H6755	H	0.378476	0.564350	0.934808
	H6756	H	0.499717	0.564668	0.933312
	H6757	H	0.497830	0.564220	0.935795
	H6758	H	0.499438	0.564304	0.939806
	H6759	H	0.378678	0.564075	0.937876
	H6760	H	0.477235	0.644231	0.960642
	H6761	H	0.477222	0.861042	0.960637
	H6762	H	0.477260	0.144499	0.960767
	H6763	H	0.477231	0.361434	0.960749
	H6764	H	0.414715	0.644827	0.898210
	H6765	H	0.463086	0.644962	0.898366
	H6766	H	0.463134	0.861358	0.898269
	H6767	H	0.414751	0.860795	0.898203
	H6768	H	0.477283	0.645000	0.912451
	H6769	H	0.477342	0.861442	0.912352
	H6770	H	0.463080	0.644325	0.974817
	H6771	H	0.463086	0.861194	0.974821
	H6772	H	0.437916	0.441125	0.873100
	H6773	H	0.439553	0.441550	0.997100
	H6774	H	0.439501	0.440986	0.872809
	H6775	H	0.440318	0.440846	0.873672
	H6776	H	0.436853	0.440884	0.999513
	H6777	H	0.437242	0.440678	0.997793
	H6778	H	0.439560	0.564018	0.997111
	H6779	H	0.437947	0.563988	0.873102
	H6780	H	0.437318	0.564401	0.997773
	H6781	H	0.436850	0.564162	0.999425
	H6782	H	0.440324	0.564245	0.873671
	H6783	H	0.439558	0.564140	0.872777
	H6784	H	0.463068	0.144457	0.974883
	H6785	H	0.463039	0.361350	0.974857
	H6786	H	0.437387	0.064479	0.872584
	H6787	H	0.436778	0.064091	0.874277
	H6788	H	0.439803	0.064309	0.872176
	H6789	H	0.414666	0.860248	0.974911
	H6790	H	0.414778	0.644160	0.974803
	H6791	H	0.414641	0.360254	0.974858
	H6792	H	0.414674	0.143459	0.974885
	H6793	H	0.414745	0.144382	0.898301
	H6794	H	0.463148	0.144957	0.898232
	H6795	H	0.463143	0.361733	0.898272
	H6796	H	0.414778	0.361124	0.898289
	H6797	H	0.477290	0.144966	0.912414
	H6798	H	0.477257	0.361541	0.912453
	H6799	H	0.440381	0.064472	0.996806
	H6800	H	0.438139	0.064594	0.996538
	H6801	H	0.436228	0.064415	0.998885
	H6802	H	0.436770	0.940847	0.874272
	H6803	H	0.437431	0.940917	0.872593
	H6804	H	0.439840	0.941156	0.872166
	H6805	H	0.440335	0.941316	0.996791
	H6806	H	0.438088	0.941414	0.996489
	H6807	H	0.436190	0.941282	0.998891
	Zn6808	Zn	0.376398	0.680220	0.936457
	Zn6809	Zn	0.376407	0.825472	0.936526
	Zn6810	Zn	0.376283	0.180123	0.936463
	Zn6811	Zn	0.376365	0.325507	0.936559
	Zn6812	Zn	0.438889	0.679929	0.999041
	Zn6813	Zn	0.438880	0.825644	0.998982
	Zn6814	Zn	0.438903	0.179932	0.999059
	Zn6815	Zn	0.438846	0.325576	0.999029
	C6816	C	0.486716	0.753005	0.921744
	C6817	C	0.391130	0.752640	0.951428
	C6818	C	0.399642	0.752376	0.959944
	C6819	C	0.403687	0.691098	0.963890
	C6820	C	0.403628	0.813503	0.963944
	C6821	C	0.391108	0.251866	0.951366
	C6822	C	0.399649	0.251632	0.959862
	C6823	C	0.403666	0.190346	0.963867
	C6824	C	0.403647	0.312976	0.963848
	C6825	C	0.391273	0.752847	0.921799
	C6826	C	0.399741	0.752915	0.913266
	C6827	C	0.403744	0.813965	0.909230
	C6828	C	0.403729	0.691718	0.909239
	C6829	C	0.391174	0.252659	0.921731
	C6830	C	0.399690	0.252723	0.913229
	C6831	C	0.403737	0.314007	0.909266
	C6832	C	0.403718	0.191500	0.909260
	C6833	C	0.500853	0.043281	0.936477
	C6834	C	0.500848	0.962540	0.936496
	C6835	C	0.375820	0.043104	0.935710
	C6836	C	0.375850	0.962336	0.935727
	C6837	C	0.375925	0.042995	0.937332
	C6838	C	0.375951	0.962342	0.937342
	C6839	C	0.377206	0.462523	0.934934
	C6840	C	0.501163	0.462548	0.939138
	C6841	C	0.499551	0.462311	0.935112
	C6842	C	0.377198	0.543221	0.934916
	C6843	C	0.499526	0.543073	0.935111
	C6844	C	0.501155	0.543273	0.939125
	C6845	C	0.486599	0.752680	0.951313
	C6846	C	0.486638	0.252943	0.951447
	C6847	C	0.478065	0.752615	0.959802
	C6848	C	0.474070	0.691373	0.963797
	C6849	C	0.474063	0.813939	0.963794
	C6850	C	0.478092	0.252975	0.959953
	C6851	C	0.474086	0.191558	0.963924
	C6852	C	0.474074	0.314377	0.963910
	C6853	C	0.486612	0.253091	0.921829
	C6854	C	0.453742	0.753142	0.888920
	C6855	C	0.424079	0.752811	0.888859
	C6856	C	0.424097	0.752276	0.984224
	C6857	C	0.474149	0.692072	0.909282
	C6858	C	0.474181	0.814340	0.909229
	C6859	C	0.462267	0.753171	0.897435
	C6860	C	0.415558	0.752809	0.897374
	C6861	C	0.411555	0.691672	0.901361
	C6862	C	0.466263	0.692018	0.901470
	C6863	C	0.466297	0.814328	0.901413
	C6864	C	0.411579	0.813980	0.901357
	C6865	C	0.478190	0.753204	0.913249
	C6866	C	0.453723	0.752775	0.984218
	C6867	C	0.466218	0.691360	0.971654
	C6868	C	0.466215	0.814099	0.971653
	C6869	C	0.462221	0.752720	0.975668
	C6870	C	0.439841	0.462454	0.998073
	C6871	C	0.439656	0.462225	0.873461
	C6872	C	0.437523	0.462116	0.998759
	C6873	C	0.439845	0.543034	0.998062
	C6874	C	0.437542	0.543107	0.998741
	C6875	C	0.439685	0.542931	0.873454
	C6876	C	0.453668	0.252947	0.984228
	C6877	C	0.466195	0.191605	0.971736
	C6878	C	0.466179	0.314245	0.971715
	C6879	C	0.462200	0.252931	0.975748
	C6880	C	0.437565	0.043105	0.873601
	C6881	C	0.453737	0.253191	0.888915
	C6882	C	0.424088	0.252911	0.888875
	C6883	C	0.424089	0.252106	0.984194
	C6884	C	0.474117	0.192072	0.909275
	C6885	C	0.474103	0.314528	0.909297
	C6886	C	0.462239	0.253320	0.897448
	C6887	C	0.415550	0.252768	0.897377
	C6888	C	0.415552	0.752188	0.975724
	C6889	C	0.411517	0.813323	0.971752
	C6890	C	0.411581	0.690990	0.971695
	C6891	C	0.415568	0.251926	0.975672
	C6892	C	0.411532	0.313148	0.971679
	C6893	C	0.411549	0.190486	0.971697
	C6894	C	0.411563	0.191518	0.901402
	C6895	C	0.466273	0.192087	0.901411
	C6896	C	0.466265	0.314597	0.901430
	C6897	C	0.411582	0.314052	0.901403
	C6898	C	0.478084	0.253206	0.913313
	C6899	C	0.439171	0.043204	0.997299
	C6900	C	0.439998	0.042957	0.873156
	C6901	C	0.437576	0.962329	0.873596
	C6902	C	0.439146	0.962494	0.997268
	C6903	C	0.440027	0.962408	0.873182
	N6904	N	0.376349	0.070079	0.936474
	N6905	N	0.376389	0.935664	0.936517
	N6906	N	0.376415	0.435594	0.936548
	N6907	N	0.376433	0.570028	0.936507
	N6908	N	0.438860	0.435605	0.999102
	N6909	N	0.438880	0.570037	0.999069
	N6910	N	0.438921	0.069888	0.999065
	N6911	N	0.438908	0.935566	0.999034
	O6912	O	0.614828	0.695287	0.050133
	O6913	O	0.614802	0.811010	0.050251
	O6914	O	0.512739	0.694133	0.073025
	O6915	O	0.512799	0.810207	0.073140
	O6916	O	0.512815	0.194297	0.073062
	O6917	O	0.512930	0.310191	0.073078
	O6918	O	0.512843	0.694789	0.050071
	O6919	O	0.512833	0.810745	0.050012
	O6920	O	0.512830	0.194969	0.050022
	O6921	O	0.512917	0.311072	0.050107
	O6922	O	0.614828	0.695531	0.073207
	O6923	O	0.614863	0.811327	0.073251
	O6924	O	0.614742	0.195021	0.073176
	O6925	O	0.614852	0.311092	0.073284
	O6926	O	0.614778	0.194970	0.050175
	O6927	O	0.614883	0.310808	0.050107
	O6928	O	0.575450	0.695379	0.010683
	O6929	O	0.552339	0.694789	0.010670
	O6930	O	0.575312	0.695664	0.112641
	O6931	O	0.575282	0.811485	0.112625
	O6932	O	0.552334	0.693895	0.112514
	O6933	O	0.552195	0.810050	0.112495
	O6934	O	0.552329	0.810745	0.010682
	O6935	O	0.575368	0.811272	0.010691
	O6936	O	0.575434	0.195174	0.010707
	O6937	O	0.552356	0.194823	0.010610
	O6938	O	0.575303	0.195163	0.112620
	O6939	O	0.575326	0.310932	0.112688
	O6940	O	0.552288	0.193989	0.112608
	O6941	O	0.552142	0.309894	0.112691
	O6942	O	0.552406	0.310837	0.010771
	O6943	O	0.575346	0.310966	0.010711
	H6944	H	0.525374	0.642943	0.085782
	H6945	H	0.525399	0.860338	0.085757
	H6946	H	0.525386	0.143608	0.085851
	H6947	H	0.525552	0.360010	0.085753
	H6948	H	0.525449	0.860744	0.037389
	H6949	H	0.525533	0.644430	0.037435
	H6950	H	0.525567	0.361646	0.037457
	H6951	H	0.525615	0.144133	0.037501
	H6952	H	0.625799	0.064232	0.060738
	H6953	H	0.625257	0.064257	0.061428
	H6954	H	0.625256	0.941105	0.061384
	H6955	H	0.625895	0.940945	0.060711
	H6956	H	0.627015	0.064391	0.060958
	H6957	H	0.627065	0.940956	0.060953
	H6958	H	0.500924	0.064593	0.060600
	H6959	H	0.500981	0.941540	0.060668
	H6960	H	0.500380	0.064490	0.061241
	H6961	H	0.500380	0.941240	0.061256
	H6962	H	0.500711	0.064727	0.062362
	H6963	H	0.500736	0.940956	0.062417
	H6964	H	0.501624	0.441073	0.063128
	H6965	H	0.502746	0.441073	0.062335
	H6966	H	0.499945	0.441479	0.062390
	H6967	H	0.624234	0.441553	0.061232
	H6968	H	0.626049	0.441154	0.059626
	H6969	H	0.627682	0.441474	0.060110
	H6970	H	0.502657	0.564500	0.062256
	H6971	H	0.501550	0.564408	0.063022
	H6972	H	0.627660	0.564496	0.060120
	H6973	H	0.626003	0.564664	0.059623
	H6974	H	0.624263	0.564454	0.061240
	H6975	H	0.499836	0.564424	0.062340
	H6976	H	0.602101	0.645168	0.085795
	H6977	H	0.602250	0.861764	0.085951
	H6978	H	0.602209	0.145164	0.085929
	H6979	H	0.602102	0.361437	0.085877
	H6980	H	0.539698	0.644757	0.023265
	H6981	H	0.588030	0.645586	0.023383
	H6982	H	0.588150	0.861691	0.023256
	H6983	H	0.539607	0.860806	0.023256
	H6984	H	0.602203	0.645542	0.037529
	H6985	H	0.602293	0.861533	0.037428
	H6986	H	0.587906	0.645002	0.099894
	H6987	H	0.588049	0.862178	0.100054
	H6988	H	0.562863	0.441208	-0.001374
	H6989	H	0.563552	0.441465	0.124094
	H6990	H	0.564076	0.441063	-0.001983
	H6991	H	0.564940	0.441353	-0.001457
	H6992	H	0.563859	0.441617	0.124196
	H6993	H	0.563716	0.441028	0.124287
	H6994	H	0.563604	0.564231	0.124132
	H6995	H	0.562854	0.564455	-0.001398
	H6996	H	0.563722	0.564567	0.124275
	H6997	H	0.563808	0.564316	0.124277
	H6998	H	0.564954	0.564427	-0.001517
	H6999	H	0.564114	0.564577	-0.002004
	H7000	H	0.588073	0.145080	0.100118
	H7001	H	0.587995	0.361301	0.100049
	H7002	H	0.563949	0.064432	0.001399
	H7003	H	0.565653	0.064372	0.000598
	H7004	H	0.561832	0.064583	-0.000122
	H7005	H	0.539559	0.860426	0.099904
	H7006	H	0.539577	0.642808	0.099914
	H7007	H	0.539689	0.360053	0.099918
	H7008	H	0.539497	0.143385	0.100052
	H7009	H	0.539767	0.144116	0.023371
	H7010	H	0.588110	0.145088	0.023278
	H7011	H	0.587995	0.361300	0.023380
	H7012	H	0.539719	0.361187	0.023331
	H7013	H	0.602286	0.144800	0.037415
	H7014	H	0.602144	0.361345	0.037523
	H7015	H	0.564864	0.064408	0.124400
	H7016	H	0.564646	0.064007	0.123470
	H7017	H	0.563394	0.064063	0.123056
	H7018	H	0.565572	0.941020	0.000617
	H7019	H	0.563890	0.941464	0.001419
	H7020	H	0.561742	0.941687	-0.000084
	H7021	H	0.564783	0.941333	0.124342
	H7022	H	0.564620	0.941426	0.123383
	H7023	H	0.563355	0.941170	0.123041
	Zn7024	Zn	0.501209	0.680046	0.061472
	Zn7025	Zn	0.501388	0.825783	0.061593
	Zn7026	Zn	0.501262	0.180027	0.061496
	Zn7027	Zn	0.501420	0.325887	0.061602
	Zn7028	Zn	0.563789	0.680056	0.124151
	Zn7029	Zn	0.563680	0.825669	0.124082
	Zn7030	Zn	0.563804	0.180013	0.124185
	Zn7031	Zn	0.563722	0.325671	0.124076
	C7032	C	0.611545	0.753228	0.046902
	C7033	C	0.516067	0.751944	0.076345
	C7034	C	0.524597	0.751595	0.084853
	C7035	C	0.528570	0.690099	0.088893
	C7036	C	0.528574	0.813096	0.088871
	C7037	C	0.516137	0.252068	0.076376
	C7038	C	0.524607	0.251788	0.084950
	C7039	C	0.528550	0.190531	0.088997
	C7040	C	0.528648	0.312950	0.088937
	C7041	C	0.516125	0.752720	0.046768
	C7042	C	0.524669	0.752556	0.038273
	C7043	C	0.528618	0.813842	0.034265
	C7044	C	0.528665	0.691345	0.034276
	C7045	C	0.516151	0.253038	0.046780
	C7046	C	0.524647	0.252917	0.038256
	C7047	C	0.528665	0.314335	0.034282
	C7048	C	0.528697	0.191402	0.034299
	C7049	C	0.625725	0.042961	0.061236
	C7050	C	0.625752	0.962346	0.061217
	C7051	C	0.500817	0.043306	0.061088
	C7052	C	0.500854	0.962694	0.061120
	C7053	C	0.501172	0.043320	0.062217
	C7054	C	0.501222	0.962181	0.062239
	C7055	C	0.501969	0.462519	0.062405
	C7056	C	0.624957	0.462599	0.061982
	C7057	C	0.626715	0.462535	0.060351
	C7058	C	0.501897	0.543244	0.062366
	C7059	C	0.626699	0.543378	0.060339
	C7060	C	0.624938	0.543056	0.061993
	C7061	C	0.611518	0.753455	0.076475
	C7062	C	0.611491	0.253078	0.076495
	C7063	C	0.602956	0.753551	0.084954
	C7064	C	0.598935	0.692281	0.088933
	C7065	C	0.599020	0.814862	0.089036
	C7066	C	0.602965	0.253220	0.084992
	C7067	C	0.599025	0.192089	0.089056
	C7068	C	0.598973	0.314376	0.089029
	C7069	C	0.611544	0.252949	0.046852
	C7070	C	0.578687	0.753426	0.013973
	C7071	C	0.549045	0.752763	0.013946
	C7072	C	0.548991	0.751789	0.109222
	C7073	C	0.599044	0.692421	0.034374
	C7074	C	0.599104	0.814726	0.034309
	C7075	C	0.587209	0.753611	0.022499
	C7076	C	0.540516	0.752742	0.022442
	C7077	C	0.536538	0.691539	0.026444
	C7078	C	0.591189	0.692455	0.026517
	C7079	C	0.591248	0.814734	0.026457
	C7080	C	0.536497	0.813860	0.026447
	C7081	C	0.603042	0.753534	0.038368
	C7082	C	0.578558	0.753582	0.109323
	C7083	C	0.591064	0.692243	0.096774
	C7084	C	0.591154	0.814959	0.096879
	C7085	C	0.587060	0.753626	0.100797
	C7086	C	0.563606	0.462593	0.124075
	C7087	C	0.564332	0.462483	-0.001486
	C7088	C	0.563765	0.462507	0.124214
	C7089	C	0.563633	0.543060	0.124072
	C7090	C	0.563764	0.543289	0.124228
	C7091	C	0.564356	0.543412	-0.001487
	C7092	C	0.578582	0.253097	0.109357
	C7093	C	0.591166	0.192055	0.096907
	C7094	C	0.591119	0.314409	0.096881
	C7095	C	0.587104	0.253184	0.100841
	C7096	C	0.564577	0.043183	0.000507
	C7097	C	0.578676	0.253181	0.013986
	C7098	C	0.549102	0.252662	0.013983
	C7099	C	0.548936	0.251830	0.109371
	C7100	C	0.599077	0.191878	0.034324
	C7101	C	0.598993	0.314264	0.034387
	C7102	C	0.587181	0.253175	0.022512
	C7103	C	0.540528	0.252576	0.022435
	C7104	C	0.540457	0.751564	0.100707
	C7105	C	0.536433	0.813146	0.096722
	C7106	C	0.536439	0.690012	0.096733
	C7107	C	0.540433	0.251692	0.100843
	C7108	C	0.536478	0.312987	0.096814
	C7109	C	0.536385	0.190417	0.096868
	C7110	C	0.536556	0.191309	0.026455
	C7111	C	0.591220	0.192015	0.026476
	C7112	C	0.591144	0.314302	0.026529
	C7113	C	0.536530	0.314038	0.026441
	C7114	C	0.603026	0.253033	0.038361
	C7115	C	0.564472	0.043135	0.123989
	C7116	C	0.562430	0.043163	-0.000997
	C7117	C	0.564528	0.962483	0.000515
	C7118	C	0.564445	0.962485	0.123944
	C7119	C	0.562388	0.962499	-0.000988
	N7120	N	0.501316	0.070061	0.061526
	N7121	N	0.501371	0.935709	0.061573
	N7122	N	0.501333	0.435753	0.061550
	N7123	N	0.501211	0.570142	0.061484
	N7124	N	0.563717	0.435664	0.124099
	N7125	N	0.563732	0.570054	0.124113
	N7126	N	0.563737	0.070058	0.124171
	N7127	N	0.563697	0.935659	0.124110
	O7128	O	0.614758	0.695236	0.175045
	O7129	O	0.614862	0.811143	0.175055
	O7130	O	0.512794	0.694579	0.198232
	O7131	O	0.512799	0.810653	0.198186
	O7132	O	0.512803	0.194919	0.198208
	O7133	O	0.512881	0.310840	0.198134
	O7134	O	0.512746	0.694712	0.175177
	O7135	O	0.512885	0.810826	0.175178
	O7136	O	0.512730	0.194565	0.175041
	O7137	O	0.512872	0.310537	0.175135
	O7138	O	0.614705	0.694666	0.198126
	O7139	O	0.614775	0.810645	0.198240
	O7140	O	0.614742	0.194700	0.198190
	O7141	O	0.614707	0.310355	0.198166
	O7142	O	0.614748	0.195759	0.175025
	O7143	O	0.614733	0.311716	0.175172
	O7144	O	0.575265	0.695458	0.135707
	O7145	O	0.552148	0.694251	0.135626
	O7146	O	0.575366	0.694574	0.237714
	O7147	O	0.575272	0.810517	0.237630
	O7148	O	0.552225	0.694400	0.237714
	O7149	O	0.552318	0.810334	0.237545
	O7150	O	0.552158	0.810247	0.135586
	O7151	O	0.575242	0.811471	0.135654
	O7152	O	0.575244	0.195992	0.135714
	O7153	O	0.552295	0.194438	0.135683
	O7154	O	0.575272	0.194921	0.237667
	O7155	O	0.575319	0.310474	0.237657
	O7156	O	0.552287	0.195092	0.237680
	O7157	O	0.552183	0.310695	0.237732
	O7158	O	0.552202	0.310459	0.135585
	O7159	O	0.575224	0.311820	0.135651
	H7160	H	0.525468	0.644248	0.210863
	H7161	H	0.525474	0.860602	0.210808
	H7162	H	0.525383	0.145053	0.210920
	H7163	H	0.525453	0.360563	0.210883
	H7164	H	0.525578	0.861406	0.162571
	H7165	H	0.525401	0.643650	0.162521
	H7166	H	0.525470	0.360770	0.162408
	H7167	H	0.525485	0.144201	0.162430
	H7168	H	0.625908	0.064058	0.186936
	H7169	H	0.626323	0.063789	0.187032
	H7170	H	0.626313	0.941312	0.187126
	H7171	H	0.625926	0.940759	0.187000
	H7172	H	0.625775	0.064238	0.186413
	H7173	H	0.625777	0.941277	0.186438
	H7174	H	0.503839	0.064465	0.184423
	H7175	H	0.503860	0.941019	0.184381
	H7176	H	0.501194	0.064274	0.183257
	H7177	H	0.501211	0.941253	0.183230
	H7178	H	0.498093	0.064163	0.185621
	H7179	H	0.498048	0.941359	0.185612
	H7180	H	0.501217	0.441391	0.185590
	H7181	H	0.500455	0.441464	0.186058
	H7182	H	0.502300	0.441189	0.186199
	H7183	H	0.625005	0.441229	0.185590
	H7184	H	0.626897	0.441120	0.185225
	H7185	H	0.627816	0.441338	0.186166
	H7186	H	0.500434	0.564128	0.186117
	H7187	H	0.501173	0.564272	0.185616
	H7188	H	0.627739	0.564364	0.186163
	H7189	H	0.626867	0.564313	0.185161
	H7190	H	0.624995	0.564257	0.185565
	H7191	H	0.502217	0.564632	0.186210
	H7192	H	0.601961	0.644108	0.210703
	H7193	H	0.602135	0.860778	0.210883
	H7194	H	0.602082	0.144520	0.210839
	H7195	H	0.601991	0.360533	0.210711
	H7196	H	0.539505	0.643454	0.148344
	H7197	H	0.588005	0.645219	0.148290
	H7198	H	0.587920	0.862225	0.148350
	H7199	H	0.539626	0.861057	0.148350
	H7200	H	0.602177	0.645321	0.162378
	H7201	H	0.602108	0.862062	0.162444
	H7202	H	0.587831	0.644069	0.224881
	H7203	H	0.587999	0.860817	0.225050
	H7204	H	0.563564	0.441444	0.123988
	H7205	H	0.565729	0.440990	0.249205
	H7206	H	0.563781	0.441075	0.123940
	H7207	H	0.563910	0.441117	0.124027
	H7208	H	0.562785	0.441155	0.247456
	H7209	H	0.564458	0.441657	0.247305
	H7210	H	0.565750	0.564536	0.249191
	H7211	H	0.563632	0.564542	0.123996
	H7212	H	0.564361	0.564299	0.247309
	H7213	H	0.562674	0.564465	0.247482
	H7214	H	0.563916	0.564196	0.124048
	H7215	H	0.563809	0.564826	0.123953
	H7216	H	0.587945	0.144873	0.224998
	H7217	H	0.587892	0.360425	0.224908
	H7218	H	0.563021	0.064670	0.124963
	H7219	H	0.563866	0.064683	0.125265
	H7220	H	0.562684	0.064720	0.123701
	H7221	H	0.539644	0.860423	0.224945
	H7222	H	0.539620	0.644208	0.225007
	H7223	H	0.539566	0.360544	0.225076
	H7224	H	0.539519	0.144772	0.225091
	H7225	H	0.539669	0.144461	0.148303
	H7226	H	0.587947	0.146259	0.148286
	H7227	H	0.587863	0.362303	0.148317
	H7228	H	0.539604	0.360445	0.148245
	H7229	H	0.602113	0.146042	0.162391
	H7230	H	0.602051	0.362741	0.162468
	H7231	H	0.562608	0.064369	0.249230
	H7232	H	0.563033	0.064239	0.250032
	H7233	H	0.564354	0.064694	0.250210
	H7234	H	0.563857	0.941579	0.125224
	H7235	H	0.562945	0.941333	0.124955
	H7236	H	0.562634	0.940925	0.123671
	H7237	H	0.562642	0.940911	0.249153
	H7238	H	0.563052	0.940928	0.250034
	H7239	H	0.564371	0.941460	0.250071
	Zn7240	Zn	0.501216	0.679999	0.186689
	Zn7241	Zn	0.501314	0.825517	0.186668
	Zn7242	Zn	0.501222	0.180022	0.186650
	Zn7243	Zn	0.501323	0.325622	0.186625
	Zn7244	Zn	0.563740	0.680139	0.249256
	Zn7245	Zn	0.563786	0.825548	0.249127
	Zn7246	Zn	0.563792	0.180162	0.249254
	Zn7247	Zn	0.563846	0.325445	0.249171
	C7248	C	0.611492	0.753357	0.171793
	C7249	C	0.516078	0.752603	0.201497
	C7250	C	0.524604	0.752486	0.209996
	C7251	C	0.528621	0.691225	0.213991
	C7252	C	0.528623	0.813627	0.213958
	C7253	C	0.516105	0.252859	0.201475
	C7254	C	0.524592	0.252847	0.210013
	C7255	C	0.528556	0.191857	0.214043
	C7256	C	0.528595	0.313761	0.214025
	C7257	C	0.516116	0.752606	0.171901
	C7258	C	0.524599	0.752493	0.163370
	C7259	C	0.528647	0.814020	0.159371
	C7260	C	0.528538	0.690823	0.159348
	C7261	C	0.516102	0.252498	0.171822
	C7262	C	0.524642	0.252498	0.163324
	C7263	C	0.528637	0.313630	0.159305
	C7264	C	0.528654	0.191302	0.159316
	C7265	C	0.626143	0.042801	0.186890
	C7266	C	0.626160	0.962267	0.186929
	C7267	C	0.502187	0.043211	0.184573
	C7268	C	0.502209	0.962406	0.184561
	C7269	C	0.499022	0.043191	0.186919
	C7270	C	0.499046	0.962380	0.186947
	C7271	C	0.500979	0.462604	0.186053
	C7272	C	0.625204	0.462506	0.186366
	C7273	C	0.627057	0.462380	0.185960
	C7274	C	0.500941	0.543134	0.186075
	C7275	C	0.627026	0.543177	0.185917
	C7276	C	0.625179	0.543030	0.186333
	C7277	C	0.611461	0.752605	0.201465
	C7278	C	0.611437	0.252512	0.201460
	C7279	C	0.602890	0.752417	0.209925
	C7280	C	0.598831	0.691163	0.213871
	C7281	C	0.598920	0.813667	0.213965
	C7282	C	0.602919	0.252464	0.209969
	C7283	C	0.598924	0.191501	0.213979
	C7284	C	0.598888	0.313569	0.213916
	C7285	C	0.611445	0.253942	0.171821
	C7286	C	0.578543	0.753540	0.138964
	C7287	C	0.548876	0.752266	0.138908
	C7288	C	0.548996	0.752270	0.234335
	C7289	C	0.599020	0.692438	0.159246
	C7290	C	0.598975	0.815028	0.159291
	C7291	C	0.587096	0.753736	0.147456
	C7292	C	0.540374	0.752263	0.147433
	C7293	C	0.536359	0.690856	0.151469
	C7294	C	0.591151	0.692390	0.151415
	C7295	C	0.591095	0.815043	0.151461
	C7296	C	0.536444	0.813813	0.151473
	C7297	C	0.602980	0.753714	0.163285
	C7298	C	0.578595	0.752549	0.234372
	C7299	C	0.590996	0.691186	0.221736
	C7300	C	0.591084	0.813737	0.221831
	C7301	C	0.587057	0.752484	0.225795
	C7302	C	0.564973	0.462225	0.249751
	C7303	C	0.563805	0.462479	0.123997
	C7304	C	0.563650	0.462559	0.247865
	C7305	C	0.564963	0.543137	0.249774
	C7306	C	0.563589	0.543035	0.247880
	C7307	C	0.563833	0.543420	0.124028
	C7308	C	0.578566	0.252659	0.234352
	C7309	C	0.591078	0.191635	0.221837
	C7310	C	0.591049	0.313593	0.221779
	C7311	C	0.587066	0.252646	0.225825
	C7312	C	0.563508	0.043401	0.124873
	C7313	C	0.578512	0.254011	0.138971
	C7314	C	0.548978	0.252453	0.138928
	C7315	C	0.548915	0.252797	0.234442
	C7316	C	0.598937	0.193152	0.159307
	C7317	C	0.598890	0.315622	0.159341
	C7318	C	0.587032	0.254272	0.147491
	C7319	C	0.540486	0.252476	0.147467
	C7320	C	0.540487	0.752292	0.225816
	C7321	C	0.536478	0.813502	0.221810
	C7322	C	0.536477	0.691106	0.221842
	C7323	C	0.540401	0.252630	0.225913
	C7324	C	0.536429	0.313691	0.221904
	C7325	C	0.536408	0.191653	0.221899
	C7326	C	0.536498	0.191235	0.151447
	C7327	C	0.591081	0.193152	0.151463
	C7328	C	0.591039	0.315522	0.151475
	C7329	C	0.536470	0.313655	0.151433
	C7330	C	0.602922	0.254348	0.163312
	C7331	C	0.563073	0.043095	0.249516
	C7332	C	0.563224	0.043159	0.123591
	C7333	C	0.563486	0.962687	0.124830
	C7334	C	0.563085	0.962199	0.249489
	C7335	C	0.563194	0.962341	0.123557
	N7336	N	0.501276	0.070058	0.186657
	N7337	N	0.501318	0.935652	0.186688
	N7338	N	0.501348	0.435515	0.186654
	N7339	N	0.501311	0.569890	0.186681
	N7340	N	0.563774	0.435557	0.249216
	N7341	N	0.563741	0.570032	0.249260
	N7342	N	0.563758	0.070048	0.249197
	N7343	N	0.563741	0.935593	0.249119
	O7344	O	0.614937	0.695698	0.299981
	O7345	O	0.614851	0.811348	0.300127
	O7346	O	0.512899	0.694978	0.323120
	O7347	O	0.512720	0.810987	0.323171
	O7348	O	0.512792	0.195293	0.323158
	O7349	O	0.512697	0.311258	0.323249
	O7350	O	0.512833	0.695234	0.300214
	O7351	O	0.512807	0.811229	0.300146
	O7352	O	0.512839	0.195256	0.300183
	O7353	O	0.512825	0.311107	0.300136
	O7354	O	0.614864	0.694382	0.323116
	O7355	O	0.614836	0.810278	0.323099
	O7356	O	0.614848	0.194122	0.323063
	O7357	O	0.614804	0.309903	0.323005
	O7358	O	0.614850	0.195201	0.300023
	O7359	O	0.614900	0.310958	0.300036
	O7360	O	0.575346	0.695524	0.260646
	O7361	O	0.552120	0.695230	0.260663
	O7362	O	0.575369	0.694849	0.362558
	O7363	O	0.575396	0.810753	0.362557
	O7364	O	0.552326	0.695173	0.362549
	O7365	O	0.552296	0.811298	0.362571
	O7366	O	0.552256	0.811198	0.260676
	O7367	O	0.575222	0.811335	0.260777
	O7368	O	0.575282	0.195011	0.260768
	O7369	O	0.552297	0.195130	0.260763
	O7370	O	0.575442	0.194407	0.362580
	O7371	O	0.575336	0.310266	0.362425
	O7372	O	0.552308	0.195275	0.362561
	O7373	O	0.552348	0.311209	0.362570
	O7374	O	0.552211	0.310827	0.260633
	O7375	O	0.575415	0.310916	0.260605
	H7376	H	0.525587	0.644656	0.335726
	H7377	H	0.525461	0.861840	0.335720
	H7378	H	0.525448	0.144928	0.335777
	H7379	H	0.525438	0.361796	0.335852
	H7380	H	0.525562	0.861844	0.287613
	H7381	H	0.525424	0.644929	0.287537
	H7382	H	0.525458	0.360911	0.287535
	H7383	H	0.525423	0.144873	0.287424
	H7384	H	0.626961	0.064168	0.309789
	H7385	H	0.625380	0.064492	0.309920
	H7386	H	0.625385	0.940953	0.309927
	H7387	H	0.627003	0.941231	0.309742
	H7388	H	0.628261	0.063920	0.311587
	H7389	H	0.628312	0.941152	0.311616
	H7390	H	0.500986	0.064631	0.312285
	H7391	H	0.500940	0.941029	0.312286
	H7392	H	0.501575	0.064375	0.312280
	H7393	H	0.501538	0.941218	0.312237
	H7394	H	0.501986	0.064156	0.311573
	H7395	H	0.501915	0.941532	0.311541
	H7396	H	0.504346	0.441044	0.311156
	H7397	H	0.502930	0.441420	0.309017
	H7398	H	0.502713	0.440819	0.314404
	H7399	H	0.625910	0.441725	0.312692
	H7400	H	0.625165	0.441394	0.311595
	H7401	H	0.625619	0.441047	0.310693
	H7402	H	0.502892	0.564161	0.308984
	H7403	H	0.504321	0.564453	0.311191
	H7404	H	0.625604	0.564349	0.310680
	H7405	H	0.625247	0.564249	0.311529
	H7406	H	0.625886	0.564483	0.312723
	H7407	H	0.502717	0.564633	0.314373
	H7408	H	0.602158	0.643865	0.335755
	H7409	H	0.602175	0.861324	0.335743
	H7410	H	0.602313	0.144068	0.335842
	H7411	H	0.602078	0.360160	0.335592
	H7412	H	0.539555	0.644825	0.273364
	H7413	H	0.587931	0.645636	0.273359
	H7414	H	0.588020	0.861393	0.273304
	H7415	H	0.539692	0.861832	0.273453
	H7416	H	0.602154	0.645392	0.287425
	H7417	H	0.602248	0.861729	0.287380
	H7418	H	0.587982	0.644099	0.349869
	H7419	H	0.588040	0.861221	0.349876
	H7420	H	0.565048	0.440951	0.250697
	H7421	H	0.566345	0.441020	0.376198
	H7422	H	0.562776	0.440843	0.250917
	H7423	H	0.561761	0.440938	0.249545
	H7424	H	0.564550	0.441107	0.370997
	H7425	H	0.566707	0.440941	0.372536
	H7426	H	0.566327	0.564603	0.376155
	H7427	H	0.565094	0.564452	0.250764
	H7428	H	0.566695	0.564157	0.372540
	H7429	H	0.564565	0.563981	0.370986
	H7430	H	0.561721	0.563816	0.249669
	H7431	H	0.562745	0.564138	0.251008
	H7432	H	0.588113	0.144351	0.349973
	H7433	H	0.587907	0.360302	0.349712
	H7434	H	0.564300	0.064600	0.248139
	H7435	H	0.563318	0.064399	0.248130
	H7436	H	0.564913	0.064764	0.249334
	H7437	H	0.539634	0.861898	0.349886
	H7438	H	0.539727	0.644759	0.349870
	H7439	H	0.539632	0.361923	0.349956
	H7440	H	0.539614	0.144696	0.349870
	H7441	H	0.539592	0.145095	0.273297
	H7442	H	0.587954	0.144802	0.273344
	H7443	H	0.588019	0.361343	0.273296
	H7444	H	0.539594	0.361095	0.273381
	H7445	H	0.602150	0.144943	0.287463
	H7446	H	0.602209	0.361314	0.287397
	H7447	H	0.563367	0.064586	0.373514
	H7448	H	0.563153	0.064194	0.374094
	H7449	H	0.563665	0.064217	0.374785
	H7450	H	0.563288	0.941622	0.248061
	H7451	H	0.564236	0.941568	0.248153
	H7452	H	0.564819	0.941576	0.249283
	H7453	H	0.563337	0.941050	0.373590
	H7454	H	0.563119	0.941191	0.374188
	H7455	H	0.563672	0.941045	0.374812
	Zn7456	Zn	0.501269	0.679879	0.311680
	Zn7457	Zn	0.501184	0.825809	0.311617
	Zn7458	Zn	0.501290	0.179822	0.311672
	Zn7459	Zn	0.501224	0.325576	0.311612
	Zn7460	Zn	0.563852	0.679837	0.374090
	Zn7461	Zn	0.563859	0.825492	0.374121
	Zn7462	Zn	0.563831	0.179897	0.374051
	Zn7463	Zn	0.563896	0.325371	0.374072
	C7464	C	0.611609	0.753548	0.296757
	C7465	C	0.516095	0.753113	0.326422
	C7466	C	0.524649	0.753196	0.334907
	C7467	C	0.528708	0.691837	0.338883
	C7468	C	0.528643	0.814721	0.338875
	C7469	C	0.516010	0.253312	0.326509
	C7470	C	0.524522	0.253328	0.335022
	C7471	C	0.528571	0.192028	0.338963
	C7472	C	0.528565	0.314692	0.339002
	C7473	C	0.516102	0.753227	0.296905
	C7474	C	0.524596	0.753326	0.288364
	C7475	C	0.528654	0.814738	0.284405
	C7476	C	0.528578	0.691951	0.284367
	C7477	C	0.516131	0.253139	0.296901
	C7478	C	0.524642	0.252979	0.288386
	C7479	C	0.528623	0.314094	0.284387
	C7480	C	0.528599	0.191823	0.284331
	C7481	C	0.626212	0.043158	0.310310
	C7482	C	0.626238	0.962388	0.310303
	C7483	C	0.501252	0.043336	0.312100
	C7484	C	0.501259	0.962374	0.312096
	C7485	C	0.501654	0.043052	0.311381
	C7486	C	0.501636	0.962400	0.311382
	C7487	C	0.503013	0.462415	0.310480
	C7488	C	0.626422	0.462607	0.312415
	C7489	C	0.625634	0.462350	0.311265
	C7490	C	0.503009	0.542975	0.310487
	C7491	C	0.625648	0.543168	0.311255
	C7492	C	0.626397	0.543146	0.312400
	C7493	C	0.611548	0.752357	0.326376
	C7494	C	0.611546	0.252019	0.326318
	C7495	C	0.603022	0.752483	0.334857
	C7496	C	0.599007	0.691117	0.338872
	C7497	C	0.599025	0.813998	0.338866
	C7498	C	0.603049	0.252102	0.334851
	C7499	C	0.599101	0.191134	0.338921
	C7500	C	0.598980	0.313224	0.338781
	C7501	C	0.611572	0.253137	0.296769
	C7502	C	0.578584	0.753401	0.263990
	C7503	C	0.548917	0.753355	0.263955
	C7504	C	0.549026	0.753229	0.359276
	C7505	C	0.599005	0.692468	0.284315
	C7506	C	0.599063	0.814646	0.284302
	C7507	C	0.587114	0.753527	0.272506
	C7508	C	0.540406	0.753375	0.272473
	C7509	C	0.536407	0.692029	0.276500
	C7510	C	0.591116	0.692515	0.276490
	C7511	C	0.591171	0.814560	0.276476
	C7512	C	0.536482	0.814767	0.276536
	C7513	C	0.603053	0.753543	0.288296
	C7514	C	0.578660	0.752755	0.359247
	C7515	C	0.591148	0.691219	0.346717
	C7516	C	0.591182	0.814057	0.346722
	C7517	C	0.587167	0.752643	0.350712
	C7518	C	0.564817	0.462349	0.376040
	C7519	C	0.562668	0.462300	0.249964
	C7520	C	0.565190	0.462078	0.372386
	C7521	C	0.564815	0.543177	0.376020
	C7522	C	0.565200	0.542896	0.372382
	C7523	C	0.562635	0.543023	0.250018
	C7524	C	0.578705	0.252324	0.359243
	C7525	C	0.591247	0.191121	0.346768
	C7526	C	0.591121	0.313396	0.346624
	C7527	C	0.587218	0.252304	0.350719
	C7528	C	0.563785	0.043156	0.248400
	C7529	C	0.578614	0.252992	0.263978
	C7530	C	0.548971	0.253089	0.263994
	C7531	C	0.549003	0.253289	0.359315
	C7532	C	0.598998	0.191915	0.284319
	C7533	C	0.599025	0.314349	0.284293
	C7534	C	0.587116	0.253060	0.272506
	C7535	C	0.540468	0.253158	0.272531
	C7536	C	0.540522	0.753285	0.350748
	C7537	C	0.536501	0.814661	0.346733
	C7538	C	0.536562	0.691954	0.346730
	C7539	C	0.540450	0.253272	0.350825
	C7540	C	0.536447	0.314705	0.346835
	C7541	C	0.536442	0.191961	0.346794
	C7542	C	0.536451	0.191971	0.276482
	C7543	C	0.591123	0.191824	0.276484
	C7544	C	0.591160	0.314327	0.276454
	C7545	C	0.536468	0.314168	0.276533
	C7546	C	0.603017	0.253133	0.288291
	C7547	C	0.563402	0.043199	0.373884
	C7548	C	0.564393	0.043464	0.249605
	C7549	C	0.563770	0.962701	0.248383
	C7550	C	0.563405	0.962497	0.373930
	C7551	C	0.564377	0.962663	0.249545
	N7552	N	0.501269	0.070021	0.311616
	N7553	N	0.501224	0.935671	0.311622
	N7554	N	0.501223	0.435479	0.311616
	N7555	N	0.501255	0.569855	0.311649
	N7556	N	0.563947	0.435380	0.374078
	N7557	N	0.563972	0.569800	0.374081
	N7558	N	0.563867	0.069896	0.374075
	N7559	N	0.563871	0.935526	0.374128
	O7560	O	0.614846	0.694384	0.424983
	O7561	O	0.614867	0.810200	0.425025
	O7562	O	0.512855	0.694971	0.448128
	O7563	O	0.512827	0.810744	0.448152
	O7564	O	0.512800	0.194924	0.448160
	O7565	O	0.512829	0.310943	0.448128
	O7566	O	0.512840	0.695103	0.425057
	O7567	O	0.512874	0.810875	0.425105
	O7568	O	0.512916	0.194920	0.425005
	O7569	O	0.512912	0.310932	0.425053
	O7570	O	0.614853	0.694630	0.448035
	O7571	O	0.614802	0.810488	0.447970
	O7572	O	0.614806	0.194872	0.448003
	O7573	O	0.614818	0.310560	0.447996
	O7574	O	0.614842	0.194523	0.425023
	O7575	O	0.614865	0.310358	0.425005
	O7576	O	0.575372	0.694762	0.385610
	O7577	O	0.552294	0.695134	0.385599
	O7578	O	0.575407	0.694330	0.487540
	O7579	O	0.575408	0.810391	0.487553
	O7580	O	0.552350	0.694913	0.487576
	O7581	O	0.552382	0.810770	0.487596
	O7582	O	0.552342	0.810832	0.385628
	O7583	O	0.575406	0.810637	0.385607
	O7584	O	0.575360	0.194979	0.385628
	O7585	O	0.552307	0.195515	0.385500
	O7586	O	0.575459	0.194689	0.487598
	O7587	O	0.575419	0.310578	0.487541
	O7588	O	0.552343	0.194946	0.487553
	O7589	O	0.552434	0.310853	0.487487
	O7590	O	0.552305	0.311124	0.385557
	O7591	O	0.575434	0.310621	0.385538
	H7592	H	0.525556	0.644789	0.460751
	H7593	H	0.525575	0.861022	0.460761
	H7594	H	0.525447	0.144561	0.460812
	H7595	H	0.525495	0.361437	0.460783
	H7596	H	0.525574	0.861286	0.412505
	H7597	H	0.525437	0.644758	0.412373
	H7598	H	0.525624	0.361353	0.412458
	H7599	H	0.525513	0.145259	0.412329
	H7600	H	0.626353	0.064887	0.438176
	H7601	H	0.627646	0.064638	0.437592
	H7602	H	0.627643	0.941388	0.437589
	H7603	H	0.626363	0.940934	0.438168
	H7604	H	0.624697	0.064466	0.437063
	H7605	H	0.624774	0.940929	0.437088
	H7606	H	0.503842	0.063916	0.438041
	H7607	H	0.503814	0.941230	0.438071
	H7608	H	0.504054	0.064296	0.435616
	H7609	H	0.504052	0.941111	0.435676
	H7610	H	0.501368	0.064556	0.433705
	H7611	H	0.501331	0.940960	0.433737
	H7612	H	0.501627	0.440949	0.436426
	H7613	H	0.501379	0.441201	0.436277
	H7614	H	0.501620	0.441110	0.436773
	H7615	H	0.626630	0.441053	0.434963
	H7616	H	0.627961	0.441143	0.436259
	H7617	H	0.627610	0.441234	0.437578
	H7618	H	0.501424	0.564298	0.436239
	H7619	H	0.501690	0.564583	0.436372
	H7620	H	0.627573	0.564246	0.437541
	H7621	H	0.627944	0.564793	0.436290
	H7622	H	0.626648	0.564610	0.435017
	H7623	H	0.501663	0.564368	0.436804
	H7624	H	0.602130	0.644051	0.460615
	H7625	H	0.602106	0.860880	0.460614
	H7626	H	0.602108	0.144355	0.460655
	H7627	H	0.602147	0.360817	0.460658
	H7628	H	0.539595	0.644808	0.398239
	H7629	H	0.587974	0.644475	0.398258
	H7630	H	0.588099	0.860752	0.398191
	H7631	H	0.539726	0.861204	0.398357
	H7632	H	0.602168	0.644385	0.412382
	H7633	H	0.602253	0.860727	0.412326
	H7634	H	0.588032	0.644016	0.474819
	H7635	H	0.588030	0.860942	0.474815
	H7636	H	0.563886	0.441018	0.377269
	H7637	H	0.563396	0.441164	0.499975
	H7638	H	0.560965	0.441151	0.375098
	H7639	H	0.561280	0.440941	0.372464
	H7640	H	0.564917	0.441313	0.499104
	H7641	H	0.564557	0.440955	0.499860
	H7642	H	0.563373	0.564331	0.500018
	H7643	H	0.563925	0.564626	0.377238
	H7644	H	0.564611	0.564405	0.499933
	H7645	H	0.565022	0.564095	0.499087
	H7646	H	0.561248	0.563567	0.372480
	H7647	H	0.561016	0.564315	0.375120
	H7648	H	0.587996	0.144677	0.474854
	H7649	H	0.588041	0.360941	0.474846
	H7650	H	0.564544	0.064101	0.373908
	H7651	H	0.564165	0.064284	0.373436
	H7652	H	0.564261	0.064127	0.374696
	H7653	H	0.539720	0.861103	0.474893
	H7654	H	0.539698	0.644689	0.474885
	H7655	H	0.539712	0.361253	0.474894
	H7656	H	0.539680	0.144515	0.474909
	H7657	H	0.539627	0.145171	0.398141
	H7658	H	0.587990	0.144689	0.398277
	H7659	H	0.588073	0.360610	0.398247
	H7660	H	0.539717	0.361338	0.398263
	H7661	H	0.602148	0.144425	0.412411
	H7662	H	0.602232	0.360637	0.412392
	H7663	H	0.565289	0.064754	0.498544
	H7664	H	0.564430	0.064078	0.497654
	H7665	H	0.562725	0.064271	0.498132
	H7666	H	0.564210	0.941173	0.373457
	H7667	H	0.564583	0.941087	0.373972
	H7668	H	0.564273	0.940821	0.374735
	H7669	H	0.565317	0.940989	0.498544
	H7670	H	0.564392	0.941179	0.497694
	H7671	H	0.562735	0.941180	0.498157
	Zn7672	Zn	0.501370	0.679873	0.436578
	Zn7673	Zn	0.501317	0.825494	0.436609
	Zn7674	Zn	0.501363	0.180002	0.436556
	Zn7675	Zn	0.501328	0.325398	0.436552
	Zn7676	Zn	0.563866	0.679924	0.499109
	Zn7677	Zn	0.563889	0.825554	0.499134
	Zn7678	Zn	0.563885	0.179874	0.499033
	Zn7679	Zn	0.563901	0.325363	0.499051
	C7680	C	0.611573	0.752346	0.421717
	C7681	C	0.516143	0.752862	0.451407
	C7682	C	0.524692	0.752948	0.459880
	C7683	C	0.528693	0.691751	0.463880
	C7684	C	0.528708	0.814043	0.463888
	C7685	C	0.516118	0.252947	0.451412
	C7686	C	0.524671	0.252942	0.459905
	C7687	C	0.528650	0.191621	0.463924
	C7688	C	0.528673	0.314243	0.463914
	C7689	C	0.516127	0.753032	0.421780
	C7690	C	0.524603	0.753035	0.413241
	C7691	C	0.528658	0.814226	0.409294
	C7692	C	0.528588	0.691799	0.409226
	C7693	C	0.516207	0.253035	0.421762
	C7694	C	0.524706	0.253227	0.413237
	C7695	C	0.528720	0.314421	0.409260
	C7696	C	0.528674	0.192120	0.409199
	C7697	C	0.626838	0.043330	0.437513
	C7698	C	0.626846	0.962432	0.437513
	C7699	C	0.503243	0.043067	0.436777
	C7700	C	0.503232	0.962393	0.436803
	C7701	C	0.500522	0.043077	0.434836
	C7702	C	0.500527	0.962359	0.434862
	C7703	C	0.501476	0.462303	0.436416
	C7704	C	0.626120	0.462449	0.435529
	C7705	C	0.627412	0.462566	0.436814
	C7706	C	0.501495	0.543210	0.436390
	C7707	C	0.627392	0.543320	0.436814
	C7708	C	0.626141	0.543099	0.435536
	C7709	C	0.611535	0.752556	0.451282
	C7710	C	0.611535	0.252687	0.451297
	C7711	C	0.602970	0.752565	0.459760
	C7712	C	0.598982	0.691213	0.463768
	C7713	C	0.598984	0.813823	0.463786
	C7714	C	0.603043	0.252609	0.459843
	C7715	C	0.599000	0.191453	0.463832
	C7716	C	0.599039	0.313870	0.463841
	C7717	C	0.611559	0.252466	0.421731
	C7718	C	0.578687	0.752644	0.388869
	C7719	C	0.549004	0.753010	0.388889
	C7720	C	0.549091	0.752870	0.484278
	C7721	C	0.599014	0.691375	0.409235
	C7722	C	0.599080	0.813711	0.409205
	C7723	C	0.587214	0.752621	0.397373
	C7724	C	0.540461	0.752999	0.397386
	C7725	C	0.536445	0.691795	0.401378
	C7726	C	0.591150	0.691410	0.401392
	C7727	C	0.591225	0.813785	0.401354
	C7728	C	0.536514	0.814209	0.401447
	C7729	C	0.603052	0.752491	0.413212
	C7730	C	0.578678	0.752396	0.484240
	C7731	C	0.591151	0.691180	0.471649
	C7732	C	0.591154	0.813845	0.471657
	C7733	C	0.587147	0.752547	0.475671
	C7734	C	0.563355	0.462268	0.499483
	C7735	C	0.561863	0.462289	0.373883
	C7736	C	0.564540	0.462409	0.499392
	C7737	C	0.563329	0.542957	0.499517
	C7738	C	0.564568	0.543159	0.499408
	C7739	C	0.561876	0.542871	0.373887
	C7740	C	0.578710	0.252652	0.484275
	C7741	C	0.591177	0.191557	0.471718
	C7742	C	0.591215	0.313895	0.471723
	C7743	C	0.587204	0.252735	0.475734
	C7744	C	0.564231	0.042893	0.373782
	C7745	C	0.578697	0.252817	0.388857
	C7746	C	0.549029	0.253285	0.388830
	C7747	C	0.549095	0.252913	0.484236
	C7748	C	0.599017	0.191393	0.409254
	C7749	C	0.599066	0.313631	0.409227
	C7750	C	0.587197	0.252729	0.397370
	C7751	C	0.540519	0.253205	0.397350
	C7752	C	0.540580	0.752960	0.475734
	C7753	C	0.536577	0.814109	0.471729
	C7754	C	0.536553	0.691709	0.471733
	C7755	C	0.540580	0.252865	0.475722
	C7756	C	0.536573	0.314164	0.471735
	C7757	C	0.536549	0.191595	0.471744
	C7758	C	0.536502	0.192100	0.401325
	C7759	C	0.591167	0.191625	0.401397
	C7760	C	0.591213	0.313631	0.401377
	C7761	C	0.536549	0.314346	0.401385
	C7762	C	0.603037	0.252543	0.413224
	C7763	C	0.564606	0.043162	0.498353
	C7764	C	0.563923	0.042921	0.374572
	C7765	C	0.564252	0.962292	0.373804
	C7766	C	0.564610	0.962376	0.498375
	C7767	C	0.563930	0.962065	0.374598
	N7768	N	0.501349	0.070015	0.436575
	N7769	N	0.501336	0.935573	0.436612
	N7770	N	0.501356	0.435410	0.436605
	N7771	N	0.501375	0.569793	0.436597
	N7772	N	0.563899	0.435534	0.499080
	N7773	N	0.563904	0.569952	0.499098
	N7774	N	0.563876	0.069905	0.499062
	N7775	N	0.563903	0.935528	0.499072
	O7776	O	0.614837	0.695159	0.550083
	O7777	O	0.614874	0.810707	0.550049
	O7778	O	0.512962	0.695246	0.573198
	O7779	O	0.512953	0.810960	0.573213
	O7780	O	0.512986	0.194947	0.573130
	O7781	O	0.512934	0.310660	0.573212
	O7782	O	0.513003	0.694894	0.550170
	O7783	O	0.512916	0.810633	0.550121
	O7784	O	0.512991	0.195351	0.550113
	O7785	O	0.512940	0.311260	0.550097
	O7786	O	0.614807	0.694692	0.573053
	O7787	O	0.614839	0.810647	0.573159
	O7788	O	0.614770	0.194508	0.573106
	O7789	O	0.614733	0.310504	0.573130
	O7790	O	0.614816	0.194623	0.550014
	O7791	O	0.614730	0.310635	0.550128
	O7792	O	0.575309	0.695028	0.510702
	O7793	O	0.552365	0.695055	0.510626
	O7794	O	0.575461	0.694670	0.612713
	O7795	O	0.575392	0.810507	0.612584
	O7796	O	0.552328	0.695079	0.612681
	O7797	O	0.552454	0.810853	0.612573
	O7798	O	0.552349	0.810833	0.510599
	O7799	O	0.575430	0.810920	0.510579
	O7800	O	0.575428	0.194797	0.510505
	O7801	O	0.552323	0.195165	0.510533
	O7802	O	0.575317	0.194719	0.612622
	O7803	O	0.575392	0.310358	0.612630
	O7804	O	0.552301	0.195168	0.612714
	O7805	O	0.552363	0.310827	0.612683
	O7806	O	0.552408	0.311118	0.510608
	O7807	O	0.575375	0.310811	0.510598
	H7808	H	0.525612	0.645110	0.585789
	H7809	H	0.525616	0.861144	0.585859
	H7810	H	0.525536	0.145195	0.585867
	H7811	H	0.525489	0.360625	0.585909
	H7812	H	0.525572	0.860878	0.537481
	H7813	H	0.525604	0.644810	0.537431
	H7814	H	0.525568	0.361666	0.537397
	H7815	H	0.525584	0.144863	0.537450
	H7816	H	0.626416	0.064128	0.560192
	H7817	H	0.625316	0.064299	0.560635
	H7818	H	0.625253	0.941293	0.560679
	H7819	H	0.626304	0.941496	0.560235
	H7820	H	0.627674	0.064804	0.561152
	H7821	H	0.627642	0.940919	0.561187
	H7822	H	0.500285	0.064537	0.560990
	H7823	H	0.500314	0.940954	0.560964
	H7824	H	0.500244	0.064097	0.562104
	H7825	H	0.500191	0.941198	0.562045
	H7826	H	0.501496	0.064557	0.562930
	H7827	H	0.501438	0.941456	0.562928
	H7828	H	0.499777	0.441137	0.561666
	H7829	H	0.500409	0.441158	0.562925
	H7830	H	0.500864	0.441181	0.560159
	H7831	H	0.624166	0.441539	0.564304
	H7832	H	0.623044	0.441411	0.560560
	H7833	H	0.625023	0.441154	0.558460
	H7834	H	0.500428	0.564844	0.562832
	H7835	H	0.499856	0.564476	0.561685
	H7836	H	0.625084	0.564530	0.558432
	H7837	H	0.623065	0.564363	0.560520
	H7838	H	0.624229	0.564851	0.564292
	H7839	H	0.500852	0.563944	0.560169
	H7840	H	0.602191	0.644229	0.585797
	H7841	H	0.602226	0.860717	0.585840
	H7842	H	0.602131	0.144399	0.585773
	H7843	H	0.602208	0.360003	0.585841
	H7844	H	0.539731	0.645177	0.523267
	H7845	H	0.588028	0.644982	0.523331
	H7846	H	0.588031	0.860947	0.523269
	H7847	H	0.539699	0.860940	0.523300
	H7848	H	0.602206	0.645049	0.537421
	H7849	H	0.602224	0.860811	0.537360
	H7850	H	0.588034	0.644305	0.599962
	H7851	H	0.588084	0.860654	0.599993
	H7852	H	0.562911	0.441113	0.499271
	H7853	H	0.565001	0.441743	0.625620
	H7854	H	0.563423	0.440877	0.498229
	H7855	H	0.564274	0.441100	0.498141
	H7856	H	0.564625	0.441333	0.622502
	H7857	H	0.565632	0.441808	0.623627
	H7858	H	0.564976	0.564721	0.625666
	H7859	H	0.562848	0.564299	0.499252
	H7860	H	0.565698	0.565039	0.623642
	H7861	H	0.564663	0.564593	0.622465
	H7862	H	0.564276	0.564032	0.498099
	H7863	H	0.563365	0.563857	0.498140
	H7864	H	0.588020	0.144191	0.599974
	H7865	H	0.588086	0.359923	0.600005
	H7866	H	0.563646	0.064129	0.500581
	H7867	H	0.564881	0.064602	0.500187
	H7868	H	0.562417	0.064433	0.499299
	H7869	H	0.539780	0.860935	0.599991
	H7870	H	0.539734	0.645009	0.599945
	H7871	H	0.539598	0.360796	0.600111
	H7872	H	0.539631	0.145115	0.600062
	H7873	H	0.539709	0.144853	0.523295
	H7874	H	0.587977	0.143957	0.523268
	H7875	H	0.588021	0.361357	0.523236
	H7876	H	0.539679	0.361508	0.523188
	H7877	H	0.602057	0.144111	0.537488
	H7878	H	0.602091	0.361249	0.537420
	H7879	H	0.565051	0.064627	0.626218
	H7880	H	0.566202	0.064785	0.624560
	H7881	H	0.565014	0.064452	0.622105
	H7882	H	0.564916	0.941266	0.500186
	H7883	H	0.563743	0.941338	0.500584
	H7884	H	0.562445	0.941200	0.499378
	H7885	H	0.565118	0.941406	0.626182
	H7886	H	0.566268	0.941277	0.624579
	H7887	H	0.565070	0.941478	0.622065
	Zn7888	Zn	0.501450	0.679888	0.561654
	Zn7889	Zn	0.501424	0.825785	0.561676
	Zn7890	Zn	0.501505	0.180034	0.561591
	Zn7891	Zn	0.501479	0.325586	0.561631
	Zn7892	Zn	0.563843	0.680181	0.624176
	Zn7893	Zn	0.563928	0.825872	0.624145
	Zn7894	Zn	0.563865	0.180192	0.624200
	Zn7895	Zn	0.563944	0.325899	0.624170
	C7896	C	0.611573	0.752955	0.546779
	C7897	C	0.516250	0.753143	0.576482
	C7898	C	0.524772	0.753120	0.584963
	C7899	C	0.528762	0.692014	0.588952
	C7900	C	0.528782	0.814179	0.588977
	C7901	C	0.516261	0.252790	0.576441
	C7902	C	0.524765	0.252901	0.584961
	C7903	C	0.528712	0.191959	0.589003
	C7904	C	0.528695	0.313856	0.589025
	C7905	C	0.516243	0.752808	0.546869
	C7906	C	0.524712	0.752949	0.538300
	C7907	C	0.528685	0.814011	0.534288
	C7908	C	0.528702	0.691870	0.534262
	C7909	C	0.516257	0.253324	0.546838
	C7910	C	0.524792	0.253310	0.538318
	C7911	C	0.528738	0.314583	0.534258
	C7912	C	0.528745	0.191968	0.534290
	C7913	C	0.625972	0.042994	0.560730
	C7914	C	0.625945	0.962602	0.560753
	C7915	C	0.500570	0.043313	0.561572
	C7916	C	0.500558	0.962525	0.561568
	C7917	C	0.501845	0.043554	0.562391
	C7918	C	0.501823	0.962552	0.562411
	C7919	C	0.500450	0.462369	0.562124
	C7920	C	0.625755	0.462620	0.563823
	C7921	C	0.624632	0.462542	0.560043
	C7922	C	0.500482	0.543386	0.562123
	C7923	C	0.624646	0.543186	0.560027
	C7924	C	0.625795	0.543460	0.563823
	C7925	C	0.611555	0.752567	0.576414
	C7926	C	0.611487	0.252391	0.576417
	C7927	C	0.603035	0.752413	0.584941
	C7928	C	0.599029	0.691265	0.588938
	C7929	C	0.599055	0.813634	0.588956
	C7930	C	0.603031	0.252153	0.584999
	C7931	C	0.599015	0.191112	0.588976
	C7932	C	0.599064	0.313158	0.589006
	C7933	C	0.611498	0.252682	0.546772
	C7934	C	0.578667	0.752989	0.513911
	C7935	C	0.549072	0.753008	0.513898
	C7936	C	0.549112	0.752961	0.609332
	C7937	C	0.599059	0.691933	0.534274
	C7938	C	0.599063	0.813996	0.534233
	C7939	C	0.587194	0.752985	0.522416
	C7940	C	0.540539	0.753090	0.522401
	C7941	C	0.536547	0.691990	0.526393
	C7942	C	0.591185	0.691901	0.526442
	C7943	C	0.591187	0.814065	0.526404
	C7944	C	0.536535	0.814054	0.526426
	C7945	C	0.603070	0.753017	0.538258
	C7946	C	0.578733	0.752526	0.609382
	C7947	C	0.591187	0.691361	0.596804
	C7948	C	0.591212	0.813598	0.596822
	C7949	C	0.587220	0.752481	0.600846
	C7950	C	0.564133	0.462616	0.625367
	C7951	C	0.563854	0.462199	0.498414
	C7952	C	0.564825	0.462715	0.623353
	C7953	C	0.564108	0.543483	0.625388
	C7954	C	0.564840	0.543579	0.623351
	C7955	C	0.563856	0.542925	0.498403
	C7956	C	0.578654	0.252410	0.609353
	C7957	C	0.591183	0.191067	0.596849
	C7958	C	0.591231	0.313087	0.596878
	C7959	C	0.587202	0.252088	0.600872
	C7960	C	0.564177	0.043009	0.500035
	C7961	C	0.578683	0.252775	0.513835
	C7962	C	0.549094	0.253157	0.513871
	C7963	C	0.549068	0.253032	0.609386
	C7964	C	0.598982	0.191263	0.534262
	C7965	C	0.599004	0.314165	0.534231
	C7966	C	0.587183	0.252655	0.522344
	C7967	C	0.540617	0.253227	0.522427
	C7968	C	0.540624	0.752964	0.600804
	C7969	C	0.536637	0.814102	0.596821
	C7970	C	0.536612	0.691921	0.596806
	C7971	C	0.540592	0.253047	0.600846
	C7972	C	0.536531	0.313911	0.596895
	C7973	C	0.536545	0.192058	0.596875
	C7974	C	0.536596	0.191925	0.526439
	C7975	C	0.591148	0.191174	0.526389
	C7976	C	0.591174	0.314194	0.526358
	C7977	C	0.536587	0.314490	0.526394
	C7978	C	0.603015	0.252668	0.538229
	C7979	C	0.565186	0.043424	0.625066
	C7980	C	0.562924	0.043208	0.498823
	C7981	C	0.564213	0.962454	0.500038
	C7982	C	0.565211	0.962650	0.625061
	C7983	C	0.562950	0.962381	0.498863
	N7984	N	0.501463	0.070253	0.561621
	N7985	N	0.501449	0.935891	0.561635
	N7986	N	0.501423	0.435576	0.561658
	N7987	N	0.501440	0.569948	0.561659
	N7988	N	0.563900	0.435676	0.624150
	N7989	N	0.563892	0.570037	0.624166
	N7990	N	0.563857	0.070195	0.624171
	N7991	N	0.563896	0.935847	0.624166
	O7992	O	0.614938	0.695165	0.675026
	O7993	O	0.614914	0.811102	0.675125
	O7994	O	0.512907	0.694733	0.698170
	O7995	O	0.512864	0.810626	0.698267
	O7996	O	0.512901	0.194953	0.698148
	O7997	O	0.512883	0.310888	0.698208
	O7998	O	0.512937	0.695068	0.675227
	O7999	O	0.512822	0.811145	0.675165
	O8000	O	0.512879	0.195214	0.675079
	O8001	O	0.512896	0.311294	0.675117
	O8002	O	0.614898	0.695127	0.698124
	O8003	O	0.614982	0.810941	0.698180
	O8004	O	0.614915	0.195187	0.698148
	O8005	O	0.614969	0.311090	0.698156
	O8006	O	0.614920	0.195037	0.675093
	O8007	O	0.614890	0.310721	0.675098
	O8008	O	0.575392	0.695238	0.635684
	O8009	O	0.552276	0.695289	0.635676
	O8010	O	0.575529	0.694976	0.737617
	O8011	O	0.575434	0.811049	0.737590
	O8012	O	0.552424	0.694829	0.737594
	O8013	O	0.552467	0.810694	0.737527
	O8014	O	0.552352	0.811222	0.635733
	O8015	O	0.575304	0.811320	0.635788
	O8016	O	0.575401	0.194741	0.635708
	O8017	O	0.552421	0.195243	0.635773
	O8018	O	0.575397	0.195160	0.737498
	O8019	O	0.575458	0.311009	0.737645
	O8020	O	0.552432	0.194884	0.737565
	O8021	O	0.552284	0.310704	0.737666
	O8022	O	0.552461	0.311110	0.635766
	O8023	O	0.575472	0.310724	0.635688
	H8024	H	0.525521	0.644290	0.710932
	H8025	H	0.525539	0.860661	0.710862
	H8026	H	0.525597	0.144599	0.710793
	H8027	H	0.525623	0.361116	0.710727
	H8028	H	0.525480	0.861813	0.662451
	H8029	H	0.525625	0.644809	0.662676
	H8030	H	0.525528	0.361879	0.662451
	H8031	H	0.525474	0.144896	0.662424
	H8032	H	0.626368	0.064478	0.686163
	H8033	H	0.626059	0.064506	0.686399
	H8034	H	0.626090	0.941210	0.686398
	H8035	H	0.626377	0.941200	0.686174
	H8036	H	0.626879	0.064294	0.686389
	H8037	H	0.626846	0.941320	0.686431
	H8038	H	0.500600	0.064149	0.686557
	H8039	H	0.500614	0.941534	0.686596
	H8040	H	0.500796	0.064524	0.687065
	H8041	H	0.500766	0.941287	0.687193
	H8042	H	0.501574	0.064669	0.687303
	H8043	H	0.501569	0.941237	0.687347
	H8044	H	0.501479	0.441531	0.686179
	H8045	H	0.500996	0.441447	0.686212
	H8046	H	0.501857	0.441597	0.686594
	H8047	H	0.626450	0.441409	0.685845
	H8048	H	0.627037	0.441223	0.686331
	H8049	H	0.627015	0.441268	0.686867
	H8050	H	0.500984	0.564155	0.686257
	H8051	H	0.501405	0.564571	0.686164
	H8052	H	0.627028	0.564564	0.686882
	H8053	H	0.627065	0.564552	0.686340
	H8054	H	0.626410	0.564696	0.685898
	H8055	H	0.501777	0.564820	0.686643
	H8056	H	0.602245	0.644774	0.710761
	H8057	H	0.602306	0.861492	0.710855
	H8058	H	0.602348	0.145278	0.710836
	H8059	H	0.602172	0.361428	0.710730
	H8060	H	0.539781	0.644753	0.648509
	H8061	H	0.588034	0.644701	0.648323
	H8062	H	0.588048	0.861812	0.648379
	H8063	H	0.539637	0.861407	0.648319
	H8064	H	0.602214	0.644795	0.662435
	H8065	H	0.602238	0.861697	0.662492
	H8066	H	0.588078	0.644754	0.724860
	H8067	H	0.588104	0.861401	0.724956
	H8068	H	0.563490	0.441133	0.625933
	H8069	H	0.561272	0.441824	0.750310
	H8070	H	0.562060	0.441174	0.624337
	H8071	H	0.562558	0.441532	0.622880
	H8072	H	0.566288	0.441037	0.750838
	H8073	H	0.564151	0.441385	0.751982
	H8074	H	0.561321	0.564850	0.750294
	H8075	H	0.563416	0.564627	0.625968
	H8076	H	0.564152	0.564459	0.751998
	H8077	H	0.566270	0.564590	0.750827
	H8078	H	0.562548	0.564235	0.622857
	H8079	H	0.562027	0.564515	0.624338
	H8080	H	0.588167	0.145320	0.724979
	H8081	H	0.588006	0.361313	0.724852
	H8082	H	0.561427	0.064324	0.624192
	H8083	H	0.562300	0.064500	0.626053
	H8084	H	0.563031	0.064249	0.621959
	H8085	H	0.539709	0.860778	0.724938
	H8086	H	0.539736	0.644751	0.725029
	H8087	H	0.539719	0.360989	0.724904
	H8088	H	0.539711	0.144729	0.724966
	H8089	H	0.539679	0.144718	0.648318
	H8090	H	0.588068	0.144963	0.648371
	H8091	H	0.587984	0.360340	0.648435
	H8092	H	0.539732	0.362057	0.648350
	H8093	H	0.602225	0.145016	0.662514
	H8094	H	0.602132	0.360857	0.662576
	H8095	H	0.561959	0.064341	0.749040
	H8096	H	0.562611	0.064989	0.750540
	H8097	H	0.564871	0.064392	0.750751
	H8098	H	0.562360	0.941382	0.626019
	H8099	H	0.561500	0.941040	0.624218
	H8100	H	0.563037	0.941326	0.621880
	H8101	H	0.561980	0.941555	0.748970
	H8102	H	0.562601	0.941312	0.750516
	H8103	H	0.564814	0.941444	0.750763
	Zn8104	Zn	0.501334	0.679976	0.686686
	Zn8105	Zn	0.501323	0.825745	0.686753
	Zn8106	Zn	0.501387	0.180067	0.686619
	Zn8107	Zn	0.501362	0.325897	0.686695
	Zn8108	Zn	0.563964	0.680113	0.749127
	Zn8109	Zn	0.563894	0.825591	0.749111
	Zn8110	Zn	0.563963	0.180098	0.749100
	Zn8111	Zn	0.563896	0.325718	0.749139
	C8112	C	0.611622	0.753223	0.671802
	C8113	C	0.516175	0.752600	0.701502
	C8114	C	0.524705	0.752449	0.709999
	C8115	C	0.528709	0.691352	0.714025
	C8116	C	0.528704	0.813664	0.713984
	C8117	C	0.516176	0.252870	0.701454
	C8118	C	0.524709	0.252830	0.709970
	C8119	C	0.528715	0.191574	0.713969
	C8120	C	0.528735	0.314165	0.713928
	C8121	C	0.516160	0.753224	0.671919
	C8122	C	0.524665	0.753386	0.663388
	C8123	C	0.528644	0.814641	0.659338
	C8124	C	0.528724	0.691976	0.659472
	C8125	C	0.516179	0.253296	0.671819
	C8126	C	0.524705	0.253385	0.663320
	C8127	C	0.528708	0.314797	0.659317
	C8128	C	0.528680	0.191938	0.659304
	C8129	C	0.626266	0.043296	0.686368
	C8130	C	0.626286	0.962439	0.686377
	C8131	C	0.500847	0.043226	0.686799
	C8132	C	0.500846	0.962516	0.686839
	C8133	C	0.501629	0.043191	0.686982
	C8134	C	0.501639	0.962511	0.687019
	C8135	C	0.501243	0.462595	0.686324
	C8136	C	0.626242	0.462579	0.686156
	C8137	C	0.626876	0.462465	0.686582
	C8138	C	0.501239	0.543203	0.686330
	C8139	C	0.626879	0.543302	0.686588
	C8140	C	0.626246	0.543405	0.686172
	C8141	C	0.611638	0.753075	0.701423
	C8142	C	0.611667	0.253196	0.701448
	C8143	C	0.603120	0.753227	0.709937
	C8144	C	0.599105	0.691865	0.713913
	C8145	C	0.599131	0.814479	0.713969
	C8146	C	0.603126	0.253271	0.709956
	C8147	C	0.599140	0.192189	0.713951
	C8148	C	0.599044	0.314404	0.713894
	C8149	C	0.611634	0.252908	0.671806
	C8150	C	0.578625	0.753254	0.639025
	C8151	C	0.549028	0.753241	0.639003
	C8152	C	0.549150	0.752742	0.734283
	C8153	C	0.599062	0.691929	0.659314
	C8154	C	0.599097	0.814557	0.659328
	C8155	C	0.587171	0.753231	0.647507
	C8156	C	0.540514	0.753113	0.647528
	C8157	C	0.536583	0.691839	0.651629
	C8158	C	0.591195	0.691855	0.651475
	C8159	C	0.591213	0.814590	0.651501
	C8160	C	0.536501	0.814488	0.651490
	C8161	C	0.603092	0.753208	0.663306
	C8162	C	0.578767	0.753074	0.734312
	C8163	C	0.591247	0.691865	0.721759
	C8164	C	0.591268	0.814364	0.721815
	C8165	C	0.587262	0.753177	0.725788
	C8166	C	0.561978	0.462889	0.749099
	C8167	C	0.562724	0.462590	0.623757
	C8168	C	0.564882	0.462513	0.750820
	C8169	C	0.562005	0.543544	0.749094
	C8170	C	0.564874	0.543163	0.750829
	C8171	C	0.562696	0.542991	0.623759
	C8172	C	0.578731	0.253162	0.734306
	C8173	C	0.591281	0.192195	0.721798
	C8174	C	0.591183	0.314376	0.721736
	C8175	C	0.587236	0.253226	0.725782
	C8176	C	0.562409	0.043207	0.624869
	C8177	C	0.578728	0.252674	0.638971
	C8178	C	0.549138	0.253244	0.639044
	C8179	C	0.549073	0.252759	0.734328
	C8180	C	0.599067	0.191806	0.659363
	C8181	C	0.599013	0.313971	0.659400
	C8182	C	0.587217	0.252678	0.647495
	C8183	C	0.540605	0.253388	0.647525
	C8184	C	0.540619	0.752719	0.725791
	C8185	C	0.536585	0.813796	0.721806
	C8186	C	0.536586	0.691539	0.721851
	C8187	C	0.540555	0.252757	0.725827
	C8188	C	0.536579	0.313926	0.721784
	C8189	C	0.536575	0.191674	0.721815
	C8190	C	0.536565	0.191983	0.651488
	C8191	C	0.591206	0.191737	0.651519
	C8192	C	0.591162	0.313718	0.651550
	C8193	C	0.536598	0.314810	0.651503
	C8194	C	0.603090	0.252942	0.663318
	C8195	C	0.562732	0.043471	0.749587
	C8196	C	0.563982	0.043203	0.622584
	C8197	C	0.562426	0.962497	0.624873
	C8198	C	0.562703	0.962487	0.749566
	C8199	C	0.563999	0.962560	0.622566
	N8200	N	0.501309	0.070042	0.686617
	N8201	N	0.501310	0.935638	0.686685
	N8202	N	0.501313	0.435696	0.686674
	N8203	N	0.501270	0.569995	0.686663
	N8204	N	0.563937	0.435649	0.749107
	N8205	N	0.563957	0.570094	0.749118
	N8206	N	0.563953	0.070086	0.749073
	N8207	N	0.563931	0.935655	0.749049
	O8208	O	0.614904	0.695365	0.800069
	O8209	O	0.614854	0.811226	0.800117
	O8210	O	0.513004	0.695410	0.823079
	O8211	O	0.512945	0.811276	0.823227
	O8212	O	0.512968	0.194910	0.823153
	O8213	O	0.512987	0.310884	0.823141
	O8214	O	0.512941	0.695084	0.800092
	O8215	O	0.512909	0.810873	0.800009
	O8216	O	0.512952	0.194613	0.800105
	O8217	O	0.512948	0.310393	0.800066
	O8218	O	0.614937	0.694480	0.823107
	O8219	O	0.614897	0.810294	0.823126
	O8220	O	0.614949	0.195083	0.823070
	O8221	O	0.614973	0.310901	0.823164
	O8222	O	0.614910	0.195113	0.800110
	O8223	O	0.614904	0.311252	0.800071
	O8224	O	0.575501	0.694879	0.760603
	O8225	O	0.552413	0.694815	0.760654
	O8226	O	0.575586	0.695037	0.862701
	O8227	O	0.575482	0.810798	0.862567
	O8228	O	0.552457	0.695174	0.862575
	O8229	O	0.552491	0.811115	0.862578
	O8230	O	0.552446	0.810713	0.760678
	O8231	O	0.575394	0.810845	0.760675
	O8232	O	0.575398	0.195115	0.760712
	O8233	O	0.552475	0.194990	0.760717
	O8234	O	0.575464	0.194969	0.862543
	O8235	O	0.575478	0.310563	0.862563
	O8236	O	0.552412	0.194887	0.862647
	O8237	O	0.552433	0.310777	0.862598
	O8238	O	0.552354	0.310594	0.760600
	O8239	O	0.575464	0.311041	0.760654
	H8240	H	0.525583	0.645328	0.835805
	H8241	H	0.525616	0.861492	0.835866
	H8242	H	0.525607	0.144142	0.835849
	H8243	H	0.525698	0.361642	0.835746
	H8244	H	0.525610	0.861003	0.787410
	H8245	H	0.525516	0.644492	0.787328
	H8246	H	0.525626	0.360408	0.787453
	H8247	H	0.525645	0.144574	0.787514
	H8248	H	0.628265	0.064224	0.810257
	H8249	H	0.626602	0.064650	0.809467
	H8250	H	0.626593	0.941338	0.809328
	H8251	H	0.628228	0.941779	0.810285
	H8252	H	0.628316	0.064423	0.812846
	H8253	H	0.628307	0.941490	0.812892
	H8254	H	0.500329	0.064522	0.814095
	H8255	H	0.500342	0.941273	0.814062
	H8256	H	0.502519	0.064120	0.814088
	H8257	H	0.502591	0.941357	0.814099
	H8258	H	0.504100	0.064314	0.811379
	H8259	H	0.504211	0.941040	0.811394
	H8260	H	0.500443	0.440989	0.810163
	H8261	H	0.499690	0.441348	0.811440
	H8262	H	0.502587	0.441108	0.810238
	H8263	H	0.627527	0.441343	0.809097
	H8264	H	0.629184	0.441201	0.811723
	H8265	H	0.628166	0.441433	0.813742
	H8266	H	0.499692	0.564548	0.811487
	H8267	H	0.500452	0.564244	0.810139
	H8268	H	0.628123	0.564612	0.813735
	H8269	H	0.629191	0.564549	0.811710
	H8270	H	0.627469	0.564590	0.809118
	H8271	H	0.502576	0.563907	0.810195
	H8272	H	0.602187	0.644602	0.835703
	H8273	H	0.602254	0.860605	0.835744
	H8274	H	0.602332	0.145038	0.835774
	H8275	H	0.602314	0.360419	0.835801
	H8276	H	0.539694	0.644468	0.773193
	H8277	H	0.588078	0.645020	0.773274
	H8278	H	0.588109	0.861147	0.773281
	H8279	H	0.539761	0.861026	0.773307
	H8280	H	0.602199	0.644877	0.787425
	H8281	H	0.602238	0.861363	0.787446
	H8282	H	0.588076	0.644632	0.849880
	H8283	H	0.588150	0.860678	0.849931
	H8284	H	0.561298	0.441894	0.747857
	H8285	H	0.565305	0.441156	0.870547
	H8286	H	0.564280	0.441452	0.746220
	H8287	H	0.566347	0.441148	0.747507
	H8288	H	0.560292	0.441577	0.874671
	H8289	H	0.561091	0.441361	0.871653
	H8290	H	0.565316	0.564428	0.870518
	H8291	H	0.561367	0.564571	0.747824
	H8292	H	0.561099	0.564517	0.871627
	H8293	H	0.560278	0.564451	0.874692
	H8294	H	0.566369	0.564700	0.747535
	H8295	H	0.564293	0.564667	0.746275
	H8296	H	0.588185	0.144826	0.849937
	H8297	H	0.588178	0.360454	0.849938
	H8298	H	0.564924	0.064676	0.747427
	H8299	H	0.563323	0.064178	0.747231
	H8300	H	0.565854	0.064242	0.749464
	H8301	H	0.539784	0.861519	0.850027
	H8302	H	0.539748	0.645158	0.849951
	H8303	H	0.539834	0.361501	0.849900
	H8304	H	0.539726	0.144269	0.850012
	H8305	H	0.539830	0.144604	0.773422
	H8306	H	0.588063	0.144886	0.773323
	H8307	H	0.588045	0.361572	0.773358
	H8308	H	0.539804	0.360461	0.773354
	H8309	H	0.602237	0.144730	0.787480
	H8310	H	0.602221	0.361608	0.787495
	H8311	H	0.565946	0.064776	0.872761
	H8312	H	0.564243	0.064364	0.871726
	H8313	H	0.561810	0.064205	0.873034
	H8314	H	0.563306	0.941414	0.747195
	H8315	H	0.564965	0.941287	0.747427
	H8316	H	0.565822	0.941282	0.749470
	H8317	H	0.565974	0.941130	0.872767
	H8318	H	0.564214	0.941300	0.871751
	H8319	H	0.561809	0.941216	0.873057
	Zn8320	Zn	0.501432	0.680122	0.811666
	Zn8321	Zn	0.501479	0.825600	0.811624
	Zn8322	Zn	0.501416	0.180069	0.811644
	Zn8323	Zn	0.501504	0.325407	0.811629
	Zn8324	Zn	0.563984	0.680273	0.874091
	Zn8325	Zn	0.563980	0.825563	0.874101
	Zn8326	Zn	0.563981	0.180123	0.874123
	Zn8327	Zn	0.563995	0.325589	0.874067
	C8328	C	0.611605	0.753290	0.796792
	C8329	C	0.516254	0.753268	0.826440
	C8330	C	0.524751	0.753310	0.834981
	C8331	C	0.528733	0.692202	0.838975
	C8332	C	0.528759	0.814505	0.839014
	C8333	C	0.516274	0.252870	0.826421
	C8334	C	0.524783	0.252840	0.834944
	C8335	C	0.528753	0.191367	0.838991
	C8336	C	0.528798	0.314369	0.838931
	C8337	C	0.516228	0.752915	0.796784
	C8338	C	0.524780	0.752803	0.788310
	C8339	C	0.528785	0.813997	0.784316
	C8340	C	0.528734	0.691493	0.784263
	C8341	C	0.516220	0.252484	0.796793
	C8342	C	0.524689	0.252549	0.788226
	C8343	C	0.528731	0.313654	0.784264
	C8344	C	0.528738	0.191462	0.784302
	C8345	C	0.627165	0.043246	0.810313
	C8346	C	0.627150	0.962606	0.810306
	C8347	C	0.501435	0.043084	0.813433
	C8348	C	0.501453	0.962397	0.813433
	C8349	C	0.502978	0.043261	0.810745
	C8350	C	0.503018	0.962340	0.810743
	C8351	C	0.500440	0.462330	0.811027
	C8352	C	0.626407	0.462556	0.809806
	C8353	C	0.628094	0.462633	0.812442
	C8354	C	0.500453	0.543108	0.811038
	C8355	C	0.628089	0.543351	0.812433
	C8356	C	0.626404	0.543362	0.809816
	C8357	C	0.611624	0.752370	0.826399
	C8358	C	0.611672	0.252898	0.826407
	C8359	C	0.603125	0.752643	0.834927
	C8360	C	0.599083	0.691596	0.838893
	C8361	C	0.599127	0.813733	0.838929
	C8362	C	0.603126	0.252717	0.834902
	C8363	C	0.599153	0.191739	0.838920
	C8364	C	0.599140	0.313611	0.838931
	C8365	C	0.611638	0.253189	0.796796
	C8366	C	0.578734	0.752930	0.763917
	C8367	C	0.549162	0.752774	0.763966
	C8368	C	0.549185	0.753192	0.859305
	C8369	C	0.599098	0.691888	0.784260
	C8370	C	0.599119	0.814375	0.784285
	C8371	C	0.587265	0.753151	0.772418
	C8372	C	0.540670	0.752784	0.772499
	C8373	C	0.536597	0.691508	0.776415
	C8374	C	0.591244	0.691938	0.776411
	C8375	C	0.591265	0.814331	0.776426
	C8376	C	0.536650	0.814012	0.776480
	C8377	C	0.603114	0.753133	0.788260
	C8378	C	0.578804	0.752854	0.859336
	C8379	C	0.591260	0.691576	0.846764
	C8380	C	0.591297	0.813758	0.846799
	C8381	C	0.587304	0.752710	0.850813
	C8382	C	0.565769	0.462425	0.872289
	C8383	C	0.564928	0.462412	0.747463
	C8384	C	0.561591	0.462568	0.873409
	C8385	C	0.565767	0.543088	0.872294
	C8386	C	0.561574	0.543391	0.873407
	C8387	C	0.564943	0.543280	0.747485
	C8388	C	0.578760	0.252751	0.859281
	C8389	C	0.591306	0.191668	0.846770
	C8390	C	0.591287	0.313637	0.846775
	C8391	C	0.587270	0.252645	0.850754
	C8392	C	0.564089	0.043219	0.747763
	C8393	C	0.578728	0.253116	0.763964
	C8394	C	0.549122	0.252761	0.763930
	C8395	C	0.549151	0.252822	0.859327
	C8396	C	0.599092	0.191893	0.784321
	C8397	C	0.599081	0.314528	0.784334
	C8398	C	0.587243	0.253205	0.772473
	C8399	C	0.540576	0.252688	0.772405
	C8400	C	0.540632	0.753243	0.850807
	C8401	C	0.536630	0.814520	0.846854
	C8402	C	0.536602	0.692127	0.846812
	C8403	C	0.540635	0.252884	0.850805
	C8404	C	0.536664	0.314307	0.846769
	C8405	C	0.536615	0.191481	0.846828
	C8406	C	0.536610	0.191561	0.776468
	C8407	C	0.591225	0.191896	0.776479
	C8408	C	0.591216	0.314523	0.776493
	C8409	C	0.536600	0.313713	0.776427
	C8410	C	0.603113	0.253200	0.788307
	C8411	C	0.564811	0.043308	0.872742
	C8412	C	0.564977	0.043143	0.749832
	C8413	C	0.564087	0.962521	0.747771
	C8414	C	0.564785	0.962376	0.872743
	C8415	C	0.564956	0.962625	0.749833
	N8416	N	0.501454	0.070080	0.811654
	N8417	N	0.501519	0.935665	0.811630
	N8418	N	0.501481	0.435448	0.811657
	N8419	N	0.501465	0.569927	0.811670
	N8420	N	0.563989	0.435633	0.874063
	N8421	N	0.563989	0.570090	0.874052
	N8422	N	0.563947	0.070032	0.874098
	N8423	N	0.563966	0.935629	0.874094
	O8424	O	0.614965	0.695099	0.925014
	O8425	O	0.614925	0.810812	0.925089
	O8426	O	0.512987	0.694757	0.948172
	O8427	O	0.512980	0.810522	0.948229
	O8428	O	0.512964	0.194566	0.948160
	O8429	O	0.512969	0.310280	0.948196
	O8430	O	0.513031	0.695100	0.925148
	O8431	O	0.513006	0.810771	0.925146
	O8432	O	0.512981	0.195514	0.925088
	O8433	O	0.512983	0.311133	0.925103
	O8434	O	0.614931	0.695120	0.948143
	O8435	O	0.614817	0.811017	0.948148
	O8436	O	0.614819	0.195247	0.948089
	O8437	O	0.614817	0.311201	0.948144
	O8438	O	0.614935	0.194907	0.925087
	O8439	O	0.614952	0.310807	0.925047
	O8440	O	0.575492	0.694905	0.885636
	O8441	O	0.552391	0.694774	0.885547
	O8442	O	0.575568	0.694569	0.987718
	O8443	O	0.575390	0.810616	0.987601
	O8444	O	0.552404	0.694839	0.987697
	O8445	O	0.552480	0.810558	0.987554
	O8446	O	0.552466	0.810816	0.885660
	O8447	O	0.575427	0.810776	0.885670
	O8448	O	0.575473	0.194898	0.885611
	O8449	O	0.552455	0.195712	0.885631
	O8450	O	0.575451	0.194846	0.987667
	O8451	O	0.575396	0.310813	0.987647
	O8452	O	0.552354	0.194776	0.987692
	O8453	O	0.552439	0.310425	0.987632
	O8454	O	0.552417	0.311615	0.885575
	O8455	O	0.575530	0.310485	0.885599
	H8456	H	0.525685	0.644719	0.960795
	H8457	H	0.525649	0.860082	0.960824
	H8458	H	0.525742	0.144677	0.960680
	H8459	H	0.525632	0.360144	0.960865
	H8460	H	0.525652	0.860962	0.912457
	H8461	H	0.525617	0.644674	0.912389
	H8462	H	0.525580	0.361495	0.912387
	H8463	H	0.525606	0.145308	0.912358
	H8464	H	0.626168	0.063800	0.936403
	H8465	H	0.626002	0.064448	0.936692
	H8466	H	0.625971	0.941064	0.936684
	H8467	H	0.626106	0.941371	0.936407
	H8468	H	0.626631	0.064326	0.936346
	H8469	H	0.626588	0.941173	0.936299
	H8470	H	0.501436	0.064180	0.937647
	H8471	H	0.501469	0.941135	0.937625
	H8472	H	0.502248	0.064591	0.937336
	H8473	H	0.502242	0.941217	0.937389
	H8474	H	0.502443	0.064191	0.936216
	H8475	H	0.502464	0.940912	0.936176
	H8476	H	0.505265	0.441372	0.936890
	H8477	H	0.504066	0.441058	0.933953
	H8478	H	0.502594	0.441400	0.940224
	H8479	H	0.626219	0.441020	0.938214
	H8480	H	0.624851	0.441317	0.937025
	H8481	H	0.625060	0.440992	0.935708
	H8482	H	0.504077	0.564285	0.933900
	H8483	H	0.505211	0.564525	0.936828
	H8484	H	0.625078	0.564012	0.935656
	H8485	H	0.624860	0.564258	0.936957
	H8486	H	0.626175	0.564302	0.938196
	H8487	H	0.502567	0.564907	0.940254
	H8488	H	0.602172	0.644241	0.960754
	H8489	H	0.602210	0.861311	0.960824
	H8490	H	0.602249	0.144647	0.960881
	H8491	H	0.602228	0.361544	0.960826
	H8492	H	0.539819	0.644769	0.898296
	H8493	H	0.588031	0.645476	0.898360
	H8494	H	0.588074	0.860670	0.898273
	H8495	H	0.539816	0.860899	0.898319
	H8496	H	0.602165	0.645458	0.912491
	H8497	H	0.602243	0.860818	0.912409
	H8498	H	0.588023	0.644396	0.974949
	H8499	H	0.588090	0.861190	0.974999
	H8500	H	0.567516	0.441094	0.872774
	H8501	H	0.562855	0.441832	0.999640
	H8502	H	0.566371	0.441290	0.876978
	H8503	H	0.563332	0.441573	0.877749
	H8504	H	0.564870	0.441555	0.999882
	H8505	H	0.563969	0.441896	1.000372
	H8506	H	0.562854	0.564820	0.999641
	H8507	H	0.567500	0.564125	0.872748
	H8508	H	0.564018	0.564733	1.000399
	H8509	H	0.564922	0.564672	0.999938
	H8510	H	0.563315	0.564524	0.877771
	H8511	H	0.566403	0.564568	0.876938
	H8512	H	0.588088	0.144892	0.975026
	H8513	H	0.588090	0.361715	0.975002
	H8514	H	0.564133	0.064184	0.876489
	H8515	H	0.565903	0.064090	0.875540
	H8516	H	0.561763	0.064570	0.875071
	H8517	H	0.539821	0.859921	0.974980
	H8518	H	0.539837	0.644666	0.974950
	H8519	H	0.539765	0.360167	0.974975
	H8520	H	0.539872	0.144537	0.974835
	H8521	H	0.539800	0.145454	0.898248
	H8522	H	0.588102	0.145020	0.898288
	H8523	H	0.588074	0.360462	0.898344
	H8524	H	0.539735	0.361668	0.898275
	H8525	H	0.602277	0.145036	0.912424
	H8526	H	0.602228	0.360581	0.912466
	H8527	H	0.565914	0.064368	0.998004
	H8528	H	0.564344	0.064282	0.996916
	H8529	H	0.561959	0.064661	0.997983
	H8530	H	0.565889	0.941262	0.875459
	H8531	H	0.564161	0.941153	0.876498
	H8532	H	0.561806	0.941019	0.875080
	H8533	H	0.565852	0.941077	0.998036
	H8534	H	0.564313	0.941007	0.996929
	H8535	H	0.561926	0.941279	0.998007
	Zn8536	Zn	0.501457	0.680199	0.936598
	Zn8537	Zn	0.501494	0.825447	0.936619
	Zn8538	Zn	0.501484	0.180128	0.936610
	Zn8539	Zn	0.501514	0.325523	0.936671
	Zn8540	Zn	0.563958	0.680071	0.999176
	Zn8541	Zn	0.563858	0.825869	0.999147
	Zn8542	Zn	0.563949	0.180003	0.999194
	Zn8543	Zn	0.563849	0.326025	0.999179
	C8544	C	0.611664	0.753001	0.921752
	C8545	C	0.516252	0.752547	0.951497
	C8546	C	0.524786	0.752424	0.960003
	C8547	C	0.528816	0.691452	0.963960
	C8548	C	0.528809	0.813268	0.963984
	C8549	C	0.516262	0.252351	0.951461
	C8550	C	0.524805	0.252374	0.959945
	C8551	C	0.528842	0.191360	0.963876
	C8552	C	0.528807	0.313346	0.963967
	C8553	C	0.516294	0.752887	0.921847
	C8554	C	0.524767	0.752870	0.913280
	C8555	C	0.528785	0.813975	0.909305
	C8556	C	0.528773	0.691752	0.909266
	C8557	C	0.516286	0.253334	0.921795
	C8558	C	0.524777	0.253386	0.913260
	C8559	C	0.528753	0.314527	0.909239
	C8560	C	0.528768	0.192285	0.909228
	C8561	C	0.626143	0.043076	0.936582
	C8562	C	0.626125	0.962583	0.936589
	C8563	C	0.501735	0.043092	0.937262
	C8564	C	0.501750	0.962394	0.937262
	C8565	C	0.501952	0.043074	0.936093
	C8566	C	0.501955	0.962306	0.936092
	C8567	C	0.503846	0.462542	0.935732
	C8568	C	0.626709	0.462436	0.937630
	C8569	C	0.625302	0.462467	0.936417
	C8570	C	0.503840	0.543226	0.935697
	C8571	C	0.625317	0.542964	0.936399
	C8572	C	0.626714	0.543188	0.937639
	C8573	C	0.611600	0.752920	0.951434
	C8574	C	0.611557	0.253174	0.951411
	C8575	C	0.603112	0.752748	0.959984
	C8576	C	0.599089	0.691407	0.963960
	C8577	C	0.599111	0.814102	0.963993
	C8578	C	0.603072	0.253091	0.959951
	C8579	C	0.599083	0.191832	0.963991
	C8580	C	0.599079	0.314431	0.963967
	C8581	C	0.611636	0.252816	0.921800
	C8582	C	0.578752	0.752908	0.888933
	C8583	C	0.549128	0.752782	0.888871
	C8584	C	0.549148	0.752597	0.984357
	C8585	C	0.599087	0.692216	0.909307
	C8586	C	0.599116	0.813994	0.909269
	C8587	C	0.587275	0.753004	0.897426
	C8588	C	0.540598	0.752852	0.897385
	C8589	C	0.536623	0.691723	0.901399
	C8590	C	0.591218	0.692120	0.901480
	C8591	C	0.591248	0.813995	0.901432
	C8592	C	0.536628	0.813962	0.901438
	C8593	C	0.603155	0.753084	0.913248
	C8594	C	0.578759	0.752659	0.984370
	C8595	C	0.591247	0.691403	0.971829
	C8596	C	0.591271	0.814193	0.971862
	C8597	C	0.587294	0.752791	0.975864
	C8598	C	0.563134	0.462643	0.999169
	C8599	C	0.564633	0.462564	0.876462
	C8600	C	0.564291	0.462876	0.999887
	C8601	C	0.563140	0.543313	0.999165
	C8602	C	0.564323	0.543449	0.999893
	C8603	C	0.564636	0.543238	0.876471
	C8604	C	0.578727	0.252922	0.984383
	C8605	C	0.591232	0.191897	0.971852
	C8606	C	0.591234	0.314541	0.971833
	C8607	C	0.587252	0.253220	0.975846
	C8608	C	0.564749	0.042905	0.875505
	C8609	C	0.578776	0.252671	0.888900
	C8610	C	0.549147	0.253650	0.888880
	C8611	C	0.549117	0.252579	0.984367
	C8612	C	0.599105	0.191815	0.909294
	C8613	C	0.599071	0.313711	0.909331
	C8614	C	0.587235	0.252718	0.897455
	C8615	C	0.540624	0.253559	0.897375
	C8616	C	0.540634	0.752295	0.975849
	C8617	C	0.536660	0.813258	0.971838
	C8618	C	0.536669	0.691334	0.971809
	C8619	C	0.540641	0.252346	0.975824
	C8620	C	0.536647	0.313330	0.971821
	C8621	C	0.536691	0.191413	0.971740
	C8622	C	0.536609	0.192398	0.901362
	C8623	C	0.591246	0.191795	0.901450
	C8624	C	0.591221	0.313658	0.901475
	C8625	C	0.536592	0.314619	0.901376
	C8626	C	0.603080	0.252754	0.913309
	C8627	C	0.564806	0.043311	0.997890
	C8628	C	0.562371	0.043215	0.874077
	C8629	C	0.564742	0.962483	0.875501
	C8630	C	0.564769	0.962526	0.997901
	C8631	C	0.562379	0.962365	0.874090
	N8632	N	0.501521	0.070083	0.936614
	N8633	N	0.501518	0.935625	0.936615
	N8634	N	0.501508	0.435550	0.936660
	N8635	N	0.501483	0.570006	0.936645
	N8636	N	0.563918	0.435792	0.999182
	N8637	N	0.563949	0.570133	0.999178
	N8638	N	0.563936	0.070070	0.999147
	N8639	N	0.563861	0.935735	0.999155
	O8640	O	0.739793	0.694677	0.050268
	O8641	O	0.739802	0.810531	0.050235
	O8642	O	0.637767	0.694661	0.073281
	O8643	O	0.637949	0.810623	0.073095
	O8644	O	0.637814	0.194686	0.073242
	O8645	O	0.637716	0.310483	0.073342
	O8646	O	0.637764	0.694642	0.050133
	O8647	O	0.637846	0.810252	0.050167
	O8648	O	0.637884	0.194426	0.050273
	O8649	O	0.637844	0.310315	0.050190
	O8650	O	0.739876	0.694638	0.073273
	O8651	O	0.739845	0.810585	0.073259
	O8652	O	0.739848	0.195286	0.073317
	O8653	O	0.739741	0.311185	0.073207
	O8654	O	0.739869	0.195068	0.050128
	O8655	O	0.739784	0.310796	0.050217
	O8656	O	0.700379	0.694928	0.010699
	O8657	O	0.677427	0.694972	0.010772
	O8658	O	0.700440	0.694821	0.112783
	O8659	O	0.700351	0.810849	0.112633
	O8660	O	0.677265	0.694683	0.112771
	O8661	O	0.677369	0.810751	0.112630
	O8662	O	0.677387	0.810530	0.010771
	O8663	O	0.700417	0.810627	0.010728
	O8664	O	0.700382	0.195242	0.010704
	O8665	O	0.677335	0.194601	0.010747
	O8666	O	0.700288	0.195156	0.112699
	O8667	O	0.700383	0.310979	0.112720
	O8668	O	0.677320	0.194672	0.112659
	O8669	O	0.677249	0.310524	0.112722
	O8670	O	0.677286	0.310491	0.010783
	O8671	O	0.700301	0.311253	0.010822
	H8672	H	0.650520	0.644095	0.085826
	H8673	H	0.650529	0.861299	0.085858
	H8674	H	0.650561	0.144428	0.085843
	H8675	H	0.650431	0.360507	0.085940
	H8676	H	0.650491	0.859991	0.037517
	H8677	H	0.650460	0.644295	0.037465
	H8678	H	0.650484	0.360425	0.037547
	H8679	H	0.650520	0.144116	0.037580
	H8680	H	0.751866	0.064571	0.062724
	H8681	H	0.752425	0.064608	0.061886
	H8682	H	0.752362	0.941313	0.061907
	H8683	H	0.751899	0.941930	0.062657
	H8684	H	0.750633	0.064878	0.062565
	H8685	H	0.750650	0.941757	0.062548
	H8686	H	0.625633	0.064409	0.062545
	H8687	H	0.625636	0.941240	0.062560
	H8688	H	0.626503	0.064496	0.062754
	H8689	H	0.626544	0.941574	0.062740
	H8690	H	0.627383	0.064571	0.061784
	H8691	H	0.627381	0.941363	0.061802
	H8692	H	0.626951	0.440937	0.063606
	H8693	H	0.628185	0.441186	0.062481
	H8694	H	0.624647	0.441307	0.062939
	H8695	H	0.751387	0.441974	0.062085
	H8696	H	0.751060	0.441724	0.061890
	H8697	H	0.751056	0.441124	0.061558
	H8698	H	0.628218	0.564292	0.062465
	H8699	H	0.626943	0.564236	0.063666
	H8700	H	0.751053	0.564652	0.061585
	H8701	H	0.751065	0.564684	0.061841
	H8702	H	0.751364	0.564547	0.062028
	H8703	H	0.624655	0.564283	0.062930
	H8704	H	0.727114	0.643975	0.085873
	H8705	H	0.727189	0.861264	0.085852
	H8706	H	0.727065	0.145123	0.085867
	H8707	H	0.727187	0.360621	0.085909
	H8708	H	0.664687	0.644476	0.023405
	H8709	H	0.713096	0.644717	0.023368
	H8710	H	0.712991	0.860759	0.023477
	H8711	H	0.664689	0.860349	0.023434
	H8712	H	0.727196	0.644589	0.037542
	H8713	H	0.727085	0.860267	0.037682
	H8714	H	0.712918	0.644324	0.099980
	H8715	H	0.713002	0.861230	0.099976
	H8716	H	0.688305	0.441559	0.000789
	H8717	H	0.687584	0.441093	0.122585
	H8718	H	0.687221	0.441134	-0.000778
	H8719	H	0.687812	0.441002	-0.001967
	H8720	H	0.688118	0.440875	0.126049
	H8721	H	0.686924	0.440652	0.124889
	H8722	H	0.687612	0.564413	0.122631
	H8723	H	0.688356	0.564472	0.000742
	H8724	H	0.686983	0.564382	0.124904
	H8725	H	0.688137	0.564320	0.126103
	H8726	H	0.687790	0.564125	-0.002032
	H8727	H	0.687220	0.564352	-0.000768
	H8728	H	0.712916	0.145200	0.100028
	H8729	H	0.713040	0.360780	0.100089
	H8730	H	0.688492	0.064557	-0.000780
	H8731	H	0.688686	0.063982	-0.000461
	H8732	H	0.688694	0.064435	-0.001201
	H8733	H	0.664686	0.860982	0.100013
	H8734	H	0.664681	0.643983	0.099975
	H8735	H	0.664609	0.360674	0.100074
	H8736	H	0.664700	0.144361	0.099975
	H8737	H	0.664702	0.144192	0.023447
	H8738	H	0.713103	0.144590	0.023322
	H8739	H	0.713026	0.361497	0.023378
	H8740	H	0.664646	0.360105	0.023411
	H8741	H	0.727271	0.144738	0.037450
	H8742	H	0.727212	0.361359	0.037487
	H8743	H	0.687756	0.064648	0.125131
	H8744	H	0.688781	0.063738	0.125620
	H8745	H	0.690117	0.064081	0.124744
	H8746	H	0.688700	0.941361	-0.000393
	H8747	H	0.688510	0.940990	-0.000671
	H8748	H	0.688738	0.941697	-0.001077
	H8749	H	0.687802	0.941032	0.125053
	H8750	H	0.688831	0.941497	0.125558
	H8751	H	0.690131	0.940913	0.124725
	Zn8752	Zn	0.626310	0.679866	0.061701
	Zn8753	Zn	0.626366	0.825903	0.061679
	Zn8754	Zn	0.626278	0.179803	0.061716
	Zn8755	Zn	0.626334	0.325958	0.061696
	Zn8756	Zn	0.688864	0.680012	0.124239
	Zn8757	Zn	0.688880	0.825688	0.124228
	Zn8758	Zn	0.688798	0.180175	0.124257
	Zn8759	Zn	0.688833	0.325476	0.124218
	C8760	C	0.736521	0.752542	0.046964
	C8761	C	0.641110	0.752683	0.076505
	C8762	C	0.649618	0.752702	0.085053
	C8763	C	0.653649	0.691201	0.089015
	C8764	C	0.653660	0.814102	0.089025
	C8765	C	0.641080	0.252587	0.076550
	C8766	C	0.649637	0.252489	0.085022
	C8767	C	0.653676	0.191347	0.089006
	C8768	C	0.653601	0.313606	0.089065
	C8769	C	0.641082	0.752347	0.046847
	C8770	C	0.649624	0.752163	0.038363
	C8771	C	0.653661	0.813131	0.034390
	C8772	C	0.653653	0.691233	0.034377
	C8773	C	0.641169	0.252332	0.046967
	C8774	C	0.649691	0.252248	0.038457
	C8775	C	0.653662	0.313303	0.034434
	C8776	C	0.653682	0.191149	0.034446
	C8777	C	0.751929	0.043403	0.062144
	C8778	C	0.751922	0.962664	0.062122
	C8779	C	0.626143	0.043262	0.062389
	C8780	C	0.626153	0.962533	0.062388
	C8781	C	0.626953	0.043163	0.061454
	C8782	C	0.626973	0.962444	0.061457
	C8783	C	0.627256	0.462353	0.062689
	C8784	C	0.751467	0.462828	0.061921
	C8785	C	0.751139	0.462609	0.061713
	C8786	C	0.627255	0.543173	0.062686
	C8787	C	0.751152	0.543644	0.061703
	C8788	C	0.751473	0.543273	0.061910
	C8789	C	0.736577	0.752561	0.076552
	C8790	C	0.736507	0.253212	0.076554
	C8791	C	0.728078	0.752543	0.085099
	C8792	C	0.724016	0.691209	0.089059
	C8793	C	0.724064	0.814057	0.089044
	C8794	C	0.727997	0.252952	0.085078
	C8795	C	0.723960	0.191897	0.089059
	C8796	C	0.724036	0.313890	0.089087
	C8797	C	0.736519	0.252907	0.046907
	C8798	C	0.703681	0.752691	0.014002
	C8799	C	0.674083	0.752716	0.014040
	C8800	C	0.674000	0.752676	0.109444
	C8801	C	0.724059	0.691503	0.034375
	C8802	C	0.724019	0.813572	0.034448
	C8803	C	0.712229	0.752725	0.022504
	C8804	C	0.665573	0.752441	0.022557
	C8805	C	0.661556	0.691351	0.026564
	C8806	C	0.716221	0.691579	0.026510
	C8807	C	0.716176	0.813758	0.026578
	C8808	C	0.661553	0.813314	0.026575
	C8809	C	0.728038	0.752464	0.038421
	C8810	C	0.703675	0.752782	0.109419
	C8811	C	0.716149	0.691312	0.096902
	C8812	C	0.716193	0.814180	0.096887
	C8813	C	0.712200	0.752753	0.100930
	C8814	C	0.688529	0.462441	0.122866
	C8815	C	0.687847	0.462352	-0.001234
	C8816	C	0.687887	0.462012	0.125134
	C8817	C	0.688540	0.543120	0.122888
	C8818	C	0.687894	0.543018	0.125151
	C8819	C	0.687859	0.543124	-0.001227
	C8820	C	0.703620	0.253012	0.109429
	C8821	C	0.716102	0.191926	0.096906
	C8822	C	0.716183	0.313891	0.096939
	C8823	C	0.712150	0.253006	0.100926
	C8824	C	0.688668	0.043188	-0.000655
	C8825	C	0.703623	0.253181	0.014065
	C8826	C	0.674042	0.252388	0.014068
	C8827	C	0.674024	0.252602	0.109373
	C8828	C	0.724047	0.191764	0.034368
	C8829	C	0.724020	0.314290	0.034386
	C8830	C	0.712135	0.253058	0.022577
	C8831	C	0.665550	0.252158	0.022600
	C8832	C	0.665479	0.752545	0.100923
	C8833	C	0.661519	0.813929	0.096879
	C8834	C	0.661517	0.691164	0.096863
	C8835	C	0.665530	0.252538	0.100847
	C8836	C	0.661475	0.313681	0.096898
	C8837	C	0.661540	0.191304	0.096847
	C8838	C	0.661538	0.191096	0.026593
	C8839	C	0.716210	0.191748	0.026511
	C8840	C	0.716166	0.314394	0.026539
	C8841	C	0.661508	0.313259	0.026575
	C8842	C	0.727990	0.252972	0.038420
	C8843	C	0.688426	0.043075	0.125085
	C8844	C	0.688887	0.043435	-0.001069
	C8845	C	0.688680	0.962277	-0.000613
	C8846	C	0.688433	0.962422	0.125042
	C8847	C	0.688896	0.962798	-0.001020
	N8848	N	0.626260	0.069967	0.061697
	N8849	N	0.626292	0.935664	0.061678
	N8850	N	0.626305	0.435734	0.061676
	N8851	N	0.626296	0.570063	0.061679
	N8852	N	0.688845	0.435478	0.124198
	N8853	N	0.688838	0.569884	0.124222
	N8854	N	0.688835	0.070070	0.124244
	N8855	N	0.688864	0.935633	0.124218
	O8856	O	0.739809	0.695040	0.175232
	O8857	O	0.739877	0.810961	0.175178
	O8858	O	0.637798	0.694069	0.198106
	O8859	O	0.637834	0.810028	0.198174
	O8860	O	0.637724	0.193792	0.198070
	O8861	O	0.637769	0.309736	0.198153
	O8862	O	0.637776	0.694786	0.175094
	O8863	O	0.637733	0.810543	0.175031
	O8864	O	0.637727	0.195354	0.175085
	O8865	O	0.637777	0.311212	0.175165
	O8866	O	0.739916	0.694742	0.198152
	O8867	O	0.739954	0.810571	0.198240
	O8868	O	0.739896	0.194972	0.198153
	O8869	O	0.739965	0.310624	0.198284
	O8870	O	0.739817	0.194493	0.175219
	O8871	O	0.739918	0.310348	0.175155
	O8872	O	0.700485	0.694873	0.135704
	O8873	O	0.677370	0.694672	0.135802
	O8874	O	0.700352	0.694318	0.237518
	O8875	O	0.700368	0.810323	0.237529
	O8876	O	0.677305	0.693783	0.237601
	O8877	O	0.677280	0.809784	0.237585
	O8878	O	0.677384	0.810600	0.135773
	O8879	O	0.700374	0.811011	0.135817
	O8880	O	0.700299	0.194708	0.135784
	O8881	O	0.677354	0.195122	0.135830
	O8882	O	0.700265	0.195021	0.237562
	O8883	O	0.700317	0.310747	0.237599
	O8884	O	0.677269	0.194059	0.237527
	O8885	O	0.677260	0.309877	0.237505
	O8886	O	0.677239	0.310880	0.135663
	O8887	O	0.700388	0.310601	0.135691
	H8888	H	0.650363	0.643291	0.210842
	H8889	H	0.650554	0.859861	0.210733
	H8890	H	0.650452	0.143248	0.210719
	H8891	H	0.650457	0.359845	0.210720
	H8892	H	0.650331	0.860595	0.162347
	H8893	H	0.650550	0.645042	0.162576
	H8894	H	0.650417	0.361284	0.162497
	H8895	H	0.650531	0.145382	0.162582
	H8896	H	0.750779	0.064188	0.186985
	H8897	H	0.751268	0.064448	0.187443
	H8898	H	0.751295	0.941247	0.187436
	H8899	H	0.750754	0.941303	0.186981
	H8900	H	0.750918	0.064470	0.186097
	H8901	H	0.750988	0.941374	0.186073
	H8902	H	0.626676	0.064228	0.186657
	H8903	H	0.626745	0.941027	0.186731
	H8904	H	0.626569	0.064618	0.186264
	H8905	H	0.626634	0.940883	0.186283
	H8906	H	0.626049	0.064114	0.186142
	H8907	H	0.626104	0.941341	0.186171
	H8908	H	0.625892	0.441297	0.188262
	H8909	H	0.627237	0.441188	0.188006
	H8910	H	0.624614	0.441356	0.186881
	H8911	H	0.753000	0.441073	0.184038
	H8912	H	0.754411	0.441043	0.187283
	H8913	H	0.752932	0.441341	0.189390
	H8914	H	0.627220	0.564432	0.187943
	H8915	H	0.625885	0.564531	0.188225
	H8916	H	0.752912	0.564814	0.189390
	H8917	H	0.754437	0.564167	0.187273
	H8918	H	0.753085	0.564234	0.184014
	H8919	H	0.624638	0.564249	0.186879
	H8920	H	0.727243	0.643960	0.210796
	H8921	H	0.727215	0.860845	0.210826
	H8922	H	0.727227	0.144741	0.210859
	H8923	H	0.727274	0.360892	0.210910
	H8924	H	0.664816	0.644768	0.148536
	H8925	H	0.713111	0.644701	0.148368
	H8926	H	0.713068	0.861118	0.148405
	H8927	H	0.664571	0.860781	0.148291
	H8928	H	0.727179	0.644748	0.162570
	H8929	H	0.727205	0.861181	0.162588
	H8930	H	0.713035	0.643724	0.224877
	H8931	H	0.712994	0.860863	0.224913
	H8932	H	0.689257	0.441276	0.122197
	H8933	H	0.686725	0.441325	0.250307
	H8934	H	0.690899	0.441124	0.123877
	H8935	H	0.690392	0.441382	0.125556
	H8936	H	0.690915	0.441041	0.250332
	H8937	H	0.689272	0.441389	0.251500
	H8938	H	0.686721	0.564713	0.250357
	H8939	H	0.689238	0.564270	0.122204
	H8940	H	0.689279	0.564105	0.251579
	H8941	H	0.690984	0.564676	0.250342
	H8942	H	0.690379	0.563829	0.125556
	H8943	H	0.690858	0.564192	0.123927
	H8944	H	0.713034	0.144610	0.224969
	H8945	H	0.713080	0.360810	0.225024
	H8946	H	0.688621	0.064880	0.122924
	H8947	H	0.687616	0.064543	0.123557
	H8948	H	0.690011	0.064769	0.123569
	H8949	H	0.664704	0.860015	0.224879
	H8950	H	0.664544	0.643039	0.225010
	H8951	H	0.664630	0.359757	0.224844
	H8952	H	0.664608	0.143317	0.224845
	H8953	H	0.664707	0.145437	0.148443
	H8954	H	0.713012	0.144466	0.148400
	H8955	H	0.713076	0.360584	0.148346
	H8956	H	0.664565	0.361429	0.148336
	H8957	H	0.727188	0.144336	0.162500
	H8958	H	0.727266	0.360646	0.162444
	H8959	H	0.687361	0.064681	0.251256
	H8960	H	0.689567	0.064480	0.251651
	H8961	H	0.691484	0.064810	0.249258
	H8962	H	0.687692	0.941298	0.123558
	H8963	H	0.688640	0.941903	0.122852
	H8964	H	0.690036	0.941105	0.123531
	H8965	H	0.687345	0.941550	0.251214
	H8966	H	0.689522	0.941383	0.251627
	H8967	H	0.691517	0.941071	0.249305
	Zn8968	Zn	0.626211	0.679930	0.186604
	Zn8969	Zn	0.626311	0.825440	0.186708
	Zn8970	Zn	0.626189	0.179893	0.186544
	Zn8971	Zn	0.626296	0.325547	0.186721
	Zn8972	Zn	0.688863	0.680097	0.249150
	Zn8973	Zn	0.688853	0.825754	0.249011
	Zn8974	Zn	0.688791	0.180084	0.249056
	Zn8975	Zn	0.688746	0.325692	0.249021
	C8976	C	0.736572	0.753002	0.171912
	C8977	C	0.641109	0.751916	0.201413
	C8978	C	0.649649	0.751579	0.209912
	C8979	C	0.653588	0.690215	0.213958
	C8980	C	0.653677	0.812834	0.213893
	C8981	C	0.641048	0.251600	0.201376
	C8982	C	0.649574	0.251548	0.209890
	C8983	C	0.653577	0.190259	0.213880
	C8984	C	0.653587	0.312805	0.213876
	C8985	C	0.641049	0.752644	0.171784
	C8986	C	0.649607	0.752711	0.163299
	C8987	C	0.653560	0.813735	0.159262
	C8988	C	0.653694	0.691783	0.159399
	C8989	C	0.641060	0.253287	0.171859
	C8990	C	0.649635	0.253288	0.163408
	C8991	C	0.653613	0.314410	0.159376
	C8992	C	0.653680	0.192263	0.159430
	C8993	C	0.751149	0.043163	0.187053
	C8994	C	0.751159	0.962569	0.187059
	C8995	C	0.626521	0.043282	0.186491
	C8996	C	0.626559	0.962304	0.186533
	C8997	C	0.625995	0.043022	0.186366
	C8998	C	0.626025	0.962366	0.186393
	C8999	C	0.626480	0.462479	0.187752
	C9000	C	0.751643	0.462269	0.184604
	C9001	C	0.753066	0.462475	0.187887
	C9002	C	0.626476	0.543240	0.187702
	C9003	C	0.753103	0.543217	0.187889
	C9004	C	0.751670	0.542958	0.184581
	C9005	C	0.736634	0.752590	0.201472
	C9006	C	0.736612	0.252754	0.201476
	C9007	C	0.728088	0.752481	0.209946
	C9008	C	0.724073	0.691146	0.213924
	C9009	C	0.724048	0.813691	0.213945
	C9010	C	0.728038	0.252788	0.209947
	C9011	C	0.724044	0.191746	0.213978
	C9012	C	0.724077	0.313847	0.214011
	C9013	C	0.736611	0.252425	0.171867
	C9014	C	0.703714	0.752934	0.139033
	C9015	C	0.674066	0.752670	0.139053
	C9016	C	0.674020	0.751708	0.234296
	C9017	C	0.724080	0.691725	0.159385
	C9018	C	0.724082	0.814254	0.159398
	C9019	C	0.712270	0.752951	0.147512
	C9020	C	0.665524	0.752677	0.147516
	C9021	C	0.661580	0.691696	0.151584
	C9022	C	0.716261	0.691683	0.151500
	C9023	C	0.716249	0.814241	0.151523
	C9024	C	0.661446	0.813806	0.151450
	C9025	C	0.728087	0.753020	0.163376
	C9026	C	0.703634	0.752274	0.234229
	C9027	C	0.716190	0.690948	0.221741
	C9028	C	0.716163	0.813648	0.221763
	C9029	C	0.712158	0.752269	0.225735
	C9030	C	0.687209	0.462413	0.249267
	C9031	C	0.690166	0.462356	0.124573
	C9032	C	0.689755	0.462414	0.250431
	C9033	C	0.687220	0.543306	0.249284
	C9034	C	0.689805	0.543101	0.250476
	C9035	C	0.690160	0.542873	0.124580
	C9036	C	0.703564	0.252831	0.234261
	C9037	C	0.716152	0.191692	0.221796
	C9038	C	0.716190	0.313848	0.221833
	C9039	C	0.712094	0.252717	0.225760
	C9040	C	0.688298	0.043444	0.123492
	C9041	C	0.703662	0.252605	0.138987
	C9042	C	0.674012	0.253071	0.139031
	C9043	C	0.674007	0.251871	0.234202
	C9044	C	0.724065	0.191343	0.159358
	C9045	C	0.724087	0.313693	0.159335
	C9046	C	0.712221	0.252422	0.147485
	C9047	C	0.665523	0.253298	0.147570
	C9048	C	0.665498	0.751550	0.225778
	C9049	C	0.661516	0.812877	0.221758
	C9050	C	0.661433	0.690184	0.221828
	C9051	C	0.665480	0.251556	0.225695
	C9052	C	0.661457	0.312748	0.221714
	C9053	C	0.661454	0.190358	0.221708
	C9054	C	0.661564	0.192290	0.151607
	C9055	C	0.716198	0.191289	0.151517
	C9056	C	0.716212	0.313667	0.151499
	C9057	C	0.661480	0.314446	0.151534
	C9058	C	0.728092	0.252493	0.163336
	C9059	C	0.688559	0.043298	0.250802
	C9060	C	0.689734	0.043283	0.124178
	C9061	C	0.688332	0.962796	0.123482
	C9062	C	0.688577	0.962637	0.250787
	C9063	C	0.689755	0.962318	0.124155
	N9064	N	0.626203	0.070069	0.186595
	N9065	N	0.626246	0.935627	0.186636
	N9066	N	0.626245	0.435594	0.186706
	N9067	N	0.626235	0.569993	0.186641
	N9068	N	0.688811	0.435659	0.249109
	N9069	N	0.688860	0.570071	0.249146
	N9070	N	0.688837	0.070003	0.249054
	N9071	N	0.688877	0.935624	0.249041
	O9072	O	0.739860	0.695925	0.299972
	O9073	O	0.739829	0.811945	0.300034
	O9074	O	0.637968	0.694523	0.323034
	O9075	O	0.637945	0.810295	0.323063
	O9076	O	0.637927	0.194736	0.323095
	O9077	O	0.637921	0.310818	0.323111
	O9078	O	0.637740	0.695492	0.299901
	O9079	O	0.637876	0.811317	0.300019
	O9080	O	0.637855	0.194971	0.300074
	O9081	O	0.637899	0.310948	0.300064
	O9082	O	0.739935	0.694560	0.323087
	O9083	O	0.739791	0.810707	0.323047
	O9084	O	0.739873	0.194355	0.323120
	O9085	O	0.739781	0.310451	0.323084
	O9086	O	0.739844	0.195062	0.299930
	O9087	O	0.739734	0.311212	0.300079
	O9088	O	0.700359	0.695769	0.260645
	O9089	O	0.677432	0.695447	0.260683
	O9090	O	0.700518	0.694529	0.362590
	O9091	O	0.700408	0.810538	0.362473
	O9092	O	0.677420	0.694470	0.362557
	O9093	O	0.677392	0.810322	0.362571
	O9094	O	0.677326	0.811254	0.260527
	O9095	O	0.700383	0.811982	0.260548
	O9096	O	0.700295	0.195070	0.260610
	O9097	O	0.677308	0.194565	0.260662
	O9098	O	0.700398	0.194575	0.362574
	O9099	O	0.700455	0.310594	0.362547
	O9100	O	0.677393	0.194489	0.362543
	O9101	O	0.677400	0.310460	0.362508
	O9102	O	0.677240	0.310579	0.260518
	O9103	O	0.700291	0.311157	0.260570
	H9104	H	0.650656	0.644033	0.335674
	H9105	H	0.650613	0.860569	0.335731
	H9106	H	0.650489	0.143984	0.335780
	H9107	H	0.650600	0.361077	0.335819
	H9108	H	0.650405	0.861996	0.287269
	H9109	H	0.650521	0.645055	0.287344
	H9110	H	0.650545	0.361053	0.287404
	H9111	H	0.650457	0.144884	0.287361
	H9112	H	0.753530	0.064113	0.311348
	H9113	H	0.752662	0.064370	0.309761
	H9114	H	0.752664	0.941354	0.309781
	H9115	H	0.753595	0.941299	0.311397
	H9116	H	0.752310	0.064258	0.313524
	H9117	H	0.752301	0.941636	0.313534
	H9118	H	0.624462	0.064447	0.311906
	H9119	H	0.624460	0.941319	0.311912
	H9120	H	0.625378	0.064152	0.313250
	H9121	H	0.625425	0.940986	0.313226
	H9122	H	0.627574	0.064353	0.313086
	H9123	H	0.627629	0.940740	0.313045
	H9124	H	0.627515	0.440825	0.311402
	H9125	H	0.626966	0.441410	0.310583
	H9126	H	0.626939	0.441046	0.312666
	H9127	H	0.749998	0.441157	0.310845
	H9128	H	0.751561	0.440905	0.309980
	H9129	H	0.752687	0.441376	0.310708
	H9130	H	0.626975	0.564162	0.310578
	H9131	H	0.627540	0.564315	0.311417
	H9132	H	0.752694	0.564920	0.310701
	H9133	H	0.751596	0.564445	0.309984
	H9134	H	0.750044	0.564157	0.310762
	H9135	H	0.626889	0.564196	0.312610
	H9136	H	0.727289	0.644019	0.335782
	H9137	H	0.727211	0.860798	0.335714
	H9138	H	0.727192	0.143745	0.335753
	H9139	H	0.727264	0.360831	0.335795
	H9140	H	0.664741	0.645083	0.273293
	H9141	H	0.712986	0.645607	0.273247
	H9142	H	0.713046	0.862697	0.273190
	H9143	H	0.664626	0.862101	0.273165
	H9144	H	0.727210	0.645299	0.287331
	H9145	H	0.727268	0.862810	0.287264
	H9146	H	0.713139	0.644232	0.349935
	H9147	H	0.713048	0.860691	0.349848
	H9148	H	0.686530	0.441503	0.248289
	H9149	H	0.690319	0.441285	0.374906
	H9150	H	0.688786	0.441612	0.246677
	H9151	H	0.690655	0.441019	0.247518
	H9152	H	0.688970	0.441469	0.372449
	H9153	H	0.690169	0.441437	0.373045
	H9154	H	0.690292	0.564653	0.374952
	H9155	H	0.686559	0.564372	0.248288
	H9156	H	0.690229	0.564422	0.373097
	H9157	H	0.688987	0.564512	0.372493
	H9158	H	0.690712	0.564625	0.247513
	H9159	H	0.688834	0.563972	0.246658
	H9160	H	0.713057	0.143868	0.349925
	H9161	H	0.713160	0.360769	0.349957
	H9162	H	0.687705	0.064243	0.246715
	H9163	H	0.686288	0.064610	0.248390
	H9164	H	0.690723	0.063991	0.247175
	H9165	H	0.664700	0.860440	0.349939
	H9166	H	0.664738	0.644016	0.349876
	H9167	H	0.664757	0.360565	0.349963
	H9168	H	0.664640	0.143763	0.349945
	H9169	H	0.664562	0.144486	0.273207
	H9170	H	0.712996	0.144732	0.273176
	H9171	H	0.712955	0.361909	0.273229
	H9172	H	0.664668	0.361072	0.273232
	H9173	H	0.727163	0.144759	0.287302
	H9174	H	0.727108	0.361838	0.287378
	H9175	H	0.687536	0.064817	0.374545
	H9176	H	0.688380	0.064436	0.375437
	H9177	H	0.689943	0.063788	0.375058
	H9178	H	0.686342	0.941491	0.248354
	H9179	H	0.687783	0.941635	0.246635
	H9180	H	0.690740	0.941011	0.247177
	H9181	H	0.687601	0.940555	0.374475
	H9182	H	0.688425	0.941580	0.375382
	H9183	H	0.690005	0.941853	0.375051
	Zn9184	Zn	0.626372	0.679965	0.311563
	Zn9185	Zn	0.626410	0.825571	0.311599
	Zn9186	Zn	0.626370	0.179870	0.311561
	Zn9187	Zn	0.626381	0.325571	0.311582
	Zn9188	Zn	0.688973	0.680159	0.374091
	Zn9189	Zn	0.688966	0.825802	0.374011
	Zn9190	Zn	0.688879	0.180180	0.374123
	Zn9191	Zn	0.688880	0.325790	0.374038
	C9192	C	0.736554	0.753968	0.296737
	C9193	C	0.641230	0.752368	0.326355
	C9194	C	0.649710	0.752254	0.334907
	C9195	C	0.653726	0.691006	0.338896
	C9196	C	0.653712	0.813517	0.338914
	C9197	C	0.641211	0.252787	0.326387
	C9198	C	0.649721	0.252607	0.334915
	C9199	C	0.653683	0.191064	0.338914
	C9200	C	0.653744	0.313828	0.338927
	C9201	C	0.641103	0.753415	0.296689
	C9202	C	0.649640	0.753550	0.288194
	C9203	C	0.653618	0.814860	0.284169
	C9204	C	0.653668	0.692218	0.284208
	C9205	C	0.641176	0.252911	0.296787
	C9206	C	0.649694	0.252988	0.288265
	C9207	C	0.653678	0.314139	0.284241
	C9208	C	0.653635	0.191749	0.284227
	C9209	C	0.752670	0.043169	0.310813
	C9210	C	0.752668	0.962527	0.310826
	C9211	C	0.625283	0.042992	0.312306
	C9212	C	0.625308	0.962325	0.312304
	C9213	C	0.627505	0.042969	0.312134
	C9214	C	0.627535	0.962273	0.312131
	C9215	C	0.627010	0.462295	0.311150
	C9216	C	0.750313	0.462401	0.311477
	C9217	C	0.751925	0.462395	0.310655
	C9218	C	0.627021	0.543017	0.311159
	C9219	C	0.751927	0.543468	0.310636
	C9220	C	0.750323	0.543047	0.311442
	C9221	C	0.736602	0.752515	0.326362
	C9222	C	0.736535	0.252348	0.326369
	C9223	C	0.728084	0.752349	0.334879
	C9224	C	0.724111	0.691066	0.338907
	C9225	C	0.724069	0.813699	0.338869
	C9226	C	0.728033	0.252245	0.334869
	C9227	C	0.724044	0.190885	0.338896
	C9228	C	0.724099	0.313646	0.338914
	C9229	C	0.736510	0.253135	0.296713
	C9230	C	0.703643	0.753952	0.263878
	C9231	C	0.674098	0.753453	0.263903
	C9232	C	0.674102	0.752368	0.359289
	C9233	C	0.724033	0.692608	0.284237
	C9234	C	0.724062	0.815560	0.284193
	C9235	C	0.712152	0.754079	0.272410
	C9236	C	0.665565	0.753633	0.272395
	C9237	C	0.661557	0.692252	0.276392
	C9238	C	0.716165	0.692667	0.276393
	C9239	C	0.716194	0.815585	0.276347
	C9240	C	0.661499	0.814930	0.276336
	C9241	C	0.728024	0.754050	0.288243
	C9242	C	0.703736	0.752544	0.359253
	C9243	C	0.716263	0.691191	0.346766
	C9244	C	0.716217	0.813727	0.346726
	C9245	C	0.712245	0.752498	0.350725
	C9246	C	0.689532	0.462539	0.374984
	C9247	C	0.689493	0.462660	0.247634
	C9248	C	0.689388	0.462688	0.373090
	C9249	C	0.689542	0.543294	0.375000
	C9250	C	0.689418	0.543220	0.373118
	C9251	C	0.689521	0.543252	0.247633
	C9252	C	0.703700	0.252505	0.359252
	C9253	C	0.716212	0.190872	0.346765
	C9254	C	0.716266	0.313679	0.346782
	C9255	C	0.712218	0.252296	0.350731
	C9256	C	0.687489	0.043196	0.247928
	C9257	C	0.703572	0.253193	0.263864
	C9258	C	0.674007	0.252655	0.263875
	C9259	C	0.674098	0.252396	0.359262
	C9260	C	0.724001	0.191952	0.284172
	C9261	C	0.723975	0.314684	0.284224
	C9262	C	0.712104	0.253303	0.272368
	C9263	C	0.665514	0.252825	0.272397
	C9264	C	0.665535	0.752280	0.350813
	C9265	C	0.661556	0.813500	0.346779
	C9266	C	0.661568	0.691042	0.346765
	C9267	C	0.665589	0.252268	0.350757
	C9268	C	0.661594	0.313590	0.346782
	C9269	C	0.661541	0.190938	0.346769
	C9270	C	0.661475	0.191666	0.276374
	C9271	C	0.716128	0.191909	0.276342
	C9272	C	0.716102	0.314772	0.276383
	C9273	C	0.661527	0.314068	0.276381
	C9274	C	0.727978	0.253221	0.288199
	C9275	C	0.688210	0.043514	0.374747
	C9276	C	0.690516	0.043234	0.248425
	C9277	C	0.687532	0.962554	0.247914
	C9278	C	0.688244	0.962516	0.374710
	C9279	C	0.690547	0.962383	0.248442
	N9280	N	0.626343	0.069888	0.311582
	N9281	N	0.626369	0.935509	0.311578
	N9282	N	0.626346	0.435507	0.311586
	N9283	N	0.626360	0.569947	0.311580
	N9284	N	0.688899	0.435715	0.374053
	N9285	N	0.688943	0.570137	0.374076
	N9286	N	0.688913	0.070309	0.374134
	N9287	N	0.688962	0.935883	0.374088
	O9288	O	0.739787	0.695290	0.425121
	O9289	O	0.739733	0.811188	0.425209
	O9290	O	0.637903	0.695464	0.448078
	O9291	O	0.637946	0.811554	0.448060
	O9292	O	0.637920	0.195203	0.448019
	O9293	O	0.637871	0.310998	0.448102
	O9294	O	0.637871	0.695163	0.424966
	O9295	O	0.637841	0.811085	0.424916
	O9296	O	0.637891	0.195180	0.424988
	O9297	O	0.637874	0.311086	0.424968
	O9298	O	0.739830	0.694447	0.448199
	O9299	O	0.739823	0.810334	0.448245
	O9300	O	0.739789	0.194508	0.448149
	O9301	O	0.739758	0.310341	0.448084
	O9302	O	0.739848	0.195428	0.425072
	O9303	O	0.739834	0.311385	0.425079
	O9304	O	0.700413	0.695197	0.385642
	O9305	O	0.677407	0.694727	0.385640
	O9306	O	0.700238	0.694515	0.487578
	O9307	O	0.700357	0.810264	0.487580
	O9308	O	0.677257	0.695318	0.487605
	O9309	O	0.677250	0.811186	0.487640
	O9310	O	0.677451	0.810510	0.385598
	O9311	O	0.700453	0.811138	0.385576
	O9312	O	0.700413	0.195452	0.385661
	O9313	O	0.677360	0.194856	0.385601
	O9314	O	0.700312	0.194859	0.487627
	O9315	O	0.700363	0.310416	0.487573
	O9316	O	0.677312	0.195059	0.487572
	O9317	O	0.677322	0.310887	0.487572
	O9318	O	0.677342	0.310773	0.385554
	O9319	O	0.700379	0.311420	0.385607
	H9320	H	0.650536	0.645045	0.460737
	H9321	H	0.650498	0.861555	0.460799
	H9322	H	0.650537	0.145010	0.460692
	H9323	H	0.650558	0.361185	0.460746
	H9324	H	0.650580	0.861355	0.412330
	H9325	H	0.650464	0.644815	0.412281
	H9326	H	0.650580	0.361245	0.412418
	H9327	H	0.650627	0.144947	0.412392
	H9328	H	0.750429	0.064240	0.436696
	H9329	H	0.750778	0.064027	0.437321
	H9330	H	0.750764	0.941145	0.437383
	H9331	H	0.750394	0.941139	0.436716
	H9332	H	0.750953	0.064719	0.435807
	H9333	H	0.750972	0.941682	0.435828
	H9334	H	0.627809	0.064289	0.435650
	H9335	H	0.627847	0.941287	0.435672
	H9336	H	0.626647	0.063924	0.434800
	H9337	H	0.626677	0.941172	0.434869
	H9338	H	0.624897	0.064068	0.435592
	H9339	H	0.624915	0.941353	0.435669
	H9340	H	0.624893	0.441176	0.437078
	H9341	H	0.625828	0.441180	0.438033
	H9342	H	0.625360	0.441190	0.435328
	H9343	H	0.750472	0.441057	0.436661
	H9344	H	0.750998	0.441475	0.435869
	H9345	H	0.751684	0.441404	0.435926
	H9346	H	0.625835	0.564308	0.437993
	H9347	H	0.624912	0.564282	0.437065
	H9348	H	0.751736	0.564939	0.435894
	H9349	H	0.751092	0.564792	0.435883
	H9350	H	0.750556	0.564547	0.436585
	H9351	H	0.625422	0.564119	0.435350
	H9352	H	0.727150	0.644304	0.460782
	H9353	H	0.727142	0.860282	0.460825
	H9354	H	0.727160	0.144244	0.460897
	H9355	H	0.727172	0.360248	0.460759
	H9356	H	0.664686	0.644744	0.398193
	H9357	H	0.712994	0.644990	0.398344
	H9358	H	0.713164	0.861493	0.398179
	H9359	H	0.664816	0.861158	0.398260
	H9360	H	0.727039	0.645058	0.412597
	H9361	H	0.727226	0.861498	0.412414
	H9362	H	0.712982	0.643891	0.474924
	H9363	H	0.712978	0.859927	0.474970
	H9364	H	0.689160	0.441346	0.375707
	H9365	H	0.688873	0.441347	0.495922
	H9366	H	0.687505	0.441749	0.374873
	H9367	H	0.687349	0.441413	0.373502
	H9368	H	0.685999	0.441212	0.500614
	H9369	H	0.685852	0.441562	0.497979
	H9370	H	0.688841	0.564608	0.495956
	H9371	H	0.689211	0.564463	0.375703
	H9372	H	0.685793	0.564639	0.497989
	H9373	H	0.685955	0.564220	0.500692
	H9374	H	0.687414	0.564611	0.373547
	H9375	H	0.687525	0.564634	0.374867
	H9376	H	0.713062	0.144325	0.475069
	H9377	H	0.713064	0.360432	0.474953
	H9378	H	0.689198	0.064569	0.372766
	H9379	H	0.688028	0.064906	0.373018
	H9380	H	0.690281	0.064052	0.373932
	H9381	H	0.664598	0.861756	0.475003
	H9382	H	0.664657	0.644912	0.474929
	H9383	H	0.664675	0.361072	0.474910
	H9384	H	0.664680	0.144745	0.474873
	H9385	H	0.664729	0.144931	0.398242
	H9386	H	0.713048	0.145140	0.398316
	H9387	H	0.712990	0.361774	0.398331
	H9388	H	0.664740	0.361292	0.398266
	H9389	H	0.727203	0.145098	0.412439
	H9390	H	0.727150	0.361877	0.412461
	H9391	H	0.689606	0.064283	0.499630
	H9392	H	0.689710	0.064543	0.498816
	H9393	H	0.688827	0.064539	0.498130
	H9394	H	0.688088	0.941155	0.372945
	H9395	H	0.689251	0.941587	0.372649
	H9396	H	0.690363	0.941351	0.373893
	H9397	H	0.689685	0.941254	0.499636
	H9398	H	0.689827	0.941331	0.498766
	H9399	H	0.688918	0.940941	0.498089
	Zn9400	Zn	0.626403	0.680057	0.436544
	Zn9401	Zn	0.626398	0.825532	0.436518
	Zn9402	Zn	0.626363	0.179994	0.436524
	Zn9403	Zn	0.626405	0.325483	0.436541
	Zn9404	Zn	0.688755	0.680005	0.499151
	Zn9405	Zn	0.688911	0.825674	0.499048
	Zn9406	Zn	0.688746	0.180028	0.499167
	Zn9407	Zn	0.688842	0.325597	0.499066
	C9408	C	0.736489	0.753270	0.421867
	C9409	C	0.641215	0.753448	0.451344
	C9410	C	0.649732	0.753297	0.459865
	C9411	C	0.653697	0.691978	0.463894
	C9412	C	0.653666	0.814573	0.463931
	C9413	C	0.641164	0.253125	0.451365
	C9414	C	0.649664	0.253157	0.459911
	C9415	C	0.653673	0.191926	0.463877
	C9416	C	0.653682	0.314157	0.463908
	C9417	C	0.641152	0.753095	0.421659
	C9418	C	0.649676	0.753024	0.413156
	C9419	C	0.653717	0.814228	0.409186
	C9420	C	0.653652	0.691830	0.409150
	C9421	C	0.641177	0.253163	0.421709
	C9422	C	0.649714	0.253106	0.413224
	C9423	C	0.653719	0.314294	0.409252
	C9424	C	0.653739	0.191977	0.409233
	C9425	C	0.750774	0.043109	0.436905
	C9426	C	0.750778	0.962258	0.436927
	C9427	C	0.627009	0.042961	0.435562
	C9428	C	0.627023	0.962292	0.435583
	C9429	C	0.625220	0.043104	0.436383
	C9430	C	0.625252	0.962476	0.436391
	C9431	C	0.625655	0.462359	0.437283
	C9432	C	0.750844	0.462373	0.436864
	C9433	C	0.751361	0.462634	0.436083
	C9434	C	0.625662	0.543103	0.437262
	C9435	C	0.751401	0.543380	0.436082
	C9436	C	0.750860	0.543099	0.436835
	C9437	C	0.736574	0.752356	0.451537
	C9438	C	0.736495	0.252431	0.451418
	C9439	C	0.728028	0.752245	0.460026
	C9440	C	0.723988	0.691098	0.463959
	C9441	C	0.723987	0.813278	0.463982
	C9442	C	0.727979	0.252285	0.459922
	C9443	C	0.724010	0.191244	0.463993
	C9444	C	0.724008	0.313351	0.463914
	C9445	C	0.736551	0.253399	0.421811
	C9446	C	0.703698	0.753203	0.388913
	C9447	C	0.674150	0.752725	0.388909
	C9448	C	0.674003	0.753273	0.484324
	C9449	C	0.723962	0.692095	0.409374
	C9450	C	0.724061	0.814464	0.409286
	C9451	C	0.712186	0.753281	0.397455
	C9452	C	0.665599	0.752915	0.397374
	C9453	C	0.661539	0.691795	0.401337
	C9454	C	0.716127	0.692031	0.401507
	C9455	C	0.716231	0.814502	0.401410
	C9456	C	0.661607	0.814168	0.401370
	C9457	C	0.727989	0.753291	0.413350
	C9458	C	0.703608	0.752184	0.484317
	C9459	C	0.716123	0.690951	0.471791
	C9460	C	0.716124	0.813030	0.471818
	C9461	C	0.712140	0.751878	0.475825
	C9462	C	0.689747	0.462476	0.497190
	C9463	C	0.687821	0.462665	0.374148
	C9464	C	0.686677	0.462580	0.499230
	C9465	C	0.689708	0.543208	0.497218
	C9466	C	0.686649	0.543178	0.499278
	C9467	C	0.687860	0.543518	0.374172
	C9468	C	0.703626	0.252520	0.484307
	C9469	C	0.716162	0.191242	0.471850
	C9470	C	0.716166	0.313396	0.471780
	C9471	C	0.712133	0.252382	0.475787
	C9472	C	0.688687	0.043291	0.373191
	C9473	C	0.703661	0.253512	0.388939
	C9474	C	0.674080	0.252889	0.388871
	C9475	C	0.674036	0.253010	0.484291
	C9476	C	0.724070	0.192088	0.409283
	C9477	C	0.724030	0.314765	0.409297
	C9478	C	0.712194	0.253473	0.397442
	C9479	C	0.665580	0.253067	0.397404
	C9480	C	0.665522	0.753356	0.475766
	C9481	C	0.661494	0.814634	0.471805
	C9482	C	0.661533	0.691998	0.471760
	C9483	C	0.665524	0.252939	0.475755
	C9484	C	0.661526	0.314093	0.471770
	C9485	C	0.661530	0.191796	0.471734
	C9486	C	0.661602	0.191884	0.401402
	C9487	C	0.716215	0.192156	0.401433
	C9488	C	0.716168	0.314785	0.401447
	C9489	C	0.661583	0.314398	0.401411
	C9490	C	0.728058	0.253419	0.413282
	C9491	C	0.689440	0.043221	0.499201
	C9492	C	0.689806	0.043052	0.374392
	C9493	C	0.688725	0.962531	0.373162
	C9494	C	0.689477	0.962441	0.499182
	C9495	C	0.689848	0.962720	0.374370
	N9496	N	0.626342	0.069930	0.436484
	N9497	N	0.626372	0.935504	0.436498
	N9498	N	0.626381	0.435641	0.436540
	N9499	N	0.626388	0.570072	0.436534
	N9500	N	0.688794	0.435591	0.499100
	N9501	N	0.688750	0.569988	0.499153
	N9502	N	0.688791	0.069993	0.499135
	N9503	N	0.688853	0.935568	0.499068
	O9504	O	0.739885	0.694694	0.550026
	O9505	O	0.739803	0.810419	0.550082
	O9506	O	0.637859	0.695013	0.573062
	O9507	O	0.637816	0.810640	0.573103
	O9508	O	0.637772	0.194893	0.573159
	O9509	O	0.637795	0.310930	0.573133
	O9510	O	0.637861	0.695510	0.550027
	O9511	O	0.637774	0.811165	0.550046
	O9512	O	0.637807	0.195228	0.550025
	O9513	O	0.637807	0.311172	0.550120
	O9514	O	0.739822	0.695161	0.573063
	O9515	O	0.739819	0.811041	0.573076
	O9516	O	0.739825	0.194749	0.573096
	O9517	O	0.739793	0.310643	0.573067
	O9518	O	0.739861	0.194525	0.549975
	O9519	O	0.739775	0.310317	0.550074
	O9520	O	0.700346	0.694368	0.510637
	O9521	O	0.677349	0.695189	0.510697
	O9522	O	0.700360	0.695343	0.612516
	O9523	O	0.700408	0.811290	0.612602
	O9524	O	0.677242	0.695075	0.612630
	O9525	O	0.677281	0.811154	0.612519
	O9526	O	0.677375	0.811109	0.510583
	O9527	O	0.700383	0.810256	0.510622
	O9528	O	0.700314	0.194665	0.510650
	O9529	O	0.677276	0.195077	0.510728
	O9530	O	0.700360	0.194993	0.612507
	O9531	O	0.700410	0.310959	0.612621
	O9532	O	0.677365	0.194720	0.612525
	O9533	O	0.677253	0.310712	0.612573
	O9534	O	0.677351	0.310947	0.510658
	O9535	O	0.700333	0.310544	0.510621
	H9536	H	0.650473	0.644564	0.585764
	H9537	H	0.650393	0.861315	0.585831
	H9538	H	0.650525	0.144727	0.585707
	H9539	H	0.650527	0.360861	0.585696
	H9540	H	0.650462	0.861639	0.537355
	H9541	H	0.650486	0.645567	0.537367
	H9542	H	0.650491	0.361706	0.537453
	H9543	H	0.650455	0.145447	0.537475
	H9544	H	0.751863	0.064834	0.560810
	H9545	H	0.751082	0.064311	0.560692
	H9546	H	0.751046	0.940927	0.560707
	H9547	H	0.751824	0.941048	0.560759
	H9548	H	0.752302	0.064186	0.561790
	H9549	H	0.752249	0.941246	0.561678
	H9550	H	0.625101	0.064390	0.562216
	H9551	H	0.625064	0.941090	0.562296
	H9552	H	0.626020	0.064270	0.562920
	H9553	H	0.626042	0.941670	0.563002
	H9554	H	0.627497	0.064641	0.562362
	H9555	H	0.627520	0.941049	0.562319
	H9556	H	0.629683	0.441410	0.562103
	H9557	H	0.628842	0.441103	0.559378
	H9558	H	0.626955	0.441406	0.564968
	H9559	H	0.750667	0.440905	0.562353
	H9560	H	0.750353	0.441248	0.561171
	H9561	H	0.751026	0.440823	0.560511
	H9562	H	0.628894	0.564439	0.559330
	H9563	H	0.629730	0.564402	0.562075
	H9564	H	0.751009	0.564145	0.560608
	H9565	H	0.750378	0.564127	0.561195
	H9566	H	0.750690	0.564398	0.562372
	H9567	H	0.627002	0.564397	0.564927
	H9568	H	0.727098	0.644847	0.585645
	H9569	H	0.727239	0.861734	0.585796
	H9570	H	0.727151	0.144827	0.585741
	H9571	H	0.727206	0.361337	0.585777
	H9572	H	0.664679	0.645601	0.523245
	H9573	H	0.713016	0.644430	0.523274
	H9574	H	0.712889	0.860319	0.523427
	H9575	H	0.664665	0.861605	0.523215
	H9576	H	0.727215	0.644302	0.537407
	H9577	H	0.727071	0.860433	0.537563
	H9578	H	0.713000	0.644949	0.599808
	H9579	H	0.713096	0.861466	0.599963
	H9580	H	0.691302	0.441443	0.497119
	H9581	H	0.689326	0.440920	0.624456
	H9582	H	0.691522	0.440895	0.500814
	H9583	H	0.689283	0.441069	0.502261
	H9584	H	0.688954	0.441341	0.623350
	H9585	H	0.689403	0.441014	0.623700
	H9586	H	0.689315	0.564049	0.624526
	H9587	H	0.691250	0.564438	0.497150
	H9588	H	0.689413	0.564468	0.623690
	H9589	H	0.688934	0.564135	0.623388
	H9590	H	0.689261	0.564173	0.502314
	H9591	H	0.691500	0.564311	0.500793
	H9592	H	0.713091	0.144551	0.599930
	H9593	H	0.713128	0.361689	0.599989
	H9594	H	0.687935	0.064450	0.499544
	H9595	H	0.688562	0.064511	0.500057
	H9596	H	0.688045	0.064418	0.498439
	H9597	H	0.664529	0.861355	0.600007
	H9598	H	0.664623	0.644644	0.599932
	H9599	H	0.664647	0.360894	0.599877
	H9600	H	0.664670	0.144575	0.599881
	H9601	H	0.664602	0.145265	0.523357
	H9602	H	0.713081	0.144295	0.523154
	H9603	H	0.712958	0.360337	0.523334
	H9604	H	0.664658	0.361355	0.523281
	H9605	H	0.727255	0.144116	0.537281
	H9606	H	0.727146	0.360270	0.537427
	H9607	H	0.689370	0.064479	0.623905
	H9608	H	0.689027	0.064072	0.623557
	H9609	H	0.688443	0.064316	0.623698
	H9610	H	0.688579	0.941489	0.500018
	H9611	H	0.687956	0.941253	0.499453
	H9612	H	0.688152	0.941257	0.498373
	H9613	H	0.689277	0.941253	0.623894
	H9614	H	0.688986	0.941215	0.623578
	H9615	H	0.688386	0.941053	0.623741
	Zn9616	Zn	0.626348	0.680104	0.561535
	Zn9617	Zn	0.626305	0.825610	0.561629
	Zn9618	Zn	0.626322	0.179936	0.561549
	Zn9619	Zn	0.626268	0.325576	0.561632
	Zn9620	Zn	0.688850	0.679951	0.624075
	Zn9621	Zn	0.688805	0.825617	0.624063
	Zn9622	Zn	0.688867	0.180147	0.624075
	Zn9623	Zn	0.688830	0.325434	0.624036
	C9624	C	0.736560	0.752497	0.546770
	C9625	C	0.641122	0.752865	0.576375
	C9626	C	0.649633	0.752940	0.584891
	C9627	C	0.653643	0.691683	0.588903
	C9628	C	0.653587	0.814223	0.588949
	C9629	C	0.641074	0.252910	0.576410
	C9630	C	0.649591	0.252781	0.584947
	C9631	C	0.653632	0.191674	0.588915
	C9632	C	0.653625	0.313857	0.588898
	C9633	C	0.641116	0.753496	0.546759
	C9634	C	0.649634	0.753684	0.538241
	C9635	C	0.653625	0.814745	0.534211
	C9636	C	0.653632	0.692576	0.534223
	C9637	C	0.641071	0.253311	0.546780
	C9638	C	0.649599	0.253588	0.538285
	C9639	C	0.653618	0.314722	0.534284
	C9640	C	0.653599	0.192301	0.534320
	C9641	C	0.751442	0.043229	0.560971
	C9642	C	0.751427	0.962218	0.560965
	C9643	C	0.625748	0.043110	0.562314
	C9644	C	0.625750	0.962558	0.562361
	C9645	C	0.627251	0.043413	0.561712
	C9646	C	0.627241	0.962200	0.561714
	C9647	C	0.628482	0.462467	0.560951
	C9648	C	0.751171	0.462199	0.562242
	C9649	C	0.750879	0.462392	0.561030
	C9650	C	0.628517	0.543164	0.560933
	C9651	C	0.750890	0.542977	0.561062
	C9652	C	0.751187	0.543001	0.562257
	C9653	C	0.736540	0.753130	0.576349
	C9654	C	0.736515	0.252753	0.576355
	C9655	C	0.728047	0.753289	0.584885
	C9656	C	0.724020	0.691951	0.588845
	C9657	C	0.724083	0.814593	0.588938
	C9658	C	0.728003	0.253022	0.584871
	C9659	C	0.724032	0.191816	0.588904
	C9660	C	0.724035	0.314352	0.588916
	C9661	C	0.736558	0.252352	0.546715
	C9662	C	0.703644	0.752329	0.513919
	C9663	C	0.674073	0.753317	0.513919
	C9664	C	0.673973	0.753034	0.609301
	C9665	C	0.724032	0.691210	0.534284
	C9666	C	0.723954	0.813460	0.534378
	C9667	C	0.712145	0.752390	0.522456
	C9668	C	0.665503	0.753581	0.522392
	C9669	C	0.661488	0.692482	0.526372
	C9670	C	0.716171	0.691229	0.526436
	C9671	C	0.716104	0.813472	0.526519
	C9672	C	0.661490	0.814705	0.526364
	C9673	C	0.728024	0.752357	0.538288
	C9674	C	0.703662	0.753385	0.609257
	C9675	C	0.716153	0.692041	0.596685
	C9676	C	0.716219	0.814531	0.596778
	C9677	C	0.712195	0.753336	0.600744
	C9678	C	0.688987	0.462211	0.624420
	C9679	C	0.689953	0.462301	0.500882
	C9680	C	0.689063	0.462385	0.623672
	C9681	C	0.689000	0.542908	0.624457
	C9682	C	0.689078	0.543148	0.623680
	C9683	C	0.689956	0.543138	0.500902
	C9684	C	0.703664	0.253089	0.609260
	C9685	C	0.716188	0.191812	0.596759
	C9686	C	0.716206	0.314509	0.596791
	C9687	C	0.712165	0.253172	0.600746
	C9688	C	0.688382	0.043136	0.499628
	C9689	C	0.703636	0.252562	0.513895
	C9690	C	0.674014	0.253155	0.513966
	C9691	C	0.674037	0.252669	0.609250
	C9692	C	0.724024	0.190990	0.534201
	C9693	C	0.723993	0.313327	0.534285
	C9694	C	0.712158	0.252299	0.522399
	C9695	C	0.665472	0.253339	0.522462
	C9696	C	0.665475	0.752972	0.600770
	C9697	C	0.661430	0.814260	0.596803
	C9698	C	0.661485	0.691676	0.596757
	C9699	C	0.665489	0.252768	0.600759
	C9700	C	0.661480	0.313920	0.596762
	C9701	C	0.661498	0.191590	0.596766
	C9702	C	0.661468	0.192250	0.526483
	C9703	C	0.716161	0.191070	0.526369
	C9704	C	0.716124	0.313423	0.526451
	C9705	C	0.661488	0.314515	0.526445
	C9706	C	0.728027	0.252103	0.538220
	C9707	C	0.689090	0.043143	0.623810
	C9708	C	0.688543	0.043170	0.498489
	C9709	C	0.688399	0.962487	0.499569
	C9710	C	0.689079	0.962626	0.623810
	C9711	C	0.688591	0.962532	0.498442
	N9712	N	0.626353	0.070029	0.561580
	N9713	N	0.626316	0.935620	0.561630
	N9714	N	0.626278	0.435666	0.561630
	N9715	N	0.626325	0.570086	0.561586
	N9716	N	0.688822	0.435491	0.624029
	N9717	N	0.688826	0.569909	0.624063
	N9718	N	0.688829	0.070167	0.624048
	N9719	N	0.688799	0.935767	0.624069
	O9720	O	0.739871	0.694936	0.674987
	O9721	O	0.739890	0.810757	0.674940
	O9722	O	0.637971	0.694565	0.698137
	O9723	O	0.637941	0.810500	0.698153
	O9724	O	0.637937	0.194743	0.698139
	O9725	O	0.637937	0.310576	0.698108
	O9726	O	0.637943	0.694822	0.675132
	O9727	O	0.637957	0.810865	0.675061
	O9728	O	0.637973	0.194987	0.675130
	O9729	O	0.637969	0.310676	0.675110
	O9730	O	0.739854	0.695087	0.698044
	O9731	O	0.739841	0.810712	0.698003
	O9732	O	0.739857	0.194512	0.698030
	O9733	O	0.739861	0.310371	0.698083
	O9734	O	0.739896	0.194741	0.674970
	O9735	O	0.739857	0.310660	0.675061
	O9736	O	0.700342	0.694542	0.635642
	O9737	O	0.677308	0.694900	0.635577
	O9738	O	0.700523	0.694696	0.737593
	O9739	O	0.700587	0.810490	0.737640
	O9740	O	0.677485	0.694546	0.737549
	O9741	O	0.677454	0.810441	0.737592
	O9742	O	0.677316	0.810879	0.635591
	O9743	O	0.700318	0.810627	0.635643
	O9744	O	0.700385	0.194858	0.635614
	O9745	O	0.677368	0.194930	0.635566
	O9746	O	0.700424	0.194414	0.737541
	O9747	O	0.700432	0.310389	0.737506
	O9748	O	0.677363	0.194598	0.737599
	O9749	O	0.677445	0.310638	0.737578
	O9750	O	0.677345	0.310658	0.635584
	O9751	O	0.700343	0.310542	0.635581
	H9752	H	0.650568	0.644166	0.710850
	H9753	H	0.650577	0.860652	0.710867
	H9754	H	0.650573	0.144423	0.710786
	H9755	H	0.650626	0.360994	0.710834
	H9756	H	0.650682	0.861549	0.662525
	H9757	H	0.650598	0.644146	0.662463
	H9758	H	0.650664	0.360557	0.662508
	H9759	H	0.650659	0.144944	0.662474
	H9760	H	0.750823	0.064142	0.684639
	H9761	H	0.749596	0.064268	0.685722
	H9762	H	0.749638	0.940769	0.685712
	H9763	H	0.750851	0.941156	0.684601
	H9764	H	0.752936	0.064376	0.685302
	H9765	H	0.752942	0.941498	0.685361
	H9766	H	0.626077	0.064411	0.686953
	H9767	H	0.626099	0.941360	0.686903
	H9768	H	0.626441	0.064731	0.687088
	H9769	H	0.626430	0.941313	0.687076
	H9770	H	0.626898	0.064487	0.686793
	H9771	H	0.626871	0.941352	0.686789
	H9772	H	0.625850	0.441418	0.686897
	H9773	H	0.626347	0.441578	0.687193
	H9774	H	0.625883	0.441456	0.686147
	H9775	H	0.750515	0.441544	0.687352
	H9776	H	0.750319	0.441144	0.686017
	H9777	H	0.751099	0.440639	0.685376
	H9778	H	0.626319	0.564543	0.687231
	H9779	H	0.625904	0.564289	0.686895
	H9780	H	0.751136	0.564183	0.685318
	H9781	H	0.750305	0.564261	0.685951
	H9782	H	0.750480	0.564337	0.687341
	H9783	H	0.625921	0.564576	0.686164
	H9784	H	0.727129	0.644840	0.710634
	H9785	H	0.727237	0.860673	0.710673
	H9786	H	0.727173	0.144216	0.710707
	H9787	H	0.727289	0.360359	0.710710
	H9788	H	0.664674	0.644052	0.648278
	H9789	H	0.713000	0.644198	0.648330
	H9790	H	0.713014	0.861245	0.648220
	H9791	H	0.664769	0.861447	0.648329
	H9792	H	0.727223	0.644409	0.662422
	H9793	H	0.727266	0.861280	0.662294
	H9794	H	0.713052	0.644596	0.724831
	H9795	H	0.713138	0.860667	0.724902
	H9796	H	0.688804	0.441189	0.624638
	H9797	H	0.688419	0.441003	0.747990
	H9798	H	0.688174	0.440980	0.624210
	H9799	H	0.688294	0.441182	0.623670
	H9800	H	0.688345	0.441155	0.750031
	H9801	H	0.687753	0.441046	0.749204
	H9802	H	0.688477	0.564296	0.747974
	H9803	H	0.688806	0.564339	0.624766
	H9804	H	0.687847	0.564020	0.749209
	H9805	H	0.688391	0.564151	0.750129
	H9806	H	0.688243	0.563926	0.623683
	H9807	H	0.688188	0.564346	0.624259
	H9808	H	0.713030	0.144300	0.724861
	H9809	H	0.713153	0.360895	0.724867
	H9810	H	0.688710	0.064557	0.624621
	H9811	H	0.689201	0.064939	0.624480
	H9812	H	0.688304	0.064117	0.624133
	H9813	H	0.664731	0.860720	0.724982
	H9814	H	0.664744	0.644376	0.724988
	H9815	H	0.664744	0.360720	0.724999
	H9816	H	0.664720	0.144377	0.724954
	H9817	H	0.664750	0.145051	0.648264
	H9818	H	0.713068	0.144832	0.648223
	H9819	H	0.713112	0.360977	0.648170
	H9820	H	0.664759	0.360284	0.648295
	H9821	H	0.727237	0.144620	0.662340
	H9822	H	0.727306	0.360911	0.662291
	H9823	H	0.689995	0.064895	0.748460
	H9824	H	0.689197	0.064649	0.747919
	H9825	H	0.687932	0.064173	0.748547
	H9826	H	0.689144	0.941097	0.624503
	H9827	H	0.688693	0.941503	0.624594
	H9828	H	0.688300	0.941565	0.624179
	H9829	H	0.689979	0.941061	0.748477
	H9830	H	0.689139	0.941572	0.747930
	H9831	H	0.687908	0.941093	0.748585
	Zn9832	Zn	0.626422	0.680125	0.686606
	Zn9833	Zn	0.626442	0.825697	0.686597
	Zn9834	Zn	0.626444	0.180208	0.686634
	Zn9835	Zn	0.626472	0.325808	0.686581
	Zn9836	Zn	0.689007	0.680073	0.749114
	Zn9837	Zn	0.688973	0.825470	0.749121
	Zn9838	Zn	0.688947	0.180049	0.749096
	Zn9839	Zn	0.688923	0.325439	0.749060
	C9840	C	0.736582	0.752853	0.671682
	C9841	C	0.641254	0.752487	0.701416
	C9842	C	0.649763	0.752394	0.709931
	C9843	C	0.653750	0.691235	0.713958
	C9844	C	0.653742	0.813614	0.713962
	C9845	C	0.641216	0.252685	0.701417
	C9846	C	0.649725	0.252687	0.709946
	C9847	C	0.653717	0.191446	0.713942
	C9848	C	0.653747	0.313860	0.713977
	C9849	C	0.641210	0.752797	0.671797
	C9850	C	0.649712	0.752831	0.663274
	C9851	C	0.653776	0.814250	0.659316
	C9852	C	0.653722	0.691340	0.659294
	C9853	C	0.641255	0.252817	0.671823
	C9854	C	0.649752	0.252835	0.663298
	C9855	C	0.653761	0.313707	0.659301
	C9856	C	0.653768	0.191809	0.659299
	C9857	C	0.750511	0.042991	0.685513
	C9858	C	0.750533	0.962229	0.685525
	C9859	C	0.626313	0.043328	0.686896
	C9860	C	0.626318	0.962611	0.686899
	C9861	C	0.626771	0.043303	0.686600
	C9862	C	0.626765	0.962679	0.686604
	C9863	C	0.626175	0.462662	0.686910
	C9864	C	0.751078	0.462599	0.687289
	C9865	C	0.750859	0.462107	0.685906
	C9866	C	0.626205	0.543190	0.686921
	C9867	C	0.750871	0.543038	0.685867
	C9868	C	0.751066	0.543011	0.687267
	C9869	C	0.736561	0.752972	0.701305
	C9870	C	0.736595	0.252367	0.701360
	C9871	C	0.728079	0.752891	0.709832
	C9872	C	0.724060	0.691765	0.713839
	C9873	C	0.724119	0.813870	0.713854
	C9874	C	0.728101	0.252257	0.709880
	C9875	C	0.724055	0.191204	0.713876
	C9876	C	0.724121	0.313520	0.713865
	C9877	C	0.736604	0.252775	0.671718
	C9878	C	0.703619	0.752609	0.638918
	C9879	C	0.674024	0.752900	0.638862
	C9880	C	0.674167	0.752518	0.734296
	C9881	C	0.724073	0.691440	0.659218
	C9882	C	0.724094	0.814226	0.659144
	C9883	C	0.712185	0.752732	0.647378
	C9884	C	0.665539	0.752809	0.647399
	C9885	C	0.661548	0.691314	0.651415
	C9886	C	0.716187	0.691440	0.651402
	C9887	C	0.716206	0.814086	0.651334
	C9888	C	0.661602	0.814264	0.651444
	C9889	C	0.728102	0.752892	0.663146
	C9890	C	0.703832	0.752576	0.734317
	C9891	C	0.716236	0.691593	0.721719
	C9892	C	0.716291	0.813804	0.721731
	C9893	C	0.712311	0.752675	0.725767
	C9894	C	0.688931	0.462319	0.748239
	C9895	C	0.688393	0.462318	0.623963
	C9896	C	0.688306	0.462378	0.749476
	C9897	C	0.688963	0.543055	0.748255
	C9898	C	0.688349	0.542959	0.749489
	C9899	C	0.688371	0.543022	0.623988
	C9900	C	0.703727	0.252394	0.734243
	C9901	C	0.716205	0.191263	0.721724
	C9902	C	0.716268	0.313712	0.721718
	C9903	C	0.712246	0.252531	0.725727
	C9904	C	0.688923	0.043366	0.624421
	C9905	C	0.703686	0.252819	0.638859
	C9906	C	0.674078	0.252769	0.638876
	C9907	C	0.674121	0.252649	0.734305
	C9908	C	0.724044	0.191687	0.659234
	C9909	C	0.724084	0.313977	0.659211
	C9910	C	0.712174	0.252973	0.647394
	C9911	C	0.665577	0.252659	0.647408
	C9912	C	0.665646	0.752545	0.725774
	C9913	C	0.661617	0.813701	0.721792
	C9914	C	0.661619	0.691243	0.721796
	C9915	C	0.665590	0.252563	0.725807
	C9916	C	0.661596	0.313781	0.721833
	C9917	C	0.661566	0.191372	0.721805
	C9918	C	0.661594	0.191779	0.651417
	C9919	C	0.716188	0.191774	0.651384
	C9920	C	0.716219	0.314014	0.651365
	C9921	C	0.661583	0.313552	0.651426
	C9922	C	0.728060	0.252820	0.663231
	C9923	C	0.689434	0.043432	0.748436
	C9924	C	0.688498	0.043125	0.623965
	C9925	C	0.688924	0.962443	0.624416
	C9926	C	0.689436	0.962640	0.748442
	C9927	C	0.688484	0.962459	0.623975
	N9928	N	0.626457	0.070297	0.686618
	N9929	N	0.626473	0.935887	0.686623
	N9930	N	0.626434	0.435720	0.686557
	N9931	N	0.626445	0.570076	0.686575
	N9932	N	0.688962	0.435512	0.749046
	N9933	N	0.689005	0.569978	0.749057
	N9934	N	0.689002	0.070006	0.749104
	N9935	N	0.688999	0.935543	0.749118
	O9936	O	0.739914	0.694842	0.800108
	O9937	O	0.739870	0.810860	0.800157
	O9938	O	0.637957	0.695058	0.823151
	O9939	O	0.637966	0.811054	0.823097
	O9940	O	0.637998	0.194686	0.823134
	O9941	O	0.637966	0.310751	0.823153
	O9942	O	0.637938	0.695057	0.799989
	O9943	O	0.637945	0.811190	0.800018
	O9944	O	0.637974	0.195235	0.800070
	O9945	O	0.638024	0.311236	0.800101
	O9946	O	0.739909	0.694612	0.823192
	O9947	O	0.739938	0.810737	0.823220
	O9948	O	0.739940	0.194671	0.823244
	O9949	O	0.739869	0.310758	0.823173
	O9950	O	0.739935	0.195197	0.800069
	O9951	O	0.739879	0.311034	0.800157
	O9952	O	0.700442	0.694970	0.760691
	O9953	O	0.677498	0.694955	0.760651
	O9954	O	0.700398	0.694987	0.862616
	O9955	O	0.700459	0.810861	0.862656
	O9956	O	0.677444	0.695074	0.862570
	O9957	O	0.677359	0.810834	0.862606
	O9958	O	0.677376	0.810984	0.760543
	O9959	O	0.700468	0.810777	0.760643
	O9960	O	0.700468	0.195364	0.760638
	O9961	O	0.677355	0.194714	0.760545
	O9962	O	0.700459	0.195242	0.862620
	O9963	O	0.700425	0.310922	0.862565
	O9964	O	0.677422	0.194877	0.862593
	O9965	O	0.677365	0.311033	0.862556
	O9966	O	0.677416	0.310674	0.760636
	O9967	O	0.700468	0.311298	0.760591
	H9968	H	0.650620	0.644297	0.835809
	H9969	H	0.650599	0.861320	0.835760
	H9970	H	0.650582	0.144051	0.835791
	H9971	H	0.650581	0.361072	0.835767
	H9972	H	0.650594	0.861883	0.787302
	H9973	H	0.650668	0.644899	0.787430
	H9974	H	0.650631	0.361088	0.787443
	H9975	H	0.650647	0.144804	0.787447
	H9976	H	0.750412	0.064073	0.811735
	H9977	H	0.750803	0.064837	0.812461
	H9978	H	0.750764	0.940787	0.812482
	H9979	H	0.750361	0.941273	0.811727
	H9980	H	0.751017	0.064064	0.810710
	H9981	H	0.751061	0.941255	0.810682
	H9982	H	0.624348	0.064860	0.810732
	H9983	H	0.624369	0.941262	0.810737
	H9984	H	0.624484	0.064499	0.812649
	H9985	H	0.624412	0.941574	0.812610
	H9986	H	0.626743	0.064998	0.813868
	H9987	H	0.626672	0.941237	0.813804
	H9988	H	0.623792	0.441734	0.811984
	H9989	H	0.625037	0.441547	0.813889
	H9990	H	0.625235	0.441641	0.809228
	H9991	H	0.749933	0.441318	0.813132
	H9992	H	0.749530	0.441134	0.810716
	H9993	H	0.750919	0.441458	0.809671
	H9994	H	0.625039	0.564844	0.813897
	H9995	H	0.623812	0.564669	0.811968
	H9996	H	0.750866	0.564364	0.809542
	H9997	H	0.749528	0.564908	0.810723
	H9998	H	0.749903	0.564807	0.813120
	H9999	H	0.625227	0.564831	0.809226
	H10000	H	0.727236	0.644226	0.835839
	H10001	H	0.727258	0.861129	0.835784
	H10002	H	0.727276	0.144399	0.835850
	H10003	H	0.727231	0.361134	0.835804
	H10004	H	0.664866	0.644498	0.773360
	H10005	H	0.713179	0.644623	0.773270
	H10006	H	0.713100	0.861449	0.773331
	H10007	H	0.664799	0.861674	0.773204
	H10008	H	0.727345	0.644735	0.787436
	H10009	H	0.727250	0.861247	0.787496
	H10010	H	0.713067	0.644430	0.850001
	H10011	H	0.713115	0.861264	0.849948
	H10012	H	0.689437	0.441390	0.747920
	H10013	H	0.686012	0.441265	0.874335
	H10014	H	0.690150	0.441298	0.749066
	H10015	H	0.689703	0.441176	0.750002
	H10016	H	0.690608	0.441405	0.876395
	H10017	H	0.688227	0.441200	0.876875
	H10018	H	0.685954	0.564562	0.874400
	H10019	H	0.689424	0.564603	0.747951
	H10020	H	0.688154	0.564602	0.876965
	H10021	H	0.690600	0.564543	0.876483
	H10022	H	0.689772	0.564410	0.749977
	H10023	H	0.690217	0.564738	0.749076
	H10024	H	0.713146	0.144434	0.850013
	H10025	H	0.713073	0.361443	0.849923
	H10026	H	0.689071	0.064190	0.750287
	H10027	H	0.689946	0.064526	0.749822
	H10028	H	0.687912	0.063989	0.749535
	H10029	H	0.664760	0.861176	0.849907
	H10030	H	0.664749	0.644503	0.849941
	H10031	H	0.664735	0.361105	0.849913
	H10032	H	0.664754	0.143960	0.849946
	H10033	H	0.664785	0.144699	0.773298
	H10034	H	0.713148	0.144465	0.773261
	H10035	H	0.713092	0.361749	0.773290
	H10036	H	0.664785	0.361053	0.773279
	H10037	H	0.727305	0.144488	0.787401
	H10038	H	0.727208	0.361861	0.787450
	H10039	H	0.689903	0.064218	0.873509
	H10040	H	0.689039	0.064004	0.872941
	H10041	H	0.687886	0.064901	0.873586
	H10042	H	0.689965	0.941248	0.749825
	H10043	H	0.689060	0.941122	0.750293
	H10044	H	0.687901	0.940761	0.749609
	H10045	H	0.689907	0.941755	0.873442
	H10046	H	0.689069	0.941272	0.872860
	H10047	H	0.687817	0.941083	0.873528
	Zn10048	Zn	0.626450	0.680433	0.811571
	Zn10049	Zn	0.626386	0.825728	0.811594
	Zn10050	Zn	0.626473	0.180352	0.811597
	Zn10051	Zn	0.626477	0.325631	0.811588
	Zn10052	Zn	0.688887	0.680144	0.874155
	Zn10053	Zn	0.688899	0.825687	0.874110
	Zn10054	Zn	0.688925	0.180141	0.874139
	Zn10055	Zn	0.688928	0.325666	0.874074
	C10056	C	0.736633	0.752844	0.796825
	C10057	C	0.641252	0.753051	0.826399
	C10058	C	0.649761	0.752889	0.834913
	C10059	C	0.653755	0.691515	0.838937
	C10060	C	0.653733	0.814201	0.838909
	C10061	C	0.641250	0.252739	0.826435
	C10062	C	0.649735	0.252571	0.834961
	C10063	C	0.653740	0.191124	0.838946
	C10064	C	0.653738	0.313973	0.838930
	C10065	C	0.641240	0.753203	0.796732
	C10066	C	0.649774	0.753428	0.788253
	C10067	C	0.653765	0.814705	0.784207
	C10068	C	0.653806	0.691956	0.784299
	C10069	C	0.641315	0.253200	0.796826
	C10070	C	0.649808	0.253023	0.788291
	C10071	C	0.653782	0.314165	0.784275
	C10072	C	0.653795	0.191783	0.784279
	C10073	C	0.750825	0.043089	0.811980
	C10074	C	0.750804	0.962254	0.811965
	C10075	C	0.624958	0.043369	0.811667
	C10076	C	0.624935	0.962795	0.811648
	C10077	C	0.627245	0.043459	0.812897
	C10078	C	0.627201	0.962621	0.812909
	C10079	C	0.624960	0.462746	0.812589
	C10080	C	0.750931	0.462613	0.812962
	C10081	C	0.750542	0.462534	0.810555
	C10082	C	0.624978	0.543496	0.812565
	C10083	C	0.750528	0.543419	0.810557
	C10084	C	0.750912	0.543176	0.812978
	C10085	C	0.736637	0.752675	0.826479
	C10086	C	0.736639	0.252712	0.826496
	C10087	C	0.728088	0.752679	0.834983
	C10088	C	0.724079	0.691373	0.838983
	C10089	C	0.724090	0.814066	0.838950
	C10090	C	0.728091	0.252768	0.834987
	C10091	C	0.724105	0.191421	0.838988
	C10092	C	0.724066	0.314139	0.838952
	C10093	C	0.736620	0.253141	0.796815
	C10094	C	0.703763	0.752906	0.763930
	C10095	C	0.674152	0.753018	0.763883
	C10096	C	0.674128	0.752878	0.859284
	C10097	C	0.724141	0.691702	0.784306
	C10098	C	0.724087	0.814263	0.784345
	C10099	C	0.712290	0.752941	0.772445
	C10100	C	0.665646	0.753126	0.772419
	C10101	C	0.661669	0.691711	0.776461
	C10102	C	0.716308	0.691695	0.776432
	C10103	C	0.716256	0.814261	0.776463
	C10104	C	0.661630	0.814651	0.776374
	C10105	C	0.728125	0.752914	0.788312
	C10106	C	0.703703	0.752861	0.859345
	C10107	C	0.716219	0.691474	0.846833
	C10108	C	0.716234	0.814066	0.846803
	C10109	C	0.712215	0.752795	0.850827
	C10110	C	0.687052	0.462503	0.873424
	C10111	C	0.689675	0.462565	0.749410
	C10112	C	0.689270	0.462519	0.875962
	C10113	C	0.687039	0.543310	0.873437
	C10114	C	0.689263	0.543197	0.876019
	C10115	C	0.689712	0.543344	0.749417
	C10116	C	0.703737	0.253028	0.859311
	C10117	C	0.716243	0.191488	0.846824
	C10118	C	0.716200	0.314241	0.846782
	C10119	C	0.712219	0.252880	0.850787
	C10120	C	0.689378	0.042959	0.749813
	C10121	C	0.703743	0.253312	0.763917
	C10122	C	0.674132	0.252700	0.763892
	C10123	C	0.674118	0.252855	0.859288
	C10124	C	0.724137	0.191779	0.784265
	C10125	C	0.724092	0.314608	0.784284
	C10126	C	0.712250	0.253139	0.772433
	C10127	C	0.665631	0.252869	0.772410
	C10128	C	0.665622	0.752899	0.850757
	C10129	C	0.661606	0.814156	0.846746
	C10130	C	0.661623	0.691595	0.846774
	C10131	C	0.665602	0.252568	0.850774
	C10132	C	0.661596	0.313945	0.846775
	C10133	C	0.661597	0.191115	0.846798
	C10134	C	0.661634	0.191704	0.776411
	C10135	C	0.716277	0.191748	0.776417
	C10136	C	0.716242	0.314550	0.776430
	C10137	C	0.661624	0.314046	0.776415
	C10138	C	0.728118	0.253206	0.788287
	C10139	C	0.689327	0.042887	0.873450
	C10140	C	0.688204	0.043000	0.749073
	C10141	C	0.689376	0.962312	0.749823
	C10142	C	0.689313	0.962683	0.873408
	C10143	C	0.688215	0.962273	0.749091
	N10144	N	0.626470	0.070221	0.811644
	N10145	N	0.626424	0.935777	0.811628
	N10146	N	0.626475	0.435713	0.811593
	N10147	N	0.626479	0.570150	0.811590
	N10148	N	0.688901	0.435642	0.874066
	N10149	N	0.688898	0.570090	0.874107
	N10150	N	0.688904	0.070159	0.874124
	N10151	N	0.688858	0.935693	0.874105
	O10152	O	0.739774	0.695177	0.925197
	O10153	O	0.739826	0.810998	0.925202
	O10154	O	0.637914	0.694968	0.948186
	O10155	O	0.637970	0.810865	0.948093
	O10156	O	0.637855	0.195085	0.948260
	O10157	O	0.637868	0.311163	0.948174
	O10158	O	0.637905	0.694975	0.925067
	O10159	O	0.637996	0.810968	0.925146
	O10160	O	0.638024	0.195187	0.925189
	O10161	O	0.637983	0.310949	0.925154
	O10162	O	0.739849	0.695408	0.948299
	O10163	O	0.739802	0.811307	0.948202
	O10164	O	0.739773	0.195420	0.948202
	O10165	O	0.739777	0.311234	0.948220
	O10166	O	0.739776	0.194980	0.925177
	O10167	O	0.739792	0.310940	0.925191
	O10168	O	0.700407	0.695227	0.885688
	O10169	O	0.677366	0.694917	0.885676
	O10170	O	0.700358	0.695409	0.987665
	O10171	O	0.700410	0.811309	0.987774
	O10172	O	0.677386	0.694860	0.987651
	O10173	O	0.677341	0.810819	0.987702
	O10174	O	0.677392	0.810875	0.885669
	O10175	O	0.700429	0.811085	0.885657
	O10176	O	0.700432	0.195126	0.885650
	O10177	O	0.677383	0.195161	0.885647
	O10178	O	0.700438	0.195408	0.987736
	O10179	O	0.700367	0.311284	0.987733
	O10180	O	0.677358	0.194936	0.987642
	O10181	O	0.677394	0.310941	0.987625
	O10182	O	0.677366	0.311171	0.885595
	O10183	O	0.700422	0.311107	0.885651
	H10184	H	0.650562	0.644451	0.960895
	H10185	H	0.650603	0.861711	0.960807
	H10186	H	0.650413	0.144703	0.960952
	H10187	H	0.650666	0.361910	0.960740
	H10188	H	0.650617	0.861372	0.912472
	H10189	H	0.650586	0.644664	0.912456
	H10190	H	0.650648	0.361347	0.912491
	H10191	H	0.650638	0.144957	0.912469
	H10192	H	0.750862	0.064716	0.936395
	H10193	H	0.750749	0.064727	0.936831
	H10194	H	0.750753	0.941259	0.936824
	H10195	H	0.750921	0.941021	0.936321
	H10196	H	0.751561	0.064424	0.936116
	H10197	H	0.751632	0.941367	0.936215
	H10198	H	0.626301	0.064839	0.937065
	H10199	H	0.626253	0.940937	0.937049
	H10200	H	0.626606	0.064317	0.937009
	H10201	H	0.626573	0.941454	0.937019
	H10202	H	0.626773	0.064330	0.936608
	H10203	H	0.626777	0.941104	0.936594
	H10204	H	0.627822	0.441220	0.935950
	H10205	H	0.626765	0.440903	0.935073
	H10206	H	0.627479	0.441427	0.937752
	H10207	H	0.750940	0.441470	0.936407
	H10208	H	0.751527	0.441561	0.936302
	H10209	H	0.751728	0.441278	0.936654
	H10210	H	0.626845	0.564287	0.935080
	H10211	H	0.627850	0.564728	0.935977
	H10212	H	0.751760	0.564248	0.936608
	H10213	H	0.751517	0.564454	0.936306
	H10214	H	0.750982	0.564650	0.936396
	H10215	H	0.627488	0.564433	0.937748
	H10216	H	0.727204	0.645171	0.960940
	H10217	H	0.727202	0.862014	0.960982
	H10218	H	0.727167	0.145467	0.960916
	H10219	H	0.727129	0.361566	0.960875
	H10220	H	0.664747	0.644795	0.898322
	H10221	H	0.713139	0.644820	0.898264
	H10222	H	0.713050	0.861591	0.898322
	H10223	H	0.664782	0.861155	0.898382
	H10224	H	0.727209	0.644953	0.912499
	H10225	H	0.727147	0.861825	0.912527
	H10226	H	0.713064	0.645092	0.975089
	H10227	H	0.713081	0.861773	0.975157
	H10228	H	0.686786	0.441082	0.872057
	H10229	H	0.689681	0.441293	1.000686
	H10230	H	0.690098	0.441448	0.871384
	H10231	H	0.691687	0.441277	0.873210
	H10232	H	0.689678	0.441418	0.997802
	H10233	H	0.690476	0.441273	0.998940
	H10234	H	0.689712	0.564505	1.000591
	H10235	H	0.686806	0.564512	0.872039
	H10236	H	0.690470	0.564394	0.998877
	H10237	H	0.689659	0.564539	0.997738
	H10238	H	0.691698	0.564384	0.873257
	H10239	H	0.690064	0.564624	0.871417
	H10240	H	0.713070	0.145698	0.975100
	H10241	H	0.713019	0.361396	0.975073
	H10242	H	0.688958	0.064224	0.875252
	H10243	H	0.689818	0.064583	0.874805
	H10244	H	0.687874	0.064544	0.874564
	H10245	H	0.664752	0.861608	0.974934
	H10246	H	0.664714	0.644523	0.975046
	H10247	H	0.664856	0.361777	0.974882
	H10248	H	0.664603	0.144324	0.975081
	H10249	H	0.664755	0.144881	0.898302
	H10250	H	0.713085	0.145306	0.898240
	H10251	H	0.713094	0.361574	0.898335
	H10252	H	0.664750	0.361320	0.898307
	H10253	H	0.727181	0.145079	0.912439
	H10254	H	0.727198	0.361152	0.912538
	H10255	H	0.689129	0.063900	0.999552
	H10256	H	0.689301	0.064770	0.999212
	H10257	H	0.689054	0.065113	0.998837
	H10258	H	0.689847	0.941148	0.874816
	H10259	H	0.688896	0.941695	0.875339
	H10260	H	0.687746	0.941201	0.874559
	H10261	H	0.689184	0.941802	0.999624
	H10262	H	0.689328	0.940943	0.999231
	H10263	H	0.689078	0.941569	0.998890
	Zn10264	Zn	0.626428	0.679987	0.936596
	Zn10265	Zn	0.626387	0.825454	0.936605
	Zn10266	Zn	0.626401	0.179862	0.936643
	Zn10267	Zn	0.626334	0.325397	0.936617
	Zn10268	Zn	0.688860	0.679974	0.999174
	Zn10269	Zn	0.688853	0.825823	0.999297
	Zn10270	Zn	0.688871	0.179920	0.999146
	Zn10271	Zn	0.688811	0.325832	0.999259
	C10272	C	0.736542	0.753170	0.921890
	C10273	C	0.641214	0.752977	0.951435
	C10274	C	0.649709	0.753068	0.959961
	C10275	C	0.653719	0.691675	0.963997
	C10276	C	0.653727	0.814494	0.963948
	C10277	C	0.641153	0.253211	0.951488
	C10278	C	0.649678	0.253261	0.960002
	C10279	C	0.653617	0.191851	0.964060
	C10280	C	0.653751	0.314616	0.963946
	C10281	C	0.641234	0.753002	0.921831
	C10282	C	0.649780	0.753051	0.913337
	C10283	C	0.653794	0.814307	0.909360
	C10284	C	0.653754	0.691713	0.909339
	C10285	C	0.641281	0.253086	0.921871
	C10286	C	0.649764	0.253121	0.913317
	C10287	C	0.653759	0.314284	0.909319
	C10288	C	0.653764	0.191971	0.909314
	C10289	C	0.750943	0.043387	0.936642
	C10290	C	0.750973	0.962468	0.936634
	C10291	C	0.626429	0.043127	0.936930
	C10292	C	0.626415	0.962326	0.936944
	C10293	C	0.626611	0.043133	0.936502
	C10294	C	0.626594	0.962251	0.936501
	C10295	C	0.627048	0.462305	0.935793
	C10296	C	0.750998	0.462531	0.936643
	C10297	C	0.751529	0.462594	0.936541
	C10298	C	0.627081	0.543237	0.935805
	C10299	C	0.751541	0.543116	0.936531
	C10300	C	0.751023	0.543341	0.936629
	C10301	C	0.736521	0.753420	0.951518
	C10302	C	0.736474	0.253370	0.951480
	C10303	C	0.727990	0.753570	0.960022
	C10304	C	0.724032	0.692215	0.964052
	C10305	C	0.724028	0.814879	0.964088
	C10306	C	0.727961	0.253510	0.959988
	C10307	C	0.724003	0.192468	0.964037
	C10308	C	0.723983	0.314588	0.964024
	C10309	C	0.736502	0.252976	0.921910
	C10310	C	0.703701	0.753181	0.888952
	C10311	C	0.674108	0.752986	0.888955
	C10312	C	0.674092	0.752864	0.984372
	C10313	C	0.724056	0.691988	0.909345
	C10314	C	0.724006	0.814711	0.909367
	C10315	C	0.712201	0.753216	0.897473
	C10316	C	0.665605	0.753006	0.897497
	C10317	C	0.661598	0.691761	0.901473
	C10318	C	0.716215	0.691888	0.901479
	C10319	C	0.716169	0.814639	0.901496
	C10320	C	0.661624	0.814258	0.901492
	C10321	C	0.728022	0.753388	0.913359
	C10322	C	0.703641	0.753433	0.984426
	C10323	C	0.716171	0.692196	0.971900
	C10324	C	0.716175	0.814751	0.971945
	C10325	C	0.712149	0.753413	0.975896
	C10326	C	0.688944	0.462587	1.000311
	C10327	C	0.690354	0.462604	0.872775
	C10328	C	0.689750	0.462701	0.998584
	C10329	C	0.688980	0.543330	1.000286
	C10330	C	0.689758	0.543230	0.998569
	C10331	C	0.690364	0.543315	0.872792
	C10332	C	0.703666	0.253407	0.984429
	C10333	C	0.716185	0.192511	0.971911
	C10334	C	0.716158	0.314567	0.971904
	C10335	C	0.712157	0.253494	0.975891
	C10336	C	0.689248	0.043292	0.874803
	C10337	C	0.703681	0.253167	0.888962
	C10338	C	0.674078	0.253208	0.888895
	C10339	C	0.674087	0.252949	0.984343
	C10340	C	0.724030	0.191994	0.909314
	C10341	C	0.724052	0.314395	0.909365
	C10342	C	0.712181	0.253441	0.897490
	C10343	C	0.665563	0.253163	0.897405
	C10344	C	0.665565	0.753012	0.975832
	C10345	C	0.661581	0.814449	0.971805
	C10346	C	0.661565	0.691668	0.971863
	C10347	C	0.665554	0.253037	0.975837
	C10348	C	0.661618	0.314581	0.971788
	C10349	C	0.661483	0.191619	0.971895
	C10350	C	0.661606	0.191925	0.901449
	C10351	C	0.716203	0.192220	0.901437
	C10352	C	0.716208	0.314538	0.901511
	C10353	C	0.661611	0.314384	0.901462
	C10354	C	0.727987	0.253070	0.913391
	C10355	C	0.689139	0.043065	0.999337
	C10356	C	0.688133	0.043598	0.874090
	C10357	C	0.689244	0.962541	0.874821
	C10358	C	0.689160	0.962476	0.999365
	C10359	C	0.688071	0.962382	0.874053
	N10360	N	0.626400	0.069892	0.936683
	N10361	N	0.626379	0.935461	0.936699
	N10362	N	0.626366	0.435617	0.936593
	N10363	N	0.626412	0.570056	0.936612
	N10364	N	0.688846	0.435762	0.999233
	N10365	N	0.688872	0.570130	0.999205
	N10366	N	0.688889	0.069969	0.999195
	N10367	N	0.688915	0.935620	0.999254
	O10368	O	0.864909	0.695201	0.050068
	O10369	O	0.864837	0.810916	0.050173
	O10370	O	0.762909	0.695125	0.073213
	O10371	O	0.762892	0.811053	0.073254
	O10372	O	0.762810	0.195056	0.073315
	O10373	O	0.762894	0.311156	0.073184
	O10374	O	0.762925	0.694751	0.050208
	O10375	O	0.762862	0.810674	0.050175
	O10376	O	0.762832	0.194868	0.050149
	O10377	O	0.762930	0.310737	0.050220
	O10378	O	0.864839	0.694469	0.073146
	O10379	O	0.864889	0.810190	0.073153
	O10380	O	0.864866	0.194738	0.073126
	O10381	O	0.864932	0.310860	0.073186
	O10382	O	0.864840	0.195047	0.050202
	O10383	O	0.864984	0.310909	0.050115
	O10384	O	0.825454	0.695255	0.010660
	O10385	O	0.802352	0.694546	0.010720
	O10386	O	0.825494	0.695068	0.112676
	O10387	O	0.825527	0.810878	0.112614
	O10388	O	0.802469	0.694825	0.112597
	O10389	O	0.802478	0.810748	0.112586
	O10390	O	0.802285	0.810524	0.010692
	O10391	O	0.825359	0.811083	0.010726
	O10392	O	0.825348	0.195162	0.010745
	O10393	O	0.802409	0.194874	0.010774
	O10394	O	0.825436	0.194898	0.112580
	O10395	O	0.825521	0.310680	0.112630
	O10396	O	0.802403	0.195200	0.112562
	O10397	O	0.802409	0.311097	0.112567
	O10398	O	0.802272	0.310572	0.010627
	O10399	O	0.825465	0.311276	0.010642
	H10400	H	0.775539	0.644503	0.085906
	H10401	H	0.775597	0.861395	0.085883
	H10402	H	0.775526	0.144584	0.085851
	H10403	H	0.775544	0.362127	0.085852
	H10404	H	0.775557	0.860975	0.037537
	H10405	H	0.775573	0.644429	0.037606
	H10406	H	0.775527	0.360669	0.037506
	H10407	H	0.775527	0.144464	0.037475
	H10408	H	0.876405	0.064625	0.063125
	H10409	H	0.877483	0.064952	0.062573
	H10410	H	0.877480	0.941639	0.062567
	H10411	H	0.876408	0.941368	0.063159
	H10412	H	0.875007	0.064735	0.062203
	H10413	H	0.874995	0.941426	0.062324
	H10414	H	0.751832	0.064452	0.060761
	H10415	H	0.751876	0.941020	0.060788
	H10416	H	0.750943	0.064432	0.060751
	H10417	H	0.750932	0.941199	0.060743
	H10418	H	0.750240	0.064548	0.061746
	H10419	H	0.750200	0.941450	0.061798
	H10420	H	0.751633	0.441177	0.061529
	H10421	H	0.751349	0.441376	0.061385
	H10422	H	0.751620	0.441466	0.061911
	H10423	H	0.877104	0.441702	0.062332
	H10424	H	0.876031	0.441529	0.062482
	H10425	H	0.875522	0.441772	0.061867
	H10426	H	0.751421	0.564176	0.061422
	H10427	H	0.751619	0.564379	0.061524
	H10428	H	0.875492	0.565155	0.061954
	H10429	H	0.876072	0.565160	0.062561
	H10430	H	0.877105	0.564558	0.062285
	H10431	H	0.751626	0.564762	0.061941
	H10432	H	0.852188	0.644046	0.085841
	H10433	H	0.852303	0.860298	0.085844
	H10434	H	0.852387	0.144293	0.085878
	H10435	H	0.852165	0.360951	0.085729
	H10436	H	0.789707	0.644373	0.023421
	H10437	H	0.838035	0.645482	0.023365
	H10438	H	0.838050	0.860873	0.023355
	H10439	H	0.789687	0.860720	0.023392
	H10440	H	0.852170	0.645161	0.037513
	H10441	H	0.852215	0.861060	0.037491
	H10442	H	0.838075	0.644239	0.100010
	H10443	H	0.838202	0.860542	0.100039
	H10444	H	0.814430	0.441325	0.000059
	H10445	H	0.813879	0.440891	0.123551
	H10446	H	0.813241	0.441242	0.000102
	H10447	H	0.812806	0.441494	-0.000675
	H10448	H	0.813665	0.441511	0.124488
	H10449	H	0.813478	0.441080	0.124078
	H10450	H	0.813890	0.564389	0.123596
	H10451	H	0.814397	0.564195	0.000077
	H10452	H	0.813459	0.564647	0.124077
	H10453	H	0.813636	0.564798	0.124486
	H10454	H	0.812754	0.564368	-0.000712
	H10455	H	0.813237	0.564623	0.000058
	H10456	H	0.838233	0.144283	0.100030
	H10457	H	0.838029	0.361054	0.099870
	H10458	H	0.813315	0.064208	-0.002223
	H10459	H	0.812350	0.064720	-0.001308
	H10460	H	0.815010	0.064583	-0.001804
	H10461	H	0.789804	0.861186	0.099994
	H10462	H	0.789750	0.644424	0.100002
	H10463	H	0.789765	0.361614	0.099928
	H10464	H	0.789766	0.144692	0.099921
	H10465	H	0.789712	0.144900	0.023381
	H10466	H	0.838067	0.144544	0.023339
	H10467	H	0.838090	0.361719	0.023354
	H10468	H	0.789709	0.360596	0.023376
	H10469	H	0.852179	0.144175	0.037520
	H10470	H	0.852208	0.361805	0.037509
	H10471	H	0.815368	0.064842	0.124648
	H10472	H	0.815267	0.064910	0.123361
	H10473	H	0.813619	0.064454	0.122584
	H10474	H	0.812373	0.941782	-0.001340
	H10475	H	0.813250	0.941717	-0.002246
	H10476	H	0.815013	0.941525	-0.001738
	H10477	H	0.815451	0.941384	0.124642
	H10478	H	0.815321	0.941447	0.123273
	H10479	H	0.813597	0.941024	0.122522
	Zn10480	Zn	0.751386	0.680039	0.061709
	Zn10481	Zn	0.751333	0.825878	0.061725
	Zn10482	Zn	0.751351	0.180092	0.061716
	Zn10483	Zn	0.751354	0.325826	0.061711
	Zn10484	Zn	0.813966	0.680071	0.124147
	Zn10485	Zn	0.813976	0.825458	0.124103
	Zn10486	Zn	0.813922	0.180216	0.124139
	Zn10487	Zn	0.814018	0.325383	0.124076
	C10488	C	0.861591	0.753127	0.046827
	C10489	C	0.766158	0.753075	0.076555
	C10490	C	0.774691	0.752994	0.085059
	C10491	C	0.778711	0.691652	0.089038
	C10492	C	0.778740	0.814218	0.089036
	C10493	C	0.766123	0.253162	0.076532
	C10494	C	0.774644	0.253324	0.085039
	C10495	C	0.778673	0.191809	0.088999
	C10496	C	0.778673	0.314784	0.088998
	C10497	C	0.766188	0.752732	0.046920
	C10498	C	0.774702	0.752725	0.038398
	C10499	C	0.778693	0.813948	0.034392
	C10500	C	0.778699	0.691378	0.034417
	C10501	C	0.766174	0.252736	0.046903
	C10502	C	0.774678	0.252596	0.038381
	C10503	C	0.778685	0.313693	0.034372
	C10504	C	0.778684	0.191571	0.034366
	C10505	C	0.876794	0.043508	0.062544
	C10506	C	0.876801	0.962697	0.062558
	C10507	C	0.751378	0.043322	0.061027
	C10508	C	0.751360	0.962605	0.061030
	C10509	C	0.750674	0.043469	0.062053
	C10510	C	0.750673	0.962773	0.062062
	C10511	C	0.751478	0.462503	0.061536
	C10512	C	0.877067	0.462753	0.061874
	C10513	C	0.875975	0.462841	0.062066
	C10514	C	0.751480	0.543117	0.061544
	C10515	C	0.875957	0.543844	0.062079
	C10516	C	0.877021	0.543406	0.061834
	C10517	C	0.861591	0.752332	0.076447
	C10518	C	0.861620	0.252791	0.076437
	C10519	C	0.853102	0.752287	0.084955
	C10520	C	0.849079	0.691158	0.088972
	C10521	C	0.849150	0.813381	0.088988
	C10522	C	0.853108	0.252605	0.084953
	C10523	C	0.849178	0.191315	0.088989
	C10524	C	0.849063	0.313893	0.088920
	C10525	C	0.861632	0.253012	0.046865
	C10526	C	0.828699	0.753199	0.013972
	C10527	C	0.799049	0.752462	0.014009
	C10528	C	0.799135	0.752784	0.109353
	C10529	C	0.849060	0.692195	0.034339
	C10530	C	0.849080	0.814183	0.034335
	C10531	C	0.837214	0.753307	0.022489
	C10532	C	0.790536	0.752469	0.022526
	C10533	C	0.786536	0.691355	0.026548
	C10534	C	0.841195	0.692274	0.026500
	C10535	C	0.841205	0.814234	0.026502
	C10536	C	0.786539	0.813730	0.026539
	C10537	C	0.853097	0.753167	0.038316
	C10538	C	0.828794	0.752830	0.109356
	C10539	C	0.841251	0.691139	0.096843
	C10540	C	0.841315	0.813534	0.096854
	C10541	C	0.837298	0.752461	0.100840
	C10542	C	0.814074	0.462280	0.123753
	C10543	C	0.813236	0.462510	-0.000426
	C10544	C	0.813670	0.462466	0.124235
	C10545	C	0.814066	0.543148	0.123766
	C10546	C	0.813668	0.543263	0.124238
	C10547	C	0.813227	0.543378	-0.000441
	C10548	C	0.828740	0.252692	0.109308
	C10549	C	0.841334	0.191293	0.096852
	C10550	C	0.841219	0.313903	0.096777
	C10551	C	0.837264	0.252551	0.100798
	C10552	C	0.813074	0.043094	-0.001511
	C10553	C	0.828688	0.253184	0.013983
	C10554	C	0.799045	0.252731	0.013984
	C10555	C	0.799097	0.253160	0.109299
	C10556	C	0.849072	0.191540	0.034362
	C10557	C	0.849091	0.314513	0.034359
	C10558	C	0.837227	0.253113	0.022497
	C10559	C	0.790526	0.252715	0.022502
	C10560	C	0.790585	0.752834	0.100888
	C10561	C	0.786621	0.814151	0.096862
	C10562	C	0.786591	0.691591	0.096869
	C10563	C	0.790538	0.253173	0.100840
	C10564	C	0.786554	0.314602	0.096819
	C10565	C	0.786551	0.191772	0.096824
	C10566	C	0.786543	0.191691	0.026516
	C10567	C	0.841214	0.191660	0.026504
	C10568	C	0.841227	0.314510	0.026508
	C10569	C	0.786540	0.313730	0.026512
	C10570	C	0.853108	0.253015	0.038364
	C10571	C	0.814967	0.043468	0.124036
	C10572	C	0.814811	0.043568	-0.001030
	C10573	C	0.813078	0.962848	-0.001503
	C10574	C	0.815000	0.962623	0.124009
	C10575	C	0.814809	0.962613	-0.001032
	N10576	N	0.751305	0.070282	0.061760
	N10577	N	0.751292	0.935841	0.061735
	N10578	N	0.751357	0.435669	0.061725
	N10579	N	0.751366	0.570045	0.061736
	N10580	N	0.814048	0.435504	0.124108
	N10581	N	0.814021	0.569960	0.124119
	N10582	N	0.813911	0.070094	0.124111
	N10583	N	0.813930	0.935641	0.124086
	O10584	O	0.864935	0.694727	0.175104
	O10585	O	0.864912	0.810378	0.175149
	O10586	O	0.763061	0.694741	0.198088
	O10587	O	0.762950	0.810488	0.198150
	O10588	O	0.762968	0.195052	0.198153
	O10589	O	0.762937	0.310732	0.198147
	O10590	O	0.762941	0.694684	0.175112
	O10591	O	0.762890	0.810497	0.175076
	O10592	O	0.762993	0.195111	0.175132
	O10593	O	0.762886	0.310942	0.175066
	O10594	O	0.864915	0.694499	0.198107
	O10595	O	0.864935	0.810519	0.198220
	O10596	O	0.864987	0.194849	0.198119
	O10597	O	0.865023	0.310901	0.198188
	O10598	O	0.864929	0.194958	0.175121
	O10599	O	0.864928	0.310805	0.175106
	O10600	O	0.825559	0.694648	0.135566
	O10601	O	0.802433	0.694291	0.135690
	O10602	O	0.825406	0.694375	0.237543
	O10603	O	0.825540	0.810452	0.237679
	O10604	O	0.802393	0.694983	0.237613
	O10605	O	0.802366	0.810955	0.237641
	O10606	O	0.802449	0.810395	0.135663
	O10607	O	0.825466	0.810522	0.135653
	O10608	O	0.825433	0.194723	0.135663
	O10609	O	0.802421	0.195199	0.135655
	O10610	O	0.825467	0.194831	0.237512
	O10611	O	0.825488	0.310737	0.237538
	O10612	O	0.802415	0.194856	0.237611
	O10613	O	0.802415	0.310822	0.237550
	O10614	O	0.802457	0.311019	0.135625
	O10615	O	0.825588	0.310481	0.135578
	H10616	H	0.775721	0.644808	0.210727
	H10617	H	0.775589	0.861071	0.210796
	H10618	H	0.775531	0.144902	0.210860
	H10619	H	0.775594	0.360866	0.210776
	H10620	H	0.775620	0.861104	0.162429
	H10621	H	0.775607	0.643868	0.162442
	H10622	H	0.775554	0.361713	0.162377
	H10623	H	0.775648	0.144709	0.162448
	H10624	H	0.874927	0.064398	0.186092
	H10625	H	0.875020	0.064851	0.187389
	H10626	H	0.874963	0.941512	0.187378
	H10627	H	0.874824	0.941046	0.186086
	H10628	H	0.876398	0.064175	0.185002
	H10629	H	0.876378	0.941277	0.184994
	H10630	H	0.752119	0.064781	0.187137
	H10631	H	0.752167	0.940932	0.187124
	H10632	H	0.752288	0.064687	0.186487
	H10633	H	0.752259	0.941354	0.186448
	H10634	H	0.751572	0.064545	0.185879
	H10635	H	0.751600	0.941548	0.185852
	H10636	H	0.748321	0.441456	0.186599
	H10637	H	0.749373	0.441144	0.188974
	H10638	H	0.750433	0.441026	0.183743
	H10639	H	0.878162	0.441192	0.188395
	H10640	H	0.875414	0.441036	0.188825
	H10641	H	0.874109	0.441415	0.187242
	H10642	H	0.749391	0.564631	0.188970
	H10643	H	0.748358	0.564306	0.186610
	H10644	H	0.874091	0.564125	0.187316
	H10645	H	0.875440	0.564121	0.188921
	H10646	H	0.878293	0.564547	0.188392
	H10647	H	0.750474	0.564057	0.183709
	H10648	H	0.852283	0.643542	0.210782
	H10649	H	0.852262	0.861064	0.210797
	H10650	H	0.852412	0.144392	0.210833
	H10651	H	0.852381	0.360975	0.210838
	H10652	H	0.789784	0.643873	0.148329
	H10653	H	0.838161	0.644895	0.148211
	H10654	H	0.838139	0.860563	0.148314
	H10655	H	0.789793	0.860877	0.148287
	H10656	H	0.852238	0.644535	0.162408
	H10657	H	0.852257	0.860450	0.162499
	H10658	H	0.838112	0.643747	0.224929
	H10659	H	0.838120	0.860836	0.224963
	H10660	H	0.814325	0.441219	0.123632
	H10661	H	0.813566	0.441037	0.247647
	H10662	H	0.814556	0.441140	0.124227
	H10663	H	0.814296	0.441182	0.124588
	H10664	H	0.812833	0.441257	0.250127
	H10665	H	0.812473	0.440834	0.248951
	H10666	H	0.813571	0.564440	0.247611
	H10667	H	0.814303	0.564344	0.123665
	H10668	H	0.812408	0.564436	0.248914
	H10669	H	0.812825	0.564166	0.250135
	H10670	H	0.814241	0.564277	0.124581
	H10671	H	0.814523	0.564082	0.124277
	H10672	H	0.838159	0.144361	0.224904
	H10673	H	0.838171	0.361200	0.224902
	H10674	H	0.812720	0.063959	0.125112
	H10675	H	0.813887	0.064126	0.125637
	H10676	H	0.812565	0.064314	0.123335
	H10677	H	0.789695	0.861053	0.224982
	H10678	H	0.789837	0.644958	0.224933
	H10679	H	0.789747	0.360686	0.224916
	H10680	H	0.789735	0.144781	0.224962
	H10681	H	0.789779	0.144874	0.148293
	H10682	H	0.838051	0.144558	0.148357
	H10683	H	0.838038	0.360680	0.148373
	H10684	H	0.789683	0.361824	0.148217
	H10685	H	0.852199	0.144536	0.162517
	H10686	H	0.852164	0.360827	0.162563
	H10687	H	0.812390	0.064487	0.249383
	H10688	H	0.813168	0.064042	0.250503
	H10689	H	0.815046	0.064935	0.250310
	H10690	H	0.813953	0.941345	0.125685
	H10691	H	0.812693	0.940936	0.125111
	H10692	H	0.812540	0.941069	0.123267
	H10693	H	0.812404	0.941238	0.249423
	H10694	H	0.813180	0.941546	0.250529
	H10695	H	0.815018	0.941483	0.250321
	Zn10696	Zn	0.751433	0.680126	0.186629
	Zn10697	Zn	0.751415	0.825591	0.186659
	Zn10698	Zn	0.751444	0.180301	0.186664
	Zn10699	Zn	0.751365	0.325613	0.186669
	Zn10700	Zn	0.813909	0.679967	0.249133
	Zn10701	Zn	0.813985	0.825719	0.249121
	Zn10702	Zn	0.813951	0.180140	0.249095
	Zn10703	Zn	0.813953	0.325637	0.249063
	C10704	C	0.861643	0.752526	0.171816
	C10705	C	0.766301	0.752696	0.201383
	C10706	C	0.774793	0.752871	0.209904
	C10707	C	0.778800	0.691809	0.213909
	C10708	C	0.778726	0.814082	0.213953
	C10709	C	0.766263	0.252914	0.201417
	C10710	C	0.774781	0.252873	0.209919
	C10711	C	0.778745	0.191731	0.213956
	C10712	C	0.778757	0.314006	0.213919
	C10713	C	0.766195	0.752587	0.171808
	C10714	C	0.774744	0.752506	0.163329
	C10715	C	0.778772	0.813859	0.159318
	C10716	C	0.778754	0.691084	0.159330
	C10717	C	0.766225	0.253081	0.171806
	C10718	C	0.774764	0.253187	0.163315
	C10719	C	0.778737	0.314560	0.159274
	C10720	C	0.778780	0.191895	0.159318
	C10721	C	0.875341	0.043325	0.186705
	C10722	C	0.875303	0.962508	0.186710
	C10723	C	0.752024	0.043456	0.186753
	C10724	C	0.752026	0.962386	0.186750
	C10725	C	0.751322	0.043194	0.186142
	C10726	C	0.751336	0.962589	0.186152
	C10727	C	0.749510	0.462484	0.187488
	C10728	C	0.877991	0.462072	0.187204
	C10729	C	0.875212	0.462611	0.187671
	C10730	C	0.749532	0.543190	0.187475
	C10731	C	0.875223	0.543056	0.187717
	C10732	C	0.878046	0.543086	0.187200
	C10733	C	0.861646	0.752385	0.201452
	C10734	C	0.861721	0.252796	0.201430
	C10735	C	0.853119	0.752305	0.209957
	C10736	C	0.849116	0.690798	0.213924
	C10737	C	0.849108	0.813792	0.213947
	C10738	C	0.853210	0.252628	0.209957
	C10739	C	0.849209	0.191352	0.213954
	C10740	C	0.849199	0.313998	0.213959
	C10741	C	0.861636	0.252807	0.171832
	C10742	C	0.828794	0.752583	0.138902
	C10743	C	0.799158	0.752407	0.138966
	C10744	C	0.799103	0.752965	0.234329
	C10745	C	0.849122	0.691498	0.159272
	C10746	C	0.849119	0.813595	0.159327
	C10747	C	0.837300	0.752596	0.147422
	C10748	C	0.790639	0.752424	0.147495
	C10749	C	0.786625	0.691015	0.151485
	C10750	C	0.841290	0.691623	0.151408
	C10751	C	0.841276	0.813637	0.151463
	C10752	C	0.786640	0.813867	0.151474
	C10753	C	0.853125	0.752450	0.163311
	C10754	C	0.828767	0.752381	0.234330
	C10755	C	0.841271	0.690877	0.221783
	C10756	C	0.841262	0.813737	0.221807
	C10757	C	0.837275	0.752290	0.225816
	C10758	C	0.814117	0.462495	0.248076
	C10759	C	0.814288	0.462559	0.124343
	C10760	C	0.812997	0.462437	0.249391
	C10761	C	0.814134	0.543052	0.248092
	C10762	C	0.812973	0.543162	0.249422
	C10763	C	0.814272	0.542920	0.124349
	C10764	C	0.828759	0.252767	0.234241
	C10765	C	0.841339	0.191392	0.221790
	C10766	C	0.841329	0.314020	0.221790
	C10767	C	0.837303	0.252702	0.225747
	C10768	C	0.813477	0.042975	0.125063
	C10769	C	0.828790	0.252516	0.138893
	C10770	C	0.799159	0.253228	0.138943
	C10771	C	0.799150	0.252775	0.234283
	C10772	C	0.849079	0.191516	0.159334
	C10773	C	0.849069	0.313807	0.159354
	C10774	C	0.837287	0.252527	0.147431
	C10775	C	0.790642	0.253376	0.147459
	C10776	C	0.790585	0.752869	0.225799
	C10777	C	0.786561	0.814069	0.221818
	C10778	C	0.786638	0.691787	0.221775
	C10779	C	0.790628	0.252720	0.225777
	C10780	C	0.786592	0.313840	0.221777
	C10781	C	0.786585	0.191687	0.221818
	C10782	C	0.786630	0.191976	0.151454
	C10783	C	0.841225	0.191456	0.151482
	C10784	C	0.841217	0.313758	0.151491
	C10785	C	0.786588	0.314660	0.151411
	C10786	C	0.853107	0.252633	0.163316
	C10787	C	0.813093	0.043132	0.249742
	C10788	C	0.813304	0.043191	0.123252
	C10789	C	0.813479	0.962418	0.125057
	C10790	C	0.813108	0.962500	0.249747
	C10791	C	0.813304	0.962344	0.123222
	N10792	N	0.751515	0.070136	0.186648
	N10793	N	0.751528	0.935665	0.186657
	N10794	N	0.751403	0.435632	0.186669
	N10795	N	0.751439	0.570049	0.186657
	N10796	N	0.813903	0.435645	0.249060
	N10797	N	0.813899	0.570073	0.249113
	N10798	N	0.813975	0.070169	0.249081
	N10799	N	0.813968	0.935769	0.249111
	O10800	O	0.864855	0.694977	0.300199
	O10801	O	0.864851	0.810956	0.300143
	O10802	O	0.762856	0.694078	0.323067
	O10803	O	0.762920	0.810007	0.323059
	O10804	O	0.762841	0.194249	0.323119
	O10805	O	0.762828	0.310103	0.323102
	O10806	O	0.762808	0.694818	0.299873
	O10807	O	0.762983	0.810903	0.300098
	O10808	O	0.762858	0.195155	0.299970
	O10809	O	0.762900	0.311069	0.300072
	O10810	O	0.864961	0.695338	0.323208
	O10811	O	0.864903	0.810785	0.323257
	O10812	O	0.864858	0.194873	0.323169
	O10813	O	0.864759	0.310985	0.323150
	O10814	O	0.864906	0.195035	0.300137
	O10815	O	0.864819	0.310986	0.300199
	O10816	O	0.825441	0.694675	0.260690
	O10817	O	0.802440	0.695032	0.260666
	O10818	O	0.825366	0.695071	0.362564
	O10819	O	0.825340	0.810679	0.362540
	O10820	O	0.802289	0.694328	0.362543
	O10821	O	0.802243	0.810365	0.362529
	O10822	O	0.802411	0.810904	0.260626
	O10823	O	0.825532	0.810692	0.260602
	O10824	O	0.825432	0.194847	0.260676
	O10825	O	0.802385	0.194963	0.260634
	O10826	O	0.825357	0.194816	0.362612
	O10827	O	0.825453	0.310740	0.362682
	O10828	O	0.802363	0.194434	0.362498
	O10829	O	0.802301	0.310400	0.362525
	O10830	O	0.802381	0.310880	0.260605
	O10831	O	0.825488	0.310806	0.260592
	H10832	H	0.775589	0.643711	0.335676
	H10833	H	0.775483	0.860060	0.335739
	H10834	H	0.775451	0.143816	0.335818
	H10835	H	0.775414	0.360165	0.335773
	H10836	H	0.775542	0.860960	0.287375
	H10837	H	0.775605	0.644953	0.287406
	H10838	H	0.775472	0.361471	0.287332
	H10839	H	0.775517	0.144931	0.287409
	H10840	H	0.875074	0.064627	0.310470
	H10841	H	0.874561	0.064748	0.311923
	H10842	H	0.874507	0.941423	0.311939
	H10843	H	0.874976	0.941309	0.310509
	H10844	H	0.877091	0.064177	0.310013
	H10845	H	0.877033	0.941772	0.310050
	H10846	H	0.750127	0.064818	0.309711
	H10847	H	0.750143	0.941375	0.309762
	H10848	H	0.749183	0.065077	0.311316
	H10849	H	0.749242	0.941443	0.311359
	H10850	H	0.750466	0.064803	0.313495
	H10851	H	0.750470	0.941632	0.313543
	H10852	H	0.751418	0.441699	0.313100
	H10853	H	0.752584	0.441533	0.312525
	H10854	H	0.749918	0.441142	0.312139
	H10855	H	0.877656	0.441267	0.311528
	H10856	H	0.876891	0.441358	0.312901
	H10857	H	0.875816	0.441145	0.312931
	H10858	H	0.752541	0.564718	0.312535
	H10859	H	0.751410	0.564385	0.313059
	H10860	H	0.875846	0.564809	0.312913
	H10861	H	0.876935	0.564310	0.312904
	H10862	H	0.877675	0.564522	0.311528
	H10863	H	0.749948	0.564286	0.312056
	H10864	H	0.852332	0.644890	0.335946
	H10865	H	0.852202	0.860507	0.335819
	H10866	H	0.852089	0.144239	0.335744
	H10867	H	0.852190	0.361192	0.335859
	H10868	H	0.789796	0.645163	0.273283
	H10869	H	0.838214	0.644394	0.273267
	H10870	H	0.838086	0.860843	0.273320
	H10871	H	0.789703	0.861158	0.273238
	H10872	H	0.852301	0.644603	0.287433
	H10873	H	0.852184	0.860817	0.287499
	H10874	H	0.838151	0.644945	0.350043
	H10875	H	0.838070	0.860665	0.349945
	H10876	H	0.814766	0.441512	0.247864
	H10877	H	0.812097	0.441168	0.374293
	H10878	H	0.815373	0.441639	0.249433
	H10879	H	0.814524	0.441236	0.250407
	H10880	H	0.814910	0.441161	0.375301
	H10881	H	0.813513	0.441331	0.375712
	H10882	H	0.812069	0.564581	0.374255
	H10883	H	0.814834	0.564214	0.247868
	H10884	H	0.813481	0.564829	0.375623
	H10885	H	0.814875	0.564785	0.375249
	H10886	H	0.814545	0.564628	0.250467
	H10887	H	0.815341	0.564694	0.249567
	H10888	H	0.837974	0.144344	0.349922
	H10889	H	0.838079	0.361061	0.350060
	H10890	H	0.814499	0.064286	0.247608
	H10891	H	0.813172	0.064279	0.247685
	H10892	H	0.815591	0.065068	0.249037
	H10893	H	0.789624	0.860357	0.349911
	H10894	H	0.789731	0.644060	0.349845
	H10895	H	0.789615	0.360264	0.349876
	H10896	H	0.789644	0.144056	0.349928
	H10897	H	0.789716	0.144807	0.273279
	H10898	H	0.838043	0.144637	0.273377
	H10899	H	0.838074	0.361280	0.273355
	H10900	H	0.789673	0.361470	0.273195
	H10901	H	0.852171	0.144842	0.287558
	H10902	H	0.852200	0.360952	0.287536
	H10903	H	0.815112	0.064668	0.375836
	H10904	H	0.815988	0.064283	0.374174
	H10905	H	0.814656	0.064512	0.372090
	H10906	H	0.813159	0.941142	0.247747
	H10907	H	0.814493	0.941336	0.247595
	H10908	H	0.815608	0.941087	0.249071
	H10909	H	0.815163	0.941213	0.375741
	H10910	H	0.815940	0.941322	0.374122
	H10911	H	0.814602	0.941242	0.372011
	Zn10912	Zn	0.751350	0.680221	0.311487
	Zn10913	Zn	0.751377	0.825694	0.311604
	Zn10914	Zn	0.751349	0.180197	0.311483
	Zn10915	Zn	0.751316	0.325602	0.311558
	Zn10916	Zn	0.813773	0.680228	0.374039
	Zn10917	Zn	0.813771	0.825933	0.374003
	Zn10918	Zn	0.813854	0.180276	0.374124
	Zn10919	Zn	0.813830	0.326000	0.374048
	C10920	C	0.861578	0.752904	0.296883
	C10921	C	0.766166	0.751963	0.326355
	C10922	C	0.774677	0.751805	0.334882
	C10923	C	0.778708	0.690665	0.338854
	C10924	C	0.778643	0.813220	0.338883
	C10925	C	0.766121	0.252173	0.326379
	C10926	C	0.774684	0.252032	0.334849
	C10927	C	0.778647	0.190814	0.338891
	C10928	C	0.778628	0.313207	0.338868
	C10929	C	0.766191	0.752886	0.296715
	C10930	C	0.774731	0.752936	0.288247
	C10931	C	0.778715	0.814081	0.284244
	C10932	C	0.778750	0.691912	0.284244
	C10933	C	0.766159	0.253189	0.296731
	C10934	C	0.774708	0.253175	0.288237
	C10935	C	0.778676	0.314461	0.284223
	C10936	C	0.778712	0.191856	0.284268
	C10937	C	0.875211	0.043551	0.311329
	C10938	C	0.875168	0.962651	0.311344
	C10939	C	0.750128	0.043723	0.310793
	C10940	C	0.750126	0.962701	0.310815
	C10941	C	0.751397	0.043200	0.313002
	C10942	C	0.751393	0.962741	0.313027
	C10943	C	0.751814	0.462744	0.312476
	C10944	C	0.877105	0.462351	0.311224
	C10945	C	0.876371	0.462675	0.312595
	C10946	C	0.751818	0.543257	0.312445
	C10947	C	0.876372	0.543412	0.312586
	C10948	C	0.877105	0.543325	0.311223
	C10949	C	0.861631	0.752938	0.326509
	C10950	C	0.861503	0.252855	0.326421
	C10951	C	0.853060	0.752737	0.334968
	C10952	C	0.849108	0.691780	0.339016
	C10953	C	0.849059	0.813729	0.338966
	C10954	C	0.852969	0.252688	0.334925
	C10955	C	0.848955	0.191385	0.338910
	C10956	C	0.849026	0.314057	0.338989
	C10957	C	0.861580	0.252968	0.296877
	C10958	C	0.828753	0.752683	0.263942
	C10959	C	0.799131	0.753001	0.263922
	C10960	C	0.798992	0.752259	0.359260
	C10961	C	0.849125	0.691488	0.284313
	C10962	C	0.849069	0.813867	0.284337
	C10963	C	0.837242	0.752676	0.272474
	C10964	C	0.790607	0.753160	0.272431
	C10965	C	0.786622	0.691963	0.276416
	C10966	C	0.841297	0.691457	0.276437
	C10967	C	0.841236	0.813896	0.276466
	C10968	C	0.786574	0.814229	0.276407
	C10969	C	0.853065	0.752756	0.288356
	C10970	C	0.828633	0.752888	0.359264
	C10971	C	0.841228	0.691875	0.346836
	C10972	C	0.841181	0.813744	0.346790
	C10973	C	0.837150	0.752806	0.350769
	C10974	C	0.812659	0.462574	0.373668
	C10975	C	0.814702	0.462491	0.249692
	C10976	C	0.814086	0.462628	0.375094
	C10977	C	0.812658	0.543339	0.373671
	C10978	C	0.814072	0.543510	0.375054
	C10979	C	0.814689	0.543449	0.249761
	C10980	C	0.828668	0.252760	0.359356
	C10981	C	0.841118	0.191355	0.346777
	C10982	C	0.841189	0.314065	0.346862
	C10983	C	0.837158	0.252688	0.350818
	C10984	C	0.813858	0.043090	0.248019
	C10985	C	0.828740	0.252877	0.263919
	C10986	C	0.799087	0.252998	0.263887
	C10987	C	0.799075	0.252347	0.359203
	C10988	C	0.849041	0.191687	0.284348
	C10989	C	0.849065	0.314028	0.284337
	C10990	C	0.837247	0.252946	0.272434
	C10991	C	0.790565	0.253123	0.272400
	C10992	C	0.790502	0.752092	0.350736
	C10993	C	0.786485	0.813286	0.346740
	C10994	C	0.786551	0.690809	0.346712
	C10995	C	0.790570	0.252173	0.350656
	C10996	C	0.786505	0.313226	0.346696
	C10997	C	0.786524	0.190938	0.346727
	C10998	C	0.786571	0.191844	0.276419
	C10999	C	0.841209	0.191699	0.276478
	C11000	C	0.841234	0.314150	0.276462
	C11001	C	0.786539	0.314402	0.276377
	C11002	C	0.853073	0.252818	0.288325
	C11003	C	0.815122	0.043426	0.374736
	C11004	C	0.814955	0.043662	0.249528
	C11005	C	0.813854	0.962617	0.248038
	C11006	C	0.815116	0.962674	0.374690
	C11007	C	0.814971	0.962496	0.249544
	N11008	N	0.751398	0.070204	0.311533
	N11009	N	0.751407	0.935745	0.311572
	N11010	N	0.751349	0.435719	0.311553
	N11011	N	0.751350	0.570192	0.311503
	N11012	N	0.813800	0.435842	0.373977
	N11013	N	0.813764	0.570207	0.373946
	N11014	N	0.813808	0.070236	0.374116
	N11015	N	0.813780	0.935821	0.374048
	O11016	O	0.864785	0.695065	0.424973
	O11017	O	0.864766	0.810886	0.425058
	O11018	O	0.762824	0.694504	0.448142
	O11019	O	0.762882	0.810307	0.448101
	O11020	O	0.762804	0.194509	0.448117
	O11021	O	0.762849	0.310463	0.448153
	O11022	O	0.762857	0.694839	0.425105
	O11023	O	0.762884	0.810867	0.425197
	O11024	O	0.762893	0.195010	0.425047
	O11025	O	0.762897	0.310939	0.425177
	O11026	O	0.864833	0.694958	0.448147
	O11027	O	0.864857	0.810730	0.448109
	O11028	O	0.864887	0.195016	0.448066
	O11029	O	0.864791	0.310835	0.448031
	O11030	O	0.864853	0.195433	0.424991
	O11031	O	0.864871	0.311297	0.425041
	O11032	O	0.825231	0.695601	0.385573
	O11033	O	0.802287	0.694994	0.385663
	O11034	O	0.825358	0.695257	0.487534
	O11035	O	0.825408	0.810944	0.487557
	O11036	O	0.802371	0.694607	0.487492
	O11037	O	0.802277	0.810574	0.487541
	O11038	O	0.802250	0.810819	0.385554
	O11039	O	0.825306	0.811147	0.385534
	O11040	O	0.825342	0.195235	0.385628
	O11041	O	0.802362	0.195224	0.385641
	O11042	O	0.825391	0.195138	0.487555
	O11043	O	0.825354	0.311076	0.487517
	O11044	O	0.802340	0.194682	0.487624
	O11045	O	0.802370	0.310613	0.487554
	O11046	O	0.802293	0.311169	0.385539
	O11047	O	0.825393	0.311127	0.385550
	H11048	H	0.775469	0.644290	0.460757
	H11049	H	0.775613	0.860433	0.460651
	H11050	H	0.775575	0.144179	0.460716
	H11051	H	0.775524	0.360604	0.460809
	H11052	H	0.775498	0.861540	0.412495
	H11053	H	0.775526	0.644317	0.412501
	H11054	H	0.775588	0.361728	0.412479
	H11055	H	0.775470	0.144561	0.412315
	H11056	H	0.874496	0.064454	0.438605
	H11057	H	0.876731	0.064984	0.439246
	H11058	H	0.876759	0.941518	0.439275
	H11059	H	0.874469	0.941721	0.438585
	H11060	H	0.873750	0.064086	0.435546
	H11061	H	0.873775	0.941121	0.435497
	H11062	H	0.751799	0.064289	0.437362
	H11063	H	0.751803	0.941775	0.437366
	H11064	H	0.752176	0.064741	0.436723
	H11065	H	0.752197	0.941121	0.436718
	H11066	H	0.751675	0.065098	0.435806
	H11067	H	0.751710	0.941714	0.435889
	H11068	H	0.751744	0.441014	0.437310
	H11069	H	0.752087	0.441094	0.436730
	H11070	H	0.750845	0.441445	0.437257
	H11071	H	0.878607	0.441587	0.436431
	H11072	H	0.877189	0.441224	0.438648
	H11073	H	0.875285	0.441128	0.438556
	H11074	H	0.752141	0.564504	0.436767
	H11075	H	0.751758	0.563936	0.437313
	H11076	H	0.875254	0.564420	0.438631
	H11077	H	0.877223	0.564540	0.438660
	H11078	H	0.878614	0.564561	0.436427
	H11079	H	0.750812	0.564053	0.437191
	H11080	H	0.852163	0.644818	0.460776
	H11081	H	0.852209	0.861211	0.460744
	H11082	H	0.852312	0.144899	0.460786
	H11083	H	0.852229	0.360818	0.460775
	H11084	H	0.789658	0.644666	0.398324
	H11085	H	0.838047	0.645333	0.398151
	H11086	H	0.837969	0.861402	0.398264
	H11087	H	0.789595	0.861537	0.398306
	H11088	H	0.852240	0.645445	0.412238
	H11089	H	0.852163	0.861061	0.412379
	H11090	H	0.838009	0.644905	0.474905
	H11091	H	0.838046	0.861151	0.474889
	H11092	H	0.812414	0.441537	0.372884
	H11093	H	0.814046	0.440860	0.499401
	H11094	H	0.814390	0.441781	0.372339
	H11095	H	0.815422	0.441582	0.373384
	H11096	H	0.814009	0.441086	0.498773
	H11097	H	0.814170	0.441257	0.499001
	H11098	H	0.814133	0.564544	0.499337
	H11099	H	0.812437	0.564366	0.372869
	H11100	H	0.814197	0.564298	0.499010
	H11101	H	0.814023	0.564394	0.498770
	H11102	H	0.815349	0.564689	0.373373
	H11103	H	0.814337	0.564622	0.372349
	H11104	H	0.838121	0.144985	0.474908
	H11105	H	0.838065	0.360982	0.474918
	H11106	H	0.811696	0.064559	0.374382
	H11107	H	0.812665	0.064657	0.375948
	H11108	H	0.812820	0.064929	0.372164
	H11109	H	0.789771	0.860390	0.474818
	H11110	H	0.789657	0.644185	0.474915
	H11111	H	0.789683	0.360588	0.474924
	H11112	H	0.789724	0.144050	0.474869
	H11113	H	0.789585	0.144502	0.398140
	H11114	H	0.838000	0.145019	0.398294
	H11115	H	0.838077	0.361764	0.398223
	H11116	H	0.789730	0.361928	0.398297
	H11117	H	0.852141	0.145221	0.412385
	H11118	H	0.852279	0.361778	0.412325
	H11119	H	0.814444	0.064694	0.499859
	H11120	H	0.814788	0.064689	0.499104
	H11121	H	0.814169	0.064446	0.498231
	H11122	H	0.812594	0.941580	0.375907
	H11123	H	0.811580	0.941715	0.374359
	H11124	H	0.812748	0.941544	0.372041
	H11125	H	0.814423	0.941250	0.499772
	H11126	H	0.814800	0.941667	0.499100
	H11127	H	0.814209	0.941042	0.498208
	Zn11128	Zn	0.751344	0.679945	0.436621
	Zn11129	Zn	0.751304	0.825746	0.436675
	Zn11130	Zn	0.751308	0.180131	0.436595
	Zn11131	Zn	0.751285	0.325700	0.436675
	Zn11132	Zn	0.813911	0.680052	0.499046
	Zn11133	Zn	0.813826	0.825690	0.499014
	Zn11134	Zn	0.813913	0.179825	0.499120
	Zn11135	Zn	0.813850	0.325721	0.499088
	C11136	C	0.861495	0.753058	0.421726
	C11137	C	0.766148	0.752367	0.451392
	C11138	C	0.774641	0.752330	0.459917
	C11139	C	0.778634	0.691176	0.463923
	C11140	C	0.778704	0.813449	0.463862
	C11141	C	0.766118	0.252408	0.451417
	C11142	C	0.774668	0.252427	0.459921
	C11143	C	0.778697	0.191160	0.463883
	C11144	C	0.778682	0.313588	0.463931
	C11145	C	0.766140	0.752864	0.421864
	C11146	C	0.774643	0.752848	0.413323
	C11147	C	0.778637	0.814341	0.409332
	C11148	C	0.778651	0.691506	0.409324
	C11149	C	0.766172	0.253076	0.421807
	C11150	C	0.774690	0.253121	0.413284
	C11151	C	0.778717	0.314484	0.409305
	C11152	C	0.778647	0.191810	0.409217
	C11153	C	0.875816	0.043315	0.438291
	C11154	C	0.875814	0.962812	0.438306
	C11155	C	0.751807	0.043278	0.436923
	C11156	C	0.751811	0.962660	0.436933
	C11157	C	0.751310	0.043446	0.436038
	C11158	C	0.751309	0.962822	0.436046
	C11159	C	0.751779	0.462462	0.436910
	C11160	C	0.877671	0.462710	0.435817
	C11161	C	0.876245	0.462449	0.438072
	C11162	C	0.751790	0.543119	0.436918
	C11163	C	0.876254	0.543405	0.438089
	C11164	C	0.877674	0.543358	0.435796
	C11165	C	0.861559	0.752944	0.451418
	C11166	C	0.861559	0.252860	0.451342
	C11167	C	0.853093	0.753082	0.459988
	C11168	C	0.849066	0.691877	0.463970
	C11169	C	0.849089	0.814224	0.463951
	C11170	C	0.853062	0.252881	0.459863
	C11171	C	0.849119	0.191839	0.463913
	C11172	C	0.849062	0.313946	0.463902
	C11173	C	0.861563	0.253444	0.421749
	C11174	C	0.828560	0.753333	0.388842
	C11175	C	0.798982	0.752953	0.388909
	C11176	C	0.799052	0.752538	0.484227
	C11177	C	0.848989	0.692247	0.409178
	C11178	C	0.848954	0.814383	0.409245
	C11179	C	0.837068	0.753367	0.397381
	C11180	C	0.790479	0.753006	0.397439
	C11181	C	0.786491	0.691671	0.401460
	C11182	C	0.841123	0.692336	0.401335
	C11183	C	0.841088	0.814373	0.401397
	C11184	C	0.786473	0.814369	0.401455
	C11185	C	0.852943	0.753235	0.413233
	C11186	C	0.828667	0.753103	0.484265
	C11187	C	0.841201	0.691926	0.471814
	C11188	C	0.841224	0.814164	0.471792
	C11189	C	0.837220	0.753086	0.475809
	C11190	C	0.813895	0.462216	0.499317
	C11191	C	0.814590	0.462856	0.373154
	C11192	C	0.814028	0.462513	0.498946
	C11193	C	0.813921	0.543145	0.499301
	C11194	C	0.814040	0.543219	0.498919
	C11195	C	0.814565	0.543277	0.373146
	C11196	C	0.828654	0.253081	0.484246
	C11197	C	0.841238	0.191850	0.471736
	C11198	C	0.841198	0.314050	0.471745
	C11199	C	0.837194	0.252978	0.475724
	C11200	C	0.812589	0.043341	0.374858
	C11201	C	0.828621	0.253238	0.388909
	C11202	C	0.799043	0.253284	0.388882
	C11203	C	0.799069	0.252589	0.484310
	C11204	C	0.848960	0.192220	0.409287
	C11205	C	0.849024	0.314773	0.409278
	C11206	C	0.837079	0.253401	0.397478
	C11207	C	0.790538	0.253239	0.397407
	C11208	C	0.790506	0.752328	0.475736
	C11209	C	0.786551	0.813513	0.471714
	C11210	C	0.786493	0.691105	0.471768
	C11211	C	0.790544	0.252381	0.475775
	C11212	C	0.786530	0.313545	0.471789
	C11213	C	0.786559	0.191173	0.471737
	C11214	C	0.786492	0.191779	0.401353
	C11215	C	0.841106	0.192177	0.401435
	C11216	C	0.841185	0.314698	0.401401
	C11217	C	0.786564	0.314636	0.401436
	C11218	C	0.852980	0.253456	0.413295
	C11219	C	0.814429	0.043265	0.499385
	C11220	C	0.813745	0.043391	0.372594
	C11221	C	0.812555	0.962765	0.374847
	C11222	C	0.814404	0.962555	0.499359
	C11223	C	0.813714	0.962581	0.372551
	N11224	N	0.751302	0.070081	0.436637
	N11225	N	0.751312	0.935641	0.436658
	N11226	N	0.751312	0.435633	0.436616
	N11227	N	0.751336	0.570016	0.436602
	N11228	N	0.813867	0.435832	0.499075
	N11229	N	0.813909	0.570194	0.499078
	N11230	N	0.813840	0.069909	0.499099
	N11231	N	0.813825	0.935527	0.499059
	O11232	O	0.864888	0.695167	0.549969
	O11233	O	0.864785	0.811119	0.550105
	O11234	O	0.762876	0.694728	0.573117
	O11235	O	0.762846	0.810711	0.573071
	O11236	O	0.762863	0.195423	0.573096
	O11237	O	0.762839	0.311167	0.573067
	O11238	O	0.762914	0.694555	0.550019
	O11239	O	0.762969	0.810414	0.550075
	O11240	O	0.762869	0.194697	0.550029
	O11241	O	0.762891	0.310534	0.550035
	O11242	O	0.864963	0.694327	0.573107
	O11243	O	0.864813	0.810289	0.572980
	O11244	O	0.864877	0.194812	0.573041
	O11245	O	0.864937	0.310575	0.573090
	O11246	O	0.864947	0.195129	0.550047
	O11247	O	0.864929	0.310803	0.550058
	O11248	O	0.825424	0.695190	0.510568
	O11249	O	0.802392	0.694511	0.510588
	O11250	O	0.825411	0.694321	0.612471
	O11251	O	0.825482	0.810335	0.612512
	O11252	O	0.802440	0.695015	0.612421
	O11253	O	0.802409	0.810977	0.612472
	O11254	O	0.802282	0.810516	0.510509
	O11255	O	0.825410	0.810928	0.510486
	O11256	O	0.825477	0.195169	0.510597
	O11257	O	0.802328	0.194697	0.510553
	O11258	O	0.825419	0.194502	0.612506
	O11259	O	0.825466	0.310499	0.612518
	O11260	O	0.802384	0.194992	0.612433
	O11261	O	0.802357	0.311013	0.612516
	O11262	O	0.802388	0.310523	0.510653
	O11263	O	0.825359	0.310703	0.510632
	H11264	H	0.775529	0.644596	0.585737
	H11265	H	0.775503	0.861268	0.585761
	H11266	H	0.775539	0.145200	0.585697
	H11267	H	0.775525	0.361246	0.585722
	H11268	H	0.775616	0.860407	0.537448
	H11269	H	0.775558	0.644115	0.537315
	H11270	H	0.775556	0.360837	0.537380
	H11271	H	0.775562	0.144689	0.537398
	H11272	H	0.876765	0.064660	0.561006
	H11273	H	0.876237	0.064278	0.560934
	H11274	H	0.876226	0.941511	0.560958
	H11275	H	0.876738	0.941443	0.561073
	H11276	H	0.876999	0.064286	0.561736
	H11277	H	0.876958	0.940866	0.561713
	H11278	H	0.750442	0.063661	0.561657
	H11279	H	0.750448	0.940810	0.561614
	H11280	H	0.750786	0.064289	0.562328
	H11281	H	0.750820	0.941186	0.562327
	H11282	H	0.751867	0.064432	0.562398
	H11283	H	0.751819	0.941407	0.562318
	H11284	H	0.752431	0.441308	0.561743
	H11285	H	0.752207	0.441074	0.560857
	H11286	H	0.751504	0.441170	0.562611
	H11287	H	0.875223	0.441183	0.560696
	H11288	H	0.876847	0.440885	0.560081
	H11289	H	0.877832	0.441109	0.560954
	H11290	H	0.752174	0.564522	0.560917
	H11291	H	0.752430	0.564176	0.561806
	H11292	H	0.877757	0.564087	0.560905
	H11293	H	0.876803	0.564459	0.560114
	H11294	H	0.875172	0.564357	0.560632
	H11295	H	0.751579	0.564026	0.562623
	H11296	H	0.852282	0.643533	0.585733
	H11297	H	0.852179	0.860702	0.585610
	H11298	H	0.852258	0.144541	0.585756
	H11299	H	0.852216	0.360737	0.585692
	H11300	H	0.789679	0.644335	0.523140
	H11301	H	0.838045	0.645516	0.523215
	H11302	H	0.838037	0.861371	0.523201
	H11303	H	0.789751	0.860456	0.523268
	H11304	H	0.852203	0.645563	0.537357
	H11305	H	0.852167	0.861025	0.537374
	H11306	H	0.838144	0.643477	0.599866
	H11307	H	0.838053	0.861087	0.599787
	H11308	H	0.813792	0.441024	0.499392
	H11309	H	0.815036	0.440773	0.625458
	H11310	H	0.813493	0.441255	0.499109
	H11311	H	0.813598	0.441403	0.498878
	H11312	H	0.814545	0.441060	0.622347
	H11313	H	0.815617	0.440778	0.623437
	H11314	H	0.815041	0.563973	0.625419
	H11315	H	0.813820	0.564463	0.499477
	H11316	H	0.815598	0.563983	0.623430
	H11317	H	0.814544	0.564551	0.622372
	H11318	H	0.813660	0.564551	0.498845
	H11319	H	0.813589	0.564263	0.499121
	H11320	H	0.838118	0.144440	0.599887
	H11321	H	0.838049	0.360544	0.599829
	H11322	H	0.812897	0.064048	0.499255
	H11323	H	0.813315	0.064424	0.499916
	H11324	H	0.813423	0.064380	0.498281
	H11325	H	0.789700	0.861381	0.599865
	H11326	H	0.789742	0.644777	0.599834
	H11327	H	0.789714	0.361350	0.599825
	H11328	H	0.789760	0.145137	0.599773
	H11329	H	0.789752	0.144588	0.523280
	H11330	H	0.838135	0.145752	0.523258
	H11331	H	0.838088	0.360752	0.523263
	H11332	H	0.789747	0.360673	0.523281
	H11333	H	0.852285	0.145441	0.537375
	H11334	H	0.852245	0.360868	0.537400
	H11335	H	0.814121	0.064457	0.626079
	H11336	H	0.815598	0.064356	0.625239
	H11337	H	0.815606	0.064595	0.622851
	H11338	H	0.813376	0.941097	0.499867
	H11339	H	0.812880	0.941646	0.499223
	H11340	H	0.813350	0.940991	0.498238
	H11341	H	0.814138	0.941426	0.626040
	H11342	H	0.815620	0.941479	0.625235
	H11343	H	0.815643	0.941235	0.622806
	Zn11344	Zn	0.751374	0.679750	0.561601
	Zn11345	Zn	0.751352	0.825674	0.561475
	Zn11346	Zn	0.751376	0.179851	0.561609
	Zn11347	Zn	0.751306	0.325518	0.561504
	Zn11348	Zn	0.813888	0.679720	0.624025
	Zn11349	Zn	0.813939	0.825598	0.624001
	Zn11350	Zn	0.813889	0.179855	0.624034
	Zn11351	Zn	0.813924	0.325549	0.624019
	C11352	C	0.861546	0.753173	0.546746
	C11353	C	0.766120	0.752786	0.576405
	C11354	C	0.774643	0.752898	0.584908
	C11355	C	0.778685	0.691651	0.588876
	C11356	C	0.778659	0.814261	0.588891
	C11357	C	0.766176	0.253372	0.576331
	C11358	C	0.774694	0.253261	0.584838
	C11359	C	0.778695	0.192092	0.588832
	C11360	C	0.778674	0.314363	0.588851
	C11361	C	0.766222	0.752430	0.546757
	C11362	C	0.774712	0.752333	0.538220
	C11363	C	0.778739	0.813514	0.534256
	C11364	C	0.778692	0.691143	0.534179
	C11365	C	0.766186	0.252637	0.546770
	C11366	C	0.774683	0.252759	0.538251
	C11367	C	0.778680	0.313809	0.534226
	C11368	C	0.778693	0.191649	0.534241
	C11369	C	0.876480	0.043227	0.561137
	C11370	C	0.876462	0.962689	0.561151
	C11371	C	0.750818	0.042818	0.561860
	C11372	C	0.750836	0.962288	0.561837
	C11373	C	0.751893	0.043153	0.561955
	C11374	C	0.751880	0.962548	0.561893
	C11375	C	0.752084	0.462395	0.561382
	C11376	C	0.875436	0.462497	0.561345
	C11377	C	0.877076	0.462273	0.560785
	C11378	C	0.752064	0.543057	0.561416
	C11379	C	0.877061	0.542954	0.560782
	C11380	C	0.875429	0.543053	0.561341
	C11381	C	0.861627	0.752226	0.576359
	C11382	C	0.861620	0.252673	0.576355
	C11383	C	0.853103	0.752067	0.584860
	C11384	C	0.849107	0.690704	0.588859
	C11385	C	0.849058	0.813649	0.588797
	C11386	C	0.853096	0.252600	0.584849
	C11387	C	0.849102	0.191514	0.588866
	C11388	C	0.849073	0.313686	0.588831
	C11389	C	0.861632	0.252976	0.546778
	C11390	C	0.828692	0.753186	0.513815
	C11391	C	0.799050	0.752478	0.513824
	C11392	C	0.799095	0.753040	0.609209
	C11393	C	0.849031	0.692310	0.534217
	C11394	C	0.849018	0.814294	0.534224
	C11395	C	0.837194	0.753382	0.522338
	C11396	C	0.790526	0.752435	0.522333
	C11397	C	0.786519	0.691243	0.526302
	C11398	C	0.841183	0.692397	0.526361
	C11399	C	0.841172	0.814429	0.526355
	C11400	C	0.786567	0.813560	0.526379
	C11401	C	0.853016	0.753235	0.538227
	C11402	C	0.828730	0.752272	0.609210
	C11403	C	0.841248	0.690826	0.596703
	C11404	C	0.841207	0.813710	0.596658
	C11405	C	0.837248	0.752238	0.600707
	C11406	C	0.814214	0.462268	0.625215
	C11407	C	0.813639	0.462678	0.499014
	C11408	C	0.814778	0.462088	0.623187
	C11409	C	0.814213	0.542849	0.625205
	C11410	C	0.814752	0.542976	0.623201
	C11411	C	0.813650	0.543259	0.499008
	C11412	C	0.828721	0.252502	0.609221
	C11413	C	0.841253	0.191396	0.596721
	C11414	C	0.841227	0.313713	0.596687
	C11415	C	0.837236	0.252547	0.600703
	C11416	C	0.813302	0.043139	0.499445
	C11417	C	0.828714	0.253050	0.513899
	C11418	C	0.799087	0.252580	0.513902
	C11419	C	0.799112	0.253064	0.609162
	C11420	C	0.849115	0.192260	0.534262
	C11421	C	0.849086	0.314059	0.534276
	C11422	C	0.837213	0.253279	0.522426
	C11423	C	0.790539	0.252598	0.522396
	C11424	C	0.790540	0.753067	0.600726
	C11425	C	0.786541	0.814325	0.596716
	C11426	C	0.786561	0.691808	0.596705
	C11427	C	0.790577	0.253245	0.600664
	C11428	C	0.786540	0.314376	0.596695
	C11429	C	0.786562	0.192099	0.596678
	C11430	C	0.786556	0.191478	0.526393
	C11431	C	0.841248	0.192442	0.526422
	C11432	C	0.841223	0.314080	0.526431
	C11433	C	0.786543	0.313806	0.526383
	C11434	C	0.853085	0.253090	0.538290
	C11435	C	0.814611	0.043021	0.625233
	C11436	C	0.813806	0.043205	0.498462
	C11437	C	0.813311	0.962670	0.499416
	C11438	C	0.814632	0.962491	0.625221
	C11439	C	0.813818	0.962216	0.498442
	N11440	N	0.751378	0.069886	0.561620
	N11441	N	0.751349	0.935521	0.561572
	N11442	N	0.751360	0.435450	0.561552
	N11443	N	0.751390	0.569823	0.561599
	N11444	N	0.813923	0.435569	0.624053
	N11445	N	0.813912	0.569928	0.624065
	N11446	N	0.813909	0.069869	0.624035
	N11447	N	0.813920	0.935501	0.624005
	O11448	O	0.864856	0.694725	0.675067
	O11449	O	0.864869	0.810505	0.675033
	O11450	O	0.762851	0.694626	0.698097
	O11451	O	0.762877	0.810399	0.698111
	O11452	O	0.762939	0.194956	0.698048
	O11453	O	0.762885	0.310911	0.698129
	O11454	O	0.762912	0.695264	0.675020
	O11455	O	0.762959	0.811217	0.675031
	O11456	O	0.762964	0.195316	0.675031
	O11457	O	0.762907	0.311171	0.674998
	O11458	O	0.864787	0.694906	0.697996
	O11459	O	0.864793	0.810769	0.698065
	O11460	O	0.864848	0.194197	0.698118
	O11461	O	0.864792	0.310249	0.698085
	O11462	O	0.864877	0.194966	0.675042
	O11463	O	0.864845	0.310740	0.675055
	O11464	O	0.825330	0.694551	0.635644
	O11465	O	0.802354	0.695168	0.635542
	O11466	O	0.825486	0.694469	0.737681
	O11467	O	0.825368	0.810326	0.737539
	O11468	O	0.802321	0.694292	0.737531
	O11469	O	0.802471	0.810262	0.737471
	O11470	O	0.802281	0.810916	0.635422
	O11471	O	0.825469	0.810459	0.635512
	O11472	O	0.825386	0.195010	0.635604
	O11473	O	0.802333	0.195005	0.635549
	O11474	O	0.825373	0.194505	0.737544
	O11475	O	0.825400	0.310328	0.737554
	O11476	O	0.802377	0.194648	0.737483
	O11477	O	0.802318	0.310501	0.737603
	O11478	O	0.802351	0.310928	0.635507
	O11479	O	0.825443	0.310720	0.635578
	H11480	H	0.775493	0.644466	0.710787
	H11481	H	0.775562	0.860866	0.710760
	H11482	H	0.775554	0.144715	0.710743
	H11483	H	0.775663	0.361397	0.710654
	H11484	H	0.775553	0.861178	0.662373
	H11485	H	0.775599	0.645082	0.662345
	H11486	H	0.775568	0.361364	0.662276
	H11487	H	0.775525	0.145388	0.662333
	H11488	H	0.876960	0.064317	0.685143
	H11489	H	0.875611	0.064185	0.685166
	H11490	H	0.875596	0.941316	0.685150
	H11491	H	0.876903	0.941087	0.685081
	H11492	H	0.877969	0.064450	0.686691
	H11493	H	0.877897	0.940618	0.686632
	H11494	H	0.750054	0.064354	0.687940
	H11495	H	0.750096	0.940578	0.687888
	H11496	H	0.751601	0.064131	0.688421
	H11497	H	0.751589	0.940582	0.688392
	H11498	H	0.753248	0.064106	0.686919
	H11499	H	0.753260	0.941294	0.686947
	H11500	H	0.752552	0.440783	0.686839
	H11501	H	0.752397	0.440760	0.685846
	H11502	H	0.751470	0.441483	0.687702
	H11503	H	0.877337	0.441107	0.687552
	H11504	H	0.875772	0.441107	0.687825
	H11505	H	0.875037	0.441375	0.686991
	H11506	H	0.752413	0.563979	0.685863
	H11507	H	0.752560	0.564030	0.686866
	H11508	H	0.875020	0.564220	0.686930
	H11509	H	0.875757	0.564793	0.687829
	H11510	H	0.877341	0.564456	0.687555
	H11511	H	0.751398	0.564028	0.687714
	H11512	H	0.852020	0.644504	0.710603
	H11513	H	0.852133	0.860549	0.710722
	H11514	H	0.852085	0.143642	0.710698
	H11515	H	0.852143	0.360579	0.710708
	H11516	H	0.789693	0.645150	0.648184
	H11517	H	0.838042	0.644065	0.648277
	H11518	H	0.838035	0.860542	0.648208
	H11519	H	0.789681	0.861374	0.648177
	H11520	H	0.852249	0.644266	0.662350
	H11521	H	0.852257	0.860710	0.662304
	H11522	H	0.837933	0.644438	0.724781
	H11523	H	0.837970	0.860373	0.724871
	H11524	H	0.813590	0.440894	0.625798
	H11525	H	0.812642	0.441177	0.750118
	H11526	H	0.812111	0.440990	0.624330
	H11527	H	0.812530	0.441138	0.622856
	H11528	H	0.815435	0.441445	0.749617
	H11529	H	0.814505	0.441137	0.750655
	H11530	H	0.812646	0.564233	0.750111
	H11531	H	0.813583	0.563968	0.625820
	H11532	H	0.814396	0.564793	0.750583
	H11533	H	0.815382	0.565047	0.749683
	H11534	H	0.812543	0.564297	0.622873
	H11535	H	0.812117	0.563715	0.624349
	H11536	H	0.837919	0.144148	0.724818
	H11537	H	0.838005	0.360625	0.724854
	H11538	H	0.812067	0.064381	0.623183
	H11539	H	0.812040	0.064644	0.624902
	H11540	H	0.814103	0.064358	0.621948
	H11541	H	0.789742	0.860917	0.724853
	H11542	H	0.789676	0.644387	0.724913
	H11543	H	0.789764	0.361112	0.724869
	H11544	H	0.789654	0.144542	0.724890
	H11545	H	0.789672	0.145054	0.648206
	H11546	H	0.838018	0.144951	0.648251
	H11547	H	0.838163	0.360788	0.648140
	H11548	H	0.789723	0.361089	0.648125
	H11549	H	0.852182	0.144796	0.662380
	H11550	H	0.852318	0.360750	0.662265
	H11551	H	0.816081	0.064428	0.749064
	H11552	H	0.815301	0.064338	0.747366
	H11553	H	0.812770	0.064602	0.747103
	H11554	H	0.812100	0.941346	0.624867
	H11555	H	0.812039	0.941012	0.623178
	H11556	H	0.814154	0.941139	0.621985
	H11557	H	0.816052	0.941190	0.749070
	H11558	H	0.815295	0.941054	0.747428
	H11559	H	0.812733	0.941180	0.747131
	Zn11560	Zn	0.751373	0.679801	0.686510
	Zn11561	Zn	0.751414	0.825316	0.686538
	Zn11562	Zn	0.751387	0.179797	0.686539
	Zn11563	Zn	0.751388	0.325422	0.686575
	Zn11564	Zn	0.813824	0.680040	0.749084
	Zn11565	Zn	0.813895	0.825552	0.749082
	Zn11566	Zn	0.813843	0.179990	0.749085
	Zn11567	Zn	0.813902	0.325733	0.749076
	C11568	C	0.861589	0.752601	0.671750
	C11569	C	0.766144	0.752497	0.701406
	C11570	C	0.774649	0.752577	0.709948
	C11571	C	0.778640	0.691399	0.713936
	C11572	C	0.778686	0.813838	0.713914
	C11573	C	0.766210	0.252953	0.701353
	C11574	C	0.774678	0.253026	0.709910
	C11575	C	0.778655	0.191728	0.713909
	C11576	C	0.778705	0.314234	0.713894
	C11577	C	0.766229	0.753225	0.671759
	C11578	C	0.774787	0.753222	0.663272
	C11579	C	0.778749	0.814363	0.659245
	C11580	C	0.778764	0.692074	0.659236
	C11581	C	0.766246	0.253277	0.671749
	C11582	C	0.774750	0.253355	0.663254
	C11583	C	0.778718	0.314345	0.659171
	C11584	C	0.778687	0.192274	0.659211
	C11585	C	0.876320	0.042967	0.685511
	C11586	C	0.876288	0.962341	0.685497
	C11587	C	0.750981	0.042929	0.687737
	C11588	C	0.750992	0.962008	0.687717
	C11589	C	0.752644	0.042876	0.686224
	C11590	C	0.752650	0.962444	0.686236
	C11591	C	0.752177	0.462063	0.686400
	C11592	C	0.877215	0.462365	0.686902
	C11593	C	0.875643	0.462491	0.687180
	C11594	C	0.752180	0.542873	0.686384
	C11595	C	0.875663	0.543297	0.687152
	C11596	C	0.877235	0.543055	0.686901
	C11597	C	0.861502	0.752723	0.701315
	C11598	C	0.861525	0.252147	0.701372
	C11599	C	0.852983	0.752518	0.709843
	C11600	C	0.848940	0.691395	0.713805
	C11601	C	0.848984	0.813562	0.713863
	C11602	C	0.852982	0.252120	0.709855
	C11603	C	0.848950	0.190837	0.713832
	C11604	C	0.848969	0.313503	0.713836
	C11605	C	0.861592	0.252834	0.671732
	C11606	C	0.828701	0.752446	0.638842
	C11607	C	0.799067	0.753129	0.638804
	C11608	C	0.799091	0.752364	0.734247
	C11609	C	0.849095	0.691254	0.659211
	C11610	C	0.849089	0.813583	0.659196
	C11611	C	0.837262	0.752337	0.647333
	C11612	C	0.790602	0.753295	0.647375
	C11613	C	0.786591	0.692089	0.651359
	C11614	C	0.841250	0.691097	0.651351
	C11615	C	0.841243	0.813592	0.651334
	C11616	C	0.786589	0.814418	0.651372
	C11617	C	0.853117	0.752477	0.663203
	C11618	C	0.828691	0.752363	0.734310
	C11619	C	0.841115	0.691317	0.721680
	C11620	C	0.841152	0.813486	0.721739
	C11621	C	0.837180	0.752368	0.725762
	C11622	C	0.812822	0.462566	0.749346
	C11623	C	0.812738	0.462346	0.623721
	C11624	C	0.814658	0.462474	0.749853
	C11625	C	0.812821	0.543019	0.749340
	C11626	C	0.814627	0.543450	0.749850
	C11627	C	0.812736	0.543009	0.623729
	C11628	C	0.828643	0.252408	0.734243
	C11629	C	0.841104	0.191060	0.721698
	C11630	C	0.841138	0.313582	0.721705
	C11631	C	0.837124	0.252373	0.725703
	C11632	C	0.812559	0.043294	0.624025
	C11633	C	0.828728	0.252849	0.638847
	C11634	C	0.799060	0.253016	0.638822
	C11635	C	0.799063	0.252633	0.734245
	C11636	C	0.849041	0.191703	0.659242
	C11637	C	0.849123	0.313880	0.659181
	C11638	C	0.837243	0.252855	0.647342
	C11639	C	0.790556	0.252969	0.647357
	C11640	C	0.790537	0.752578	0.725774
	C11641	C	0.786562	0.813830	0.721748
	C11642	C	0.786512	0.691457	0.721776
	C11643	C	0.790508	0.252812	0.725769
	C11644	C	0.786540	0.314154	0.721768
	C11645	C	0.786491	0.191613	0.721777
	C11646	C	0.786528	0.192018	0.651353
	C11647	C	0.841191	0.191768	0.651390
	C11648	C	0.841271	0.313890	0.651329
	C11649	C	0.786565	0.314201	0.651315
	C11650	C	0.853086	0.252747	0.663212
	C11651	C	0.815203	0.043152	0.748460
	C11652	C	0.814633	0.043330	0.622845
	C11653	C	0.812562	0.962446	0.624022
	C11654	C	0.815211	0.962452	0.748463
	C11655	C	0.814639	0.962531	0.622825
	N11656	N	0.751389	0.069743	0.686479
	N11657	N	0.751400	0.935354	0.686482
	N11658	N	0.751372	0.435395	0.686552
	N11659	N	0.751370	0.569785	0.686509
	N11660	N	0.813926	0.435632	0.749067
	N11661	N	0.813865	0.570034	0.749080
	N11662	N	0.813852	0.069984	0.749042
	N11663	N	0.813866	0.935575	0.749057
	O11664	O	0.864706	0.695143	0.800159
	O11665	O	0.864819	0.810962	0.800028
	O11666	O	0.762879	0.694297	0.823222
	O11667	O	0.762897	0.810292	0.823169
	O11668	O	0.762935	0.194768	0.823182
	O11669	O	0.762930	0.310527	0.823140
	O11670	O	0.762899	0.695378	0.800125
	O11671	O	0.762952	0.811278	0.800157
	O11672	O	0.762891	0.194998	0.800114
	O11673	O	0.762939	0.310972	0.800125
	O11674	O	0.864689	0.694877	0.823088
	O11675	O	0.864745	0.810846	0.823145
	O11676	O	0.864699	0.194791	0.823142
	O11677	O	0.864633	0.310881	0.823053
	O11678	O	0.864790	0.195239	0.800044
	O11679	O	0.864697	0.311104	0.800119
	O11680	O	0.825309	0.695348	0.760628
	O11681	O	0.802285	0.695209	0.760576
	O11682	O	0.825440	0.695201	0.862714
	O11683	O	0.825349	0.811064	0.862668
	O11684	O	0.802303	0.694865	0.862729
	O11685	O	0.802407	0.810530	0.862531
	O11686	O	0.802361	0.811071	0.760586
	O11687	O	0.825336	0.811135	0.760679
	O11688	O	0.825232	0.195345	0.760730
	O11689	O	0.802298	0.194800	0.760595
	O11690	O	0.825498	0.195403	0.862847
	O11691	O	0.825260	0.311278	0.862649
	O11692	O	0.802330	0.195042	0.862698
	O11693	O	0.802396	0.310903	0.862527
	O11694	O	0.802229	0.310902	0.760532
	O11695	O	0.825359	0.311058	0.760604
	H11696	H	0.775482	0.643724	0.835929
	H11697	H	0.775559	0.860677	0.835787
	H11698	H	0.775592	0.144280	0.835854
	H11699	H	0.775418	0.360954	0.835956
	H11700	H	0.775543	0.861484	0.787396
	H11701	H	0.775556	0.645268	0.787458
	H11702	H	0.775517	0.361594	0.787438
	H11703	H	0.775579	0.144226	0.787461
	H11704	H	0.875580	0.064432	0.812803
	H11705	H	0.876719	0.064792	0.812885
	H11706	H	0.876788	0.942047	0.812839
	H11707	H	0.875602	0.941588	0.812889
	H11708	H	0.874848	0.064615	0.811393
	H11709	H	0.874791	0.941468	0.811502
	H11710	H	0.751980	0.064588	0.812452
	H11711	H	0.751946	0.941212	0.812552
	H11712	H	0.752415	0.064278	0.811760
	H11713	H	0.752414	0.941676	0.811805
	H11714	H	0.751850	0.064527	0.810731
	H11715	H	0.751909	0.941125	0.810702
	H11716	H	0.753407	0.441174	0.812173
	H11717	H	0.753150	0.441146	0.810459
	H11718	H	0.751585	0.441449	0.813743
	H11719	H	0.876759	0.441210	0.812454
	H11720	H	0.875558	0.441313	0.812351
	H11721	H	0.875226	0.441604	0.811503
	H11722	H	0.753143	0.564473	0.810469
	H11723	H	0.753476	0.564376	0.812207
	H11724	H	0.875179	0.564552	0.811558
	H11725	H	0.875573	0.564869	0.812366
	H11726	H	0.876766	0.564926	0.812489
	H11727	H	0.751587	0.564141	0.813788
	H11728	H	0.852117	0.645008	0.835814
	H11729	H	0.852062	0.861260	0.835744
	H11730	H	0.851990	0.144925	0.835737
	H11731	H	0.852129	0.361244	0.835834
	H11732	H	0.789716	0.645248	0.773320
	H11733	H	0.837947	0.644787	0.773313
	H11734	H	0.838097	0.861211	0.773217
	H11735	H	0.789689	0.861391	0.773250
	H11736	H	0.852117	0.644734	0.787471
	H11737	H	0.852269	0.861127	0.787348
	H11738	H	0.838025	0.645307	0.850026
	H11739	H	0.837952	0.861128	0.849939
	H11740	H	0.812294	0.441327	0.748771
	H11741	H	0.813601	0.441612	0.874781
	H11742	H	0.813646	0.441094	0.747466
	H11743	H	0.814948	0.441011	0.747793
	H11744	H	0.814364	0.441151	0.874121
	H11745	H	0.814272	0.441384	0.874549
	H11746	H	0.813600	0.564307	0.874748
	H11747	H	0.812256	0.564228	0.748780
	H11748	H	0.814275	0.564506	0.874542
	H11749	H	0.814366	0.564454	0.874115
	H11750	H	0.814925	0.564391	0.747813
	H11751	H	0.813567	0.564200	0.747469
	H11752	H	0.837907	0.144742	0.849975
	H11753	H	0.838059	0.361918	0.850064
	H11754	H	0.812687	0.063989	0.750987
	H11755	H	0.814576	0.064510	0.751186
	H11756	H	0.811676	0.064270	0.748643
	H11757	H	0.789734	0.860771	0.849886
	H11758	H	0.789655	0.643826	0.850046
	H11759	H	0.789589	0.360879	0.850104
	H11760	H	0.789743	0.144448	0.849978
	H11761	H	0.789699	0.144020	0.773306
	H11762	H	0.838075	0.145275	0.773224
	H11763	H	0.837960	0.360937	0.773209
	H11764	H	0.789624	0.361718	0.773251
	H11765	H	0.852257	0.145414	0.787310
	H11766	H	0.852123	0.361041	0.787335
	H11767	H	0.813994	0.064456	0.873023
	H11768	H	0.812998	0.064402	0.873351
	H11769	H	0.812662	0.064800	0.874682
	H11770	H	0.814589	0.941150	0.751129
	H11771	H	0.812757	0.941193	0.750986
	H11772	H	0.811705	0.941172	0.748626
	H11773	H	0.813881	0.941255	0.873037
	H11774	H	0.812963	0.941023	0.873317
	H11775	H	0.812628	0.941258	0.874673
	Zn11776	Zn	0.751416	0.680036	0.811642
	Zn11777	Zn	0.751413	0.825647	0.811664
	Zn11778	Zn	0.751416	0.179960	0.811654
	Zn11779	Zn	0.751424	0.325797	0.811670
	Zn11780	Zn	0.813851	0.679916	0.874180
	Zn11781	Zn	0.813748	0.825833	0.874195
	Zn11782	Zn	0.813871	0.180048	0.874213
	Zn11783	Zn	0.813797	0.325891	0.874194
	C11784	C	0.861506	0.753039	0.796787
	C11785	C	0.766182	0.752321	0.826478
	C11786	C	0.774669	0.752228	0.835017
	C11787	C	0.778642	0.690922	0.839070
	C11788	C	0.778681	0.813562	0.838984
	C11789	C	0.766200	0.252690	0.826469
	C11790	C	0.774664	0.252724	0.835008
	C11791	C	0.778719	0.191514	0.838991
	C11792	C	0.778601	0.313923	0.839053
	C11793	C	0.766218	0.753298	0.796857
	C11794	C	0.774736	0.753315	0.788335
	C11795	C	0.778711	0.814454	0.784283
	C11796	C	0.778728	0.692182	0.784327
	C11797	C	0.766210	0.252922	0.796828
	C11798	C	0.774736	0.252886	0.788327
	C11799	C	0.778710	0.314424	0.784314
	C11800	C	0.778736	0.191387	0.784326
	C11801	C	0.876141	0.043413	0.812526
	C11802	C	0.876182	0.962866	0.812535
	C11803	C	0.751980	0.043191	0.812001
	C11804	C	0.751979	0.962677	0.812023
	C11805	C	0.751436	0.043270	0.810976
	C11806	C	0.751441	0.962498	0.810964
	C11807	C	0.752804	0.462496	0.811421
	C11808	C	0.876831	0.462882	0.811980
	C11809	C	0.875614	0.462655	0.811837
	C11810	C	0.752818	0.543227	0.811427
	C11811	C	0.875622	0.543342	0.811839
	C11812	C	0.876822	0.543430	0.811966
	C11813	C	0.861443	0.752893	0.826394
	C11814	C	0.861377	0.252883	0.826377
	C11815	C	0.852960	0.753097	0.834949
	C11816	C	0.848988	0.692002	0.838968
	C11817	C	0.848962	0.814313	0.838938
	C11818	C	0.852870	0.253080	0.834922
	C11819	C	0.848876	0.191811	0.838930
	C11820	C	0.848949	0.314431	0.838991
	C11821	C	0.861475	0.253175	0.796785
	C11822	C	0.828610	0.753165	0.763930
	C11823	C	0.799054	0.753210	0.763878
	C11824	C	0.799078	0.752594	0.859338
	C11825	C	0.848966	0.691683	0.784294
	C11826	C	0.849056	0.814153	0.784241
	C11827	C	0.837136	0.752983	0.772416
	C11828	C	0.790554	0.753290	0.772424
	C11829	C	0.786563	0.692149	0.776450
	C11830	C	0.841112	0.691757	0.776445
	C11831	C	0.841194	0.814154	0.776396
	C11832	C	0.786533	0.814495	0.776391
	C11833	C	0.852989	0.752891	0.788262
	C11834	C	0.828673	0.753185	0.859404
	C11835	C	0.841165	0.692061	0.846849
	C11836	C	0.841133	0.814329	0.846815
	C11837	C	0.837181	0.753165	0.850861
	C11838	C	0.813540	0.462686	0.874484
	C11839	C	0.814173	0.462383	0.748012
	C11840	C	0.814201	0.462370	0.874298
	C11841	C	0.813577	0.543325	0.874477
	C11842	C	0.814196	0.543159	0.874282
	C11843	C	0.814152	0.543121	0.748015
	C11844	C	0.828619	0.253364	0.859419
	C11845	C	0.841055	0.191918	0.846829
	C11846	C	0.841129	0.314598	0.846879
	C11847	C	0.837091	0.253347	0.850864
	C11848	C	0.813702	0.043172	0.750548
	C11849	C	0.828590	0.253179	0.763924
	C11850	C	0.799002	0.252861	0.763870
	C11851	C	0.799074	0.252833	0.859332
	C11852	C	0.849026	0.192186	0.784230
	C11853	C	0.848949	0.314217	0.784236
	C11854	C	0.837094	0.253112	0.772433
	C11855	C	0.790538	0.252830	0.772422
	C11856	C	0.790540	0.752359	0.850863
	C11857	C	0.786540	0.813615	0.846820
	C11858	C	0.786507	0.690990	0.846910
	C11859	C	0.790521	0.252715	0.850857
	C11860	C	0.786448	0.313934	0.846913
	C11861	C	0.786556	0.191410	0.846852
	C11862	C	0.786565	0.191370	0.776456
	C11863	C	0.841157	0.192141	0.776401
	C11864	C	0.841097	0.314113	0.776394
	C11865	C	0.786530	0.314352	0.776429
	C11866	C	0.852952	0.253257	0.788264
	C11867	C	0.813556	0.043252	0.873461
	C11868	C	0.812651	0.042979	0.748199
	C11869	C	0.813721	0.962480	0.750540
	C11870	C	0.813512	0.962564	0.873440
	C11871	C	0.812657	0.962207	0.748213
	N11872	N	0.751409	0.070074	0.811644
	N11873	N	0.751403	0.935706	0.811647
	N11874	N	0.751452	0.435639	0.811630
	N11875	N	0.751409	0.570010	0.811653
	N11876	N	0.813814	0.435826	0.874215
	N11877	N	0.813846	0.570166	0.874190
	N11878	N	0.813803	0.070216	0.874218
	N11879	N	0.813752	0.935825	0.874218
	O11880	O	0.864748	0.695296	0.925224
	O11881	O	0.864887	0.810848	0.925101
	O11882	O	0.762757	0.694647	0.948296
	O11883	O	0.762904	0.810581	0.948237
	O11884	O	0.762793	0.194943	0.948213
	O11885	O	0.762791	0.310697	0.948245
	O11886	O	0.762802	0.694784	0.925177
	O11887	O	0.762924	0.810516	0.925291
	O11888	O	0.762848	0.194863	0.925225
	O11889	O	0.762802	0.310654	0.925171
	O11890	O	0.864767	0.695396	0.948161
	O11891	O	0.864917	0.811119	0.948278
	O11892	O	0.864759	0.195422	0.948152
	O11893	O	0.864833	0.311410	0.948219
	O11894	O	0.864744	0.195096	0.925166
	O11895	O	0.864927	0.310978	0.925113
	O11896	O	0.825359	0.695274	0.885703
	O11897	O	0.802212	0.694774	0.885637
	O11898	O	0.825374	0.695211	0.987679
	O11899	O	0.825396	0.811186	0.987687
	O11900	O	0.802338	0.694658	0.987641
	O11901	O	0.802374	0.810518	0.987632
	O11902	O	0.802309	0.810590	0.885774
	O11903	O	0.825301	0.811194	0.885710
	O11904	O	0.825384	0.195317	0.885697
	O11905	O	0.802204	0.194912	0.885646
	O11906	O	0.825337	0.195261	0.987637
	O11907	O	0.825402	0.311144	0.987710
	O11908	O	0.802412	0.194456	0.987574
	O11909	O	0.802306	0.310246	0.987707
	O11910	O	0.802325	0.310796	0.885750
	O11911	O	0.825232	0.311117	0.885848
	H11912	H	0.775427	0.644450	0.960954
	H11913	H	0.775541	0.860452	0.960851
	H11914	H	0.775468	0.144503	0.960917
	H11915	H	0.775496	0.360762	0.960907
	H11916	H	0.775563	0.860388	0.912621
	H11917	H	0.775550	0.644487	0.912564
	H11918	H	0.775554	0.360754	0.912594
	H11919	H	0.775510	0.144690	0.912598
	H11920	H	0.876254	0.064744	0.934563
	H11921	H	0.874759	0.064730	0.935323
	H11922	H	0.874771	0.941410	0.935361
	H11923	H	0.876279	0.941508	0.934620
	H11924	H	0.878284	0.064299	0.935829
	H11925	H	0.878316	0.941375	0.935856
	H11926	H	0.751231	0.064568	0.937337
	H11927	H	0.751270	0.941732	0.937358
	H11928	H	0.751729	0.064433	0.937209
	H11929	H	0.751774	0.941632	0.937224
	H11930	H	0.751875	0.064482	0.936560
	H11931	H	0.751926	0.941354	0.936544
	H11932	H	0.751142	0.441370	0.937227
	H11933	H	0.751530	0.441188	0.937128
	H11934	H	0.750816	0.441157	0.936786
	H11935	H	0.876469	0.441286	0.937337
	H11936	H	0.875843	0.441145	0.936964
	H11937	H	0.875821	0.441330	0.936446
	H11938	H	0.751573	0.564367	0.937136
	H11939	H	0.751197	0.564498	0.937112
	H11940	H	0.875786	0.564320	0.936408
	H11941	H	0.875832	0.564762	0.936931
	H11942	H	0.876396	0.564448	0.937292
	H11943	H	0.750857	0.564360	0.936792
	H11944	H	0.852213	0.645222	0.960915
	H11945	H	0.852149	0.861323	0.960848
	H11946	H	0.852220	0.145041	0.960906
	H11947	H	0.852081	0.361898	0.960825
	H11948	H	0.789670	0.644623	0.898365
	H11949	H	0.838055	0.645773	0.898290
	H11950	H	0.838012	0.861259	0.898335
	H11951	H	0.789666	0.860348	0.898426
	H11952	H	0.852192	0.645571	0.912419
	H11953	H	0.852164	0.861064	0.912505
	H11954	H	0.838048	0.645285	0.975054
	H11955	H	0.838014	0.861426	0.974993
	H11956	H	0.813195	0.441515	0.874411
	H11957	H	0.814919	0.440804	0.999334
	H11958	H	0.813455	0.441395	0.873773
	H11959	H	0.813892	0.441224	0.873630
	H11960	H	0.813388	0.441682	0.998242
	H11961	H	0.814295	0.441233	0.998266
	H11962	H	0.814862	0.564559	0.999356
	H11963	H	0.813338	0.564463	0.874424
	H11964	H	0.814265	0.565030	0.998243
	H11965	H	0.813390	0.564052	0.998274
	H11966	H	0.813914	0.564504	0.873630
	H11967	H	0.813459	0.564809	0.873776
	H11968	H	0.838059	0.145047	0.975061
	H11969	H	0.837936	0.361417	0.974975
	H11970	H	0.814754	0.064668	0.874997
	H11971	H	0.814987	0.064676	0.873988
	H11972	H	0.813404	0.064534	0.875338
	H11973	H	0.789689	0.860366	0.975017
	H11974	H	0.789564	0.644585	0.975134
	H11975	H	0.789699	0.360323	0.975019
	H11976	H	0.789670	0.144562	0.975006
	H11977	H	0.789659	0.144438	0.898459
	H11978	H	0.837959	0.145465	0.898434
	H11979	H	0.838088	0.362101	0.898319
	H11980	H	0.789696	0.361074	0.898428
	H11981	H	0.852130	0.145259	0.912536
	H11982	H	0.852299	0.361953	0.912430
	H11983	H	0.812826	0.064676	1.000421
	H11984	H	0.814108	0.064557	1.000743
	H11985	H	0.815337	0.064997	0.999518
	H11986	H	0.814961	0.941395	0.873965
	H11987	H	0.814733	0.941628	0.875004
	H11988	H	0.813410	0.941635	0.875367
	H11989	H	0.812783	0.940952	1.000431
	H11990	H	0.814030	0.941128	1.000759
	H11991	H	0.815353	0.941438	0.999511
	Zn11992	Zn	0.751269	0.680051	0.936719
	Zn11993	Zn	0.751366	0.825819	0.936719
	Zn11994	Zn	0.751275	0.180109	0.936730
	Zn11995	Zn	0.751321	0.325761	0.936721
	Zn11996	Zn	0.813867	0.680116	0.999179
	Zn11997	Zn	0.813848	0.825911	0.999168
	Zn11998	Zn	0.813863	0.180213	0.999194
	Zn11999	Zn	0.813866	0.325743	0.999181
	C12000	C	0.861545	0.753141	0.921865
	C12001	C	0.766131	0.752497	0.951529
	C12002	C	0.774643	0.752391	0.960047
	C12003	C	0.778593	0.691295	0.964096
	C12004	C	0.778667	0.813561	0.964036
	C12005	C	0.766055	0.252786	0.951546
	C12006	C	0.774580	0.252675	0.960061
	C12007	C	0.778613	0.191499	0.964048
	C12008	C	0.778629	0.313707	0.964048
	C12009	C	0.766137	0.752583	0.921927
	C12010	C	0.774658	0.752377	0.913413
	C12011	C	0.778668	0.813436	0.909427
	C12012	C	0.778676	0.691324	0.909400
	C12013	C	0.766138	0.252751	0.921932
	C12014	C	0.774670	0.252779	0.913440
	C12015	C	0.778679	0.313834	0.909422
	C12016	C	0.778657	0.191691	0.909435
	C12017	C	0.875715	0.043485	0.935387
	C12018	C	0.875730	0.962698	0.935418
	C12019	C	0.751428	0.043205	0.937122
	C12020	C	0.751459	0.962665	0.937137
	C12021	C	0.751609	0.043261	0.936461
	C12022	C	0.751650	0.962535	0.936463
	C12023	C	0.751340	0.462410	0.937069
	C12024	C	0.876609	0.462743	0.937045
	C12025	C	0.875965	0.462502	0.936699
	C12026	C	0.751348	0.543138	0.937032
	C12027	C	0.875937	0.543397	0.936658
	C12028	C	0.876559	0.543247	0.937012
	C12029	C	0.861543	0.753297	0.951499
	C12030	C	0.861536	0.253421	0.951489
	C12031	C	0.853038	0.753286	0.960027
	C12032	C	0.849051	0.692224	0.964049
	C12033	C	0.849043	0.814406	0.964020
	C12034	C	0.853025	0.253407	0.960010
	C12035	C	0.849038	0.192108	0.964028
	C12036	C	0.848969	0.314653	0.963982
	C12037	C	0.861536	0.253226	0.921876
	C12038	C	0.828613	0.753339	0.888992
	C12039	C	0.798975	0.752617	0.888986
	C12040	C	0.799093	0.752566	0.984327
	C12041	C	0.849010	0.692498	0.909342
	C12042	C	0.848995	0.814309	0.909368
	C12043	C	0.837128	0.753616	0.897510
	C12044	C	0.790483	0.752426	0.897527
	C12045	C	0.786514	0.691348	0.901538
	C12046	C	0.841168	0.692592	0.901477
	C12047	C	0.841144	0.814464	0.901508
	C12048	C	0.786516	0.813504	0.901574
	C12049	C	0.853006	0.753392	0.913361
	C12050	C	0.828666	0.753223	0.984396
	C12051	C	0.841196	0.692221	0.971904
	C12052	C	0.841182	0.814404	0.971870
	C12053	C	0.837178	0.753345	0.975886
	C12054	C	0.814449	0.462558	0.999583
	C12055	C	0.813720	0.462766	0.873822
	C12056	C	0.813847	0.462561	0.998516
	C12057	C	0.814449	0.543167	0.999565
	C12058	C	0.813838	0.543184	0.998518
	C12059	C	0.813730	0.543475	0.873833
	C12060	C	0.828667	0.253214	0.984403
	C12061	C	0.841190	0.192015	0.971886
	C12062	C	0.841126	0.314541	0.971845
	C12063	C	0.837179	0.253251	0.975872
	C12064	C	0.814580	0.043368	0.874408
	C12065	C	0.828591	0.253305	0.889063
	C12066	C	0.798999	0.252867	0.889012
	C12067	C	0.799052	0.252400	0.984371
	C12068	C	0.849015	0.192434	0.909371
	C12069	C	0.849103	0.314956	0.909319
	C12070	C	0.837149	0.253688	0.897544
	C12071	C	0.790509	0.252790	0.897546
	C12072	C	0.790535	0.752429	0.975869
	C12073	C	0.786533	0.813509	0.971875
	C12074	C	0.786465	0.691378	0.971932
	C12075	C	0.790499	0.252441	0.975879
	C12076	C	0.786506	0.313534	0.971876
	C12077	C	0.786499	0.191402	0.971870
	C12078	C	0.786507	0.191609	0.901577
	C12079	C	0.841150	0.192481	0.901533
	C12080	C	0.841216	0.314976	0.901486
	C12081	C	0.786537	0.313971	0.901569
	C12082	C	0.853035	0.253600	0.913359
	C12083	C	0.813552	0.043542	1.000229
	C12084	C	0.813238	0.043435	0.874807
	C12085	C	0.814561	0.962646	0.874395
	C12086	C	0.813521	0.962518	1.000239
	C12087	C	0.813208	0.962676	0.874813
	N12088	N	0.751328	0.070031	0.936714
	N12089	N	0.751362	0.935616	0.936714
	N12090	N	0.751321	0.435561	0.936767
	N12091	N	0.751306	0.569968	0.936728
	N12092	N	0.813826	0.435701	0.999222
	N12093	N	0.813813	0.570104	0.999212
	N12094	N	0.813810	0.070182	0.999226
	N12095	N	0.813800	0.935841	0.999222
	O12096	O	0.989919	0.695317	0.050125
	O12097	O	0.989992	0.811094	0.050031
	O12098	O	0.887932	0.694583	0.073146
	O12099	O	0.887931	0.810439	0.073186
	O12100	O	0.888005	0.194734	0.073133
	O12101	O	0.887908	0.310573	0.073261
	O12102	O	0.887892	0.695013	0.050066
	O12103	O	0.887937	0.810861	0.050130
	O12104	O	0.887995	0.194707	0.050152
	O12105	O	0.887873	0.310626	0.050056
	O12106	O	0.989899	0.694820	0.073059
	O12107	O	0.989934	0.810549	0.073125
	O12108	O	0.989871	0.194606	0.073171
	O12109	O	0.989827	0.310353	0.073097
	O12110	O	0.989938	0.195152	0.050076
	O12111	O	0.989911	0.311077	0.050098
	O12112	O	0.950455	0.695128	0.010650
	O12113	O	0.927376	0.695280	0.010585
	O12114	O	0.950435	0.694823	0.112542
	O12115	O	0.950495	0.810779	0.112581
	O12116	O	0.927494	0.694830	0.112538
	O12117	O	0.927460	0.810809	0.112492
	O12118	O	0.927429	0.811098	0.010686
	O12119	O	0.950479	0.810955	0.010636
	O12120	O	0.950428	0.195071	0.010696
	O12121	O	0.927463	0.195159	0.010657
	O12122	O	0.950479	0.194481	0.112626
	O12123	O	0.950462	0.310406	0.112642
	O12124	O	0.927451	0.195237	0.112652
	O12125	O	0.927399	0.310950	0.112577
	O12126	O	0.927428	0.311112	0.010717
	O12127	O	0.950511	0.311061	0.010618
	H12128	H	0.900568	0.644230	0.085872
	H12129	H	0.900629	0.860386	0.085781
	H12130	H	0.900673	0.144396	0.085818
	H12131	H	0.900582	0.360677	0.085829
	H12132	H	0.900597	0.861091	0.037456
	H12133	H	0.900577	0.644856	0.037421
	H12134	H	0.900580	0.361001	0.037437
	H12135	H	0.900551	0.144308	0.037391
	H12136	H	1.000320	0.064593	0.061026
	H12137	H	1.000203	0.064640	0.062099
	H12138	H	1.000248	0.940836	0.062112
	H12139	H	1.000311	0.941522	0.060997
	H12140	H	1.001638	0.064316	0.060359
	H12141	H	1.001690	0.941788	0.060389
	H12142	H	0.877594	0.064362	0.060890
	H12143	H	0.877578	0.941733	0.060895
	H12144	H	0.876566	0.064048	0.060259
	H12145	H	0.876506	0.941515	0.060187
	H12146	H	0.875056	0.064967	0.061014
	H12147	H	0.875036	0.941290	0.061073
	H12148	H	0.876771	0.441390	0.060730
	H12149	H	0.875986	0.441879	0.060861
	H12150	H	0.877410	0.441449	0.061581
	H12151	H	1.002720	0.441338	0.061511
	H12152	H	1.001966	0.441425	0.062770
	H12153	H	1.000891	0.441785	0.062725
	H12154	H	0.875769	0.564418	0.060883
	H12155	H	0.876570	0.564480	0.060673
	H12156	H	1.000936	0.564414	0.062675
	H12157	H	1.001934	0.564737	0.062737
	H12158	H	1.002753	0.564017	0.061541
	H12159	H	0.877325	0.564530	0.061476
	H12160	H	0.977280	0.644174	0.085810
	H12161	H	0.977202	0.860699	0.085683
	H12162	H	0.977154	0.144202	0.085703
	H12163	H	0.977229	0.360729	0.085786
	H12164	H	0.914678	0.644794	0.023243
	H12165	H	0.963090	0.645133	0.023311
	H12166	H	0.963100	0.860951	0.023265
	H12167	H	0.914684	0.861298	0.023258
	H12168	H	0.977242	0.645280	0.037463
	H12169	H	0.977266	0.861147	0.037439
	H12170	H	0.963160	0.644529	0.100003
	H12171	H	0.963088	0.860992	0.099869
	H12172	H	0.937541	0.441049	0.000064
	H12173	H	0.938661	0.441234	0.122743
	H12174	H	0.937617	0.441460	-0.001835
	H12175	H	0.938863	0.441567	-0.002509
	H12176	H	0.938048	0.440765	0.125010
	H12177	H	0.937664	0.440996	0.123910
	H12178	H	0.938682	0.564449	0.122755
	H12179	H	0.937635	0.564642	-0.000010
	H12180	H	0.937621	0.564169	0.123946
	H12181	H	0.937968	0.564327	0.125026
	H12182	H	0.938953	0.564671	-0.002521
	H12183	H	0.937714	0.564491	-0.001886
	H12184	H	0.963043	0.144104	0.099885
	H12185	H	0.963073	0.360730	0.099980
	H12186	H	0.939098	0.064428	-0.000847
	H12187	H	0.939069	0.064673	-0.000923
	H12188	H	0.939009	0.064136	-0.000650
	H12189	H	0.914840	0.860288	0.099875
	H12190	H	0.914775	0.644544	0.099956
	H12191	H	0.914709	0.360816	0.099978
	H12192	H	0.914811	0.144661	0.100013
	H12193	H	0.914720	0.144314	0.023263
	H12194	H	0.963128	0.144441	0.023293
	H12195	H	0.963195	0.361471	0.023213
	H12196	H	0.914754	0.361063	0.023332
	H12197	H	0.977264	0.144470	0.037440
	H12198	H	0.977331	0.361698	0.037370
	H12199	H	0.938350	0.064155	0.121923
	H12200	H	0.936839	0.064465	0.123159
	H12201	H	0.937347	0.064996	0.125713
	H12202	H	0.939036	0.940952	-0.001025
	H12203	H	0.939140	0.941304	-0.000833
	H12204	H	0.939029	0.941285	-0.000634
	H12205	H	0.938295	0.941232	0.121873
	H12206	H	0.936775	0.941749	0.123163
	H12207	H	0.937317	0.941755	0.125791
	Zn12208	Zn	0.876380	0.680344	0.061612
	Zn12209	Zn	0.876411	0.825871	0.061710
	Zn12210	Zn	0.876395	0.180193	0.061641
	Zn12211	Zn	0.876514	0.326083	0.061681
	Zn12212	Zn	0.938982	0.680095	0.124167
	Zn12213	Zn	0.938899	0.825699	0.124058
	Zn12214	Zn	0.938942	0.180022	0.124171
	Zn12215	Zn	0.938935	0.325691	0.124040
	C12216	C	0.986652	0.753156	0.046810
	C12217	C	0.891233	0.752458	0.076438
	C12218	C	0.899756	0.752348	0.084927
	C12219	C	0.903737	0.691249	0.088950
	C12220	C	0.903776	0.813460	0.088917
	C12221	C	0.891233	0.252564	0.076478
	C12222	C	0.899746	0.252490	0.084971
	C12223	C	0.903781	0.191417	0.088988
	C12224	C	0.903722	0.313651	0.088984
	C12225	C	0.891164	0.752936	0.046783
	C12226	C	0.899667	0.752945	0.038259
	C12227	C	0.903702	0.814113	0.034276
	C12228	C	0.903691	0.691809	0.034258
	C12229	C	0.891200	0.252687	0.046797
	C12230	C	0.899695	0.252599	0.038274
	C12231	C	0.903716	0.313886	0.034284
	C12232	C	0.903699	0.191398	0.034252
	C12233	C	1.000590	0.043302	0.061575
	C12234	C	1.000597	0.962279	0.061571
	C12235	C	0.876873	0.043100	0.060851
	C12236	C	0.876858	0.962831	0.060851
	C12237	C	0.875371	0.043510	0.061634
	C12238	C	0.875348	0.962543	0.061675
	C12239	C	0.876361	0.462845	0.061015
	C12240	C	1.002211	0.462414	0.061190
	C12241	C	1.001446	0.462724	0.062414
	C12242	C	0.876264	0.543299	0.061012
	C12243	C	1.001450	0.543411	0.062414
	C12244	C	1.002222	0.543147	0.061207
	C12245	C	0.986654	0.752612	0.076404
	C12246	C	0.986562	0.252489	0.076419
	C12247	C	0.978157	0.752456	0.084942
	C12248	C	0.974141	0.691255	0.088954
	C12249	C	0.974106	0.813802	0.088882
	C12250	C	0.978081	0.252537	0.084964
	C12251	C	0.974064	0.191217	0.088915
	C12252	C	0.974095	0.313759	0.088975
	C12253	C	0.986647	0.253136	0.046796
	C12254	C	0.953719	0.753018	0.013946
	C12255	C	0.924104	0.753158	0.013916
	C12256	C	0.924203	0.752649	0.109218
	C12257	C	0.974097	0.692137	0.034316
	C12258	C	0.974111	0.814164	0.034303
	C12259	C	0.962217	0.752990	0.022487
	C12260	C	0.915548	0.753131	0.022419
	C12261	C	0.911535	0.691797	0.026399
	C12262	C	0.966236	0.691998	0.026470
	C12263	C	0.966243	0.814134	0.026452
	C12264	C	0.911549	0.814338	0.026417
	C12265	C	0.978107	0.753125	0.038322
	C12266	C	0.953751	0.752774	0.109293
	C12267	C	0.966283	0.691358	0.096817
	C12268	C	0.966258	0.813867	0.096749
	C12269	C	0.962289	0.752667	0.100789
	C12270	C	0.939162	0.462620	0.123153
	C12271	C	0.938426	0.462919	-0.001842
	C12272	C	0.938127	0.462322	0.124365
	C12273	C	0.939183	0.543152	0.123160
	C12274	C	0.938114	0.543117	0.124377
	C12275	C	0.938489	0.543499	-0.001845
	C12276	C	0.953748	0.252442	0.109349
	C12277	C	0.966222	0.191159	0.096779
	C12278	C	0.966255	0.313712	0.096845
	C12279	C	0.962271	0.252428	0.100843
	C12280	C	0.939079	0.043216	-0.000887
	C12281	C	0.953756	0.253044	0.013928
	C12282	C	0.924160	0.252997	0.013961
	C12283	C	0.924135	0.252888	0.109321
	C12284	C	0.974091	0.191647	0.034307
	C12285	C	0.974147	0.314533	0.034264
	C12286	C	0.962242	0.252943	0.022457
	C12287	C	0.915597	0.252713	0.022448
	C12288	C	0.915668	0.752379	0.100711
	C12289	C	0.911656	0.813478	0.096745
	C12290	C	0.911624	0.691263	0.096774
	C12291	C	0.915609	0.252707	0.100827
	C12292	C	0.911583	0.313749	0.096831
	C12293	C	0.911636	0.191569	0.096838
	C12294	C	0.911562	0.191363	0.026401
	C12295	C	0.966236	0.191624	0.026460
	C12296	C	0.966284	0.314338	0.026418
	C12297	C	0.911581	0.314034	0.026444
	C12298	C	0.978100	0.253117	0.038301
	C12299	C	0.937951	0.043217	0.122954
	C12300	C	0.938942	0.043292	-0.000728
	C12301	C	0.939059	0.962438	-0.000879
	C12302	C	0.937918	0.962756	0.122920
	C12303	C	0.938936	0.962479	-0.000693
	N12304	N	0.876330	0.070132	0.061662
	N12305	N	0.876319	0.935707	0.061692
	N12306	N	0.876498	0.435972	0.061654
	N12307	N	0.876390	0.570347	0.061626
	N12308	N	0.938993	0.435770	0.124058
	N12309	N	0.939009	0.570161	0.124100
	N12310	N	0.938946	0.070046	0.124151
	N12311	N	0.938934	0.935658	0.124105
	O12312	O	0.989757	0.695296	0.175187
	O12313	O	0.989847	0.811174	0.175111
	O12314	O	0.888028	0.695265	0.198138
	O12315	O	0.887927	0.810917	0.198122
	O12316	O	0.888054	0.194742	0.198110
	O12317	O	0.888078	0.310673	0.198129
	O12318	O	0.887961	0.695155	0.175092
	O12319	O	0.887908	0.810928	0.175051
	O12320	O	0.888017	0.195239	0.175107
	O12321	O	0.887979	0.311019	0.175109
	O12322	O	0.989879	0.695005	0.198222
	O12323	O	0.989959	0.810786	0.198260
	O12324	O	0.989900	0.194516	0.198192
	O12325	O	0.989890	0.310447	0.198141
	O12326	O	0.989955	0.194764	0.175027
	O12327	O	0.989866	0.310693	0.175132
	O12328	O	0.950399	0.695463	0.135678
	O12329	O	0.927417	0.695044	0.135633
	O12330	O	0.950424	0.694869	0.237650
	O12331	O	0.950406	0.810576	0.237626
	O12332	O	0.927376	0.695527	0.237668
	O12333	O	0.927376	0.811354	0.237661
	O12334	O	0.927405	0.810904	0.135601
	O12335	O	0.950447	0.811191	0.135586
	O12336	O	0.950397	0.194637	0.135696
	O12337	O	0.927381	0.195159	0.135619
	O12338	O	0.950452	0.195127	0.237709
	O12339	O	0.950431	0.310725	0.237616
	O12340	O	0.927372	0.195090	0.237710
	O12341	O	0.927406	0.310607	0.237695
	O12342	O	0.927451	0.311251	0.135649
	O12343	O	0.950402	0.310620	0.135698
	H12344	H	0.900614	0.645345	0.210828
	H12345	H	0.900561	0.861921	0.210880
	H12346	H	0.900580	0.144630	0.210905
	H12347	H	0.900722	0.360647	0.210731
	H12348	H	0.900654	0.861194	0.162456
	H12349	H	0.900638	0.644743	0.162459
	H12350	H	0.900627	0.361512	0.162419
	H12351	H	0.900624	0.145017	0.162439
	H12352	H	1.000524	0.064520	0.187485
	H12353	H	1.001545	0.064412	0.187836
	H12354	H	1.001532	0.941550	0.187839
	H12355	H	1.000571	0.941303	0.187494
	H12356	H	1.000276	0.064561	0.186102
	H12357	H	1.000345	0.941408	0.186155
	H12358	H	0.876684	0.064616	0.188133
	H12359	H	0.876669	0.941290	0.188209
	H12360	H	0.877801	0.064694	0.187407
	H12361	H	0.877773	0.941317	0.187445
	H12362	H	0.877582	0.063990	0.185522
	H12363	H	0.877619	0.941262	0.185532
	H12364	H	0.877112	0.441016	0.184292
	H12365	H	0.875107	0.441499	0.184635
	H12366	H	0.878952	0.440582	0.186470
	H12367	H	1.001587	0.441509	0.185900
	H12368	H	1.002162	0.441719	0.186566
	H12369	H	1.001913	0.441335	0.187163
	H12370	H	0.875029	0.564455	0.184644
	H12371	H	0.877098	0.564309	0.184233
	H12372	H	1.001865	0.564799	0.187212
	H12373	H	1.002122	0.564428	0.186585
	H12374	H	1.001552	0.564288	0.185860
	H12375	H	0.878948	0.564384	0.186429
	H12376	H	0.977311	0.645118	0.210916
	H12377	H	0.977278	0.860234	0.210910
	H12378	H	0.977294	0.144786	0.210878
	H12379	H	0.977167	0.360484	0.210695
	H12380	H	0.914796	0.645010	0.148310
	H12381	H	0.963032	0.645506	0.148372
	H12382	H	0.963008	0.861326	0.148336
	H12383	H	0.914795	0.861322	0.148312
	H12384	H	0.977158	0.645694	0.162530
	H12385	H	0.977086	0.861109	0.162521
	H12386	H	0.963105	0.645080	0.225042
	H12387	H	0.963081	0.860489	0.224994
	H12388	H	0.939779	0.441757	0.122929
	H12389	H	0.939434	0.440623	0.249494
	H12390	H	0.940320	0.441697	0.124392
	H12391	H	0.939550	0.440975	0.125300
	H12392	H	0.938920	0.441577	0.248516
	H12393	H	0.939370	0.441383	0.248775
	H12394	H	0.939441	0.564365	0.249498
	H12395	H	0.939823	0.564221	0.122958
	H12396	H	0.939380	0.564195	0.248734
	H12397	H	0.938917	0.564373	0.248543
	H12398	H	0.939553	0.564912	0.125355
	H12399	H	0.940366	0.564703	0.124501
	H12400	H	0.963133	0.144892	0.225032
	H12401	H	0.962981	0.360567	0.224834
	H12402	H	0.941202	0.064098	0.124733
	H12403	H	0.940865	0.064238	0.122801
	H12404	H	0.939150	0.064521	0.126434
	H12405	H	0.914674	0.861565	0.225043
	H12406	H	0.914762	0.645259	0.224974
	H12407	H	0.914825	0.361005	0.224928
	H12408	H	0.914650	0.144656	0.225089
	H12409	H	0.914767	0.145166	0.148283
	H12410	H	0.962996	0.144605	0.148331
	H12411	H	0.963027	0.360993	0.148371
	H12412	H	0.914773	0.361187	0.148261
	H12413	H	0.977228	0.144343	0.162419
	H12414	H	0.977231	0.361101	0.162462
	H12415	H	0.935892	0.063980	0.249530
	H12416	H	0.937281	0.064424	0.251633
	H12417	H	0.940739	0.064503	0.251480
	H12418	H	0.940849	0.940727	0.122714
	H12419	H	0.941199	0.940866	0.124666
	H12420	H	0.939136	0.941223	0.126414
	H12421	H	0.936013	0.941015	0.249528
	H12422	H	0.937301	0.941553	0.251619
	H12423	H	0.940718	0.941030	0.251495
	Zn12424	Zn	0.876503	0.680148	0.186622
	Zn12425	Zn	0.876414	0.825632	0.186643
	Zn12426	Zn	0.876505	0.180144	0.186581
	Zn12427	Zn	0.876475	0.325572	0.186627
	Zn12428	Zn	0.938883	0.679906	0.249138
	Zn12429	Zn	0.938950	0.825513	0.249156
	Zn12430	Zn	0.938899	0.179912	0.249176
	Zn12431	Zn	0.938903	0.325364	0.249193
	C12432	C	0.986514	0.753239	0.171880
	C12433	C	0.891261	0.753269	0.201419
	C12434	C	0.899779	0.753570	0.209919
	C12435	C	0.903765	0.692376	0.213944
	C12436	C	0.903742	0.814739	0.213971
	C12437	C	0.891327	0.252620	0.201437
	C12438	C	0.899825	0.252648	0.209969
	C12439	C	0.903751	0.191537	0.214039
	C12440	C	0.903844	0.313817	0.213938
	C12441	C	0.891246	0.753044	0.171806
	C12442	C	0.899783	0.753029	0.163336
	C12443	C	0.903787	0.814213	0.159315
	C12444	C	0.903785	0.691867	0.159322
	C12445	C	0.891262	0.253237	0.171798
	C12446	C	0.899764	0.253317	0.163272
	C12447	C	0.903793	0.314473	0.159285
	C12448	C	0.903773	0.192052	0.159291
	C12449	C	1.001145	0.043338	0.187390
	C12450	C	1.001157	0.962628	0.187391
	C12451	C	0.877021	0.043404	0.187450
	C12452	C	0.877009	0.962518	0.187498
	C12453	C	0.876828	0.042903	0.185629
	C12454	C	0.876835	0.962485	0.185648
	C12455	C	0.876195	0.462505	0.185023
	C12456	C	1.001289	0.462573	0.186102
	C12457	C	1.001843	0.462701	0.186801
	C12458	C	0.876188	0.543118	0.185018
	C12459	C	1.001828	0.543406	0.186810
	C12460	C	1.001258	0.543215	0.186103
	C12461	C	0.986644	0.752916	0.201535
	C12462	C	0.986613	0.252556	0.201444
	C12463	C	0.978130	0.752757	0.210045
	C12464	C	0.974125	0.691853	0.214051
	C12465	C	0.974112	0.813578	0.214032
	C12466	C	0.978096	0.252678	0.209974
	C12467	C	0.974142	0.191636	0.214026
	C12468	C	0.974066	0.313733	0.213921
	C12469	C	0.986613	0.252735	0.171807
	C12470	C	0.953695	0.753366	0.138936
	C12471	C	0.924151	0.753047	0.138930
	C12472	C	0.924111	0.753414	0.234348
	C12473	C	0.974000	0.692398	0.159368
	C12474	C	0.973981	0.814385	0.159356
	C12475	C	0.962167	0.753367	0.147486
	C12476	C	0.915652	0.753159	0.147474
	C12477	C	0.911646	0.691917	0.151473
	C12478	C	0.966165	0.692357	0.151500
	C12479	C	0.966140	0.814427	0.151482
	C12480	C	0.911649	0.814290	0.151466
	C12481	C	0.977993	0.753364	0.163371
	C12482	C	0.953711	0.752707	0.234359
	C12483	C	0.966256	0.691849	0.221886
	C12484	C	0.966243	0.813692	0.221860
	C12485	C	0.962236	0.752803	0.225866
	C12486	C	0.939137	0.461953	0.249509
	C12487	C	0.939681	0.462574	0.124642
	C12488	C	0.939095	0.462559	0.248759
	C12489	C	0.939127	0.543096	0.249506
	C12490	C	0.939077	0.542936	0.248766
	C12491	C	0.939695	0.543419	0.124691
	C12492	C	0.953702	0.252861	0.234351
	C12493	C	0.966281	0.191724	0.221880
	C12494	C	0.966205	0.313735	0.221770
	C12495	C	0.962236	0.252760	0.225841
	C12496	C	0.940475	0.043012	0.123848
	C12497	C	0.953675	0.252676	0.138991
	C12498	C	0.924118	0.253249	0.138899
	C12499	C	0.924088	0.252881	0.234430
	C12500	C	0.974054	0.191513	0.159313
	C12501	C	0.974068	0.314001	0.159339
	C12502	C	0.962173	0.252811	0.147516
	C12503	C	0.915595	0.253147	0.147399
	C12504	C	0.915628	0.753353	0.225790
	C12505	C	0.911570	0.814651	0.221853
	C12506	C	0.911594	0.692209	0.221817
	C12507	C	0.915612	0.252869	0.225897
	C12508	C	0.911665	0.313963	0.221816
	C12509	C	0.911576	0.191648	0.221906
	C12510	C	0.911613	0.192013	0.151428
	C12511	C	0.966159	0.191541	0.151505
	C12512	C	0.966183	0.313994	0.151520
	C12513	C	0.911636	0.314266	0.151424
	C12514	C	0.978078	0.252739	0.163324
	C12515	C	0.937209	0.043080	0.250187
	C12516	C	0.938421	0.043296	0.125561
	C12517	C	0.940460	0.962046	0.123811
	C12518	C	0.937233	0.962548	0.250196
	C12519	C	0.938420	0.962575	0.125553
	N12520	N	0.876416	0.070032	0.186571
	N12521	N	0.876400	0.935597	0.186614
	N12522	N	0.876492	0.435580	0.186634
	N12523	N	0.876501	0.570024	0.186648
	N12524	N	0.938913	0.435519	0.249148
	N12525	N	0.938875	0.569919	0.249152
	N12526	N	0.938879	0.069942	0.249121
	N12527	N	0.938918	0.935557	0.249135
	O12528	O	0.989871	0.694965	0.300154
	O12529	O	0.989898	0.810833	0.300136
	O12530	O	0.887900	0.694898	0.323245
	O12531	O	0.887952	0.810863	0.323180
	O12532	O	0.887843	0.195098	0.323363
	O12533	O	0.887953	0.311093	0.323201
	O12534	O	0.887914	0.695176	0.300147
	O12535	O	0.887886	0.811121	0.300209
	O12536	O	0.887895	0.194930	0.300176
	O12537	O	0.887975	0.311084	0.300269
	O12538	O	0.989968	0.694719	0.323197
	O12539	O	0.989886	0.810510	0.323074
	O12540	O	0.989915	0.194779	0.323166
	O12541	O	0.989864	0.310841	0.323066
	O12542	O	0.989897	0.194293	0.300124
	O12543	O	0.989901	0.310420	0.300092
	O12544	O	0.950460	0.694774	0.260641
	O12545	O	0.927346	0.695163	0.260673
	O12546	O	0.950409	0.695042	0.362551
	O12547	O	0.950422	0.811066	0.362514
	O12548	O	0.927373	0.695015	0.362665
	O12549	O	0.927451	0.810893	0.362578
	O12550	O	0.927433	0.811280	0.260740
	O12551	O	0.950417	0.810662	0.260698
	O12552	O	0.950384	0.194575	0.260709
	O12553	O	0.927371	0.194829	0.260746
	O12554	O	0.950489	0.194863	0.362594
	O12555	O	0.950527	0.310737	0.362613
	O12556	O	0.927511	0.195413	0.362576
	O12557	O	0.927532	0.311284	0.362605
	O12558	O	0.927375	0.310652	0.260699
	O12559	O	0.950389	0.310515	0.260750
	H12560	H	0.900626	0.644871	0.335762
	H12561	H	0.900540	0.861253	0.335921
	H12562	H	0.900601	0.144890	0.335896
	H12563	H	0.900671	0.361991	0.335819
	H12564	H	0.900649	0.862072	0.287638
	H12565	H	0.900627	0.644582	0.287524
	H12566	H	0.900458	0.361615	0.287430
	H12567	H	0.900596	0.144794	0.287667
	H12568	H	0.999929	0.064299	0.313166
	H12569	H	1.001652	0.064396	0.313866
	H12570	H	1.001655	0.940800	0.313759
	H12571	H	1.000025	0.941031	0.313140
	H12572	H	0.999524	0.064552	0.310722
	H12573	H	0.999607	0.941277	0.310719
	H12574	H	0.875963	0.064552	0.313497
	H12575	H	0.875916	0.941729	0.313528
	H12576	H	0.877492	0.064883	0.313181
	H12577	H	0.877419	0.941279	0.313222
	H12578	H	0.878154	0.064298	0.311182
	H12579	H	0.878057	0.941155	0.311182
	H12580	H	0.875525	0.441687	0.310623
	H12581	H	0.875031	0.441405	0.311638
	H12582	H	0.877084	0.441327	0.310598
	H12583	H	1.001565	0.441647	0.312544
	H12584	H	1.000612	0.441312	0.311963
	H12585	H	1.000653	0.441136	0.311183
	H12586	H	0.874996	0.564659	0.311635
	H12587	H	0.875546	0.564427	0.310661
	H12588	H	1.000618	0.564661	0.311226
	H12589	H	1.000595	0.564197	0.312011
	H12590	H	1.001512	0.564278	0.312549
	H12591	H	0.877065	0.564681	0.310538
	H12592	H	0.977221	0.644663	0.335773
	H12593	H	0.977301	0.860895	0.335703
	H12594	H	0.977245	0.144675	0.335807
	H12595	H	0.977237	0.360967	0.335733
	H12596	H	0.914753	0.644818	0.273377
	H12597	H	0.963056	0.644249	0.273335
	H12598	H	0.963103	0.860869	0.273301
	H12599	H	0.914760	0.862201	0.273443
	H12600	H	0.977164	0.644270	0.287529
	H12601	H	0.977219	0.860846	0.287484
	H12602	H	0.963044	0.644922	0.349878
	H12603	H	0.963105	0.860922	0.349838
	H12604	H	0.938992	0.440599	0.249789
	H12605	H	0.939000	0.441268	0.375188
	H12606	H	0.938286	0.441025	0.249406
	H12607	H	0.938281	0.441449	0.248907
	H12608	H	0.939885	0.441167	0.373706
	H12609	H	0.939964	0.441704	0.374514
	H12610	H	0.938948	0.564481	0.375195
	H12611	H	0.938988	0.564338	0.249793
	H12612	H	0.939899	0.564187	0.374547
	H12613	H	0.939845	0.564242	0.373695
	H12614	H	0.938315	0.564361	0.248907
	H12615	H	0.938312	0.564144	0.249449
	H12616	H	0.963115	0.144641	0.349939
	H12617	H	0.963137	0.361146	0.349919
	H12618	H	0.940003	0.064368	0.246388
	H12619	H	0.937528	0.064199	0.246496
	H12620	H	0.941863	0.064164	0.249276
	H12621	H	0.914721	0.861149	0.350038
	H12622	H	0.914837	0.644897	0.349906
	H12623	H	0.914862	0.361967	0.349945
	H12624	H	0.914810	0.144833	0.350003
	H12625	H	0.914803	0.144432	0.273536
	H12626	H	0.963078	0.144052	0.273356
	H12627	H	0.963153	0.360768	0.273288
	H12628	H	0.914595	0.361555	0.273295
	H12629	H	0.977266	0.144075	0.287457
	H12630	H	0.977336	0.360774	0.287389
	H12631	H	0.938021	0.064293	0.376128
	H12632	H	0.939857	0.064087	0.376181
	H12633	H	0.941193	0.064466	0.373994
	H12634	H	0.937561	0.940733	0.246480
	H12635	H	0.940073	0.941264	0.246382
	H12636	H	0.941891	0.941202	0.249283
	H12637	H	0.938001	0.941369	0.376116
	H12638	H	0.939817	0.941436	0.376175
	H12639	H	0.941181	0.941441	0.374023
	Zn12640	Zn	0.876420	0.680051	0.311685
	Zn12641	Zn	0.876334	0.825911	0.311743
	Zn12642	Zn	0.876453	0.180123	0.311712
	Zn12643	Zn	0.876357	0.325891	0.311737
	Zn12644	Zn	0.938910	0.680032	0.374144
	Zn12645	Zn	0.938931	0.825639	0.374152
	Zn12646	Zn	0.938964	0.180017	0.374139
	Zn12647	Zn	0.939007	0.325701	0.374171
	C12648	C	0.986628	0.752883	0.296841
	C12649	C	0.891226	0.752912	0.326468
	C12650	C	0.899738	0.753050	0.334998
	C12651	C	0.903757	0.691852	0.338953
	C12652	C	0.903718	0.814250	0.339036
	C12653	C	0.891188	0.253193	0.326564
	C12654	C	0.899718	0.253369	0.335066
	C12655	C	0.903742	0.192021	0.339055
	C12656	C	0.903785	0.314796	0.339010
	C12657	C	0.891178	0.753297	0.296883
	C12658	C	0.899668	0.753402	0.288328
	C12659	C	0.903724	0.814901	0.284393
	C12660	C	0.903708	0.691921	0.284333
	C12661	C	0.891193	0.253040	0.296918
	C12662	C	0.899669	0.253082	0.288357
	C12663	C	0.903633	0.314457	0.284303
	C12664	C	0.903732	0.191703	0.284452
	C12665	C	1.000974	0.043258	0.313040
	C12666	C	1.000993	0.962256	0.312989
	C12667	C	0.876602	0.043386	0.312891
	C12668	C	0.876572	0.962599	0.312918
	C12669	C	0.877270	0.043035	0.310892
	C12670	C	0.877220	0.962628	0.310918
	C12671	C	0.875563	0.462922	0.311272
	C12672	C	1.001786	0.462801	0.312193
	C12673	C	1.000852	0.462534	0.311614
	C12674	C	0.875573	0.543326	0.311268
	C12675	C	1.000832	0.543125	0.311609
	C12676	C	1.001764	0.543377	0.312179
	C12677	C	0.986633	0.752697	0.326409
	C12678	C	0.986614	0.252877	0.326408
	C12679	C	0.978098	0.752835	0.334917
	C12680	C	0.974058	0.691634	0.338914
	C12681	C	0.974106	0.814087	0.338880
	C12682	C	0.978095	0.252863	0.334909
	C12683	C	0.974086	0.191669	0.338917
	C12684	C	0.974101	0.314059	0.338894
	C12685	C	0.986641	0.252341	0.296806
	C12686	C	0.953744	0.752694	0.263940
	C12687	C	0.924118	0.753315	0.263994
	C12688	C	0.924150	0.752967	0.359324
	C12689	C	0.974056	0.691366	0.284345
	C12690	C	0.974087	0.813839	0.284314
	C12691	C	0.962256	0.752599	0.272446
	C12692	C	0.915561	0.753549	0.272480
	C12693	C	0.911569	0.692004	0.276479
	C12694	C	0.966216	0.691352	0.276475
	C12695	C	0.966248	0.813796	0.276447
	C12696	C	0.911581	0.814987	0.276538
	C12697	C	0.978111	0.752665	0.288306
	C12698	C	0.953697	0.752993	0.359251
	C12699	C	0.966201	0.691865	0.346754
	C12700	C	0.966250	0.813969	0.346730
	C12701	C	0.962221	0.752935	0.350744
	C12702	C	0.938729	0.462456	0.374784
	C12703	C	0.938468	0.462363	0.249158
	C12704	C	0.939692	0.462561	0.374145
	C12705	C	0.938699	0.543390	0.374802
	C12706	C	0.939655	0.543085	0.374146
	C12707	C	0.938454	0.543108	0.249167
	C12708	C	0.953792	0.252785	0.359328
	C12709	C	0.966253	0.191624	0.346793
	C12710	C	0.966269	0.314106	0.346771
	C12711	C	0.962282	0.252881	0.350790
	C12712	C	0.938804	0.042909	0.247150
	C12713	C	0.953680	0.252495	0.263997
	C12714	C	0.924066	0.252823	0.263994
	C12715	C	0.924220	0.253388	0.359323
	C12716	C	0.974095	0.191142	0.284318
	C12717	C	0.974137	0.313691	0.284282
	C12718	C	0.962222	0.252426	0.272479
	C12719	C	0.915515	0.252967	0.272470
	C12720	C	0.915618	0.752934	0.350819
	C12721	C	0.911574	0.814255	0.346883
	C12722	C	0.911627	0.691782	0.346796
	C12723	C	0.915661	0.253412	0.350848
	C12724	C	0.911671	0.314777	0.346832
	C12725	C	0.911637	0.192064	0.346872
	C12726	C	0.911584	0.191684	0.276583
	C12727	C	0.966239	0.191111	0.276473
	C12728	C	0.966272	0.313708	0.276441
	C12729	C	0.911473	0.314355	0.276435
	C12730	C	0.978112	0.252404	0.288294
	C12731	C	0.938938	0.043232	0.375631
	C12732	C	0.940658	0.043228	0.250051
	C12733	C	0.938835	0.962079	0.247156
	C12734	C	0.938918	0.962500	0.375624
	C12735	C	0.940694	0.962427	0.250058
	N12736	N	0.876374	0.070099	0.311707
	N12737	N	0.876295	0.935727	0.311756
	N12738	N	0.876326	0.435847	0.311729
	N12739	N	0.876343	0.570210	0.311702
	N12740	N	0.939007	0.435670	0.374182
	N12741	N	0.938949	0.570090	0.374199
	N12742	N	0.938971	0.070081	0.374130
	N12743	N	0.938966	0.935668	0.374154
	O12744	O	0.989874	0.694742	0.425059
	O12745	O	0.989994	0.810622	0.424972
	O12746	O	0.887852	0.694574	0.448035
	O12747	O	0.887837	0.810390	0.448045
	O12748	O	0.887866	0.194531	0.448134
	O12749	O	0.887872	0.310417	0.448084
	O12750	O	0.887815	0.694801	0.424984
	O12751	O	0.887871	0.810588	0.425050
	O12752	O	0.887865	0.194664	0.425002
	O12753	O	0.887921	0.310284	0.425070
	O12754	O	0.989868	0.694844	0.448008
	O12755	O	0.989976	0.810610	0.448112
	O12756	O	0.989933	0.194384	0.448115
	O12757	O	0.989987	0.310518	0.448153
	O12758	O	0.989880	0.194674	0.425098
	O12759	O	0.989960	0.310482	0.425030
	O12760	O	0.950412	0.695045	0.385694
	O12761	O	0.927351	0.695189	0.385617
	O12762	O	0.950409	0.694823	0.487485
	O12763	O	0.950449	0.810824	0.487573
	O12764	O	0.927396	0.694801	0.487479
	O12765	O	0.927309	0.810463	0.487511
	O12766	O	0.927415	0.810861	0.385675
	O12767	O	0.950413	0.810787	0.385679
	O12768	O	0.950475	0.194909	0.385643
	O12769	O	0.927517	0.195256	0.385668
	O12770	O	0.950366	0.194714	0.487481
	O12771	O	0.950355	0.310754	0.487398
	O12772	O	0.927288	0.194792	0.487596
	O12773	O	0.927290	0.310717	0.487550
	O12774	O	0.927379	0.310787	0.385609
	O12775	O	0.950485	0.310703	0.385638
	H12776	H	0.900494	0.644250	0.460709
	H12777	H	0.900483	0.860303	0.460702
	H12778	H	0.900647	0.143943	0.460703
	H12779	H	0.900509	0.360717	0.460781
	H12780	H	0.900530	0.860870	0.412465
	H12781	H	0.900551	0.644746	0.412448
	H12782	H	0.900543	0.360568	0.412351
	H12783	H	0.900561	0.144691	0.412338
	H12784	H	0.999703	0.064223	0.437274
	H12785	H	1.000844	0.064322	0.438325
	H12786	H	1.000850	0.941347	0.438343
	H12787	H	0.999747	0.940837	0.437286
	H12788	H	1.000262	0.064070	0.435165
	H12789	H	1.000235	0.941380	0.435128
	H12790	H	0.879031	0.064841	0.437088
	H12791	H	0.879052	0.941604	0.437086
	H12792	H	0.878504	0.064616	0.434800
	H12793	H	0.878513	0.941544	0.434840
	H12794	H	0.875421	0.064068	0.433879
	H12795	H	0.875449	0.940867	0.433952
	H12796	H	0.875092	0.441641	0.434599
	H12797	H	0.874031	0.441744	0.436206
	H12798	H	0.877729	0.441539	0.434737
	H12799	H	1.002158	0.441215	0.435440
	H12800	H	1.002863	0.441054	0.436812
	H12801	H	1.002154	0.441811	0.437742
	H12802	H	0.874006	0.564322	0.436225
	H12803	H	0.875055	0.564867	0.434573
	H12804	H	1.002186	0.564107	0.437737
	H12805	H	1.002851	0.564520	0.436782
	H12806	H	1.002217	0.564869	0.435373
	H12807	H	0.877714	0.564790	0.434680
	H12808	H	0.977242	0.644546	0.460770
	H12809	H	0.977316	0.860842	0.460735
	H12810	H	0.977259	0.143832	0.460691
	H12811	H	0.977283	0.361198	0.460704
	H12812	H	0.914735	0.644790	0.398327
	H12813	H	0.963038	0.644795	0.398365
	H12814	H	0.963116	0.860978	0.398219
	H12815	H	0.914695	0.861039	0.398325
	H12816	H	0.977219	0.645096	0.412482
	H12817	H	0.977318	0.861059	0.412337
	H12818	H	0.963129	0.644484	0.474932
	H12819	H	0.963171	0.861590	0.474891
	H12820	H	0.938268	0.441206	0.374796
	H12821	H	0.939465	0.441183	0.498275
	H12822	H	0.938174	0.441204	0.373647
	H12823	H	0.938849	0.441019	0.373187
	H12824	H	0.937972	0.441437	0.498938
	H12825	H	0.938380	0.441456	0.498274
	H12826	H	0.939428	0.564665	0.498247
	H12827	H	0.938190	0.564766	0.374843
	H12828	H	0.938385	0.564882	0.498262
	H12829	H	0.937993	0.564901	0.498999
	H12830	H	0.938837	0.564375	0.373176
	H12831	H	0.938098	0.564366	0.373672
	H12832	H	0.963067	0.143787	0.474795
	H12833	H	0.963079	0.361222	0.474810
	H12834	H	0.937744	0.064814	0.372272
	H12835	H	0.936754	0.064327	0.373897
	H12836	H	0.940253	0.064696	0.372364
	H12837	H	0.914685	0.860252	0.474814
	H12838	H	0.914649	0.644390	0.474830
	H12839	H	0.914644	0.360875	0.474953
	H12840	H	0.914743	0.143968	0.474859
	H12841	H	0.914688	0.144959	0.398201
	H12842	H	0.963120	0.144627	0.398281
	H12843	H	0.963063	0.360865	0.398346
	H12844	H	0.914683	0.360305	0.398179
	H12845	H	0.977292	0.144582	0.412463
	H12846	H	0.977179	0.360864	0.412504
	H12847	H	0.938042	0.064805	0.499192
	H12848	H	0.938396	0.065053	0.499706
	H12849	H	0.939316	0.064746	0.499684
	H12850	H	0.936800	0.941666	0.373910
	H12851	H	0.937753	0.941168	0.372342
	H12852	H	0.940310	0.941058	0.372370
	H12853	H	0.938027	0.941617	0.499258
	H12854	H	0.938452	0.941428	0.499792
	H12855	H	0.939354	0.941633	0.499670
	Zn12856	Zn	0.876295	0.680039	0.436527
	Zn12857	Zn	0.876337	0.825786	0.436531
	Zn12858	Zn	0.876331	0.180045	0.436531
	Zn12859	Zn	0.876352	0.325859	0.436545
	Zn12860	Zn	0.938894	0.680054	0.499070
	Zn12861	Zn	0.938850	0.825891	0.499060
	Zn12862	Zn	0.938880	0.180136	0.499071
	Zn12863	Zn	0.938877	0.325860	0.499033
	C12864	C	0.986645	0.752739	0.421753
	C12865	C	0.891154	0.752440	0.451299
	C12866	C	0.899686	0.752279	0.459802
	C12867	C	0.903671	0.691183	0.463828
	C12868	C	0.903665	0.813393	0.463838
	C12869	C	0.891194	0.252534	0.451356
	C12870	C	0.899741	0.252566	0.459838
	C12871	C	0.903761	0.191142	0.463844
	C12872	C	0.903689	0.313698	0.463899
	C12873	C	0.891142	0.752670	0.421762
	C12874	C	0.899705	0.752783	0.413302
	C12875	C	0.903690	0.814032	0.409305
	C12876	C	0.903708	0.691640	0.409309
	C12877	C	0.891195	0.252532	0.421755
	C12878	C	0.899723	0.252695	0.413247
	C12879	C	0.903710	0.313684	0.409227
	C12880	C	0.903712	0.191650	0.409218
	C12881	C	1.000601	0.043136	0.437440
	C12882	C	1.000600	0.962273	0.437464
	C12883	C	0.878150	0.043447	0.436103
	C12884	C	0.878141	0.962600	0.436111
	C12885	C	0.875067	0.043134	0.435186
	C12886	C	0.875077	0.962387	0.435189
	C12887	C	0.875009	0.462790	0.435689
	C12888	C	1.001615	0.462631	0.435639
	C12889	C	1.002265	0.462631	0.437083
	C12890	C	0.874994	0.543395	0.435693
	C12891	C	1.002261	0.543094	0.437082
	C12892	C	1.001609	0.543370	0.435622
	C12893	C	0.986643	0.752692	0.451375
	C12894	C	0.986692	0.252503	0.451421
	C12895	C	0.978113	0.752676	0.459895
	C12896	C	0.974107	0.691536	0.463922
	C12897	C	0.974123	0.813970	0.463883
	C12898	C	0.978208	0.252534	0.459953
	C12899	C	0.974142	0.190993	0.463884
	C12900	C	0.974157	0.314042	0.463902
	C12901	C	0.986658	0.252599	0.421771
	C12902	C	0.953704	0.752895	0.388961
	C12903	C	0.924115	0.753001	0.388956
	C12904	C	0.924071	0.752538	0.484192
	C12905	C	0.974084	0.691924	0.409319
	C12906	C	0.974132	0.814120	0.409227
	C12907	C	0.962227	0.752910	0.397456
	C12908	C	0.915609	0.752934	0.397504
	C12909	C	0.911586	0.691692	0.401480
	C12910	C	0.966206	0.691808	0.401492
	C12911	C	0.966250	0.814155	0.401405
	C12912	C	0.911572	0.814096	0.401476
	C12913	C	0.978116	0.753011	0.413243
	C12914	C	0.953723	0.752903	0.484261
	C12915	C	0.966253	0.691641	0.471772
	C12916	C	0.966263	0.814274	0.471737
	C12917	C	0.962248	0.753017	0.475762
	C12918	C	0.939461	0.462527	0.498727
	C12919	C	0.938647	0.462380	0.373634
	C12920	C	0.938379	0.462633	0.498714
	C12921	C	0.939471	0.543222	0.498720
	C12922	C	0.938371	0.543559	0.498729
	C12923	C	0.938619	0.543143	0.373641
	C12924	C	0.953672	0.252625	0.484172
	C12925	C	0.966259	0.191017	0.471712
	C12926	C	0.966267	0.313939	0.471720
	C12927	C	0.962258	0.252485	0.475714
	C12928	C	0.937708	0.043273	0.373378
	C12929	C	0.953774	0.252793	0.388912
	C12930	C	0.924174	0.252938	0.388934
	C12931	C	0.924050	0.252737	0.484240
	C12932	C	0.974126	0.191471	0.409301
	C12933	C	0.974074	0.313809	0.409330
	C12934	C	0.962283	0.252717	0.397436
	C12935	C	0.915644	0.252768	0.397436
	C12936	C	0.915555	0.752322	0.475665
	C12937	C	0.911532	0.813348	0.471685
	C12938	C	0.911530	0.691245	0.471676
	C12939	C	0.915571	0.252658	0.475700
	C12940	C	0.911526	0.313785	0.471757
	C12941	C	0.911593	0.191043	0.471712
	C12942	C	0.911583	0.191790	0.401388
	C12943	C	0.966281	0.191542	0.401437
	C12944	C	0.966231	0.313837	0.401478
	C12945	C	0.911584	0.313637	0.401395
	C12946	C	0.978136	0.252589	0.413271
	C12947	C	0.938390	0.043421	0.499353
	C12948	C	0.940265	0.043254	0.373435
	C12949	C	0.937703	0.962625	0.373376
	C12950	C	0.938387	0.962601	0.499384
	C12951	C	0.940252	0.962397	0.373450
	N12952	N	0.876302	0.070144	0.436523
	N12953	N	0.876325	0.935758	0.436524
	N12954	N	0.876300	0.435752	0.436529
	N12955	N	0.876302	0.570135	0.436530
	N12956	N	0.938932	0.435689	0.499034
	N12957	N	0.938948	0.570076	0.499055
	N12958	N	0.938838	0.070058	0.499075
	N12959	N	0.938814	0.935740	0.499074
	O12960	O	0.989862	0.695261	0.550015
	O12961	O	0.989771	0.811173	0.550152
	O12962	O	0.887919	0.694572	0.573085
	O12963	O	0.888015	0.810398	0.573039
	O12964	O	0.887955	0.194692	0.573032
	O12965	O	0.887928	0.310419	0.573093
	O12966	O	0.887822	0.695097	0.549931
	O12967	O	0.887924	0.810873	0.550075
	O12968	O	0.887971	0.195338	0.550046
	O12969	O	0.887946	0.311161	0.550043
	O12970	O	0.989830	0.694617	0.573121
	O12971	O	0.989814	0.810623	0.573104
	O12972	O	0.989789	0.194658	0.573100
	O12973	O	0.989832	0.310638	0.573122
	O12974	O	0.989807	0.195099	0.550024
	O12975	O	0.989763	0.310960	0.550055
	O12976	O	0.950423	0.695178	0.510573
	O12977	O	0.927414	0.695213	0.510578
	O12978	O	0.950426	0.694669	0.612629
	O12979	O	0.950406	0.810466	0.612621
	O12980	O	0.927391	0.694363	0.612591
	O12981	O	0.927336	0.810130	0.612646
	O12982	O	0.927385	0.810931	0.510608
	O12983	O	0.950398	0.811277	0.510579
	O12984	O	0.950383	0.195372	0.510566
	O12985	O	0.927330	0.195308	0.510555
	O12986	O	0.950340	0.194687	0.612567
	O12987	O	0.950420	0.310600	0.612629
	O12988	O	0.927355	0.194604	0.612559
	O12989	O	0.927353	0.310504	0.612598
	O12990	O	0.927356	0.311329	0.510563
	O12991	O	0.950347	0.311283	0.510593
	H12992	H	0.900707	0.644139	0.585594
	H12993	H	0.900664	0.860606	0.585710
	H12994	H	0.900544	0.144462	0.585733
	H12995	H	0.900621	0.360585	0.585692
	H12996	H	0.900478	0.861164	0.537255
	H12997	H	0.900510	0.645141	0.537338
	H12998	H	0.900516	0.361644	0.537303
	H12999	H	0.900547	0.145360	0.537367
	H13000	H	1.000963	0.064374	0.561409
	H13001	H	1.001031	0.064143	0.561722
	H13002	H	1.000980	0.941045	0.561678
	H13003	H	1.000985	0.941413	0.561386
	H13004	H	1.001296	0.064318	0.561131
	H13005	H	1.001311	0.940951	0.561138
	H13006	H	0.875799	0.064498	0.561474
	H13007	H	0.875747	0.941081	0.561518
	H13008	H	0.875924	0.064343	0.561959
	H13009	H	0.875931	0.941085	0.561974
	H13010	H	0.876687	0.064169	0.562118
	H13011	H	0.876663	0.940858	0.562113
	H13012	H	0.876292	0.440844	0.563003
	H13013	H	0.877448	0.441248	0.562621
	H13014	H	0.875012	0.441243	0.561898
	H13015	H	1.004264	0.441153	0.562815
	H13016	H	1.001155	0.441098	0.564744
	H13017	H	0.998803	0.441694	0.563483
	H13018	H	0.877436	0.564282	0.562559
	H13019	H	0.876244	0.564406	0.562979
	H13020	H	0.998816	0.564362	0.563446
	H13021	H	1.001127	0.564578	0.564726
	H13022	H	1.004278	0.564108	0.562838
	H13023	H	0.874954	0.564153	0.561912
	H13024	H	0.977164	0.644347	0.585689
	H13025	H	0.977192	0.861257	0.585795
	H13026	H	0.977231	0.144409	0.585847
	H13027	H	0.977115	0.360989	0.585719
	H13028	H	0.914709	0.644944	0.523209
	H13029	H	0.963047	0.644951	0.523254
	H13030	H	0.963130	0.861575	0.523184
	H13031	H	0.914650	0.861097	0.523139
	H13032	H	0.977175	0.644932	0.537401
	H13033	H	0.977235	0.861744	0.537371
	H13034	H	0.962963	0.644394	0.599766
	H13035	H	0.963017	0.860836	0.599916
	H13036	H	0.939845	0.441382	0.498930
	H13037	H	0.938374	0.441364	0.622412
	H13038	H	0.939300	0.441518	0.499947
	H13039	H	0.938474	0.441401	0.499901
	H13040	H	0.937625	0.440711	0.625465
	H13041	H	0.937070	0.441322	0.624055
	H13042	H	0.938408	0.564256	0.622405
	H13043	H	0.939874	0.564185	0.498935
	H13044	H	0.937060	0.564480	0.623997
	H13045	H	0.937559	0.564272	0.625465
	H13046	H	0.938516	0.564333	0.499950
	H13047	H	0.939397	0.564204	0.499929
	H13048	H	0.963068	0.144582	0.600008
	H13049	H	0.962999	0.360770	0.599886
	H13050	H	0.939110	0.064450	0.498359
	H13051	H	0.938474	0.064085	0.498375
	H13052	H	0.939588	0.064422	0.499082
	H13053	H	0.914732	0.860486	0.599906
	H13054	H	0.914808	0.644171	0.599789
	H13055	H	0.914728	0.360404	0.599869
	H13056	H	0.914672	0.144438	0.599917
	H13057	H	0.914660	0.145250	0.523174
	H13058	H	0.962970	0.145166	0.523252
	H13059	H	0.962968	0.361428	0.523274
	H13060	H	0.914637	0.361435	0.523116
	H13061	H	0.977081	0.144977	0.537440
	H13062	H	0.977074	0.361223	0.537454
	H13063	H	0.939987	0.064697	0.624265
	H13064	H	0.939733	0.064791	0.623331
	H13065	H	0.938442	0.064034	0.623051
	H13066	H	0.938393	0.940776	0.498366
	H13067	H	0.939077	0.940773	0.498301
	H13068	H	0.939575	0.941658	0.499038
	H13069	H	0.940005	0.941226	0.624362
	H13070	H	0.939775	0.941561	0.623414
	H13071	H	0.938482	0.941319	0.623107
	Zn13072	Zn	0.876394	0.679989	0.561498
	Zn13073	Zn	0.876384	0.825508	0.561558
	Zn13074	Zn	0.876442	0.180084	0.561552
	Zn13075	Zn	0.876459	0.325493	0.561615
	Zn13076	Zn	0.938849	0.679962	0.624145
	Zn13077	Zn	0.938893	0.825577	0.624155
	Zn13078	Zn	0.938836	0.179952	0.624067
	Zn13079	Zn	0.938896	0.325582	0.624117
	C13080	C	0.986539	0.753263	0.546796
	C13081	C	0.891234	0.752409	0.576371
	C13082	C	0.899725	0.752325	0.584909
	C13083	C	0.903767	0.691159	0.588852
	C13084	C	0.903731	0.813549	0.588914
	C13085	C	0.891215	0.252501	0.576347
	C13086	C	0.899718	0.252472	0.584868
	C13087	C	0.903690	0.191357	0.588893
	C13088	C	0.903730	0.313518	0.588868
	C13089	C	0.891154	0.753037	0.546700
	C13090	C	0.899679	0.753082	0.538191
	C13091	C	0.903662	0.814172	0.534159
	C13092	C	0.903684	0.691954	0.534192
	C13093	C	0.891216	0.253354	0.546736
	C13094	C	0.899702	0.253496	0.538191
	C13095	C	0.903683	0.314686	0.534167
	C13096	C	0.903694	0.192285	0.534198
	C13097	C	1.001061	0.042924	0.561551
	C13098	C	1.001091	0.962389	0.561524
	C13099	C	0.876007	0.043123	0.561651
	C13100	C	0.876007	0.962246	0.561673
	C13101	C	0.876708	0.042984	0.561814
	C13102	C	0.876693	0.962293	0.561810
	C13103	C	0.876738	0.462265	0.562475
	C13104	C	1.003492	0.462296	0.561508
	C13105	C	1.000336	0.462559	0.563432
	C13106	C	0.876742	0.543132	0.562469
	C13107	C	1.000332	0.543303	0.563440
	C13108	C	1.003495	0.542834	0.561531
	C13109	C	0.986516	0.752611	0.576358
	C13110	C	0.986527	0.252646	0.576388
	C13111	C	0.977982	0.752722	0.584857
	C13112	C	0.973989	0.691369	0.588825
	C13113	C	0.974005	0.814060	0.588891
	C13114	C	0.978017	0.252656	0.584908
	C13115	C	0.974068	0.191447	0.588973
	C13116	C	0.974008	0.313905	0.588902
	C13117	C	0.986509	0.253029	0.546743
	C13118	C	0.953687	0.753239	0.513869
	C13119	C	0.924101	0.753014	0.513870
	C13120	C	0.924066	0.752285	0.609315
	C13121	C	0.974021	0.692054	0.534282
	C13122	C	0.974060	0.814590	0.534263
	C13123	C	0.962195	0.753256	0.522409
	C13124	C	0.915571	0.753025	0.522358
	C13125	C	0.911553	0.691947	0.526357
	C13126	C	0.966173	0.691991	0.526421
	C13127	C	0.966206	0.814593	0.526404
	C13128	C	0.911523	0.814151	0.526316
	C13129	C	0.978013	0.753318	0.538299
	C13130	C	0.953679	0.752564	0.609307
	C13131	C	0.966138	0.691408	0.596680
	C13132	C	0.966152	0.813858	0.596747
	C13133	C	0.962149	0.752589	0.600729
	C13134	C	0.939085	0.462671	0.622962
	C13135	C	0.938911	0.462493	0.499685
	C13136	C	0.937758	0.462355	0.624593
	C13137	C	0.939110	0.543294	0.622961
	C13138	C	0.937735	0.543177	0.624589
	C13139	C	0.938935	0.543024	0.499700
	C13140	C	0.953644	0.252634	0.609283
	C13141	C	0.966222	0.191429	0.596833
	C13142	C	0.966172	0.313855	0.596761
	C13143	C	0.962180	0.252622	0.600781
	C13144	C	0.938809	0.043283	0.498542
	C13145	C	0.953643	0.253324	0.513864
	C13146	C	0.924050	0.253340	0.513820
	C13147	C	0.924063	0.252585	0.609284
	C13148	C	0.973978	0.191961	0.534251
	C13149	C	0.973995	0.314366	0.534238
	C13150	C	0.962179	0.253266	0.522367
	C13151	C	0.915530	0.253361	0.522323
	C13152	C	0.915542	0.752303	0.600815
	C13153	C	0.911576	0.813490	0.596776
	C13154	C	0.911612	0.691177	0.596711
	C13155	C	0.915547	0.252417	0.600760
	C13156	C	0.911572	0.313486	0.596737
	C13157	C	0.911538	0.191352	0.596758
	C13158	C	0.911529	0.192273	0.526324
	C13159	C	0.966132	0.192025	0.526405
	C13160	C	0.966135	0.314490	0.526399
	C13161	C	0.911518	0.314481	0.526301
	C13162	C	0.978025	0.253089	0.538214
	C13163	C	0.939613	0.043446	0.623899
	C13164	C	0.939290	0.043277	0.499307
	C13165	C	0.938763	0.962463	0.498537
	C13166	C	0.939622	0.962455	0.623955
	C13167	C	0.939294	0.962674	0.499286
	N13168	N	0.876386	0.069951	0.561538
	N13169	N	0.876386	0.935506	0.561580
	N13170	N	0.876444	0.435528	0.561536
	N13171	N	0.876406	0.569973	0.561525
	N13172	N	0.938889	0.435757	0.624155
	N13173	N	0.938868	0.570166	0.624177
	N13174	N	0.938870	0.069931	0.624085
	N13175	N	0.938900	0.935514	0.624152
	O13176	O	0.989841	0.694983	0.675072
	O13177	O	0.989709	0.810687	0.675234
	O13178	O	0.887924	0.694737	0.698121
	O13179	O	0.887810	0.810620	0.698123
	O13180	O	0.887840	0.194865	0.698203
	O13181	O	0.887819	0.310908	0.698180
	O13182	O	0.887894	0.695093	0.675060
	O13183	O	0.887851	0.810829	0.674994
	O13184	O	0.887893	0.195104	0.675057
	O13185	O	0.887905	0.311293	0.675110
	O13186	O	0.989783	0.694983	0.698272
	O13187	O	0.989667	0.810918	0.698128
	O13188	O	0.989719	0.194562	0.698159
	O13189	O	0.989692	0.310100	0.698140
	O13190	O	0.989721	0.194917	0.675137
	O13191	O	0.989708	0.310633	0.675108
	O13192	O	0.950357	0.694975	0.635698
	O13193	O	0.927360	0.694958	0.635687
	O13194	O	0.950289	0.695264	0.737649
	O13195	O	0.950238	0.811239	0.737624
	O13196	O	0.927240	0.694936	0.737648
	O13197	O	0.927255	0.810863	0.737664
	O13198	O	0.927314	0.810883	0.635616
	O13199	O	0.950421	0.810942	0.635667
	O13200	O	0.950267	0.194931	0.635682
	O13201	O	0.927350	0.195037	0.635592
	O13202	O	0.950292	0.194694	0.737650
	O13203	O	0.950362	0.310637	0.737702
	O13204	O	0.927290	0.194755	0.737588
	O13205	O	0.927255	0.310605	0.737677
	O13206	O	0.927253	0.310813	0.635523
	O13207	O	0.950373	0.310693	0.635589
	H13208	H	0.900490	0.644466	0.710832
	H13209	H	0.900484	0.861334	0.710838
	H13210	H	0.900441	0.145065	0.710838
	H13211	H	0.900520	0.361403	0.710847
	H13212	H	0.900562	0.861210	0.662437
	H13213	H	0.900413	0.645265	0.662290
	H13214	H	0.900512	0.361518	0.662350
	H13215	H	0.900539	0.145092	0.662410
	H13216	H	1.002992	0.064581	0.686965
	H13217	H	1.002638	0.064909	0.685581
	H13218	H	1.002676	0.941297	0.685512
	H13219	H	1.003096	0.941706	0.686947
	H13220	H	1.001536	0.064277	0.688336
	H13221	H	1.001622	0.941757	0.688438
	H13222	H	0.874790	0.064132	0.686749
	H13223	H	0.874737	0.941071	0.686777
	H13224	H	0.875459	0.064321	0.687911
	H13225	H	0.875495	0.941302	0.687905
	H13226	H	0.877258	0.064305	0.687877
	H13227	H	0.877268	0.941392	0.687793
	H13228	H	0.876662	0.441025	0.685255
	H13229	H	0.875528	0.441491	0.685463
	H13230	H	0.877717	0.441139	0.686482
	H13231	H	0.999245	0.441125	0.687794
	H13232	H	0.999493	0.440837	0.685216
	H13233	H	1.001210	0.441025	0.684336
	H13234	H	0.875627	0.564018	0.685475
	H13235	H	0.876695	0.564262	0.685294
	H13236	H	1.001261	0.564217	0.684443
	H13237	H	0.999543	0.564130	0.685216
	H13238	H	0.999317	0.563745	0.687823
	H13239	H	0.877745	0.564338	0.686491
	H13240	H	0.977019	0.644566	0.710868
	H13241	H	0.977096	0.861493	0.710876
	H13242	H	0.977138	0.144424	0.710936
	H13243	H	0.977099	0.360242	0.710822
	H13244	H	0.914576	0.645267	0.648176
	H13245	H	0.963117	0.644861	0.648200
	H13246	H	0.963011	0.860793	0.648334
	H13247	H	0.914736	0.860972	0.648327
	H13248	H	0.977237	0.644827	0.662368
	H13249	H	0.977126	0.860707	0.662542
	H13250	H	0.962911	0.644737	0.724997
	H13251	H	0.962981	0.861614	0.725061
	H13252	H	0.939869	0.441456	0.622678
	H13253	H	0.940929	0.440551	0.749712
	H13254	H	0.940657	0.441164	0.624608
	H13255	H	0.939692	0.440991	0.625797
	H13256	H	0.938135	0.441929	0.747091
	H13257	H	0.939996	0.441105	0.747345
	H13258	H	0.940962	0.563892	0.749765
	H13259	H	0.939921	0.564440	0.622659
	H13260	H	0.939970	0.564519	0.747305
	H13261	H	0.938119	0.564613	0.747102
	H13262	H	0.939602	0.564218	0.625816
	H13263	H	0.940658	0.564581	0.624721
	H13264	H	0.962988	0.144890	0.725057
	H13265	H	0.962956	0.360625	0.724982
	H13266	H	0.938180	0.064633	0.624966
	H13267	H	0.939106	0.064347	0.625205
	H13268	H	0.937809	0.064449	0.623708
	H13269	H	0.914669	0.861410	0.724955
	H13270	H	0.914597	0.644332	0.724977
	H13271	H	0.914691	0.361026	0.724975
	H13272	H	0.914596	0.144626	0.724944
	H13273	H	0.914676	0.145019	0.648300
	H13274	H	0.963018	0.144611	0.648295
	H13275	H	0.962913	0.360338	0.648291
	H13276	H	0.914669	0.361014	0.648220
	H13277	H	0.977169	0.144925	0.662420
	H13278	H	0.977066	0.360258	0.662450
	H13279	H	0.940038	0.064456	0.750914
	H13280	H	0.940874	0.064683	0.749310
	H13281	H	0.939606	0.064467	0.747201
	H13282	H	0.939111	0.941350	0.625234
	H13283	H	0.938196	0.941373	0.625035
	H13284	H	0.937891	0.941341	0.623809
	H13285	H	0.940067	0.941718	0.751032
	H13286	H	0.941012	0.941999	0.749384
	H13287	H	0.939652	0.941304	0.747127
	Zn13288	Zn	0.876419	0.680090	0.686602
	Zn13289	Zn	0.876324	0.825512	0.686558
	Zn13290	Zn	0.876417	0.179969	0.686613
	Zn13291	Zn	0.876326	0.325695	0.686611
	Zn13292	Zn	0.938744	0.680039	0.749185
	Zn13293	Zn	0.938757	0.825603	0.749229
	Zn13294	Zn	0.938727	0.179894	0.749146
	Zn13295	Zn	0.938788	0.325480	0.749187
	C13296	C	0.986511	0.752826	0.671841
	C13297	C	0.891148	0.752807	0.701407
	C13298	C	0.899631	0.752939	0.709946
	C13299	C	0.903612	0.691646	0.713984
	C13300	C	0.903615	0.814205	0.713986
	C13301	C	0.891124	0.252975	0.701467
	C13302	C	0.899619	0.253222	0.709984
	C13303	C	0.903597	0.191995	0.713981
	C13304	C	0.903639	0.314371	0.713996
	C13305	C	0.891155	0.753017	0.671738
	C13306	C	0.899670	0.753187	0.663245
	C13307	C	0.903701	0.814290	0.659281
	C13308	C	0.903603	0.692110	0.659189
	C13309	C	0.891174	0.253247	0.671799
	C13310	C	0.899682	0.253272	0.663267
	C13311	C	0.903673	0.314482	0.659247
	C13312	C	0.903689	0.192043	0.659279
	C13313	C	1.002420	0.043407	0.686361
	C13314	C	1.002459	0.962601	0.686353
	C13315	C	0.875448	0.043093	0.687125
	C13316	C	0.875430	0.962315	0.687115
	C13317	C	0.877281	0.043022	0.687089
	C13318	C	0.877245	0.962326	0.687034
	C13319	C	0.876182	0.462496	0.685682
	C13320	C	1.000348	0.462296	0.687917
	C13321	C	1.000568	0.462312	0.685301
	C13322	C	0.876215	0.543140	0.685688
	C13323	C	1.000619	0.543013	0.685319
	C13324	C	1.000393	0.542753	0.687933
	C13325	C	0.986441	0.752988	0.701489
	C13326	C	0.986438	0.252302	0.701458
	C13327	C	0.977882	0.753072	0.709963
	C13328	C	0.973878	0.691684	0.713972
	C13329	C	0.973902	0.814425	0.713984
	C13330	C	0.977943	0.252271	0.709987
	C13331	C	0.973968	0.191346	0.714039
	C13332	C	0.973938	0.313448	0.713973
	C13333	C	0.986434	0.252738	0.671834
	C13334	C	0.953676	0.752915	0.638957
	C13335	C	0.924061	0.752991	0.638939
	C13336	C	0.923972	0.752892	0.734361
	C13337	C	0.974052	0.691738	0.659282
	C13338	C	0.973996	0.813861	0.659373
	C13339	C	0.962184	0.752834	0.647479
	C13340	C	0.915535	0.753141	0.647440
	C13341	C	0.911473	0.692148	0.651366
	C13342	C	0.966212	0.691737	0.651421
	C13343	C	0.966159	0.813848	0.651505
	C13344	C	0.911561	0.814222	0.651446
	C13345	C	0.978011	0.752791	0.663330
	C13346	C	0.953542	0.753261	0.734350
	C13347	C	0.966022	0.691791	0.721813
	C13348	C	0.966045	0.814475	0.721839
	C13349	C	0.962026	0.753134	0.725821
	C13350	C	0.939951	0.462043	0.750147
	C13351	C	0.939840	0.462464	0.624919
	C13352	C	0.938987	0.462703	0.747751
	C13353	C	0.939959	0.542718	0.750142
	C13354	C	0.938977	0.543175	0.747730
	C13355	C	0.939825	0.543153	0.624960
	C13356	C	0.953613	0.252694	0.734391
	C13357	C	0.966135	0.191632	0.721908
	C13358	C	0.966108	0.313663	0.721847
	C13359	C	0.962110	0.252751	0.725868
	C13360	C	0.938703	0.043242	0.624842
	C13361	C	0.953576	0.252730	0.638934
	C13362	C	0.924043	0.252907	0.638870
	C13363	C	0.924004	0.252753	0.734327
	C13364	C	0.973975	0.191613	0.659296
	C13365	C	0.973914	0.313595	0.659313
	C13366	C	0.962084	0.252607	0.647459
	C13367	C	0.915530	0.253022	0.647389
	C13368	C	0.915452	0.752876	0.725846
	C13369	C	0.911479	0.814228	0.721831
	C13370	C	0.911456	0.691520	0.721850
	C13371	C	0.915484	0.252862	0.725824
	C13372	C	0.911483	0.314155	0.721853
	C13373	C	0.911449	0.191766	0.721825
	C13374	C	0.911522	0.191935	0.651404
	C13375	C	0.966124	0.191537	0.651443
	C13376	C	0.966071	0.313641	0.651445
	C13377	C	0.911514	0.314275	0.651374
	C13378	C	0.977925	0.252688	0.663315
	C13379	C	0.940011	0.043256	0.749879
	C13380	C	0.938351	0.043086	0.623576
	C13381	C	0.938722	0.962508	0.624871
	C13382	C	0.940057	0.962825	0.749908
	C13383	C	0.938374	0.962591	0.623618
	N13384	N	0.876364	0.069805	0.686579
	N13385	N	0.876317	0.935380	0.686540
	N13386	N	0.876332	0.435688	0.686601
	N13387	N	0.876378	0.570088	0.686601
	N13388	N	0.938770	0.435578	0.749220
	N13389	N	0.938756	0.570031	0.749203
	N13390	N	0.938717	0.069976	0.749175
	N13391	N	0.938731	0.935614	0.749212
	O13392	O	0.989730	0.694911	0.800162
	O13393	O	0.989748	0.810853	0.800123
	O13394	O	0.887856	0.694948	0.823111
	O13395	O	0.887782	0.810663	0.823161
	O13396	O	0.887768	0.194420	0.823136
	O13397	O	0.887834	0.310398	0.823080
	O13398	O	0.887808	0.694693	0.800117
	O13399	O	0.887728	0.810628	0.800036
	O13400	O	0.887748	0.194654	0.800095
	O13401	O	0.887830	0.310544	0.800170
	O13402	O	0.989854	0.695196	0.823216
	O13403	O	0.989828	0.810804	0.823193
	O13404	O	0.989683	0.195328	0.823176
	O13405	O	0.989775	0.311109	0.823168
	O13406	O	0.989747	0.194489	0.800099
	O13407	O	0.989761	0.310471	0.800058
	O13408	O	0.950256	0.694907	0.760675
	O13409	O	0.927215	0.695071	0.760681
	O13410	O	0.950253	0.695334	0.862556
	O13411	O	0.950188	0.811000	0.862528
	O13412	O	0.927223	0.694916	0.862643
	O13413	O	0.927255	0.810686	0.862512
	O13414	O	0.927160	0.810708	0.760638
	O13415	O	0.950287	0.810722	0.760687
	O13416	O	0.950258	0.194850	0.760690
	O13417	O	0.927278	0.194942	0.760674
	O13418	O	0.950258	0.195662	0.862603
	O13419	O	0.950353	0.311407	0.862681
	O13420	O	0.927289	0.194648	0.862557
	O13421	O	0.927188	0.310686	0.862619
	O13422	O	0.927172	0.310652	0.760667
	O13423	O	0.950335	0.310815	0.760649
	H13424	H	0.900429	0.644583	0.835905
	H13425	H	0.900471	0.860525	0.835705
	H13426	H	0.900531	0.143673	0.835698
	H13427	H	0.900463	0.361131	0.835774
	H13428	H	0.900450	0.860670	0.787497
	H13429	H	0.900401	0.644921	0.787474
	H13430	H	0.900348	0.360621	0.787478
	H13431	H	0.900457	0.144450	0.787454
	H13432	H	1.000229	0.064764	0.813003
	H13433	H	1.001629	0.064579	0.813331
	H13434	H	1.001672	0.941450	0.813296
	H13435	H	1.000264	0.941670	0.813000
	H13436	H	0.999638	0.064794	0.811141
	H13437	H	0.999624	0.941714	0.811153
	H13438	H	0.877580	0.064728	0.811515
	H13439	H	0.877542	0.941630	0.811518
	H13440	H	0.877030	0.064894	0.810511
	H13441	H	0.876978	0.941306	0.810491
	H13442	H	0.875443	0.064635	0.810462
	H13443	H	0.875400	0.941281	0.810441
	H13444	H	0.876805	0.441520	0.810638
	H13445	H	0.875941	0.441158	0.810561
	H13446	H	0.877268	0.442257	0.811781
	H13447	H	1.000974	0.441005	0.811356
	H13448	H	1.001427	0.441425	0.811367
	H13449	H	1.001584	0.441378	0.811607
	H13450	H	0.875912	0.564560	0.810608
	H13451	H	0.876791	0.564671	0.810662
	H13452	H	1.001620	0.564423	0.811613
	H13453	H	1.001434	0.564155	0.811324
	H13454	H	1.001019	0.564630	0.811335
	H13455	H	0.877314	0.564516	0.811748
	H13456	H	0.977132	0.645554	0.835760
	H13457	H	0.977144	0.861120	0.835853
	H13458	H	0.977082	0.145196	0.835885
	H13459	H	0.977131	0.361289	0.835809
	H13460	H	0.914577	0.644724	0.773304
	H13461	H	0.962972	0.644536	0.773273
	H13462	H	0.962956	0.860846	0.773361
	H13463	H	0.914612	0.860713	0.773371
	H13464	H	0.977135	0.644587	0.787398
	H13465	H	0.977121	0.860579	0.787490
	H13466	H	0.962948	0.645382	0.849871
	H13467	H	0.962922	0.861103	0.849938
	H13468	H	0.939793	0.440779	0.751208
	H13469	H	0.938551	0.441693	0.875334
	H13470	H	0.937262	0.440914	0.750793
	H13471	H	0.936587	0.441369	0.749093
	H13472	H	0.939850	0.441376	0.873683
	H13473	H	0.939767	0.441589	0.874685
	H13474	H	0.938578	0.564622	0.875360
	H13475	H	0.939808	0.563711	0.751200
	H13476	H	0.939821	0.565051	0.874662
	H13477	H	0.939889	0.564287	0.873695
	H13478	H	0.936563	0.564940	0.749086
	H13479	H	0.937240	0.564433	0.750830
	H13480	H	0.962957	0.145392	0.850025
	H13481	H	0.963010	0.361527	0.849999
	H13482	H	0.936546	0.064075	0.749392
	H13483	H	0.937490	0.064270	0.750972
	H13484	H	0.937768	0.064281	0.747168
	H13485	H	0.914588	0.860511	0.849900
	H13486	H	0.914538	0.644889	0.850076
	H13487	H	0.914585	0.361395	0.849914
	H13488	H	0.914691	0.143559	0.849820
	H13489	H	0.914566	0.144685	0.773295
	H13490	H	0.963022	0.144709	0.773301
	H13491	H	0.963004	0.360395	0.773220
	H13492	H	0.914484	0.360496	0.773314
	H13493	H	0.977180	0.144720	0.787430
	H13494	H	0.977153	0.360360	0.787374
	H13495	H	0.938450	0.064271	0.874635
	H13496	H	0.938916	0.064455	0.874737
	H13497	H	0.939357	0.064413	0.874241
	H13498	H	0.937484	0.940979	0.751062
	H13499	H	0.936530	0.940448	0.749439
	H13500	H	0.937771	0.940710	0.747202
	H13501	H	0.938348	0.941161	0.874595
	H13502	H	0.938842	0.940946	0.874742
	H13503	H	0.939319	0.941663	0.874260
	Zn13504	Zn	0.876242	0.680211	0.811621
	Zn13505	Zn	0.876236	0.826084	0.811624
	Zn13506	Zn	0.876254	0.180260	0.811615
	Zn13507	Zn	0.876273	0.325892	0.811591
	Zn13508	Zn	0.938796	0.680148	0.874173
	Zn13509	Zn	0.938693	0.825563	0.874106
	Zn13510	Zn	0.938805	0.180002	0.874166
	Zn13511	Zn	0.938700	0.325717	0.874116
	C13512	C	0.986465	0.752830	0.796848
	C13513	C	0.891090	0.752794	0.826429
	C13514	C	0.899597	0.752586	0.834942
	C13515	C	0.903587	0.691610	0.838993
	C13516	C	0.903606	0.813618	0.838882
	C13517	C	0.891092	0.252408	0.826389
	C13518	C	0.899589	0.252371	0.834941
	C13519	C	0.903629	0.190844	0.838899
	C13520	C	0.903582	0.313925	0.838941
	C13521	C	0.891077	0.752663	0.796827
	C13522	C	0.899618	0.752712	0.788346
	C13523	C	0.903613	0.813858	0.784350
	C13524	C	0.903583	0.691613	0.784336
	C13525	C	0.891087	0.252615	0.796865
	C13526	C	0.899601	0.252624	0.788368
	C13527	C	0.903541	0.313735	0.784345
	C13528	C	0.903583	0.191475	0.784321
	C13529	C	1.001020	0.043376	0.812767
	C13530	C	1.001057	0.962738	0.812766
	C13531	C	0.877012	0.043623	0.811178
	C13532	C	0.877005	0.962788	0.811172
	C13533	C	0.875415	0.043508	0.811116
	C13534	C	0.875395	0.962696	0.811137
	C13535	C	0.876354	0.462534	0.810842
	C13536	C	1.001000	0.462405	0.811548
	C13537	C	1.001426	0.462722	0.811521
	C13538	C	0.876333	0.543426	0.810857
	C13539	C	1.001438	0.543181	0.811519
	C13540	C	1.001014	0.543284	0.811531
	C13541	C	0.986539	0.753040	0.826482
	C13542	C	0.986428	0.253292	0.826447
	C13543	C	0.978007	0.753332	0.834967
	C13544	C	0.973974	0.692368	0.838915
	C13545	C	0.973981	0.814233	0.838987
	C13546	C	0.977911	0.253220	0.834962
	C13547	C	0.973923	0.192141	0.839000
	C13548	C	0.973958	0.314377	0.838962
	C13549	C	0.986471	0.252454	0.796807
	C13550	C	0.953594	0.752735	0.763936
	C13551	C	0.923938	0.752852	0.763975
	C13552	C	0.923946	0.752716	0.859291
	C13553	C	0.973999	0.691528	0.784247
	C13554	C	0.973994	0.813710	0.784320
	C13555	C	0.962144	0.752698	0.772422
	C13556	C	0.915468	0.752674	0.772520
	C13557	C	0.911436	0.691605	0.776487
	C13558	C	0.966124	0.691506	0.776418
	C13559	C	0.966121	0.813777	0.776480
	C13560	C	0.911471	0.813824	0.776512
	C13561	C	0.977986	0.752587	0.788298
	C13562	C	0.953543	0.753235	0.859270
	C13563	C	0.966103	0.692260	0.846750
	C13564	C	0.966099	0.814246	0.846812
	C13565	C	0.962091	0.753227	0.850791
	C13566	C	0.938284	0.462690	0.874807
	C13567	C	0.937403	0.462476	0.749753
	C13568	C	0.939536	0.462592	0.874173
	C13569	C	0.938296	0.543247	0.874814
	C13570	C	0.939542	0.543412	0.874183
	C13571	C	0.937403	0.543405	0.749750
	C13572	C	0.953579	0.253506	0.859342
	C13573	C	0.966078	0.192275	0.846856
	C13574	C	0.966120	0.314511	0.846827
	C13575	C	0.962075	0.253520	0.850826
	C13576	C	0.937467	0.043009	0.749932
	C13577	C	0.953574	0.252741	0.763956
	C13578	C	0.923940	0.252698	0.763961
	C13579	C	0.923952	0.252629	0.859307
	C13580	C	0.974000	0.191456	0.784300
	C13581	C	0.973982	0.313652	0.784263
	C13582	C	0.962104	0.252539	0.772473
	C13583	C	0.915420	0.252640	0.772475
	C13584	C	0.915450	0.752750	0.850780
	C13585	C	0.911444	0.813721	0.846744
	C13586	C	0.911414	0.691588	0.846865
	C13587	C	0.915428	0.252463	0.850815
	C13588	C	0.911430	0.314042	0.846795
	C13589	C	0.911481	0.190886	0.846757
	C13590	C	0.911430	0.191594	0.776461
	C13591	C	0.966149	0.191519	0.776454
	C13592	C	0.966132	0.313587	0.776410
	C13593	C	0.911390	0.313634	0.776487
	C13594	C	0.977946	0.252519	0.788309
	C13595	C	0.938684	0.043123	0.874546
	C13596	C	0.938695	0.043181	0.747700
	C13597	C	0.937464	0.961989	0.749961
	C13598	C	0.938640	0.962155	0.874533
	C13599	C	0.938703	0.962476	0.747691
	N13600	N	0.876188	0.070388	0.811601
	N13601	N	0.876188	0.936032	0.811622
	N13602	N	0.876278	0.435744	0.811548
	N13603	N	0.876286	0.570151	0.811562
	N13604	N	0.938719	0.435694	0.874116
	N13605	N	0.938743	0.570104	0.874147
	N13606	N	0.938791	0.069991	0.874153
	N13607	N	0.938727	0.935560	0.874110
	O13608	O	0.989828	0.695570	0.925018
	O13609	O	0.989863	0.811409	0.925015
	O13610	O	0.887851	0.695361	0.948109
	O13611	O	0.887873	0.811136	0.948265
	O13612	O	0.887892	0.195145	0.948136
	O13613	O	0.887890	0.310851	0.948230
	O13614	O	0.887876	0.694549	0.925192
	O13615	O	0.887775	0.810406	0.925129
	O13616	O	0.887800	0.194295	0.925120
	O13617	O	0.887825	0.310099	0.925125
	O13618	O	0.989790	0.695280	0.948035
	O13619	O	0.989862	0.811114	0.948057
	O13620	O	0.989881	0.194846	0.948127
	O13621	O	0.989813	0.310811	0.948078
	O13622	O	0.989866	0.195361	0.924980
	O13623	O	0.989750	0.311299	0.925108
	O13624	O	0.950414	0.695330	0.885564
	O13625	O	0.927224	0.694665	0.885658
	O13626	O	0.950457	0.695071	0.987542
	O13627	O	0.950388	0.811048	0.987569
	O13628	O	0.927416	0.694841	0.987674
	O13629	O	0.927363	0.810704	0.987637
	O13630	O	0.927327	0.810567	0.885763
	O13631	O	0.950210	0.811075	0.885698
	O13632	O	0.950289	0.195263	0.885677
	O13633	O	0.927265	0.194357	0.885697
	O13634	O	0.950484	0.194099	0.987596
	O13635	O	0.950361	0.310045	0.987613
	O13636	O	0.927347	0.194804	0.987644
	O13637	O	0.927371	0.310742	0.987599
	O13638	O	0.927184	0.310336	0.885648
	O13639	O	0.950240	0.311223	0.885634
	H13640	H	0.900630	0.644522	0.960731
	H13641	H	0.900621	0.861064	0.960827
	H13642	H	0.900595	0.144688	0.960777
	H13643	H	0.900530	0.360948	0.960887
	H13644	H	0.900380	0.860546	0.912415
	H13645	H	0.900515	0.644469	0.912515
	H13646	H	0.900484	0.360425	0.912563
	H13647	H	0.900543	0.143981	0.912544
	H13648	H	1.001248	0.063841	0.938760
	H13649	H	1.003004	0.064070	0.938070
	H13650	H	1.003151	0.941277	0.938124
	H13651	H	1.001281	0.941059	0.938884
	H13652	H	0.999230	0.064194	0.937163
	H13653	H	0.999185	0.940652	0.937191
	H13654	H	0.874595	0.064515	0.937705
	H13655	H	0.874613	0.941437	0.937727
	H13656	H	0.876022	0.064489	0.938650
	H13657	H	0.876069	0.941503	0.938708
	H13658	H	0.878166	0.064332	0.937563
	H13659	H	0.878201	0.941263	0.937637
	H13660	H	0.876892	0.441365	0.936283
	H13661	H	0.876420	0.441403	0.936072
	H13662	H	0.876947	0.441682	0.937058
	H13663	H	1.002922	0.441195	0.937645
	H13664	H	1.000879	0.440955	0.938393
	H13665	H	0.999678	0.441043	0.937392
	H13666	H	0.876371	0.564510	0.936007
	H13667	H	0.876877	0.564676	0.936281
	H13668	H	0.999642	0.564207	0.937332
	H13669	H	1.000840	0.564338	0.938427
	H13670	H	1.002922	0.564264	0.937681
	H13671	H	0.876842	0.564566	0.936990
	H13672	H	0.977198	0.645408	0.960726
	H13673	H	0.977196	0.861342	0.960776
	H13674	H	0.977215	0.143981	0.960744
	H13675	H	0.977138	0.361079	0.960722
	H13676	H	0.914625	0.644533	0.898331
	H13677	H	0.962924	0.645586	0.898321
	H13678	H	0.962926	0.861680	0.898247
	H13679	H	0.914512	0.860562	0.898259
	H13680	H	0.977093	0.645628	0.912446
	H13681	H	0.977096	0.861818	0.912363
	H13682	H	0.963059	0.645335	0.974896
	H13683	H	0.963034	0.861049	0.974935
	H13684	H	0.937686	0.441253	0.874774
	H13685	H	0.938761	0.441502	1.000811
	H13686	H	0.937772	0.440979	0.873367
	H13687	H	0.938698	0.441034	0.872856
	H13688	H	0.940495	0.441893	0.998496
	H13689	H	0.940445	0.441918	0.999879
	H13690	H	0.938774	0.564305	1.000771
	H13691	H	0.937723	0.564482	0.874798
	H13692	H	0.940473	0.564792	0.999899
	H13693	H	0.940546	0.565218	0.998518
	H13694	H	0.938698	0.564346	0.872967
	H13695	H	0.937820	0.564503	0.873374
	H13696	H	0.963097	0.143744	0.974893
	H13697	H	0.963017	0.361041	0.974916
	H13698	H	0.938520	0.064479	0.873676
	H13699	H	0.938231	0.064363	0.873991
	H13700	H	0.939229	0.064282	0.873781
	H13701	H	0.914746	0.860866	0.974996
	H13702	H	0.914768	0.644345	0.974905
	H13703	H	0.914663	0.360954	0.975011
	H13704	H	0.914779	0.144508	0.974921
	H13705	H	0.914649	0.143847	0.898395
	H13706	H	0.962993	0.144943	0.898235
	H13707	H	0.962972	0.361980	0.898263
	H13708	H	0.914649	0.360520	0.898426
	H13709	H	0.977189	0.145095	0.912359
	H13710	H	0.977137	0.362054	0.912372
	H13711	H	0.938899	0.064550	0.999028
	H13712	H	0.938800	0.064041	0.999111
	H13713	H	0.938859	0.064467	0.999298
	H13714	H	0.938189	0.941265	0.873944
	H13715	H	0.938512	0.941277	0.873579
	H13716	H	0.939137	0.941475	0.873745
	H13717	H	0.938888	0.941377	0.999035
	H13718	H	0.938717	0.941606	0.999175
	H13719	H	0.938833	0.941092	0.999349
	Zn13720	Zn	0.876280	0.680132	0.936638
	Zn13721	Zn	0.876370	0.825756	0.936703
	Zn13722	Zn	0.876272	0.180102	0.936647
	Zn13723	Zn	0.876383	0.325788	0.936734
	Zn13724	Zn	0.939023	0.680227	0.999104
	Zn13725	Zn	0.938905	0.825725	0.999162
	Zn13726	Zn	0.938955	0.180033	0.999139
	Zn13727	Zn	0.938858	0.325964	0.999149
	C13728	C	0.986533	0.753552	0.921747
	C13729	C	0.891153	0.753046	0.951475
	C13730	C	0.899710	0.752765	0.959961
	C13731	C	0.903761	0.691453	0.963919
	C13732	C	0.903748	0.813951	0.963970
	C13733	C	0.891174	0.252880	0.951477
	C13734	C	0.899700	0.252669	0.959989
	C13735	C	0.903736	0.191551	0.963948
	C13736	C	0.903675	0.313864	0.964012
	C13737	C	0.891093	0.752544	0.921858
	C13738	C	0.899617	0.752603	0.913352
	C13739	C	0.903573	0.813664	0.909305
	C13740	C	0.903647	0.691490	0.909372
	C13741	C	0.891078	0.252185	0.921828
	C13742	C	0.899581	0.252226	0.913318
	C13743	C	0.903619	0.313463	0.909373
	C13744	C	0.903617	0.190913	0.909350
	C13745	C	1.001943	0.042777	0.937948
	C13746	C	1.001981	0.962267	0.937964
	C13747	C	0.875587	0.043258	0.937771
	C13748	C	0.875615	0.962588	0.937809
	C13749	C	0.877720	0.043186	0.936699
	C13750	C	0.877735	0.962540	0.936727
	C13751	C	0.876571	0.462547	0.936313
	C13752	C	1.002660	0.462355	0.936784
	C13753	C	1.000565	0.462324	0.937555
	C13754	C	0.876535	0.543305	0.936284
	C13755	C	1.000543	0.543072	0.937535
	C13756	C	1.002645	0.543119	0.936785
	C13757	C	0.986525	0.753290	0.951323
	C13758	C	0.986566	0.252812	0.951399
	C13759	C	0.978010	0.753425	0.959836
	C13760	C	0.974038	0.692226	0.963864
	C13761	C	0.974032	0.814414	0.963893
	C13762	C	0.978042	0.252631	0.959921
	C13763	C	0.974065	0.191140	0.963913
	C13764	C	0.974020	0.313975	0.963909
	C13765	C	0.986529	0.253363	0.921750
	C13766	C	0.953590	0.753324	0.888925
	C13767	C	0.923988	0.752616	0.888994
	C13768	C	0.924096	0.752682	0.984372
	C13769	C	0.973970	0.692621	0.909295
	C13770	C	0.973971	0.814834	0.909246
	C13771	C	0.962105	0.753571	0.897430
	C13772	C	0.915479	0.752547	0.897509
	C13773	C	0.911483	0.691459	0.901504
	C13774	C	0.966104	0.692484	0.901455
	C13775	C	0.966104	0.814779	0.901408
	C13776	C	0.911427	0.813637	0.901459
	C13777	C	0.977985	0.753735	0.913276
	C13778	C	0.953669	0.753143	0.984236
	C13779	C	0.966200	0.692134	0.971728
	C13780	C	0.966178	0.814273	0.971750
	C13781	C	0.962173	0.753171	0.975706
	C13782	C	0.938347	0.462462	1.000100
	C13783	C	0.938367	0.462415	0.873406
	C13784	C	0.940061	0.462962	0.999176
	C13785	C	0.938397	0.543235	1.000066
	C13786	C	0.940102	0.543653	0.999199
	C13787	C	0.938384	0.543201	0.873418
	C13788	C	0.953685	0.252230	0.984298
	C13789	C	0.966223	0.190998	0.971770
	C13790	C	0.966168	0.313906	0.971765
	C13791	C	0.962193	0.252436	0.975779
	C13792	C	0.938469	0.043181	0.873911
	C13793	C	0.953591	0.253359	0.888900
	C13794	C	0.923937	0.252293	0.888958
	C13795	C	0.924084	0.252737	0.984329
	C13796	C	0.974004	0.192116	0.909234
	C13797	C	0.973984	0.314835	0.909244
	C13798	C	0.962142	0.253471	0.897395
	C13799	C	0.915421	0.252198	0.897472
	C13800	C	0.915583	0.752607	0.975836
	C13801	C	0.911586	0.813847	0.971838
	C13802	C	0.911605	0.691432	0.971788
	C13803	C	0.915572	0.252712	0.975827
	C13804	C	0.911539	0.313905	0.971852
	C13805	C	0.911594	0.191554	0.971805
	C13806	C	0.911472	0.190887	0.901504
	C13807	C	0.966130	0.192099	0.901402
	C13808	C	0.966120	0.314891	0.901412
	C13809	C	0.911470	0.313494	0.901521
	C13810	C	0.977999	0.253487	0.913251
	C13811	C	0.938871	0.043186	0.999080
	C13812	C	0.939127	0.043154	0.874063
	C13813	C	0.938433	0.962487	0.873880
	C13814	C	0.938832	0.962702	0.999103
	C13815	C	0.939097	0.962679	0.874057
	N13816	N	0.876332	0.070198	0.936612
	N13817	N	0.876378	0.935789	0.936662
	N13818	N	0.876397	0.435750	0.936707
	N13819	N	0.876340	0.570130	0.936653
	N13820	N	0.938941	0.435863	0.999132
	N13821	N	0.939019	0.570291	0.999133
	N13822	N	0.938947	0.070289	0.999170
	N13823	N	0.938932	0.935886	0.999201
