data_Molecule from HDF5

_cell_length_a		13.299378
_cell_length_b		157.453914
_cell_length_c		53.499168
_cell_angle_alpha	89.992807
_cell_angle_beta	89.998481
_cell_angle_gamma	88.696309
_symmetry_space_group_name_H-M	'P 1'
_symmetry_Int_Tables_number		1

loop_
	_symmetry_equiv_pos_as_xyz
	x,y,z

loop_
	_atom_site_label
	_atom_site_type_symbol
	_atom_site_fract_x
	_atom_site_fract_y
	_atom_site_fract_z
	O0	O	0.085150	0.102750	0.011366
	O1	O	0.335327	0.040254	0.073896
	O2	O	0.093389	0.021189	0.111328
	O3	O	0.343315	0.083663	0.048700
	O4	O	0.415459	0.040889	0.111185
	O5	O	0.165331	0.103362	0.048655
	O6	O	0.423484	0.084286	0.011426
	O7	O	0.173494	0.021801	0.073897
	O8	O	0.423403	0.021798	0.113623
	O9	O	0.173403	0.084294	0.050973
	O10	O	0.415385	0.103390	0.013779
	O11	O	0.165315	0.040857	0.076189
	O12	O	0.093714	0.083688	0.013525
	O13	O	0.343330	0.021170	0.076328
	O14	O	0.085584	0.040243	0.113553
	O15	O	0.335167	0.102745	0.051048
	F16	F	0.004690	0.031019	0.077794
	F17	F	0.254448	0.093523	0.015245
	F18	F	0.004688	0.093524	0.047084
	F19	F	0.254530	0.031038	0.109659
	Al20	Al	0.129586	0.031033	0.093751
	Al21	Al	0.379461	0.093522	0.031239
	Al22	Al	0.129512	0.093514	0.031131
	Al23	Al	0.379551	0.031025	0.093756
	C24	C	0.093609	0.119931	-0.000839
	C25	C	0.343502	0.057412	0.061572
	C26	C	0.095980	0.003682	0.120476
	C27	C	0.345932	0.066148	0.057921
	C28	C	0.412928	0.058392	0.120406
	C29	C	0.162844	0.120892	0.058010
	C30	C	0.415280	0.067132	-0.000871
	C31	C	0.165129	0.004628	0.061531
	C32	C	0.415237	0.004648	0.125985
	C33	C	0.165106	0.067110	0.063359
	C34	C	0.412895	0.120899	0.004489
	C35	C	0.162684	0.058378	0.067012
	C36	C	0.096193	0.066154	0.004410
	C37	C	0.345918	0.003642	0.067160
	C38	C	0.093874	0.057428	0.125970
	C39	C	0.343735	0.119895	0.063350
	C40	C	0.001874	0.115942	0.003730
	C41	C	0.251859	0.053422	0.066218
	C42	C	0.006743	0.008641	0.121363
	C43	C	0.256736	0.071106	0.058727
	C44	C	0.002237	0.053440	0.121289
	C45	C	0.251936	0.115911	0.058740
	C46	C	0.007103	0.071131	0.003547
	C47	C	0.256791	0.008614	0.066268
	C48	C	0.000464	0.106677	0.009945
	C49	C	0.250536	0.044158	0.072411
	C50	C	0.008252	0.017891	0.115082
	C51	C	0.258045	0.080373	0.052480
	C52	C	0.001053	0.044173	0.115035
	C53	C	0.250508	0.106663	0.052461
	C54	C	0.008430	0.080389	0.009785
	C55	C	0.258110	0.017874	0.072529
	H56	H	0.162884	0.116162	-0.001653
	H57	H	0.412812	0.053646	0.060750
	H58	H	0.167222	0.006674	0.116834
	H59	H	0.417040	0.069148	0.054356
	H60	H	0.341692	0.055398	0.116801
	H61	H	0.091511	0.117904	0.054472
	H62	H	0.346016	0.070903	-0.001679
	H63	H	0.095800	0.008400	0.060642
	H64	H	0.345976	0.008424	0.126920
	H65	H	0.095799	0.070876	0.064143
	H66	H	0.341623	0.117910	0.008074
	H67	H	0.091386	0.055383	0.070565
	H68	H	0.167505	0.069141	0.007963
	H69	H	0.417204	0.006628	0.070786
	H70	H	0.163187	0.053661	0.126863
	H71	H	0.412998	0.116113	0.064128
	O72	O	0.585345	0.102748	0.011489
	O73	O	0.835175	0.040278	0.073860
	O74	O	0.593354	0.021198	0.111337
	O75	O	0.843355	0.083648	0.048675
	O76	O	0.915599	0.040872	0.111294
	O77	O	0.665028	0.103365	0.048818
	O78	O	0.923657	0.084300	0.011315
	O79	O	0.673162	0.021792	0.073945
	O80	O	0.923329	0.021806	0.113610
	O81	O	0.673351	0.084291	0.051111
	O82	O	0.915113	0.103371	0.013667
	O83	O	0.665191	0.040876	0.076219
	O84	O	0.593413	0.083666	0.013831
	O85	O	0.843055	0.021171	0.076252
	O86	O	0.585458	0.040244	0.113609
	O87	O	0.834983	0.102757	0.051058
	F88	F	0.504468	0.031013	0.077845
	F89	F	0.754442	0.093512	0.015387
	F90	F	0.504321	0.093516	0.047189
	F91	F	0.754691	0.031050	0.109578
	Al92	Al	0.629568	0.031029	0.093758
	Al93	Al	0.879614	0.093525	0.031244
	Al94	Al	0.629329	0.093522	0.031260
	Al95	Al	0.879787	0.031045	0.093667
	C96	C	0.593836	0.119913	-0.000934
	C97	C	0.843285	0.057422	0.061574
	C98	C	0.596030	0.003649	0.120312
	C99	C	0.845752	0.066153	0.057919
	C100	C	0.912943	0.058396	0.120509
	C101	C	0.662319	0.120888	0.058051
	C102	C	0.915368	0.067149	-0.001068
	C103	C	0.664856	0.004617	0.061583
	C104	C	0.915107	0.004658	0.126030
	C105	C	0.664951	0.067132	0.063451
	C106	C	0.912748	0.120912	0.004571
	C107	C	0.662467	0.058400	0.067100
	C108	C	0.596018	0.066140	0.004602
	C109	C	0.845679	0.003643	0.067115
	C110	C	0.593710	0.057418	0.125958
	C111	C	0.843281	0.119906	0.063451
	C112	C	0.502122	0.115928	0.003727
	C113	C	0.751627	0.053439	0.066238
	C114	C	0.506904	0.008629	0.121247
	C115	C	0.756587	0.071113	0.058767
	C116	C	0.502088	0.053428	0.121275
	C117	C	0.751516	0.115923	0.058832
	C118	C	0.506940	0.071118	0.003744
	C119	C	0.756553	0.008617	0.066201
	C120	C	0.500711	0.106671	0.009986
	C121	C	0.750385	0.044183	0.072464
	C122	C	0.508137	0.017889	0.115071
	C123	C	0.758024	0.080368	0.052505
	C124	C	0.500782	0.044170	0.115002
	C125	C	0.750250	0.106665	0.052557
	C126	C	0.508185	0.080368	0.010033
	C127	C	0.757854	0.017874	0.072459
	H128	H	0.663118	0.116135	-0.001696
	H129	H	0.912666	0.053655	0.060784
	H130	H	0.667256	0.006634	0.116658
	H131	H	0.916994	0.069149	0.054302
	H132	H	0.841666	0.055393	0.116953
	H133	H	0.591059	0.117896	0.054460
	H134	H	0.846083	0.070926	-0.001940
	H135	H	0.595446	0.008377	0.060779
	H136	H	0.845681	0.008418	0.126883
	H137	H	0.595727	0.070900	0.064288
	H138	H	0.841493	0.117920	0.008162
	H139	H	0.591310	0.055418	0.070723
	H140	H	0.667312	0.069121	0.008247
	H141	H	0.916960	0.006630	0.070763
	H142	H	0.663009	0.053646	0.126828
	H143	H	0.912577	0.116131	0.064255
	O144	O	0.085300	0.102755	0.136474
	O145	O	0.335851	0.040252	0.198910
	O146	O	0.093174	0.021217	0.236340
	O147	O	0.343328	0.083707	0.173893
	O148	O	0.415463	0.040848	0.236397
	O149	O	0.165347	0.103377	0.173819
	O150	O	0.423218	0.084277	0.136513
	O151	O	0.173241	0.021771	0.199042
	O152	O	0.423254	0.021782	0.238542
	O153	O	0.173299	0.084272	0.176087
	O154	O	0.415331	0.103384	0.138785
	O155	O	0.165843	0.040857	0.201024
	O156	O	0.093332	0.083688	0.138759
	O157	O	0.343298	0.021193	0.201214
	O158	O	0.085880	0.040290	0.238469
	O159	O	0.335300	0.102752	0.176091
	F160	F	0.004643	0.031027	0.202803
	F161	F	0.254402	0.093549	0.140384
	F162	F	0.004357	0.093516	0.172270
	F163	F	0.254409	0.031054	0.234620
	Al164	Al	0.129595	0.031031	0.218716
	Al165	Al	0.379327	0.093517	0.156284
	Al166	Al	0.129414	0.093531	0.156291
	Al167	Al	0.379502	0.031033	0.218785
	C168	C	0.093626	0.119938	0.124177
	C169	C	0.344051	0.057432	0.186525
	C170	C	0.095724	0.003668	0.245431
	C171	C	0.346276	0.066170	0.182930
	C172	C	0.412798	0.058379	0.245436
	C173	C	0.162758	0.120893	0.183072
	C174	C	0.415204	0.067135	0.124000
	C175	C	0.165376	0.004624	0.186554
	C176	C	0.415208	0.004626	0.251030
	C177	C	0.165413	0.067114	0.188453
	C178	C	0.412860	0.120897	0.129561
	C179	C	0.163189	0.058380	0.192048
	C180	C	0.096094	0.066174	0.129508
	C181	C	0.346189	0.003658	0.192118
	C182	C	0.093827	0.057442	0.250888
	C183	C	0.343586	0.119908	0.188490
	C184	C	0.001881	0.115951	0.128762
	C185	C	0.252430	0.053427	0.191155
	C186	C	0.006634	0.008638	0.246355
	C187	C	0.257038	0.071117	0.183809
	C188	C	0.002198	0.053447	0.246265
	C189	C	0.251899	0.115914	0.183856
	C190	C	0.006811	0.071130	0.128681
	C191	C	0.257016	0.008619	0.191189
	C192	C	0.000679	0.106688	0.135018
	C193	C	0.251140	0.044163	0.197362
	C194	C	0.007953	0.017897	0.240112
	C195	C	0.258168	0.080381	0.177601
	C196	C	0.001013	0.044186	0.240022
	C197	C	0.250615	0.106669	0.177590
	C198	C	0.008238	0.080384	0.134926
	C199	C	0.258116	0.017880	0.197458
	H200	H	0.162966	0.116168	0.123407
	H201	H	0.413381	0.053661	0.185672
	H202	H	0.166966	0.006666	0.241774
	H203	H	0.417351	0.069185	0.179303
	H204	H	0.341593	0.055382	0.241784
	H205	H	0.091362	0.117922	0.179438
	H206	H	0.345924	0.070900	0.123168
	H207	H	0.096012	0.008393	0.185705
	H208	H	0.345871	0.008395	0.251863
	H209	H	0.096015	0.070871	0.189327
	H210	H	0.341617	0.117909	0.133137
	H211	H	0.091950	0.055390	0.195654
	H212	H	0.167257	0.069179	0.133103
	H213	H	0.417353	0.006661	0.195738
	H214	H	0.163232	0.053680	0.251720
	H215	H	0.413015	0.116142	0.189287
	O216	O	0.585246	0.102728	0.136348
	O217	O	0.835347	0.040288	0.198986
	O218	O	0.593303	0.021186	0.236388
	O219	O	0.843052	0.083650	0.173738
	O220	O	0.915771	0.040868	0.236312
	O221	O	0.665153	0.103382	0.173688
	O222	O	0.923402	0.084311	0.136305
	O223	O	0.672986	0.021780	0.198988
	O224	O	0.923158	0.021800	0.238634
	O225	O	0.673031	0.084270	0.175995
	O226	O	0.915309	0.103392	0.138882
	O227	O	0.665349	0.040882	0.201316
	O228	O	0.593271	0.083694	0.138599
	O229	O	0.843069	0.021183	0.201158
	O230	O	0.585449	0.040246	0.238653
	O231	O	0.835070	0.102731	0.176220
	F232	F	0.504500	0.031014	0.202888
	F233	F	0.754458	0.093521	0.140432
	F234	F	0.504511	0.093520	0.172177
	F235	F	0.754654	0.031048	0.234649
	Al236	Al	0.629497	0.031034	0.218842
	Al237	Al	0.879755	0.093527	0.156350
	Al238	Al	0.629344	0.093515	0.156202
	Al239	Al	0.879797	0.031037	0.218764
	C240	C	0.593705	0.119918	0.124177
	C241	C	0.843453	0.057421	0.186541
	C242	C	0.595973	0.003646	0.245433
	C243	C	0.845771	0.066157	0.182894
	C244	C	0.912974	0.058414	0.245354
	C245	C	0.662545	0.120893	0.182951
	C246	C	0.915160	0.067145	0.124036
	C247	C	0.664925	0.004622	0.186529
	C248	C	0.914927	0.004636	0.251027
	C249	C	0.664917	0.067127	0.188503
	C250	C	0.912720	0.120920	0.129536
	C251	C	0.662622	0.058400	0.192154
	C252	C	0.595991	0.066161	0.129526
	C253	C	0.845726	0.003653	0.192190
	C254	C	0.593552	0.057397	0.251024
	C255	C	0.843504	0.119911	0.188388
	C256	C	0.502014	0.115925	0.128726
	C257	C	0.751774	0.053442	0.191285
	C258	C	0.506826	0.008617	0.246358
	C259	C	0.756576	0.071110	0.183770
	C260	C	0.501947	0.053411	0.246371
	C261	C	0.751767	0.115925	0.183781
	C262	C	0.506823	0.071122	0.128651
	C263	C	0.756537	0.008604	0.191243
	C264	C	0.500641	0.106664	0.134944
	C265	C	0.750559	0.044190	0.197560
	C266	C	0.508023	0.017876	0.240065
	C267	C	0.757767	0.080359	0.177473
	C268	C	0.500704	0.044149	0.240148
	C269	C	0.750422	0.106664	0.177561
	C270	C	0.508037	0.080379	0.134947
	C271	C	0.757786	0.017878	0.197447
	H272	H	0.663095	0.116151	0.123384
	H273	H	0.912648	0.053643	0.185666
	H274	H	0.667153	0.006642	0.241734
	H275	H	0.916898	0.069151	0.179216
	H276	H	0.841800	0.055406	0.241734
	H277	H	0.591219	0.117907	0.179327
	H278	H	0.845752	0.070906	0.123167
	H279	H	0.595680	0.008399	0.185611
	H280	H	0.845563	0.008405	0.251866
	H281	H	0.595581	0.070895	0.189365
	H282	H	0.841346	0.117931	0.133056
	H283	H	0.591408	0.055411	0.195833
	H284	H	0.667147	0.069163	0.133138
	H285	H	0.916873	0.006656	0.195813
	H286	H	0.662918	0.053632	0.251911
	H287	H	0.912916	0.116143	0.189140
	O288	O	0.085415	0.102769	0.261522
	O289	O	0.335450	0.040242	0.323944
	O290	O	0.093465	0.021200	0.361402
	O291	O	0.343264	0.083675	0.298783
	O292	O	0.415839	0.040840	0.361369
	O293	O	0.165534	0.103377	0.298689
	O294	O	0.423300	0.084268	0.261505
	O295	O	0.173363	0.021744	0.324188
	O296	O	0.423737	0.021803	0.363557
	O297	O	0.173275	0.084273	0.301052
	O298	O	0.415499	0.103362	0.263729
	O299	O	0.165494	0.040867	0.326264
	O300	O	0.093466	0.083696	0.263702
	O301	O	0.343367	0.021188	0.326257
	O302	O	0.085345	0.040261	0.363501
	O303	O	0.335410	0.102718	0.301131
	F304	F	0.004640	0.031026	0.327816
	F305	F	0.254630	0.093515	0.265320
	F306	F	0.004509	0.093525	0.297239
	F307	F	0.254637	0.031041	0.359719
	Al308	Al	0.129515	0.031027	0.343794
	Al309	Al	0.379557	0.093516	0.281264
	Al310	Al	0.129467	0.093521	0.281254
	Al311	Al	0.379573	0.031017	0.343754
	C312	C	0.093581	0.119928	0.249090
	C313	C	0.343699	0.057410	0.311527
	C314	C	0.095862	0.003666	0.370488
	C315	C	0.345979	0.066151	0.307908
	C316	C	0.413199	0.058384	0.370480
	C317	C	0.162822	0.120878	0.307953
	C318	C	0.415105	0.067128	0.249010
	C319	C	0.165358	0.004616	0.311559
	C320	C	0.415467	0.004621	0.375990
	C321	C	0.165222	0.067109	0.313505
	C322	C	0.413028	0.120898	0.254602
	C323	C	0.162908	0.058382	0.317119
	C324	C	0.096023	0.066181	0.254530
	C325	C	0.346179	0.003644	0.317070
	C326	C	0.093422	0.057408	0.375946
	C327	C	0.343683	0.119899	0.313455
	C328	C	0.001904	0.115936	0.253727
	C329	C	0.252071	0.053419	0.316219
	C330	C	0.006653	0.008629	0.371332
	C331	C	0.256812	0.071103	0.308766
	C332	C	0.001756	0.053430	0.371296
	C333	C	0.252043	0.115910	0.308781
	C334	C	0.006897	0.071146	0.253602
	C335	C	0.257008	0.008611	0.316231
	C336	C	0.000562	0.106677	0.259946
	C337	C	0.250757	0.044160	0.322475
	C338	C	0.008213	0.017899	0.365181
	C339	C	0.258042	0.080369	0.302538
	C340	C	0.000640	0.044164	0.365038
	C341	C	0.250828	0.106658	0.302502
	C342	C	0.008162	0.080401	0.259876
	C343	C	0.258214	0.017864	0.322565
	H344	H	0.162911	0.116155	0.248228
	H345	H	0.412932	0.053637	0.310679
	H346	H	0.167053	0.006669	0.366900
	H347	H	0.417126	0.069163	0.304280
	H348	H	0.342004	0.055379	0.366902
	H349	H	0.091557	0.117891	0.304303
	H350	H	0.345897	0.070907	0.248107
	H351	H	0.095883	0.008373	0.310729
	H352	H	0.346173	0.008392	0.376792
	H353	H	0.095824	0.070871	0.314421
	H354	H	0.341742	0.117908	0.258173
	H355	H	0.091663	0.055393	0.320769
	H356	H	0.167145	0.069181	0.258174
	H357	H	0.417476	0.006632	0.320659
	H358	H	0.162734	0.053632	0.376816
	H359	H	0.413062	0.116126	0.314259
	O360	O	0.585466	0.102751	0.261402
	O361	O	0.835298	0.040264	0.323858
	O362	O	0.593688	0.021160	0.361097
	O363	O	0.843117	0.083651	0.298781
	O364	O	0.915286	0.040849	0.361376
	O365	O	0.665181	0.103362	0.298798
	O366	O	0.923494	0.084318	0.261367
	O367	O	0.673382	0.021802	0.323831
	O368	O	0.923500	0.021827	0.363709
	O369	O	0.673068	0.084279	0.301048
	O370	O	0.915301	0.103373	0.263671
	O371	O	0.665217	0.040856	0.326085
	O372	O	0.593321	0.083677	0.263663
	O373	O	0.843363	0.021161	0.326180
	O374	O	0.585856	0.040250	0.363468
	O375	O	0.835101	0.102760	0.301132
	F376	F	0.504319	0.031024	0.327808
	F377	F	0.754623	0.093510	0.265451
	F378	F	0.504391	0.093516	0.297161
	F379	F	0.754494	0.031018	0.359516
	Al380	Al	0.629462	0.031019	0.343624
	Al381	Al	0.879674	0.093528	0.281321
	Al382	Al	0.629448	0.093515	0.281269
	Al383	Al	0.879784	0.031024	0.343684
	C384	C	0.593821	0.119917	0.249144
	C385	C	0.843362	0.057409	0.311491
	C386	C	0.596350	0.003652	0.370525
	C387	C	0.845690	0.066151	0.307874
	C388	C	0.912695	0.058416	0.370363
	C389	C	0.662277	0.120882	0.308005
	C390	C	0.915192	0.067151	0.248985
	C391	C	0.664919	0.004640	0.311444
	C392	C	0.914936	0.004640	0.375978
	C393	C	0.664902	0.067107	0.313409
	C394	C	0.912736	0.120912	0.254616
	C395	C	0.662586	0.058376	0.317008
	C396	C	0.595878	0.066145	0.254600
	C397	C	0.845624	0.003639	0.317135
	C398	C	0.594096	0.057417	0.375871
	C399	C	0.843155	0.119915	0.313457
	C400	C	0.502110	0.115923	0.253742
	C401	C	0.751704	0.053414	0.316093
	C402	C	0.507101	0.008604	0.371299
	C403	C	0.756534	0.071105	0.308769
	C404	C	0.502404	0.053421	0.371334
	C405	C	0.751474	0.115913	0.308882
	C406	C	0.506749	0.071110	0.253697
	C407	C	0.756588	0.008626	0.316137
	C408	C	0.500728	0.106661	0.259924
	C409	C	0.750449	0.044156	0.322342
	C410	C	0.508399	0.017870	0.364938
	C411	C	0.757785	0.080366	0.302541
	C412	C	0.501083	0.044149	0.365081
	C413	C	0.750358	0.106663	0.302619
	C414	C	0.508069	0.080371	0.259946
	C415	C	0.758024	0.017882	0.322365
	H416	H	0.663175	0.116150	0.248303
	H417	H	0.912699	0.053638	0.310681
	H418	H	0.667517	0.006658	0.366918
	H419	H	0.916862	0.069155	0.304236
	H420	H	0.841519	0.055424	0.366702
	H421	H	0.591025	0.117889	0.304356
	H422	H	0.845828	0.070917	0.248181
	H423	H	0.595602	0.008412	0.310510
	H424	H	0.845653	0.008411	0.376870
	H425	H	0.595550	0.070867	0.314248
	H426	H	0.841424	0.117922	0.258202
	H427	H	0.591383	0.055390	0.320638
	H428	H	0.667008	0.069152	0.258232
	H429	H	0.916934	0.006621	0.320816
	H430	H	0.663425	0.053647	0.376661
	H431	H	0.912612	0.116156	0.314217
	O432	O	0.085203	0.102746	0.386296
	O433	O	0.335558	0.040273	0.449106
	O434	O	0.093561	0.021187	0.486279
	O435	O	0.343562	0.083659	0.423644
	O436	O	0.415764	0.040858	0.486427
	O437	O	0.165258	0.103367	0.423699
	O438	O	0.423580	0.084299	0.386424
	O439	O	0.173633	0.021794	0.449000
	O440	O	0.423697	0.021795	0.488694
	O441	O	0.173644	0.084292	0.425886
	O442	O	0.415668	0.103361	0.388711
	O443	O	0.165534	0.040857	0.451165
	O444	O	0.093656	0.083679	0.388628
	O445	O	0.343598	0.021169	0.451389
	O446	O	0.085308	0.040253	0.488606
	O447	O	0.335138	0.102760	0.425934
	F448	F	0.004806	0.031027	0.452780
	F449	F	0.254487	0.093550	0.390238
	F450	F	0.004836	0.093507	0.422117
	F451	F	0.254522	0.031034	0.484763
	Al452	Al	0.129690	0.031035	0.468779
	Al453	Al	0.379514	0.093524	0.406212
	Al454	Al	0.129585	0.093529	0.406120
	Al455	Al	0.379674	0.031022	0.468853
	C456	C	0.093869	0.119936	0.374072
	C457	C	0.343636	0.057407	0.436450
	C458	C	0.095943	0.003672	0.495547
	C459	C	0.346008	0.066147	0.432826
	C460	C	0.413042	0.058380	0.495530
	C461	C	0.162537	0.120912	0.432909
	C462	C	0.415498	0.067127	0.374071
	C463	C	0.165300	0.004624	0.436646
	C464	C	0.415258	0.004643	0.501082
	C465	C	0.165193	0.067117	0.438342
	C466	C	0.413031	0.120886	0.379438
	C467	C	0.162793	0.058385	0.441957
	C468	C	0.095848	0.066151	0.379531
	C469	C	0.346155	0.003649	0.442017
	C470	C	0.093617	0.057417	0.500950
	C471	C	0.343404	0.119909	0.438398
	C472	C	0.002084	0.115939	0.378641
	C473	C	0.251965	0.053424	0.441151
	C474	C	0.006814	0.008643	0.496405
	C475	C	0.256900	0.071107	0.433683
	C476	C	0.001971	0.053435	0.496232
	C477	C	0.251684	0.115936	0.433659
	C478	C	0.006848	0.071132	0.378609
	C479	C	0.257036	0.008614	0.441209
	C480	C	0.000617	0.106666	0.384854
	C481	C	0.250740	0.044166	0.447456
	C482	C	0.008210	0.017902	0.490101
	C483	C	0.258285	0.080371	0.427429
	C484	C	0.000695	0.044173	0.489998
	C485	C	0.250474	0.106680	0.427366
	C486	C	0.008402	0.080386	0.384921
	C487	C	0.258347	0.017874	0.447550
	H488	H	0.163181	0.116164	0.373214
	H489	H	0.412935	0.053630	0.435583
	H490	H	0.167180	0.006665	0.491926
	H491	H	0.417248	0.069139	0.429214
	H492	H	0.341824	0.055380	0.491952
	H493	H	0.091230	0.117930	0.429311
	H494	H	0.346127	0.070893	0.373226
	H495	H	0.095978	0.008396	0.435920
	H496	H	0.346069	0.008427	0.501986
	H497	H	0.095871	0.070890	0.439205
	H498	H	0.341868	0.117879	0.382971
	H499	H	0.091628	0.055391	0.445549
	H500	H	0.167057	0.069133	0.383173
	H501	H	0.417374	0.006650	0.445620
	H502	H	0.162953	0.053643	0.501812
	H503	H	0.412685	0.116129	0.439219
	O504	O	0.585621	0.102770	0.386605
	O505	O	0.835070	0.040247	0.448707
	O506	O	0.593739	0.021179	0.486329
	O507	O	0.843202	0.083652	0.423844
	O508	O	0.915304	0.040884	0.486164
	O509	O	0.665460	0.103327	0.424001
	O510	O	0.923643	0.084303	0.386414
	O511	O	0.673532	0.021803	0.448884
	O512	O	0.923659	0.021849	0.488683
	O513	O	0.673184	0.084288	0.426127
	O514	O	0.915240	0.103365	0.388666
	O515	O	0.665143	0.040848	0.451044
	O516	O	0.593537	0.083683	0.388704
	O517	O	0.843576	0.021136	0.451275
	O518	O	0.585838	0.040276	0.488443
	O519	O	0.835381	0.102760	0.426114
	F520	F	0.504502	0.031014	0.452916
	F521	F	0.754527	0.093528	0.390459
	F522	F	0.504257	0.093505	0.422193
	F523	F	0.754704	0.031046	0.484538
	Al524	Al	0.629606	0.031025	0.468709
	Al525	Al	0.879773	0.093520	0.406322
	Al526	Al	0.629402	0.093523	0.406304
	Al527	Al	0.879855	0.031038	0.468616
	C528	C	0.593929	0.119922	0.373983
	C529	C	0.843114	0.057417	0.436478
	C530	C	0.596031	0.003637	0.495435
	C531	C	0.845535	0.066157	0.432941
	C532	C	0.912809	0.058406	0.495356
	C533	C	0.662591	0.120883	0.432975
	C534	C	0.915121	0.067160	0.373955
	C535	C	0.664810	0.004623	0.436664
	C536	C	0.915067	0.004655	0.501041
	C537	C	0.664772	0.067124	0.438616
	C538	C	0.912942	0.120909	0.379564
	C539	C	0.662412	0.058389	0.442155
	C540	C	0.596338	0.066159	0.379474
	C541	C	0.845677	0.003634	0.442111
	C542	C	0.593936	0.057419	0.500952
	C543	C	0.843512	0.119909	0.438444
	C544	C	0.502237	0.115929	0.378664
	C545	C	0.751537	0.053425	0.441178
	C546	C	0.506992	0.008615	0.496381
	C547	C	0.756397	0.071117	0.433934
	C548	C	0.502290	0.053424	0.496329
	C549	C	0.751832	0.115920	0.433773
	C550	C	0.507092	0.071119	0.378717
	C551	C	0.756545	0.008601	0.441247
	C552	C	0.500880	0.106673	0.385004
	C553	C	0.750334	0.044158	0.447316
	C554	C	0.508472	0.017884	0.490156
	C555	C	0.757837	0.080372	0.427649
	C556	C	0.501040	0.044170	0.490037
	C557	C	0.750597	0.106659	0.427604
	C558	C	0.508281	0.080381	0.384968
	C559	C	0.758128	0.017867	0.447469
	H560	H	0.663299	0.116154	0.373152
	H561	H	0.912511	0.053641	0.435550
	H562	H	0.667270	0.006627	0.491790
	H563	H	0.916747	0.069158	0.429252
	H564	H	0.841577	0.055410	0.491722
	H565	H	0.591402	0.117880	0.429401
	H566	H	0.845896	0.070942	0.373109
	H567	H	0.595556	0.008407	0.435852
	H568	H	0.845766	0.008431	0.501842
	H569	H	0.595573	0.070896	0.439527
	H570	H	0.841719	0.117908	0.383162
	H571	H	0.591276	0.055392	0.445795
	H572	H	0.667504	0.069166	0.383052
	H573	H	0.916819	0.006636	0.445698
	H574	H	0.663322	0.053653	0.501757
	H575	H	0.912898	0.116143	0.439321
	O576	O	0.085499	0.102765	0.511514
	O577	O	0.335495	0.040253	0.573970
	O578	O	0.093611	0.021190	0.611242
	O579	O	0.343414	0.083660	0.548605
	O580	O	0.415506	0.040870	0.611437
	O581	O	0.165483	0.103384	0.548742
	O582	O	0.423350	0.084303	0.511357
	O583	O	0.173488	0.021820	0.573961
	O584	O	0.423562	0.021801	0.613657
	O585	O	0.173495	0.084282	0.551089
	O586	O	0.415553	0.103380	0.513736
	O587	O	0.165518	0.040896	0.576305
	O588	O	0.093439	0.083671	0.513859
	O589	O	0.343438	0.021189	0.576247
	O590	O	0.085460	0.040277	0.613589
	O591	O	0.335395	0.102729	0.551159
	F592	F	0.004748	0.031045	0.577786
	F593	F	0.254465	0.093554	0.515335
	F594	F	0.004855	0.093516	0.547297
	F595	F	0.254558	0.031047	0.609733
	Al596	Al	0.129702	0.031047	0.593774
	Al597	Al	0.379505	0.093529	0.531199
	Al598	Al	0.129675	0.093524	0.531306
	Al599	Al	0.379606	0.031038	0.593861
	C600	C	0.093708	0.119930	0.499240
	C601	C	0.343857	0.057420	0.561539
	C602	C	0.096096	0.003657	0.620468
	C603	C	0.346189	0.066151	0.557897
	C604	C	0.413041	0.058410	0.620427
	C605	C	0.163013	0.120903	0.557884
	C606	C	0.415297	0.067124	0.499137
	C607	C	0.165300	0.004634	0.561621
	C608	C	0.415411	0.004642	0.626099
	C609	C	0.165318	0.067124	0.563375
	C610	C	0.412973	0.120902	0.504404
	C611	C	0.162963	0.058390	0.566999
	C612	C	0.096001	0.066157	0.504601
	C613	C	0.346123	0.003669	0.567122
	C614	C	0.093691	0.057436	0.625890
	C615	C	0.343827	0.119917	0.563355
	C616	C	0.001986	0.115937	0.503771
	C617	C	0.252214	0.053432	0.566204
	C618	C	0.007102	0.008636	0.621408
	C619	C	0.256970	0.071110	0.558743
	C620	C	0.001956	0.053455	0.621225
	C621	C	0.252179	0.115929	0.558716
	C622	C	0.006862	0.071119	0.503743
	C623	C	0.256845	0.008630	0.566313
	C624	C	0.000823	0.106671	0.510008
	C625	C	0.250836	0.044178	0.572503
	C626	C	0.008291	0.017893	0.615067
	C627	C	0.258206	0.080368	0.552482
	C628	C	0.000707	0.044188	0.615045
	C629	C	0.250798	0.106665	0.552547
	C630	C	0.008198	0.080377	0.510042
	C631	C	0.258107	0.017893	0.572504
	H632	H	0.163100	0.116165	0.498440
	H633	H	0.413243	0.053651	0.560723
	H634	H	0.167337	0.006645	0.616789
	H635	H	0.417421	0.069147	0.554283
	H636	H	0.341839	0.055415	0.616811
	H637	H	0.091710	0.117913	0.554282
	H638	H	0.345932	0.070883	0.498368
	H639	H	0.095864	0.008394	0.560766
	H640	H	0.346129	0.008417	0.626942
	H641	H	0.095967	0.070895	0.564181
	H642	H	0.341732	0.117910	0.507985
	H643	H	0.091781	0.055387	0.570574
	H644	H	0.167255	0.069143	0.508238
	H645	H	0.417384	0.006672	0.570693
	H646	H	0.163001	0.053657	0.626745
	H647	H	0.413211	0.116146	0.564174
	O648	O	0.585489	0.102757	0.511483
	O649	O	0.834992	0.040241	0.573773
	O650	O	0.593611	0.021201	0.611441
	O651	O	0.843066	0.083653	0.548846
	O652	O	0.915389	0.040894	0.611190
	O653	O	0.665260	0.103350	0.548858
	O654	O	0.923482	0.084303	0.511463
	O655	O	0.673194	0.021791	0.574063
	O656	O	0.923609	0.021810	0.613617
	O657	O	0.673029	0.084275	0.551107
	O658	O	0.915451	0.103367	0.513810
	O659	O	0.665119	0.040899	0.576353
	O660	O	0.593286	0.083713	0.513584
	O661	O	0.843331	0.021150	0.576286
	O662	O	0.585578	0.040253	0.613750
	O663	O	0.835245	0.102756	0.551209
	F664	F	0.504676	0.031049	0.577975
	F665	F	0.754723	0.093543	0.515475
	F666	F	0.504388	0.093490	0.547163
	F667	F	0.754895	0.031026	0.609638
	Al668	Al	0.629624	0.031037	0.593916
	Al669	Al	0.879930	0.093521	0.531412
	Al670	Al	0.629564	0.093514	0.531267
	Al671	Al	0.879842	0.031034	0.593693
	C672	C	0.593893	0.119915	0.498977
	C673	C	0.843247	0.057417	0.561551
	C674	C	0.596213	0.003660	0.620543
	C675	C	0.845660	0.066149	0.557994
	C676	C	0.912823	0.058428	0.620341
	C677	C	0.662365	0.120891	0.558031
	C678	C	0.915178	0.067143	0.498994
	C679	C	0.664813	0.004625	0.561643
	C680	C	0.915348	0.004642	0.626006
	C681	C	0.664826	0.067131	0.563536
	C682	C	0.912792	0.120908	0.504599
	C683	C	0.662400	0.058395	0.567130
	C684	C	0.596144	0.066160	0.504555
	C685	C	0.845737	0.003652	0.567208
	C686	C	0.593871	0.057436	0.625940
	C687	C	0.843252	0.119923	0.563451
	C688	C	0.502122	0.115929	0.503596
	C689	C	0.751614	0.053434	0.566229
	C690	C	0.507090	0.008628	0.621485
	C691	C	0.756456	0.071109	0.558861
	C692	C	0.502194	0.053449	0.621352
	C693	C	0.751553	0.115924	0.558885
	C694	C	0.506934	0.071121	0.503731
	C695	C	0.756483	0.008603	0.566342
	C696	C	0.500796	0.106671	0.509926
	C697	C	0.750392	0.044177	0.572464
	C698	C	0.508364	0.017897	0.615216
	C699	C	0.757741	0.080362	0.552581
	C700	C	0.500823	0.044168	0.615180
	C701	C	0.750420	0.106659	0.552656
	C702	C	0.508103	0.080392	0.509919
	C703	C	0.757906	0.017869	0.572573
	H704	H	0.663196	0.116134	0.498146
	H705	H	0.912521	0.053647	0.560665
	H706	H	0.667398	0.006661	0.616894
	H707	H	0.916866	0.069140	0.554383
	H708	H	0.841567	0.055439	0.616706
	H709	H	0.591127	0.117894	0.554408
	H710	H	0.845883	0.070921	0.498148
	H711	H	0.595555	0.008409	0.560752
	H712	H	0.846025	0.008419	0.626771
	H713	H	0.595460	0.070908	0.564406
	H714	H	0.841580	0.117903	0.508166
	H715	H	0.591136	0.055387	0.570756
	H716	H	0.667358	0.069162	0.508135
	H717	H	0.916933	0.006653	0.570826
	H718	H	0.663255	0.053667	0.626769
	H719	H	0.912659	0.116158	0.564247
	O720	O	0.085284	0.102770	0.636559
	O721	O	0.335515	0.040271	0.699068
	O722	O	0.093485	0.021180	0.736256
	O723	O	0.343463	0.083675	0.673720
	O724	O	0.415580	0.040867	0.736333
	O725	O	0.165426	0.103377	0.673752
	O726	O	0.423510	0.084298	0.636406
	O727	O	0.173646	0.021811	0.698938
	O728	O	0.423614	0.021819	0.738702
	O729	O	0.173447	0.084308	0.676201
	O730	O	0.415577	0.103352	0.638543
	O731	O	0.165534	0.040881	0.701276
	O732	O	0.093610	0.083674	0.638802
	O733	O	0.343569	0.021188	0.701291
	O734	O	0.085447	0.040263	0.738561
	O735	O	0.335271	0.102756	0.676014
	F736	F	0.004731	0.031042	0.702810
	F737	F	0.254297	0.093505	0.640336
	F738	F	0.004619	0.093536	0.672261
	F739	F	0.254452	0.031018	0.734780
	Al740	Al	0.129547	0.031041	0.718741
	Al741	Al	0.379430	0.093529	0.656176
	Al742	Al	0.129403	0.093518	0.656295
	Al743	Al	0.379524	0.031025	0.718825
	C744	C	0.093711	0.119934	0.624118
	C745	C	0.343488	0.057417	0.686487
	C746	C	0.095986	0.003671	0.745502
	C747	C	0.345885	0.066157	0.682828
	C748	C	0.412971	0.058400	0.745315
	C749	C	0.162724	0.120895	0.683052
	C750	C	0.415391	0.067147	0.624037
	C751	C	0.165355	0.004632	0.686631
	C752	C	0.415308	0.004636	0.751015
	C753	C	0.165185	0.067133	0.688423
	C754	C	0.412919	0.120885	0.629476
	C755	C	0.162804	0.058405	0.692065
	C756	C	0.096076	0.066173	0.629543
	C757	C	0.346129	0.003657	0.692162
	C758	C	0.093427	0.057429	0.750968
	C759	C	0.343554	0.119907	0.688502
	C760	C	0.001964	0.115941	0.628753
	C761	C	0.251949	0.053435	0.691218
	C762	C	0.006853	0.008640	0.746421
	C763	C	0.256852	0.071125	0.683844
	C764	C	0.001809	0.053444	0.746281
	C765	C	0.251850	0.115910	0.683895
	C766	C	0.006975	0.071143	0.628667
	C767	C	0.257022	0.008629	0.691270
	C768	C	0.000668	0.106682	0.635063
	C769	C	0.250784	0.044178	0.697536
	C770	C	0.008209	0.017896	0.740133
	C771	C	0.258186	0.080391	0.677612
	C772	C	0.000753	0.044181	0.740014
	C773	C	0.250616	0.106669	0.677569
	C774	C	0.008273	0.080400	0.634909
	C775	C	0.258343	0.017894	0.697487
	H776	H	0.163012	0.116159	0.623355
	H777	H	0.412708	0.053635	0.685611
	H778	H	0.167187	0.006670	0.741868
	H779	H	0.416982	0.069154	0.679120
	H780	H	0.341828	0.055409	0.741645
	H781	H	0.091398	0.117918	0.679402
	H782	H	0.345944	0.070901	0.623216
	H783	H	0.095962	0.008401	0.685801
	H784	H	0.346010	0.008412	0.751884
	H785	H	0.095798	0.070899	0.689254
	H786	H	0.341705	0.117889	0.633071
	H787	H	0.091575	0.055423	0.695688
	H788	H	0.167295	0.069162	0.633200
	H789	H	0.417392	0.006639	0.695799
	H790	H	0.162787	0.053666	0.751834
	H791	H	0.413004	0.116145	0.689317
	O792	O	0.585558	0.102752	0.636431
	O793	O	0.834961	0.040250	0.698833
	O794	O	0.593562	0.021170	0.736215
	O795	O	0.843234	0.083638	0.673808
	O796	O	0.915397	0.040890	0.736148
	O797	O	0.665147	0.103347	0.673843
	O798	O	0.923668	0.084334	0.636390
	O799	O	0.673538	0.021812	0.698921
	O800	O	0.923553	0.021825	0.738732
	O801	O	0.673208	0.084272	0.676066
	O802	O	0.915301	0.103382	0.638808
	O803	O	0.664964	0.040872	0.701259
	O804	O	0.593550	0.083683	0.638707
	O805	O	0.843493	0.021163	0.701239
	O806	O	0.585532	0.040233	0.738731
	O807	O	0.834972	0.102749	0.676260
	F808	F	0.504438	0.031028	0.702932
	F809	F	0.754608	0.093533	0.640412
	F810	F	0.504234	0.093525	0.672106
	F811	F	0.754730	0.031024	0.734591
	Al812	Al	0.629560	0.031028	0.718791
	Al813	Al	0.879668	0.093530	0.656392
	Al814	Al	0.629435	0.093526	0.656285
	Al815	Al	0.879808	0.031037	0.718673
	C816	C	0.593736	0.119906	0.623988
	C817	C	0.843281	0.057386	0.686530
	C818	C	0.596130	0.003657	0.745437
	C819	C	0.845783	0.066124	0.682903
	C820	C	0.912597	0.058424	0.745354
	C821	C	0.662227	0.120884	0.682963
	C822	C	0.915206	0.067167	0.623988
	C823	C	0.665031	0.004656	0.686519
	C824	C	0.915185	0.004647	0.751075
	C825	C	0.664939	0.067112	0.688500
	C826	C	0.912864	0.120916	0.629671
	C827	C	0.662478	0.058387	0.692146
	C828	C	0.596123	0.066173	0.629556
	C829	C	0.845884	0.003645	0.692087
	C830	C	0.593679	0.057420	0.750991
	C831	C	0.843076	0.119914	0.688463
	C832	C	0.502047	0.115913	0.628649
	C833	C	0.751508	0.053413	0.691177
	C834	C	0.506937	0.008618	0.746325
	C835	C	0.756607	0.071090	0.683794
	C836	C	0.502034	0.053419	0.746312
	C837	C	0.751388	0.115913	0.683823
	C838	C	0.506992	0.071141	0.628642
	C839	C	0.756754	0.008630	0.691191
	C840	C	0.500830	0.106659	0.634867
	C841	C	0.750206	0.044160	0.697427
	C842	C	0.508272	0.017888	0.740084
	C843	C	0.757893	0.080351	0.677550
	C844	C	0.500839	0.044160	0.740133
	C845	C	0.750236	0.106658	0.677630
	C846	C	0.508258	0.080392	0.634915
	C847	C	0.758138	0.017885	0.697452
	H848	H	0.663084	0.116139	0.623085
	H849	H	0.912484	0.053600	0.685726
	H850	H	0.667329	0.006654	0.741796
	H851	H	0.916957	0.069125	0.679283
	H852	H	0.841334	0.055434	0.741711
	H853	H	0.590878	0.117899	0.679368
	H854	H	0.845972	0.070949	0.623118
	H855	H	0.595665	0.008430	0.685660
	H856	H	0.845822	0.008416	0.751926
	H857	H	0.595626	0.070882	0.689367
	H858	H	0.841596	0.117929	0.633310
	H859	H	0.591146	0.055415	0.695828
	H860	H	0.667329	0.069165	0.633190
	H861	H	0.917167	0.006624	0.695757
	H862	H	0.662987	0.053647	0.751919
	H863	H	0.912564	0.116158	0.689337
	O864	O	0.085038	0.102743	0.761373
	O865	O	0.335640	0.040239	0.823901
	O866	O	0.093349	0.021206	0.861345
	O867	O	0.343594	0.083673	0.798748
	O868	O	0.415337	0.040873	0.861297
	O869	O	0.165390	0.103383	0.798768
	O870	O	0.423354	0.084295	0.761404
	O871	O	0.173726	0.021789	0.824001
	O872	O	0.423802	0.021808	0.863667
	O873	O	0.173606	0.084290	0.800952
	O874	O	0.415322	0.103373	0.763730
	O875	O	0.165690	0.040861	0.826229
	O876	O	0.093432	0.083673	0.763753
	O877	O	0.343558	0.021144	0.826421
	O878	O	0.085285	0.040249	0.863612
	O879	O	0.335446	0.102766	0.801029
	F880	F	0.004588	0.031026	0.827791
	F881	F	0.254367	0.093528	0.765300
	F882	F	0.004494	0.093537	0.797221
	F883	F	0.254506	0.031031	0.859710
	Al884	Al	0.129601	0.031032	0.843785
	Al885	Al	0.379281	0.093525	0.781244
	Al886	Al	0.129435	0.093532	0.781213
	Al887	Al	0.379424	0.031010	0.843789
	C888	C	0.093560	0.119933	0.749175
	C889	C	0.343826	0.057413	0.811460
	C890	C	0.095871	0.003671	0.870428
	C891	C	0.346236	0.066149	0.807790
	C892	C	0.412668	0.058388	0.870408
	C893	C	0.162927	0.120892	0.808080
	C894	C	0.415329	0.067145	0.748901
	C895	C	0.165303	0.004638	0.811514
	C896	C	0.415307	0.004660	0.876019
	C897	C	0.165494	0.067112	0.813372
	C898	C	0.412717	0.120895	0.754529
	C899	C	0.163089	0.058381	0.817040
	C900	C	0.095761	0.066171	0.754604
	C901	C	0.346113	0.003643	0.817104
	C902	C	0.093463	0.057422	0.875918
	C903	C	0.343864	0.119906	0.813500
	C904	C	0.001823	0.115944	0.753767
	C905	C	0.252225	0.053420	0.816151
	C906	C	0.006778	0.008646	0.871354
	C907	C	0.257072	0.071109	0.808710
	C908	C	0.001795	0.053428	0.871261
	C909	C	0.252061	0.115926	0.808899
	C910	C	0.006651	0.071139	0.753690
	C911	C	0.256979	0.008631	0.816209
	C912	C	0.000484	0.106665	0.759944
	C913	C	0.250943	0.044156	0.822423
	C914	C	0.008058	0.017903	0.865115
	C915	C	0.258315	0.080374	0.802475
	C916	C	0.000595	0.044165	0.865065
	C917	C	0.250676	0.106672	0.802583
	C918	C	0.008099	0.080400	0.759921
	C919	C	0.258297	0.017868	0.822546
	H920	H	0.162915	0.116162	0.748347
	H921	H	0.413151	0.053639	0.810615
	H922	H	0.167061	0.006662	0.866750
	H923	H	0.417393	0.069147	0.804138
	H924	H	0.341446	0.055397	0.866797
	H925	H	0.091581	0.117908	0.804461
	H926	H	0.346067	0.070917	0.748004
	H927	H	0.095851	0.008396	0.810629
	H928	H	0.346060	0.008438	0.876868
	H929	H	0.096111	0.070869	0.814184
	H930	H	0.341518	0.117894	0.758078
	H931	H	0.091865	0.055392	0.820682
	H932	H	0.166975	0.069157	0.758238
	H933	H	0.417358	0.006625	0.820796
	H934	H	0.162807	0.053650	0.876835
	H935	H	0.413195	0.116127	0.814284
	O936	O	0.585263	0.102743	0.761416
	O937	O	0.835285	0.040251	0.823842
	O938	O	0.593672	0.021167	0.861247
	O939	O	0.843235	0.083652	0.798777
	O940	O	0.915277	0.040866	0.861266
	O941	O	0.665253	0.103389	0.798749
	O942	O	0.923469	0.084329	0.761334
	O943	O	0.673419	0.021835	0.823715
	O944	O	0.923387	0.021814	0.863647
	O945	O	0.673216	0.084293	0.801107
	O946	O	0.915068	0.103380	0.763765
	O947	O	0.665297	0.040889	0.826308
	O948	O	0.593360	0.083692	0.763692
	O949	O	0.843267	0.021165	0.826219
	O950	O	0.585238	0.040242	0.863572
	O951	O	0.835273	0.102758	0.801199
	F952	F	0.504390	0.031002	0.827844
	F953	F	0.754439	0.093517	0.765481
	F954	F	0.504311	0.093532	0.797164
	F955	F	0.754548	0.031028	0.859552
	Al956	Al	0.629500	0.031030	0.843723
	Al957	Al	0.879569	0.093534	0.781340
	Al958	Al	0.629327	0.093527	0.781286
	Al959	Al	0.879707	0.031034	0.843666
	C960	C	0.593625	0.119924	0.749125
	C961	C	0.843302	0.057407	0.811392
	C962	C	0.596039	0.003647	0.870388
	C963	C	0.845634	0.066146	0.807763
	C964	C	0.912615	0.058403	0.870386
	C965	C	0.662635	0.120908	0.808026
	C966	C	0.914958	0.067162	0.748981
	C967	C	0.664837	0.004640	0.811542
	C968	C	0.915067	0.004653	0.876073
	C969	C	0.664961	0.067128	0.813502
	C970	C	0.912746	0.120926	0.754607
	C971	C	0.662639	0.058397	0.817116
	C972	C	0.596049	0.066171	0.754570
	C973	C	0.845569	0.003654	0.817222
	C974	C	0.593441	0.057396	0.876033
	C975	C	0.843553	0.119926	0.813464
	C976	C	0.501921	0.115927	0.753700
	C977	C	0.751818	0.053430	0.816197
	C978	C	0.507057	0.008646	0.871333
	C979	C	0.756537	0.071113	0.808763
	C980	C	0.501777	0.053402	0.871341
	C981	C	0.751818	0.115942	0.808905
	C982	C	0.506950	0.071128	0.753616
	C983	C	0.756502	0.008632	0.816236
	C984	C	0.500589	0.106663	0.759935
	C985	C	0.750576	0.044169	0.822452
	C986	C	0.508437	0.017882	0.865077
	C987	C	0.757891	0.080375	0.802560
	C988	C	0.500586	0.044163	0.865063
	C989	C	0.750547	0.106677	0.802608
	C990	C	0.508154	0.080391	0.759907
	C991	C	0.757978	0.017891	0.822377
	H992	H	0.663002	0.116160	0.748351
	H993	H	0.912600	0.053636	0.810451
	H994	H	0.667428	0.006613	0.866703
	H995	H	0.916726	0.069127	0.804063
	H996	H	0.841354	0.055412	0.866772
	H997	H	0.591400	0.117912	0.804401
	H998	H	0.845725	0.070942	0.748131
	H999	H	0.595469	0.008409	0.810598
	H1000	H	0.845770	0.008426	0.876979
	H1001	H	0.595670	0.070903	0.814417
	H1002	H	0.841418	0.117937	0.758176
	H1003	H	0.591479	0.055397	0.820795
	H1004	H	0.667252	0.069151	0.758271
	H1005	H	0.916883	0.006633	0.820879
	H1006	H	0.662788	0.053623	0.876884
	H1007	H	0.912920	0.116152	0.814265
	O1008	O	0.085335	0.102759	0.886396
	O1009	O	0.335216	0.040232	0.948768
	O1010	O	0.093488	0.021191	0.986402
	O1011	O	0.343445	0.083665	0.923809
	O1012	O	0.415370	0.040879	0.986119
	O1013	O	0.165502	0.103378	0.923580
	O1014	O	0.423386	0.084270	0.886456
	O1015	O	0.173505	0.021781	0.949055
	O1016	O	0.423584	0.021787	0.988446
	O1017	O	0.173415	0.084294	0.926034
	O1018	O	0.415354	0.103350	0.888724
	O1019	O	0.165353	0.040878	0.951369
	O1020	O	0.093292	0.083676	0.888728
	O1021	O	0.343508	0.021183	0.951147
	O1022	O	0.085368	0.040248	0.988630
	O1023	O	0.335443	0.102742	0.926046
	F1024	F	0.004721	0.031021	0.952844
	F1025	F	0.254437	0.093486	0.890294
	F1026	F	0.004483	0.093531	0.922154
	F1027	F	0.254589	0.031039	0.984651
	Al1028	Al	0.129537	0.031023	0.968811
	Al1029	Al	0.379439	0.093515	0.906249
	Al1030	Al	0.129426	0.093524	0.906201
	Al1031	Al	0.379503	0.031019	0.968626
	C1032	C	0.093336	0.119928	0.874090
	C1033	C	0.343603	0.057412	0.936533
	C1034	C	0.095765	0.003676	0.995477
	C1035	C	0.346003	0.066143	0.932901
	C1036	C	0.412930	0.058389	0.995474
	C1037	C	0.162732	0.120891	0.933049
	C1038	C	0.415077	0.067140	0.873998
	C1039	C	0.165312	0.004644	0.936570
	C1040	C	0.415265	0.004626	1.000950
	C1041	C	0.165136	0.067118	0.938295
	C1042	C	0.412766	0.120903	0.879563
	C1043	C	0.162761	0.058383	0.941956
	C1044	C	0.095875	0.066171	0.879463
	C1045	C	0.346125	0.003650	0.942088
	C1046	C	0.093692	0.057406	1.000897
	C1047	C	0.343628	0.119926	0.938434
	C1048	C	0.001694	0.115938	0.878713
	C1049	C	0.251945	0.053419	0.941128
	C1050	C	0.006681	0.008647	0.996414
	C1051	C	0.256758	0.071107	0.933674
	C1052	C	0.001972	0.053431	0.996300
	C1053	C	0.251915	0.115938	0.933808
	C1054	C	0.006740	0.071137	0.878549
	C1055	C	0.257006	0.008626	0.941242
	C1056	C	0.000575	0.106675	0.884941
	C1057	C	0.250577	0.044161	0.947427
	C1058	C	0.008154	0.017903	0.990179
	C1059	C	0.258105	0.080370	0.927498
	C1060	C	0.000677	0.044162	0.990114
	C1061	C	0.250721	0.106671	0.927456
	C1062	C	0.008016	0.080394	0.884807
	C1063	C	0.258270	0.017877	0.947500
	H1064	H	0.162700	0.116159	0.873267
	H1065	H	0.412995	0.053647	0.935732
	H1066	H	0.166978	0.006667	0.991824
	H1067	H	0.417221	0.069136	0.929323
	H1068	H	0.341788	0.055400	0.991818
	H1069	H	0.091488	0.117894	0.929475
	H1070	H	0.345955	0.070930	0.873170
	H1071	H	0.096013	0.008417	0.935708
	H1072	H	0.345980	0.008397	1.001794
	H1073	H	0.095788	0.070889	0.939133
	H1074	H	0.341576	0.117912	0.883175
	H1075	H	0.091638	0.055384	0.945607
	H1076	H	0.167072	0.069163	0.883110
	H1077	H	0.417478	0.006635	0.945684
	H1078	H	0.162923	0.053630	1.001762
	H1079	H	0.412983	0.116155	0.939248
	O1080	O	0.585427	0.102768	0.886531
	O1081	O	0.835173	0.040231	0.948755
	O1082	O	0.593507	0.021168	0.986137
	O1083	O	0.843430	0.083637	0.923685
	O1084	O	0.915301	0.040867	0.986350
	O1085	O	0.665378	0.103353	0.923823
	O1086	O	0.923349	0.084325	0.886214
	O1087	O	0.673639	0.021800	0.948781
	O1088	O	0.923525	0.021837	0.988760
	O1089	O	0.673414	0.084270	0.926035
	O1090	O	0.915227	0.103362	0.888634
	O1091	O	0.665228	0.040868	0.951156
	O1092	O	0.593376	0.083677	0.888725
	O1093	O	0.843494	0.021158	0.951248
	O1094	O	0.585281	0.040233	0.988517
	O1095	O	0.835375	0.102750	0.926121
	F1096	F	0.504420	0.031014	0.952722
	F1097	F	0.754484	0.093499	0.890400
	F1098	F	0.504421	0.093513	0.922154
	F1099	F	0.754438	0.031037	0.984526
	Al1100	Al	0.629397	0.031017	0.968635
	Al1101	Al	0.879646	0.093517	0.906247
	Al1102	Al	0.629425	0.093507	0.906266
	Al1103	Al	0.879730	0.031031	0.968688
	C1104	C	0.593587	0.119912	0.874084
	C1105	C	0.843531	0.057404	0.936532
	C1106	C	0.596036	0.003641	0.995330
	C1107	C	0.846008	0.066138	0.932893
	C1108	C	0.912858	0.058404	0.995415
	C1109	C	0.662684	0.120886	0.933014
	C1110	C	0.915014	0.067150	0.873926
	C1111	C	0.665330	0.004642	0.936396
	C1112	C	0.914964	0.004654	1.001121
	C1113	C	0.665121	0.067113	0.938397
	C1114	C	0.912483	0.120907	0.879514
	C1115	C	0.662673	0.058381	0.942022
	C1116	C	0.595910	0.066147	0.879612
	C1117	C	0.845982	0.003635	0.942218
	C1118	C	0.593663	0.057397	1.000930
	C1119	C	0.843492	0.119900	0.938485
	C1120	C	0.501825	0.115930	0.878722
	C1121	C	0.751885	0.053420	0.941194
	C1122	C	0.506933	0.008615	0.996260
	C1123	C	0.756811	0.071099	0.933753
	C1124	C	0.501972	0.053414	0.996360
	C1125	C	0.751812	0.115911	0.933923
	C1126	C	0.506861	0.071109	0.878665
	C1127	C	0.756935	0.008620	0.941186
	C1128	C	0.500562	0.106663	0.884973
	C1129	C	0.750524	0.044157	0.947382
	C1130	C	0.508280	0.017873	0.989975
	C1131	C	0.758114	0.080354	0.927495
	C1132	C	0.500645	0.044159	0.989991
	C1133	C	0.750614	0.106654	0.927636
	C1134	C	0.508193	0.080369	0.884952
	C1135	C	0.758253	0.017875	0.947401
	H1136	H	0.662878	0.116134	0.873236
	H1137	H	0.912851	0.053638	0.935698
	H1138	H	0.667233	0.006626	0.991590
	H1139	H	0.917254	0.069127	0.929252
	H1140	H	0.841579	0.055410	0.991859
	H1141	H	0.591458	0.117885	0.929391
	H1142	H	0.845754	0.070929	0.873069
	H1143	H	0.596039	0.008417	0.935414
	H1144	H	0.845678	0.008429	1.002048
	H1145	H	0.595797	0.070879	0.939222
	H1146	H	0.841238	0.117908	0.883073
	H1147	H	0.591367	0.055377	0.945606
	H1148	H	0.667103	0.069138	0.883242
	H1149	H	0.917217	0.006617	0.945905
	H1150	H	0.662922	0.053626	1.001715
	H1151	H	0.912887	0.116133	0.939265
	O1152	O	0.085193	0.227763	0.011375
	O1153	O	0.335248	0.165233	0.073764
	O1154	O	0.093705	0.146178	0.111223
	O1155	O	0.343375	0.208676	0.048718
	O1156	O	0.415111	0.165880	0.111204
	O1157	O	0.165356	0.228384	0.048771
	O1158	O	0.423584	0.209301	0.011499
	O1159	O	0.173736	0.146792	0.073991
	O1160	O	0.423888	0.146827	0.113735
	O1161	O	0.173443	0.209310	0.050967
	O1162	O	0.415403	0.228393	0.013801
	O1163	O	0.165366	0.165884	0.076372
	O1164	O	0.093520	0.208713	0.013634
	O1165	O	0.343717	0.146154	0.076269
	O1166	O	0.085166	0.165255	0.113625
	O1167	O	0.335247	0.227768	0.051049
	F1168	F	0.004690	0.156039	0.077773
	F1169	F	0.254459	0.218546	0.015309
	F1170	F	0.004543	0.218541	0.047172
	F1171	F	0.254447	0.156011	0.109633
	Al1172	Al	0.129630	0.156033	0.093793
	Al1173	Al	0.379442	0.218545	0.031265
	Al1174	Al	0.129517	0.218541	0.031229
	Al1175	Al	0.379480	0.156024	0.093755
	C1176	C	0.093516	0.244954	-0.000919
	C1177	C	0.343715	0.182412	0.061503
	C1178	C	0.096147	0.128681	0.120573
	C1179	C	0.346080	0.191147	0.057886
	C1180	C	0.412450	0.183405	0.120494
	C1181	C	0.162712	0.245914	0.058086
	C1182	C	0.415431	0.192142	-0.000930
	C1183	C	0.165357	0.129635	0.061691
	C1184	C	0.415290	0.129646	0.125954
	C1185	C	0.165238	0.192128	0.063331
	C1186	C	0.412988	0.245907	0.004577
	C1187	C	0.162817	0.183392	0.066961
	C1188	C	0.095990	0.191194	0.004383
	C1189	C	0.346272	0.128638	0.067043
	C1190	C	0.093533	0.182441	0.125841
	C1191	C	0.343618	0.244929	0.063435
	C1192	C	0.001863	0.240956	0.003692
	C1193	C	0.251994	0.178427	0.066141
	C1194	C	0.006994	0.133652	0.121392
	C1195	C	0.256859	0.196112	0.058677
	C1196	C	0.001794	0.178447	0.121218
	C1197	C	0.251923	0.240943	0.058786
	C1198	C	0.006800	0.196163	0.003578
	C1199	C	0.257139	0.133608	0.066198
	C1200	C	0.000539	0.231694	0.009963
	C1201	C	0.250578	0.169165	0.072402
	C1202	C	0.008452	0.142905	0.115138
	C1203	C	0.258082	0.205382	0.052453
	C1204	C	0.000510	0.169182	0.115030
	C1205	C	0.250625	0.231690	0.052491
	C1206	C	0.008222	0.205420	0.009816
	C1207	C	0.258402	0.142866	0.072484
	H1208	H	0.162870	0.241188	-0.001736
	H1209	H	0.412984	0.178643	0.060693
	H1210	H	0.167418	0.131675	0.117036
	H1211	H	0.417259	0.194136	0.054327
	H1212	H	0.341112	0.180423	0.116917
	H1213	H	0.091401	0.242922	0.054552
	H1214	H	0.346093	0.195913	-0.001659
	H1215	H	0.096061	0.133412	0.061016
	H1216	H	0.346055	0.133428	0.126710
	H1217	H	0.095931	0.195907	0.064168
	H1218	H	0.341734	0.242919	0.008184
	H1219	H	0.091633	0.180397	0.070564
	H1220	H	0.167231	0.194187	0.007966
	H1221	H	0.417438	0.131636	0.070672
	H1222	H	0.162839	0.178666	0.126660
	H1223	H	0.413084	0.241171	0.064254
	O1224	O	0.585227	0.227739	0.011332
	O1225	O	0.834937	0.165251	0.073838
	O1226	O	0.593819	0.146160	0.111216
	O1227	O	0.843370	0.208657	0.048645
	O1228	O	0.915180	0.165874	0.111273
	O1229	O	0.665016	0.228389	0.048753
	O1230	O	0.923489	0.209339	0.011307
	O1231	O	0.673468	0.146816	0.073852
	O1232	O	0.923793	0.146859	0.113769
	O1233	O	0.673457	0.209312	0.051081
	O1234	O	0.915184	0.228394	0.013694
	O1235	O	0.665081	0.165918	0.076469
	O1236	O	0.593566	0.208692	0.013766
	O1237	O	0.843440	0.146139	0.076312
	O1238	O	0.584874	0.165228	0.113726
	O1239	O	0.834996	0.227764	0.051154
	F1240	F	0.504527	0.156034	0.077848
	F1241	F	0.754561	0.218553	0.015388
	F1242	F	0.504401	0.218538	0.047177
	F1243	F	0.754629	0.156009	0.109633
	Al1244	Al	0.629493	0.156030	0.093813
	Al1245	Al	0.879618	0.218558	0.031269
	Al1246	Al	0.629384	0.218537	0.031233
	Al1247	Al	0.879785	0.156033	0.093685
	C1248	C	0.593806	0.244924	-0.000919
	C1249	C	0.843371	0.182420	0.061563
	C1250	C	0.596178	0.128662	0.120581
	C1251	C	0.845728	0.191151	0.057913
	C1252	C	0.912672	0.183417	0.120402
	C1253	C	0.662579	0.245913	0.057969
	C1254	C	0.914992	0.192167	-0.000998
	C1255	C	0.664852	0.129630	0.061666
	C1256	C	0.915198	0.129669	0.125936
	C1257	C	0.664832	0.192145	0.063397
	C1258	C	0.912661	0.245924	0.004523
	C1259	C	0.662466	0.183412	0.067053
	C1260	C	0.596198	0.191159	0.004557
	C1261	C	0.845721	0.128646	0.067076
	C1262	C	0.593354	0.182412	0.125882
	C1263	C	0.843458	0.244914	0.063460
	C1264	C	0.502127	0.240932	0.003704
	C1265	C	0.751677	0.178446	0.066237
	C1266	C	0.507026	0.133630	0.121384
	C1267	C	0.756601	0.196120	0.058757
	C1268	C	0.501639	0.178423	0.121246
	C1269	C	0.751699	0.240941	0.058807
	C1270	C	0.507124	0.196139	0.003626
	C1271	C	0.756558	0.133609	0.066272
	C1272	C	0.500668	0.231670	0.009931
	C1273	C	0.750339	0.169189	0.072525
	C1274	C	0.508485	0.142885	0.115107
	C1275	C	0.758064	0.205378	0.052486
	C1276	C	0.500311	0.169170	0.115023
	C1277	C	0.750291	0.231680	0.052569
	C1278	C	0.508334	0.205392	0.009970
	C1279	C	0.758041	0.142870	0.072473
	H1280	H	0.663155	0.241155	-0.001711
	H1281	H	0.912679	0.178647	0.060750
	H1282	H	0.667368	0.131668	0.117015
	H1283	H	0.916973	0.194137	0.054303
	H1284	H	0.841374	0.180428	0.116813
	H1285	H	0.591237	0.242923	0.054398
	H1286	H	0.845608	0.195937	-0.001796
	H1287	H	0.595611	0.133410	0.060828
	H1288	H	0.845855	0.133439	0.126687
	H1289	H	0.595667	0.195922	0.064177
	H1290	H	0.841414	0.242924	0.008086
	H1291	H	0.591402	0.180424	0.070670
	H1292	H	0.667377	0.194146	0.008242
	H1293	H	0.916942	0.131637	0.070637
	H1294	H	0.662765	0.178643	0.126716
	H1295	H	0.912828	0.241143	0.064310
	O1296	O	0.085342	0.227759	0.136456
	O1297	O	0.335271	0.165231	0.198822
	O1298	O	0.093498	0.146187	0.236266
	O1299	O	0.343700	0.208669	0.173710
	O1300	O	0.415337	0.165894	0.236206
	O1301	O	0.165339	0.228382	0.173802
	O1302	O	0.423526	0.209324	0.136396
	O1303	O	0.173678	0.146805	0.198981
	O1304	O	0.423411	0.146804	0.238570
	O1305	O	0.173832	0.209318	0.176184
	O1306	O	0.415413	0.228390	0.138745
	O1307	O	0.165420	0.165877	0.201228
	O1308	O	0.093533	0.208684	0.138893
	O1309	O	0.343649	0.146170	0.201320
	O1310	O	0.085578	0.165262	0.238578
	O1311	O	0.335442	0.227747	0.176184
	F1312	F	0.004527	0.156030	0.202821
	F1313	F	0.254401	0.218552	0.140372
	F1314	F	0.004561	0.218548	0.172308
	F1315	F	0.254595	0.156026	0.234685
	Al1316	Al	0.129571	0.156032	0.218788
	Al1317	Al	0.379335	0.218539	0.156264
	Al1318	Al	0.129531	0.218531	0.156299
	Al1319	Al	0.379454	0.156029	0.218758
	C1320	C	0.093536	0.244935	0.124154
	C1321	C	0.343828	0.182414	0.186601
	C1322	C	0.096080	0.128669	0.245498
	C1323	C	0.346192	0.191157	0.183022
	C1324	C	0.412878	0.183411	0.245451
	C1325	C	0.162937	0.245906	0.183009
	C1326	C	0.414885	0.192155	0.124121
	C1327	C	0.165214	0.129635	0.186754
	C1328	C	0.415411	0.129643	0.250998
	C1329	C	0.165334	0.192143	0.188416
	C1330	C	0.412813	0.245899	0.129518
	C1331	C	0.163006	0.183411	0.191972
	C1332	C	0.096075	0.191186	0.129436
	C1333	C	0.346103	0.128650	0.192175
	C1334	C	0.093703	0.182428	0.250860
	C1335	C	0.343774	0.244924	0.188554
	C1336	C	0.001859	0.240950	0.128770
	C1337	C	0.252105	0.178435	0.191189
	C1338	C	0.006989	0.133640	0.246437
	C1339	C	0.257064	0.196128	0.183886
	C1340	C	0.002036	0.178439	0.246233
	C1341	C	0.252047	0.240950	0.183938
	C1342	C	0.006884	0.196145	0.128699
	C1343	C	0.256987	0.133616	0.191324
	C1344	C	0.000694	0.231681	0.135026
	C1345	C	0.250671	0.169167	0.197412
	C1346	C	0.008193	0.142894	0.240175
	C1347	C	0.258461	0.205389	0.177611
	C1348	C	0.000758	0.169177	0.240034
	C1349	C	0.250662	0.231668	0.177657
	C1350	C	0.008314	0.205401	0.135003
	C1351	C	0.258360	0.142881	0.197526
	H1352	H	0.162922	0.241169	0.123370
	H1353	H	0.413068	0.178624	0.185806
	H1354	H	0.167268	0.131663	0.241872
	H1355	H	0.417370	0.194161	0.179437
	H1356	H	0.341663	0.180425	0.241773
	H1357	H	0.091785	0.242902	0.179357
	H1358	H	0.345686	0.195941	0.123365
	H1359	H	0.095915	0.133415	0.185945
	H1360	H	0.346145	0.133415	0.251781
	H1361	H	0.095994	0.195903	0.189184
	H1362	H	0.341662	0.242891	0.133065
	H1363	H	0.091686	0.180425	0.195476
	H1364	H	0.167288	0.194180	0.132993
	H1365	H	0.417314	0.131642	0.195809
	H1366	H	0.163062	0.178658	0.251664
	H1367	H	0.412977	0.241136	0.189376
	O1368	O	0.585416	0.227744	0.136337
	O1369	O	0.834822	0.165235	0.198917
	O1370	O	0.593404	0.146180	0.236351
	O1371	O	0.843456	0.208642	0.173745
	O1372	O	0.915485	0.165871	0.236246
	O1373	O	0.664981	0.228379	0.173741
	O1374	O	0.923652	0.209348	0.136351
	O1375	O	0.673478	0.146782	0.199026
	O1376	O	0.923582	0.146818	0.238782
	O1377	O	0.673466	0.209300	0.176103
	O1378	O	0.915301	0.228382	0.138796
	O1379	O	0.664992	0.165862	0.201393
	O1380	O	0.593505	0.208676	0.138737
	O1381	O	0.843516	0.146133	0.201257
	O1382	O	0.585184	0.165240	0.238774
	O1383	O	0.835051	0.227756	0.176262
	F1384	F	0.504451	0.156043	0.202907
	F1385	F	0.754503	0.218528	0.140418
	F1386	F	0.504375	0.218519	0.172116
	F1387	F	0.754620	0.156001	0.234682
	Al1388	Al	0.629509	0.156019	0.218875
	Al1389	Al	0.879726	0.218539	0.156415
	Al1390	Al	0.629414	0.218528	0.156216
	Al1391	Al	0.879711	0.156020	0.218749
	C1392	C	0.593765	0.244930	0.124054
	C1393	C	0.843210	0.182396	0.186594
	C1394	C	0.596213	0.128663	0.245516
	C1395	C	0.845729	0.191135	0.182994
	C1396	C	0.912791	0.183408	0.245441
	C1397	C	0.662363	0.245911	0.183038
	C1398	C	0.915179	0.192164	0.124002
	C1399	C	0.664906	0.129629	0.186651
	C1400	C	0.915218	0.129654	0.251031
	C1401	C	0.664883	0.192133	0.188445
	C1402	C	0.912654	0.245918	0.129620
	C1403	C	0.662375	0.183400	0.192043
	C1404	C	0.595874	0.191157	0.129503
	C1405	C	0.845877	0.128648	0.192089
	C1406	C	0.593715	0.182425	0.250964
	C1407	C	0.843234	0.244920	0.188527
	C1408	C	0.502044	0.240946	0.128702
	C1409	C	0.751470	0.178420	0.191183
	C1410	C	0.507052	0.133629	0.246406
	C1411	C	0.756598	0.196106	0.183846
	C1412	C	0.501955	0.178432	0.246361
	C1413	C	0.751554	0.240958	0.183856
	C1414	C	0.506717	0.196129	0.128680
	C1415	C	0.756675	0.133604	0.191255
	C1416	C	0.500739	0.231675	0.134927
	C1417	C	0.750167	0.169156	0.197477
	C1418	C	0.508116	0.142888	0.240106
	C1419	C	0.758084	0.205368	0.177577
	C1420	C	0.500579	0.169175	0.240106
	C1421	C	0.750264	0.231674	0.177614
	C1422	C	0.508170	0.205390	0.134959
	C1423	C	0.758139	0.142860	0.197482
	H1424	H	0.663045	0.241151	0.123255
	H1425	H	0.912310	0.178614	0.185809
	H1426	H	0.667403	0.131662	0.241915
	H1427	H	0.916825	0.194132	0.179405
	H1428	H	0.841550	0.180409	0.241884
	H1429	H	0.591253	0.242894	0.179466
	H1430	H	0.845916	0.195941	0.123183
	H1431	H	0.595606	0.133407	0.185871
	H1432	H	0.845916	0.133428	0.251849
	H1433	H	0.595433	0.195898	0.189248
	H1434	H	0.841377	0.242926	0.133215
	H1435	H	0.591018	0.180413	0.195636
	H1436	H	0.667084	0.194155	0.133130
	H1437	H	0.917143	0.131638	0.195708
	H1438	H	0.663012	0.178647	0.251770
	H1439	H	0.912466	0.241136	0.189374
	O1440	O	0.085399	0.227780	0.261504
	O1441	O	0.335423	0.165264	0.323974
	O1442	O	0.093335	0.146211	0.361422
	O1443	O	0.343331	0.208674	0.298718
	O1444	O	0.415628	0.165895	0.361135
	O1445	O	0.165665	0.228351	0.298778
	O1446	O	0.423698	0.209325	0.261350
	O1447	O	0.173492	0.146783	0.323981
	O1448	O	0.423660	0.146795	0.363594
	O1449	O	0.173416	0.209294	0.300985
	O1450	O	0.415500	0.228371	0.263724
	O1451	O	0.165500	0.165870	0.326226
	O1452	O	0.093737	0.208700	0.263622
	O1453	O	0.343464	0.146156	0.326333
	O1454	O	0.085606	0.165265	0.363537
	O1455	O	0.335674	0.227753	0.301080
	F1456	F	0.004705	0.156041	0.327836
	F1457	F	0.254487	0.218564	0.265266
	F1458	F	0.004690	0.218527	0.297207
	F1459	F	0.254686	0.156023	0.359703
	Al1460	Al	0.129696	0.156032	0.343773
	Al1461	Al	0.379526	0.218534	0.281226
	Al1462	Al	0.129620	0.218528	0.281242
	Al1463	Al	0.379663	0.156017	0.343739
	C1464	C	0.093657	0.244932	0.249055
	C1465	C	0.343816	0.182432	0.311684
	C1466	C	0.096216	0.128684	0.370585
	C1467	C	0.346092	0.191170	0.308091
	C1468	C	0.413236	0.183407	0.370357
	C1469	C	0.162878	0.245893	0.308044
	C1470	C	0.415330	0.192154	0.249129
	C1471	C	0.165076	0.129623	0.311613
	C1472	C	0.415364	0.129630	0.375861
	C1473	C	0.165204	0.192130	0.313477
	C1474	C	0.412619	0.245894	0.254569
	C1475	C	0.162904	0.183398	0.317081
	C1476	C	0.096163	0.191170	0.254510
	C1477	C	0.345978	0.128641	0.317097
	C1478	C	0.093649	0.182454	0.375840
	C1479	C	0.343678	0.244928	0.313513
	C1480	C	0.001954	0.240954	0.253719
	C1481	C	0.252061	0.178434	0.316189
	C1482	C	0.006992	0.133641	0.371422
	C1483	C	0.256858	0.196121	0.308834
	C1484	C	0.002019	0.178451	0.371212
	C1485	C	0.252042	0.240936	0.308849
	C1486	C	0.007013	0.196134	0.253735
	C1487	C	0.256765	0.133600	0.316312
	C1488	C	0.000621	0.231694	0.260000
	C1489	C	0.250701	0.169173	0.322445
	C1490	C	0.008179	0.142904	0.365175
	C1491	C	0.258095	0.205378	0.302520
	C1492	C	0.000926	0.169176	0.365012
	C1493	C	0.250884	0.231662	0.302552
	C1494	C	0.008306	0.205400	0.259927
	C1495	C	0.258183	0.142860	0.322574
	H1496	H	0.162939	0.241153	0.248190
	H1497	H	0.413104	0.178659	0.310932
	H1498	H	0.167379	0.131688	0.367047
	H1499	H	0.417304	0.194170	0.304570
	H1500	H	0.342003	0.180416	0.366747
	H1501	H	0.091654	0.242893	0.304447
	H1502	H	0.346126	0.195941	0.248301
	H1503	H	0.095805	0.133401	0.310762
	H1504	H	0.346075	0.133403	0.376682
	H1505	H	0.095815	0.195897	0.314306
	H1506	H	0.341480	0.242891	0.258248
	H1507	H	0.091797	0.180399	0.320661
	H1508	H	0.167389	0.194165	0.258074
	H1509	H	0.417146	0.131646	0.320705
	H1510	H	0.163048	0.178695	0.376660
	H1511	H	0.413086	0.241164	0.314339
	O1512	O	0.585610	0.227797	0.261592
	O1513	O	0.835072	0.165258	0.323880
	O1514	O	0.593579	0.146170	0.361187
	O1515	O	0.843232	0.208680	0.298717
	O1516	O	0.915608	0.165858	0.361304
	O1517	O	0.665177	0.228395	0.298745
	O1518	O	0.923708	0.209319	0.261467
	O1519	O	0.673285	0.146812	0.323783
	O1520	O	0.923320	0.146808	0.363665
	O1521	O	0.673291	0.209297	0.301052
	O1522	O	0.915261	0.228391	0.263647
	O1523	O	0.665128	0.165886	0.326150
	O1524	O	0.593640	0.208690	0.263712
	O1525	O	0.843251	0.146163	0.326213
	O1526	O	0.585594	0.165234	0.363574
	O1527	O	0.835117	0.227777	0.301125
	F1528	F	0.504290	0.156017	0.327821
	F1529	F	0.754597	0.218555	0.265429
	F1530	F	0.504453	0.218503	0.297168
	F1531	F	0.754689	0.156010	0.359586
	Al1532	Al	0.629486	0.156015	0.343658
	Al1533	Al	0.879678	0.218550	0.281316
	Al1534	Al	0.629454	0.218532	0.281256
	Al1535	Al	0.879741	0.156034	0.343690
	C1536	C	0.593599	0.244925	0.249142
	C1537	C	0.843386	0.182415	0.311445
	C1538	C	0.596245	0.128667	0.370402
	C1539	C	0.845713	0.191154	0.307852
	C1540	C	0.912724	0.183410	0.370461
	C1541	C	0.662479	0.245917	0.307789
	C1542	C	0.915249	0.192145	0.249093
	C1543	C	0.664636	0.129628	0.311630
	C1544	C	0.915307	0.129656	0.376059
	C1545	C	0.664884	0.192151	0.313427
	C1546	C	0.912813	0.245932	0.254653
	C1547	C	0.662542	0.183417	0.317006
	C1548	C	0.596217	0.191168	0.254631
	C1549	C	0.845511	0.128659	0.317100
	C1550	C	0.594107	0.182425	0.375869
	C1551	C	0.843227	0.244927	0.313491
	C1552	C	0.501833	0.240936	0.253684
	C1553	C	0.751680	0.178442	0.316123
	C1554	C	0.507038	0.133615	0.371232
	C1555	C	0.756681	0.196131	0.308836
	C1556	C	0.502408	0.178442	0.371219
	C1557	C	0.751586	0.240942	0.308774
	C1558	C	0.507048	0.196131	0.253782
	C1559	C	0.756337	0.133614	0.316258
	C1560	C	0.500711	0.231683	0.259974
	C1561	C	0.750400	0.169178	0.322375
	C1562	C	0.508345	0.142876	0.364990
	C1563	C	0.758047	0.205390	0.302563
	C1564	C	0.500990	0.169175	0.364952
	C1565	C	0.750397	0.231690	0.302546
	C1566	C	0.508362	0.205396	0.259976
	C1567	C	0.757914	0.142881	0.322413
	H1568	H	0.662948	0.241153	0.248378
	H1569	H	0.912655	0.178642	0.310574
	H1570	H	0.667499	0.131664	0.366838
	H1571	H	0.916877	0.194151	0.304193
	H1572	H	0.841534	0.180401	0.366901
	H1573	H	0.591246	0.242934	0.304098
	H1574	H	0.846008	0.195929	0.248294
	H1575	H	0.595413	0.133409	0.310761
	H1576	H	0.846005	0.133426	0.376960
	H1577	H	0.595561	0.195930	0.314272
	H1578	H	0.841603	0.242936	0.258307
	H1579	H	0.591275	0.180430	0.320599
	H1580	H	0.667383	0.194164	0.258259
	H1581	H	0.916719	0.131664	0.320658
	H1582	H	0.663451	0.178650	0.376656
	H1583	H	0.912607	0.241160	0.314379
	O1584	O	0.085345	0.227765	0.386314
	O1585	O	0.335379	0.165246	0.449003
	O1586	O	0.093411	0.146180	0.486247
	O1587	O	0.343231	0.208703	0.423793
	O1588	O	0.415375	0.165895	0.486199
	O1589	O	0.165490	0.228368	0.423682
	O1590	O	0.423761	0.209302	0.386425
	O1591	O	0.173734	0.146779	0.449040
	O1592	O	0.423871	0.146819	0.488678
	O1593	O	0.173259	0.209250	0.425711
	O1594	O	0.415744	0.228364	0.388712
	O1595	O	0.165471	0.165873	0.451270
	O1596	O	0.093365	0.208725	0.388422
	O1597	O	0.343731	0.146166	0.451321
	O1598	O	0.085517	0.165257	0.488576
	O1599	O	0.335393	0.227763	0.425970
	F1600	F	0.004826	0.156033	0.452746
	F1601	F	0.254600	0.218536	0.390202
	F1602	F	0.004696	0.218529	0.422079
	F1603	F	0.254603	0.156002	0.484704
	Al1604	Al	0.129585	0.156018	0.468806
	Al1605	Al	0.379434	0.218526	0.406199
	Al1606	Al	0.129578	0.218526	0.406094
	Al1607	Al	0.379549	0.156024	0.468804
	C1608	C	0.093636	0.244935	0.373971
	C1609	C	0.343630	0.182402	0.436529
	C1610	C	0.096014	0.128676	0.495611
	C1611	C	0.346094	0.191136	0.432933
	C1612	C	0.412920	0.183436	0.495316
	C1613	C	0.162512	0.245894	0.433009
	C1614	C	0.415663	0.192141	0.374027
	C1615	C	0.165176	0.129650	0.436597
	C1616	C	0.415519	0.129648	0.500843
	C1617	C	0.165183	0.192127	0.438380
	C1618	C	0.413084	0.245911	0.379599
	C1619	C	0.162725	0.183391	0.442006
	C1620	C	0.095990	0.191201	0.379423
	C1621	C	0.346063	0.128647	0.442092
	C1622	C	0.093715	0.182435	0.500856
	C1623	C	0.343390	0.244919	0.438436
	C1624	C	0.001952	0.240944	0.378555
	C1625	C	0.251984	0.178427	0.441202
	C1626	C	0.006841	0.133635	0.496407
	C1627	C	0.256884	0.196106	0.433718
	C1628	C	0.002007	0.178438	0.496241
	C1629	C	0.251738	0.240926	0.433762
	C1630	C	0.006731	0.196151	0.378616
	C1631	C	0.256977	0.133615	0.441255
	C1632	C	0.000661	0.231678	0.384825
	C1633	C	0.250742	0.169165	0.447476
	C1634	C	0.008230	0.142887	0.490072
	C1635	C	0.258091	0.205368	0.427415
	C1636	C	0.000801	0.169162	0.490066
	C1637	C	0.250663	0.231675	0.427449
	C1638	C	0.008138	0.205417	0.384776
	C1639	C	0.258458	0.142868	0.447571
	H1640	H	0.162980	0.241165	0.373130
	H1641	H	0.412921	0.178634	0.435694
	H1642	H	0.167186	0.131670	0.492035
	H1643	H	0.417289	0.194132	0.429363
	H1644	H	0.341654	0.180451	0.491705
	H1645	H	0.091215	0.242906	0.429434
	H1646	H	0.346306	0.195903	0.373228
	H1647	H	0.095916	0.133432	0.435820
	H1648	H	0.346333	0.133427	0.501674
	H1649	H	0.095893	0.195908	0.439214
	H1650	H	0.341856	0.242921	0.383223
	H1651	H	0.091465	0.180387	0.445571
	H1652	H	0.167153	0.194204	0.382985
	H1653	H	0.417286	0.131631	0.445757
	H1654	H	0.163023	0.178660	0.501670
	H1655	H	0.412773	0.241143	0.439283
	O1656	O	0.585688	0.227767	0.386495
	O1657	O	0.835293	0.165260	0.448816
	O1658	O	0.593776	0.146186	0.486204
	O1659	O	0.843206	0.208660	0.423749
	O1660	O	0.915483	0.165846	0.486320
	O1661	O	0.665258	0.228357	0.423837
	O1662	O	0.923340	0.209330	0.386286
	O1663	O	0.673137	0.146784	0.448844
	O1664	O	0.923462	0.146800	0.488555
	O1665	O	0.673299	0.209295	0.426129
	O1666	O	0.915303	0.228376	0.388610
	O1667	O	0.665377	0.165842	0.451058
	O1668	O	0.593687	0.208688	0.388778
	O1669	O	0.843145	0.146167	0.451016
	O1670	O	0.585336	0.165273	0.488394
	O1671	O	0.835223	0.227773	0.426131
	F1672	F	0.504313	0.156033	0.452770
	F1673	F	0.754394	0.218533	0.390408
	F1674	F	0.504350	0.218514	0.422169
	F1675	F	0.754522	0.155997	0.484469
	Al1676	Al	0.629456	0.156019	0.468629
	Al1677	Al	0.879711	0.218543	0.406272
	Al1678	Al	0.629485	0.218520	0.406309
	Al1679	Al	0.879821	0.156027	0.468593
	C1680	C	0.593856	0.244930	0.374040
	C1681	C	0.843362	0.182407	0.436398
	C1682	C	0.596381	0.128659	0.495401
	C1683	C	0.845781	0.191140	0.432875
	C1684	C	0.912842	0.183407	0.495375
	C1685	C	0.662501	0.245910	0.432800
	C1686	C	0.915045	0.192152	0.374044
	C1687	C	0.664811	0.129632	0.436526
	C1688	C	0.915092	0.129647	0.500966
	C1689	C	0.664909	0.192128	0.438389
	C1690	C	0.912865	0.245923	0.379550
	C1691	C	0.662488	0.183387	0.441908
	C1692	C	0.596454	0.191161	0.379541
	C1693	C	0.845800	0.128654	0.442023
	C1694	C	0.593755	0.182437	0.500838
	C1695	C	0.843307	0.244905	0.438493
	C1696	C	0.502213	0.240943	0.378717
	C1697	C	0.751683	0.178428	0.441086
	C1698	C	0.507294	0.133628	0.496268
	C1699	C	0.756643	0.196106	0.433791
	C1700	C	0.502039	0.178461	0.496130
	C1701	C	0.751591	0.240930	0.433782
	C1702	C	0.507327	0.196128	0.378688
	C1703	C	0.756531	0.133608	0.441149
	C1704	C	0.500941	0.231672	0.384953
	C1705	C	0.750510	0.169164	0.447346
	C1706	C	0.508573	0.142894	0.490052
	C1707	C	0.757936	0.205368	0.427544
	C1708	C	0.500653	0.169197	0.489874
	C1709	C	0.750401	0.231671	0.427581
	C1710	C	0.508484	0.205385	0.385003
	C1711	C	0.757813	0.142871	0.447338
	H1712	H	0.663220	0.241161	0.373172
	H1713	H	0.912665	0.178629	0.435486
	H1714	H	0.667637	0.131650	0.491813
	H1715	H	0.916935	0.194132	0.429273
	H1716	H	0.841569	0.180416	0.491768
	H1717	H	0.591228	0.242918	0.429159
	H1718	H	0.845716	0.195920	0.373224
	H1719	H	0.595559	0.133412	0.435687
	H1720	H	0.845745	0.133415	0.501725
	H1721	H	0.595736	0.195906	0.439230
	H1722	H	0.841629	0.242935	0.383218
	H1723	H	0.591289	0.180378	0.445472
	H1724	H	0.667661	0.194150	0.383187
	H1725	H	0.916879	0.131670	0.445614
	H1726	H	0.663060	0.178660	0.501683
	H1727	H	0.912613	0.241125	0.439424
	O1728	O	0.085263	0.227750	0.511297
	O1729	O	0.335592	0.165246	0.573986
	O1730	O	0.093554	0.146203	0.611338
	O1731	O	0.343577	0.208660	0.548596
	O1732	O	0.415577	0.165882	0.611351
	O1733	O	0.165675	0.228386	0.548649
	O1734	O	0.423794	0.209319	0.511337
	O1735	O	0.173713	0.146803	0.573931
	O1736	O	0.423625	0.146804	0.613705
	O1737	O	0.173646	0.209289	0.550913
	O1738	O	0.415491	0.228393	0.513772
	O1739	O	0.165644	0.165872	0.576253
	O1740	O	0.093511	0.208712	0.513566
	O1741	O	0.343605	0.146152	0.576490
	O1742	O	0.085487	0.165293	0.613470
	O1743	O	0.335678	0.227767	0.551011
	F1744	F	0.004768	0.156024	0.577772
	F1745	F	0.254561	0.218557	0.515192
	F1746	F	0.004696	0.218529	0.547189
	F1747	F	0.254450	0.156052	0.609775
	Al1748	Al	0.129592	0.156031	0.593762
	Al1749	Al	0.379482	0.218531	0.531200
	Al1750	Al	0.129641	0.218541	0.531156
	Al1751	Al	0.379450	0.156023	0.593864
	C1752	C	0.093234	0.244923	0.499021
	C1753	C	0.343935	0.182417	0.561638
	C1754	C	0.096101	0.128675	0.620474
	C1755	C	0.346203	0.191144	0.557953
	C1756	C	0.412994	0.183394	0.620452
	C1757	C	0.163091	0.245910	0.557871
	C1758	C	0.415435	0.192175	0.498981
	C1759	C	0.165320	0.129644	0.561555
	C1760	C	0.415294	0.129632	0.625894
	C1761	C	0.165328	0.192132	0.563321
	C1762	C	0.412953	0.245897	0.504513
	C1763	C	0.163081	0.183393	0.567025
	C1764	C	0.096173	0.191175	0.504469
	C1765	C	0.346157	0.128658	0.567044
	C1766	C	0.093526	0.182433	0.625908
	C1767	C	0.343919	0.244934	0.563345
	C1768	C	0.001614	0.240931	0.503672
	C1769	C	0.252244	0.178427	0.566181
	C1770	C	0.006979	0.133640	0.621339
	C1771	C	0.257029	0.196114	0.558728
	C1772	C	0.001757	0.178460	0.621224
	C1773	C	0.252234	0.240950	0.558720
	C1774	C	0.007007	0.196141	0.503594
	C1775	C	0.257010	0.133623	0.566218
	C1776	C	0.000540	0.231669	0.509920
	C1777	C	0.250927	0.169165	0.572474
	C1778	C	0.008323	0.142901	0.615053
	C1779	C	0.258331	0.205370	0.552405
	C1780	C	0.000726	0.169187	0.615033
	C1781	C	0.250940	0.231681	0.552480
	C1782	C	0.008332	0.205411	0.509821
	C1783	C	0.258373	0.142876	0.572536
	H1784	H	0.162579	0.241155	0.498167
	H1785	H	0.413464	0.178659	0.560906
	H1786	H	0.167304	0.131673	0.616873
	H1787	H	0.417539	0.194126	0.554359
	H1788	H	0.341760	0.180405	0.616827
	H1789	H	0.091867	0.242910	0.554272
	H1790	H	0.346215	0.195950	0.498189
	H1791	H	0.096022	0.133422	0.560772
	H1792	H	0.346126	0.133417	0.626740
	H1793	H	0.096124	0.195902	0.564068
	H1794	H	0.341656	0.242911	0.508107
	H1795	H	0.091958	0.180386	0.570660
	H1796	H	0.167393	0.194175	0.508046
	H1797	H	0.417364	0.131657	0.570674
	H1798	H	0.162859	0.178654	0.626789
	H1799	H	0.413248	0.241157	0.564127
	O1800	O	0.585481	0.227739	0.511370
	O1801	O	0.835006	0.165251	0.573788
	O1802	O	0.593625	0.146175	0.611333
	O1803	O	0.843357	0.208636	0.548782
	O1804	O	0.915358	0.165874	0.611246
	O1805	O	0.665138	0.228379	0.548789
	O1806	O	0.923503	0.209316	0.511395
	O1807	O	0.673118	0.146804	0.573887
	O1808	O	0.923649	0.146830	0.613625
	O1809	O	0.673400	0.209308	0.551160
	O1810	O	0.915268	0.228364	0.513782
	O1811	O	0.665101	0.165860	0.576196
	O1812	O	0.593787	0.208689	0.513721
	O1813	O	0.843184	0.146151	0.576194
	O1814	O	0.585502	0.165248	0.613658
	O1815	O	0.835083	0.227760	0.551187
	F1816	F	0.504279	0.156014	0.577952
	F1817	F	0.754733	0.218536	0.515428
	F1818	F	0.504424	0.218523	0.547123
	F1819	F	0.754600	0.156022	0.609589
	Al1820	Al	0.629409	0.156021	0.593787
	Al1821	Al	0.879715	0.218527	0.531364
	Al1822	Al	0.629586	0.218532	0.531291
	Al1823	Al	0.879787	0.156028	0.593631
	C1824	C	0.593828	0.244911	0.498994
	C1825	C	0.843153	0.182415	0.561436
	C1826	C	0.596142	0.128655	0.620387
	C1827	C	0.845493	0.191143	0.557831
	C1828	C	0.912560	0.183432	0.620377
	C1829	C	0.662461	0.245900	0.557949
	C1830	C	0.915294	0.192150	0.499009
	C1831	C	0.664712	0.129636	0.561650
	C1832	C	0.915277	0.129656	0.626038
	C1833	C	0.664661	0.192134	0.563345
	C1834	C	0.912385	0.245898	0.504537
	C1835	C	0.662363	0.183395	0.566956
	C1836	C	0.596277	0.191174	0.504532
	C1837	C	0.845633	0.128664	0.567057
	C1838	C	0.593856	0.182412	0.625970
	C1839	C	0.843205	0.244910	0.563503
	C1840	C	0.502137	0.240929	0.503652
	C1841	C	0.751455	0.178426	0.566060
	C1842	C	0.506997	0.133615	0.621291
	C1843	C	0.756443	0.196112	0.558777
	C1844	C	0.502141	0.178421	0.621390
	C1845	C	0.751565	0.240927	0.558872
	C1846	C	0.507186	0.196146	0.503614
	C1847	C	0.756403	0.133619	0.566256
	C1848	C	0.500826	0.231670	0.509938
	C1849	C	0.750249	0.169163	0.572355
	C1850	C	0.508339	0.142883	0.615112
	C1851	C	0.757965	0.205371	0.552588
	C1852	C	0.500857	0.169170	0.615123
	C1853	C	0.750371	0.231670	0.552621
	C1854	C	0.508517	0.205404	0.509903
	C1855	C	0.757784	0.142879	0.572440
	H1856	H	0.663142	0.241136	0.498180
	H1857	H	0.912470	0.178650	0.560615
	H1858	H	0.667311	0.131652	0.616745
	H1859	H	0.916657	0.194123	0.554192
	H1860	H	0.841249	0.180444	0.616752
	H1861	H	0.591311	0.242903	0.554292
	H1862	H	0.846038	0.195920	0.498209
	H1863	H	0.595398	0.133409	0.560825
	H1864	H	0.845961	0.133430	0.626845
	H1865	H	0.595431	0.195922	0.564148
	H1866	H	0.841182	0.242903	0.508165
	H1867	H	0.591137	0.180388	0.570583
	H1868	H	0.667471	0.194153	0.508191
	H1869	H	0.916865	0.131666	0.570601
	H1870	H	0.663248	0.178639	0.626776
	H1871	H	0.912547	0.241135	0.564339
	O1872	O	0.085610	0.227787	0.636526
	O1873	O	0.335483	0.165241	0.698923
	O1874	O	0.093708	0.146172	0.736207
	O1875	O	0.343495	0.208661	0.673605
	O1876	O	0.415691	0.165863	0.736264
	O1877	O	0.165815	0.228352	0.673837
	O1878	O	0.423806	0.209303	0.636410
	O1879	O	0.173786	0.146824	0.698808
	O1880	O	0.423543	0.146821	0.738729
	O1881	O	0.173601	0.209288	0.675969
	O1882	O	0.415715	0.228378	0.638708
	O1883	O	0.165591	0.165872	0.701235
	O1884	O	0.093565	0.208713	0.638626
	O1885	O	0.343714	0.146154	0.701306
	O1886	O	0.085766	0.165270	0.738508
	O1887	O	0.335758	0.227736	0.676125
	F1888	F	0.004609	0.156017	0.702786
	F1889	F	0.254422	0.218537	0.640336
	F1890	F	0.004743	0.218533	0.672261
	F1891	F	0.254505	0.156023	0.734651
	Al1892	Al	0.129664	0.156026	0.718708
	Al1893	Al	0.379538	0.218535	0.656200
	Al1894	Al	0.129602	0.218533	0.656240
	Al1895	Al	0.379480	0.156017	0.718796
	C1896	C	0.093681	0.244947	0.624135
	C1897	C	0.343685	0.182413	0.686559
	C1898	C	0.096086	0.128674	0.745551
	C1899	C	0.345970	0.191149	0.682904
	C1900	C	0.412937	0.183398	0.745456
	C1901	C	0.163119	0.245892	0.682985
	C1902	C	0.415440	0.192141	0.624041
	C1903	C	0.165039	0.129641	0.686671
	C1904	C	0.415057	0.129638	0.750907
	C1905	C	0.165132	0.192126	0.688443
	C1906	C	0.413207	0.245902	0.629595
	C1907	C	0.162822	0.183395	0.692088
	C1908	C	0.096061	0.191172	0.629547
	C1909	C	0.345993	0.128655	0.692112
	C1910	C	0.093659	0.182447	0.750886
	C1911	C	0.343925	0.244923	0.688445
	C1912	C	0.002056	0.240955	0.628712
	C1913	C	0.252095	0.178432	0.691269
	C1914	C	0.007000	0.133646	0.746419
	C1915	C	0.256808	0.196114	0.683798
	C1916	C	0.002068	0.178441	0.746271
	C1917	C	0.252281	0.240925	0.683823
	C1918	C	0.006934	0.196144	0.628685
	C1919	C	0.256827	0.133613	0.691280
	C1920	C	0.000921	0.231698	0.635056
	C1921	C	0.250862	0.169168	0.697490
	C1922	C	0.008448	0.142909	0.740134
	C1923	C	0.258239	0.205367	0.677447
	C1924	C	0.001102	0.169170	0.740045
	C1925	C	0.251056	0.231656	0.677592
	C1926	C	0.008383	0.205405	0.634893
	C1927	C	0.258367	0.142885	0.697440
	H1928	H	0.163140	0.241188	0.623372
	H1929	H	0.412970	0.178646	0.685656
	H1930	H	0.167342	0.131663	0.741928
	H1931	H	0.417096	0.194142	0.679185
	H1932	H	0.341766	0.180403	0.741804
	H1933	H	0.091864	0.242894	0.679425
	H1934	H	0.346241	0.195921	0.623193
	H1935	H	0.095838	0.133427	0.685818
	H1936	H	0.345774	0.133413	0.751669
	H1937	H	0.095794	0.195898	0.689230
	H1938	H	0.342018	0.242905	0.633225
	H1939	H	0.091666	0.180395	0.695707
	H1940	H	0.167381	0.194157	0.633173
	H1941	H	0.417272	0.131651	0.695683
	H1942	H	0.163127	0.178688	0.751710
	H1943	H	0.413301	0.241154	0.689238
	O1944	O	0.585675	0.227729	0.636220
	O1945	O	0.835206	0.165277	0.698919
	O1946	O	0.593479	0.146178	0.736364
	O1947	O	0.842920	0.208658	0.673865
	O1948	O	0.915775	0.165845	0.736347
	O1949	O	0.665144	0.228402	0.673557
	O1950	O	0.923593	0.209311	0.636534
	O1951	O	0.673279	0.146807	0.698929
	O1952	O	0.923782	0.146838	0.738734
	O1953	O	0.673014	0.209311	0.676096
	O1954	O	0.915569	0.228383	0.638863
	O1955	O	0.665291	0.165862	0.701215
	O1956	O	0.593774	0.208689	0.638660
	O1957	O	0.843173	0.146140	0.701313
	O1958	O	0.585602	0.165263	0.738602
	O1959	O	0.835018	0.227738	0.676349
	F1960	F	0.504482	0.156011	0.702881
	F1961	F	0.754734	0.218535	0.640426
	F1962	F	0.504554	0.218529	0.672129
	F1963	F	0.754595	0.156034	0.734612
	Al1964	Al	0.629492	0.156024	0.718790
	Al1965	Al	0.879780	0.218543	0.656442
	Al1966	Al	0.629518	0.218532	0.656156
	Al1967	Al	0.879793	0.156035	0.718715
	C1968	C	0.594030	0.244922	0.624004
	C1969	C	0.843179	0.182423	0.686488
	C1970	C	0.595983	0.128669	0.745503
	C1971	C	0.845385	0.191161	0.682899
	C1972	C	0.912812	0.183407	0.745334
	C1973	C	0.662444	0.245897	0.682907
	C1974	C	0.915134	0.192173	0.624009
	C1975	C	0.664629	0.129628	0.686549
	C1976	C	0.915244	0.129665	0.750989
	C1977	C	0.664442	0.192131	0.688487
	C1978	C	0.912863	0.245923	0.629577
	C1979	C	0.662252	0.183399	0.692088
	C1980	C	0.596306	0.191158	0.629559
	C1981	C	0.845537	0.128659	0.692044
	C1982	C	0.593700	0.182429	0.751115
	C1983	C	0.843266	0.244903	0.688574
	C1984	C	0.502349	0.240937	0.628701
	C1985	C	0.751603	0.178441	0.691209
	C1986	C	0.506769	0.133623	0.746324
	C1987	C	0.756061	0.196114	0.683808
	C1988	C	0.502064	0.178432	0.746386
	C1989	C	0.751609	0.240933	0.683811
	C1990	C	0.507153	0.196123	0.628697
	C1991	C	0.756354	0.133615	0.691145
	C1992	C	0.501028	0.231663	0.634872
	C1993	C	0.750447	0.169179	0.697460
	C1994	C	0.508161	0.142891	0.740134
	C1995	C	0.757527	0.205375	0.677586
	C1996	C	0.500861	0.169172	0.740066
	C1997	C	0.750378	0.231675	0.677549
	C1998	C	0.508510	0.205385	0.634966
	C1999	C	0.757824	0.142872	0.697441
	H2000	H	0.663282	0.241139	0.623084
	H2001	H	0.912577	0.178663	0.685564
	H2002	H	0.667245	0.131662	0.741938
	H2003	H	0.916534	0.194158	0.679256
	H2004	H	0.841665	0.180402	0.741701
	H2005	H	0.591213	0.242904	0.679244
	H2006	H	0.845913	0.195957	0.623148
	H2007	H	0.595342	0.133406	0.685723
	H2008	H	0.845961	0.133442	0.751739
	H2009	H	0.595103	0.195902	0.689368
	H2010	H	0.841624	0.242932	0.633226
	H2011	H	0.591202	0.180382	0.695713
	H2012	H	0.667549	0.194157	0.633163
	H2013	H	0.916772	0.131653	0.695669
	H2014	H	0.663065	0.178661	0.751983
	H2015	H	0.912543	0.241123	0.689468
	O2016	O	0.085667	0.227789	0.761569
	O2017	O	0.335487	0.165269	0.823995
	O2018	O	0.093334	0.146200	0.861349
	O2019	O	0.343488	0.208703	0.798887
	O2020	O	0.415217	0.165877	0.861242
	O2021	O	0.165603	0.228374	0.798931
	O2022	O	0.423557	0.209311	0.761489
	O2023	O	0.173914	0.146796	0.824030
	O2024	O	0.423554	0.146816	0.863567
	O2025	O	0.173409	0.209283	0.800955
	O2026	O	0.415458	0.228397	0.763813
	O2027	O	0.165525	0.165864	0.826168
	O2028	O	0.093464	0.208691	0.763717
	O2029	O	0.343905	0.146175	0.826274
	O2030	O	0.085437	0.165289	0.863467
	O2031	O	0.335496	0.227759	0.801192
	F2032	F	0.004622	0.156010	0.827834
	F2033	F	0.254489	0.218544	0.765420
	F2034	F	0.004669	0.218548	0.797225
	F2035	F	0.254377	0.156032	0.859690
	Al2036	Al	0.129513	0.156025	0.843739
	Al2037	Al	0.379502	0.218533	0.781299
	Al2038	Al	0.129581	0.218537	0.781275
	Al2039	Al	0.379441	0.156026	0.843757
	C2040	C	0.093955	0.244942	0.749118
	C2041	C	0.343664	0.182427	0.811559
	C2042	C	0.095713	0.128669	0.870498
	C2043	C	0.346025	0.191163	0.807918
	C2044	C	0.412789	0.183419	0.870312
	C2045	C	0.162892	0.245886	0.808037
	C2046	C	0.415245	0.192141	0.749044
	C2047	C	0.165484	0.129632	0.811714
	C2048	C	0.415313	0.129637	0.875922
	C2049	C	0.165200	0.192146	0.813426
	C2050	C	0.412743	0.245929	0.754669
	C2051	C	0.162842	0.183413	0.817061
	C2052	C	0.095915	0.191192	0.754494
	C2053	C	0.346349	0.128643	0.817126
	C2054	C	0.093522	0.182460	0.875872
	C2055	C	0.343683	0.244921	0.813561
	C2056	C	0.002214	0.240953	0.753724
	C2057	C	0.251982	0.178443	0.816230
	C2058	C	0.006635	0.133638	0.871337
	C2059	C	0.256941	0.196132	0.808830
	C2060	C	0.001873	0.178458	0.871273
	C2061	C	0.252016	0.240912	0.808956
	C2062	C	0.006716	0.196145	0.753628
	C2063	C	0.257240	0.133614	0.816312
	C2064	C	0.000987	0.231684	0.759962
	C2065	C	0.250741	0.169176	0.822468
	C2066	C	0.008076	0.142897	0.865094
	C2067	C	0.258252	0.205391	0.802576
	C2068	C	0.000670	0.169186	0.865041
	C2069	C	0.250800	0.231668	0.802703
	C2070	C	0.008274	0.205404	0.759904
	C2071	C	0.258658	0.142881	0.822526
	H2072	H	0.163261	0.241166	0.748266
	H2073	H	0.412894	0.178649	0.810721
	H2074	H	0.166968	0.131658	0.866922
	H2075	H	0.417103	0.194164	0.804268
	H2076	H	0.341594	0.180432	0.866630
	H2077	H	0.091673	0.242896	0.804376
	H2078	H	0.345957	0.195916	0.748162
	H2079	H	0.096138	0.133406	0.810876
	H2080	H	0.346037	0.133406	0.876742
	H2081	H	0.095844	0.195910	0.814232
	H2082	H	0.341459	0.242941	0.758265
	H2083	H	0.091609	0.180435	0.820656
	H2084	H	0.167106	0.194194	0.758105
	H2085	H	0.417706	0.131630	0.820684
	H2086	H	0.162947	0.178697	0.876733
	H2087	H	0.412987	0.241147	0.814388
	O2088	O	0.585357	0.227774	0.761459
	O2089	O	0.835390	0.165286	0.823950
	O2090	O	0.593477	0.146178	0.861273
	O2091	O	0.843286	0.208689	0.798799
	O2092	O	0.915332	0.165872	0.861323
	O2093	O	0.665303	0.228398	0.798688
	O2094	O	0.923517	0.209328	0.761391
	O2095	O	0.673516	0.146810	0.823908
	O2096	O	0.923395	0.146822	0.863687
	O2097	O	0.673273	0.209281	0.800923
	O2098	O	0.915553	0.228373	0.763632
	O2099	O	0.665380	0.165884	0.826244
	O2100	O	0.593553	0.208699	0.763646
	O2101	O	0.843499	0.146167	0.826234
	O2102	O	0.585159	0.165248	0.863573
	O2103	O	0.835177	0.227761	0.801187
	F2104	F	0.504462	0.156022	0.827846
	F2105	F	0.754655	0.218547	0.765361
	F2106	F	0.504589	0.218517	0.797196
	F2107	F	0.754561	0.156038	0.859622
	Al2108	Al	0.629511	0.156036	0.843770
	Al2109	Al	0.879789	0.218546	0.781352
	Al2110	Al	0.629552	0.218537	0.781233
	Al2111	Al	0.879746	0.156040	0.843704
	C2112	C	0.593617	0.244938	0.749116
	C2113	C	0.843589	0.182419	0.811560
	C2114	C	0.596023	0.128654	0.870455
	C2115	C	0.845934	0.191154	0.807892
	C2116	C	0.912601	0.183419	0.870456
	C2117	C	0.662765	0.245924	0.807796
	C2118	C	0.915071	0.192149	0.748941
	C2119	C	0.665065	0.129645	0.811637
	C2120	C	0.914860	0.129651	0.875921
	C2121	C	0.665078	0.192141	0.813390
	C2122	C	0.913145	0.245930	0.754660
	C2123	C	0.662750	0.183411	0.817069
	C2124	C	0.596050	0.191171	0.754701
	C2125	C	0.845924	0.128665	0.817075
	C2126	C	0.593539	0.182428	0.875885
	C2127	C	0.843538	0.244923	0.813486
	C2128	C	0.501886	0.240950	0.753804
	C2129	C	0.751825	0.178439	0.816152
	C2130	C	0.506935	0.133620	0.871256
	C2131	C	0.756777	0.196122	0.808728
	C2132	C	0.501849	0.178441	0.871250
	C2133	C	0.751828	0.240940	0.808790
	C2134	C	0.506857	0.196132	0.753763
	C2135	C	0.756797	0.133633	0.816192
	C2136	C	0.500667	0.231691	0.760003
	C2137	C	0.750574	0.169182	0.822419
	C2138	C	0.508188	0.142887	0.865019
	C2139	C	0.758036	0.205382	0.802489
	C2140	C	0.500489	0.169173	0.865011
	C2141	C	0.750504	0.231682	0.802569
	C2142	C	0.508245	0.205395	0.759989
	C2143	C	0.758165	0.142888	0.822437
	H2144	H	0.662947	0.241164	0.748226
	H2145	H	0.912853	0.178638	0.810765
	H2146	H	0.667303	0.131623	0.866851
	H2147	H	0.917120	0.194158	0.804271
	H2148	H	0.841405	0.180416	0.866892
	H2149	H	0.591531	0.242939	0.804096
	H2150	H	0.845757	0.195919	0.748089
	H2151	H	0.595746	0.133417	0.810809
	H2152	H	0.845540	0.133415	0.876711
	H2153	H	0.595720	0.195904	0.814256
	H2154	H	0.841868	0.242945	0.758328
	H2155	H	0.591521	0.180437	0.820724
	H2156	H	0.667252	0.194174	0.758312
	H2157	H	0.917172	0.131654	0.820674
	H2158	H	0.662902	0.178659	0.876704
	H2159	H	0.912878	0.241146	0.814375
	O2160	O	0.085397	0.227768	0.886308
	O2161	O	0.335202	0.165251	0.948825
	O2162	O	0.093468	0.146206	0.986419
	O2163	O	0.343446	0.208708	0.923773
	O2164	O	0.415352	0.165898	0.986089
	O2165	O	0.165696	0.228388	0.923697
	O2166	O	0.423545	0.209310	0.886444
	O2167	O	0.173513	0.146807	0.948990
	O2168	O	0.423710	0.146794	0.988431
	O2169	O	0.173430	0.209301	0.925905
	O2170	O	0.415754	0.228370	0.888602
	O2171	O	0.165333	0.165899	0.951367
	O2172	O	0.093169	0.208728	0.888571
	O2173	O	0.343430	0.146172	0.951293
	O2174	O	0.085448	0.165267	0.988616
	O2175	O	0.335587	0.227796	0.925956
	F2176	F	0.004658	0.156030	0.952869
	F2177	F	0.254616	0.218547	0.890236
	F2178	F	0.004788	0.218545	0.922141
	F2179	F	0.254485	0.156044	0.984696
	Al2180	Al	0.129405	0.156040	0.968831
	Al2181	Al	0.379607	0.218548	0.906234
	Al2182	Al	0.129535	0.218539	0.906163
	Al2183	Al	0.379476	0.156035	0.968673
	C2184	C	0.093534	0.244942	0.874023
	C2185	C	0.343756	0.182444	0.936611
	C2186	C	0.096039	0.128674	0.995572
	C2187	C	0.346099	0.191179	0.932979
	C2188	C	0.412982	0.183407	0.995368
	C2189	C	0.162760	0.245924	0.932933
	C2190	C	0.415229	0.192160	0.873956
	C2191	C	0.165109	0.129632	0.936659
	C2192	C	0.415271	0.129640	1.000786
	C2193	C	0.165256	0.192149	0.938370
	C2194	C	0.413098	0.245907	0.879659
	C2195	C	0.162928	0.183414	0.942018
	C2196	C	0.095843	0.191204	0.879442
	C2197	C	0.345942	0.128661	0.942036
	C2198	C	0.093600	0.182448	1.000800
	C2199	C	0.343580	0.244934	0.938423
	C2200	C	0.001919	0.240945	0.878654
	C2201	C	0.252074	0.178452	0.941207
	C2202	C	0.006914	0.133641	0.996373
	C2203	C	0.256922	0.196138	0.933763
	C2204	C	0.001913	0.178459	0.996209
	C2205	C	0.251921	0.240940	0.933781
	C2206	C	0.006605	0.196159	0.878617
	C2207	C	0.256796	0.133623	0.941266
	C2208	C	0.000736	0.231676	0.884882
	C2209	C	0.250575	0.169185	0.947458
	C2210	C	0.008206	0.142897	0.990124
	C2211	C	0.258194	0.205400	0.927484
	C2212	C	0.000684	0.169184	0.990072
	C2213	C	0.250855	0.231695	0.927464
	C2214	C	0.007933	0.205432	0.884820
	C2215	C	0.258186	0.142882	0.947528
	H2216	H	0.162963	0.241175	0.873142
	H2217	H	0.413059	0.178684	0.935810
	H2218	H	0.167232	0.131674	0.991998
	H2219	H	0.417262	0.194169	0.929413
	H2220	H	0.341803	0.180424	0.991753
	H2221	H	0.091430	0.242938	0.929288
	H2222	H	0.345992	0.195938	0.873085
	H2223	H	0.095790	0.133402	0.935842
	H2224	H	0.346012	0.133419	1.001575
	H2225	H	0.095913	0.195926	0.939149
	H2226	H	0.341882	0.242916	0.883270
	H2227	H	0.091760	0.180412	0.945621
	H2228	H	0.167052	0.194201	0.883004
	H2229	H	0.417244	0.131650	0.945593
	H2230	H	0.162898	0.178680	1.001612
	H2231	H	0.413066	0.241172	0.939206
	O2232	O	0.585681	0.227795	0.886575
	O2233	O	0.835142	0.165262	0.948833
	O2234	O	0.593686	0.146171	0.986130
	O2235	O	0.843335	0.208679	0.923801
	O2236	O	0.915359	0.165879	0.986304
	O2237	O	0.665336	0.228370	0.923907
	O2238	O	0.923249	0.209346	0.886330
	O2239	O	0.673535	0.146813	0.948846
	O2240	O	0.923508	0.146828	0.988676
	O2241	O	0.673388	0.209311	0.926109
	O2242	O	0.915452	0.228388	0.888670
	O2243	O	0.665169	0.165882	0.951193
	O2244	O	0.593468	0.208681	0.888842
	O2245	O	0.843464	0.146163	0.951236
	O2246	O	0.585259	0.165248	0.988572
	O2247	O	0.835351	0.227777	0.926136
	F2248	F	0.504305	0.156017	0.952770
	F2249	F	0.754555	0.218539	0.890481
	F2250	F	0.504304	0.218543	0.922190
	F2251	F	0.754429	0.156037	0.984572
	Al2252	Al	0.629322	0.156012	0.968671
	Al2253	Al	0.879650	0.218546	0.906334
	Al2254	Al	0.629438	0.218534	0.906374
	Al2255	Al	0.879636	0.156031	0.968682
	C2256	C	0.593899	0.244937	0.874086
	C2257	C	0.843324	0.182418	0.936447
	C2258	C	0.596204	0.128652	0.995361
	C2259	C	0.845717	0.191151	0.932821
	C2260	C	0.912627	0.183424	0.995421
	C2261	C	0.662790	0.245910	0.932867
	C2262	C	0.914921	0.192159	0.874014
	C2263	C	0.665133	0.129631	0.936568
	C2264	C	0.915180	0.129656	1.000985
	C2265	C	0.664973	0.192137	0.938329
	C2266	C	0.912742	0.245918	0.879619
	C2267	C	0.662564	0.183402	0.941967
	C2268	C	0.595955	0.191168	0.879535
	C2269	C	0.845911	0.128647	0.942050
	C2270	C	0.593692	0.182420	1.000851
	C2271	C	0.843508	0.244924	0.938507
	C2272	C	0.502228	0.240930	0.878730
	C2273	C	0.751712	0.178431	0.941047
	C2274	C	0.507032	0.133615	0.996127
	C2275	C	0.756606	0.196123	0.933746
	C2276	C	0.502017	0.178435	0.996259
	C2277	C	0.751785	0.240935	0.933846
	C2278	C	0.506899	0.196138	0.878649
	C2279	C	0.756794	0.133617	0.941179
	C2280	C	0.500926	0.231685	0.884936
	C2281	C	0.750431	0.169171	0.947334
	C2282	C	0.508425	0.142877	0.989906
	C2283	C	0.758031	0.205391	0.927561
	C2284	C	0.500635	0.169176	0.989972
	C2285	C	0.750529	0.231674	0.927639
	C2286	C	0.508237	0.205391	0.885000
	C2287	C	0.758136	0.142882	0.947414
	H2288	H	0.663298	0.241175	0.873188
	H2289	H	0.912670	0.178656	0.935641
	H2290	H	0.667432	0.131651	0.991789
	H2291	H	0.916916	0.194144	0.929191
	H2292	H	0.841400	0.180422	0.991894
	H2293	H	0.591468	0.242933	0.929213
	H2294	H	0.845622	0.195931	0.873165
	H2295	H	0.595847	0.133406	0.935731
	H2296	H	0.845883	0.133427	1.001818
	H2297	H	0.595677	0.195910	0.939172
	H2298	H	0.841528	0.242922	0.883270
	H2299	H	0.591447	0.180402	0.945623
	H2300	H	0.667154	0.194157	0.883175
	H2301	H	0.917145	0.131640	0.945626
	H2302	H	0.662973	0.178642	1.001625
	H2303	H	0.912785	0.241148	0.939373
	O2304	O	0.085345	0.352740	0.011384
	O2305	O	0.335362	0.290253	0.073875
	O2306	O	0.093657	0.271172	0.111151
	O2307	O	0.343610	0.333661	0.048695
	O2308	O	0.415302	0.290883	0.111280
	O2309	O	0.165405	0.353381	0.048675
	O2310	O	0.423828	0.334319	0.011302
	O2311	O	0.173681	0.271812	0.073899
	O2312	O	0.423718	0.271821	0.113683
	O2313	O	0.173672	0.334312	0.051082
	O2314	O	0.415651	0.353376	0.013839
	O2315	O	0.165388	0.290887	0.076201
	O2316	O	0.093712	0.333680	0.013728
	O2317	O	0.343623	0.271172	0.076371
	O2318	O	0.085362	0.290274	0.113480
	O2319	O	0.335342	0.352746	0.051079
	F2320	F	0.004680	0.281025	0.077686
	F2321	F	0.254662	0.343525	0.015293
	F2322	F	0.004626	0.343523	0.047189
	F2323	F	0.254357	0.281045	0.109664
	Al2324	Al	0.129467	0.281031	0.093711
	Al2325	Al	0.379557	0.343513	0.031247
	Al2326	Al	0.129691	0.343523	0.031204
	Al2327	Al	0.379417	0.281037	0.093792
	C2328	C	0.093589	0.369928	-0.000929
	C2329	C	0.343713	0.307408	0.061468
	C2330	C	0.095934	0.253673	0.120532
	C2331	C	0.346110	0.316143	0.057845
	C2332	C	0.412709	0.308405	0.120468
	C2333	C	0.162880	0.370894	0.057899
	C2334	C	0.415322	0.317147	-0.000963
	C2335	C	0.165268	0.254652	0.061691
	C2336	C	0.415255	0.254633	0.125907
	C2337	C	0.165233	0.317141	0.063363
	C2338	C	0.413033	0.370881	0.004528
	C2339	C	0.162839	0.308405	0.066996
	C2340	C	0.095984	0.316184	0.004580
	C2341	C	0.346159	0.253674	0.067052
	C2342	C	0.093871	0.307420	0.125942
	C2343	C	0.343645	0.369909	0.063508
	C2344	C	0.001954	0.365932	0.003723
	C2345	C	0.251987	0.303436	0.066157
	C2346	C	0.006833	0.258645	0.121370
	C2347	C	0.256971	0.321117	0.058721
	C2348	C	0.002097	0.303449	0.121272
	C2349	C	0.252009	0.365919	0.058827
	C2350	C	0.006858	0.321151	0.003658
	C2351	C	0.257022	0.258633	0.066236
	C2352	C	0.000702	0.356670	0.009971
	C2353	C	0.250673	0.294173	0.072398
	C2354	C	0.008395	0.267903	0.115049
	C2355	C	0.258309	0.330379	0.052505
	C2356	C	0.000724	0.294187	0.114993
	C2357	C	0.250688	0.356665	0.052550
	C2358	C	0.008367	0.330415	0.009818
	C2359	C	0.258334	0.267887	0.072529
	H2360	H	0.162941	0.366157	-0.001798
	H2361	H	0.412958	0.303626	0.060592
	H2362	H	0.167220	0.256657	0.116955
	H2363	H	0.417333	0.319129	0.054216
	H2364	H	0.341446	0.305410	0.116895
	H2365	H	0.091605	0.367912	0.054244
	H2366	H	0.345985	0.320918	-0.001775
	H2367	H	0.095960	0.258427	0.060937
	H2368	H	0.345939	0.258394	0.126740
	H2369	H	0.095925	0.320916	0.064194
	H2370	H	0.341830	0.367890	0.008186
	H2371	H	0.091629	0.305415	0.070627
	H2372	H	0.167269	0.319174	0.008203
	H2373	H	0.417412	0.256666	0.070629
	H2374	H	0.163165	0.303643	0.126789
	H2375	H	0.413042	0.366146	0.064357
	O2376	O	0.585547	0.352743	0.011485
	O2377	O	0.834872	0.290251	0.073766
	O2378	O	0.593680	0.271167	0.111230
	O2379	O	0.843456	0.333642	0.048722
	O2380	O	0.915298	0.290908	0.111137
	O2381	O	0.665331	0.353357	0.048897
	O2382	O	0.923810	0.334359	0.011182
	O2383	O	0.673597	0.271822	0.073884
	O2384	O	0.923784	0.271852	0.113706
	O2385	O	0.673501	0.334306	0.051206
	O2386	O	0.915366	0.353367	0.013711
	O2387	O	0.664934	0.290889	0.076330
	O2388	O	0.593705	0.333681	0.013750
	O2389	O	0.843484	0.271152	0.076302
	O2390	O	0.585329	0.290256	0.113572
	O2391	O	0.835344	0.352760	0.051156
	F2392	F	0.504442	0.281018	0.077849
	F2393	F	0.754581	0.343526	0.015435
	F2394	F	0.504405	0.343503	0.047172
	F2395	F	0.754593	0.281045	0.109594
	Al2396	Al	0.629533	0.281023	0.093760
	Al2397	Al	0.879866	0.343532	0.031311
	Al2398	Al	0.629587	0.343525	0.031337
	Al2399	Al	0.879770	0.281041	0.093631
	C2400	C	0.593900	0.369893	-0.001120
	C2401	C	0.843169	0.307413	0.061494
	C2402	C	0.596099	0.253666	0.120454
	C2403	C	0.845717	0.316144	0.057872
	C2404	C	0.912990	0.308427	0.120376
	C2405	C	0.662659	0.370886	0.058008
	C2406	C	0.915155	0.317168	-0.001089
	C2407	C	0.665015	0.254651	0.061553
	C2408	C	0.915107	0.254660	0.125988
	C2409	C	0.664947	0.317136	0.063528
	C2410	C	0.912815	0.370898	0.004657
	C2411	C	0.662405	0.308403	0.067158
	C2412	C	0.596119	0.316162	0.004618
	C2413	C	0.845869	0.253651	0.067040
	C2414	C	0.593525	0.307421	0.125987
	C2415	C	0.843450	0.369908	0.063579
	C2416	C	0.502216	0.365909	0.003638
	C2417	C	0.751497	0.303437	0.066267
	C2418	C	0.506935	0.258621	0.121271
	C2419	C	0.756645	0.321114	0.058838
	C2420	C	0.501850	0.303434	0.121344
	C2421	C	0.751790	0.365915	0.058905
	C2422	C	0.507042	0.321134	0.003668
	C2423	C	0.756716	0.258622	0.066218
	C2424	C	0.500870	0.356659	0.009957
	C2425	C	0.750180	0.294177	0.072470
	C2426	C	0.508349	0.267889	0.115068
	C2427	C	0.758107	0.330373	0.052584
	C2428	C	0.500621	0.294174	0.115027
	C2429	C	0.750542	0.356664	0.052635
	C2430	C	0.508470	0.330392	0.009934
	C2431	C	0.758136	0.267881	0.072486
	H2432	H	0.663209	0.366115	-0.002028
	H2433	H	0.912288	0.303636	0.060590
	H2434	H	0.667421	0.256646	0.116912
	H2435	H	0.916980	0.319130	0.054180
	H2436	H	0.841712	0.305440	0.116731
	H2437	H	0.591329	0.367902	0.054399
	H2438	H	0.845897	0.320948	-0.001998
	H2439	H	0.595762	0.258423	0.060707
	H2440	H	0.845789	0.258432	0.126771
	H2441	H	0.595661	0.320914	0.064398
	H2442	H	0.841588	0.367903	0.008299
	H2443	H	0.591187	0.305411	0.070792
	H2444	H	0.667379	0.319152	0.008267
	H2445	H	0.917185	0.256634	0.070649
	H2446	H	0.662874	0.303649	0.126787
	H2447	H	0.912861	0.366143	0.064427
	O2448	O	0.085310	0.352783	0.136674
	O2449	O	0.335445	0.290241	0.198929
	O2450	O	0.093717	0.271199	0.236237
	O2451	O	0.343965	0.333657	0.173643
	O2452	O	0.415500	0.290880	0.236236
	O2453	O	0.165647	0.353380	0.173843
	O2454	O	0.423686	0.334321	0.136240
	O2455	O	0.173739	0.271817	0.198962
	O2456	O	0.423463	0.271807	0.238536
	O2457	O	0.173959	0.334278	0.176113
	O2458	O	0.415210	0.353385	0.138730
	O2459	O	0.165534	0.290899	0.201239
	O2460	O	0.093666	0.333681	0.138826
	O2461	O	0.343681	0.271171	0.201277
	O2462	O	0.085414	0.290297	0.238544
	O2463	O	0.335437	0.352717	0.176104
	F2464	F	0.004636	0.281024	0.202783
	F2465	F	0.254455	0.343507	0.140361
	F2466	F	0.004546	0.343540	0.172311
	F2467	F	0.254428	0.281052	0.234710
	Al2468	Al	0.129616	0.281057	0.218721
	Al2469	Al	0.379437	0.343521	0.156188
	Al2470	Al	0.129533	0.343519	0.156357
	Al2471	Al	0.379505	0.281029	0.218730
	C2472	C	0.093454	0.369923	0.124137
	C2473	C	0.343973	0.307419	0.186579
	C2474	C	0.096091	0.253670	0.245446
	C2475	C	0.346396	0.316149	0.182909
	C2476	C	0.413150	0.308394	0.245454
	C2477	C	0.163183	0.370880	0.182976
	C2478	C	0.415260	0.317146	0.124026
	C2479	C	0.165343	0.254641	0.186617
	C2480	C	0.415029	0.254634	0.250936
	C2481	C	0.165535	0.317137	0.188454
	C2482	C	0.412796	0.370903	0.129566
	C2483	C	0.163114	0.308403	0.192106
	C2484	C	0.096220	0.316157	0.129588
	C2485	C	0.346027	0.253660	0.192156
	C2486	C	0.093369	0.307447	0.250832
	C2487	C	0.344076	0.369895	0.188437
	C2488	C	0.001761	0.365945	0.128795
	C2489	C	0.252293	0.303442	0.191306
	C2490	C	0.007076	0.258645	0.246369
	C2491	C	0.257289	0.321115	0.183784
	C2492	C	0.001666	0.303458	0.246277
	C2493	C	0.252314	0.365897	0.183845
	C2494	C	0.007129	0.321133	0.128688
	C2495	C	0.256983	0.258630	0.191286
	C2496	C	0.000593	0.356684	0.135083
	C2497	C	0.250893	0.294180	0.197527
	C2498	C	0.008407	0.267904	0.240065
	C2499	C	0.258741	0.330367	0.177500
	C2500	C	0.000596	0.294191	0.240035
	C2501	C	0.250929	0.356654	0.177606
	C2502	C	0.008535	0.330391	0.134934
	C2503	C	0.258385	0.267889	0.197508
	H2504	H	0.162740	0.366148	0.123302
	H2505	H	0.413269	0.303638	0.185748
	H2506	H	0.167304	0.256654	0.241769
	H2507	H	0.417599	0.319143	0.179236
	H2508	H	0.341944	0.305396	0.241814
	H2509	H	0.091843	0.367902	0.179366
	H2510	H	0.346008	0.320922	0.123177
	H2511	H	0.096055	0.258410	0.185738
	H2512	H	0.345770	0.258410	0.251815
	H2513	H	0.096226	0.320908	0.189263
	H2514	H	0.341540	0.367917	0.133168
	H2515	H	0.091816	0.305420	0.195713
	H2516	H	0.167479	0.319145	0.133231
	H2517	H	0.417317	0.256638	0.195771
	H2518	H	0.162723	0.303674	0.251650
	H2519	H	0.413446	0.366123	0.189258
	O2520	O	0.585174	0.352736	0.136321
	O2521	O	0.835053	0.290274	0.198888
	O2522	O	0.593426	0.271188	0.236387
	O2523	O	0.843311	0.333646	0.173835
	O2524	O	0.915402	0.290890	0.236231
	O2525	O	0.664991	0.353376	0.173648
	O2526	O	0.923755	0.334307	0.136359
	O2527	O	0.673390	0.271797	0.198973
	O2528	O	0.923806	0.271828	0.238695
	O2529	O	0.673358	0.334319	0.176105
	O2530	O	0.915172	0.353366	0.138732
	O2531	O	0.665081	0.290883	0.201311
	O2532	O	0.593667	0.333677	0.138708
	O2533	O	0.843428	0.271131	0.201295
	O2534	O	0.585467	0.290235	0.238756
	O2535	O	0.834857	0.352790	0.175988
	F2536	F	0.504710	0.281023	0.202864
	F2537	F	0.754533	0.343495	0.140360
	F2538	F	0.504365	0.343527	0.172112
	F2539	F	0.754611	0.281037	0.234627
	Al2540	Al	0.629548	0.281036	0.218810
	Al2541	Al	0.879734	0.343517	0.156317
	Al2542	Al	0.629443	0.343520	0.156224
	Al2543	Al	0.879832	0.281025	0.218680
	C2544	C	0.593592	0.369913	0.123972
	C2545	C	0.843326	0.307407	0.186451
	C2546	C	0.595956	0.253668	0.245529
	C2547	C	0.845648	0.316139	0.182793
	C2548	C	0.912450	0.308427	0.245338
	C2549	C	0.662159	0.370910	0.182897
	C2550	C	0.915352	0.317164	0.124017
	C2551	C	0.664842	0.254641	0.186667
	C2552	C	0.915314	0.254669	0.251065
	C2553	C	0.664796	0.317122	0.188311
	C2554	C	0.912756	0.370932	0.129714
	C2555	C	0.662422	0.308391	0.191971
	C2556	C	0.596028	0.316165	0.129532
	C2557	C	0.845611	0.253654	0.192177
	C2558	C	0.593974	0.307411	0.251025
	C2559	C	0.842970	0.369900	0.188554
	C2560	C	0.501924	0.365930	0.128713
	C2561	C	0.751622	0.303425	0.191127
	C2562	C	0.506749	0.258618	0.246275
	C2563	C	0.756438	0.321105	0.183658
	C2564	C	0.502247	0.303425	0.246424
	C2565	C	0.751217	0.365924	0.183813
	C2566	C	0.506966	0.321135	0.128628
	C2567	C	0.756574	0.258626	0.191203
	C2568	C	0.500518	0.356667	0.134910
	C2569	C	0.750273	0.294177	0.197454
	C2570	C	0.508132	0.267891	0.240062
	C2571	C	0.757851	0.330372	0.177525
	C2572	C	0.500786	0.294162	0.240146
	C2573	C	0.750063	0.356688	0.177459
	C2574	C	0.508369	0.330394	0.134877
	C2575	C	0.758001	0.267872	0.197472
	H2576	H	0.662863	0.366137	0.123051
	H2577	H	0.912645	0.303638	0.185629
	H2578	H	0.667290	0.256657	0.242022
	H2579	H	0.916904	0.319132	0.179172
	H2580	H	0.841296	0.305422	0.241724
	H2581	H	0.590889	0.367934	0.179195
	H2582	H	0.846056	0.320939	0.123151
	H2583	H	0.595508	0.258412	0.185929
	H2584	H	0.846094	0.258449	0.251926
	H2585	H	0.595473	0.320894	0.189171
	H2586	H	0.841538	0.367953	0.133402
	H2587	H	0.591266	0.305397	0.195637
	H2588	H	0.667290	0.319152	0.133116
	H2589	H	0.916938	0.256624	0.195826
	H2590	H	0.663293	0.303638	0.251851
	H2591	H	0.912266	0.366123	0.189444
	O2592	O	0.085445	0.352742	0.261402
	O2593	O	0.335384	0.290268	0.323943
	O2594	O	0.093523	0.271201	0.361360
	O2595	O	0.343441	0.333673	0.298705
	O2596	O	0.415660	0.290858	0.361265
	O2597	O	0.165443	0.353365	0.298785
	O2598	O	0.423710	0.334318	0.261341
	O2599	O	0.173387	0.271816	0.324010
	O2600	O	0.423441	0.271791	0.363535
	O2601	O	0.173470	0.334293	0.301063
	O2602	O	0.415407	0.353394	0.263789
	O2603	O	0.165383	0.290894	0.326320
	O2604	O	0.093460	0.333689	0.263630
	O2605	O	0.343322	0.271186	0.326229
	O2606	O	0.085468	0.290247	0.363749
	O2607	O	0.335380	0.352770	0.301003
	F2608	F	0.004611	0.281035	0.327875
	F2609	F	0.254499	0.343505	0.265298
	F2610	F	0.004862	0.343528	0.297220
	F2611	F	0.254477	0.281039	0.359721
	Al2612	Al	0.129526	0.281041	0.343844
	Al2613	Al	0.379603	0.343523	0.281252
	Al2614	Al	0.129647	0.343518	0.281228
	Al2615	Al	0.379421	0.281031	0.343718
	C2616	C	0.094010	0.369923	0.248984
	C2617	C	0.343713	0.307416	0.311533
	C2618	C	0.096085	0.253681	0.370419
	C2619	C	0.346068	0.316150	0.307855
	C2620	C	0.412997	0.308398	0.370393
	C2621	C	0.162840	0.370903	0.307918
	C2622	C	0.415494	0.317140	0.248966
	C2623	C	0.165182	0.254628	0.311680
	C2624	C	0.415442	0.254651	0.375967
	C2625	C	0.165232	0.317125	0.313342
	C2626	C	0.413057	0.370880	0.254688
	C2627	C	0.162893	0.308397	0.317019
	C2628	C	0.095773	0.316189	0.254370
	C2629	C	0.345881	0.253667	0.317147
	C2630	C	0.093619	0.307433	0.375973
	C2631	C	0.343525	0.369919	0.313446
	C2632	C	0.002331	0.365934	0.253701
	C2633	C	0.252008	0.303434	0.316210
	C2634	C	0.006993	0.258648	0.371330
	C2635	C	0.256945	0.321115	0.308710
	C2636	C	0.002016	0.303441	0.371302
	C2637	C	0.251909	0.365918	0.308813
	C2638	C	0.006608	0.321149	0.253574
	C2639	C	0.256777	0.258629	0.316303
	C2640	C	0.000799	0.356668	0.259958
	C2641	C	0.250641	0.294179	0.322492
	C2642	C	0.008295	0.267914	0.365157
	C2643	C	0.258199	0.330378	0.302501
	C2644	C	0.000819	0.294165	0.365108
	C2645	C	0.250658	0.356671	0.302546
	C2646	C	0.008095	0.330414	0.259841
	C2647	C	0.258028	0.267892	0.322518
	H2648	H	0.163349	0.366146	0.248123
	H2649	H	0.413039	0.303647	0.310727
	H2650	H	0.167322	0.256675	0.366839
	H2651	H	0.417208	0.319139	0.304231
	H2652	H	0.341800	0.305410	0.366680
	H2653	H	0.091545	0.367916	0.304275
	H2654	H	0.346204	0.320908	0.248081
	H2655	H	0.095804	0.258392	0.310865
	H2656	H	0.346210	0.258421	0.376829
	H2657	H	0.095881	0.320903	0.314128
	H2658	H	0.341868	0.367892	0.258369
	H2659	H	0.091572	0.305404	0.320606
	H2660	H	0.166979	0.319194	0.257910
	H2661	H	0.417153	0.256645	0.320756
	H2662	H	0.163010	0.303664	0.376916
	H2663	H	0.412942	0.366159	0.314311
	O2664	O	0.585384	0.352736	0.261429
	O2665	O	0.835284	0.290240	0.323851
	O2666	O	0.593519	0.271190	0.361301
	O2667	O	0.843265	0.333669	0.298854
	O2668	O	0.915509	0.290869	0.361273
	O2669	O	0.665218	0.353373	0.298783
	O2670	O	0.923557	0.334340	0.261299
	O2671	O	0.673322	0.271807	0.323832
	O2672	O	0.923547	0.271839	0.363816
	O2673	O	0.673340	0.334287	0.301211
	O2674	O	0.915454	0.353385	0.263786
	O2675	O	0.665376	0.290863	0.326136
	O2676	O	0.593613	0.333679	0.263686
	O2677	O	0.843258	0.271158	0.326312
	O2678	O	0.585700	0.290280	0.363416
	O2679	O	0.835163	0.352733	0.301229
	F2680	F	0.504325	0.281018	0.327797
	F2681	F	0.754687	0.343497	0.265430
	F2682	F	0.504537	0.343524	0.297159
	F2683	F	0.754536	0.281031	0.359604
	Al2684	Al	0.629442	0.281019	0.343695
	Al2685	Al	0.879768	0.343540	0.281375
	Al2686	Al	0.629548	0.343521	0.281237
	Al2687	Al	0.879625	0.281027	0.343727
	C2688	C	0.593935	0.369902	0.249109
	C2689	C	0.843515	0.307407	0.311507
	C2690	C	0.596238	0.253669	0.370408
	C2691	C	0.845858	0.316145	0.307898
	C2692	C	0.912806	0.308414	0.370336
	C2693	C	0.662680	0.370893	0.307897
	C2694	C	0.914851	0.317168	0.248889
	C2695	C	0.664885	0.254661	0.311412
	C2696	C	0.915323	0.254666	0.375997
	C2697	C	0.665051	0.317118	0.313484
	C2698	C	0.913228	0.370912	0.254670
	C2699	C	0.662687	0.308385	0.317077
	C2700	C	0.596249	0.316157	0.254535
	C2701	C	0.845698	0.253666	0.317114
	C2702	C	0.593742	0.307412	0.376001
	C2703	C	0.843508	0.369896	0.313534
	C2704	C	0.502255	0.365915	0.253776
	C2705	C	0.751904	0.303421	0.316213
	C2706	C	0.507056	0.258636	0.371314
	C2707	C	0.756721	0.321105	0.308841
	C2708	C	0.502041	0.303426	0.371361
	C2709	C	0.751811	0.365919	0.308844
	C2710	C	0.507076	0.321123	0.253672
	C2711	C	0.756544	0.258628	0.316174
	C2712	C	0.500783	0.356664	0.259993
	C2713	C	0.750629	0.294158	0.322407
	C2714	C	0.508256	0.267893	0.365085
	C2715	C	0.758044	0.330372	0.302643
	C2716	C	0.500868	0.294170	0.365019
	C2717	C	0.750499	0.356658	0.302599
	C2718	C	0.508336	0.330387	0.259925
	C2719	C	0.757970	0.267881	0.322438
	H2720	H	0.663356	0.366137	0.248259
	H2721	H	0.912862	0.303630	0.310609
	H2722	H	0.667388	0.256667	0.366776
	H2723	H	0.917077	0.319139	0.304222
	H2724	H	0.841601	0.305412	0.366732
	H2725	H	0.591397	0.367906	0.304254
	H2726	H	0.845656	0.320957	0.248003
	H2727	H	0.595650	0.258445	0.310498
	H2728	H	0.846039	0.258442	0.376917
	H2729	H	0.595780	0.320876	0.314350
	H2730	H	0.841976	0.367925	0.258360
	H2731	H	0.591598	0.305385	0.320700
	H2732	H	0.667483	0.319157	0.258097
	H2733	H	0.916865	0.256662	0.320802
	H2734	H	0.663056	0.303636	0.376853
	H2735	H	0.912763	0.366111	0.314477
	O2736	O	0.085497	0.352726	0.386312
	O2737	O	0.335257	0.290228	0.448871
	O2738	O	0.093421	0.271164	0.486284
	O2739	O	0.343245	0.333653	0.423673
	O2740	O	0.415699	0.290870	0.486207
	O2741	O	0.165534	0.353365	0.423621
	O2742	O	0.423709	0.334296	0.386426
	O2743	O	0.173338	0.271789	0.448950
	O2744	O	0.423832	0.271811	0.488584
	O2745	O	0.173220	0.334268	0.425963
	O2746	O	0.415446	0.353363	0.388751
	O2747	O	0.165245	0.290872	0.451270
	O2748	O	0.093583	0.333680	0.388542
	O2749	O	0.343298	0.271187	0.451212
	O2750	O	0.085479	0.290246	0.488602
	O2751	O	0.335382	0.352694	0.426177
	F2752	F	0.004834	0.281007	0.452784
	F2753	F	0.254504	0.343507	0.390251
	F2754	F	0.004693	0.343536	0.422087
	F2755	F	0.254493	0.281035	0.484661
	Al2756	Al	0.129517	0.281014	0.468782
	Al2757	Al	0.379439	0.343505	0.406257
	Al2758	Al	0.129578	0.343514	0.406160
	Al2759	Al	0.379584	0.281026	0.468742
	C2760	C	0.093877	0.369917	0.374127
	C2761	C	0.343279	0.307397	0.436461
	C2762	C	0.095642	0.253666	0.495426
	C2763	C	0.345670	0.316134	0.432783
	C2764	C	0.413097	0.308398	0.495306
	C2765	C	0.162953	0.370867	0.432901
	C2766	C	0.415434	0.317138	0.373993
	C2767	C	0.164922	0.254641	0.436645
	C2768	C	0.415394	0.254639	0.500893
	C2769	C	0.164843	0.317102	0.438323
	C2770	C	0.412927	0.370895	0.379642
	C2771	C	0.162506	0.308374	0.441998
	C2772	C	0.095953	0.316180	0.379478
	C2773	C	0.345827	0.253660	0.442073
	C2774	C	0.093556	0.307415	0.500933
	C2775	C	0.343808	0.369886	0.438458
	C2776	C	0.002164	0.365919	0.378753
	C2777	C	0.251725	0.303415	0.441176
	C2778	C	0.006553	0.258630	0.496345
	C2779	C	0.256525	0.321093	0.433683
	C2780	C	0.001919	0.303420	0.496332
	C2781	C	0.252181	0.365903	0.433730
	C2782	C	0.006828	0.321143	0.378485
	C2783	C	0.256684	0.258624	0.441197
	C2784	C	0.000875	0.356647	0.384856
	C2785	C	0.250564	0.294153	0.447449
	C2786	C	0.008090	0.267894	0.490127
	C2787	C	0.257957	0.330358	0.427447
	C2788	C	0.000710	0.294157	0.490108
	C2789	C	0.250841	0.356638	0.427502
	C2790	C	0.008285	0.330403	0.384753
	C2791	C	0.258099	0.267884	0.447456
	H2792	H	0.163157	0.366144	0.373249
	H2793	H	0.412546	0.303615	0.435622
	H2794	H	0.166838	0.256654	0.491825
	H2795	H	0.416722	0.319138	0.429149
	H2796	H	0.341828	0.305410	0.491715
	H2797	H	0.091726	0.367864	0.429309
	H2798	H	0.346218	0.320912	0.373098
	H2799	H	0.095641	0.258422	0.435869
	H2800	H	0.346102	0.258409	0.501735
	H2801	H	0.095484	0.320864	0.439146
	H2802	H	0.341667	0.367918	0.383337
	H2803	H	0.091254	0.305381	0.445630
	H2804	H	0.167122	0.319179	0.383102
	H2805	H	0.417038	0.256660	0.445716
	H2806	H	0.162963	0.303649	0.501770
	H2807	H	0.413125	0.366109	0.439340
	O2808	O	0.585367	0.352750	0.386485
	O2809	O	0.835415	0.290241	0.448727
	O2810	O	0.593704	0.271178	0.486138
	O2811	O	0.843366	0.333659	0.423784
	O2812	O	0.915444	0.290870	0.486227
	O2813	O	0.665319	0.353353	0.423849
	O2814	O	0.923580	0.334318	0.386281
	O2815	O	0.673540	0.271820	0.448712
	O2816	O	0.923459	0.271838	0.488751
	O2817	O	0.673360	0.334295	0.426142
	O2818	O	0.915472	0.353346	0.388568
	O2819	O	0.665407	0.290859	0.451029
	O2820	O	0.593667	0.333669	0.388709
	O2821	O	0.843467	0.271154	0.451191
	O2822	O	0.585655	0.290249	0.488436
	O2823	O	0.835372	0.352768	0.426065
	F2824	F	0.504388	0.281011	0.452723
	F2825	F	0.754524	0.343521	0.390411
	F2826	F	0.504427	0.343523	0.422193
	F2827	F	0.754520	0.281044	0.484474
	Al2828	Al	0.629514	0.281025	0.468584
	Al2829	Al	0.879795	0.343530	0.406263
	Al2830	Al	0.629463	0.343514	0.406280
	Al2831	Al	0.879841	0.281029	0.468614
	C2832	C	0.593681	0.369897	0.373915
	C2833	C	0.843558	0.307411	0.436424
	C2834	C	0.596245	0.253653	0.495377
	C2835	C	0.845893	0.316152	0.432834
	C2836	C	0.912811	0.308406	0.495316
	C2837	C	0.662689	0.370878	0.432862
	C2838	C	0.915127	0.317154	0.373849
	C2839	C	0.665005	0.254659	0.436344
	C2840	C	0.914820	0.254640	0.500927
	C2841	C	0.665105	0.317120	0.438486
	C2842	C	0.912966	0.370890	0.379653
	C2843	C	0.662817	0.308389	0.442076
	C2844	C	0.596182	0.316151	0.379593
	C2845	C	0.845859	0.253651	0.442050
	C2846	C	0.593858	0.307411	0.500878
	C2847	C	0.843486	0.369896	0.438460
	C2848	C	0.502005	0.365917	0.378712
	C2849	C	0.751966	0.303427	0.441140
	C2850	C	0.507118	0.258618	0.496213
	C2851	C	0.756705	0.321110	0.433806
	C2852	C	0.502239	0.303420	0.496130
	C2853	C	0.751788	0.365910	0.433783
	C2854	C	0.507058	0.321118	0.378709
	C2855	C	0.756734	0.258624	0.441059
	C2856	C	0.500681	0.356661	0.384988
	C2857	C	0.750693	0.294157	0.447294
	C2858	C	0.508491	0.267884	0.489969
	C2859	C	0.758057	0.330375	0.427597
	C2860	C	0.500980	0.294168	0.489909
	C2861	C	0.750523	0.356662	0.427547
	C2862	C	0.508385	0.330376	0.384965
	C2863	C	0.758112	0.267882	0.447321
	H2864	H	0.663004	0.366124	0.372990
	H2865	H	0.912807	0.303630	0.435529
	H2866	H	0.667527	0.256640	0.491766
	H2867	H	0.917002	0.319160	0.429123
	H2868	H	0.841538	0.305414	0.491688
	H2869	H	0.591457	0.367884	0.429197
	H2870	H	0.845835	0.320931	0.372961
	H2871	H	0.595765	0.258445	0.435444
	H2872	H	0.845554	0.258415	0.501761
	H2873	H	0.595753	0.320883	0.439397
	H2874	H	0.841702	0.367895	0.383258
	H2875	H	0.591645	0.305395	0.445696
	H2876	H	0.667378	0.319146	0.383218
	H2877	H	0.917042	0.256647	0.445726
	H2878	H	0.663154	0.303635	0.501797
	H2879	H	0.912805	0.366120	0.439338
	O2880	O	0.085324	0.352752	0.511305
	O2881	O	0.335631	0.290270	0.574011
	O2882	O	0.093662	0.271204	0.611311
	O2883	O	0.343653	0.333661	0.548646
	O2884	O	0.415693	0.290869	0.611313
	O2885	O	0.165177	0.353367	0.548664
	O2886	O	0.423825	0.334304	0.511324
	O2887	O	0.173630	0.271790	0.574047
	O2888	O	0.423782	0.271782	0.613546
	O2889	O	0.173654	0.334282	0.550860
	O2890	O	0.415623	0.353377	0.513704
	O2891	O	0.165656	0.290871	0.576185
	O2892	O	0.093574	0.333692	0.513566
	O2893	O	0.343633	0.271176	0.576271
	O2894	O	0.085125	0.290271	0.613504
	O2895	O	0.335267	0.352757	0.550915
	F2896	F	0.004716	0.281036	0.577701
	F2897	F	0.254728	0.343542	0.515203
	F2898	F	0.004596	0.343508	0.547154
	F2899	F	0.254536	0.281048	0.609718
	Al2900	Al	0.129578	0.281043	0.593732
	Al2901	Al	0.379450	0.343523	0.531162
	Al2902	Al	0.129639	0.343520	0.531091
	Al2903	Al	0.379457	0.281026	0.593809
	C2904	C	0.093486	0.369927	0.499033
	C2905	C	0.343776	0.307421	0.561555
	C2906	C	0.096029	0.253692	0.620470
	C2907	C	0.346143	0.316149	0.557888
	C2908	C	0.413091	0.308392	0.620425
	C2909	C	0.162675	0.370896	0.557904
	C2910	C	0.415535	0.317142	0.498937
	C2911	C	0.165443	0.254647	0.561558
	C2912	C	0.415650	0.254640	0.626002
	C2913	C	0.165320	0.317133	0.563320
	C2914	C	0.413296	0.370890	0.504570
	C2915	C	0.162932	0.308400	0.567014
	C2916	C	0.095969	0.316163	0.504501
	C2917	C	0.346263	0.253668	0.567030
	C2918	C	0.093573	0.307420	0.625893
	C2919	C	0.343599	0.369892	0.563400
	C2920	C	0.001809	0.365939	0.503668
	C2921	C	0.252037	0.303427	0.566089
	C2922	C	0.006881	0.258653	0.621295
	C2923	C	0.257013	0.321109	0.558631
	C2924	C	0.001797	0.303462	0.621149
	C2925	C	0.251812	0.365929	0.558788
	C2926	C	0.006911	0.321138	0.503555
	C2927	C	0.257111	0.258632	0.566188
	C2928	C	0.000558	0.356667	0.509864
	C2929	C	0.250877	0.294174	0.572431
	C2930	C	0.008408	0.267904	0.615014
	C2931	C	0.258361	0.330366	0.552362
	C2932	C	0.000436	0.294197	0.614950
	C2933	C	0.250498	0.356661	0.552483
	C2934	C	0.008299	0.330408	0.509732
	C2935	C	0.258388	0.267883	0.572489
	H2936	H	0.162803	0.366153	0.498115
	H2937	H	0.413197	0.303651	0.560799
	H2938	H	0.167288	0.256685	0.616898
	H2939	H	0.417421	0.319127	0.554310
	H2940	H	0.341844	0.305397	0.616848
	H2941	H	0.091527	0.367898	0.554214
	H2942	H	0.346261	0.320914	0.498148
	H2943	H	0.096074	0.258415	0.560790
	H2944	H	0.346342	0.258410	0.626883
	H2945	H	0.096132	0.320912	0.564161
	H2946	H	0.342003	0.367910	0.508220
	H2947	H	0.091821	0.305402	0.570712
	H2948	H	0.167228	0.319150	0.508093
	H2949	H	0.417412	0.256663	0.570684
	H2950	H	0.162863	0.303640	0.626765
	H2951	H	0.412927	0.366116	0.564139
	O2952	O	0.585609	0.352730	0.511442
	O2953	O	0.835007	0.290251	0.573709
	O2954	O	0.593838	0.271179	0.611259
	O2955	O	0.843791	0.333643	0.548787
	O2956	O	0.915075	0.290910	0.611076
	O2957	O	0.665115	0.353359	0.548888
	O2958	O	0.923664	0.334342	0.511162
	O2959	O	0.673313	0.271797	0.573882
	O2960	O	0.923671	0.271837	0.613525
	O2961	O	0.673744	0.334298	0.551141
	O2962	O	0.915340	0.353367	0.513702
	O2963	O	0.665116	0.290871	0.576151
	O2964	O	0.593773	0.333660	0.513814
	O2965	O	0.843375	0.271165	0.576083
	O2966	O	0.585720	0.290242	0.613570
	O2967	O	0.835132	0.352721	0.551247
	F2968	F	0.504275	0.281022	0.577850
	F2969	F	0.754629	0.343520	0.515478
	F2970	F	0.504244	0.343522	0.547153
	F2971	F	0.754677	0.281022	0.609508
	Al2972	Al	0.629481	0.281025	0.593676
	Al2973	Al	0.879849	0.343525	0.531287
	Al2974	Al	0.629560	0.343520	0.531373
	Al2975	Al	0.879766	0.281034	0.593546
	C2976	C	0.594113	0.369903	0.499092
	C2977	C	0.843320	0.307411	0.561436
	C2978	C	0.596423	0.253663	0.620413
	C2979	C	0.845950	0.316145	0.557851
	C2980	C	0.912622	0.308443	0.620336
	C2981	C	0.662709	0.370890	0.557957
	C2982	C	0.915253	0.317146	0.498888
	C2983	C	0.664880	0.254640	0.561555
	C2984	C	0.915210	0.254661	0.625920
	C2985	C	0.665211	0.317144	0.563460
	C2986	C	0.912683	0.370921	0.504560
	C2987	C	0.662593	0.308409	0.567041
	C2988	C	0.596260	0.316155	0.504528
	C2989	C	0.845656	0.253656	0.567100
	C2990	C	0.593933	0.307421	0.625803
	C2991	C	0.843578	0.369898	0.563495
	C2992	C	0.502372	0.365908	0.503680
	C2993	C	0.751642	0.303432	0.566091
	C2994	C	0.507328	0.258622	0.621319
	C2995	C	0.756906	0.321119	0.558799
	C2996	C	0.502262	0.303427	0.621258
	C2997	C	0.751871	0.365929	0.558809
	C2998	C	0.507268	0.321124	0.503534
	C2999	C	0.756574	0.258619	0.566197
	C3000	C	0.500963	0.356656	0.509937
	C3001	C	0.750323	0.294168	0.572308
	C3002	C	0.508608	0.267882	0.615066
	C3003	C	0.758414	0.330373	0.552582
	C3004	C	0.501029	0.294164	0.615010
	C3005	C	0.750449	0.356652	0.552623
	C3006	C	0.508543	0.330384	0.509881
	C3007	C	0.757979	0.267880	0.572381
	H3008	H	0.663489	0.366132	0.498315
	H3009	H	0.912640	0.303642	0.560571
	H3010	H	0.667692	0.256647	0.616790
	H3011	H	0.917202	0.319119	0.554238
	H3012	H	0.841304	0.305460	0.616738
	H3013	H	0.591480	0.367887	0.554386
	H3014	H	0.845993	0.320921	0.498012
	H3015	H	0.595670	0.258425	0.560701
	H3016	H	0.845893	0.258432	0.626731
	H3017	H	0.596042	0.320932	0.564339
	H3018	H	0.841435	0.367930	0.508169
	H3019	H	0.591397	0.305411	0.570700
	H3020	H	0.667463	0.319135	0.508277
	H3021	H	0.916855	0.256651	0.570720
	H3022	H	0.663298	0.303651	0.626607
	H3023	H	0.912826	0.366117	0.564386
	O3024	O	0.085485	0.352750	0.636429
	O3025	O	0.335644	0.290260	0.698959
	O3026	O	0.093792	0.271199	0.736321
	O3027	O	0.344012	0.333645	0.673554
	O3028	O	0.415560	0.290867	0.736382
	O3029	O	0.165323	0.353371	0.673795
	O3030	O	0.423907	0.334315	0.636258
	O3031	O	0.173641	0.271814	0.698881
	O3032	O	0.423508	0.271797	0.738573
	O3033	O	0.174141	0.334310	0.676131
	O3034	O	0.415465	0.353377	0.638764
	O3035	O	0.165649	0.290885	0.701231
	O3036	O	0.093860	0.333663	0.638862
	O3037	O	0.343621	0.271176	0.701227
	O3038	O	0.085440	0.290262	0.738555
	O3039	O	0.335426	0.352734	0.676102
	F3040	F	0.004706	0.281048	0.702800
	F3041	F	0.254554	0.343545	0.640329
	F3042	F	0.004686	0.343505	0.672237
	F3043	F	0.254585	0.281005	0.734668
	Al3044	Al	0.129740	0.281036	0.718782
	Al3045	Al	0.379675	0.343520	0.656208
	Al3046	Al	0.129625	0.343537	0.656299
	Al3047	Al	0.379521	0.281027	0.718794
	C3048	C	0.093457	0.369934	0.624151
	C3049	C	0.343962	0.307404	0.686479
	C3050	C	0.096431	0.253686	0.745508
	C3051	C	0.346477	0.316139	0.682867
	C3052	C	0.413030	0.308408	0.745422
	C3053	C	0.162973	0.370907	0.682838
	C3054	C	0.415502	0.317135	0.624014
	C3055	C	0.165437	0.254634	0.686591
	C3056	C	0.415267	0.254679	0.751074
	C3057	C	0.165615	0.317120	0.688323
	C3058	C	0.412736	0.370893	0.629536
	C3059	C	0.163068	0.308386	0.691942
	C3060	C	0.096191	0.316161	0.629543
	C3061	C	0.346241	0.253666	0.692065
	C3062	C	0.093702	0.307446	0.750882
	C3063	C	0.343776	0.369917	0.688423
	C3064	C	0.001894	0.365940	0.628796
	C3065	C	0.252217	0.303424	0.691110
	C3066	C	0.007305	0.258653	0.746399
	C3067	C	0.257331	0.321105	0.683708
	C3068	C	0.002076	0.303455	0.746207
	C3069	C	0.252086	0.365941	0.683710
	C3070	C	0.007074	0.321138	0.628687
	C3071	C	0.257095	0.258625	0.691198
	C3072	C	0.000686	0.356677	0.635036
	C3073	C	0.250918	0.294173	0.697428
	C3074	C	0.008645	0.267906	0.740114
	C3075	C	0.258720	0.330367	0.677453
	C3076	C	0.000796	0.294180	0.740043
	C3077	C	0.250715	0.356662	0.677522
	C3078	C	0.008599	0.330396	0.634883
	C3079	C	0.258317	0.267888	0.697437
	H3080	H	0.162865	0.366169	0.623259
	H3081	H	0.413229	0.303617	0.685671
	H3082	H	0.167638	0.256679	0.741885
	H3083	H	0.417664	0.319135	0.679267
	H3084	H	0.341883	0.305410	0.741765
	H3085	H	0.091723	0.367924	0.679193
	H3086	H	0.346192	0.320904	0.623226
	H3087	H	0.096084	0.258407	0.685796
	H3088	H	0.346089	0.258471	0.751914
	H3089	H	0.096325	0.320883	0.689108
	H3090	H	0.341485	0.367903	0.633174
	H3091	H	0.091819	0.305400	0.695519
	H3092	H	0.167499	0.319139	0.633159
	H3093	H	0.417485	0.256656	0.695659
	H3094	H	0.163002	0.303671	0.751754
	H3095	H	0.413059	0.366140	0.689352
	O3096	O	0.585387	0.352732	0.636276
	O3097	O	0.835109	0.290269	0.698888
	O3098	O	0.593620	0.271213	0.736455
	O3099	O	0.843318	0.333637	0.673725
	O3100	O	0.915393	0.290876	0.736282
	O3101	O	0.664937	0.353373	0.673668
	O3102	O	0.923908	0.334338	0.636226
	O3103	O	0.673434	0.271815	0.698943
	O3104	O	0.923778	0.271815	0.738611
	O3105	O	0.673419	0.334320	0.676165
	O3106	O	0.915475	0.353365	0.638838
	O3107	O	0.665204	0.290893	0.701363
	O3108	O	0.593854	0.333673	0.638665
	O3109	O	0.843272	0.271142	0.701375
	O3110	O	0.585599	0.290259	0.738656
	O3111	O	0.834998	0.352747	0.676112
	F3112	F	0.504574	0.281033	0.702925
	F3113	F	0.754708	0.343525	0.640329
	F3114	F	0.504559	0.343500	0.672103
	F3115	F	0.754779	0.281018	0.734711
	Al3116	Al	0.629656	0.281030	0.718867
	Al3117	Al	0.879800	0.343518	0.656302
	Al3118	Al	0.629557	0.343520	0.656185
	Al3119	Al	0.879767	0.281041	0.718700
	C3120	C	0.593476	0.369914	0.623870
	C3121	C	0.843294	0.307423	0.686537
	C3122	C	0.596224	0.253684	0.745531
	C3123	C	0.845690	0.316157	0.682960
	C3124	C	0.913003	0.308431	0.745241
	C3125	C	0.662173	0.370890	0.682931
	C3126	C	0.915226	0.317182	0.623989
	C3127	C	0.664892	0.254635	0.686564
	C3128	C	0.915598	0.254673	0.751061
	C3129	C	0.664766	0.317136	0.688518
	C3130	C	0.912688	0.370915	0.629761
	C3131	C	0.662422	0.308397	0.692098
	C3132	C	0.596355	0.316160	0.629395
	C3133	C	0.845677	0.253640	0.692204
	C3134	C	0.593804	0.307423	0.751007
	C3135	C	0.843052	0.369897	0.688492
	C3136	C	0.501875	0.365932	0.628602
	C3137	C	0.751639	0.303443	0.691238
	C3138	C	0.507062	0.258650	0.746434
	C3139	C	0.756442	0.321120	0.683878
	C3140	C	0.502126	0.303434	0.746315
	C3141	C	0.751371	0.365927	0.683793
	C3142	C	0.507178	0.321126	0.628607
	C3143	C	0.756547	0.258607	0.691317
	C3144	C	0.500728	0.356660	0.634863
	C3145	C	0.750399	0.294183	0.697484
	C3146	C	0.508350	0.267908	0.740181
	C3147	C	0.757930	0.330375	0.677610
	C3148	C	0.500825	0.294174	0.740077
	C3149	C	0.750227	0.356664	0.677500
	C3150	C	0.508549	0.330382	0.634877
	C3151	C	0.757927	0.267866	0.697579
	H3152	H	0.662817	0.366142	0.622916
	H3153	H	0.912551	0.303645	0.685622
	H3154	H	0.667438	0.256679	0.741915
	H3155	H	0.916792	0.319160	0.679307
	H3156	H	0.841759	0.305444	0.741552
	H3157	H	0.590954	0.367903	0.679241
	H3158	H	0.846067	0.320971	0.623126
	H3159	H	0.595635	0.258417	0.685662
	H3160	H	0.846309	0.258449	0.751932
	H3161	H	0.595475	0.320906	0.689395
	H3162	H	0.841526	0.367915	0.633416
	H3163	H	0.591215	0.305406	0.695703
	H3164	H	0.667546	0.319155	0.632995
	H3165	H	0.916936	0.256624	0.695845
	H3166	H	0.663073	0.303644	0.751865
	H3167	H	0.912456	0.366126	0.689335
	O3168	O	0.085655	0.352768	0.761510
	O3169	O	0.335584	0.290253	0.823920
	O3170	O	0.093571	0.271212	0.861450
	O3171	O	0.343609	0.333678	0.798791
	O3172	O	0.415753	0.290894	0.861199
	O3173	O	0.165289	0.353383	0.798758
	O3174	O	0.423604	0.334304	0.761430
	O3175	O	0.173468	0.271801	0.824035
	O3176	O	0.423329	0.271805	0.863493
	O3177	O	0.173591	0.334296	0.801146
	O3178	O	0.415160	0.353363	0.763752
	O3179	O	0.165661	0.290895	0.826357
	O3180	O	0.093523	0.333692	0.763703
	O3181	O	0.343397	0.271212	0.826175
	O3182	O	0.085531	0.290266	0.863586
	O3183	O	0.335225	0.352707	0.801263
	F3184	F	0.004798	0.281020	0.827899
	F3185	F	0.254644	0.343531	0.765404
	F3186	F	0.004697	0.343515	0.797253
	F3187	F	0.254681	0.281041	0.859706
	Al3188	Al	0.129648	0.281033	0.843833
	Al3189	Al	0.379585	0.343515	0.781290
	Al3190	Al	0.129559	0.343517	0.781261
	Al3191	Al	0.379646	0.281040	0.843722
	C3192	C	0.093743	0.369926	0.748950
	C3193	C	0.343730	0.307424	0.811476
	C3194	C	0.095963	0.253691	0.870494
	C3195	C	0.346187	0.316157	0.807877
	C3196	C	0.413267	0.308411	0.870341
	C3197	C	0.163114	0.370889	0.807931
	C3198	C	0.415385	0.317149	0.749050
	C3199	C	0.165257	0.254640	0.811675
	C3200	C	0.415377	0.254659	0.876081
	C3201	C	0.165480	0.317148	0.813566
	C3202	C	0.412793	0.370903	0.754676
	C3203	C	0.163054	0.308409	0.817178
	C3204	C	0.096081	0.316186	0.754553
	C3205	C	0.346127	0.253670	0.817177
	C3206	C	0.093604	0.307433	0.875932
	C3207	C	0.343824	0.369892	0.813559
	C3208	C	0.002100	0.365937	0.753639
	C3209	C	0.252141	0.303444	0.816236
	C3210	C	0.006848	0.258654	0.871442
	C3211	C	0.257158	0.321130	0.808877
	C3212	C	0.002027	0.303445	0.871305
	C3213	C	0.252168	0.365906	0.808944
	C3214	C	0.006970	0.321152	0.753630
	C3215	C	0.256927	0.258628	0.816296
	C3216	C	0.000916	0.356677	0.759919
	C3217	C	0.250935	0.294178	0.822505
	C3218	C	0.008328	0.267928	0.865250
	C3219	C	0.258357	0.330389	0.802626
	C3220	C	0.000816	0.294173	0.865114
	C3221	C	0.250656	0.356647	0.802672
	C3222	C	0.008358	0.330405	0.759867
	C3223	C	0.258209	0.267897	0.822517
	H3224	H	0.163026	0.366152	0.748065
	H3225	H	0.413062	0.303649	0.810544
	H3226	H	0.167178	0.256689	0.866879
	H3227	H	0.417445	0.319137	0.804194
	H3228	H	0.342079	0.305423	0.866628
	H3229	H	0.091969	0.367900	0.804184
	H3230	H	0.346133	0.320922	0.748203
	H3231	H	0.096000	0.258418	0.810807
	H3232	H	0.346180	0.258445	0.876965
	H3233	H	0.096309	0.320933	0.814454
	H3234	H	0.341563	0.367919	0.758333
	H3235	H	0.091955	0.305425	0.820869
	H3236	H	0.167258	0.319178	0.758222
	H3237	H	0.417206	0.256678	0.820816
	H3238	H	0.162978	0.303665	0.876769
	H3239	H	0.413153	0.366120	0.814374
	O3240	O	0.585161	0.352720	0.761306
	O3241	O	0.835603	0.290278	0.823923
	O3242	O	0.593323	0.271219	0.861383
	O3243	O	0.843314	0.333670	0.798755
	O3244	O	0.915414	0.290891	0.861353
	O3245	O	0.665198	0.353386	0.798623
	O3246	O	0.923524	0.334323	0.761315
	O3247	O	0.673527	0.271806	0.823963
	O3248	O	0.923714	0.271853	0.863901
	O3249	O	0.673327	0.334301	0.801038
	O3250	O	0.915564	0.353376	0.763685
	O3251	O	0.665579	0.290868	0.826124
	O3252	O	0.593628	0.333669	0.763711
	O3253	O	0.843502	0.271151	0.826437
	O3254	O	0.585813	0.290260	0.863573
	O3255	O	0.835248	0.352772	0.801033
	F3256	F	0.504590	0.281042	0.827818
	F3257	F	0.754746	0.343541	0.765327
	F3258	F	0.504527	0.343508	0.797166
	F3259	F	0.754691	0.281044	0.859648
	Al3260	Al	0.629715	0.281047	0.843753
	Al3261	Al	0.879917	0.343534	0.781295
	Al3262	Al	0.629592	0.343523	0.781206
	Al3263	Al	0.879942	0.281044	0.843799
	C3264	C	0.593542	0.369895	0.748984
	C3265	C	0.843643	0.307433	0.811474
	C3266	C	0.596232	0.253691	0.870490
	C3267	C	0.845909	0.316167	0.807872
	C3268	C	0.912770	0.308415	0.870374
	C3269	C	0.662690	0.370903	0.807901
	C3270	C	0.915337	0.317172	0.748880
	C3271	C	0.665144	0.254667	0.811466
	C3272	C	0.915162	0.254661	0.876091
	C3273	C	0.665205	0.317130	0.813496
	C3274	C	0.912993	0.370917	0.754616
	C3275	C	0.662883	0.308390	0.817115
	C3276	C	0.596110	0.316165	0.754649
	C3277	C	0.845958	0.253666	0.817181
	C3278	C	0.593946	0.307429	0.876054
	C3279	C	0.843525	0.369902	0.813545
	C3280	C	0.501841	0.365925	0.753686
	C3281	C	0.752006	0.303431	0.816093
	C3282	C	0.507024	0.258644	0.871401
	C3283	C	0.756788	0.321126	0.808808
	C3284	C	0.502363	0.303443	0.871336
	C3285	C	0.751766	0.365932	0.808813
	C3286	C	0.507034	0.321127	0.753723
	C3287	C	0.756861	0.258636	0.816197
	C3288	C	0.500461	0.356646	0.759885
	C3289	C	0.750785	0.294169	0.822346
	C3290	C	0.508123	0.267914	0.865133
	C3291	C	0.758028	0.330388	0.802569
	C3292	C	0.501092	0.294177	0.865024
	C3293	C	0.750439	0.356676	0.802484
	C3294	C	0.508290	0.330383	0.759983
	C3295	C	0.758204	0.267886	0.822524
	H3296	H	0.662756	0.366107	0.748024
	H3297	H	0.912968	0.303675	0.810589
	H3298	H	0.667355	0.256698	0.866855
	H3299	H	0.917231	0.319153	0.804197
	H3300	H	0.841610	0.305409	0.866737
	H3301	H	0.591491	0.367918	0.804172
	H3302	H	0.846066	0.320947	0.748008
	H3303	H	0.595949	0.258458	0.810633
	H3304	H	0.845938	0.258446	0.876994
	H3305	H	0.595917	0.320908	0.814383
	H3306	H	0.841758	0.367925	0.758281
	H3307	H	0.591851	0.305386	0.820783
	H3308	H	0.667359	0.319146	0.758319
	H3309	H	0.917087	0.256656	0.820940
	H3310	H	0.663267	0.303655	0.876898
	H3311	H	0.912756	0.366119	0.814388
	O3312	O	0.085477	0.352741	0.886279
	O3313	O	0.335446	0.290280	0.949007
	O3314	O	0.093443	0.271193	0.986299
	O3315	O	0.343415	0.333655	0.923649
	O3316	O	0.415683	0.290885	0.986315
	O3317	O	0.165327	0.353367	0.923689
	O3318	O	0.423607	0.334308	0.886373
	O3319	O	0.173489	0.271828	0.948957
	O3320	O	0.423707	0.271811	0.988580
	O3321	O	0.173453	0.334304	0.926002
	O3322	O	0.415453	0.353381	0.888875
	O3323	O	0.165501	0.290889	0.951383
	O3324	O	0.093377	0.333695	0.888623
	O3325	O	0.343467	0.271203	0.951262
	O3326	O	0.085521	0.290265	0.988729
	O3327	O	0.335298	0.352750	0.926034
	F3328	F	0.004711	0.281066	0.952858
	F3329	F	0.254589	0.343537	0.890252
	F3330	F	0.004820	0.343518	0.922159
	F3331	F	0.254569	0.281027	0.984784
	Al3332	Al	0.129646	0.281048	0.968823
	Al3333	Al	0.379487	0.343527	0.906217
	Al3334	Al	0.129698	0.343531	0.906162
	Al3335	Al	0.379610	0.281034	0.968780
	C3336	C	0.093734	0.369924	0.874029
	C3337	C	0.343547	0.307421	0.936458
	C3338	C	0.095826	0.253698	0.995495
	C3339	C	0.345943	0.316155	0.932802
	C3340	C	0.413000	0.308399	0.995435
	C3341	C	0.162652	0.370900	0.932961
	C3342	C	0.415661	0.317146	0.874011
	C3343	C	0.165042	0.254672	0.936612
	C3344	C	0.415395	0.254657	1.000953
	C3345	C	0.165140	0.317129	0.938411
	C3346	C	0.412844	0.370898	0.879622
	C3347	C	0.162737	0.308400	0.942059
	C3348	C	0.095915	0.316174	0.879546
	C3349	C	0.345945	0.253680	0.942086
	C3350	C	0.093571	0.307439	1.001006
	C3351	C	0.343479	0.369903	0.938562
	C3352	C	0.002061	0.365933	0.878675
	C3353	C	0.251853	0.303438	0.941175
	C3354	C	0.006699	0.258662	0.996399
	C3355	C	0.256833	0.321116	0.933738
	C3356	C	0.001956	0.303460	0.996257
	C3357	C	0.251794	0.365932	0.933814
	C3358	C	0.006806	0.321141	0.878638
	C3359	C	0.256776	0.258646	0.941261
	C3360	C	0.000744	0.356665	0.884889
	C3361	C	0.250671	0.294186	0.947525
	C3362	C	0.008110	0.267922	0.990166
	C3363	C	0.258102	0.330377	0.927481
	C3364	C	0.000811	0.294193	0.990075
	C3365	C	0.250560	0.356665	0.927503
	C3366	C	0.008096	0.330411	0.884836
	C3367	C	0.258176	0.267908	0.947517
	H3368	H	0.163035	0.366146	0.873111
	H3369	H	0.412709	0.303640	0.935587
	H3370	H	0.166951	0.256697	0.991880
	H3371	H	0.417085	0.319142	0.929140
	H3372	H	0.341891	0.305401	0.991809
	H3373	H	0.091418	0.367909	0.929306
	H3374	H	0.346334	0.320910	0.873134
	H3375	H	0.095782	0.258456	0.935827
	H3376	H	0.346197	0.258447	1.001829
	H3377	H	0.095820	0.320910	0.939266
	H3378	H	0.341591	0.367910	0.883265
	H3379	H	0.091470	0.305413	0.945749
	H3380	H	0.167129	0.319162	0.883173
	H3381	H	0.417137	0.256682	0.945686
	H3382	H	0.162779	0.303659	1.001911
	H3383	H	0.412826	0.366125	0.939397
	O3384	O	0.585551	0.352754	0.886549
	O3385	O	0.835254	0.290243	0.948760
	O3386	O	0.593708	0.271169	0.986107
	O3387	O	0.843255	0.333667	0.923884
	O3388	O	0.915520	0.290906	0.986155
	O3389	O	0.665319	0.353355	0.923915
	O3390	O	0.923403	0.334322	0.886323
	O3391	O	0.673627	0.271814	0.948787
	O3392	O	0.923542	0.271867	0.988841
	O3393	O	0.673241	0.334283	0.926183
	O3394	O	0.915496	0.353366	0.888742
	O3395	O	0.665251	0.290873	0.951135
	O3396	O	0.593560	0.333694	0.888814
	O3397	O	0.843654	0.271163	0.951256
	O3398	O	0.585663	0.290254	0.988513
	O3399	O	0.835373	0.352747	0.926173
	F3400	F	0.504443	0.281041	0.952779
	F3401	F	0.754599	0.343543	0.890477
	F3402	F	0.504352	0.343517	0.922245
	F3403	F	0.754664	0.281034	0.984538
	Al3404	Al	0.629450	0.281031	0.968670
	Al3405	Al	0.879759	0.343526	0.906336
	Al3406	Al	0.629510	0.343525	0.906364
	Al3407	Al	0.879805	0.281049	0.968682
	C3408	C	0.593700	0.369900	0.874031
	C3409	C	0.843499	0.307402	0.936426
	C3410	C	0.596301	0.253669	0.995466
	C3411	C	0.845900	0.316140	0.932872
	C3412	C	0.912725	0.308427	0.995339
	C3413	C	0.662812	0.370890	0.932818
	C3414	C	0.915126	0.317149	0.873990
	C3415	C	0.665262	0.254654	0.936474
	C3416	C	0.914991	0.254668	1.000974
	C3417	C	0.665180	0.317122	0.938589
	C3418	C	0.912933	0.370908	0.879673
	C3419	C	0.662776	0.308390	0.942154
	C3420	C	0.596232	0.316163	0.879739
	C3421	C	0.846026	0.253665	0.942127
	C3422	C	0.593880	0.307420	1.000990
	C3423	C	0.843546	0.369900	0.938607
	C3424	C	0.501999	0.365934	0.878739
	C3425	C	0.751795	0.303418	0.941100
	C3426	C	0.507071	0.258631	0.996245
	C3427	C	0.756807	0.321106	0.933855
	C3428	C	0.502218	0.303438	0.996274
	C3429	C	0.751915	0.365923	0.933872
	C3430	C	0.507215	0.321136	0.878749
	C3431	C	0.756983	0.258632	0.941161
	C3432	C	0.500781	0.356668	0.885057
	C3433	C	0.750536	0.294156	0.947311
	C3434	C	0.508418	0.267888	0.990009
	C3435	C	0.757998	0.330372	0.927655
	C3436	C	0.501015	0.294183	0.989988
	C3437	C	0.750608	0.356655	0.927643
	C3438	C	0.508349	0.330396	0.885002
	C3439	C	0.758351	0.267891	0.947373
	H3440	H	0.662992	0.366121	0.873183
	H3441	H	0.912733	0.303613	0.935532
	H3442	H	0.667419	0.256683	0.991903
	H3443	H	0.917150	0.319135	0.929207
	H3444	H	0.841552	0.305426	0.991718
	H3445	H	0.591683	0.367889	0.929100
	H3446	H	0.845879	0.320927	0.873130
	H3447	H	0.596075	0.258443	0.935601
	H3448	H	0.845753	0.258444	1.001798
	H3449	H	0.595948	0.320899	0.939565
	H3450	H	0.841719	0.367916	0.883341
	H3451	H	0.591568	0.305407	0.945858
	H3452	H	0.667404	0.319142	0.883449
	H3453	H	0.917273	0.256651	0.945803
	H3454	H	0.663108	0.303637	1.001822
	H3455	H	0.912832	0.366118	0.939536
	O3456	O	0.085234	0.477768	0.011489
	O3457	O	0.335711	0.415256	0.073987
	O3458	O	0.093796	0.396191	0.111276
	O3459	O	0.343575	0.458708	0.048817
	O3460	O	0.415345	0.415881	0.111253
	O3461	O	0.165632	0.478384	0.048656
	O3462	O	0.423704	0.459307	0.011358
	O3463	O	0.173830	0.396832	0.073796
	O3464	O	0.423669	0.396808	0.113625
	O3465	O	0.173538	0.459263	0.050899
	O3466	O	0.415546	0.478389	0.013629
	O3467	O	0.165757	0.415876	0.076161
	O3468	O	0.093415	0.458697	0.013650
	O3469	O	0.343682	0.396170	0.076326
	O3470	O	0.085356	0.415272	0.113485
	O3471	O	0.335617	0.477764	0.051045
	F3472	F	0.004653	0.406018	0.077770
	F3473	F	0.254546	0.468514	0.015245
	F3474	F	0.004630	0.468565	0.047185
	F3475	F	0.254614	0.406033	0.109673
	Al3476	Al	0.129721	0.406034	0.093692
	Al3477	Al	0.379499	0.468527	0.031188
	Al3478	Al	0.129685	0.468533	0.031219
	Al3479	Al	0.379576	0.406021	0.093802
	C3480	C	0.093496	0.494942	-0.000839
	C3481	C	0.343968	0.432418	0.061550
	C3482	C	0.095949	0.378662	0.120425
	C3483	C	0.346351	0.441148	0.057909
	C3484	C	0.412944	0.433408	0.120403
	C3485	C	0.163177	0.495896	0.057936
	C3486	C	0.415320	0.442126	-0.000965
	C3487	C	0.165335	0.379634	0.061518
	C3488	C	0.415315	0.379650	0.125952
	C3489	C	0.165513	0.442138	0.063391
	C3490	C	0.413054	0.495922	0.004622
	C3491	C	0.163133	0.433403	0.067054
	C3492	C	0.095987	0.441172	0.004426
	C3493	C	0.346077	0.378654	0.067124
	C3494	C	0.093428	0.432429	0.125965
	C3495	C	0.344079	0.494920	0.063363
	C3496	C	0.001777	0.490957	0.003820
	C3497	C	0.252296	0.428433	0.066199
	C3498	C	0.006991	0.383645	0.121364
	C3499	C	0.257260	0.446122	0.058765
	C3500	C	0.001749	0.428440	0.121297
	C3501	C	0.252298	0.490930	0.058765
	C3502	C	0.006745	0.446131	0.003638
	C3503	C	0.256945	0.383621	0.066230
	C3504	C	0.000556	0.481684	0.010012
	C3505	C	0.251049	0.419175	0.072470
	C3506	C	0.008571	0.392900	0.115090
	C3507	C	0.258427	0.455375	0.052463
	C3508	C	0.000652	0.419173	0.115058
	C3509	C	0.250881	0.481674	0.052505
	C3510	C	0.008175	0.455395	0.009898
	C3511	C	0.258392	0.392889	0.072435
	H3512	H	0.162843	0.491166	-0.001672
	H3513	H	0.413316	0.428647	0.060723
	H3514	H	0.167133	0.381642	0.116715
	H3515	H	0.417577	0.444132	0.054282
	H3516	H	0.341689	0.430412	0.116806
	H3517	H	0.091884	0.492904	0.054360
	H3518	H	0.346066	0.445900	-0.001841
	H3519	H	0.096048	0.383408	0.060615
	H3520	H	0.346121	0.383433	0.126782
	H3521	H	0.096200	0.445911	0.064188
	H3522	H	0.341792	0.492938	0.008302
	H3523	H	0.091920	0.430410	0.070708
	H3524	H	0.167269	0.444174	0.007994
	H3525	H	0.417343	0.381644	0.070729
	H3526	H	0.162705	0.428653	0.126869
	H3527	H	0.413399	0.491149	0.064172
	O3528	O	0.585554	0.477764	0.011448
	O3529	O	0.835233	0.415271	0.073932
	O3530	O	0.593667	0.396185	0.111340
	O3531	O	0.843382	0.458677	0.048860
	O3532	O	0.915261	0.415857	0.111341
	O3533	O	0.665289	0.478372	0.048903
	O3534	O	0.923490	0.459312	0.011435
	O3535	O	0.673546	0.396823	0.073893
	O3536	O	0.923833	0.396834	0.113717
	O3537	O	0.673379	0.459296	0.051117
	O3538	O	0.915164	0.478371	0.013640
	O3539	O	0.665261	0.415873	0.076275
	O3540	O	0.593536	0.458666	0.013850
	O3541	O	0.843416	0.396149	0.076303
	O3542	O	0.585346	0.415232	0.113719
	O3543	O	0.835285	0.477785	0.051079
	F3544	F	0.504610	0.406023	0.077917
	F3545	F	0.754623	0.468510	0.015428
	F3546	F	0.504414	0.468547	0.047121
	F3547	F	0.754716	0.406031	0.109649
	Al3548	Al	0.629698	0.406026	0.093794
	Al3549	Al	0.879784	0.468540	0.031334
	Al3550	Al	0.629533	0.468524	0.031314
	Al3551	Al	0.879877	0.406031	0.093726
	C3552	C	0.593896	0.494917	-0.000980
	C3553	C	0.843263	0.432402	0.061417
	C3554	C	0.596127	0.378655	0.120351
	C3555	C	0.845658	0.441132	0.057774
	C3556	C	0.912627	0.433412	0.120428
	C3557	C	0.662649	0.495906	0.058023
	C3558	C	0.915044	0.442145	-0.001086
	C3559	C	0.664957	0.379633	0.061608
	C3560	C	0.915265	0.379673	0.126022
	C3561	C	0.664939	0.442139	0.063427
	C3562	C	0.912645	0.495936	0.004652
	C3563	C	0.662520	0.433402	0.067092
	C3564	C	0.596140	0.441154	0.004640
	C3565	C	0.845725	0.378648	0.067191
	C3566	C	0.593767	0.432434	0.125874
	C3567	C	0.843363	0.494906	0.063592
	C3568	C	0.502180	0.490943	0.003735
	C3569	C	0.751648	0.428425	0.066154
	C3570	C	0.507007	0.383628	0.121296
	C3571	C	0.756613	0.446114	0.058745
	C3572	C	0.502085	0.428448	0.121265
	C3573	C	0.751665	0.490921	0.058936
	C3574	C	0.506954	0.446117	0.003737
	C3575	C	0.756624	0.383619	0.066202
	C3576	C	0.500875	0.481685	0.009963
	C3577	C	0.750445	0.419172	0.072446
	C3578	C	0.508375	0.392895	0.115108
	C3579	C	0.758082	0.455382	0.052579
	C3580	C	0.500682	0.419168	0.115070
	C3581	C	0.750473	0.481674	0.052658
	C3582	C	0.508305	0.455374	0.010013
	C3583	C	0.758071	0.392882	0.072450
	H3584	H	0.663134	0.491141	-0.001854
	H3585	H	0.912646	0.428637	0.060571
	H3586	H	0.667316	0.381655	0.116707
	H3587	H	0.916878	0.444112	0.054110
	H3588	H	0.841331	0.430426	0.116788
	H3589	H	0.591338	0.492928	0.054377
	H3590	H	0.845720	0.445918	-0.002043
	H3591	H	0.595601	0.383403	0.060767
	H3592	H	0.845979	0.383446	0.126842
	H3593	H	0.595704	0.445918	0.064283
	H3594	H	0.841349	0.492944	0.008233
	H3595	H	0.591299	0.430408	0.070769
	H3596	H	0.667376	0.444150	0.008290
	H3597	H	0.916913	0.381640	0.070847
	H3598	H	0.663080	0.428661	0.126708
	H3599	H	0.912689	0.491131	0.064451
	O3600	O	0.085715	0.477759	0.136483
	O3601	O	0.335507	0.415257	0.199000
	O3602	O	0.093659	0.396201	0.236255
	O3603	O	0.343418	0.458681	0.173672
	O3604	O	0.415519	0.415856	0.236397
	O3605	O	0.165670	0.478366	0.173954
	O3606	O	0.423532	0.459322	0.136335
	O3607	O	0.173821	0.396780	0.198977
	O3608	O	0.423646	0.396810	0.238753
	O3609	O	0.173554	0.459310	0.176117
	O3610	O	0.415647	0.478375	0.138722
	O3611	O	0.165510	0.415864	0.201100
	O3612	O	0.093330	0.458689	0.138817
	O3613	O	0.343747	0.396175	0.201341
	O3614	O	0.085362	0.415272	0.238543
	O3615	O	0.335703	0.477773	0.176049
	F3616	F	0.004632	0.406004	0.202792
	F3617	F	0.254625	0.468554	0.140375
	F3618	F	0.004806	0.468536	0.172290
	F3619	F	0.254462	0.406054	0.234728
	Al3620	Al	0.129687	0.406036	0.218737
	Al3621	Al	0.379679	0.468535	0.156234
	Al3622	Al	0.129687	0.468536	0.156306
	Al3623	Al	0.379577	0.406028	0.218854
	C3624	C	0.093941	0.494936	0.124061
	C3625	C	0.343783	0.432421	0.186611
	C3626	C	0.096426	0.378665	0.245342
	C3627	C	0.346130	0.441152	0.182959
	C3628	C	0.413082	0.433403	0.245445
	C3629	C	0.162921	0.495903	0.183055
	C3630	C	0.415374	0.442149	0.123989
	C3631	C	0.165482	0.379636	0.186555
	C3632	C	0.415375	0.379626	0.251028
	C3633	C	0.165218	0.442124	0.188309
	C3634	C	0.413104	0.495901	0.129645
	C3635	C	0.162868	0.433385	0.191943
	C3636	C	0.095823	0.441171	0.129588
	C3637	C	0.346478	0.378646	0.192019
	C3638	C	0.093466	0.432440	0.250892
	C3639	C	0.343745	0.494922	0.188588
	C3640	C	0.002327	0.490941	0.128738
	C3641	C	0.252096	0.428432	0.191199
	C3642	C	0.007296	0.383634	0.246266
	C3643	C	0.256978	0.446122	0.183766
	C3644	C	0.001794	0.428446	0.246300
	C3645	C	0.252061	0.490933	0.183968
	C3646	C	0.006765	0.446147	0.128622
	C3647	C	0.257299	0.383607	0.191184
	C3648	C	0.001118	0.481675	0.135005
	C3649	C	0.250787	0.419166	0.197434
	C3650	C	0.008367	0.392908	0.240092
	C3651	C	0.258209	0.455384	0.177517
	C3652	C	0.000602	0.419188	0.240008
	C3653	C	0.250919	0.481673	0.177660
	C3654	C	0.008230	0.455403	0.134894
	C3655	C	0.258617	0.392872	0.197487
	H3656	H	0.163389	0.491177	0.123206
	H3657	H	0.413219	0.428667	0.185822
	H3658	H	0.167633	0.381660	0.241670
	H3659	H	0.417428	0.444146	0.179373
	H3660	H	0.341833	0.430416	0.241874
	H3661	H	0.091679	0.492919	0.179426
	H3662	H	0.346046	0.445916	0.123172
	H3663	H	0.096249	0.383421	0.185713
	H3664	H	0.346140	0.383406	0.251903
	H3665	H	0.095979	0.445904	0.189035
	H3666	H	0.341965	0.492896	0.133268
	H3667	H	0.091677	0.430387	0.195462
	H3668	H	0.167026	0.444159	0.133262
	H3669	H	0.417538	0.381662	0.195607
	H3670	H	0.162828	0.428665	0.251667
	H3671	H	0.413107	0.491151	0.189422
	O3672	O	0.585624	0.477734	0.136332
	O3673	O	0.834890	0.415241	0.198763
	O3674	O	0.593554	0.396168	0.236277
	O3675	O	0.843310	0.458661	0.173821
	O3676	O	0.915366	0.415894	0.236186
	O3677	O	0.665154	0.478380	0.173754
	O3678	O	0.923410	0.459324	0.136349
	O3679	O	0.673370	0.396806	0.198948
	O3680	O	0.923756	0.396844	0.238785
	O3681	O	0.673388	0.459312	0.176119
	O3682	O	0.915675	0.478378	0.138843
	O3683	O	0.664927	0.415894	0.201275
	O3684	O	0.593507	0.458689	0.138741
	O3685	O	0.843351	0.396144	0.201267
	O3686	O	0.585615	0.415261	0.238550
	O3687	O	0.835103	0.477756	0.176246
	F3688	F	0.504557	0.406005	0.202910
	F3689	F	0.754864	0.468543	0.140438
	F3690	F	0.504469	0.468524	0.172133
	F3691	F	0.754696	0.406046	0.234615
	Al3692	Al	0.629625	0.406016	0.218792
	Al3693	Al	0.879945	0.468537	0.156376
	Al3694	Al	0.629646	0.468528	0.156256
	Al3695	Al	0.879876	0.406030	0.218667
	C3696	C	0.593930	0.494935	0.124144
	C3697	C	0.843326	0.432411	0.186504
	C3698	C	0.596284	0.378640	0.245439
	C3699	C	0.845676	0.441138	0.182880
	C3700	C	0.912593	0.433416	0.245441
	C3701	C	0.662540	0.495901	0.182834
	C3702	C	0.915048	0.442158	0.124032
	C3703	C	0.664763	0.379656	0.186511
	C3704	C	0.915659	0.379650	0.251032
	C3705	C	0.664836	0.442139	0.188429
	C3706	C	0.913116	0.495906	0.129612
	C3707	C	0.662475	0.433402	0.192078
	C3708	C	0.596170	0.441172	0.129466
	C3709	C	0.845644	0.378646	0.192169
	C3710	C	0.593900	0.432411	0.250944
	C3711	C	0.843410	0.494914	0.188435
	C3712	C	0.502299	0.490939	0.128780
	C3713	C	0.751624	0.428431	0.191144
	C3714	C	0.507011	0.383604	0.246273
	C3715	C	0.756519	0.446110	0.183755
	C3716	C	0.502137	0.428429	0.246327
	C3717	C	0.751684	0.490928	0.183737
	C3718	C	0.506991	0.446144	0.128607
	C3719	C	0.756541	0.383616	0.191218
	C3720	C	0.500957	0.481667	0.134957
	C3721	C	0.750234	0.419171	0.197374
	C3722	C	0.508298	0.392874	0.240076
	C3723	C	0.757951	0.455378	0.177574
	C3724	C	0.500795	0.419161	0.240111
	C3725	C	0.750372	0.481673	0.177590
	C3726	C	0.508217	0.455401	0.134894
	C3727	C	0.757955	0.392872	0.197493
	H3728	H	0.663249	0.491162	0.123290
	H3729	H	0.912666	0.428645	0.185673
	H3730	H	0.667431	0.381645	0.241807
	H3731	H	0.916989	0.444121	0.179256
	H3732	H	0.841355	0.430422	0.241835
	H3733	H	0.591244	0.492911	0.179240
	H3734	H	0.845737	0.445932	0.123186
	H3735	H	0.595671	0.383454	0.185613
	H3736	H	0.846431	0.383431	0.251920
	H3737	H	0.595664	0.445924	0.189318
	H3738	H	0.841877	0.492913	0.133268
	H3739	H	0.591415	0.430396	0.195765
	H3740	H	0.667334	0.444175	0.133071
	H3741	H	0.916864	0.381638	0.195837
	H3742	H	0.663124	0.428630	0.251772
	H3743	H	0.912739	0.491141	0.189305
	O3744	O	0.085483	0.477757	0.261440
	O3745	O	0.335228	0.415244	0.323949
	O3746	O	0.093494	0.396175	0.361289
	O3747	O	0.343595	0.458659	0.298744
	O3748	O	0.415554	0.415893	0.361188
	O3749	O	0.165630	0.478380	0.298682
	O3750	O	0.423822	0.459292	0.261496
	O3751	O	0.173494	0.396814	0.324050
	O3752	O	0.423692	0.396804	0.363613
	O3753	O	0.173595	0.459289	0.300982
	O3754	O	0.415627	0.478377	0.263751
	O3755	O	0.165300	0.415896	0.326370
	O3756	O	0.093577	0.458691	0.263744
	O3757	O	0.343450	0.396190	0.326247
	O3758	O	0.085351	0.415254	0.363694
	O3759	O	0.335588	0.477750	0.301110
	F3760	F	0.004844	0.406029	0.327882
	F3761	F	0.254706	0.468531	0.265340
	F3762	F	0.004907	0.468543	0.297263
	F3763	F	0.254661	0.406039	0.359746
	Al3764	Al	0.129685	0.406039	0.343839
	Al3765	Al	0.379791	0.468530	0.281271
	Al3766	Al	0.129805	0.468527	0.281250
	Al3767	Al	0.379688	0.406027	0.343775
	C3768	C	0.093721	0.494933	0.249138
	C3769	C	0.343875	0.432404	0.311551
	C3770	C	0.096283	0.378660	0.370526
	C3771	C	0.346120	0.441133	0.307862
	C3772	C	0.412927	0.433396	0.370484
	C3773	C	0.163061	0.495894	0.307923
	C3774	C	0.415647	0.442144	0.249057
	C3775	C	0.165192	0.379645	0.311543
	C3776	C	0.415460	0.379637	0.375994
	C3777	C	0.165253	0.442129	0.313280
	C3778	C	0.413030	0.495889	0.254586
	C3779	C	0.163004	0.433397	0.316979
	C3780	C	0.095967	0.441176	0.254503
	C3781	C	0.345955	0.378673	0.317089
	C3782	C	0.093721	0.432434	0.375875
	C3783	C	0.343869	0.494916	0.313423
	C3784	C	0.002048	0.490945	0.253797
	C3785	C	0.252098	0.428425	0.316186
	C3786	C	0.007065	0.383619	0.371368
	C3787	C	0.256984	0.446104	0.308690
	C3788	C	0.002013	0.428438	0.371294
	C3789	C	0.252236	0.490927	0.308760
	C3790	C	0.006879	0.446142	0.253660
	C3791	C	0.256861	0.383637	0.316150
	C3792	C	0.000757	0.481677	0.259999
	C3793	C	0.250584	0.419172	0.322491
	C3794	C	0.008295	0.392883	0.365133
	C3795	C	0.258266	0.455368	0.302473
	C3796	C	0.000717	0.419171	0.365096
	C3797	C	0.250887	0.481665	0.302549
	C3798	C	0.008262	0.455403	0.259943
	C3799	C	0.258128	0.392901	0.322464
	H3800	H	0.162987	0.491161	0.248258
	H3801	H	0.413176	0.428629	0.310750
	H3802	H	0.167468	0.381656	0.366917
	H3803	H	0.417329	0.444116	0.304224
	H3804	H	0.341729	0.430405	0.366851
	H3805	H	0.091810	0.492889	0.304350
	H3806	H	0.346368	0.445921	0.248243
	H3807	H	0.095975	0.383430	0.310707
	H3808	H	0.346250	0.383416	0.376893
	H3809	H	0.095987	0.445902	0.314077
	H3810	H	0.341791	0.492904	0.258255
	H3811	H	0.091792	0.430405	0.320626
	H3812	H	0.167246	0.444169	0.258065
	H3813	H	0.417096	0.381668	0.320773
	H3814	H	0.163057	0.428664	0.376732
	H3815	H	0.413212	0.491145	0.314258
	O3816	O	0.585558	0.477751	0.261419
	O3817	O	0.835193	0.415239	0.323899
	O3818	O	0.593601	0.396182	0.361262
	O3819	O	0.843338	0.458641	0.298742
	O3820	O	0.915379	0.415855	0.361387
	O3821	O	0.665425	0.478382	0.298755
	O3822	O	0.923679	0.459326	0.261407
	O3823	O	0.673555	0.396777	0.323939
	O3824	O	0.923518	0.396803	0.363712
	O3825	O	0.673413	0.459291	0.301146
	O3826	O	0.915474	0.478380	0.263776
	O3827	O	0.665230	0.415852	0.326104
	O3828	O	0.593835	0.458695	0.263647
	O3829	O	0.843500	0.396156	0.326233
	O3830	O	0.585550	0.415267	0.363460
	O3831	O	0.835408	0.477750	0.301250
	F3832	F	0.504605	0.406011	0.327824
	F3833	F	0.754923	0.468534	0.265450
	F3834	F	0.504694	0.468525	0.297194
	F3835	F	0.754665	0.406036	0.359603
	Al3836	Al	0.629684	0.406020	0.343734
	Al3837	Al	0.879983	0.468542	0.281363
	Al3838	Al	0.629712	0.468531	0.281268
	Al3839	Al	0.879825	0.406020	0.343731
	C3840	C	0.593826	0.494919	0.249048
	C3841	C	0.843391	0.432402	0.311572
	C3842	C	0.596209	0.378639	0.370265
	C3843	C	0.845686	0.441130	0.307973
	C3844	C	0.912926	0.433416	0.370337
	C3845	C	0.662681	0.495894	0.307947
	C3846	C	0.915125	0.442153	0.249069
	C3847	C	0.665167	0.379637	0.311425
	C3848	C	0.915401	0.379634	0.376060
	C3849	C	0.664811	0.442116	0.313458
	C3850	C	0.912814	0.495914	0.254644
	C3851	C	0.662505	0.433373	0.317057
	C3852	C	0.596418	0.441151	0.254563
	C3853	C	0.845913	0.378637	0.317087
	C3854	C	0.593805	0.432430	0.375926
	C3855	C	0.843500	0.494916	0.313517
	C3856	C	0.502148	0.490919	0.253668
	C3857	C	0.751684	0.428415	0.316185
	C3858	C	0.507121	0.383613	0.371238
	C3859	C	0.756539	0.446100	0.308819
	C3860	C	0.502131	0.428436	0.371291
	C3861	C	0.751843	0.490934	0.308834
	C3862	C	0.507390	0.446124	0.253660
	C3863	C	0.756868	0.383610	0.316114
	C3864	C	0.500887	0.481670	0.259962
	C3865	C	0.750466	0.419151	0.322388
	C3866	C	0.508368	0.392878	0.365012
	C3867	C	0.758045	0.455361	0.302584
	C3868	C	0.500848	0.419182	0.364985
	C3869	C	0.750677	0.481669	0.302617
	C3870	C	0.508619	0.455390	0.259900
	C3871	C	0.758257	0.392864	0.322438
	H3872	H	0.663210	0.491156	0.248230
	H3873	H	0.912748	0.428636	0.310716
	H3874	H	0.667408	0.381628	0.366573
	H3875	H	0.916970	0.444126	0.304381
	H3876	H	0.841725	0.430424	0.366711
	H3877	H	0.591504	0.492897	0.304296
	H3878	H	0.845834	0.445929	0.248284
	H3879	H	0.595900	0.383417	0.310487
	H3880	H	0.846068	0.383405	0.376933
	H3881	H	0.595544	0.445894	0.314277
	H3882	H	0.841585	0.492913	0.258247
	H3883	H	0.591347	0.430372	0.320654
	H3884	H	0.667703	0.444138	0.258173
	H3885	H	0.917130	0.381622	0.320757
	H3886	H	0.663170	0.428662	0.376713
	H3887	H	0.912820	0.491139	0.314372
	O3888	O	0.085326	0.477768	0.386403
	O3889	O	0.335229	0.415217	0.448775
	O3890	O	0.093762	0.396194	0.486381
	O3891	O	0.343450	0.458666	0.423697
	O3892	O	0.415249	0.415880	0.486041
	O3893	O	0.165473	0.478393	0.423657
	O3894	O	0.423743	0.459304	0.386500
	O3895	O	0.173533	0.396767	0.449057
	O3896	O	0.423857	0.396783	0.488448
	O3897	O	0.173509	0.459301	0.426018
	O3898	O	0.415490	0.478379	0.388849
	O3899	O	0.165398	0.415890	0.451324
	O3900	O	0.093803	0.458697	0.388568
	O3901	O	0.343494	0.396148	0.451316
	O3902	O	0.085330	0.415252	0.488616
	O3903	O	0.335331	0.477750	0.426111
	F3904	F	0.004950	0.406029	0.452859
	F3905	F	0.254730	0.468548	0.390297
	F3906	F	0.004771	0.468528	0.422121
	F3907	F	0.254804	0.406024	0.484695
	Al3908	Al	0.129795	0.406025	0.468825
	Al3909	Al	0.379653	0.468532	0.406315
	Al3910	Al	0.129772	0.468531	0.406175
	Al3911	Al	0.379667	0.406026	0.468703
	C3912	C	0.093579	0.494939	0.374040
	C3913	C	0.343632	0.432411	0.436542
	C3914	C	0.096048	0.378670	0.495443
	C3915	C	0.345906	0.441146	0.432974
	C3916	C	0.413017	0.433395	0.495289
	C3917	C	0.162748	0.495892	0.433045
	C3918	C	0.415394	0.442136	0.374152
	C3919	C	0.165263	0.379608	0.436538
	C3920	C	0.415728	0.379633	0.500902
	C3921	C	0.164987	0.442131	0.438386
	C3922	C	0.413057	0.495904	0.379668
	C3923	C	0.162741	0.433390	0.441971
	C3924	C	0.096157	0.441179	0.379446
	C3925	C	0.346111	0.378632	0.442087
	C3926	C	0.093453	0.432420	0.500852
	C3927	C	0.343701	0.494921	0.438376
	C3928	C	0.001884	0.490952	0.378648
	C3929	C	0.251951	0.428429	0.441172
	C3930	C	0.007056	0.383647	0.496414
	C3931	C	0.256750	0.446113	0.433773
	C3932	C	0.001753	0.428427	0.496293
	C3933	C	0.251981	0.490924	0.433754
	C3934	C	0.007067	0.446143	0.378530
	C3935	C	0.256968	0.383596	0.441176
	C3936	C	0.000750	0.481687	0.384891
	C3937	C	0.250685	0.419165	0.447431
	C3938	C	0.008445	0.392906	0.490181
	C3939	C	0.258161	0.455374	0.427480
	C3940	C	0.000458	0.419167	0.490065
	C3941	C	0.250694	0.481678	0.427499
	C3942	C	0.008566	0.455401	0.384836
	C3943	C	0.258244	0.392855	0.447496
	H3944	H	0.162886	0.491166	0.373170
	H3945	H	0.412887	0.428637	0.435695
	H3946	H	0.167274	0.381654	0.491762
	H3947	H	0.417177	0.444144	0.429388
	H3948	H	0.341755	0.430404	0.491670
	H3949	H	0.091379	0.492908	0.429495
	H3950	H	0.346176	0.445911	0.373330
	H3951	H	0.095984	0.383385	0.435736
	H3952	H	0.346438	0.383409	0.501711
	H3953	H	0.095673	0.445907	0.439202
	H3954	H	0.341872	0.492913	0.383336
	H3955	H	0.091539	0.430395	0.445523
	H3956	H	0.167401	0.444168	0.383055
	H3957	H	0.417282	0.381629	0.445733
	H3958	H	0.162767	0.428646	0.501654
	H3959	H	0.413170	0.491159	0.439200
	O3960	O	0.585459	0.477752	0.386470
	O3961	O	0.835292	0.415259	0.448788
	O3962	O	0.593818	0.396170	0.486061
	O3963	O	0.843616	0.458654	0.423650
	O3964	O	0.915152	0.415856	0.486308
	O3965	O	0.665257	0.478388	0.423740
	O3966	O	0.923832	0.459326	0.386303
	O3967	O	0.673687	0.396818	0.448750
	O3968	O	0.923765	0.396820	0.488662
	O3969	O	0.673691	0.459306	0.426069
	O3970	O	0.915297	0.478390	0.388671
	O3971	O	0.665334	0.415886	0.451130
	O3972	O	0.593741	0.458669	0.388888
	O3973	O	0.843563	0.396138	0.451234
	O3974	O	0.585330	0.415213	0.488526
	O3975	O	0.835224	0.477761	0.426139
	F3976	F	0.504585	0.406027	0.452692
	F3977	F	0.754690	0.468552	0.390382
	F3978	F	0.504618	0.468515	0.422260
	F3979	F	0.754676	0.406026	0.484503
	Al3980	Al	0.629702	0.406032	0.468581
	Al3981	Al	0.879983	0.468544	0.406236
	Al3982	Al	0.629671	0.468520	0.406314
	Al3983	Al	0.879944	0.406024	0.468684
	C3984	C	0.593868	0.494913	0.374101
	C3985	C	0.843836	0.432411	0.436506
	C3986	C	0.596567	0.378645	0.495420
	C3987	C	0.846236	0.441148	0.432907
	C3988	C	0.912577	0.433396	0.495403
	C3989	C	0.662796	0.495898	0.432935
	C3990	C	0.915358	0.442160	0.373889
	C3991	C	0.665036	0.379626	0.436459
	C3992	C	0.915255	0.379661	0.500958
	C3993	C	0.665339	0.442140	0.438359
	C3994	C	0.912719	0.495922	0.379542
	C3995	C	0.662904	0.433408	0.441946
	C3996	C	0.596260	0.441168	0.379611
	C3997	C	0.845885	0.378643	0.442060
	C3998	C	0.593822	0.432404	0.500853
	C3999	C	0.843672	0.494917	0.438466
	C4000	C	0.502122	0.490927	0.378741
	C4001	C	0.752054	0.428436	0.441114
	C4002	C	0.507441	0.383610	0.496212
	C4003	C	0.757048	0.446112	0.433722
	C4004	C	0.502149	0.428437	0.496125
	C4005	C	0.751941	0.490929	0.433799
	C4006	C	0.507056	0.446121	0.378825
	C4007	C	0.756765	0.383607	0.441124
	C4008	C	0.500756	0.481673	0.385056
	C4009	C	0.750586	0.419177	0.447331
	C4010	C	0.508626	0.392869	0.489878
	C4011	C	0.758323	0.455376	0.427483
	C4012	C	0.500665	0.419154	0.489879
	C4013	C	0.750493	0.481675	0.427563
	C4014	C	0.508427	0.455381	0.385069
	C4015	C	0.758220	0.392871	0.447376
	H4016	H	0.663146	0.491133	0.373280
	H4017	H	0.913115	0.428630	0.435686
	H4018	H	0.667874	0.381630	0.491809
	H4019	H	0.917434	0.444137	0.429324
	H4020	H	0.841369	0.430401	0.491761
	H4021	H	0.591497	0.492911	0.429344
	H4022	H	0.846068	0.445932	0.373070
	H4023	H	0.595815	0.383414	0.435585
	H4024	H	0.846034	0.383446	0.501783
	H4025	H	0.596076	0.445918	0.439212
	H4026	H	0.841485	0.492932	0.383175
	H4027	H	0.591670	0.430409	0.445534
	H4028	H	0.667475	0.444166	0.383169
	H4029	H	0.917017	0.381642	0.445737
	H4030	H	0.663037	0.428618	0.501710
	H4031	H	0.913023	0.491149	0.439320
	O4032	O	0.085308	0.477745	0.511242
	O4033	O	0.335541	0.415246	0.573952
	O4034	O	0.093559	0.396167	0.611198
	O4035	O	0.343563	0.458661	0.548573
	O4036	O	0.415506	0.415849	0.611380
	O4037	O	0.165610	0.478374	0.548641
	O4038	O	0.423647	0.459287	0.511376
	O4039	O	0.173798	0.396790	0.573953
	O4040	O	0.423806	0.396846	0.613813
	O4041	O	0.173664	0.459302	0.550887
	O4042	O	0.415636	0.478369	0.513666
	O4043	O	0.165605	0.415882	0.576277
	O4044	O	0.093611	0.458686	0.513664
	O4045	O	0.343692	0.396153	0.576398
	O4046	O	0.085266	0.415222	0.613651
	O4047	O	0.335592	0.477759	0.550901
	F4048	F	0.004888	0.406038	0.577719
	F4049	F	0.254791	0.468552	0.515163
	F4050	F	0.004911	0.468510	0.547093
	F4051	F	0.254661	0.406008	0.609715
	Al4052	Al	0.129771	0.406026	0.593731
	Al4053	Al	0.379655	0.468514	0.531156
	Al4054	Al	0.129839	0.468531	0.531069
	Al4055	Al	0.379708	0.406019	0.593777
	C4056	C	0.093468	0.494937	0.499042
	C4057	C	0.343900	0.432420	0.561546
	C4058	C	0.095774	0.378673	0.620543
	C4059	C	0.346092	0.441152	0.557897
	C4060	C	0.412799	0.433383	0.620475
	C4061	C	0.163055	0.495898	0.557937
	C4062	C	0.415596	0.442124	0.498960
	C4063	C	0.165292	0.379623	0.561602
	C4064	C	0.415242	0.379639	0.625996
	C4065	C	0.165211	0.442131	0.563281
	C4066	C	0.412835	0.495884	0.504400
	C4067	C	0.162985	0.433391	0.566911
	C4068	C	0.095936	0.441158	0.504486
	C4069	C	0.346089	0.378626	0.567090
	C4070	C	0.093838	0.432428	0.625875
	C4071	C	0.343837	0.494904	0.563442
	C4072	C	0.001796	0.490941	0.503671
	C4073	C	0.252178	0.428427	0.566119
	C4074	C	0.006689	0.383643	0.621447
	C4075	C	0.256932	0.446119	0.558694
	C4076	C	0.002156	0.428438	0.621155
	C4077	C	0.252112	0.490917	0.558783
	C4078	C	0.006872	0.446130	0.503627
	C4079	C	0.257040	0.383598	0.566318
	C4080	C	0.000562	0.481670	0.509872
	C4081	C	0.250892	0.419169	0.572445
	C4082	C	0.008172	0.392890	0.615048
	C4083	C	0.258299	0.455374	0.552384
	C4084	C	0.000603	0.419176	0.614999
	C4085	C	0.250826	0.481667	0.552448
	C4086	C	0.008231	0.455391	0.509847
	C4087	C	0.258429	0.392860	0.572556
	H4088	H	0.162767	0.491163	0.498135
	H4089	H	0.413344	0.428661	0.560762
	H4090	H	0.166962	0.381657	0.616869
	H4091	H	0.417377	0.444144	0.554300
	H4092	H	0.341539	0.430398	0.616862
	H4093	H	0.091791	0.492916	0.554267
	H4094	H	0.346199	0.445882	0.498139
	H4095	H	0.096076	0.383403	0.560745
	H4096	H	0.345947	0.383408	0.626932
	H4097	H	0.095881	0.445907	0.564049
	H4098	H	0.341661	0.492881	0.507990
	H4099	H	0.091851	0.430397	0.570530
	H4100	H	0.167218	0.444142	0.508091
	H4101	H	0.417466	0.381596	0.570640
	H4102	H	0.163146	0.428651	0.626752
	H4103	H	0.413160	0.491134	0.564199
	O4104	O	0.585639	0.477757	0.511512
	O4105	O	0.835111	0.415246	0.573686
	O4106	O	0.593650	0.396171	0.611207
	O4107	O	0.843542	0.458638	0.548712
	O4108	O	0.915309	0.415890	0.611180
	O4109	O	0.665308	0.478351	0.548827
	O4110	O	0.923610	0.459330	0.511221
	O4111	O	0.673293	0.396783	0.573898
	O4112	O	0.923649	0.396839	0.613571
	O4113	O	0.673577	0.459300	0.551158
	O4114	O	0.915334	0.478368	0.513715
	O4115	O	0.665204	0.415872	0.576200
	O4116	O	0.593580	0.458662	0.513841
	O4117	O	0.843308	0.396167	0.576103
	O4118	O	0.585561	0.415274	0.613445
	O4119	O	0.835287	0.477731	0.551165
	F4120	F	0.504533	0.406014	0.577873
	F4121	F	0.754549	0.468527	0.515432
	F4122	F	0.504428	0.468493	0.547174
	F4123	F	0.754778	0.406012	0.609509
	Al4124	Al	0.629648	0.406019	0.593710
	Al4125	Al	0.879880	0.468522	0.531277
	Al4126	Al	0.629583	0.468514	0.531326
	Al4127	Al	0.879959	0.406045	0.593579
	C4128	C	0.593700	0.494920	0.499011
	C4129	C	0.843459	0.432399	0.561399
	C4130	C	0.595989	0.378654	0.620334
	C4131	C	0.845863	0.441130	0.557854
	C4132	C	0.912946	0.433408	0.620273
	C4133	C	0.662737	0.495883	0.557982
	C4134	C	0.915087	0.442137	0.499036
	C4135	C	0.665194	0.379630	0.561508
	C4136	C	0.914996	0.379655	0.626129
	C4137	C	0.665065	0.442143	0.563527
	C4138	C	0.912615	0.495913	0.504595
	C4139	C	0.662717	0.433401	0.567076
	C4140	C	0.596220	0.441137	0.504529
	C4141	C	0.845945	0.378636	0.567074
	C4142	C	0.593698	0.432408	0.625905
	C4143	C	0.843619	0.494911	0.563395
	C4144	C	0.502069	0.490925	0.503613
	C4145	C	0.751748	0.428422	0.566053
	C4146	C	0.506858	0.383628	0.621289
	C4147	C	0.756749	0.446112	0.558802
	C4148	C	0.501988	0.428420	0.621309
	C4149	C	0.751947	0.490917	0.558767
	C4150	C	0.507176	0.446113	0.503657
	C4151	C	0.756863	0.383610	0.566122
	C4152	C	0.500921	0.481673	0.509978
	C4153	C	0.750392	0.419162	0.572309
	C4154	C	0.508340	0.392894	0.615111
	C4155	C	0.758188	0.455365	0.552556
	C4156	C	0.500741	0.419166	0.615037
	C4157	C	0.750601	0.481648	0.552586
	C4158	C	0.508374	0.455371	0.509959
	C4159	C	0.758025	0.392871	0.572368
	H4160	H	0.663075	0.491150	0.498224
	H4161	H	0.912781	0.428623	0.560515
	H4162	H	0.667203	0.381642	0.616670
	H4163	H	0.917072	0.444117	0.554223
	H4164	H	0.841678	0.430420	0.616633
	H4165	H	0.591487	0.492883	0.554439
	H4166	H	0.845769	0.445909	0.498221
	H4167	H	0.595885	0.383396	0.560679
	H4168	H	0.845640	0.383418	0.626936
	H4169	H	0.595901	0.445931	0.564453
	H4170	H	0.841387	0.492919	0.508202
	H4171	H	0.591524	0.430411	0.570736
	H4172	H	0.667519	0.444103	0.508169
	H4173	H	0.917188	0.381617	0.570743
	H4174	H	0.663106	0.428643	0.626721
	H4175	H	0.912999	0.491144	0.564246
	O4176	O	0.085609	0.477780	0.636541
	O4177	O	0.335583	0.415244	0.698829
	O4178	O	0.093822	0.396194	0.736257
	O4179	O	0.343646	0.458670	0.673724
	O4180	O	0.415533	0.415886	0.736102
	O4181	O	0.165462	0.478382	0.673767
	O4182	O	0.423485	0.459310	0.636267
	O4183	O	0.173626	0.396804	0.698900
	O4184	O	0.423717	0.396789	0.738504
	O4185	O	0.173676	0.459269	0.675996
	O4186	O	0.415442	0.478365	0.638598
	O4187	O	0.165554	0.415861	0.701033
	O4188	O	0.093356	0.458676	0.638902
	O4189	O	0.343600	0.396166	0.701284
	O4190	O	0.085368	0.415272	0.738419
	O4191	O	0.335475	0.477727	0.676084
	F4192	F	0.004643	0.406027	0.702717
	F4193	F	0.254343	0.468525	0.640291
	F4194	F	0.004527	0.468523	0.672264
	F4195	F	0.254542	0.406043	0.734619
	Al4196	Al	0.129566	0.406029	0.718657
	Al4197	Al	0.379513	0.468514	0.656172
	Al4198	Al	0.129450	0.468527	0.656307
	Al4199	Al	0.379579	0.406029	0.718704
	C4200	C	0.093564	0.494934	0.624176
	C4201	C	0.343845	0.432391	0.686378
	C4202	C	0.096125	0.378668	0.745330
	C4203	C	0.346227	0.441129	0.682783
	C4204	C	0.412994	0.433385	0.745350
	C4205	C	0.163288	0.495886	0.683045
	C4206	C	0.415246	0.442128	0.624072
	C4207	C	0.165388	0.379638	0.686483
	C4208	C	0.415443	0.379642	0.751104
	C4209	C	0.165456	0.442123	0.688448
	C4210	C	0.413156	0.495894	0.629495
	C4211	C	0.163039	0.433390	0.692048
	C4212	C	0.096322	0.441168	0.629543
	C4213	C	0.346102	0.378650	0.692089
	C4214	C	0.093614	0.432420	0.750887
	C4215	C	0.344207	0.494898	0.688307
	C4216	C	0.001850	0.490943	0.628755
	C4217	C	0.252110	0.428416	0.691069
	C4218	C	0.007134	0.383647	0.746374
	C4219	C	0.257155	0.446101	0.683745
	C4220	C	0.001879	0.428437	0.746223
	C4221	C	0.252431	0.490910	0.683756
	C4222	C	0.007183	0.446129	0.628643
	C4223	C	0.257077	0.383623	0.691187
	C4224	C	0.000719	0.481684	0.635025
	C4225	C	0.250856	0.419156	0.697303
	C4226	C	0.008571	0.392909	0.740129
	C4227	C	0.258447	0.455362	0.677494
	C4228	C	0.000655	0.419178	0.739956
	C4229	C	0.250856	0.481655	0.677538
	C4230	C	0.008091	0.455381	0.634941
	C4231	C	0.258323	0.392881	0.697454
	H4232	H	0.162924	0.491163	0.623413
	H4233	H	0.412979	0.428612	0.685481
	H4234	H	0.167315	0.381652	0.741631
	H4235	H	0.417378	0.444111	0.679115
	H4236	H	0.341743	0.430405	0.741687
	H4237	H	0.091843	0.492905	0.679564
	H4238	H	0.346027	0.445907	0.623207
	H4239	H	0.096021	0.383403	0.685594
	H4240	H	0.346233	0.383417	0.752012
	H4241	H	0.096123	0.445904	0.689351
	H4242	H	0.341914	0.492907	0.633146
	H4243	H	0.091802	0.430407	0.695722
	H4244	H	0.167457	0.444160	0.633207
	H4245	H	0.417367	0.381609	0.695792
	H4246	H	0.162935	0.428647	0.751705
	H4247	H	0.413540	0.491131	0.689081
	O4248	O	0.585339	0.477727	0.636235
	O4249	O	0.835018	0.415254	0.698850
	O4250	O	0.593684	0.396178	0.736336
	O4251	O	0.843325	0.458648	0.673740
	O4252	O	0.915293	0.415872	0.736229
	O4253	O	0.665046	0.478369	0.673734
	O4254	O	0.923422	0.459306	0.636317
	O4255	O	0.673307	0.396811	0.698873
	O4256	O	0.923835	0.396835	0.738680
	O4257	O	0.673387	0.459292	0.675998
	O4258	O	0.915534	0.478377	0.638774
	O4259	O	0.665076	0.415883	0.701280
	O4260	O	0.593424	0.458678	0.638647
	O4261	O	0.843184	0.396142	0.701292
	O4262	O	0.585449	0.415215	0.738731
	O4263	O	0.834912	0.477760	0.676080
	F4264	F	0.504572	0.406043	0.702856
	F4265	F	0.754678	0.468520	0.640369
	F4266	F	0.504570	0.468514	0.672038
	F4267	F	0.754747	0.406022	0.734628
	Al4268	Al	0.629574	0.406020	0.718771
	Al4269	Al	0.879731	0.468529	0.656321
	Al4270	Al	0.629544	0.468520	0.656139
	Al4271	Al	0.879690	0.406030	0.718663
	C4272	C	0.593900	0.494900	0.623910
	C4273	C	0.843260	0.432405	0.686475
	C4274	C	0.596116	0.378636	0.745417
	C4275	C	0.845609	0.441142	0.682863
	C4276	C	0.912785	0.433418	0.745356
	C4277	C	0.662333	0.495908	0.682918
	C4278	C	0.915444	0.442143	0.623929
	C4279	C	0.664662	0.379623	0.686596
	C4280	C	0.915425	0.379661	0.751015
	C4281	C	0.664756	0.442125	0.688435
	C4282	C	0.912588	0.495913	0.629571
	C4283	C	0.662330	0.433396	0.692034
	C4284	C	0.596161	0.441149	0.629514
	C4285	C	0.845465	0.378625	0.692165
	C4286	C	0.593797	0.432414	0.750891
	C4287	C	0.843168	0.494900	0.688542
	C4288	C	0.502170	0.490906	0.628549
	C4289	C	0.751568	0.428430	0.691195
	C4290	C	0.507145	0.383620	0.746403
	C4291	C	0.756479	0.446110	0.683808
	C4292	C	0.502155	0.428419	0.746275
	C4293	C	0.751393	0.490918	0.683819
	C4294	C	0.506905	0.446112	0.628722
	C4295	C	0.756335	0.383601	0.691281
	C4296	C	0.500727	0.481655	0.634803
	C4297	C	0.750313	0.419174	0.697445
	C4298	C	0.508443	0.392883	0.740112
	C4299	C	0.758004	0.455367	0.677522
	C4300	C	0.500843	0.419154	0.740042
	C4301	C	0.750195	0.481672	0.677543
	C4302	C	0.508138	0.455378	0.634914
	C4303	C	0.757827	0.392864	0.697485
	H4304	H	0.663235	0.491127	0.623028
	H4305	H	0.912499	0.428627	0.685566
	H4306	H	0.667399	0.381613	0.741741
	H4307	H	0.916856	0.444136	0.679196
	H4308	H	0.841493	0.430434	0.741727
	H4309	H	0.590959	0.492936	0.679261
	H4310	H	0.846159	0.445924	0.623101
	H4311	H	0.595300	0.383382	0.685726
	H4312	H	0.846071	0.383429	0.751874
	H4313	H	0.595486	0.445895	0.689254
	H4314	H	0.841330	0.492918	0.633175
	H4315	H	0.591166	0.430405	0.695643
	H4316	H	0.667417	0.444148	0.633067
	H4317	H	0.916713	0.381598	0.695807
	H4318	H	0.663262	0.428654	0.751666
	H4319	H	0.912550	0.491130	0.689395
	O4320	O	0.085545	0.477789	0.761535
	O4321	O	0.335364	0.415246	0.823866
	O4322	O	0.093670	0.396196	0.861431
	O4323	O	0.343319	0.458668	0.798707
	O4324	O	0.415423	0.415868	0.861270
	O4325	O	0.165633	0.478369	0.798880
	O4326	O	0.423491	0.459286	0.761422
	O4327	O	0.173455	0.396790	0.823925
	O4328	O	0.423509	0.396785	0.863474
	O4329	O	0.173403	0.459293	0.801039
	O4330	O	0.415484	0.478361	0.763727
	O4331	O	0.165437	0.415883	0.826374
	O4332	O	0.093638	0.458695	0.763590
	O4333	O	0.343406	0.396205	0.826134
	O4334	O	0.085494	0.415260	0.863530
	O4335	O	0.335474	0.477747	0.801104
	F4336	F	0.004660	0.406029	0.827852
	F4337	F	0.254528	0.468547	0.765321
	F4338	F	0.004672	0.468507	0.797128
	F4339	F	0.254727	0.406008	0.859690
	Al4340	Al	0.129743	0.406017	0.843810
	Al4341	Al	0.379644	0.468526	0.781258
	Al4342	Al	0.129646	0.468532	0.781241
	Al4343	Al	0.379536	0.406025	0.843669
	C4344	C	0.093773	0.494924	0.749042
	C4345	C	0.343633	0.432411	0.811543
	C4346	C	0.096113	0.378666	0.870515
	C4347	C	0.345946	0.441149	0.807913
	C4348	C	0.413045	0.433405	0.870289
	C4349	C	0.162824	0.495895	0.807971
	C4350	C	0.415355	0.442125	0.749047
	C4351	C	0.165456	0.379629	0.811573
	C4352	C	0.415329	0.379630	0.875975
	C4353	C	0.165079	0.442114	0.813365
	C4354	C	0.412888	0.495887	0.754511
	C4355	C	0.162762	0.433386	0.817012
	C4356	C	0.096106	0.441161	0.754533
	C4357	C	0.346184	0.378640	0.817181
	C4358	C	0.093364	0.432426	0.875947
	C4359	C	0.343683	0.494922	0.813435
	C4360	C	0.002005	0.490941	0.753668
	C4361	C	0.251916	0.428424	0.816177
	C4362	C	0.007080	0.383638	0.871494
	C4363	C	0.256765	0.446108	0.808767
	C4364	C	0.001781	0.428427	0.871295
	C4365	C	0.252084	0.490921	0.808766
	C4366	C	0.007070	0.446139	0.753557
	C4367	C	0.257073	0.383613	0.816296
	C4368	C	0.000822	0.481678	0.759918
	C4369	C	0.250664	0.419168	0.822475
	C4370	C	0.008360	0.392900	0.865242
	C4371	C	0.258044	0.455373	0.802511
	C4372	C	0.000714	0.419166	0.865099
	C4373	C	0.250893	0.481668	0.802583
	C4374	C	0.008414	0.455402	0.759748
	C4375	C	0.258213	0.392883	0.822453
	H4376	H	0.163085	0.491150	0.748227
	H4377	H	0.412900	0.428636	0.810713
	H4378	H	0.167290	0.381658	0.866883
	H4379	H	0.417082	0.444152	0.804298
	H4380	H	0.341841	0.430424	0.866578
	H4381	H	0.091536	0.492897	0.804455
	H4382	H	0.346053	0.445892	0.748249
	H4383	H	0.096214	0.383411	0.810650
	H4384	H	0.346000	0.383396	0.876827
	H4385	H	0.095676	0.445884	0.814168
	H4386	H	0.341642	0.492897	0.758105
	H4387	H	0.091460	0.430396	0.820632
	H4388	H	0.167315	0.444145	0.758195
	H4389	H	0.417400	0.381642	0.820789
	H4390	H	0.162804	0.428661	0.876794
	H4391	H	0.413100	0.491165	0.814292
	O4392	O	0.585481	0.477764	0.761437
	O4393	O	0.835313	0.415251	0.823858
	O4394	O	0.593451	0.396162	0.861148
	O4395	O	0.843224	0.458629	0.798591
	O4396	O	0.915364	0.415863	0.861391
	O4397	O	0.665399	0.478383	0.798647
	O4398	O	0.923670	0.459325	0.761171
	O4399	O	0.673541	0.396793	0.823907
	O4400	O	0.923761	0.396834	0.863824
	O4401	O	0.673283	0.459282	0.801017
	O4402	O	0.915489	0.478375	0.763675
	O4403	O	0.665315	0.415875	0.826248
	O4404	O	0.593502	0.458660	0.763784
	O4405	O	0.843574	0.396150	0.826294
	O4406	O	0.585447	0.415247	0.863516
	O4407	O	0.835446	0.477772	0.801011
	F4408	F	0.504578	0.406050	0.827777
	F4409	F	0.754662	0.468535	0.765326
	F4410	F	0.504652	0.468511	0.797152
	F4411	F	0.754628	0.406018	0.859567
	Al4412	Al	0.629576	0.406024	0.843708
	Al4413	Al	0.879868	0.468519	0.781197
	Al4414	Al	0.629551	0.468517	0.781186
	Al4415	Al	0.879957	0.406028	0.843739
	C4416	C	0.593809	0.494909	0.749112
	C4417	C	0.843471	0.432393	0.811384
	C4418	C	0.596111	0.378635	0.870391
	C4419	C	0.845786	0.441127	0.807716
	C4420	C	0.912479	0.433384	0.870415
	C4421	C	0.662795	0.495887	0.807888
	C4422	C	0.915263	0.442159	0.748981
	C4423	C	0.665236	0.379637	0.811641
	C4424	C	0.915376	0.379651	0.876158
	C4425	C	0.664969	0.442101	0.813326
	C4426	C	0.912894	0.495914	0.754541
	C4427	C	0.662637	0.433372	0.816985
	C4428	C	0.596218	0.441150	0.754564
	C4429	C	0.846002	0.378634	0.817276
	C4430	C	0.593794	0.432402	0.875951
	C4431	C	0.843681	0.494918	0.813331
	C4432	C	0.502063	0.490920	0.753703
	C4433	C	0.751766	0.428412	0.816071
	C4434	C	0.506948	0.383610	0.871265
	C4435	C	0.756677	0.446091	0.808682
	C4436	C	0.502070	0.428422	0.871287
	C4437	C	0.751939	0.490923	0.808746
	C4438	C	0.506990	0.446114	0.753713
	C4439	C	0.756924	0.383609	0.816313
	C4440	C	0.500709	0.481666	0.759977
	C4441	C	0.750544	0.419157	0.822361
	C4442	C	0.508195	0.392870	0.864981
	C4443	C	0.757921	0.455353	0.802464
	C4444	C	0.500725	0.419160	0.865041
	C4445	C	0.750618	0.481675	0.802477
	C4446	C	0.508217	0.455369	0.759976
	C4447	C	0.758243	0.392873	0.822491
	H4448	H	0.663213	0.491143	0.748357
	H4449	H	0.912770	0.428610	0.810530
	H4450	H	0.667403	0.381616	0.866760
	H4451	H	0.916868	0.444124	0.804039
	H4452	H	0.841244	0.430379	0.866803
	H4453	H	0.591517	0.492894	0.804289
	H4454	H	0.845961	0.445936	0.748178
	H4455	H	0.595969	0.383413	0.810789
	H4456	H	0.846072	0.383426	0.877107
	H4457	H	0.595680	0.445871	0.814155
	H4458	H	0.841614	0.492927	0.758187
	H4459	H	0.591380	0.430392	0.820663
	H4460	H	0.667387	0.444158	0.758161
	H4461	H	0.917187	0.381620	0.821004
	H4462	H	0.663083	0.428619	0.876819
	H4463	H	0.913077	0.491151	0.814087
	O4464	O	0.085570	0.477749	0.886246
	O4465	O	0.335557	0.415270	0.949069
	O4466	O	0.093257	0.396189	0.986340
	O4467	O	0.343490	0.458668	0.923722
	O4468	O	0.415762	0.415849	0.986375
	O4469	O	0.165389	0.478366	0.923668
	O4470	O	0.423671	0.459293	0.886438
	O4471	O	0.173635	0.396792	0.949096
	O4472	O	0.423776	0.396812	0.988717
	O4473	O	0.173544	0.459298	0.925905
	O4474	O	0.415772	0.478370	0.888769
	O4475	O	0.165613	0.415875	0.951344
	O4476	O	0.093268	0.458684	0.888636
	O4477	O	0.343610	0.396161	0.951360
	O4478	O	0.085545	0.415246	0.988719
	O4479	O	0.335265	0.477771	0.925858
	F4480	F	0.004965	0.406044	0.952818
	F4481	F	0.254553	0.468506	0.890206
	F4482	F	0.004772	0.468532	0.922037
	F4483	F	0.254596	0.406020	0.984769
	Al4484	Al	0.129641	0.406035	0.968858
	Al4485	Al	0.379506	0.468525	0.906211
	Al4486	Al	0.129606	0.468520	0.906097
	Al4487	Al	0.379662	0.406016	0.968847
	C4488	C	0.093855	0.494925	0.874009
	C4489	C	0.343713	0.432414	0.936477
	C4490	C	0.095897	0.378672	0.995467
	C4491	C	0.346024	0.441148	0.932798
	C4492	C	0.412904	0.433379	0.995471
	C4493	C	0.162663	0.495906	0.933001
	C4494	C	0.415509	0.442145	0.873920
	C4495	C	0.165209	0.379637	0.936645
	C4496	C	0.415426	0.379628	1.000934
	C4497	C	0.165216	0.442125	0.938359
	C4498	C	0.413163	0.495892	0.879553
	C4499	C	0.162906	0.433395	0.942032
	C4500	C	0.095689	0.441171	0.879542
	C4501	C	0.345943	0.378636	0.942227
	C4502	C	0.093670	0.432426	1.000897
	C4503	C	0.343480	0.494904	0.938483
	C4504	C	0.002139	0.490931	0.878636
	C4505	C	0.252083	0.428430	0.941175
	C4506	C	0.006782	0.383636	0.996407
	C4507	C	0.256822	0.446110	0.933647
	C4508	C	0.001991	0.428438	0.996282
	C4509	C	0.251779	0.490924	0.933755
	C4510	C	0.006543	0.446126	0.878649
	C4511	C	0.256875	0.383613	0.941344
	C4512	C	0.000826	0.481664	0.884810
	C4513	C	0.250822	0.419181	0.947558
	C4514	C	0.007987	0.392887	0.990106
	C4515	C	0.258148	0.455369	0.927378
	C4516	C	0.000878	0.419165	0.990108
	C4517	C	0.250531	0.481673	0.927435
	C4518	C	0.007919	0.455393	0.884817
	C4519	C	0.258298	0.392871	0.947598
	H4520	H	0.163228	0.491149	0.873147
	H4521	H	0.413033	0.428638	0.935660
	H4522	H	0.167019	0.381671	0.991808
	H4523	H	0.417232	0.444144	0.929155
	H4524	H	0.341791	0.430375	0.991860
	H4525	H	0.091311	0.492928	0.929407
	H4526	H	0.346264	0.445922	0.873014
	H4527	H	0.095914	0.383410	0.935814
	H4528	H	0.346234	0.383415	1.001876
	H4529	H	0.095784	0.445890	0.939203
	H4530	H	0.341961	0.492896	0.883157
	H4531	H	0.091746	0.430404	0.945722
	H4532	H	0.166964	0.444167	0.883131
	H4533	H	0.417218	0.381616	0.945865
	H4534	H	0.163003	0.428659	1.001793
	H4535	H	0.412782	0.491128	0.939388
	O4536	O	0.585672	0.477760	0.886554
	O4537	O	0.835332	0.415244	0.948752
	O4538	O	0.593651	0.396165	0.986191
	O4539	O	0.843322	0.458651	0.923770
	O4540	O	0.915580	0.415859	0.986282
	O4541	O	0.665375	0.478357	0.923946
	O4542	O	0.923286	0.459324	0.886230
	O4543	O	0.673436	0.396790	0.948766
	O4544	O	0.923266	0.396809	0.988657
	O4545	O	0.673414	0.459308	0.926243
	O4546	O	0.915512	0.478360	0.888592
	O4547	O	0.665383	0.415851	0.951079
	O4548	O	0.593609	0.458694	0.888717
	O4549	O	0.843418	0.396168	0.951095
	O4550	O	0.585687	0.415260	0.988419
	O4551	O	0.835348	0.477777	0.926088
	F4552	F	0.504355	0.405997	0.952790
	F4553	F	0.754429	0.468528	0.890480
	F4554	F	0.504381	0.468521	0.922226
	F4555	F	0.754630	0.406029	0.984454
	Al4556	Al	0.629488	0.406010	0.968623
	Al4557	Al	0.879674	0.468535	0.906252
	Al4558	Al	0.629494	0.468525	0.906343
	Al4559	Al	0.879874	0.406031	0.968618
	C4560	C	0.593941	0.494920	0.874050
	C4561	C	0.843653	0.432402	0.936457
	C4562	C	0.596272	0.378641	0.995274
	C4563	C	0.845901	0.441142	0.932896
	C4564	C	0.912749	0.433401	0.995379
	C4565	C	0.662761	0.495898	0.932908
	C4566	C	0.914823	0.442126	0.874004
	C4567	C	0.665255	0.379630	0.936404
	C4568	C	0.915077	0.379642	1.001042
	C4569	C	0.665061	0.442120	0.938535
	C4570	C	0.913061	0.495909	0.879612
	C4571	C	0.662791	0.433385	0.942086
	C4572	C	0.596206	0.441142	0.879588
	C4573	C	0.845890	0.378636	0.942185
	C4574	C	0.593760	0.432409	1.001053
	C4575	C	0.843569	0.494921	0.938420
	C4576	C	0.502322	0.490922	0.878745
	C4577	C	0.751863	0.428419	0.941138
	C4578	C	0.507076	0.383600	0.996177
	C4579	C	0.756772	0.446103	0.933824
	C4580	C	0.502141	0.428429	0.996293
	C4581	C	0.751853	0.490921	0.933839
	C4582	C	0.507173	0.446120	0.878658
	C4583	C	0.756822	0.383609	0.941156
	C4584	C	0.501004	0.481675	0.885067
	C4585	C	0.750564	0.419155	0.947333
	C4586	C	0.508398	0.392876	0.990044
	C4587	C	0.758039	0.455369	0.927614
	C4588	C	0.500985	0.419168	0.989985
	C4589	C	0.750551	0.481670	0.927636
	C4590	C	0.508432	0.455386	0.884946
	C4591	C	0.758132	0.392873	0.947346
	H4592	H	0.663309	0.491152	0.873240
	H4593	H	0.912784	0.428620	0.935562
	H4594	H	0.667488	0.381639	0.991660
	H4595	H	0.917055	0.444135	0.929264
	H4596	H	0.841550	0.430397	0.991769
	H4597	H	0.591469	0.492911	0.929337
	H4598	H	0.845458	0.445893	0.873148
	H4599	H	0.595939	0.383398	0.935426
	H4600	H	0.845751	0.383414	1.001866
	H4601	H	0.595653	0.445897	0.939455
	H4602	H	0.841752	0.492925	0.883260
	H4603	H	0.591475	0.430395	0.945760
	H4604	H	0.667443	0.444123	0.883284
	H4605	H	0.917124	0.381617	0.945895
	H4606	H	0.663029	0.428633	1.001972
	H4607	H	0.912924	0.491157	0.939297
	O4608	O	0.085461	0.602772	0.011520
	O4609	O	0.335498	0.540259	0.073943
	O4610	O	0.093785	0.521198	0.111316
	O4611	O	0.343643	0.583671	0.048589
	O4612	O	0.415750	0.540880	0.111345
	O4613	O	0.165560	0.603383	0.048776
	O4614	O	0.423809	0.584304	0.011410
	O4615	O	0.173839	0.521806	0.073996
	O4616	O	0.423706	0.521828	0.113709
	O4617	O	0.173720	0.584298	0.050988
	O4618	O	0.415634	0.603393	0.013697
	O4619	O	0.165520	0.540881	0.076227
	O4620	O	0.093716	0.583717	0.013561
	O4621	O	0.343760	0.521176	0.076347
	O4622	O	0.085408	0.540267	0.113580
	O4623	O	0.335597	0.602757	0.051071
	F4624	F	0.004857	0.531024	0.077786
	F4625	F	0.254766	0.593544	0.015279
	F4626	F	0.004902	0.593529	0.047234
	F4627	F	0.254702	0.531060	0.109682
	Al4628	Al	0.129680	0.531037	0.093779
	Al4629	Al	0.379662	0.593540	0.031203
	Al4630	Al	0.129817	0.593527	0.031219
	Al4631	Al	0.379625	0.531044	0.093797
	C4632	C	0.093850	0.619941	-0.001015
	C4633	C	0.343822	0.557427	0.061604
	C4634	C	0.096258	0.503684	0.120438
	C4635	C	0.346269	0.566159	0.057935
	C4636	C	0.413133	0.558410	0.120498
	C4637	C	0.163015	0.620910	0.057887
	C4638	C	0.415783	0.567167	-0.001085
	C4639	C	0.165657	0.504635	0.061591
	C4640	C	0.415332	0.504644	0.126010
	C4641	C	0.165377	0.567144	0.063448
	C4642	C	0.413499	0.620911	0.004549
	C4643	C	0.163004	0.558410	0.067117
	C4644	C	0.096036	0.566179	0.004540
	C4645	C	0.346507	0.503663	0.067024
	C4646	C	0.093875	0.557439	0.125989
	C4647	C	0.343803	0.619907	0.063520
	C4648	C	0.002214	0.615955	0.003765
	C4649	C	0.252162	0.553446	0.066249
	C4650	C	0.007086	0.508648	0.121339
	C4651	C	0.257069	0.571120	0.058700
	C4652	C	0.002190	0.553455	0.121324
	C4653	C	0.252139	0.615934	0.058815
	C4654	C	0.006969	0.571163	0.003562
	C4655	C	0.257349	0.508627	0.066177
	C4656	C	0.000764	0.606693	0.010015
	C4657	C	0.250796	0.544174	0.072450
	C4658	C	0.008610	0.517914	0.115152
	C4659	C	0.258415	0.580377	0.052416
	C4660	C	0.000843	0.544196	0.115005
	C4661	C	0.250870	0.606676	0.052539
	C4662	C	0.008478	0.580421	0.009841
	C4663	C	0.258516	0.517885	0.072498
	H4664	H	0.163196	0.616168	-0.001908
	H4665	H	0.413095	0.553664	0.060760
	H4666	H	0.167464	0.506679	0.116803
	H4667	H	0.417409	0.569150	0.054305
	H4668	H	0.341841	0.555424	0.116926
	H4669	H	0.091808	0.617922	0.054238
	H4670	H	0.346504	0.570938	-0.001983
	H4671	H	0.096315	0.508404	0.060854
	H4672	H	0.346057	0.508411	0.126841
	H4673	H	0.096069	0.570923	0.064301
	H4674	H	0.342253	0.617924	0.008216
	H4675	H	0.091872	0.555413	0.070733
	H4676	H	0.167278	0.569167	0.008158
	H4677	H	0.417680	0.506653	0.070652
	H4678	H	0.163255	0.553670	0.126845
	H4679	H	0.413063	0.616128	0.064429
	O4680	O	0.585603	0.602736	0.011342
	O4681	O	0.835238	0.540269	0.073813
	O4682	O	0.593680	0.521165	0.111235
	O4683	O	0.843463	0.583653	0.048752
	O4684	O	0.915387	0.540899	0.111195
	O4685	O	0.665241	0.603366	0.048842
	O4686	O	0.923786	0.584337	0.011410
	O4687	O	0.673538	0.521789	0.074013
	O4688	O	0.923824	0.521849	0.113711
	O4689	O	0.673500	0.584314	0.051200
	O4690	O	0.915400	0.603402	0.013805
	O4691	O	0.665269	0.540888	0.076265
	O4692	O	0.593852	0.583709	0.013655
	O4693	O	0.843566	0.521176	0.076268
	O4694	O	0.585706	0.540268	0.113575
	O4695	O	0.835182	0.602762	0.051207
	F4696	F	0.504470	0.531021	0.077896
	F4697	F	0.754885	0.593512	0.015465
	F4698	F	0.504539	0.593525	0.047135
	F4699	F	0.754732	0.531037	0.109598
	Al4700	Al	0.629622	0.531035	0.093749
	Al4701	Al	0.880022	0.593541	0.031372
	Al4702	Al	0.629735	0.593523	0.031281
	Al4703	Al	0.879879	0.531048	0.093670
	C4704	C	0.594231	0.619923	-0.001048
	C4705	C	0.843443	0.557428	0.061527
	C4706	C	0.596151	0.503677	0.120507
	C4707	C	0.845838	0.566160	0.057859
	C4708	C	0.913078	0.558432	0.120404
	C4709	C	0.662542	0.620906	0.057939
	C4710	C	0.915270	0.567170	-0.001080
	C4711	C	0.665116	0.504652	0.061647
	C4712	C	0.915474	0.504650	0.125998
	C4713	C	0.665053	0.567146	0.063507
	C4714	C	0.913003	0.620931	0.004683
	C4715	C	0.662620	0.558416	0.067165
	C4716	C	0.596495	0.566167	0.004583
	C4717	C	0.845872	0.503649	0.067213
	C4718	C	0.594015	0.557425	0.125974
	C4719	C	0.843369	0.619912	0.063554
	C4720	C	0.502581	0.615940	0.003666
	C4721	C	0.751846	0.553449	0.066264
	C4722	C	0.506985	0.508636	0.121390
	C4723	C	0.756641	0.571124	0.058816
	C4724	C	0.502309	0.553439	0.121308
	C4725	C	0.751629	0.615929	0.058898
	C4726	C	0.507480	0.571149	0.003605
	C4727	C	0.756887	0.508629	0.066212
	C4728	C	0.501019	0.606675	0.009937
	C4729	C	0.750518	0.544186	0.072459
	C4730	C	0.508334	0.517896	0.115134
	C4731	C	0.758085	0.580382	0.052571
	C4732	C	0.501010	0.544182	0.115046
	C4733	C	0.750403	0.606668	0.052672
	C4734	C	0.508664	0.580409	0.009865
	C4735	C	0.758301	0.517886	0.072475
	H4736	H	0.663580	0.616150	-0.001905
	H4737	H	0.912767	0.553656	0.060633
	H4738	H	0.667293	0.506671	0.116867
	H4739	H	0.916940	0.569150	0.054154
	H4740	H	0.841818	0.555444	0.116741
	H4741	H	0.591269	0.617927	0.054296
	H4742	H	0.845948	0.570944	-0.001949
	H4743	H	0.595938	0.508437	0.060846
	H4744	H	0.846173	0.508420	0.126881
	H4745	H	0.595710	0.570916	0.064353
	H4746	H	0.841759	0.617938	0.008360
	H4747	H	0.591488	0.555413	0.070825
	H4748	H	0.667742	0.569151	0.008243
	H4749	H	0.917067	0.506640	0.070892
	H4750	H	0.663386	0.553653	0.126828
	H4751	H	0.912610	0.616134	0.064462
	O4752	O	0.085657	0.602785	0.136531
	O4753	O	0.335648	0.540270	0.199099
	O4754	O	0.093646	0.521180	0.236226
	O4755	O	0.343961	0.583664	0.173661
	O4756	O	0.415875	0.540864	0.236340
	O4757	O	0.165545	0.603387	0.173833
	O4758	O	0.423942	0.584328	0.136351
	O4759	O	0.173557	0.521811	0.198869
	O4760	O	0.423538	0.521786	0.238560
	O4761	O	0.174017	0.584295	0.176095
	O4762	O	0.415520	0.603379	0.138844
	O4763	O	0.165605	0.540887	0.201314
	O4764	O	0.093642	0.583680	0.138952
	O4765	O	0.343479	0.521200	0.201260
	O4766	O	0.085636	0.540234	0.238629
	O4767	O	0.335461	0.602740	0.176111
	F4768	F	0.004863	0.531041	0.202762
	F4769	F	0.254542	0.593528	0.140364
	F4770	F	0.004739	0.593549	0.172287
	F4771	F	0.254778	0.531025	0.234754
	Al4772	Al	0.129771	0.531029	0.218735
	Al4773	Al	0.379592	0.593527	0.156208
	Al4774	Al	0.129567	0.593534	0.156306
	Al4775	Al	0.379781	0.531036	0.218806
	C4776	C	0.093808	0.619933	0.124198
	C4777	C	0.343822	0.557402	0.186532
	C4778	C	0.096106	0.503671	0.245533
	C4779	C	0.346339	0.566135	0.182874
	C4780	C	0.413254	0.558403	0.245477
	C4781	C	0.162958	0.620903	0.182957
	C4782	C	0.415633	0.567160	0.124045
	C4783	C	0.165295	0.504646	0.186650
	C4784	C	0.415491	0.504635	0.250978
	C4785	C	0.165586	0.567139	0.188458
	C4786	C	0.412919	0.620910	0.129663
	C4787	C	0.163015	0.558409	0.192119
	C4788	C	0.096247	0.566180	0.129604
	C4789	C	0.346132	0.503664	0.192164
	C4790	C	0.093980	0.557430	0.250879
	C4791	C	0.343814	0.619914	0.188510
	C4792	C	0.002107	0.615952	0.128831
	C4793	C	0.252182	0.553436	0.191292
	C4794	C	0.006992	0.508635	0.246376
	C4795	C	0.257264	0.571108	0.183758
	C4796	C	0.002369	0.553438	0.246230
	C4797	C	0.252119	0.615931	0.183878
	C4798	C	0.007140	0.571149	0.128700
	C4799	C	0.257000	0.508628	0.191315
	C4800	C	0.000903	0.606682	0.135026
	C4801	C	0.250924	0.544181	0.197570
	C4802	C	0.008340	0.517893	0.240086
	C4803	C	0.258707	0.580374	0.177508
	C4804	C	0.000967	0.544169	0.240045
	C4805	C	0.250860	0.606671	0.177608
	C4806	C	0.008559	0.580396	0.135017
	C4807	C	0.258272	0.517892	0.197513
	H4808	H	0.163164	0.616163	0.123364
	H4809	H	0.413040	0.553621	0.185658
	H4810	H	0.167351	0.506662	0.241962
	H4811	H	0.417549	0.569119	0.179189
	H4812	H	0.342113	0.555408	0.241809
	H4813	H	0.091826	0.617906	0.179265
	H4814	H	0.346401	0.570940	0.123211
	H4815	H	0.096045	0.508420	0.185764
	H4816	H	0.346297	0.508412	0.251860
	H4817	H	0.096297	0.570916	0.189298
	H4818	H	0.341694	0.617928	0.133331
	H4819	H	0.091786	0.555410	0.195719
	H4820	H	0.167496	0.569165	0.133281
	H4821	H	0.417352	0.506652	0.195783
	H4822	H	0.163288	0.553655	0.251734
	H4823	H	0.413004	0.616123	0.189365
	O4824	O	0.585384	0.602737	0.136298
	O4825	O	0.835433	0.540277	0.198888
	O4826	O	0.593561	0.521215	0.236494
	O4827	O	0.843612	0.583650	0.173857
	O4828	O	0.915644	0.540879	0.236274
	O4829	O	0.665149	0.603373	0.173716
	O4830	O	0.923779	0.584335	0.136307
	O4831	O	0.673278	0.521778	0.199026
	O4832	O	0.923699	0.521809	0.238579
	O4833	O	0.673631	0.584315	0.176110
	O4834	O	0.915608	0.603366	0.138823
	O4835	O	0.665453	0.540855	0.201203
	O4836	O	0.593951	0.583682	0.138740
	O4837	O	0.843318	0.521165	0.201194
	O4838	O	0.585936	0.540257	0.238585
	O4839	O	0.835141	0.602765	0.176163
	F4840	F	0.504635	0.531037	0.202944
	F4841	F	0.754805	0.593524	0.140387
	F4842	F	0.504501	0.593530	0.172109
	F4843	F	0.754922	0.531015	0.234608
	Al4844	Al	0.629748	0.531015	0.218806
	Al4845	Al	0.879965	0.593527	0.156352
	Al4846	Al	0.629621	0.593528	0.156232
	Al4847	Al	0.879968	0.531037	0.218671
	C4848	C	0.593635	0.619908	0.123985
	C4849	C	0.843422	0.557408	0.186585
	C4850	C	0.596296	0.503665	0.245445
	C4851	C	0.845881	0.566146	0.182989
	C4852	C	0.913199	0.558416	0.245319
	C4853	C	0.662466	0.620900	0.183012
	C4854	C	0.915465	0.567173	0.124009
	C4855	C	0.665031	0.504645	0.186456
	C4856	C	0.915236	0.504655	0.251033
	C4857	C	0.665057	0.567133	0.188550
	C4858	C	0.912971	0.620925	0.129698
	C4859	C	0.662619	0.558400	0.192149
	C4860	C	0.596499	0.566170	0.129543
	C4861	C	0.845903	0.503656	0.192069
	C4862	C	0.594046	0.557422	0.251029
	C4863	C	0.843338	0.619905	0.188534
	C4864	C	0.501964	0.615933	0.128724
	C4865	C	0.751734	0.553434	0.191211
	C4866	C	0.507148	0.508627	0.246337
	C4867	C	0.756709	0.571111	0.183845
	C4868	C	0.502401	0.553440	0.246363
	C4869	C	0.751585	0.615933	0.183882
	C4870	C	0.507348	0.571139	0.128691
	C4871	C	0.756736	0.508617	0.191152
	C4872	C	0.500727	0.606667	0.134990
	C4873	C	0.750595	0.544170	0.197423
	C4874	C	0.508351	0.517894	0.240135
	C4875	C	0.758170	0.580374	0.177597
	C4876	C	0.501148	0.544164	0.240113
	C4877	C	0.750320	0.606670	0.177596
	C4878	C	0.508625	0.580401	0.134939
	C4879	C	0.758009	0.517872	0.197470
	H4880	H	0.662937	0.616132	0.123129
	H4881	H	0.912717	0.553642	0.185764
	H4882	H	0.667475	0.506666	0.241832
	H4883	H	0.917078	0.569135	0.179396
	H4884	H	0.842016	0.555415	0.241700
	H4885	H	0.591334	0.617900	0.179381
	H4886	H	0.846219	0.570948	0.123123
	H4887	H	0.595744	0.508419	0.185633
	H4888	H	0.845953	0.508429	0.251876
	H4889	H	0.595733	0.570917	0.189398
	H4890	H	0.841728	0.617937	0.133345
	H4891	H	0.591402	0.555402	0.195803
	H4892	H	0.667727	0.569163	0.133124
	H4893	H	0.917065	0.506651	0.195765
	H4894	H	0.663362	0.553647	0.251838
	H4895	H	0.912537	0.616115	0.189385
	O4896	O	0.085521	0.602754	0.261362
	O4897	O	0.335788	0.540278	0.324000
	O4898	O	0.093469	0.521227	0.361495
	O4899	O	0.343638	0.583676	0.298688
	O4900	O	0.415820	0.540870	0.361364
	O4901	O	0.165380	0.603381	0.298779
	O4902	O	0.423854	0.584323	0.261335
	O4903	O	0.173445	0.521784	0.324082
	O4904	O	0.423533	0.521775	0.363508
	O4905	O	0.173716	0.584318	0.301143
	O4906	O	0.415466	0.603402	0.263793
	O4907	O	0.165817	0.540878	0.326277
	O4908	O	0.093672	0.583690	0.263732
	O4909	O	0.343430	0.521200	0.326134
	O4910	O	0.085671	0.540301	0.363446
	O4911	O	0.335138	0.602742	0.301146
	F4912	F	0.004761	0.531033	0.327848
	F4913	F	0.254448	0.593543	0.265314
	F4914	F	0.004772	0.593528	0.297230
	F4915	F	0.254688	0.531028	0.359718
	Al4916	Al	0.129696	0.531030	0.343838
	Al4917	Al	0.379530	0.593536	0.281246
	Al4918	Al	0.129575	0.593534	0.281247
	Al4919	Al	0.379595	0.531029	0.343791
	C4920	C	0.093895	0.619935	0.249185
	C4921	C	0.343848	0.557428	0.311507
	C4922	C	0.096090	0.503689	0.370519
	C4923	C	0.346256	0.566160	0.307869
	C4924	C	0.413263	0.558401	0.370342
	C4925	C	0.162821	0.620897	0.308053
	C4926	C	0.415605	0.567138	0.249131
	C4927	C	0.165382	0.504631	0.311583
	C4928	C	0.415484	0.504644	0.376047
	C4929	C	0.165501	0.567141	0.313394
	C4930	C	0.413138	0.620917	0.254690
	C4931	C	0.163121	0.558404	0.317017
	C4932	C	0.096265	0.566172	0.254499
	C4933	C	0.346213	0.503661	0.317068
	C4934	C	0.093600	0.557446	0.375953
	C4935	C	0.343748	0.619908	0.313489
	C4936	C	0.002223	0.615947	0.253822
	C4937	C	0.252237	0.553437	0.316150
	C4938	C	0.006973	0.508653	0.371404
	C4939	C	0.257142	0.571130	0.308795
	C4940	C	0.001936	0.553458	0.371296
	C4941	C	0.251995	0.615914	0.308771
	C4942	C	0.007193	0.571145	0.253559
	C4943	C	0.257037	0.508620	0.316231
	C4944	C	0.000807	0.606686	0.260009
	C4945	C	0.251028	0.544182	0.322482
	C4946	C	0.008328	0.517920	0.365245
	C4947	C	0.258380	0.580388	0.302530
	C4948	C	0.000969	0.544194	0.365025
	C4949	C	0.250562	0.606674	0.302562
	C4950	C	0.008343	0.580404	0.259863
	C4951	C	0.258178	0.517884	0.322480
	H4952	H	0.163261	0.616167	0.248344
	H4953	H	0.413192	0.553666	0.310701
	H4954	H	0.167361	0.506681	0.366984
	H4955	H	0.417492	0.569141	0.304256
	H4956	H	0.342086	0.555409	0.366675
	H4957	H	0.091433	0.617918	0.304523
	H4958	H	0.346321	0.570903	0.248247
	H4959	H	0.096077	0.508403	0.310785
	H4960	H	0.346257	0.508422	0.376891
	H4961	H	0.096246	0.570918	0.314161
	H4962	H	0.341892	0.617931	0.258300
	H4963	H	0.091889	0.555404	0.320618
	H4964	H	0.167495	0.569162	0.258154
	H4965	H	0.417462	0.506652	0.320682
	H4966	H	0.163020	0.553677	0.376783
	H4967	H	0.413038	0.616131	0.314387
	O4968	O	0.585327	0.602756	0.261361
	O4969	O	0.835650	0.540278	0.323945
	O4970	O	0.593612	0.521179	0.361293
	O4971	O	0.843585	0.583667	0.298832
	O4972	O	0.915529	0.540870	0.361364
	O4973	O	0.665099	0.603376	0.298872
	O4974	O	0.923691	0.584325	0.261355
	O4975	O	0.673427	0.521805	0.323841
	O4976	O	0.923486	0.521825	0.363724
	O4977	O	0.673544	0.584300	0.301153
	O4978	O	0.915629	0.603391	0.263883
	O4979	O	0.665712	0.540862	0.326159
	O4980	O	0.593816	0.583677	0.263814
	O4981	O	0.843352	0.521174	0.326262
	O4982	O	0.585841	0.540255	0.363528
	O4983	O	0.834992	0.602749	0.301286
	F4984	F	0.504614	0.531042	0.327847
	F4985	F	0.754789	0.593562	0.265457
	F4986	F	0.504373	0.593526	0.297144
	F4987	F	0.754659	0.531019	0.359593
	Al4988	Al	0.629669	0.531037	0.343722
	Al4989	Al	0.879866	0.593544	0.281344
	Al4990	Al	0.629395	0.593542	0.281270
	Al4991	Al	0.879856	0.531045	0.343734
	C4992	C	0.593855	0.619905	0.249022
	C4993	C	0.843647	0.557438	0.311526
	C4994	C	0.596272	0.503654	0.370490
	C4995	C	0.846133	0.566169	0.307933
	C4996	C	0.912806	0.558430	0.370391
	C4997	C	0.662588	0.620908	0.307997
	C4998	C	0.915515	0.567154	0.248931
	C4999	C	0.665016	0.504633	0.311579
	C5000	C	0.915237	0.504666	0.376012
	C5001	C	0.665342	0.567147	0.313550
	C5002	C	0.912941	0.620917	0.254620
	C5003	C	0.662871	0.558407	0.317117
	C5004	C	0.596350	0.566158	0.254677
	C5005	C	0.845765	0.503655	0.317141
	C5006	C	0.593995	0.557408	0.375960
	C5007	C	0.843512	0.619905	0.313542
	C5008	C	0.502157	0.615929	0.253811
	C5009	C	0.752038	0.553447	0.316215
	C5010	C	0.507165	0.508623	0.371380
	C5011	C	0.757015	0.571131	0.308897
	C5012	C	0.502417	0.553424	0.371244
	C5013	C	0.751699	0.615923	0.308918
	C5014	C	0.507212	0.571125	0.253798
	C5015	C	0.756728	0.508619	0.316231
	C5016	C	0.500737	0.606691	0.260060
	C5017	C	0.750887	0.544180	0.322448
	C5018	C	0.508359	0.517877	0.365046
	C5019	C	0.758279	0.580385	0.302650
	C5020	C	0.501137	0.544167	0.365041
	C5021	C	0.750312	0.606668	0.302705
	C5022	C	0.508524	0.580393	0.259955
	C5023	C	0.758108	0.517880	0.322451
	H5024	H	0.663171	0.616128	0.248118
	H5025	H	0.912980	0.553668	0.310629
	H5026	H	0.667460	0.506645	0.366853
	H5027	H	0.917392	0.569157	0.304261
	H5028	H	0.841559	0.555439	0.366755
	H5029	H	0.591318	0.617922	0.304379
	H5030	H	0.846246	0.570927	0.248132
	H5031	H	0.595812	0.508412	0.310720
	H5032	H	0.846030	0.508447	0.376921
	H5033	H	0.596162	0.570924	0.314412
	H5034	H	0.841697	0.617917	0.258211
	H5035	H	0.591746	0.555409	0.320728
	H5036	H	0.667576	0.569146	0.258312
	H5037	H	0.916955	0.506638	0.320820
	H5038	H	0.663312	0.553633	0.376836
	H5039	H	0.912853	0.616132	0.314403
	O5040	O	0.085083	0.602757	0.386306
	O5041	O	0.335703	0.540263	0.448835
	O5042	O	0.093560	0.521201	0.486375
	O5043	O	0.343714	0.583689	0.423722
	O5044	O	0.415779	0.540875	0.486147
	O5045	O	0.165581	0.603386	0.423667
	O5046	O	0.423723	0.584293	0.386446
	O5047	O	0.173572	0.521793	0.449026
	O5048	O	0.423533	0.521809	0.488557
	O5049	O	0.173775	0.584318	0.426002
	O5050	O	0.415529	0.603370	0.388764
	O5051	O	0.165810	0.540889	0.451327
	O5052	O	0.093826	0.583707	0.388544
	O5053	O	0.343544	0.521188	0.451153
	O5054	O	0.085680	0.540254	0.488616
	O5055	O	0.335520	0.602776	0.426019
	F5056	F	0.004916	0.531048	0.452842
	F5057	F	0.254761	0.593552	0.390252
	F5058	F	0.004787	0.593521	0.422066
	F5059	F	0.254846	0.531022	0.484666
	Al5060	Al	0.129800	0.531042	0.468837
	Al5061	Al	0.379601	0.593532	0.406227
	Al5062	Al	0.129657	0.593551	0.406101
	Al5063	Al	0.379724	0.531033	0.468639
	C5064	C	0.093368	0.619926	0.374001
	C5065	C	0.343802	0.557445	0.436553
	C5066	C	0.095870	0.503682	0.495525
	C5067	C	0.346327	0.566182	0.432952
	C5068	C	0.413051	0.558402	0.495412
	C5069	C	0.163086	0.620918	0.432872
	C5070	C	0.415518	0.567150	0.373979
	C5071	C	0.165139	0.504635	0.436692
	C5072	C	0.415188	0.504627	0.500813
	C5073	C	0.165545	0.567142	0.438498
	C5074	C	0.413066	0.620899	0.379586
	C5075	C	0.163116	0.558408	0.442090
	C5076	C	0.096064	0.566190	0.379534
	C5077	C	0.346157	0.503663	0.442016
	C5078	C	0.093806	0.557435	0.500828
	C5079	C	0.343925	0.619920	0.438422
	C5080	C	0.001625	0.615940	0.378625
	C5081	C	0.252205	0.553450	0.441220
	C5082	C	0.006803	0.508651	0.496469
	C5083	C	0.257179	0.571140	0.433833
	C5084	C	0.002196	0.553445	0.496158
	C5085	C	0.252188	0.615939	0.433738
	C5086	C	0.006919	0.571157	0.378648
	C5087	C	0.256920	0.508613	0.441292
	C5088	C	0.000516	0.606675	0.384844
	C5089	C	0.251003	0.544186	0.447462
	C5090	C	0.008168	0.517911	0.490214
	C5091	C	0.258444	0.580397	0.427504
	C5092	C	0.001003	0.544175	0.490002
	C5093	C	0.250787	0.606686	0.427477
	C5094	C	0.008589	0.580422	0.384797
	C5095	C	0.258261	0.517879	0.447509
	H5096	H	0.162683	0.616154	0.373095
	H5097	H	0.413085	0.553666	0.435697
	H5098	H	0.167026	0.506677	0.491901
	H5099	H	0.417433	0.569185	0.429303
	H5100	H	0.341867	0.555406	0.491790
	H5101	H	0.091782	0.617936	0.429194
	H5102	H	0.346351	0.570936	0.373064
	H5103	H	0.095823	0.508414	0.435928
	H5104	H	0.345861	0.508393	0.501587
	H5105	H	0.096213	0.570907	0.439306
	H5106	H	0.341794	0.617912	0.383159
	H5107	H	0.091784	0.555418	0.445681
	H5108	H	0.167302	0.569183	0.383102
	H5109	H	0.417401	0.506661	0.445558
	H5110	H	0.163152	0.553666	0.501728
	H5111	H	0.413274	0.616150	0.439263
	O5112	O	0.585444	0.602730	0.386379
	O5113	O	0.835560	0.540282	0.448808
	O5114	O	0.593487	0.521184	0.486216
	O5115	O	0.843464	0.583671	0.423727
	O5116	O	0.915658	0.540862	0.486331
	O5117	O	0.665316	0.603386	0.423744
	O5118	O	0.923818	0.584358	0.386167
	O5119	O	0.673436	0.521805	0.448831
	O5120	O	0.923593	0.521829	0.488667
	O5121	O	0.673577	0.584326	0.426171
	O5122	O	0.915051	0.603385	0.388670
	O5123	O	0.665517	0.540877	0.451123
	O5124	O	0.593715	0.583684	0.388787
	O5125	O	0.843466	0.521179	0.451089
	O5126	O	0.585731	0.540266	0.488382
	O5127	O	0.835233	0.602729	0.426246
	F5128	F	0.504615	0.531028	0.452720
	F5129	F	0.754554	0.593541	0.390414
	F5130	F	0.504462	0.593525	0.422181
	F5131	F	0.754688	0.531016	0.484493
	Al5132	Al	0.629640	0.531023	0.468631
	Al5133	Al	0.879764	0.593537	0.406266
	Al5134	Al	0.629646	0.593532	0.406298
	Al5135	Al	0.879978	0.531045	0.468665
	C5136	C	0.593946	0.619923	0.374205
	C5137	C	0.843624	0.557424	0.436381
	C5138	C	0.595971	0.503663	0.495411
	C5139	C	0.845989	0.566162	0.432831
	C5140	C	0.912993	0.558421	0.495249
	C5141	C	0.662955	0.620894	0.432892
	C5142	C	0.915223	0.567178	0.373981
	C5143	C	0.665158	0.504640	0.436537
	C5144	C	0.915037	0.504661	0.501074
	C5145	C	0.665202	0.567130	0.438400
	C5146	C	0.912579	0.620924	0.379564
	C5147	C	0.662809	0.558396	0.441942
	C5148	C	0.596259	0.566152	0.379598
	C5149	C	0.845989	0.503656	0.442082
	C5150	C	0.593896	0.557418	0.500946
	C5151	C	0.843794	0.619901	0.438577
	C5152	C	0.502201	0.615929	0.378756
	C5153	C	0.751984	0.553436	0.441030
	C5154	C	0.506856	0.508624	0.496266
	C5155	C	0.756802	0.571122	0.433750
	C5156	C	0.502260	0.553428	0.496241
	C5157	C	0.752080	0.615922	0.433871
	C5158	C	0.507159	0.571119	0.378732
	C5159	C	0.756827	0.508617	0.441203
	C5160	C	0.500810	0.606663	0.384999
	C5161	C	0.750741	0.544179	0.447326
	C5162	C	0.508232	0.517886	0.489993
	C5163	C	0.758149	0.580389	0.427533
	C5164	C	0.501015	0.544172	0.489936
	C5165	C	0.750613	0.606662	0.427629
	C5166	C	0.508475	0.580383	0.384988
	C5167	C	0.758148	0.517882	0.447397
	H5168	H	0.663334	0.616156	0.373454
	H5169	H	0.912946	0.553645	0.435513
	H5170	H	0.667187	0.506654	0.491818
	H5171	H	0.917109	0.569167	0.429211
	H5172	H	0.841814	0.555422	0.491577
	H5173	H	0.591776	0.617904	0.429226
	H5174	H	0.845962	0.570952	0.373093
	H5175	H	0.595845	0.508405	0.435687
	H5176	H	0.845778	0.508438	0.501926
	H5177	H	0.595890	0.570892	0.439268
	H5178	H	0.841318	0.617944	0.383203
	H5179	H	0.591627	0.555391	0.445541
	H5180	H	0.667438	0.569150	0.383244
	H5181	H	0.917235	0.506645	0.445715
	H5182	H	0.663282	0.553649	0.501774
	H5183	H	0.913093	0.616124	0.439472
	O5184	O	0.085436	0.602745	0.511334
	O5185	O	0.335760	0.540271	0.574047
	O5186	O	0.093721	0.521185	0.611227
	O5187	O	0.343775	0.583665	0.548679
	O5188	O	0.415490	0.540876	0.611256
	O5189	O	0.165554	0.603371	0.548622
	O5190	O	0.423772	0.584331	0.511233
	O5191	O	0.173706	0.521795	0.573919
	O5192	O	0.423946	0.521795	0.613608
	O5193	O	0.173771	0.584265	0.550817
	O5194	O	0.415617	0.603376	0.513689
	O5195	O	0.165751	0.540861	0.576222
	O5196	O	0.093518	0.583696	0.513616
	O5197	O	0.343717	0.521164	0.576361
	O5198	O	0.085386	0.540254	0.613493
	O5199	O	0.335483	0.602721	0.551105
	F5200	F	0.004886	0.531052	0.577694
	F5201	F	0.254431	0.593545	0.515233
	F5202	F	0.004740	0.593547	0.547210
	F5203	F	0.254621	0.531016	0.609698
	Al5204	Al	0.129939	0.531025	0.593742
	Al5205	Al	0.379452	0.593514	0.531140
	Al5206	Al	0.129685	0.593532	0.531174
	Al5207	Al	0.379652	0.531019	0.593830
	C5208	C	0.093758	0.619934	0.499149
	C5209	C	0.343920	0.557403	0.561482
	C5210	C	0.095994	0.503673	0.620548
	C5211	C	0.346388	0.566141	0.557809
	C5212	C	0.413019	0.558401	0.620339
	C5213	C	0.163128	0.620899	0.557902
	C5214	C	0.415348	0.567151	0.499042
	C5215	C	0.165402	0.504639	0.561675
	C5216	C	0.415660	0.504647	0.625945
	C5217	C	0.165477	0.567117	0.563241
	C5218	C	0.413143	0.620896	0.504537
	C5219	C	0.163047	0.558389	0.566896
	C5220	C	0.095983	0.566178	0.504414
	C5221	C	0.346201	0.503640	0.567185
	C5222	C	0.093721	0.557432	0.625870
	C5223	C	0.343917	0.619919	0.563410
	C5224	C	0.002050	0.615941	0.503789
	C5225	C	0.252170	0.553421	0.566107
	C5226	C	0.006865	0.508636	0.621281
	C5227	C	0.257237	0.571105	0.558665
	C5228	C	0.002041	0.553440	0.621228
	C5229	C	0.252226	0.615932	0.558752
	C5230	C	0.006881	0.571147	0.503542
	C5231	C	0.257098	0.508613	0.566321
	C5232	C	0.000845	0.606667	0.509959
	C5233	C	0.250948	0.544166	0.572440
	C5234	C	0.008282	0.517893	0.614982
	C5235	C	0.258524	0.580362	0.552395
	C5236	C	0.000680	0.544178	0.614951
	C5237	C	0.250829	0.606658	0.552479
	C5238	C	0.008171	0.580405	0.509867
	C5239	C	0.258442	0.517875	0.572533
	H5240	H	0.163092	0.616159	0.498300
	H5241	H	0.413070	0.553621	0.560695
	H5242	H	0.167188	0.506674	0.616988
	H5243	H	0.417516	0.569134	0.554180
	H5244	H	0.341826	0.555409	0.616701
	H5245	H	0.091831	0.617913	0.554248
	H5246	H	0.346133	0.570933	0.498163
	H5247	H	0.096178	0.508417	0.560928
	H5248	H	0.346532	0.508439	0.626846
	H5249	H	0.096028	0.570879	0.563984
	H5250	H	0.341970	0.617901	0.508194
	H5251	H	0.091699	0.555404	0.570465
	H5252	H	0.167151	0.569173	0.508051
	H5253	H	0.417370	0.506633	0.570824
	H5254	H	0.162993	0.553654	0.626665
	H5255	H	0.413190	0.616138	0.564253
	O5256	O	0.585670	0.602733	0.511326
	O5257	O	0.835295	0.540242	0.573689
	O5258	O	0.593956	0.521184	0.611288
	O5259	O	0.843602	0.583662	0.548785
	O5260	O	0.915371	0.540883	0.611224
	O5261	O	0.665035	0.603383	0.548743
	O5262	O	0.923524	0.584320	0.511400
	O5263	O	0.673335	0.521780	0.573889
	O5264	O	0.923766	0.521815	0.613447
	O5265	O	0.673570	0.584286	0.551133
	O5266	O	0.915447	0.603361	0.513733
	O5267	O	0.665369	0.540878	0.576195
	O5268	O	0.593765	0.583687	0.513635
	O5269	O	0.843433	0.521172	0.576051
	O5270	O	0.585532	0.540243	0.613621
	O5271	O	0.835154	0.602756	0.551176
	F5272	F	0.504704	0.531046	0.577848
	F5273	F	0.754737	0.593546	0.515454
	F5274	F	0.504538	0.593500	0.547084
	F5275	F	0.754865	0.531012	0.609510
	Al5276	Al	0.629776	0.531021	0.593738
	Al5277	Al	0.879832	0.593542	0.531356
	Al5278	Al	0.629509	0.593524	0.531206
	Al5279	Al	0.880076	0.531040	0.593577
	C5280	C	0.593941	0.619899	0.498927
	C5281	C	0.843362	0.557407	0.561344
	C5282	C	0.596441	0.503653	0.620359
	C5283	C	0.845869	0.566147	0.557774
	C5284	C	0.912902	0.558423	0.620370
	C5285	C	0.662581	0.620931	0.557793
	C5286	C	0.915203	0.567164	0.498854
	C5287	C	0.665135	0.504626	0.561576
	C5288	C	0.914998	0.504654	0.625930
	C5289	C	0.665169	0.567133	0.563515
	C5290	C	0.912845	0.620907	0.504619
	C5291	C	0.662690	0.558398	0.567064
	C5292	C	0.596211	0.566164	0.504560
	C5293	C	0.846034	0.503658	0.567000
	C5294	C	0.593872	0.557406	0.625821
	C5295	C	0.843333	0.619914	0.563463
	C5296	C	0.502261	0.615923	0.503581
	C5297	C	0.751726	0.553425	0.566079
	C5298	C	0.507393	0.508622	0.621309
	C5299	C	0.756892	0.571119	0.558847
	C5300	C	0.502162	0.553426	0.621207
	C5301	C	0.751643	0.615952	0.558749
	C5302	C	0.507047	0.571130	0.503712
	C5303	C	0.756852	0.508612	0.566190
	C5304	C	0.500970	0.606659	0.509870
	C5305	C	0.750603	0.544162	0.572310
	C5306	C	0.508707	0.517885	0.615050
	C5307	C	0.758316	0.580374	0.552586
	C5308	C	0.500822	0.544161	0.615032
	C5309	C	0.750382	0.606673	0.552556
	C5310	C	0.508460	0.580403	0.509835
	C5311	C	0.758103	0.517874	0.572375
	H5312	H	0.663143	0.616108	0.498051
	H5313	H	0.912501	0.553618	0.560392
	H5314	H	0.667598	0.506650	0.616725
	H5315	H	0.917051	0.569134	0.554049
	H5316	H	0.841657	0.555434	0.616704
	H5317	H	0.591366	0.617944	0.554079
	H5318	H	0.845926	0.570941	0.497968
	H5319	H	0.595907	0.508403	0.560739
	H5320	H	0.845755	0.508439	0.626724
	H5321	H	0.595886	0.570908	0.564412
	H5322	H	0.841574	0.617905	0.508174
	H5323	H	0.591450	0.555419	0.570701
	H5324	H	0.667409	0.569165	0.508162
	H5325	H	0.917277	0.506652	0.570547
	H5326	H	0.663241	0.553634	0.626630
	H5327	H	0.912602	0.616129	0.564378
	O5328	O	0.085561	0.602778	0.636505
	O5329	O	0.335667	0.540241	0.698794
	O5330	O	0.093834	0.521184	0.736163
	O5331	O	0.343665	0.583674	0.673659
	O5332	O	0.415411	0.540875	0.736251
	O5333	O	0.165730	0.603384	0.673799
	O5334	O	0.423751	0.584313	0.636276
	O5335	O	0.173888	0.521800	0.698863
	O5336	O	0.423643	0.521815	0.738617
	O5337	O	0.173775	0.584302	0.676109
	O5338	O	0.415457	0.603351	0.638544
	O5339	O	0.165732	0.540874	0.701165
	O5340	O	0.093613	0.583705	0.638748
	O5341	O	0.343836	0.521173	0.701276
	O5342	O	0.085595	0.540282	0.738394
	O5343	O	0.335829	0.602758	0.675976
	F5344	F	0.004958	0.531047	0.702703
	F5345	F	0.254586	0.593546	0.640302
	F5346	F	0.004834	0.593508	0.672254
	F5347	F	0.254544	0.531025	0.734607
	Al5348	Al	0.129784	0.531024	0.718628
	Al5349	Al	0.379592	0.593523	0.656115
	Al5350	Al	0.129669	0.593544	0.656254
	Al5351	Al	0.379773	0.531030	0.718708
	C5352	C	0.093639	0.619927	0.624033
	C5353	C	0.344013	0.557434	0.686461
	C5354	C	0.096274	0.503665	0.745411
	C5355	C	0.346485	0.566164	0.682881
	C5356	C	0.413033	0.558403	0.745397
	C5357	C	0.163191	0.620902	0.683003
	C5358	C	0.415383	0.567143	0.623993
	C5359	C	0.165705	0.504626	0.686672
	C5360	C	0.415263	0.504628	0.750868
	C5361	C	0.165606	0.567136	0.688413
	C5362	C	0.412873	0.620903	0.629609
	C5363	C	0.163157	0.558390	0.691979
	C5364	C	0.096138	0.566170	0.629495
	C5365	C	0.346599	0.503640	0.691951
	C5366	C	0.093758	0.557444	0.750757
	C5367	C	0.344016	0.619930	0.688463
	C5368	C	0.001962	0.615943	0.628678
	C5369	C	0.252353	0.553437	0.691130
	C5370	C	0.007175	0.508633	0.746237
	C5371	C	0.257289	0.571125	0.683792
	C5372	C	0.002073	0.553446	0.746201
	C5373	C	0.252415	0.615946	0.683794
	C5374	C	0.007095	0.571145	0.628652
	C5375	C	0.257466	0.508615	0.691154
	C5376	C	0.000801	0.606679	0.634984
	C5377	C	0.251002	0.544168	0.697358
	C5378	C	0.008602	0.517900	0.740046
	C5379	C	0.258485	0.580386	0.677538
	C5380	C	0.000912	0.544183	0.739947
	C5381	C	0.251115	0.606676	0.677496
	C5382	C	0.008338	0.580413	0.634898
	C5383	C	0.258600	0.517880	0.697437
	H5384	H	0.162987	0.616159	0.623189
	H5385	H	0.413341	0.553664	0.685564
	H5386	H	0.167561	0.506654	0.741839
	H5387	H	0.417686	0.569155	0.679241
	H5388	H	0.341862	0.555409	0.741757
	H5389	H	0.091940	0.617902	0.679413
	H5390	H	0.346134	0.570919	0.623147
	H5391	H	0.096329	0.508391	0.685957
	H5392	H	0.345915	0.508398	0.751617
	H5393	H	0.096345	0.570911	0.689257
	H5394	H	0.341695	0.617907	0.633218
	H5395	H	0.091915	0.555388	0.695558
	H5396	H	0.167370	0.569157	0.633105
	H5397	H	0.417870	0.506627	0.695534
	H5398	H	0.163258	0.553688	0.751503
	H5399	H	0.413395	0.616159	0.689283
	O5400	O	0.585524	0.602751	0.636330
	O5401	O	0.835210	0.540284	0.698907
	O5402	O	0.593624	0.521158	0.736275
	O5403	O	0.843521	0.583632	0.673674
	O5404	O	0.915498	0.540857	0.736316
	O5405	O	0.665141	0.603380	0.673612
	O5406	O	0.923733	0.584336	0.636256
	O5407	O	0.673565	0.521801	0.698835
	O5408	O	0.923878	0.521822	0.738582
	O5409	O	0.673570	0.584311	0.676037
	O5410	O	0.915539	0.603382	0.638853
	O5411	O	0.665244	0.540889	0.701364
	O5412	O	0.593708	0.583662	0.638708
	O5413	O	0.843612	0.521157	0.701188
	O5414	O	0.585367	0.540234	0.738586
	O5415	O	0.835046	0.602734	0.676222
	F5416	F	0.504719	0.531032	0.702876
	F5417	F	0.754739	0.593538	0.640394
	F5418	F	0.504511	0.593498	0.672040
	F5419	F	0.754876	0.531014	0.734580
	Al5420	Al	0.629677	0.531023	0.718793
	Al5421	Al	0.879878	0.593524	0.656356
	Al5422	Al	0.629638	0.593519	0.656141
	Al5423	Al	0.879970	0.531037	0.718629
	C5424	C	0.593649	0.619935	0.624021
	C5425	C	0.843361	0.557417	0.686438
	C5426	C	0.596141	0.503647	0.745474
	C5427	C	0.845790	0.566141	0.682829
	C5428	C	0.912817	0.558412	0.745346
	C5429	C	0.662659	0.620905	0.682743
	C5430	C	0.915340	0.567161	0.624000
	C5431	C	0.664897	0.504650	0.686564
	C5432	C	0.915434	0.504654	0.750918
	C5433	C	0.664919	0.567140	0.688421
	C5434	C	0.912785	0.620921	0.629593
	C5435	C	0.662483	0.558396	0.692025
	C5436	C	0.596186	0.566149	0.629458
	C5437	C	0.845814	0.503643	0.692188
	C5438	C	0.593814	0.557409	0.750929
	C5439	C	0.843398	0.619909	0.688501
	C5440	C	0.501980	0.615943	0.628658
	C5441	C	0.751667	0.553441	0.691162
	C5442	C	0.506966	0.508616	0.746306
	C5443	C	0.756603	0.571111	0.683725
	C5444	C	0.502122	0.553428	0.746275
	C5445	C	0.751758	0.615935	0.683705
	C5446	C	0.507077	0.571119	0.628638
	C5447	C	0.756741	0.508612	0.691243
	C5448	C	0.500736	0.606658	0.634828
	C5449	C	0.750423	0.544185	0.697482
	C5450	C	0.508258	0.517878	0.740062
	C5451	C	0.758097	0.580366	0.677473
	C5452	C	0.500701	0.544163	0.740038
	C5453	C	0.750402	0.606664	0.677488
	C5454	C	0.508404	0.580385	0.634870
	C5455	C	0.758256	0.517878	0.697413
	H5456	H	0.662896	0.616159	0.623117
	H5457	H	0.912750	0.553643	0.685563
	H5458	H	0.667357	0.506650	0.741898
	H5459	H	0.917028	0.569131	0.679226
	H5460	H	0.841632	0.555409	0.741733
	H5461	H	0.591463	0.617916	0.678985
	H5462	H	0.846061	0.570939	0.623152
	H5463	H	0.595760	0.508443	0.685705
	H5464	H	0.846216	0.508436	0.751789
	H5465	H	0.595763	0.570926	0.689265
	H5466	H	0.841571	0.617921	0.633210
	H5467	H	0.591341	0.555398	0.695657
	H5468	H	0.667457	0.569133	0.633070
	H5469	H	0.917076	0.506625	0.695842
	H5470	H	0.663136	0.553630	0.751758
	H5471	H	0.912616	0.616124	0.689415
	O5472	O	0.085521	0.602760	0.761389
	O5473	O	0.335517	0.540272	0.823861
	O5474	O	0.093629	0.521234	0.861470
	O5475	O	0.343779	0.583674	0.798682
	O5476	O	0.415891	0.540913	0.861040
	O5477	O	0.165652	0.603378	0.798760
	O5478	O	0.423737	0.584287	0.761424
	O5479	O	0.173419	0.521800	0.823978
	O5480	O	0.423556	0.521797	0.863474
	O5481	O	0.173821	0.584308	0.801041
	O5482	O	0.415598	0.603381	0.763732
	O5483	O	0.165551	0.540895	0.826262
	O5484	O	0.093452	0.583683	0.763652
	O5485	O	0.343401	0.521201	0.826199
	O5486	O	0.085466	0.540273	0.863672
	O5487	O	0.335487	0.602754	0.801036
	F5488	F	0.004745	0.531021	0.827889
	F5489	F	0.254657	0.593528	0.765271
	F5490	F	0.004788	0.593538	0.797153
	F5491	F	0.254771	0.531069	0.859644
	Al5492	Al	0.129687	0.531055	0.843838
	Al5493	Al	0.379757	0.593521	0.781237
	Al5494	Al	0.129690	0.593530	0.781211
	Al5495	Al	0.379626	0.531041	0.843668
	C5496	C	0.093791	0.619931	0.748970
	C5497	C	0.343780	0.557432	0.811538
	C5498	C	0.096188	0.503671	0.870471
	C5499	C	0.346274	0.566159	0.807897
	C5500	C	0.413480	0.558414	0.870334
	C5501	C	0.163216	0.620894	0.807917
	C5502	C	0.415434	0.567143	0.749023
	C5503	C	0.165132	0.504645	0.811530
	C5504	C	0.415508	0.504636	0.875889
	C5505	C	0.165426	0.567149	0.813399
	C5506	C	0.413094	0.620902	0.754568
	C5507	C	0.162928	0.558413	0.817067
	C5508	C	0.095959	0.566190	0.754384
	C5509	C	0.346087	0.503679	0.816995
	C5510	C	0.093855	0.557459	0.875853
	C5511	C	0.344056	0.619913	0.813406
	C5512	C	0.002071	0.615948	0.753749
	C5513	C	0.252118	0.553449	0.816204
	C5514	C	0.007095	0.508649	0.871371
	C5515	C	0.257116	0.571125	0.808736
	C5516	C	0.002183	0.553462	0.871277
	C5517	C	0.252315	0.615914	0.808770
	C5518	C	0.006733	0.571146	0.753531
	C5519	C	0.256881	0.508630	0.816144
	C5520	C	0.000930	0.606675	0.759920
	C5521	C	0.250820	0.544189	0.822443
	C5522	C	0.008379	0.517921	0.865220
	C5523	C	0.258496	0.580383	0.802463
	C5524	C	0.000831	0.544196	0.865064
	C5525	C	0.250856	0.606672	0.802525
	C5526	C	0.008178	0.580404	0.759825
	C5527	C	0.258153	0.517892	0.822437
	H5528	H	0.163094	0.616155	0.748039
	H5529	H	0.413164	0.553662	0.810702
	H5530	H	0.167374	0.506674	0.866877
	H5531	H	0.417521	0.569142	0.804276
	H5532	H	0.342209	0.555428	0.866718
	H5533	H	0.091945	0.617907	0.804289
	H5534	H	0.346193	0.570916	0.748138
	H5535	H	0.095936	0.508434	0.810729
	H5536	H	0.346264	0.508412	0.876706
	H5537	H	0.096191	0.570929	0.814186
	H5538	H	0.341890	0.617907	0.758178
	H5539	H	0.091758	0.555413	0.820687
	H5540	H	0.167143	0.569185	0.757977
	H5541	H	0.417229	0.506688	0.820557
	H5542	H	0.163225	0.553690	0.876710
	H5543	H	0.413434	0.616146	0.814230
	O5544	O	0.585554	0.602722	0.761218
	O5545	O	0.835600	0.540267	0.823819
	O5546	O	0.593537	0.521207	0.861262
	O5547	O	0.843669	0.583659	0.798731
	O5548	O	0.915458	0.540902	0.861257
	O5549	O	0.665058	0.603406	0.798623
	O5550	O	0.923526	0.584341	0.761228
	O5551	O	0.673301	0.521807	0.823849
	O5552	O	0.923701	0.521846	0.863732
	O5553	O	0.673706	0.584309	0.801099
	O5554	O	0.915531	0.603373	0.763711
	O5555	O	0.665613	0.540863	0.826031
	O5556	O	0.593752	0.583669	0.763697
	O5557	O	0.843231	0.521150	0.826294
	O5558	O	0.585842	0.540266	0.863470
	O5559	O	0.835001	0.602756	0.801175
	F5560	F	0.504503	0.531018	0.827738
	F5561	F	0.754761	0.593530	0.765343
	F5562	F	0.504728	0.593522	0.797094
	F5563	F	0.754609	0.531061	0.859553
	Al5564	Al	0.629623	0.531031	0.843624
	Al5565	Al	0.879818	0.593538	0.781278
	Al5566	Al	0.629588	0.593524	0.781175
	Al5567	Al	0.879843	0.531044	0.843710
	C5568	C	0.593957	0.619927	0.749095
	C5569	C	0.843802	0.557419	0.811414
	C5570	C	0.596285	0.503670	0.870390
	C5571	C	0.846195	0.566152	0.807824
	C5572	C	0.913041	0.558430	0.870373
	C5573	C	0.662700	0.620905	0.807881
	C5574	C	0.915030	0.567157	0.748955
	C5575	C	0.664986	0.504631	0.811563
	C5576	C	0.915419	0.504661	0.876073
	C5577	C	0.665397	0.567130	0.813342
	C5578	C	0.912919	0.620918	0.754661
	C5579	C	0.662981	0.558392	0.816930
	C5580	C	0.596184	0.566149	0.754552
	C5581	C	0.845850	0.503654	0.817013
	C5582	C	0.594320	0.557433	0.875819
	C5583	C	0.843515	0.619904	0.813484
	C5584	C	0.502277	0.615938	0.753653
	C5585	C	0.752166	0.553431	0.816076
	C5586	C	0.507143	0.508626	0.871241
	C5587	C	0.757059	0.571117	0.808748
	C5588	C	0.502647	0.553452	0.871188
	C5589	C	0.751750	0.615928	0.808821
	C5590	C	0.507102	0.571115	0.753714
	C5591	C	0.756633	0.508612	0.816219
	C5592	C	0.500917	0.606662	0.759864
	C5593	C	0.750833	0.544168	0.822288
	C5594	C	0.508316	0.517894	0.864973
	C5595	C	0.758348	0.580381	0.802549
	C5596	C	0.501215	0.544190	0.864917
	C5597	C	0.750322	0.606682	0.802541
	C5598	C	0.508482	0.580376	0.759932
	C5599	C	0.757928	0.517872	0.822479
	H5600	H	0.663365	0.616159	0.748267
	H5601	H	0.913102	0.553655	0.810505
	H5602	H	0.667488	0.506665	0.866760
	H5603	H	0.917376	0.569130	0.804204
	H5604	H	0.841827	0.555426	0.866815
	H5605	H	0.591444	0.617917	0.804240
	H5606	H	0.845614	0.570920	0.748206
	H5607	H	0.595641	0.508400	0.810771
	H5608	H	0.846117	0.508437	0.877024
	H5609	H	0.596182	0.570911	0.814170
	H5610	H	0.841592	0.617931	0.758313
	H5611	H	0.591834	0.555383	0.820523
	H5612	H	0.667468	0.569135	0.758143
	H5613	H	0.916992	0.506659	0.820643
	H5614	H	0.663715	0.553667	0.876645
	H5615	H	0.912791	0.616131	0.814333
	O5616	O	0.085670	0.602764	0.886154
	O5617	O	0.335475	0.540272	0.948983
	O5618	O	0.093587	0.521201	0.986258
	O5619	O	0.343501	0.583689	0.923705
	O5620	O	0.415684	0.540890	0.986213
	O5621	O	0.165742	0.603385	0.923527
	O5622	O	0.424133	0.584329	0.886357
	O5623	O	0.173881	0.521808	0.949046
	O5624	O	0.423897	0.521807	0.988534
	O5625	O	0.173497	0.584283	0.925777
	O5626	O	0.415817	0.603369	0.888701
	O5627	O	0.165486	0.540897	0.951286
	O5628	O	0.093476	0.583729	0.888444
	O5629	O	0.343829	0.521172	0.951218
	O5630	O	0.085591	0.540290	0.988561
	O5631	O	0.335534	0.602752	0.926037
	F5632	F	0.005025	0.531025	0.952775
	F5633	F	0.254904	0.593514	0.890185
	F5634	F	0.005006	0.593563	0.922007
	F5635	F	0.254786	0.531047	0.984713
	Al5636	Al	0.129813	0.531041	0.968794
	Al5637	Al	0.379751	0.593531	0.906215
	Al5638	Al	0.129821	0.593542	0.906008
	Al5639	Al	0.379707	0.531027	0.968753
	C5640	C	0.093789	0.619936	0.874019
	C5641	C	0.343712	0.557426	0.936527
	C5642	C	0.095993	0.503683	0.995521
	C5643	C	0.346046	0.566155	0.932817
	C5644	C	0.413369	0.558420	0.995358
	C5645	C	0.162837	0.620894	0.932923
	C5646	C	0.415865	0.567157	0.873966
	C5647	C	0.165155	0.504651	0.936615
	C5648	C	0.415572	0.504669	1.000985
	C5649	C	0.165295	0.567142	0.938320
	C5650	C	0.413166	0.620903	0.879619
	C5651	C	0.162915	0.558410	0.942055
	C5652	C	0.096112	0.566204	0.879363
	C5653	C	0.346051	0.503647	0.942098
	C5654	C	0.093565	0.557434	1.000982
	C5655	C	0.343574	0.619917	0.938481
	C5656	C	0.002113	0.615950	0.878619
	C5657	C	0.252034	0.553446	0.941220
	C5658	C	0.006885	0.508657	0.996359
	C5659	C	0.256956	0.571121	0.933652
	C5660	C	0.001868	0.553453	0.996325
	C5661	C	0.251956	0.615917	0.933797
	C5662	C	0.006978	0.571168	0.878448
	C5663	C	0.256950	0.508620	0.941249
	C5664	C	0.000975	0.606681	0.884799
	C5665	C	0.250756	0.544189	0.947506
	C5666	C	0.008340	0.517915	0.990072
	C5667	C	0.258250	0.580380	0.927356
	C5668	C	0.000803	0.544191	0.990003
	C5669	C	0.250856	0.606670	0.927474
	C5670	C	0.008269	0.580429	0.884703
	C5671	C	0.258501	0.517883	0.947503
	H5672	H	0.163105	0.616166	0.873177
	H5673	H	0.412991	0.553651	0.935719
	H5674	H	0.167253	0.506672	0.991877
	H5675	H	0.417286	0.569134	0.929162
	H5676	H	0.342196	0.555428	0.991732
	H5677	H	0.091585	0.617912	0.929252
	H5678	H	0.346624	0.570926	0.873121
	H5679	H	0.095965	0.508435	0.935794
	H5680	H	0.346436	0.508461	1.001886
	H5681	H	0.095970	0.570913	0.939081
	H5682	H	0.341950	0.617914	0.883284
	H5683	H	0.091764	0.555420	0.945712
	H5684	H	0.167287	0.569203	0.882945
	H5685	H	0.417203	0.506634	0.945751
	H5686	H	0.162786	0.553661	1.001810
	H5687	H	0.413033	0.616154	0.939324
	O5688	O	0.585823	0.602765	0.886454
	O5689	O	0.835236	0.540253	0.948669
	O5690	O	0.593878	0.521204	0.986193
	O5691	O	0.843555	0.583680	0.923796
	O5692	O	0.915544	0.540880	0.986163
	O5693	O	0.665570	0.603396	0.923743
	O5694	O	0.923561	0.584336	0.886255
	O5695	O	0.673762	0.521822	0.948780
	O5696	O	0.923587	0.521843	0.988657
	O5697	O	0.673588	0.584325	0.926228
	O5698	O	0.915645	0.603387	0.888654
	O5699	O	0.665258	0.540884	0.951050
	O5700	O	0.593984	0.583677	0.888901
	O5701	O	0.843694	0.521172	0.951066
	O5702	O	0.585613	0.540254	0.988463
	O5703	O	0.835555	0.602762	0.926161
	F5704	F	0.504546	0.531016	0.952769
	F5705	F	0.754775	0.593528	0.890431
	F5706	F	0.504526	0.593557	0.922201
	F5707	F	0.754837	0.531075	0.984459
	Al5708	Al	0.629665	0.531041	0.968622
	Al5709	Al	0.880004	0.593552	0.906258
	Al5710	Al	0.629722	0.593538	0.906327
	Al5711	Al	0.879997	0.531042	0.968584
	C5712	C	0.593920	0.619918	0.874030
	C5713	C	0.843583	0.557430	0.936424
	C5714	C	0.596430	0.503656	0.995361
	C5715	C	0.846049	0.566165	0.932815
	C5716	C	0.912748	0.558425	0.995354
	C5717	C	0.662964	0.620902	0.932827
	C5718	C	0.915317	0.567174	0.873891
	C5719	C	0.665206	0.504653	0.936411
	C5720	C	0.915116	0.504681	1.001020
	C5721	C	0.665252	0.567147	0.938446
	C5722	C	0.913018	0.620926	0.879585
	C5723	C	0.662813	0.558411	0.942055
	C5724	C	0.596711	0.566170	0.879468
	C5725	C	0.846084	0.503671	0.941912
	C5726	C	0.594104	0.557420	1.001009
	C5727	C	0.843820	0.619918	0.938431
	C5728	C	0.502286	0.615932	0.878732
	C5729	C	0.751885	0.553444	0.941115
	C5730	C	0.507319	0.508633	0.996232
	C5731	C	0.756945	0.571129	0.933750
	C5732	C	0.502450	0.553444	0.996256
	C5733	C	0.752082	0.615933	0.933792
	C5734	C	0.507476	0.571142	0.878636
	C5735	C	0.756852	0.508628	0.941072
	C5736	C	0.501080	0.606673	0.884990
	C5737	C	0.750532	0.544177	0.947287
	C5738	C	0.508663	0.517895	0.989954
	C5739	C	0.758260	0.580395	0.927575
	C5740	C	0.500990	0.544181	0.989962
	C5741	C	0.750812	0.606678	0.927587
	C5742	C	0.508748	0.580398	0.884954
	C5743	C	0.758333	0.517889	0.947333
	H5744	H	0.663260	0.616148	0.873156
	H5745	H	0.912859	0.553662	0.935524
	H5746	H	0.667557	0.506655	0.991713
	H5747	H	0.917265	0.569145	0.929128
	H5748	H	0.841601	0.555436	0.991653
	H5749	H	0.591672	0.617914	0.929213
	H5750	H	0.845987	0.570941	0.873053
	H5751	H	0.596013	0.508427	0.935526
	H5752	H	0.845832	0.508459	1.001865
	H5753	H	0.596043	0.570933	0.939335
	H5754	H	0.841752	0.617939	0.883212
	H5755	H	0.591629	0.555422	0.945716
	H5756	H	0.667836	0.569179	0.883089
	H5757	H	0.917186	0.506682	0.945460
	H5758	H	0.663278	0.553636	1.001915
	H5759	H	0.913141	0.616150	0.939300
	O5760	O	0.085856	0.727749	0.011485
	O5761	O	0.335717	0.665258	0.074053
	O5762	O	0.093899	0.646184	0.111337
	O5763	O	0.343494	0.708667	0.048727
	O5764	O	0.415921	0.665881	0.111280
	O5765	O	0.165660	0.728362	0.048741
	O5766	O	0.423801	0.709297	0.011328
	O5767	O	0.173863	0.646802	0.073918
	O5768	O	0.423863	0.646818	0.113747
	O5769	O	0.173543	0.709268	0.050941
	O5770	O	0.415786	0.728348	0.013648
	O5771	O	0.165733	0.665854	0.076192
	O5772	O	0.093564	0.708675	0.013674
	O5773	O	0.343751	0.646182	0.076358
	O5774	O	0.085586	0.665267	0.113566
	O5775	O	0.335753	0.727738	0.050997
	F5776	F	0.004740	0.656013	0.077814
	F5777	F	0.254603	0.718497	0.015285
	F5778	F	0.004753	0.718509	0.047219
	F5779	F	0.254539	0.656046	0.109719
	Al5780	Al	0.129633	0.656031	0.093764
	Al5781	Al	0.379464	0.718513	0.031170
	Al5782	Al	0.129611	0.718503	0.031188
	Al5783	Al	0.379599	0.656022	0.093842
	C5784	C	0.094061	0.744924	-0.000931
	C5785	C	0.343905	0.682402	0.061496
	C5786	C	0.096221	0.628673	0.120527
	C5787	C	0.346323	0.691137	0.057819
	C5788	C	0.413144	0.683400	0.120386
	C5789	C	0.163000	0.745866	0.057986
	C5790	C	0.415687	0.692139	-0.001063
	C5791	C	0.165504	0.629652	0.061496
	C5792	C	0.415459	0.629650	0.126053
	C5793	C	0.165437	0.692123	0.063395
	C5794	C	0.413277	0.745902	0.004530
	C5795	C	0.163066	0.683391	0.067066
	C5796	C	0.096061	0.691161	0.004533
	C5797	C	0.346174	0.628646	0.067137
	C5798	C	0.093701	0.682433	0.126055
	C5799	C	0.343899	0.744897	0.063477
	C5800	C	0.002437	0.740926	0.003709
	C5801	C	0.252184	0.678420	0.066177
	C5802	C	0.007068	0.633642	0.121360
	C5803	C	0.257102	0.696100	0.058646
	C5804	C	0.002020	0.678441	0.121351
	C5805	C	0.252252	0.740913	0.058825
	C5806	C	0.006970	0.696130	0.003579
	C5807	C	0.257180	0.633630	0.066137
	C5808	C	0.001044	0.731659	0.009939
	C5809	C	0.250958	0.669161	0.072472
	C5810	C	0.008644	0.642904	0.115147
	C5811	C	0.258287	0.705363	0.052450
	C5812	C	0.000881	0.669176	0.115069
	C5813	C	0.251027	0.731652	0.052526
	C5814	C	0.008257	0.705380	0.009898
	C5815	C	0.258561	0.642887	0.072474
	H5816	H	0.163427	0.741153	-0.001786
	H5817	H	0.413090	0.678622	0.060680
	H5818	H	0.167467	0.631660	0.116904
	H5819	H	0.417463	0.694133	0.054177
	H5820	H	0.342003	0.680397	0.116691
	H5821	H	0.091922	0.742853	0.054358
	H5822	H	0.346448	0.695916	-0.001953
	H5823	H	0.096251	0.633424	0.060665
	H5824	H	0.346267	0.633429	0.126989
	H5825	H	0.096121	0.695892	0.064311
	H5826	H	0.342093	0.742909	0.008210
	H5827	H	0.091846	0.680416	0.070745
	H5828	H	0.167239	0.694157	0.008207
	H5829	H	0.417383	0.631622	0.070853
	H5830	H	0.163065	0.678661	0.126929
	H5831	H	0.413193	0.741123	0.064303
	O5832	O	0.585824	0.727758	0.011527
	O5833	O	0.835348	0.665261	0.073785
	O5834	O	0.593844	0.646167	0.111374
	O5835	O	0.843145	0.708677	0.048918
	O5836	O	0.915609	0.665861	0.111271
	O5837	O	0.665410	0.728326	0.048860
	O5838	O	0.923574	0.709293	0.011422
	O5839	O	0.673470	0.646794	0.073925
	O5840	O	0.923911	0.646839	0.113649
	O5841	O	0.673211	0.709283	0.051107
	O5842	O	0.915738	0.728348	0.013645
	O5843	O	0.665418	0.665862	0.076206
	O5844	O	0.593792	0.708671	0.013677
	O5845	O	0.843486	0.646164	0.076187
	O5846	O	0.585890	0.665255	0.113630
	O5847	O	0.835419	0.727767	0.051043
	F5848	F	0.504555	0.655985	0.077969
	F5849	F	0.754660	0.718493	0.015440
	F5850	F	0.504443	0.718493	0.047130
	F5851	F	0.754811	0.656033	0.109607
	Al5852	Al	0.629553	0.656022	0.093815
	Al5853	Al	0.879791	0.718524	0.031344
	Al5854	Al	0.629611	0.718498	0.031269
	Al5855	Al	0.879876	0.656041	0.093669
	C5856	C	0.594067	0.744905	-0.001067
	C5857	C	0.843536	0.682404	0.061407
	C5858	C	0.596183	0.628647	0.120384
	C5859	C	0.845837	0.691142	0.057841
	C5860	C	0.912899	0.683413	0.120371
	C5861	C	0.662570	0.745883	0.057916
	C5862	C	0.915277	0.692133	-0.001073
	C5863	C	0.665102	0.629654	0.061493
	C5864	C	0.915323	0.629664	0.126017
	C5865	C	0.665004	0.692128	0.063481
	C5866	C	0.913201	0.745896	0.004634
	C5867	C	0.662731	0.683394	0.067066
	C5868	C	0.596508	0.691159	0.004555
	C5869	C	0.845946	0.628653	0.067118
	C5870	C	0.593987	0.682423	0.126071
	C5871	C	0.843428	0.744905	0.063483
	C5872	C	0.502334	0.740916	0.003603
	C5873	C	0.751836	0.678430	0.066144
	C5874	C	0.507110	0.633620	0.121293
	C5875	C	0.756705	0.696107	0.058794
	C5876	C	0.502342	0.678437	0.121368
	C5877	C	0.751693	0.740924	0.058811
	C5878	C	0.507359	0.696129	0.003595
	C5879	C	0.756833	0.633624	0.066123
	C5880	C	0.501028	0.731658	0.009935
	C5881	C	0.750574	0.669169	0.072390
	C5882	C	0.508487	0.642882	0.115111
	C5883	C	0.757901	0.705370	0.052606
	C5884	C	0.501175	0.669174	0.115091
	C5885	C	0.750521	0.731658	0.052539
	C5886	C	0.508543	0.705385	0.009847
	C5887	C	0.758179	0.642881	0.072379
	H5888	H	0.663331	0.741127	-0.001922
	H5889	H	0.912734	0.678623	0.060504
	H5890	H	0.667459	0.631626	0.116755
	H5891	H	0.916943	0.694137	0.054188
	H5892	H	0.841627	0.680424	0.116694
	H5893	H	0.591411	0.742879	0.054278
	H5894	H	0.845952	0.695906	-0.001903
	H5895	H	0.595888	0.633434	0.060605
	H5896	H	0.846039	0.633438	0.126840
	H5897	H	0.595716	0.695899	0.064373
	H5898	H	0.842013	0.742897	0.008261
	H5899	H	0.591539	0.680408	0.070727
	H5900	H	0.667736	0.694145	0.008253
	H5901	H	0.917066	0.631650	0.070794
	H5902	H	0.663262	0.678643	0.126939
	H5903	H	0.912702	0.741123	0.064329
	O5904	O	0.085746	0.727781	0.136509
	O5905	O	0.335498	0.665241	0.198990
	O5906	O	0.093800	0.646185	0.236338
	O5907	O	0.343523	0.708678	0.173842
	O5908	O	0.415467	0.665867	0.236369
	O5909	O	0.165688	0.728359	0.173866
	O5910	O	0.423661	0.709307	0.136442
	O5911	O	0.173739	0.646779	0.198993
	O5912	O	0.424056	0.646824	0.238701
	O5913	O	0.173607	0.709301	0.176127
	O5914	O	0.415876	0.728369	0.138748
	O5915	O	0.165552	0.665884	0.201343
	O5916	O	0.093554	0.708701	0.138762
	O5917	O	0.343677	0.646178	0.201377
	O5918	O	0.085433	0.665275	0.238466
	O5919	O	0.335671	0.727755	0.176035
	F5920	F	0.004695	0.656014	0.202804
	F5921	F	0.254564	0.718507	0.140377
	F5922	F	0.004830	0.718532	0.172282
	F5923	F	0.254738	0.656043	0.234754
	Al5924	Al	0.129680	0.656022	0.218809
	Al5925	Al	0.379696	0.718516	0.156303
	Al5926	Al	0.129614	0.718535	0.156337
	Al5927	Al	0.379589	0.656025	0.218855
	C5928	C	0.094025	0.744933	0.124165
	C5929	C	0.343788	0.682412	0.186617
	C5930	C	0.096279	0.628681	0.245585
	C5931	C	0.346034	0.691146	0.182947
	C5932	C	0.413099	0.683394	0.245458
	C5933	C	0.163023	0.745888	0.183067
	C5934	C	0.415534	0.692140	0.123951
	C5935	C	0.165379	0.629649	0.186566
	C5936	C	0.415586	0.629668	0.251097
	C5937	C	0.165224	0.692125	0.188485
	C5938	C	0.413289	0.745896	0.129609
	C5939	C	0.162961	0.683392	0.192144
	C5940	C	0.096266	0.691178	0.129629
	C5941	C	0.346285	0.628659	0.192120
	C5942	C	0.093486	0.682437	0.251044
	C5943	C	0.343869	0.744919	0.188575
	C5944	C	0.002277	0.740949	0.128789
	C5945	C	0.252147	0.678425	0.191290
	C5946	C	0.007091	0.633642	0.246420
	C5947	C	0.256898	0.696115	0.183819
	C5948	C	0.001881	0.678444	0.246373
	C5949	C	0.252186	0.740925	0.183925
	C5950	C	0.007132	0.696142	0.128705
	C5951	C	0.257129	0.633619	0.191268
	C5952	C	0.001039	0.731683	0.135022
	C5953	C	0.250862	0.669169	0.197541
	C5954	C	0.008373	0.642904	0.240192
	C5955	C	0.258265	0.705382	0.177592
	C5956	C	0.000594	0.669185	0.240067
	C5957	C	0.250907	0.731662	0.177612
	C5958	C	0.008369	0.705401	0.134979
	C5959	C	0.258514	0.642872	0.197567
	H5960	H	0.163328	0.741157	0.123333
	H5961	H	0.413094	0.678642	0.185766
	H5962	H	0.167511	0.631680	0.241986
	H5963	H	0.417256	0.694135	0.179289
	H5964	H	0.341805	0.680411	0.241868
	H5965	H	0.091770	0.742898	0.179487
	H5966	H	0.346300	0.695917	0.122989
	H5967	H	0.096167	0.633437	0.185701
	H5968	H	0.346443	0.633459	0.251913
	H5969	H	0.095882	0.695893	0.189338
	H5970	H	0.342118	0.742898	0.133254
	H5971	H	0.091777	0.680398	0.195810
	H5972	H	0.167457	0.694168	0.133287
	H5973	H	0.417415	0.631663	0.195740
	H5974	H	0.162816	0.678663	0.251926
	H5975	H	0.413237	0.741152	0.189376
	O5976	O	0.585817	0.727742	0.136365
	O5977	O	0.835141	0.665251	0.198828
	O5978	O	0.593938	0.646179	0.236295
	O5979	O	0.843366	0.708644	0.173847
	O5980	O	0.915393	0.665885	0.236333
	O5981	O	0.665260	0.728379	0.173797
	O5982	O	0.923592	0.709323	0.136465
	O5983	O	0.673478	0.646811	0.198929
	O5984	O	0.923853	0.646842	0.238755
	O5985	O	0.673307	0.709294	0.176144
	O5986	O	0.915698	0.728378	0.138779
	O5987	O	0.665234	0.665887	0.201358
	O5988	O	0.593563	0.708707	0.138689
	O5989	O	0.843438	0.646133	0.201355
	O5990	O	0.585487	0.665234	0.238703
	O5991	O	0.835241	0.727743	0.176255
	F5992	F	0.504491	0.656015	0.202918
	F5993	F	0.754831	0.718524	0.140473
	F5994	F	0.504573	0.718536	0.172178
	F5995	F	0.754679	0.656045	0.234623
	Al5996	Al	0.629648	0.656026	0.218794
	Al5997	Al	0.879915	0.718534	0.156420
	Al5998	Al	0.629575	0.718529	0.156272
	Al5999	Al	0.879889	0.656038	0.218701
	C6000	C	0.594101	0.744914	0.124001
	C6001	C	0.843438	0.682421	0.186525
	C6002	C	0.596347	0.628654	0.245420
	C6003	C	0.845701	0.691152	0.182849
	C6004	C	0.912612	0.683417	0.245477
	C6005	C	0.662679	0.745890	0.182939
	C6006	C	0.915454	0.692158	0.123954
	C6007	C	0.664926	0.629646	0.186617
	C6008	C	0.915276	0.629658	0.251028
	C6009	C	0.664903	0.692138	0.188531
	C6010	C	0.913095	0.745918	0.129646
	C6011	C	0.662624	0.683407	0.192197
	C6012	C	0.596312	0.691167	0.129618
	C6013	C	0.845777	0.628643	0.192141
	C6014	C	0.593912	0.682405	0.251084
	C6015	C	0.843446	0.744910	0.188547
	C6016	C	0.502430	0.740925	0.128707
	C6017	C	0.751753	0.678436	0.191233
	C6018	C	0.507324	0.633632	0.246412
	C6019	C	0.756563	0.696117	0.183809
	C6020	C	0.502233	0.678428	0.246362
	C6021	C	0.751823	0.740923	0.183916
	C6022	C	0.507134	0.696123	0.128742
	C6023	C	0.756622	0.633614	0.191263
	C6024	C	0.501134	0.731664	0.134949
	C6025	C	0.750469	0.669176	0.197494
	C6026	C	0.508695	0.642891	0.240083
	C6027	C	0.757954	0.705369	0.177589
	C6028	C	0.500802	0.669153	0.240169
	C6029	C	0.750552	0.731663	0.177659
	C6030	C	0.508375	0.705391	0.134982
	C6031	C	0.758057	0.642871	0.197510
	H6032	H	0.663396	0.741139	0.123110
	H6033	H	0.912823	0.678649	0.185729
	H6034	H	0.667529	0.631643	0.241712
	H6035	H	0.916913	0.694139	0.179192
	H6036	H	0.841431	0.680414	0.241856
	H6037	H	0.591514	0.742895	0.179238
	H6038	H	0.846183	0.695937	0.123058
	H6039	H	0.595678	0.633425	0.185756
	H6040	H	0.845992	0.633436	0.251837
	H6041	H	0.595653	0.695913	0.189393
	H6042	H	0.841872	0.742924	0.133277
	H6043	H	0.591465	0.680412	0.195902
	H6044	H	0.667536	0.694153	0.133218
	H6045	H	0.916867	0.631640	0.195786
	H6046	H	0.663207	0.678627	0.252024
	H6047	H	0.912809	0.741141	0.189443
	O6048	O	0.085620	0.727761	0.261433
	O6049	O	0.335536	0.665247	0.323917
	O6050	O	0.093556	0.646194	0.361340
	O6051	O	0.343524	0.708671	0.298705
	O6052	O	0.415600	0.665866	0.361381
	O6053	O	0.165499	0.728372	0.298866
	O6054	O	0.423802	0.709282	0.261553
	O6055	O	0.173854	0.646804	0.323986
	O6056	O	0.423998	0.646805	0.363649
	O6057	O	0.173564	0.709304	0.301081
	O6058	O	0.415704	0.728366	0.263718
	O6059	O	0.165616	0.665870	0.326241
	O6060	O	0.093648	0.708694	0.263776
	O6061	O	0.343829	0.646159	0.326355
	O6062	O	0.085568	0.665256	0.363676
	O6063	O	0.335575	0.727769	0.301063
	F6064	F	0.004845	0.656032	0.327840
	F6065	F	0.254680	0.718527	0.265340
	F6066	F	0.004678	0.718532	0.297256
	F6067	F	0.254782	0.656036	0.359687
	Al6068	Al	0.129769	0.656029	0.343818
	Al6069	Al	0.379538	0.718529	0.281264
	Al6070	Al	0.129605	0.718537	0.281241
	Al6071	Al	0.379775	0.656027	0.343777
	C6072	C	0.093620	0.744934	0.249076
	C6073	C	0.343702	0.682417	0.311475
	C6074	C	0.095782	0.628676	0.370499
	C6075	C	0.346119	0.691153	0.307850
	C6076	C	0.412874	0.683377	0.370437
	C6077	C	0.162820	0.745893	0.308041
	C6078	C	0.415630	0.692135	0.249047
	C6079	C	0.165258	0.629652	0.311667
	C6080	C	0.415515	0.629645	0.375989
	C6081	C	0.165249	0.692138	0.313446
	C6082	C	0.413142	0.745893	0.254658
	C6083	C	0.162918	0.683406	0.317097
	C6084	C	0.095975	0.691177	0.254636
	C6085	C	0.346337	0.628661	0.317126
	C6086	C	0.093756	0.682432	0.375922
	C6087	C	0.343654	0.744917	0.313502
	C6088	C	0.002084	0.740945	0.253797
	C6089	C	0.251986	0.678435	0.316141
	C6090	C	0.006712	0.633650	0.371385
	C6091	C	0.256952	0.696116	0.308724
	C6092	C	0.002075	0.678441	0.371306
	C6093	C	0.251921	0.740930	0.308910
	C6094	C	0.006928	0.696144	0.253657
	C6095	C	0.257122	0.633617	0.316251
	C6096	C	0.000781	0.731680	0.260004
	C6097	C	0.250829	0.669168	0.322447
	C6098	C	0.008408	0.642915	0.365189
	C6099	C	0.258270	0.705378	0.302489
	C6100	C	0.001016	0.669173	0.365070
	C6101	C	0.250756	0.731671	0.302634
	C6102	C	0.008260	0.705409	0.259908
	C6103	C	0.258512	0.642879	0.322519
	H6104	H	0.162960	0.741165	0.248175
	H6105	H	0.412926	0.678636	0.310670
	H6106	H	0.166979	0.631668	0.366891
	H6107	H	0.417209	0.694152	0.304219
	H6108	H	0.341678	0.680387	0.366779
	H6109	H	0.091593	0.742899	0.304446
	H6110	H	0.346359	0.695910	0.248173
	H6111	H	0.096105	0.633450	0.310901
	H6112	H	0.346213	0.633418	0.376753
	H6113	H	0.096002	0.695912	0.314333
	H6114	H	0.341896	0.742905	0.258261
	H6115	H	0.091603	0.680426	0.320781
	H6116	H	0.167195	0.694164	0.258292
	H6117	H	0.417407	0.631675	0.320760
	H6118	H	0.163171	0.678670	0.376760
	H6119	H	0.412933	0.741138	0.314291
	O6120	O	0.585698	0.727756	0.261435
	O6121	O	0.835263	0.665278	0.323915
	O6122	O	0.593987	0.646144	0.361122
	O6123	O	0.843453	0.708639	0.298798
	O6124	O	0.915602	0.665872	0.361208
	O6125	O	0.665332	0.728346	0.298884
	O6126	O	0.923751	0.709329	0.261329
	O6127	O	0.673768	0.646835	0.323724
	O6128	O	0.923645	0.646855	0.363843
	O6129	O	0.673530	0.709306	0.301145
	O6130	O	0.915569	0.728389	0.263780
	O6131	O	0.665248	0.665872	0.326198
	O6132	O	0.593804	0.708670	0.263795
	O6133	O	0.843696	0.646145	0.326302
	O6134	O	0.585517	0.665240	0.363590
	O6135	O	0.835331	0.727751	0.301128
	F6136	F	0.504486	0.656028	0.327857
	F6137	F	0.754722	0.718520	0.265467
	F6138	F	0.504471	0.718543	0.297188
	F6139	F	0.754726	0.656030	0.359600
	Al6140	Al	0.629667	0.656025	0.343679
	Al6141	Al	0.879876	0.718530	0.281347
	Al6142	Al	0.629690	0.718521	0.281302
	Al6143	Al	0.879969	0.656041	0.343717
	C6144	C	0.593890	0.744928	0.249182
	C6145	C	0.843435	0.682406	0.311575
	C6146	C	0.596409	0.628663	0.370575
	C6147	C	0.845773	0.691139	0.307924
	C6148	C	0.912882	0.683407	0.370366
	C6149	C	0.662682	0.745894	0.307979
	C6150	C	0.915112	0.692153	0.249064
	C6151	C	0.664952	0.629660	0.311547
	C6152	C	0.915004	0.629679	0.376048
	C6153	C	0.664893	0.692132	0.313485
	C6154	C	0.912815	0.745918	0.254632
	C6155	C	0.662539	0.683403	0.317103
	C6156	C	0.596459	0.691144	0.254680
	C6157	C	0.845963	0.628656	0.317088
	C6158	C	0.593631	0.682419	0.375999
	C6159	C	0.843471	0.744907	0.313533
	C6160	C	0.502276	0.740929	0.253778
	C6161	C	0.751725	0.678441	0.316267
	C6162	C	0.507215	0.633627	0.371386
	C6163	C	0.756607	0.696105	0.308850
	C6164	C	0.502070	0.678417	0.371349
	C6165	C	0.751785	0.740926	0.308927
	C6166	C	0.507317	0.696117	0.253719
	C6167	C	0.756778	0.633619	0.316247
	C6168	C	0.500985	0.731666	0.259984
	C6169	C	0.750460	0.669183	0.322504
	C6170	C	0.508637	0.642874	0.365029
	C6171	C	0.758069	0.705365	0.302572
	C6172	C	0.500857	0.669158	0.365134
	C6173	C	0.750561	0.731650	0.302672
	C6174	C	0.508564	0.705376	0.259988
	C6175	C	0.758316	0.642883	0.322424
	H6176	H	0.663328	0.741170	0.248373
	H6177	H	0.912698	0.678622	0.310707
	H6178	H	0.667625	0.631665	0.366996
	H6179	H	0.916845	0.694134	0.304259
	H6180	H	0.841637	0.680413	0.366732
	H6181	H	0.591496	0.742893	0.304341
	H6182	H	0.845862	0.695932	0.248225
	H6183	H	0.595811	0.633455	0.310665
	H6184	H	0.845786	0.633459	0.376996
	H6185	H	0.595563	0.695895	0.314312
	H6186	H	0.841583	0.742917	0.258224
	H6187	H	0.591290	0.680410	0.320715
	H6188	H	0.667587	0.694134	0.258350
	H6189	H	0.917119	0.631663	0.320662
	H6190	H	0.663015	0.678650	0.376869
	H6191	H	0.912826	0.741133	0.314362
	O6192	O	0.085419	0.727748	0.386419
	O6193	O	0.335532	0.665268	0.449062
	O6194	O	0.093574	0.646183	0.486276
	O6195	O	0.343876	0.708660	0.423604
	O6196	O	0.415635	0.665864	0.486275
	O6197	O	0.165291	0.728383	0.423649
	O6198	O	0.423690	0.709318	0.386304
	O6199	O	0.173708	0.646811	0.449064
	O6200	O	0.423825	0.646790	0.488581
	O6201	O	0.173938	0.709274	0.425933
	O6202	O	0.415590	0.728371	0.388702
	O6203	O	0.165591	0.665884	0.451268
	O6204	O	0.093549	0.708656	0.388786
	O6205	O	0.343689	0.646175	0.451295
	O6206	O	0.085134	0.665258	0.488656
	O6207	O	0.335315	0.727722	0.426160
	F6208	F	0.004839	0.656041	0.452798
	F6209	F	0.254702	0.718525	0.390259
	F6210	F	0.004815	0.718529	0.422228
	F6211	F	0.254576	0.656030	0.484768
	Al6212	Al	0.129643	0.656039	0.468797
	Al6213	Al	0.379584	0.718540	0.406221
	Al6214	Al	0.129679	0.718519	0.406212
	Al6215	Al	0.379608	0.656028	0.468816
	C6216	C	0.093647	0.744929	0.374227
	C6217	C	0.343944	0.682412	0.436627
	C6218	C	0.096199	0.628677	0.495570
	C6219	C	0.346392	0.691136	0.432958
	C6220	C	0.413027	0.683385	0.495504
	C6221	C	0.162861	0.745896	0.432963
	C6222	C	0.415315	0.692131	0.374030
	C6223	C	0.165425	0.629657	0.436571
	C6224	C	0.415503	0.629633	0.500921
	C6225	C	0.165414	0.692140	0.438329
	C6226	C	0.413249	0.745897	0.379469
	C6227	C	0.162953	0.683405	0.441988
	C6228	C	0.096013	0.691176	0.379530
	C6229	C	0.346325	0.628662	0.442081
	C6230	C	0.093464	0.682432	0.500817
	C6231	C	0.343677	0.744910	0.438466
	C6232	C	0.001956	0.740934	0.378792
	C6233	C	0.252135	0.678442	0.441252
	C6234	C	0.007047	0.633637	0.496438
	C6235	C	0.257269	0.696105	0.433713
	C6236	C	0.001679	0.678448	0.496195
	C6237	C	0.252005	0.740937	0.433819
	C6238	C	0.006760	0.696135	0.378637
	C6239	C	0.257114	0.633626	0.441287
	C6240	C	0.000808	0.731658	0.384941
	C6241	C	0.250831	0.669184	0.447536
	C6242	C	0.008360	0.642893	0.490107
	C6243	C	0.258660	0.705359	0.427400
	C6244	C	0.000562	0.669176	0.490002
	C6245	C	0.250640	0.731661	0.427510
	C6246	C	0.008373	0.705392	0.384924
	C6247	C	0.258354	0.642886	0.447573
	H6248	H	0.163064	0.741163	0.373411
	H6249	H	0.413174	0.678633	0.435836
	H6250	H	0.167443	0.631669	0.491961
	H6251	H	0.417656	0.694111	0.429363
	H6252	H	0.341808	0.680382	0.491947
	H6253	H	0.091676	0.742896	0.429334
	H6254	H	0.346183	0.695919	0.373142
	H6255	H	0.096141	0.633437	0.435736
	H6256	H	0.346193	0.633397	0.501767
	H6257	H	0.096206	0.695931	0.439073
	H6258	H	0.342020	0.742903	0.383060
	H6259	H	0.091728	0.680401	0.445548
	H6260	H	0.167203	0.694172	0.383166
	H6261	H	0.417527	0.631656	0.445712
	H6262	H	0.162755	0.678653	0.501647
	H6263	H	0.412925	0.741125	0.439307
	O6264	O	0.585734	0.727757	0.386576
	O6265	O	0.835174	0.665252	0.448717
	O6266	O	0.593806	0.646167	0.486150
	O6267	O	0.843486	0.708649	0.423785
	O6268	O	0.915252	0.665876	0.486188
	O6269	O	0.665163	0.728353	0.423930
	O6270	O	0.923656	0.709338	0.386349
	O6271	O	0.673731	0.646794	0.448837
	O6272	O	0.923619	0.646804	0.488578
	O6273	O	0.673570	0.709291	0.426094
	O6274	O	0.915358	0.728358	0.388693
	O6275	O	0.665192	0.665866	0.451097
	O6276	O	0.593582	0.708679	0.388862
	O6277	O	0.843734	0.646161	0.451133
	O6278	O	0.585519	0.665219	0.488642
	O6279	O	0.835205	0.727756	0.426250
	F6280	F	0.504459	0.656022	0.452814
	F6281	F	0.754727	0.718536	0.390476
	F6282	F	0.504417	0.718526	0.422177
	F6283	F	0.754727	0.656024	0.484505
	Al6284	Al	0.629522	0.656028	0.468677
	Al6285	Al	0.879842	0.718539	0.406362
	Al6286	Al	0.629597	0.718520	0.406354
	Al6287	Al	0.879894	0.656032	0.468619
	C6288	C	0.594089	0.744910	0.374006
	C6289	C	0.843570	0.682392	0.436438
	C6290	C	0.596186	0.628638	0.495308
	C6291	C	0.845980	0.691124	0.432884
	C6292	C	0.912545	0.683415	0.495353
	C6293	C	0.662363	0.745880	0.433096
	C6294	C	0.915155	0.692150	0.373972
	C6295	C	0.665442	0.629633	0.436489
	C6296	C	0.915299	0.629650	0.501054
	C6297	C	0.665138	0.692122	0.438425
	C6298	C	0.912737	0.745893	0.379658
	C6299	C	0.662673	0.683384	0.442000
	C6300	C	0.596175	0.691162	0.379582
	C6301	C	0.846288	0.628643	0.442156
	C6302	C	0.593962	0.682414	0.500920
	C6303	C	0.843289	0.744915	0.438494
	C6304	C	0.502379	0.740939	0.378685
	C6305	C	0.751779	0.678420	0.441048
	C6306	C	0.507200	0.633610	0.496250
	C6307	C	0.756836	0.696091	0.433718
	C6308	C	0.502267	0.678423	0.496300
	C6309	C	0.751577	0.740929	0.433945
	C6310	C	0.506948	0.696122	0.378728
	C6311	C	0.757119	0.633605	0.441225
	C6312	C	0.500973	0.731668	0.385016
	C6313	C	0.750407	0.669161	0.447294
	C6314	C	0.508569	0.642872	0.489977
	C6315	C	0.758161	0.705356	0.427486
	C6316	C	0.500917	0.669155	0.490067
	C6317	C	0.750367	0.731658	0.427702
	C6318	C	0.508338	0.705388	0.384960
	C6319	C	0.758396	0.642873	0.447401
	H6320	H	0.663393	0.741131	0.373198
	H6321	H	0.912896	0.678620	0.435622
	H6322	H	0.667461	0.631612	0.491619
	H6323	H	0.917256	0.694107	0.429325
	H6324	H	0.841320	0.680424	0.491717
	H6325	H	0.591224	0.742867	0.429541
	H6326	H	0.845827	0.695923	0.373128
	H6327	H	0.596206	0.633411	0.435554
	H6328	H	0.846001	0.633424	0.501859
	H6329	H	0.595956	0.695913	0.439295
	H6330	H	0.841490	0.742893	0.383257
	H6331	H	0.591547	0.680381	0.445647
	H6332	H	0.667276	0.694177	0.383195
	H6333	H	0.917489	0.631630	0.445822
	H6334	H	0.663303	0.678640	0.501748
	H6335	H	0.912668	0.741147	0.439275
	O6336	O	0.085581	0.727797	0.511577
	O6337	O	0.335826	0.665239	0.573869
	O6338	O	0.093804	0.646167	0.611130
	O6339	O	0.343890	0.708642	0.548635
	O6340	O	0.415606	0.665865	0.611372
	O6341	O	0.165779	0.728349	0.548850
	O6342	O	0.423781	0.709300	0.511275
	O6343	O	0.173797	0.646795	0.573898
	O6344	O	0.423723	0.646817	0.613642
	O6345	O	0.173964	0.709282	0.551013
	O6346	O	0.415654	0.728372	0.513753
	O6347	O	0.165910	0.665868	0.576162
	O6348	O	0.093587	0.708682	0.513770
	O6349	O	0.343787	0.646165	0.576304
	O6350	O	0.085477	0.665277	0.613413
	O6351	O	0.335723	0.727755	0.550958
	F6352	F	0.004799	0.656063	0.577706
	F6353	F	0.254496	0.718527	0.515281
	F6354	F	0.004769	0.718526	0.547258
	F6355	F	0.254577	0.656027	0.609642
	Al6356	Al	0.129755	0.656030	0.593673
	Al6357	Al	0.379663	0.718505	0.531199
	Al6358	Al	0.129580	0.718523	0.531295
	Al6359	Al	0.379592	0.656032	0.593784
	C6360	C	0.093494	0.744962	0.499114
	C6361	C	0.344285	0.682400	0.561490
	C6362	C	0.095963	0.628667	0.620458
	C6363	C	0.346523	0.691136	0.557887
	C6364	C	0.412857	0.683394	0.620432
	C6365	C	0.163112	0.745886	0.557982
	C6366	C	0.415353	0.692130	0.499088
	C6367	C	0.165661	0.629629	0.561603
	C6368	C	0.415420	0.629642	0.626062
	C6369	C	0.165616	0.692114	0.563312
	C6370	C	0.412978	0.745876	0.504607
	C6371	C	0.163374	0.683378	0.566919
	C6372	C	0.096012	0.691172	0.504438
	C6373	C	0.346342	0.628654	0.567127
	C6374	C	0.093765	0.682433	0.625837
	C6375	C	0.343967	0.744909	0.563442
	C6376	C	0.001862	0.740966	0.503780
	C6377	C	0.252606	0.678419	0.566095
	C6378	C	0.006875	0.633640	0.621325
	C6379	C	0.257289	0.696098	0.558702
	C6380	C	0.002090	0.678456	0.621124
	C6381	C	0.252248	0.740914	0.558836
	C6382	C	0.006865	0.696133	0.503657
	C6383	C	0.257311	0.633622	0.566220
	C6384	C	0.000841	0.731690	0.510007
	C6385	C	0.251178	0.669156	0.572348
	C6386	C	0.008418	0.642904	0.615043
	C6387	C	0.258618	0.705359	0.552465
	C6388	C	0.000782	0.669194	0.614902
	C6389	C	0.250973	0.731660	0.552520
	C6390	C	0.008426	0.705397	0.509943
	C6391	C	0.258525	0.642879	0.572474
	H6392	H	0.162936	0.741198	0.498239
	H6393	H	0.413676	0.678640	0.560679
	H6394	H	0.167239	0.631649	0.616894
	H6395	H	0.417697	0.694126	0.554316
	H6396	H	0.341638	0.680396	0.616819
	H6397	H	0.091776	0.742896	0.554368
	H6398	H	0.346127	0.695909	0.498265
	H6399	H	0.096328	0.633397	0.560800
	H6400	H	0.346099	0.633399	0.626957
	H6401	H	0.096284	0.695883	0.564111
	H6402	H	0.341750	0.742881	0.508209
	H6403	H	0.092227	0.680373	0.570508
	H6404	H	0.167209	0.694165	0.508008
	H6405	H	0.417636	0.631623	0.570837
	H6406	H	0.163022	0.678651	0.626689
	H6407	H	0.413312	0.741140	0.564201
	O6408	O	0.585504	0.727726	0.511260
	O6409	O	0.835118	0.665269	0.573841
	O6410	O	0.593725	0.646182	0.611285
	O6411	O	0.843400	0.708655	0.548818
	O6412	O	0.915374	0.665893	0.611247
	O6413	O	0.665453	0.728379	0.548772
	O6414	O	0.923736	0.709327	0.511375
	O6415	O	0.673716	0.646814	0.573909
	O6416	O	0.923932	0.646849	0.613616
	O6417	O	0.673420	0.709315	0.551212
	O6418	O	0.915541	0.728364	0.513638
	O6419	O	0.665275	0.665885	0.576247
	O6420	O	0.593726	0.708656	0.513768
	O6421	O	0.843696	0.646168	0.576214
	O6422	O	0.585581	0.665268	0.613566
	O6423	O	0.835369	0.727773	0.551164
	F6424	F	0.504649	0.656045	0.577876
	F6425	F	0.754771	0.718526	0.515430
	F6426	F	0.504414	0.718508	0.547085
	F6427	F	0.754812	0.656024	0.609560
	Al6428	Al	0.629766	0.656021	0.593741
	Al6429	Al	0.879854	0.718532	0.531357
	Al6430	Al	0.629494	0.718521	0.531265
	Al6431	Al	0.879891	0.656045	0.593619
	C6432	C	0.593833	0.744916	0.499083
	C6433	C	0.843318	0.682434	0.561522
	C6434	C	0.596053	0.628675	0.620473
	C6435	C	0.845672	0.691167	0.557943
	C6436	C	0.912899	0.683429	0.620312
	C6437	C	0.662709	0.745887	0.557971
	C6438	C	0.915099	0.692157	0.498982
	C6439	C	0.665101	0.629665	0.561458
	C6440	C	0.915114	0.629663	0.626013
	C6441	C	0.664840	0.692148	0.563451
	C6442	C	0.912572	0.745924	0.504565
	C6443	C	0.662487	0.683413	0.567052
	C6444	C	0.596263	0.691159	0.504532
	C6445	C	0.845789	0.628646	0.567117
	C6446	C	0.593706	0.682425	0.625977
	C6447	C	0.843514	0.744903	0.563628
	C6448	C	0.502202	0.740910	0.503736
	C6449	C	0.751663	0.678442	0.566111
	C6450	C	0.507042	0.633642	0.621461
	C6451	C	0.756549	0.696128	0.558880
	C6452	C	0.502027	0.678425	0.621332
	C6453	C	0.751873	0.740915	0.558891
	C6454	C	0.507062	0.696112	0.503682
	C6455	C	0.756805	0.633634	0.566195
	C6456	C	0.500888	0.731656	0.509903
	C6457	C	0.750439	0.669183	0.572387
	C6458	C	0.508430	0.642902	0.615152
	C6459	C	0.758040	0.705385	0.552647
	C6460	C	0.500831	0.669171	0.615109
	C6461	C	0.750620	0.731674	0.552617
	C6462	C	0.508431	0.705373	0.509898
	C6463	C	0.758343	0.642890	0.572437
	H6464	H	0.663213	0.741148	0.498202
	H6465	H	0.912628	0.678672	0.560711
	H6466	H	0.667328	0.631646	0.616832
	H6467	H	0.916870	0.694154	0.554309
	H6468	H	0.841670	0.680434	0.616690
	H6469	H	0.591518	0.742896	0.554295
	H6470	H	0.845890	0.695940	0.498147
	H6471	H	0.595847	0.633440	0.560570
	H6472	H	0.845897	0.633442	0.626911
	H6473	H	0.595584	0.695925	0.564293
	H6474	H	0.841356	0.742921	0.508107
	H6475	H	0.591355	0.680407	0.570714
	H6476	H	0.667472	0.694151	0.508113
	H6477	H	0.917175	0.631608	0.570790
	H6478	H	0.663077	0.678655	0.626791
	H6479	H	0.912872	0.741132	0.564511
	O6480	O	0.085751	0.727759	0.636535
	O6481	O	0.335442	0.665252	0.698844
	O6482	O	0.093843	0.646167	0.736072
	O6483	O	0.344101	0.708647	0.673628
	O6484	O	0.415390	0.665882	0.736267
	O6485	O	0.165623	0.728393	0.673798
	O6486	O	0.423601	0.709308	0.636339
	O6487	O	0.173624	0.646826	0.698808
	O6488	O	0.423601	0.646812	0.738587
	O6489	O	0.174178	0.709339	0.676222
	O6490	O	0.415463	0.728359	0.638635
	O6491	O	0.165534	0.665903	0.701285
	O6492	O	0.093693	0.708676	0.638906
	O6493	O	0.343562	0.646197	0.701270
	O6494	O	0.085265	0.665241	0.738633
	O6495	O	0.335617	0.727729	0.676168
	F6496	F	0.004790	0.656060	0.702735
	F6497	F	0.254565	0.718527	0.640346
	F6498	F	0.004781	0.718521	0.672300
	F6499	F	0.254356	0.656024	0.734678
	Al6500	Al	0.129570	0.656042	0.718683
	Al6501	Al	0.379626	0.718523	0.656172
	Al6502	Al	0.129841	0.718527	0.656375
	Al6503	Al	0.379525	0.656035	0.718762
	C6504	C	0.093859	0.744934	0.624224
	C6505	C	0.343923	0.682415	0.686433
	C6506	C	0.096223	0.628674	0.745380
	C6507	C	0.346341	0.691151	0.682836
	C6508	C	0.412886	0.683391	0.745484
	C6509	C	0.163285	0.745901	0.683028
	C6510	C	0.415298	0.692141	0.624064
	C6511	C	0.165516	0.629640	0.686650
	C6512	C	0.415341	0.629644	0.750991
	C6513	C	0.165477	0.692153	0.688376
	C6514	C	0.412725	0.745896	0.629479
	C6515	C	0.163057	0.683417	0.691939
	C6516	C	0.096165	0.691169	0.629534
	C6517	C	0.346252	0.628665	0.692132
	C6518	C	0.093938	0.682427	0.750801
	C6519	C	0.344150	0.744918	0.688440
	C6520	C	0.002211	0.740940	0.628836
	C6521	C	0.252179	0.678443	0.691102
	C6522	C	0.007086	0.633640	0.746290
	C6523	C	0.257221	0.696128	0.683757
	C6524	C	0.002156	0.678443	0.746212
	C6525	C	0.252469	0.740933	0.683814
	C6526	C	0.007115	0.696138	0.628658
	C6527	C	0.257136	0.633635	0.691253
	C6528	C	0.000988	0.731671	0.635068
	C6529	C	0.250801	0.669182	0.697402
	C6530	C	0.008650	0.642902	0.740020
	C6531	C	0.258723	0.705391	0.677561
	C6532	C	0.000804	0.669181	0.739980
	C6533	C	0.251015	0.731668	0.677590
	C6534	C	0.008489	0.705388	0.635000
	C6535	C	0.258312	0.642899	0.697471
	H6536	H	0.163240	0.741167	0.623436
	H6537	H	0.413139	0.678631	0.685580
	H6538	H	0.167426	0.631668	0.741762
	H6539	H	0.417522	0.694151	0.679233
	H6540	H	0.341701	0.680395	0.741868
	H6541	H	0.091952	0.742917	0.679480
	H6542	H	0.346095	0.695926	0.623252
	H6543	H	0.096106	0.633401	0.685886
	H6544	H	0.345998	0.633406	0.751856
	H6545	H	0.096145	0.695933	0.689231
	H6546	H	0.341528	0.742896	0.633064
	H6547	H	0.091755	0.680436	0.695538
	H6548	H	0.167394	0.694150	0.633220
	H6549	H	0.417504	0.631651	0.695767
	H6550	H	0.163308	0.678652	0.751585
	H6551	H	0.413562	0.741153	0.689281
	O6552	O	0.585436	0.727755	0.636366
	O6553	O	0.835149	0.665227	0.698695
	O6554	O	0.593618	0.646192	0.736377
	O6555	O	0.843521	0.708652	0.673800
	O6556	O	0.915279	0.665909	0.736097
	O6557	O	0.665199	0.728350	0.673745
	O6558	O	0.923764	0.709303	0.636369
	O6559	O	0.673489	0.646793	0.698941
	O6560	O	0.923946	0.646838	0.738595
	O6561	O	0.673558	0.709272	0.675914
	O6562	O	0.915683	0.728369	0.638828
	O6563	O	0.665257	0.665884	0.701324
	O6564	O	0.593594	0.708691	0.638558
	O6565	O	0.843522	0.646139	0.701292
	O6566	O	0.585331	0.665240	0.738671
	O6567	O	0.835179	0.727758	0.676062
	F6568	F	0.504587	0.656045	0.702913
	F6569	F	0.754916	0.718529	0.640349
	F6570	F	0.504735	0.718499	0.672065
	F6571	F	0.754859	0.656017	0.734605
	Al6572	Al	0.629588	0.656026	0.718833
	Al6573	Al	0.879912	0.718515	0.656349
	Al6574	Al	0.629721	0.718513	0.656108
	Al6575	Al	0.879850	0.656043	0.718597
	C6576	C	0.593527	0.744921	0.623990
	C6577	C	0.843606	0.682395	0.686553
	C6578	C	0.596173	0.628669	0.745542
	C6579	C	0.845956	0.691133	0.682963
	C6580	C	0.913027	0.683412	0.745351
	C6581	C	0.662470	0.745897	0.682996
	C6582	C	0.915353	0.692165	0.623982
	C6583	C	0.665160	0.629640	0.686427
	C6584	C	0.915376	0.629663	0.751075
	C6585	C	0.665150	0.692121	0.688489
	C6586	C	0.912921	0.745901	0.629596
	C6587	C	0.662715	0.683389	0.692093
	C6588	C	0.596181	0.691170	0.629608
	C6589	C	0.845875	0.628643	0.692197
	C6590	C	0.593812	0.682409	0.750906
	C6591	C	0.843319	0.744905	0.688461
	C6592	C	0.501876	0.740928	0.628666
	C6593	C	0.751827	0.678420	0.691184
	C6594	C	0.506951	0.633636	0.746381
	C6595	C	0.756900	0.696102	0.683882
	C6596	C	0.502021	0.678411	0.746367
	C6597	C	0.751563	0.740923	0.683871
	C6598	C	0.506996	0.696125	0.628695
	C6599	C	0.756787	0.633609	0.691236
	C6600	C	0.500681	0.731665	0.634898
	C6601	C	0.750491	0.669159	0.697387
	C6602	C	0.508311	0.642897	0.740114
	C6603	C	0.758257	0.705363	0.677570
	C6604	C	0.500654	0.669162	0.740120
	C6605	C	0.750367	0.731658	0.677569
	C6606	C	0.508295	0.705393	0.634863
	C6607	C	0.758138	0.642861	0.697519
	H6608	H	0.662798	0.741140	0.623115
	H6609	H	0.912783	0.678608	0.685717
	H6610	H	0.667437	0.631672	0.741966
	H6611	H	0.917235	0.694126	0.679326
	H6612	H	0.841665	0.680427	0.741773
	H6613	H	0.591158	0.742920	0.679360
	H6614	H	0.846057	0.695943	0.623177
	H6615	H	0.595907	0.633422	0.685494
	H6616	H	0.846106	0.633446	0.752004
	H6617	H	0.595807	0.695894	0.689329
	H6618	H	0.841711	0.742898	0.633192
	H6619	H	0.591538	0.680398	0.695708
	H6620	H	0.667313	0.694176	0.633241
	H6621	H	0.917112	0.631617	0.695951
	H6622	H	0.663180	0.678637	0.751679
	H6623	H	0.912702	0.741139	0.689281
	O6624	O	0.085690	0.727756	0.761407
	O6625	O	0.335313	0.665249	0.823855
	O6626	O	0.093776	0.646206	0.861339
	O6627	O	0.343746	0.708635	0.798585
	O6628	O	0.415717	0.665890	0.861099
	O6629	O	0.165387	0.728364	0.798622
	O6630	O	0.423825	0.709314	0.761183
	O6631	O	0.173774	0.646782	0.824056
	O6632	O	0.423853	0.646801	0.863513
	O6633	O	0.173849	0.709294	0.800958
	O6634	O	0.415588	0.728369	0.763726
	O6635	O	0.165412	0.665882	0.826345
	O6636	O	0.093754	0.708675	0.763697
	O6637	O	0.343735	0.646177	0.826224
	O6638	O	0.085138	0.665236	0.863644
	O6639	O	0.335466	0.727731	0.800911
	F6640	F	0.004958	0.656029	0.827781
	F6641	F	0.254526	0.718529	0.765215
	F6642	F	0.004887	0.718505	0.797184
	F6643	F	0.254899	0.656045	0.859702
	Al6644	Al	0.129829	0.656037	0.843817
	Al6645	Al	0.379616	0.718506	0.781129
	Al6646	Al	0.129754	0.718517	0.781181
	Al6647	Al	0.379749	0.656039	0.843686
	C6648	C	0.093606	0.744920	0.749110
	C6649	C	0.343709	0.682389	0.811485
	C6650	C	0.096172	0.628680	0.870450
	C6651	C	0.346193	0.691124	0.807841
	C6652	C	0.413248	0.683381	0.870401
	C6653	C	0.163051	0.745876	0.807905
	C6654	C	0.415295	0.692134	0.749112
	C6655	C	0.165580	0.629643	0.811547
	C6656	C	0.415603	0.629643	0.875935
	C6657	C	0.165334	0.692125	0.813391
	C6658	C	0.412880	0.745890	0.754468
	C6659	C	0.162862	0.683395	0.817041
	C6660	C	0.096483	0.691172	0.754425
	C6661	C	0.346561	0.628664	0.817057
	C6662	C	0.093368	0.682417	0.875910
	C6663	C	0.343969	0.744900	0.813315
	C6664	C	0.001951	0.740927	0.753691
	C6665	C	0.251932	0.678422	0.816160
	C6666	C	0.007092	0.633654	0.871324
	C6667	C	0.257051	0.696099	0.808688
	C6668	C	0.001704	0.678433	0.871237
	C6669	C	0.252253	0.740923	0.808720
	C6670	C	0.007286	0.696132	0.753621
	C6671	C	0.257335	0.633614	0.816212
	C6672	C	0.000985	0.731660	0.759941
	C6673	C	0.250605	0.669170	0.822474
	C6674	C	0.008466	0.642921	0.865120
	C6675	C	0.258404	0.705356	0.802398
	C6676	C	0.000501	0.669164	0.865063
	C6677	C	0.250750	0.731651	0.802419
	C6678	C	0.008581	0.705391	0.759876
	C6679	C	0.258517	0.642873	0.822510
	H6680	H	0.162962	0.741154	0.748330
	H6681	H	0.412860	0.678600	0.810639
	H6682	H	0.167366	0.631669	0.866868
	H6683	H	0.417415	0.694117	0.804180
	H6684	H	0.342075	0.680379	0.866796
	H6685	H	0.091829	0.742876	0.804296
	H6686	H	0.346095	0.695917	0.748310
	H6687	H	0.096390	0.633432	0.810723
	H6688	H	0.346414	0.633419	0.876759
	H6689	H	0.096057	0.695901	0.814252
	H6690	H	0.341660	0.742887	0.758025
	H6691	H	0.091610	0.680421	0.820711
	H6692	H	0.167784	0.694163	0.757986
	H6693	H	0.417664	0.631671	0.820687
	H6694	H	0.162695	0.678648	0.876840
	H6695	H	0.413229	0.741126	0.814070
	O6696	O	0.585619	0.727745	0.761464
	O6697	O	0.835321	0.665263	0.823787
	O6698	O	0.593773	0.646181	0.861109
	O6699	O	0.843546	0.708635	0.798696
	O6700	O	0.915093	0.665874	0.861280
	O6701	O	0.665108	0.728353	0.798811
	O6702	O	0.923777	0.709324	0.761215
	O6703	O	0.673741	0.646819	0.823736
	O6704	O	0.923833	0.646860	0.863687
	O6705	O	0.673623	0.709299	0.801132
	O6706	O	0.915657	0.728335	0.763708
	O6707	O	0.665390	0.665867	0.826065
	O6708	O	0.593721	0.708664	0.763776
	O6709	O	0.843612	0.646150	0.826258
	O6710	O	0.585730	0.665233	0.863513
	O6711	O	0.835234	0.727744	0.801101
	F6712	F	0.504585	0.656019	0.827733
	F6713	F	0.754733	0.718533	0.765392
	F6714	F	0.504402	0.718490	0.797118
	F6715	F	0.754769	0.656035	0.859509
	Al6716	Al	0.629737	0.656030	0.843607
	Al6717	Al	0.879886	0.718517	0.781311
	Al6718	Al	0.629574	0.718517	0.781239
	Al6719	Al	0.879871	0.656044	0.843629
	C6720	C	0.593807	0.744917	0.749060
	C6721	C	0.843485	0.682405	0.811447
	C6722	C	0.596364	0.628657	0.870337
	C6723	C	0.845932	0.691146	0.807883
	C6724	C	0.912500	0.683397	0.870345
	C6725	C	0.662365	0.745878	0.807960
	C6726	C	0.915557	0.692152	0.748970
	C6727	C	0.665181	0.629648	0.811487
	C6728	C	0.915411	0.629670	0.875984
	C6729	C	0.664984	0.692135	0.813407
	C6730	C	0.912761	0.745890	0.754578
	C6731	C	0.662530	0.683404	0.816955
	C6732	C	0.596218	0.691153	0.754531
	C6733	C	0.845996	0.628648	0.817106
	C6734	C	0.594166	0.682404	0.875920
	C6735	C	0.843325	0.744900	0.813481
	C6736	C	0.502123	0.740933	0.753672
	C6737	C	0.751719	0.678431	0.816045
	C6738	C	0.507265	0.633629	0.871276
	C6739	C	0.756731	0.696105	0.808741
	C6740	C	0.502470	0.678418	0.871240
	C6741	C	0.751603	0.740930	0.808827
	C6742	C	0.507068	0.696114	0.753688
	C6743	C	0.756911	0.633617	0.816178
	C6744	C	0.500895	0.731663	0.759947
	C6745	C	0.750581	0.669175	0.822309
	C6746	C	0.508554	0.642885	0.864957
	C6747	C	0.758199	0.705365	0.802519
	C6748	C	0.501071	0.669164	0.864943
	C6749	C	0.750400	0.731651	0.802574
	C6750	C	0.508477	0.705381	0.759882
	C6751	C	0.758281	0.642876	0.822414
	H6752	H	0.663111	0.741140	0.748275
	H6753	H	0.912740	0.678623	0.810629
	H6754	H	0.667530	0.631649	0.866631
	H6755	H	0.917151	0.694146	0.804323
	H6756	H	0.841259	0.680396	0.866754
	H6757	H	0.591240	0.742873	0.804325
	H6758	H	0.846256	0.695926	0.748174
	H6759	H	0.596039	0.633435	0.810626
	H6760	H	0.846179	0.633448	0.876849
	H6761	H	0.595706	0.695910	0.814301
	H6762	H	0.841495	0.742894	0.758195
	H6763	H	0.591333	0.680416	0.820594
	H6764	H	0.667450	0.694147	0.758109
	H6765	H	0.917182	0.631637	0.820718
	H6766	H	0.663474	0.678628	0.876755
	H6767	H	0.912610	0.741120	0.814326
	O6768	O	0.085884	0.727757	0.886388
	O6769	O	0.335532	0.665254	0.948953
	O6770	O	0.093686	0.646202	0.986330
	O6771	O	0.343495	0.708638	0.923561
	O6772	O	0.415918	0.665848	0.986306
	O6773	O	0.165643	0.728329	0.923696
	O6774	O	0.423763	0.709289	0.886303
	O6775	O	0.173621	0.646806	0.948945
	O6776	O	0.423769	0.646786	0.988465
	O6777	O	0.173585	0.709278	0.925932
	O6778	O	0.415843	0.728350	0.888733
	O6779	O	0.165583	0.665878	0.951310
	O6780	O	0.093335	0.708674	0.888592
	O6781	O	0.343561	0.646161	0.951301
	O6782	O	0.085659	0.665238	0.988690
	O6783	O	0.335626	0.727732	0.925969
	F6784	F	0.004873	0.656027	0.952809
	F6785	F	0.254573	0.718507	0.890204
	F6786	F	0.004669	0.718496	0.922082
	F6787	F	0.254864	0.656030	0.984702
	Al6788	Al	0.129773	0.656029	0.968837
	Al6789	Al	0.379535	0.718493	0.906175
	Al6790	Al	0.129628	0.718503	0.906142
	Al6791	Al	0.379658	0.656015	0.968740
	C6792	C	0.093774	0.744927	0.874051
	C6793	C	0.343656	0.682407	0.936438
	C6794	C	0.096256	0.628683	0.995336
	C6795	C	0.345942	0.691133	0.932770
	C6796	C	0.413156	0.683396	0.995349
	C6797	C	0.162968	0.745873	0.932836
	C6798	C	0.415620	0.692119	0.874054
	C6799	C	0.165103	0.629641	0.936584
	C6800	C	0.415873	0.629648	1.000878
	C6801	C	0.165141	0.692121	0.938296
	C6802	C	0.413161	0.745853	0.879522
	C6803	C	0.162902	0.683385	0.941984
	C6804	C	0.095843	0.691166	0.879428
	C6805	C	0.345957	0.628659	0.942144
	C6806	C	0.093731	0.682422	1.000902
	C6807	C	0.343699	0.744894	0.938398
	C6808	C	0.002177	0.740928	0.878651
	C6809	C	0.252003	0.678423	0.941102
	C6810	C	0.007125	0.633649	0.996316
	C6811	C	0.256833	0.696102	0.933651
	C6812	C	0.002160	0.678427	0.996273
	C6813	C	0.252098	0.740897	0.933734
	C6814	C	0.006711	0.696128	0.878522
	C6815	C	0.256805	0.633620	0.941248
	C6816	C	0.001163	0.731669	0.884917
	C6817	C	0.250830	0.669167	0.947472
	C6818	C	0.008411	0.642912	0.990139
	C6819	C	0.258213	0.705355	0.927365
	C6820	C	0.000951	0.669168	0.990016
	C6821	C	0.250878	0.731635	0.927485
	C6822	C	0.008071	0.705390	0.884742
	C6823	C	0.258277	0.642882	0.947473
	H6824	H	0.163175	0.741166	0.873197
	H6825	H	0.413020	0.678638	0.935639
	H6826	H	0.167479	0.631671	0.991640
	H6827	H	0.417102	0.694125	0.929116
	H6828	H	0.341954	0.680409	0.991703
	H6829	H	0.091777	0.742874	0.929184
	H6830	H	0.346327	0.695888	0.873243
	H6831	H	0.095850	0.633419	0.935732
	H6832	H	0.346530	0.633416	1.001697
	H6833	H	0.095867	0.695884	0.939075
	H6834	H	0.341953	0.742862	0.883154
	H6835	H	0.091635	0.680396	0.945636
	H6836	H	0.167026	0.694158	0.883024
	H6837	H	0.417133	0.631660	0.945774
	H6838	H	0.163078	0.678652	1.001760
	H6839	H	0.413062	0.741123	0.939209
	O6840	O	0.585830	0.727725	0.886493
	O6841	O	0.835413	0.665235	0.948730
	O6842	O	0.593818	0.646185	0.986187
	O6843	O	0.843386	0.708640	0.923782
	O6844	O	0.915698	0.665884	0.986105
	O6845	O	0.665564	0.728326	0.923882
	O6846	O	0.923403	0.709328	0.886121
	O6847	O	0.673589	0.646801	0.948771
	O6848	O	0.923687	0.646831	0.988691
	O6849	O	0.673417	0.709274	0.926191
	O6850	O	0.915825	0.728350	0.888595
	O6851	O	0.665470	0.665844	0.950996
	O6852	O	0.593665	0.708656	0.888816
	O6853	O	0.843543	0.646148	0.951223
	O6854	O	0.585927	0.665278	0.988380
	O6855	O	0.835613	0.727728	0.926059
	F6856	F	0.504434	0.656005	0.952746
	F6857	F	0.754558	0.718504	0.890436
	F6858	F	0.504320	0.718485	0.922179
	F6859	F	0.754714	0.656038	0.984487
	Al6860	Al	0.629650	0.656018	0.968615
	Al6861	Al	0.879856	0.718505	0.906252
	Al6862	Al	0.629505	0.718484	0.906340
	Al6863	Al	0.879963	0.656034	0.968635
	C6864	C	0.593927	0.744896	0.873999
	C6865	C	0.843596	0.682399	0.936412
	C6866	C	0.596599	0.628662	0.995294
	C6867	C	0.845834	0.691131	0.932830
	C6868	C	0.912982	0.683394	0.995286
	C6869	C	0.662746	0.745853	0.932991
	C6870	C	0.914966	0.692142	0.873850
	C6871	C	0.665254	0.629646	0.936418
	C6872	C	0.915404	0.629669	1.001029
	C6873	C	0.665083	0.692113	0.938485
	C6874	C	0.913006	0.745894	0.879541
	C6875	C	0.662814	0.683375	0.942061
	C6876	C	0.596443	0.691147	0.879581
	C6877	C	0.846128	0.628656	0.942034
	C6878	C	0.593957	0.682415	1.000951
	C6879	C	0.843562	0.744892	0.938408
	C6880	C	0.502325	0.740895	0.878609
	C6881	C	0.751942	0.678409	0.941063
	C6882	C	0.507455	0.633628	0.996186
	C6883	C	0.756761	0.696098	0.933853
	C6884	C	0.502288	0.678432	0.996263
	C6885	C	0.751928	0.740889	0.933833
	C6886	C	0.507294	0.696102	0.878723
	C6887	C	0.756960	0.633618	0.941103
	C6888	C	0.501147	0.731638	0.884919
	C6889	C	0.750684	0.669145	0.947255
	C6890	C	0.508561	0.642880	0.989905
	C6891	C	0.758107	0.705357	0.927631
	C6892	C	0.501094	0.669166	0.990005
	C6893	C	0.750820	0.731629	0.927610
	C6894	C	0.508467	0.705366	0.884959
	C6895	C	0.758274	0.642873	0.947351
	H6896	H	0.663367	0.741135	0.873185
	H6897	H	0.912871	0.678623	0.935530
	H6898	H	0.667784	0.631655	0.991610
	H6899	H	0.916960	0.694124	0.929152
	H6900	H	0.841802	0.680395	0.991623
	H6901	H	0.591541	0.742852	0.929371
	H6902	H	0.845729	0.695922	0.872954
	H6903	H	0.595948	0.633421	0.935554
	H6904	H	0.846132	0.633443	1.001906
	H6905	H	0.595770	0.695878	0.939347
	H6906	H	0.841773	0.742901	0.883160
	H6907	H	0.591727	0.680375	0.945695
	H6908	H	0.667704	0.694134	0.883223
	H6909	H	0.917332	0.631652	0.945683
	H6910	H	0.663249	0.678641	1.001875
	H6911	H	0.912947	0.741128	0.939215
	O6912	O	0.085706	0.852766	0.011371
	O6913	O	0.335560	0.790251	0.073971
	O6914	O	0.093867	0.771195	0.111340
	O6915	O	0.343431	0.833667	0.048636
	O6916	O	0.415968	0.790870	0.111205
	O6917	O	0.165594	0.853377	0.048720
	O6918	O	0.424152	0.834311	0.011410
	O6919	O	0.173732	0.771786	0.073928
	O6920	O	0.423727	0.771803	0.113662
	O6921	O	0.173406	0.834272	0.050918
	O6922	O	0.415665	0.853407	0.013799
	O6923	O	0.165533	0.790858	0.076218
	O6924	O	0.093783	0.833703	0.013472
	O6925	O	0.343667	0.771171	0.076235
	O6926	O	0.085817	0.790265	0.113505
	O6927	O	0.335560	0.852761	0.051070
	F6928	F	0.004736	0.781022	0.077752
	F6929	F	0.254714	0.843539	0.015253
	F6930	F	0.004808	0.843510	0.047117
	F6931	F	0.254630	0.781014	0.109656
	Al6932	Al	0.129725	0.781020	0.093726
	Al6933	Al	0.379697	0.843527	0.031221
	Al6934	Al	0.129733	0.843532	0.031158
	Al6935	Al	0.379677	0.781006	0.093751
	C6936	C	0.094039	0.869951	-0.000908
	C6937	C	0.343698	0.807416	0.061649
	C6938	C	0.096532	0.753675	0.120545
	C6939	C	0.346100	0.816152	0.057992
	C6940	C	0.413329	0.808378	0.120472
	C6941	C	0.162871	0.870890	0.057995
	C6942	C	0.415718	0.817152	-0.000973
	C6943	C	0.165288	0.754607	0.061603
	C6944	C	0.415658	0.754638	0.126025
	C6945	C	0.165209	0.817110	0.063350
	C6946	C	0.413219	0.870916	0.004552
	C6947	C	0.162830	0.808380	0.066994
	C6948	C	0.096158	0.816154	0.004430
	C6949	C	0.346093	0.753638	0.067098
	C6950	C	0.093926	0.807432	0.125879
	C6951	C	0.343702	0.869930	0.063364
	C6952	C	0.002410	0.865943	0.003651
	C6953	C	0.252040	0.803422	0.066214
	C6954	C	0.007329	0.758636	0.121360
	C6955	C	0.256869	0.821111	0.058757
	C6956	C	0.002294	0.803438	0.121268
	C6957	C	0.252004	0.865923	0.058836
	C6958	C	0.007016	0.821130	0.003642
	C6959	C	0.256964	0.758601	0.066242
	C6960	C	0.001005	0.856682	0.009904
	C6961	C	0.250784	0.794157	0.072452
	C6962	C	0.008649	0.767901	0.115103
	C6963	C	0.258188	0.830367	0.052456
	C6964	C	0.001194	0.794176	0.114998
	C6965	C	0.250811	0.856673	0.052544
	C6966	C	0.008456	0.830387	0.009825
	C6967	C	0.258413	0.767868	0.072482
	H6968	H	0.163448	0.866189	-0.001735
	H6969	H	0.413061	0.803655	0.060859
	H6970	H	0.167786	0.756666	0.116949
	H6971	H	0.417259	0.819156	0.054373
	H6972	H	0.342147	0.805387	0.116837
	H6973	H	0.091565	0.867904	0.054382
	H6974	H	0.346403	0.820922	-0.001771
	H6975	H	0.095945	0.758375	0.060760
	H6976	H	0.346391	0.758411	0.126924
	H6977	H	0.095831	0.820879	0.064136
	H6978	H	0.341977	0.867920	0.008095
	H6979	H	0.091566	0.805390	0.070573
	H6980	H	0.167444	0.819155	0.007939
	H6981	H	0.417273	0.756625	0.070730
	H6982	H	0.163331	0.803667	0.126647
	H6983	H	0.413114	0.866165	0.064091
	O6984	O	0.585559	0.852762	0.011507
	O6985	O	0.835276	0.790253	0.073830
	O6986	O	0.593690	0.771202	0.111448
	O6987	O	0.843405	0.833659	0.048699
	O6988	O	0.915815	0.790863	0.111256
	O6989	O	0.665294	0.853370	0.048751
	O6990	O	0.923871	0.834316	0.011275
	O6991	O	0.673323	0.771764	0.074020
	O6992	O	0.923919	0.771824	0.113671
	O6993	O	0.673507	0.834303	0.051121
	O6994	O	0.915756	0.853379	0.013708
	O6995	O	0.665293	0.790862	0.076198
	O6996	O	0.594074	0.833673	0.013677
	O6997	O	0.843352	0.771133	0.076245
	O6998	O	0.585867	0.790256	0.113567
	O6999	O	0.835394	0.852756	0.051065
	F7000	F	0.504592	0.780991	0.077846
	F7001	F	0.754832	0.843542	0.015353
	F7002	F	0.504543	0.843524	0.047185
	F7003	F	0.754834	0.781019	0.109595
	Al7004	Al	0.629663	0.781010	0.093778
	Al7005	Al	0.879926	0.843531	0.031250
	Al7006	Al	0.629624	0.843531	0.031272
	Al7007	Al	0.879968	0.781023	0.093649
	C7008	C	0.594022	0.869928	-0.000895
	C7009	C	0.843385	0.807414	0.061592
	C7010	C	0.596418	0.753660	0.120439
	C7011	C	0.845844	0.816154	0.058024
	C7012	C	0.913168	0.808412	0.120340
	C7013	C	0.662712	0.870878	0.057997
	C7014	C	0.915182	0.817135	-0.000857
	C7015	C	0.665008	0.754626	0.061535
	C7016	C	0.915599	0.754655	0.126038
	C7017	C	0.664997	0.817120	0.063498
	C7018	C	0.913099	0.870906	0.004446
	C7019	C	0.662529	0.808388	0.067077
	C7020	C	0.596521	0.816160	0.004491
	C7021	C	0.845864	0.753640	0.067099
	C7022	C	0.594178	0.807412	0.125960
	C7023	C	0.843593	0.869903	0.063369
	C7024	C	0.502377	0.865939	0.003793
	C7025	C	0.751721	0.803425	0.066195
	C7026	C	0.507305	0.758621	0.121337
	C7027	C	0.756646	0.821114	0.058856
	C7028	C	0.502507	0.803412	0.121365
	C7029	C	0.751936	0.865920	0.058764
	C7030	C	0.507418	0.821130	0.003654
	C7031	C	0.756683	0.758599	0.066234
	C7032	C	0.500984	0.856689	0.010021
	C7033	C	0.750506	0.794161	0.072387
	C7034	C	0.508469	0.767891	0.115133
	C7035	C	0.758123	0.830377	0.052581
	C7036	C	0.501183	0.794164	0.115062
	C7037	C	0.750627	0.856663	0.052491
	C7038	C	0.508805	0.830385	0.009923
	C7039	C	0.758023	0.767849	0.072522
	H7040	H	0.663322	0.866158	-0.001734
	H7041	H	0.912714	0.803642	0.060758
	H7042	H	0.667680	0.756652	0.116841
	H7043	H	0.917137	0.819158	0.054469
	H7044	H	0.841960	0.805417	0.116693
	H7045	H	0.591457	0.867875	0.054452
	H7046	H	0.845844	0.820907	-0.001595
	H7047	H	0.595731	0.758400	0.060667
	H7048	H	0.846366	0.758438	0.126875
	H7049	H	0.595655	0.820888	0.064296
	H7050	H	0.841992	0.867890	0.007996
	H7051	H	0.591361	0.805388	0.070604
	H7052	H	0.667796	0.819144	0.008090
	H7053	H	0.917023	0.756635	0.070736
	H7054	H	0.663649	0.803659	0.126735
	H7055	H	0.912955	0.866137	0.064168
	O7056	O	0.085465	0.852772	0.136495
	O7057	O	0.335773	0.790273	0.199114
	O7058	O	0.093573	0.771199	0.236389
	O7059	O	0.343485	0.833678	0.173721
	O7060	O	0.415766	0.790857	0.236427
	O7061	O	0.165491	0.853362	0.173805
	O7062	O	0.423548	0.834292	0.136395
	O7063	O	0.173521	0.771783	0.199007
	O7064	O	0.423632	0.771787	0.238620
	O7065	O	0.173544	0.834294	0.176027
	O7066	O	0.415487	0.853394	0.138811
	O7067	O	0.165755	0.790857	0.201222
	O7068	O	0.093700	0.833690	0.138732
	O7069	O	0.343546	0.771175	0.201230
	O7070	O	0.085735	0.790265	0.238519
	O7071	O	0.335450	0.852750	0.175971
	F7072	F	0.004822	0.781012	0.202836
	F7073	F	0.254479	0.843533	0.140269
	F7074	F	0.004673	0.843519	0.172234
	F7075	F	0.254619	0.781022	0.234727
	Al7076	Al	0.129821	0.781024	0.218778
	Al7077	Al	0.379566	0.843521	0.156209
	Al7078	Al	0.129636	0.843536	0.156285
	Al7079	Al	0.379655	0.781020	0.218852
	C7080	C	0.093933	0.869948	0.124261
	C7081	C	0.343767	0.807421	0.186547
	C7082	C	0.095925	0.753673	0.245441
	C7083	C	0.346160	0.816154	0.182888
	C7084	C	0.413318	0.808393	0.245424
	C7085	C	0.162937	0.870900	0.183048
	C7086	C	0.415576	0.817126	0.124106
	C7087	C	0.165302	0.754630	0.186661
	C7088	C	0.415444	0.754639	0.251013
	C7089	C	0.165372	0.817112	0.188353
	C7090	C	0.413063	0.870894	0.129464
	C7091	C	0.162980	0.808376	0.191997
	C7092	C	0.096264	0.816176	0.129524
	C7093	C	0.346132	0.753661	0.192178
	C7094	C	0.093932	0.807440	0.250934
	C7095	C	0.343903	0.869910	0.188347
	C7096	C	0.002162	0.865959	0.128778
	C7097	C	0.252148	0.803422	0.191178
	C7098	C	0.006941	0.758646	0.246433
	C7099	C	0.256970	0.821115	0.183735
	C7100	C	0.002348	0.803437	0.246306
	C7101	C	0.252124	0.865930	0.183790
	C7102	C	0.007097	0.821137	0.128700
	C7103	C	0.256981	0.758617	0.191277
	C7104	C	0.000943	0.856692	0.135014
	C7105	C	0.250972	0.794165	0.197493
	C7106	C	0.008158	0.767915	0.240227
	C7107	C	0.258225	0.830380	0.177499
	C7108	C	0.000945	0.794177	0.240032
	C7109	C	0.250754	0.856664	0.177523
	C7110	C	0.008429	0.830397	0.134982
	C7111	C	0.258299	0.767877	0.197478
	H7112	H	0.163356	0.866185	0.123501
	H7113	H	0.413181	0.803659	0.185752
	H7114	H	0.167134	0.756659	0.241748
	H7115	H	0.417441	0.819144	0.179286
	H7116	H	0.342140	0.805400	0.241787
	H7117	H	0.091632	0.867904	0.179495
	H7118	H	0.346294	0.820900	0.123274
	H7119	H	0.095994	0.758401	0.185829
	H7120	H	0.346144	0.758407	0.251780
	H7121	H	0.096043	0.820878	0.189144
	H7122	H	0.341808	0.867903	0.133047
	H7123	H	0.091886	0.805379	0.195571
	H7124	H	0.167520	0.819169	0.133136
	H7125	H	0.417327	0.756656	0.195761
	H7126	H	0.163277	0.803670	0.251801
	H7127	H	0.413250	0.866137	0.189049
	O7128	O	0.585381	0.852735	0.136303
	O7129	O	0.835442	0.790239	0.198862
	O7130	O	0.593636	0.771199	0.236407
	O7131	O	0.843280	0.833652	0.173718
	O7132	O	0.915666	0.790884	0.236299
	O7133	O	0.665048	0.853395	0.173678
	O7134	O	0.923703	0.834326	0.136414
	O7135	O	0.673242	0.771788	0.199007
	O7136	O	0.923640	0.771833	0.238765
	O7137	O	0.673261	0.834280	0.175971
	O7138	O	0.915437	0.853393	0.138790
	O7139	O	0.665516	0.790865	0.201193
	O7140	O	0.593594	0.833701	0.138555
	O7141	O	0.843189	0.771159	0.201276
	O7142	O	0.585886	0.790268	0.238539
	O7143	O	0.834960	0.852742	0.176197
	F7144	F	0.504626	0.781011	0.202913
	F7145	F	0.754833	0.843556	0.140351
	F7146	F	0.504582	0.843517	0.172093
	F7147	F	0.754835	0.781038	0.234646
	Al7148	Al	0.629690	0.781025	0.218826
	Al7149	Al	0.879762	0.843538	0.156338
	Al7150	Al	0.629630	0.843532	0.156153
	Al7151	Al	0.879815	0.781031	0.218717
	C7152	C	0.593969	0.869920	0.124106
	C7153	C	0.843635	0.807433	0.186648
	C7154	C	0.596303	0.753668	0.245536
	C7155	C	0.845923	0.816164	0.183016
	C7156	C	0.913108	0.808410	0.245445
	C7157	C	0.662618	0.870901	0.182947
	C7158	C	0.915470	0.817155	0.123997
	C7159	C	0.664979	0.754631	0.186537
	C7160	C	0.915160	0.754651	0.251004
	C7161	C	0.665090	0.817123	0.188524
	C7162	C	0.912942	0.870922	0.129523
	C7163	C	0.662861	0.808385	0.192158
	C7164	C	0.596502	0.816157	0.129580
	C7165	C	0.845727	0.753651	0.192132
	C7166	C	0.594087	0.807425	0.250934
	C7167	C	0.843480	0.869918	0.188351
	C7168	C	0.502168	0.865926	0.128621
	C7169	C	0.752027	0.803429	0.191236
	C7170	C	0.507121	0.758635	0.246441
	C7171	C	0.756704	0.821116	0.183833
	C7172	C	0.502463	0.803427	0.246324
	C7173	C	0.751730	0.865931	0.183771
	C7174	C	0.507204	0.821113	0.128754
	C7175	C	0.756568	0.758615	0.191231
	C7176	C	0.500752	0.856665	0.134898
	C7177	C	0.750781	0.794159	0.197427
	C7178	C	0.508429	0.767889	0.240153
	C7179	C	0.757984	0.830367	0.177509
	C7180	C	0.501066	0.794161	0.240131
	C7181	C	0.750315	0.856674	0.177550
	C7182	C	0.508327	0.830384	0.134915
	C7183	C	0.757910	0.767873	0.197498
	H7184	H	0.663339	0.866148	0.123387
	H7185	H	0.913070	0.803676	0.185846
	H7186	H	0.667429	0.756668	0.241896
	H7187	H	0.917045	0.819160	0.179401
	H7188	H	0.841901	0.805409	0.241823
	H7189	H	0.591246	0.867918	0.179350
	H7190	H	0.846163	0.820925	0.123163
	H7191	H	0.595698	0.758404	0.185606
	H7192	H	0.845889	0.758424	0.251797
	H7193	H	0.595780	0.820889	0.189345
	H7194	H	0.841637	0.867929	0.133070
	H7195	H	0.591659	0.805378	0.195779
	H7196	H	0.667586	0.819174	0.133145
	H7197	H	0.916928	0.756641	0.195763
	H7198	H	0.663467	0.803661	0.251812
	H7199	H	0.912820	0.866145	0.189129
	O7200	O	0.085453	0.852767	0.261464
	O7201	O	0.335540	0.790257	0.323994
	O7202	O	0.093396	0.771186	0.361331
	O7203	O	0.343461	0.833678	0.298766
	O7204	O	0.415618	0.790886	0.361324
	O7205	O	0.165433	0.853393	0.298732
	O7206	O	0.423565	0.834304	0.261441
	O7207	O	0.173546	0.771784	0.324085
	O7208	O	0.423793	0.771784	0.363610
	O7209	O	0.173478	0.834302	0.301008
	O7210	O	0.415496	0.853381	0.263759
	O7211	O	0.165537	0.790854	0.326236
	O7212	O	0.093569	0.833702	0.263711
	O7213	O	0.343466	0.771172	0.326387
	O7214	O	0.085634	0.790274	0.363503
	O7215	O	0.335474	0.852759	0.301127
	F7216	F	0.004829	0.781013	0.327788
	F7217	F	0.254683	0.843540	0.265333
	F7218	F	0.004685	0.843527	0.297235
	F7219	F	0.254660	0.781055	0.359760
	Al7220	Al	0.129747	0.781024	0.343778
	Al7221	Al	0.379613	0.843543	0.281265
	Al7222	Al	0.129732	0.843541	0.281257
	Al7223	Al	0.379662	0.781013	0.343823
	C7224	C	0.093677	0.869934	0.249166
	C7225	C	0.343803	0.807425	0.311707
	C7226	C	0.096066	0.753672	0.370604
	C7227	C	0.346195	0.816162	0.308029
	C7228	C	0.413205	0.808404	0.370443
	C7229	C	0.162851	0.870897	0.308121
	C7230	C	0.415554	0.817131	0.249068
	C7231	C	0.165225	0.754637	0.311667
	C7232	C	0.415670	0.754630	0.375832
	C7233	C	0.165418	0.817131	0.313461
	C7234	C	0.413008	0.870909	0.254473
	C7235	C	0.163055	0.808401	0.317137
	C7236	C	0.096251	0.816184	0.254545
	C7237	C	0.346008	0.753651	0.317112
	C7238	C	0.093722	0.807434	0.375939
	C7239	C	0.343810	0.869914	0.313411
	C7240	C	0.002013	0.865945	0.253777
	C7241	C	0.252091	0.803429	0.316263
	C7242	C	0.006837	0.758627	0.371386
	C7243	C	0.257046	0.821124	0.308838
	C7244	C	0.002024	0.803451	0.371297
	C7245	C	0.252055	0.865938	0.308850
	C7246	C	0.007173	0.821149	0.253596
	C7247	C	0.256886	0.758618	0.316278
	C7248	C	0.000705	0.856686	0.259994
	C7249	C	0.250741	0.794160	0.322482
	C7250	C	0.008294	0.767891	0.365161
	C7251	C	0.258169	0.830387	0.302550
	C7252	C	0.000947	0.794187	0.364982
	C7253	C	0.250767	0.856678	0.302575
	C7254	C	0.008194	0.830413	0.259857
	C7255	C	0.258265	0.767874	0.322582
	H7256	H	0.162997	0.866165	0.248417
	H7257	H	0.413096	0.803653	0.310968
	H7258	H	0.167300	0.756667	0.367043
	H7259	H	0.417297	0.819162	0.304460
	H7260	H	0.341980	0.805411	0.366839
	H7261	H	0.091684	0.867891	0.304547
	H7262	H	0.346187	0.820888	0.248278
	H7263	H	0.095875	0.758396	0.310860
	H7264	H	0.346326	0.758387	0.376621
	H7265	H	0.096045	0.820900	0.314218
	H7266	H	0.341803	0.867921	0.258078
	H7267	H	0.091656	0.805416	0.320733
	H7268	H	0.167391	0.819182	0.258205
	H7269	H	0.417229	0.756642	0.320681
	H7270	H	0.163094	0.803661	0.376765
	H7271	H	0.413093	0.866132	0.314159
	O7272	O	0.585517	0.852756	0.261467
	O7273	O	0.835281	0.790249	0.323831
	O7274	O	0.593818	0.771184	0.361321
	O7275	O	0.843503	0.833653	0.298764
	O7276	O	0.915597	0.790871	0.361271
	O7277	O	0.665089	0.853368	0.298876
	O7278	O	0.923607	0.834326	0.261268
	O7279	O	0.673362	0.771770	0.323964
	O7280	O	0.923410	0.771813	0.363712
	O7281	O	0.673499	0.834279	0.301070
	O7282	O	0.915380	0.853395	0.263782
	O7283	O	0.665267	0.790866	0.326163
	O7284	O	0.593565	0.833675	0.263818
	O7285	O	0.843428	0.771171	0.326129
	O7286	O	0.585603	0.790234	0.363595
	O7287	O	0.835121	0.852768	0.301067
	F7288	F	0.504475	0.780991	0.327891
	F7289	F	0.754773	0.843531	0.265436
	F7290	F	0.504594	0.843528	0.297206
	F7291	F	0.754793	0.781044	0.359577
	Al7292	Al	0.629676	0.781029	0.343741
	Al7293	Al	0.879878	0.843535	0.281300
	Al7294	Al	0.629678	0.843525	0.281300
	Al7295	Al	0.879925	0.781032	0.343648
	C7296	C	0.593804	0.869928	0.249119
	C7297	C	0.843461	0.807409	0.311577
	C7298	C	0.596412	0.753638	0.370351
	C7299	C	0.845956	0.816142	0.307932
	C7300	C	0.912846	0.808422	0.370484
	C7301	C	0.662525	0.870899	0.308008
	C7302	C	0.915475	0.817149	0.249031
	C7303	C	0.665105	0.754632	0.311533
	C7304	C	0.915163	0.754633	0.376051
	C7305	C	0.665120	0.817127	0.313395
	C7306	C	0.912777	0.870919	0.254544
	C7307	C	0.662648	0.808398	0.317029
	C7308	C	0.596288	0.816166	0.254584
	C7309	C	0.845839	0.753647	0.317092
	C7310	C	0.594074	0.807419	0.375918
	C7311	C	0.843346	0.869912	0.313443
	C7312	C	0.502065	0.865927	0.253643
	C7313	C	0.751732	0.803430	0.316229
	C7314	C	0.507318	0.758613	0.371211
	C7315	C	0.756883	0.821108	0.308791
	C7316	C	0.502398	0.803439	0.371287
	C7317	C	0.751568	0.865928	0.308875
	C7318	C	0.507171	0.821131	0.253640
	C7319	C	0.756775	0.758618	0.316177
	C7320	C	0.500794	0.856673	0.259976
	C7321	C	0.750528	0.794167	0.322424
	C7322	C	0.508578	0.767875	0.365020
	C7323	C	0.758244	0.830366	0.302540
	C7324	C	0.500993	0.794167	0.365072
	C7325	C	0.750299	0.856668	0.302614
	C7326	C	0.508331	0.830392	0.259917
	C7327	C	0.758138	0.767873	0.322399
	H7328	H	0.663165	0.866158	0.248346
	H7329	H	0.912638	0.803626	0.310756
	H7330	H	0.667665	0.756620	0.366740
	H7331	H	0.917150	0.819130	0.304317
	H7332	H	0.841559	0.805428	0.366886
	H7333	H	0.591320	0.867903	0.304377
	H7334	H	0.846180	0.820921	0.248196
	H7335	H	0.595794	0.758398	0.310625
	H7336	H	0.845849	0.758408	0.376890
	H7337	H	0.595829	0.820904	0.314210
	H7338	H	0.841448	0.867930	0.258100
	H7339	H	0.591253	0.805413	0.320618
	H7340	H	0.667429	0.819158	0.258272
	H7341	H	0.917094	0.756631	0.320677
	H7342	H	0.663354	0.803639	0.376754
	H7343	H	0.912560	0.866124	0.314213
	O7344	O	0.085289	0.852760	0.386386
	O7345	O	0.335902	0.790277	0.449083
	O7346	O	0.093272	0.771220	0.486437
	O7347	O	0.343297	0.833684	0.423707
	O7348	O	0.415984	0.790856	0.486378
	O7349	O	0.165598	0.853383	0.423717
	O7350	O	0.423806	0.834290	0.386456
	O7351	O	0.173586	0.771785	0.449050
	O7352	O	0.423623	0.771808	0.488680
	O7353	O	0.173319	0.834285	0.425917
	O7354	O	0.415691	0.853387	0.388674
	O7355	O	0.165884	0.790854	0.451198
	O7356	O	0.093572	0.833704	0.388633
	O7357	O	0.343551	0.771179	0.451295
	O7358	O	0.085768	0.790283	0.488543
	O7359	O	0.335515	0.852778	0.425957
	F7360	F	0.004852	0.781018	0.452792
	F7361	F	0.254629	0.843539	0.390252
	F7362	F	0.004753	0.843534	0.422264
	F7363	F	0.254654	0.781019	0.484767
	Al7364	Al	0.129633	0.781034	0.468793
	Al7365	Al	0.379495	0.843541	0.406195
	Al7366	Al	0.129634	0.843545	0.406189
	Al7367	Al	0.379681	0.781016	0.468800
	C7368	C	0.093723	0.869942	0.374192
	C7369	C	0.343914	0.807431	0.436675
	C7370	C	0.095752	0.753703	0.495550
	C7371	C	0.346143	0.816171	0.432973
	C7372	C	0.413258	0.808380	0.495464
	C7373	C	0.162991	0.870910	0.433047
	C7374	C	0.415678	0.817145	0.374055
	C7375	C	0.165341	0.754633	0.436580
	C7376	C	0.415335	0.754627	0.501029
	C7377	C	0.165220	0.817118	0.438344
	C7378	C	0.413102	0.870905	0.379473
	C7379	C	0.163023	0.808392	0.442033
	C7380	C	0.096228	0.816175	0.379534
	C7381	C	0.345983	0.753640	0.442067
	C7382	C	0.093629	0.807436	0.501010
	C7383	C	0.343824	0.869908	0.438518
	C7384	C	0.001979	0.865960	0.378838
	C7385	C	0.252263	0.803436	0.441263
	C7386	C	0.006518	0.758661	0.496405
	C7387	C	0.256863	0.821119	0.433743
	C7388	C	0.002082	0.803441	0.496338
	C7389	C	0.252061	0.865926	0.433851
	C7390	C	0.007078	0.821143	0.378674
	C7391	C	0.256958	0.758618	0.441249
	C7392	C	0.000707	0.856690	0.385026
	C7393	C	0.251086	0.794171	0.447503
	C7394	C	0.008096	0.767925	0.490163
	C7395	C	0.258066	0.830381	0.427470
	C7396	C	0.000998	0.794179	0.490034
	C7397	C	0.250770	0.856685	0.427493
	C7398	C	0.008430	0.830396	0.384960
	C7399	C	0.258328	0.767876	0.447569
	H7400	H	0.163028	0.866170	0.373348
	H7401	H	0.413236	0.803669	0.435910
	H7402	H	0.166935	0.756710	0.491970
	H7403	H	0.417261	0.819176	0.429359
	H7404	H	0.342089	0.805370	0.491922
	H7405	H	0.091551	0.867942	0.429454
	H7406	H	0.346398	0.820919	0.373201
	H7407	H	0.095903	0.758385	0.435736
	H7408	H	0.346095	0.758406	0.501892
	H7409	H	0.095742	0.820881	0.439130
	H7410	H	0.341849	0.867910	0.382973
	H7411	H	0.091870	0.805393	0.445594
	H7412	H	0.167474	0.819164	0.383152
	H7413	H	0.417256	0.756619	0.445668
	H7414	H	0.163024	0.803674	0.501895
	H7415	H	0.413148	0.866135	0.439323
	O7416	O	0.585666	0.852769	0.386477
	O7417	O	0.835267	0.790268	0.448750
	O7418	O	0.593497	0.771168	0.486215
	O7419	O	0.843291	0.833669	0.423890
	O7420	O	0.915724	0.790863	0.486255
	O7421	O	0.665316	0.853387	0.423844
	O7422	O	0.923564	0.834311	0.386470
	O7423	O	0.673190	0.771807	0.448855
	O7424	O	0.923347	0.771839	0.488684
	O7425	O	0.673354	0.834332	0.426251
	O7426	O	0.915371	0.853412	0.388951
	O7427	O	0.665295	0.790885	0.451248
	O7428	O	0.593812	0.833692	0.388811
	O7429	O	0.843158	0.771152	0.451180
	O7430	O	0.586121	0.790245	0.488581
	O7431	O	0.835314	0.852767	0.426262
	F7432	F	0.504431	0.781015	0.452890
	F7433	F	0.754744	0.843536	0.390500
	F7434	F	0.504380	0.843540	0.422177
	F7435	F	0.754729	0.781019	0.484539
	Al7436	Al	0.629532	0.781015	0.468721
	Al7437	Al	0.879882	0.843537	0.406416
	Al7438	Al	0.629549	0.843536	0.406329
	Al7439	Al	0.879815	0.781039	0.468617
	C7440	C	0.594029	0.869939	0.374190
	C7441	C	0.843465	0.807434	0.436531
	C7442	C	0.596213	0.753664	0.495500
	C7443	C	0.845734	0.816175	0.432975
	C7444	C	0.912856	0.808409	0.495406
	C7445	C	0.662584	0.870894	0.433052
	C7446	C	0.915352	0.817163	0.374079
	C7447	C	0.664643	0.754621	0.436647
	C7448	C	0.914820	0.754671	0.501003
	C7449	C	0.664936	0.817138	0.438589
	C7450	C	0.912807	0.870929	0.379689
	C7451	C	0.662647	0.808404	0.442151
	C7452	C	0.596517	0.816159	0.379528
	C7453	C	0.845517	0.753653	0.442028
	C7454	C	0.594189	0.807438	0.500863
	C7455	C	0.843540	0.869925	0.438444
	C7456	C	0.502305	0.865938	0.378739
	C7457	C	0.751784	0.803444	0.441201
	C7458	C	0.506974	0.758615	0.496340
	C7459	C	0.756558	0.821127	0.433859
	C7460	C	0.502562	0.803433	0.496290
	C7461	C	0.751777	0.865931	0.433869
	C7462	C	0.507380	0.821126	0.378717
	C7463	C	0.756313	0.758612	0.441231
	C7464	C	0.500984	0.856688	0.385000
	C7465	C	0.750500	0.794181	0.447401
	C7466	C	0.508255	0.767880	0.490071
	C7467	C	0.757910	0.830394	0.427657
	C7468	C	0.501336	0.794157	0.490076
	C7469	C	0.750539	0.856679	0.427652
	C7470	C	0.508605	0.830384	0.384993
	C7471	C	0.757770	0.767873	0.447431
	H7472	H	0.663443	0.866173	0.373437
	H7473	H	0.912698	0.803659	0.435667
	H7474	H	0.667403	0.756664	0.491888
	H7475	H	0.916943	0.819172	0.429364
	H7476	H	0.841724	0.805409	0.491741
	H7477	H	0.591221	0.867909	0.429510
	H7478	H	0.846066	0.820937	0.373278
	H7479	H	0.595310	0.758387	0.435797
	H7480	H	0.845490	0.758444	0.501813
	H7481	H	0.595604	0.820910	0.439503
	H7482	H	0.841557	0.867934	0.383276
	H7483	H	0.591492	0.805409	0.445798
	H7484	H	0.667738	0.819160	0.383106
	H7485	H	0.916791	0.756646	0.445533
	H7486	H	0.663655	0.803678	0.501666
	H7487	H	0.912971	0.866166	0.439223
	O7488	O	0.085362	0.852772	0.511479
	O7489	O	0.335957	0.790261	0.573976
	O7490	O	0.093615	0.771187	0.611219
	O7491	O	0.343552	0.833710	0.548845
	O7492	O	0.415422	0.790840	0.611463
	O7493	O	0.165424	0.853381	0.548779
	O7494	O	0.423481	0.834297	0.511409
	O7495	O	0.173666	0.771790	0.573815
	O7496	O	0.423536	0.771801	0.613722
	O7497	O	0.173554	0.834282	0.550952
	O7498	O	0.415520	0.853400	0.513761
	O7499	O	0.165943	0.790867	0.576082
	O7500	O	0.093470	0.833691	0.513789
	O7501	O	0.343658	0.771158	0.576269
	O7502	O	0.085603	0.790259	0.613356
	O7503	O	0.335478	0.852738	0.551154
	F7504	F	0.004640	0.781013	0.577623
	F7505	F	0.254592	0.843554	0.515308
	F7506	F	0.004728	0.843545	0.547281
	F7507	F	0.254458	0.781025	0.609622
	Al7508	Al	0.129574	0.781012	0.593606
	Al7509	Al	0.379614	0.843534	0.531261
	Al7510	Al	0.129614	0.843542	0.531275
	Al7511	Al	0.379548	0.781018	0.593821
	C7512	C	0.093914	0.869943	0.499252
	C7513	C	0.344229	0.807433	0.561521
	C7514	C	0.096175	0.753674	0.620569
	C7515	C	0.346524	0.816172	0.557925
	C7516	C	0.412881	0.808396	0.620469
	C7517	C	0.162932	0.870892	0.558152
	C7518	C	0.415443	0.817121	0.499039
	C7519	C	0.165396	0.754631	0.561604
	C7520	C	0.415205	0.754640	0.625905
	C7521	C	0.165597	0.817127	0.563336
	C7522	C	0.413080	0.870908	0.504500
	C7523	C	0.163287	0.808391	0.566934
	C7524	C	0.095880	0.816177	0.504612
	C7525	C	0.346323	0.753653	0.567064
	C7526	C	0.093748	0.807428	0.625895
	C7527	C	0.343864	0.869919	0.563525
	C7528	C	0.002162	0.865968	0.503904
	C7529	C	0.252597	0.803437	0.566147
	C7530	C	0.007005	0.758632	0.621338
	C7531	C	0.257209	0.821121	0.558693
	C7532	C	0.002129	0.803440	0.621201
	C7533	C	0.252154	0.865941	0.558951
	C7534	C	0.006750	0.821139	0.503729
	C7535	C	0.257116	0.758609	0.566246
	C7536	C	0.000699	0.856702	0.510099
	C7537	C	0.251250	0.794174	0.572409
	C7538	C	0.008380	0.767888	0.615024
	C7539	C	0.258337	0.830388	0.552482
	C7540	C	0.000887	0.794173	0.614907
	C7541	C	0.250791	0.856663	0.552628
	C7542	C	0.008244	0.830404	0.509971
	C7543	C	0.258387	0.767869	0.572464
	H7544	H	0.163239	0.866163	0.498457
	H7545	H	0.413565	0.803666	0.560693
	H7546	H	0.167368	0.756673	0.616984
	H7547	H	0.417709	0.819176	0.554379
	H7548	H	0.341655	0.805400	0.616875
	H7549	H	0.091754	0.867878	0.554590
	H7550	H	0.345927	0.820865	0.498258
	H7551	H	0.096083	0.758405	0.560792
	H7552	H	0.345969	0.758417	0.626717
	H7553	H	0.096141	0.820884	0.564168
	H7554	H	0.341829	0.867914	0.508080
	H7555	H	0.092142	0.805389	0.570510
	H7556	H	0.167052	0.819170	0.508238
	H7557	H	0.417528	0.756657	0.570625
	H7558	H	0.163097	0.803658	0.626745
	H7559	H	0.413137	0.866137	0.564307
	O7560	O	0.585483	0.852746	0.511346
	O7561	O	0.835068	0.790262	0.573873
	O7562	O	0.593581	0.771184	0.611426
	O7563	O	0.843320	0.833659	0.548815
	O7564	O	0.915550	0.790879	0.611189
	O7565	O	0.665035	0.853384	0.548709
	O7566	O	0.923601	0.834344	0.511339
	O7567	O	0.673308	0.771796	0.574048
	O7568	O	0.923643	0.771788	0.613474
	O7569	O	0.673260	0.834272	0.550952
	O7570	O	0.915387	0.853416	0.513954
	O7571	O	0.665210	0.790869	0.576336
	O7572	O	0.593458	0.833698	0.513653
	O7573	O	0.843252	0.771172	0.576143
	O7574	O	0.585402	0.790248	0.613652
	O7575	O	0.834967	0.852729	0.551313
	F7576	F	0.504527	0.781010	0.577959
	F7577	F	0.754768	0.843536	0.515371
	F7578	F	0.504480	0.843524	0.547110
	F7579	F	0.754887	0.781032	0.609629
	Al7580	Al	0.629637	0.781017	0.593841
	Al7581	Al	0.879790	0.843540	0.531378
	Al7582	Al	0.629472	0.843522	0.531194
	Al7583	Al	0.879799	0.781027	0.593604
	C7584	C	0.593975	0.869922	0.499062
	C7585	C	0.843354	0.807413	0.561533
	C7586	C	0.595948	0.753667	0.620392
	C7587	C	0.845831	0.816143	0.557885
	C7588	C	0.912815	0.808394	0.620503
	C7589	C	0.662518	0.870895	0.558000
	C7590	C	0.915159	0.817150	0.498997
	C7591	C	0.664948	0.754636	0.561602
	C7592	C	0.915247	0.754640	0.625951
	C7593	C	0.664942	0.817135	0.563457
	C7594	C	0.912964	0.870947	0.504702
	C7595	C	0.662548	0.808404	0.567135
	C7596	C	0.596245	0.816179	0.504446
	C7597	C	0.845829	0.753650	0.567238
	C7598	C	0.593697	0.807408	0.625951
	C7599	C	0.843452	0.869906	0.563435
	C7600	C	0.502213	0.865934	0.503660
	C7601	C	0.751621	0.803438	0.566258
	C7602	C	0.506930	0.758628	0.621381
	C7603	C	0.756690	0.821109	0.558739
	C7604	C	0.501980	0.803415	0.621337
	C7605	C	0.751701	0.865936	0.558825
	C7606	C	0.507007	0.821130	0.503636
	C7607	C	0.756621	0.758612	0.566267
	C7608	C	0.500847	0.856677	0.509910
	C7609	C	0.750342	0.794175	0.572518
	C7610	C	0.508296	0.767895	0.615209
	C7611	C	0.758011	0.830363	0.552500
	C7612	C	0.500635	0.794154	0.615153
	C7613	C	0.750316	0.856664	0.552604
	C7614	C	0.508234	0.830393	0.509904
	C7615	C	0.757937	0.767879	0.572471
	H7616	H	0.663286	0.866145	0.498253
	H7617	H	0.912697	0.803638	0.560706
	H7618	H	0.667139	0.756656	0.616768
	H7619	H	0.917033	0.819127	0.554264
	H7620	H	0.841569	0.805388	0.616976
	H7621	H	0.591335	0.867889	0.554381
	H7622	H	0.845905	0.820922	0.498110
	H7623	H	0.595711	0.758419	0.560721
	H7624	H	0.845937	0.758412	0.626741
	H7625	H	0.595758	0.820921	0.564279
	H7626	H	0.841662	0.867956	0.508268
	H7627	H	0.591309	0.805418	0.570760
	H7628	H	0.667491	0.819175	0.507992
	H7629	H	0.916904	0.756660	0.570917
	H7630	H	0.662986	0.803627	0.626819
	H7631	H	0.912683	0.866121	0.564263
	O7632	O	0.085479	0.852772	0.636566
	O7633	O	0.335645	0.790238	0.698855
	O7634	O	0.093785	0.771167	0.736271
	O7635	O	0.343660	0.833675	0.673718
	O7636	O	0.415448	0.790903	0.736182
	O7637	O	0.165715	0.853361	0.673908
	O7638	O	0.423698	0.834302	0.636384
	O7639	O	0.173930	0.771801	0.698941
	O7640	O	0.423917	0.771825	0.738733
	O7641	O	0.173672	0.834277	0.676065
	O7642	O	0.415416	0.853362	0.638582
	O7643	O	0.165631	0.790860	0.701177
	O7644	O	0.093466	0.833677	0.638810
	O7645	O	0.343845	0.771162	0.701426
	O7646	O	0.085527	0.790263	0.738514
	O7647	O	0.335816	0.852745	0.676080
	F7648	F	0.004833	0.781028	0.702782
	F7649	F	0.254595	0.843524	0.640368
	F7650	F	0.004862	0.843544	0.672310
	F7651	F	0.254691	0.781039	0.734690
	Al7652	Al	0.129784	0.781015	0.718749
	Al7653	Al	0.379619	0.843524	0.656205
	Al7654	Al	0.129702	0.843528	0.656309
	Al7655	Al	0.379828	0.781037	0.718778
	C7656	C	0.093552	0.869932	0.624114
	C7657	C	0.343910	0.807417	0.686683
	C7658	C	0.096072	0.753664	0.745549
	C7659	C	0.346295	0.816155	0.683047
	C7660	C	0.412957	0.808395	0.745430
	C7661	C	0.163095	0.870883	0.683063
	C7662	C	0.415363	0.817147	0.624007
	C7663	C	0.165642	0.754639	0.686674
	C7664	C	0.415342	0.754630	0.750878
	C7665	C	0.165399	0.817120	0.688395
	C7666	C	0.412949	0.870902	0.629602
	C7667	C	0.163022	0.808387	0.692032
	C7668	C	0.096050	0.816167	0.629526
	C7669	C	0.346479	0.753654	0.692093
	C7670	C	0.093709	0.807437	0.750764
	C7671	C	0.343982	0.869914	0.688453
	C7672	C	0.001895	0.865947	0.628747
	C7673	C	0.252177	0.803422	0.691225
	C7674	C	0.006920	0.758626	0.746352
	C7675	C	0.257165	0.821117	0.683831
	C7676	C	0.001958	0.803440	0.746286
	C7677	C	0.252336	0.865926	0.683915
	C7678	C	0.006900	0.821129	0.628654
	C7679	C	0.257373	0.758624	0.691236
	C7680	C	0.000651	0.856681	0.635044
	C7681	C	0.250898	0.794156	0.697412
	C7682	C	0.008526	0.767884	0.740085
	C7683	C	0.258458	0.830376	0.677550
	C7684	C	0.000822	0.794170	0.740093
	C7685	C	0.251081	0.856657	0.677642
	C7686	C	0.008205	0.830387	0.634929
	C7687	C	0.258620	0.767879	0.697543
	H7688	H	0.162900	0.866160	0.623328
	H7689	H	0.413265	0.803647	0.685951
	H7690	H	0.167376	0.756651	0.742033
	H7691	H	0.417629	0.819152	0.679491
	H7692	H	0.341735	0.805402	0.741786
	H7693	H	0.091890	0.867879	0.679470
	H7694	H	0.346158	0.820932	0.623148
	H7695	H	0.096226	0.758402	0.685935
	H7696	H	0.345985	0.758393	0.751680
	H7697	H	0.096032	0.820883	0.689121
	H7698	H	0.341667	0.867898	0.633118
	H7699	H	0.091767	0.805398	0.695569
	H7700	H	0.167208	0.819168	0.633142
	H7701	H	0.417765	0.756631	0.695722
	H7702	H	0.163144	0.803675	0.751494
	H7703	H	0.413370	0.866148	0.689218
	O7704	O	0.585533	0.852739	0.636370
	O7705	O	0.835192	0.790277	0.698909
	O7706	O	0.593835	0.771170	0.736226
	O7707	O	0.843401	0.833661	0.673829
	O7708	O	0.915413	0.790863	0.736338
	O7709	O	0.665003	0.853380	0.673687
	O7710	O	0.923529	0.834304	0.636385
	O7711	O	0.673465	0.771794	0.698870
	O7712	O	0.923836	0.771834	0.738676
	O7713	O	0.673399	0.834298	0.676043
	O7714	O	0.915375	0.853375	0.638791
	O7715	O	0.665111	0.790878	0.701237
	O7716	O	0.593727	0.833677	0.638630
	O7717	O	0.843467	0.771166	0.701122
	O7718	O	0.585368	0.790240	0.738608
	O7719	O	0.835018	0.852765	0.676110
	F7720	F	0.504582	0.781014	0.702828
	F7721	F	0.754805	0.843525	0.640376
	F7722	F	0.504565	0.843537	0.672092
	F7723	F	0.754693	0.781019	0.734592
	Al7724	Al	0.629602	0.781013	0.718719
	Al7725	Al	0.879916	0.843532	0.656411
	Al7726	Al	0.629674	0.843530	0.656204
	Al7727	Al	0.879967	0.781028	0.718666
	C7728	C	0.593860	0.869929	0.624174
	C7729	C	0.843253	0.807397	0.686490
	C7730	C	0.596145	0.753655	0.745470
	C7731	C	0.845647	0.816132	0.682827
	C7732	C	0.912758	0.808408	0.745448
	C7733	C	0.662499	0.870914	0.682899
	C7734	C	0.915110	0.817134	0.624099
	C7735	C	0.664958	0.754634	0.686617
	C7736	C	0.915238	0.754635	0.751003
	C7737	C	0.664872	0.817118	0.688305
	C7738	C	0.912676	0.870917	0.629605
	C7739	C	0.662390	0.808389	0.691979
	C7740	C	0.596123	0.816158	0.629498
	C7741	C	0.845804	0.753639	0.692059
	C7742	C	0.593775	0.807419	0.750905
	C7743	C	0.843201	0.869916	0.688505
	C7744	C	0.502153	0.865944	0.628785
	C7745	C	0.751489	0.803420	0.691128
	C7746	C	0.507053	0.758623	0.746309
	C7747	C	0.756617	0.821108	0.683758
	C7748	C	0.502096	0.803421	0.746327
	C7749	C	0.751497	0.865941	0.683814
	C7750	C	0.507076	0.821125	0.628606
	C7751	C	0.756710	0.758610	0.691233
	C7752	C	0.500803	0.856661	0.634914
	C7753	C	0.750323	0.794172	0.697418
	C7754	C	0.508541	0.767891	0.740119
	C7755	C	0.758059	0.830375	0.677555
	C7756	C	0.500765	0.794173	0.740043
	C7757	C	0.750205	0.856673	0.677541
	C7758	C	0.508409	0.830386	0.634874
	C7759	C	0.758141	0.767874	0.697406
	H7760	H	0.663189	0.866157	0.623308
	H7761	H	0.912480	0.803617	0.685679
	H7762	H	0.667422	0.756646	0.741940
	H7763	H	0.916872	0.819119	0.679187
	H7764	H	0.841507	0.805409	0.741881
	H7765	H	0.591257	0.867926	0.679219
	H7766	H	0.845808	0.820910	0.623361
	H7767	H	0.595652	0.758404	0.685749
	H7768	H	0.845930	0.758398	0.751876
	H7769	H	0.595559	0.820892	0.689100
	H7770	H	0.841496	0.867917	0.633242
	H7771	H	0.591129	0.805407	0.695594
	H7772	H	0.667371	0.819149	0.633095
	H7773	H	0.917164	0.756610	0.695608
	H7774	H	0.663097	0.803646	0.751673
	H7775	H	0.912415	0.866131	0.689348
	O7776	O	0.085504	0.852761	0.761417
	O7777	O	0.335606	0.790245	0.824018
	O7778	O	0.093906	0.771186	0.861412
	O7779	O	0.343527	0.833682	0.798828
	O7780	O	0.415634	0.790876	0.861205
	O7781	O	0.165603	0.853381	0.798816
	O7782	O	0.423617	0.834299	0.761389
	O7783	O	0.173692	0.771783	0.824040
	O7784	O	0.423966	0.771796	0.863683
	O7785	O	0.173635	0.834286	0.801018
	O7786	O	0.415876	0.853347	0.763650
	O7787	O	0.165677	0.790854	0.826274
	O7788	O	0.093367	0.833695	0.763777
	O7789	O	0.343633	0.771138	0.826334
	O7790	O	0.085466	0.790251	0.863575
	O7791	O	0.335625	0.852772	0.800897
	F7792	F	0.004787	0.781025	0.827809
	F7793	F	0.254542	0.843523	0.765325
	F7794	F	0.004896	0.843536	0.797252
	F7795	F	0.254573	0.781008	0.859769
	Al7796	Al	0.129747	0.781016	0.843812
	Al7797	Al	0.379604	0.843525	0.781196
	Al7798	Al	0.129642	0.843533	0.781278
	Al7799	Al	0.379515	0.781012	0.843844
	C7800	C	0.093726	0.869921	0.749122
	C7801	C	0.343645	0.807412	0.811606
	C7802	C	0.096122	0.753669	0.870482
	C7803	C	0.346012	0.816142	0.807984
	C7804	C	0.413355	0.808388	0.870511
	C7805	C	0.162892	0.870906	0.808110
	C7806	C	0.415349	0.817138	0.749076
	C7807	C	0.165471	0.754605	0.811598
	C7808	C	0.415521	0.754596	0.875890
	C7809	C	0.165169	0.817114	0.813365
	C7810	C	0.413147	0.870880	0.754555
	C7811	C	0.162757	0.808372	0.816982
	C7812	C	0.095966	0.816181	0.754406
	C7813	C	0.346305	0.753630	0.817016
	C7814	C	0.093771	0.807430	0.875854
	C7815	C	0.343831	0.869927	0.813516
	C7816	C	0.002027	0.865929	0.753679
	C7817	C	0.252007	0.803419	0.816254
	C7818	C	0.007079	0.758641	0.871422
	C7819	C	0.256862	0.821111	0.808831
	C7820	C	0.002091	0.803433	0.871282
	C7821	C	0.252147	0.865946	0.808891
	C7822	C	0.006745	0.821140	0.753718
	C7823	C	0.257069	0.758592	0.816278
	C7824	C	0.000772	0.856667	0.759925
	C7825	C	0.250901	0.794160	0.822535
	C7826	C	0.008598	0.767891	0.865109
	C7827	C	0.258300	0.830373	0.802546
	C7828	C	0.000721	0.794164	0.865100
	C7829	C	0.250930	0.856685	0.802505
	C7830	C	0.008185	0.830398	0.759964
	C7831	C	0.258294	0.767851	0.822561
	H7832	H	0.163173	0.866161	0.748323
	H7833	H	0.412966	0.803643	0.810783
	H7834	H	0.167304	0.756660	0.866842
	H7835	H	0.417086	0.819133	0.804368
	H7836	H	0.342051	0.805403	0.866899
	H7837	H	0.091646	0.867900	0.804493
	H7838	H	0.346095	0.820915	0.748263
	H7839	H	0.096074	0.758361	0.810802
	H7840	H	0.346231	0.758359	0.876715
	H7841	H	0.095826	0.820885	0.814100
	H7842	H	0.341856	0.867884	0.758106
	H7843	H	0.091504	0.805366	0.820517
	H7844	H	0.167221	0.819180	0.757900
	H7845	H	0.417583	0.756611	0.820609
	H7846	H	0.163156	0.803664	0.876672
	H7847	H	0.413216	0.866154	0.814239
	O7848	O	0.585907	0.852752	0.761514
	O7849	O	0.835253	0.790238	0.823768
	O7850	O	0.593849	0.771135	0.861116
	O7851	O	0.843443	0.833634	0.798823
	O7852	O	0.915340	0.790871	0.861271
	O7853	O	0.665242	0.853377	0.798870
	O7854	O	0.923426	0.834328	0.761406
	O7855	O	0.673404	0.771814	0.823745
	O7856	O	0.923910	0.771821	0.863597
	O7857	O	0.673487	0.834300	0.801195
	O7858	O	0.915442	0.853359	0.763746
	O7859	O	0.665283	0.790854	0.826202
	O7860	O	0.593583	0.833682	0.763821
	O7861	O	0.843294	0.771141	0.826224
	O7862	O	0.585616	0.790249	0.863483
	O7863	O	0.835214	0.852735	0.801354
	F7864	F	0.504451	0.781008	0.827819
	F7865	F	0.754728	0.843539	0.765476
	F7866	F	0.504361	0.843527	0.797166
	F7867	F	0.754691	0.781010	0.859513
	Al7868	Al	0.629540	0.781010	0.843706
	Al7869	Al	0.879831	0.843535	0.781402
	Al7870	Al	0.629621	0.843527	0.781358
	Al7871	Al	0.879814	0.781023	0.843647
	C7872	C	0.594038	0.869924	0.749151
	C7873	C	0.843354	0.807407	0.811567
	C7874	C	0.596304	0.753634	0.870382
	C7875	C	0.845740	0.816141	0.808015
	C7876	C	0.912914	0.808405	0.870457
	C7877	C	0.662787	0.870907	0.807937
	C7878	C	0.915037	0.817152	0.749086
	C7879	C	0.664863	0.754611	0.811562
	C7880	C	0.915327	0.754640	0.875951
	C7881	C	0.664913	0.817113	0.813513
	C7882	C	0.912962	0.870911	0.754639
	C7883	C	0.662507	0.808371	0.817064
	C7884	C	0.596181	0.816162	0.754556
	C7885	C	0.845621	0.753629	0.817085
	C7886	C	0.594182	0.807395	0.875852
	C7887	C	0.843619	0.869916	0.813462
	C7888	C	0.502404	0.865924	0.753762
	C7889	C	0.751645	0.803414	0.816145
	C7890	C	0.507150	0.758595	0.871262
	C7891	C	0.756582	0.821098	0.808837
	C7892	C	0.502438	0.803406	0.871284
	C7893	C	0.751908	0.865940	0.808821
	C7894	C	0.507059	0.821123	0.753730
	C7895	C	0.756485	0.758598	0.816246
	C7896	C	0.501151	0.856652	0.759949
	C7897	C	0.750482	0.794152	0.822365
	C7898	C	0.508569	0.767860	0.865033
	C7899	C	0.758054	0.830359	0.802595
	C7900	C	0.500937	0.794162	0.864969
	C7901	C	0.750533	0.856667	0.802675
	C7902	C	0.508342	0.830385	0.760004
	C7903	C	0.757925	0.767865	0.822414
	H7904	H	0.663469	0.866162	0.748309
	H7905	H	0.912699	0.803638	0.810774
	H7906	H	0.667485	0.756629	0.866776
	H7907	H	0.916989	0.819133	0.804470
	H7908	H	0.841653	0.805407	0.866901
	H7909	H	0.591570	0.867904	0.804345
	H7910	H	0.845672	0.820921	0.748311
	H7911	H	0.595500	0.758371	0.810675
	H7912	H	0.845943	0.758406	0.876717
	H7913	H	0.595669	0.820884	0.814381
	H7914	H	0.841699	0.867924	0.758295
	H7915	H	0.591327	0.805369	0.820696
	H7916	H	0.667387	0.819157	0.758173
	H7917	H	0.916899	0.756605	0.820656
	H7918	H	0.663602	0.803630	0.876586
	H7919	H	0.912953	0.866136	0.814326
	O7920	O	0.085545	0.852803	0.886505
	O7921	O	0.335468	0.790232	0.948832
	O7922	O	0.093625	0.771188	0.986417
	O7923	O	0.343642	0.833659	0.923637
	O7924	O	0.415678	0.790890	0.986110
	O7925	O	0.165833	0.853371	0.923725
	O7926	O	0.423923	0.834289	0.886463
	O7927	O	0.173824	0.771777	0.949001
	O7928	O	0.423928	0.771794	0.988480
	O7929	O	0.173597	0.834252	0.925756
	O7930	O	0.415659	0.853372	0.888757
	O7931	O	0.165619	0.790866	0.951364
	O7932	O	0.093422	0.833730	0.888540
	O7933	O	0.343814	0.771134	0.951320
	O7934	O	0.085473	0.790229	0.988609
	O7935	O	0.335731	0.852738	0.926100
	F7936	F	0.004872	0.781013	0.952791
	F7937	F	0.254826	0.843545	0.890266
	F7938	F	0.004950	0.843519	0.922166
	F7939	F	0.254757	0.781012	0.984703
	Al7940	Al	0.129747	0.781007	0.968807
	Al7941	Al	0.379722	0.843526	0.906226
	Al7942	Al	0.129803	0.843539	0.906126
	Al7943	Al	0.379686	0.781014	0.968672
	C7944	C	0.093515	0.869948	0.874181
	C7945	C	0.343888	0.807417	0.936620
	C7946	C	0.096381	0.753666	0.995470
	C7947	C	0.346339	0.816150	0.932968
	C7948	C	0.413311	0.808408	0.995391
	C7949	C	0.163153	0.870889	0.932999
	C7950	C	0.415717	0.817130	0.874214
	C7951	C	0.165389	0.754611	0.936553
	C7952	C	0.415757	0.754643	1.000911
	C7953	C	0.165428	0.817117	0.938313
	C7954	C	0.413156	0.870906	0.879517
	C7955	C	0.162999	0.808386	0.941991
	C7956	C	0.096106	0.816177	0.879438
	C7957	C	0.346124	0.753636	0.942113
	C7958	C	0.093810	0.807406	1.000871
	C7959	C	0.344079	0.869925	0.938286
	C7960	C	0.001844	0.865959	0.878746
	C7961	C	0.252170	0.803426	0.941244
	C7962	C	0.007247	0.758628	0.996416
	C7963	C	0.257158	0.821104	0.933713
	C7964	C	0.002123	0.803425	0.996290
	C7965	C	0.252441	0.865923	0.933703
	C7966	C	0.006955	0.821146	0.878618
	C7967	C	0.257011	0.758596	0.941234
	C7968	C	0.000684	0.856698	0.884989
	C7969	C	0.250821	0.794161	0.947496
	C7970	C	0.008342	0.767892	0.990182
	C7971	C	0.258399	0.830355	0.927367
	C7972	C	0.000763	0.794161	0.990000
	C7973	C	0.251114	0.856668	0.927491
	C7974	C	0.008265	0.830422	0.884753
	C7975	C	0.258468	0.767857	0.947486
	H7976	H	0.162839	0.866180	0.873378
	H7977	H	0.413182	0.803642	0.935849
	H7978	H	0.167593	0.756655	0.991835
	H7979	H	0.417581	0.819151	0.929381
	H7980	H	0.342129	0.805411	0.991813
	H7981	H	0.091809	0.867896	0.929462
	H7982	H	0.346409	0.820903	0.873479
	H7983	H	0.096054	0.758386	0.935770
	H7984	H	0.346573	0.758425	1.001780
	H7985	H	0.096091	0.820891	0.939051
	H7986	H	0.341957	0.867909	0.883056
	H7987	H	0.091793	0.805402	0.945540
	H7988	H	0.167330	0.819173	0.882958
	H7989	H	0.417306	0.756630	0.945776
	H7990	H	0.163166	0.803638	1.001625
	H7991	H	0.413578	0.866169	0.939044
	O7992	O	0.585578	0.852759	0.886463
	O7993	O	0.835250	0.790263	0.948845
	O7994	O	0.593937	0.771163	0.986210
	O7995	O	0.843554	0.833652	0.923806
	O7996	O	0.915515	0.790852	0.986198
	O7997	O	0.665339	0.853378	0.923765
	O7998	O	0.923462	0.834335	0.886269
	O7999	O	0.673334	0.771784	0.948772
	O8000	O	0.923628	0.771799	0.988636
	O8001	O	0.673658	0.834306	0.926176
	O8002	O	0.915409	0.853376	0.888671
	O8003	O	0.665259	0.790853	0.951108
	O8004	O	0.593941	0.833667	0.888808
	O8005	O	0.843334	0.771141	0.951121
	O8006	O	0.585581	0.790246	0.988502
	O8007	O	0.835189	0.852767	0.926114
	F8008	F	0.504599	0.781011	0.952748
	F8009	F	0.754643	0.843541	0.890458
	F8010	F	0.504684	0.843507	0.922213
	F8011	F	0.754705	0.781006	0.984501
	Al8012	Al	0.629630	0.781011	0.968657
	Al8013	Al	0.879897	0.843530	0.906326
	Al8014	Al	0.629742	0.843530	0.906300
	Al8015	Al	0.879858	0.781004	0.968606
	C8016	C	0.594023	0.869932	0.874153
	C8017	C	0.843354	0.807409	0.936470
	C8018	C	0.596524	0.753648	0.995322
	C8019	C	0.845866	0.816141	0.932866
	C8020	C	0.912866	0.808390	0.995589
	C8021	C	0.662670	0.870910	0.933054
	C8022	C	0.915262	0.817150	0.874042
	C8023	C	0.664976	0.754597	0.936630
	C8024	C	0.915565	0.754636	1.001031
	C8025	C	0.665019	0.817126	0.938361
	C8026	C	0.912633	0.870930	0.879564
	C8027	C	0.662567	0.808389	0.941942
	C8028	C	0.596588	0.816138	0.879547
	C8029	C	0.845806	0.753635	0.942082
	C8030	C	0.594188	0.807416	1.000849
	C8031	C	0.843507	0.869935	0.938509
	C8032	C	0.502317	0.865942	0.878742
	C8033	C	0.751672	0.803424	0.941088
	C8034	C	0.507445	0.758618	0.996230
	C8035	C	0.756755	0.821112	0.933808
	C8036	C	0.502408	0.803442	0.996175
	C8037	C	0.751813	0.865944	0.933820
	C8038	C	0.507455	0.821110	0.878772
	C8039	C	0.756683	0.758593	0.941161
	C8040	C	0.500885	0.856672	0.884963
	C8041	C	0.750455	0.794163	0.947354
	C8042	C	0.508643	0.767876	0.989969
	C8043	C	0.758231	0.830373	0.927613
	C8044	C	0.500950	0.794181	0.989902
	C8045	C	0.750509	0.856686	0.927524
	C8046	C	0.508676	0.830373	0.885026
	C8047	C	0.758013	0.767861	0.947314
	H8048	H	0.663383	0.866164	0.873319
	H8049	H	0.912609	0.803633	0.935628
	H8050	H	0.667776	0.756632	0.991707
	H8051	H	0.917068	0.819137	0.929240
	H8052	H	0.841664	0.805386	0.992099
	H8053	H	0.591342	0.867924	0.929485
	H8054	H	0.845934	0.820921	0.873205
	H8055	H	0.595672	0.758372	0.935833
	H8056	H	0.846238	0.758403	1.001866
	H8057	H	0.595757	0.820898	0.939166
	H8058	H	0.841392	0.867928	0.883138
	H8059	H	0.591262	0.805403	0.945525
	H8060	H	0.667809	0.819132	0.883129
	H8061	H	0.916994	0.756635	0.945688
	H8062	H	0.663321	0.803623	1.001662
	H8063	H	0.912891	0.866171	0.939353
	O8064	O	0.085307	0.977755	0.011303
	O8065	O	0.335509	0.915262	0.074021
	O8066	O	0.093822	0.896170	0.111202
	O8067	O	0.343276	0.958692	0.048795
	O8068	O	0.415479	0.915882	0.111282
	O8069	O	0.165209	0.978394	0.048574
	O8070	O	0.423547	0.959279	0.011452
	O8071	O	0.173652	0.896817	0.073884
	O8072	O	0.423832	0.896813	0.113665
	O8073	O	0.173322	0.959312	0.051069
	O8074	O	0.415350	0.978369	0.013674
	O8075	O	0.165551	0.915893	0.076304
	O8076	O	0.093582	0.958685	0.013639
	O8077	O	0.343608	0.896197	0.076216
	O8078	O	0.085461	0.915256	0.113568
	O8079	O	0.335194	0.977762	0.051055
	F8080	F	0.004864	0.906039	0.077763
	F8081	F	0.254574	0.968506	0.015307
	F8082	F	0.004690	0.968546	0.047073
	F8083	F	0.254651	0.906026	0.109743
	Al8084	Al	0.129767	0.906042	0.093724
	Al8085	Al	0.379658	0.968533	0.031237
	Al8086	Al	0.129594	0.968529	0.031140
	Al8087	Al	0.379612	0.906032	0.093772
	C8088	C	0.093458	0.994924	-0.000962
	C8089	C	0.343766	0.932410	0.061435
	C8090	C	0.096298	0.878686	0.120613
	C8091	C	0.345910	0.941145	0.057792
	C8092	C	0.412811	0.933403	0.120377
	C8093	C	0.162692	0.995887	0.057884
	C8094	C	0.415395	0.942137	-0.000986
	C8095	C	0.165305	0.879636	0.061649
	C8096	C	0.415597	0.879634	0.125838
	C8097	C	0.165076	0.942127	0.063251
	C8098	C	0.412860	0.995881	0.004616
	C8099	C	0.162851	0.933390	0.066883
	C8100	C	0.096009	0.941172	0.004480
	C8101	C	0.346137	0.878671	0.067004
	C8102	C	0.093636	0.932425	0.125930
	C8103	C	0.343481	0.994901	0.063527
	C8104	C	0.001821	0.990944	0.003700
	C8105	C	0.252123	0.928431	0.066125
	C8106	C	0.007065	0.883641	0.121321
	C8107	C	0.256780	0.946116	0.058680
	C8108	C	0.001934	0.928439	0.121254
	C8109	C	0.251756	0.990923	0.058869
	C8110	C	0.006877	0.946142	0.003588
	C8111	C	0.256986	0.883629	0.066224
	C8112	C	0.000563	0.981673	0.009855
	C8113	C	0.250812	0.919179	0.072490
	C8114	C	0.008582	0.892897	0.115066
	C8115	C	0.258019	0.955391	0.052539
	C8116	C	0.000956	0.919172	0.115044
	C8117	C	0.250450	0.981677	0.052481
	C8118	C	0.008258	0.955406	0.009747
	C8119	C	0.258352	0.892897	0.072443
	H8120	H	0.162784	0.991153	-0.001870
	H8121	H	0.413102	0.928651	0.060586
	H8122	H	0.167613	0.881678	0.117089
	H8123	H	0.417137	0.944133	0.054170
	H8124	H	0.341586	0.930411	0.116732
	H8125	H	0.091534	0.992901	0.054156
	H8126	H	0.345996	0.945901	-0.001740
	H8127	H	0.095965	0.883405	0.060882
	H8128	H	0.346337	0.883404	0.126629
	H8129	H	0.095754	0.945910	0.064071
	H8130	H	0.341721	0.992881	0.008239
	H8131	H	0.091697	0.930386	0.070503
	H8132	H	0.167336	0.944164	0.008034
	H8133	H	0.417336	0.881674	0.070548
	H8134	H	0.163019	0.928656	0.126809
	H8135	H	0.412785	0.991127	0.064341
	O8136	O	0.585303	0.977730	0.011369
	O8137	O	0.835317	0.915263	0.073835
	O8138	O	0.593773	0.896193	0.111231
	O8139	O	0.843468	0.958656	0.048675
	O8140	O	0.915459	0.915868	0.111275
	O8141	O	0.665145	0.978392	0.048718
	O8142	O	0.923686	0.959343	0.011133
	O8143	O	0.673503	0.896802	0.073897
	O8144	O	0.923853	0.896835	0.113695
	O8145	O	0.673566	0.959315	0.051173
	O8146	O	0.915204	0.978365	0.013544
	O8147	O	0.665344	0.915874	0.076203
	O8148	O	0.593483	0.958665	0.013845
	O8149	O	0.843418	0.896143	0.076319
	O8150	O	0.585443	0.915269	0.113513
	O8151	O	0.835198	0.977764	0.051059
	F8152	F	0.504600	0.906031	0.077839
	F8153	F	0.754588	0.968515	0.015340
	F8154	F	0.504341	0.968549	0.047187
	F8155	F	0.754820	0.906048	0.109559
	Al8156	Al	0.629724	0.906029	0.093693
	Al8157	Al	0.879735	0.968534	0.031201
	Al8158	Al	0.629423	0.968530	0.031295
	Al8159	Al	0.879968	0.906037	0.093666
	C8160	C	0.593725	0.994900	-0.000992
	C8161	C	0.843489	0.932409	0.061520
	C8162	C	0.596474	0.878663	0.120499
	C8163	C	0.845937	0.941142	0.057888
	C8164	C	0.912797	0.933403	0.120384
	C8165	C	0.662560	0.995878	0.057964
	C8166	C	0.915059	0.942152	-0.001021
	C8167	C	0.665077	0.879615	0.061637
	C8168	C	0.915331	0.879661	0.125894
	C8169	C	0.665182	0.942140	0.063526
	C8170	C	0.912672	0.995910	0.004678
	C8171	C	0.662706	0.933407	0.067163
	C8172	C	0.596251	0.941166	0.004480
	C8173	C	0.845867	0.878642	0.067019
	C8174	C	0.593606	0.932424	0.126019
	C8175	C	0.843460	0.994895	0.063487
	C8176	C	0.502061	0.990926	0.003780
	C8177	C	0.751818	0.928432	0.066147
	C8178	C	0.507303	0.883622	0.121245
	C8179	C	0.756773	0.946111	0.058757
	C8180	C	0.501944	0.928433	0.121306
	C8181	C	0.751823	0.990923	0.058810
	C8182	C	0.507072	0.946124	0.003630
	C8183	C	0.756718	0.883609	0.066198
	C8184	C	0.500675	0.981658	0.009916
	C8185	C	0.750569	0.919172	0.072398
	C8186	C	0.508563	0.892892	0.115046
	C8187	C	0.758163	0.955376	0.052531
	C8188	C	0.500714	0.919180	0.115033
	C8189	C	0.750451	0.981673	0.052531
	C8190	C	0.508268	0.955367	0.009999
	C8191	C	0.758059	0.892866	0.072489
	H8192	H	0.662887	0.991111	-0.001913
	H8193	H	0.912898	0.928649	0.060701
	H8194	H	0.667814	0.881651	0.117005
	H8195	H	0.917299	0.944121	0.054273
	H8196	H	0.841445	0.930420	0.116794
	H8197	H	0.591438	0.992864	0.054377
	H8198	H	0.845762	0.945931	-0.001844
	H8199	H	0.595672	0.883376	0.060900
	H8200	H	0.845984	0.883429	0.126627
	H8201	H	0.596027	0.945929	0.064433
	H8202	H	0.841561	0.992912	0.008339
	H8203	H	0.591645	0.930403	0.070888
	H8204	H	0.667452	0.944161	0.008136
	H8205	H	0.917061	0.881632	0.070609
	H8206	H	0.662987	0.928654	0.126919
	H8207	H	0.912809	0.991133	0.064375
	O8208	O	0.085464	0.977759	0.136464
	O8209	O	0.335517	0.915244	0.198851
	O8210	O	0.093777	0.896183	0.236170
	O8211	O	0.343450	0.958689	0.173737
	O8212	O	0.415323	0.915867	0.236294
	O8213	O	0.165621	0.978379	0.173769
	O8214	O	0.423361	0.959310	0.136338
	O8215	O	0.173923	0.896804	0.198892
	O8216	O	0.423858	0.896833	0.238681
	O8217	O	0.173571	0.959312	0.176149
	O8218	O	0.415349	0.978375	0.138640
	O8219	O	0.165560	0.915874	0.201148
	O8220	O	0.093633	0.958681	0.138795
	O8221	O	0.343886	0.896152	0.201267
	O8222	O	0.085573	0.915268	0.238483
	O8223	O	0.335580	0.977750	0.176068
	F8224	F	0.004819	0.906049	0.202709
	F8225	F	0.254567	0.968535	0.140336
	F8226	F	0.004669	0.968552	0.172224
	F8227	F	0.254616	0.906030	0.234592
	Al8228	Al	0.129741	0.906026	0.218669
	Al8229	Al	0.379604	0.968528	0.156195
	Al8230	Al	0.129771	0.968530	0.156305
	Al8231	Al	0.379729	0.906034	0.218717
	C8232	C	0.093640	0.994938	0.124108
	C8233	C	0.343819	0.932411	0.186417
	C8234	C	0.096173	0.878670	0.245471
	C8235	C	0.346114	0.941141	0.182828
	C8236	C	0.412701	0.933397	0.245376
	C8237	C	0.163104	0.995884	0.182957
	C8238	C	0.415185	0.942147	0.123984
	C8239	C	0.165393	0.879638	0.186696
	C8240	C	0.415445	0.879647	0.250829
	C8241	C	0.165378	0.942122	0.188385
	C8242	C	0.412836	0.995905	0.129592
	C8243	C	0.163013	0.933382	0.191982
	C8244	C	0.096143	0.941170	0.129532
	C8245	C	0.346364	0.878648	0.192001
	C8246	C	0.093701	0.932436	0.250890
	C8247	C	0.343891	0.994911	0.188517
	C8248	C	0.001986	0.990954	0.128813
	C8249	C	0.252198	0.928419	0.191073
	C8250	C	0.007127	0.883642	0.246337
	C8251	C	0.256974	0.946114	0.183742
	C8252	C	0.002053	0.928443	0.246241
	C8253	C	0.252301	0.990927	0.183831
	C8254	C	0.007025	0.946133	0.128633
	C8255	C	0.257144	0.883614	0.191259
	C8256	C	0.000957	0.981682	0.134992
	C8257	C	0.250863	0.919165	0.197373
	C8258	C	0.008431	0.892896	0.240040
	C8259	C	0.258223	0.955384	0.177531
	C8260	C	0.000834	0.919183	0.240011
	C8261	C	0.250897	0.981670	0.177545
	C8262	C	0.008544	0.955388	0.134909
	C8263	C	0.258530	0.892875	0.197462
	H8264	H	0.162951	0.991172	0.123238
	H8265	H	0.413191	0.928646	0.185580
	H8266	H	0.167470	0.881650	0.241876
	H8267	H	0.417242	0.944132	0.179216
	H8268	H	0.341476	0.930408	0.241720
	H8269	H	0.091956	0.992886	0.179328
	H8270	H	0.345924	0.945923	0.123129
	H8271	H	0.096048	0.883409	0.185923
	H8272	H	0.346126	0.883413	0.251568
	H8273	H	0.096098	0.945893	0.189249
	H8274	H	0.341715	0.992915	0.133249
	H8275	H	0.091875	0.930375	0.195628
	H8276	H	0.167381	0.944158	0.133173
	H8277	H	0.417680	0.881638	0.195512
	H8278	H	0.163085	0.928670	0.251723
	H8279	H	0.413236	0.991145	0.189391
	O8280	O	0.585357	0.977749	0.136362
	O8281	O	0.835217	0.915265	0.198890
	O8282	O	0.593834	0.896174	0.236249
	O8283	O	0.843291	0.958663	0.173770
	O8284	O	0.915529	0.915882	0.236229
	O8285	O	0.665306	0.978368	0.173756
	O8286	O	0.923663	0.959309	0.136336
	O8287	O	0.673545	0.896806	0.198935
	O8288	O	0.923809	0.896815	0.238595
	O8289	O	0.673331	0.959294	0.176063
	O8290	O	0.915451	0.978362	0.138665
	O8291	O	0.665319	0.915889	0.201321
	O8292	O	0.593325	0.958710	0.138556
	O8293	O	0.843493	0.896176	0.201230
	O8294	O	0.585314	0.915259	0.238564
	O8295	O	0.835199	0.977756	0.176120
	F8296	F	0.504633	0.906038	0.202810
	F8297	F	0.754672	0.968517	0.140389
	F8298	F	0.504651	0.968549	0.172093
	F8299	F	0.754835	0.906025	0.234612
	Al8300	Al	0.629633	0.906033	0.218777
	Al8301	Al	0.879908	0.968532	0.156292
	Al8302	Al	0.629671	0.968526	0.156213
	Al8303	Al	0.879920	0.906041	0.218672
	C8304	C	0.593669	0.994906	0.123916
	C8305	C	0.843539	0.932414	0.186495
	C8306	C	0.596181	0.878669	0.245451
	C8307	C	0.845790	0.941143	0.182857
	C8308	C	0.912848	0.933416	0.245331
	C8309	C	0.662546	0.995883	0.182950
	C8310	C	0.915276	0.942149	0.123960
	C8311	C	0.665194	0.879642	0.186594
	C8312	C	0.915307	0.879654	0.250875
	C8313	C	0.665001	0.942133	0.188436
	C8314	C	0.912750	0.995915	0.129653
	C8315	C	0.662658	0.933395	0.192062
	C8316	C	0.596012	0.941168	0.129592
	C8317	C	0.846085	0.878658	0.191977
	C8318	C	0.593540	0.932397	0.250988
	C8319	C	0.843291	0.994914	0.188603
	C8320	C	0.501982	0.990933	0.128653
	C8321	C	0.751849	0.928435	0.191202
	C8322	C	0.507157	0.883635	0.246313
	C8323	C	0.756683	0.946109	0.183779
	C8324	C	0.501795	0.928415	0.246284
	C8325	C	0.751686	0.990921	0.183910
	C8326	C	0.506852	0.946132	0.128639
	C8327	C	0.756905	0.883623	0.191211
	C8328	C	0.500627	0.981669	0.134885
	C8329	C	0.750531	0.919184	0.197504
	C8330	C	0.508496	0.892897	0.240065
	C8331	C	0.757983	0.955370	0.177521
	C8332	C	0.500538	0.919165	0.240075
	C8333	C	0.750476	0.981668	0.177593
	C8334	C	0.508078	0.955399	0.134850
	C8335	C	0.758235	0.892885	0.197462
	H8336	H	0.662890	0.991126	0.123033
	H8337	H	0.912871	0.928646	0.185626
	H8338	H	0.667515	0.881638	0.241844
	H8339	H	0.917070	0.944121	0.179207
	H8340	H	0.841590	0.930417	0.241738
	H8341	H	0.591420	0.992891	0.179282
	H8342	H	0.845963	0.945924	0.123114
	H8343	H	0.595904	0.883422	0.185776
	H8344	H	0.846016	0.883424	0.251576
	H8345	H	0.595768	0.945912	0.189265
	H8346	H	0.841556	0.992924	0.133250
	H8347	H	0.591536	0.930390	0.195722
	H8348	H	0.667210	0.944163	0.133239
	H8349	H	0.917297	0.881658	0.195537
	H8350	H	0.662795	0.928614	0.251891
	H8351	H	0.912590	0.991150	0.189505
	O8352	O	0.085649	0.977769	0.261505
	O8353	O	0.335275	0.915244	0.323945
	O8354	O	0.093807	0.896184	0.361346
	O8355	O	0.343651	0.958675	0.298750
	O8356	O	0.415606	0.915907	0.361129
	O8357	O	0.165732	0.978341	0.298923
	O8358	O	0.423689	0.959291	0.261421
	O8359	O	0.173914	0.896809	0.324066
	O8360	O	0.423912	0.896827	0.363662
	O8361	O	0.173723	0.959293	0.301056
	O8362	O	0.415528	0.978356	0.263700
	O8363	O	0.165403	0.915896	0.326462
	O8364	O	0.093508	0.958705	0.263662
	O8365	O	0.343786	0.896171	0.326446
	O8366	O	0.085453	0.915245	0.363764
	O8367	O	0.335775	0.977755	0.301014
	F8368	F	0.004842	0.906044	0.327858
	F8369	F	0.254614	0.968520	0.265319
	F8370	F	0.004547	0.968511	0.297205
	F8371	F	0.254839	0.906047	0.359801
	Al8372	Al	0.129778	0.906029	0.343896
	Al8373	Al	0.379579	0.968519	0.281200
	Al8374	Al	0.129641	0.968524	0.281254
	Al8375	Al	0.379481	0.906039	0.343828
	C8376	C	0.093510	0.994927	0.249076
	C8377	C	0.343681	0.932408	0.311653
	C8378	C	0.096161	0.878682	0.370599
	C8379	C	0.346125	0.941141	0.308001
	C8380	C	0.413029	0.933409	0.370492
	C8381	C	0.162953	0.995874	0.307957
	C8382	C	0.415229	0.942138	0.249021
	C8383	C	0.165443	0.879634	0.311793
	C8384	C	0.415525	0.879649	0.375874
	C8385	C	0.165309	0.942134	0.313455
	C8386	C	0.413010	0.995885	0.254674
	C8387	C	0.162831	0.933405	0.317110
	C8388	C	0.096067	0.941177	0.254502
	C8389	C	0.346333	0.878655	0.317090
	C8390	C	0.093662	0.932442	0.375881
	C8391	C	0.343810	0.994901	0.313474
	C8392	C	0.001928	0.990934	0.253730
	C8393	C	0.251939	0.928431	0.316265
	C8394	C	0.006961	0.883643	0.371384
	C8395	C	0.257036	0.946112	0.308799
	C8396	C	0.002011	0.928438	0.371354
	C8397	C	0.252162	0.990914	0.308825
	C8398	C	0.006938	0.946145	0.253604
	C8399	C	0.257202	0.883620	0.316349
	C8400	C	0.000813	0.981670	0.259963
	C8401	C	0.250664	0.919178	0.322571
	C8402	C	0.008557	0.892909	0.365169
	C8403	C	0.258430	0.955374	0.302520
	C8404	C	0.000820	0.919176	0.365112
	C8405	C	0.250987	0.981653	0.302584
	C8406	C	0.008216	0.955407	0.259824
	C8407	C	0.258549	0.892883	0.322600
	H8408	H	0.162926	0.991164	0.248236
	H8409	H	0.412938	0.928619	0.310892
	H8410	H	0.167364	0.881676	0.367050
	H8411	H	0.417384	0.944134	0.304401
	H8412	H	0.341833	0.930412	0.366881
	H8413	H	0.091745	0.992875	0.304350
	H8414	H	0.346079	0.945926	0.248143
	H8415	H	0.096211	0.883419	0.311060
	H8416	H	0.346224	0.883419	0.376557
	H8417	H	0.096093	0.945903	0.314284
	H8418	H	0.341871	0.992891	0.258373
	H8419	H	0.091596	0.930424	0.320744
	H8420	H	0.167319	0.944169	0.258119
	H8421	H	0.417593	0.881647	0.320630
	H8422	H	0.163025	0.928674	0.376696
	H8423	H	0.413156	0.991134	0.314313
	O8424	O	0.585597	0.977747	0.261399
	O8425	O	0.835248	0.915271	0.323860
	O8426	O	0.593861	0.896190	0.361335
	O8427	O	0.843398	0.958659	0.298809
	O8428	O	0.915467	0.915870	0.361318
	O8429	O	0.665132	0.978351	0.298864
	O8430	O	0.923574	0.959335	0.261257
	O8431	O	0.673518	0.896814	0.323919
	O8432	O	0.923886	0.896847	0.363725
	O8433	O	0.673481	0.959310	0.301128
	O8434	O	0.915550	0.978365	0.263713
	O8435	O	0.665316	0.915873	0.326263
	O8436	O	0.593672	0.958666	0.263741
	O8437	O	0.843481	0.896179	0.326171
	O8438	O	0.585595	0.915237	0.363691
	O8439	O	0.835223	0.977777	0.301072
	F8440	F	0.504433	0.906025	0.327916
	F8441	F	0.754598	0.968530	0.265414
	F8442	F	0.504525	0.968517	0.297105
	F8443	F	0.754780	0.906026	0.359618
	Al8444	Al	0.629695	0.906030	0.343759
	Al8445	Al	0.879790	0.968523	0.281285
	Al8446	Al	0.629618	0.968516	0.281265
	Al8447	Al	0.879955	0.906042	0.343692
	C8448	C	0.593745	0.994905	0.249073
	C8449	C	0.843265	0.932412	0.311484
	C8450	C	0.596400	0.878683	0.370573
	C8451	C	0.845715	0.941150	0.307868
	C8452	C	0.912857	0.933410	0.370438
	C8453	C	0.662478	0.995891	0.307864
	C8454	C	0.915230	0.942158	0.248953
	C8455	C	0.665051	0.879647	0.311625
	C8456	C	0.915222	0.879671	0.376084
	C8457	C	0.664936	0.942129	0.313403
	C8458	C	0.912725	0.995896	0.254680
	C8459	C	0.662493	0.933398	0.316997
	C8460	C	0.596031	0.941143	0.254623
	C8461	C	0.845807	0.878650	0.317060
	C8462	C	0.593912	0.932417	0.376047
	C8463	C	0.843181	0.994901	0.313537
	C8464	C	0.502082	0.990916	0.253713
	C8465	C	0.751625	0.928429	0.316125
	C8466	C	0.507273	0.883640	0.371378
	C8467	C	0.756596	0.946118	0.308812
	C8468	C	0.502205	0.928440	0.371369
	C8469	C	0.751501	0.990924	0.308830
	C8470	C	0.506994	0.946107	0.253727
	C8471	C	0.756742	0.883624	0.316238
	C8472	C	0.500802	0.981654	0.259941
	C8473	C	0.750458	0.919175	0.322422
	C8474	C	0.508581	0.892899	0.365077
	C8475	C	0.758065	0.955381	0.302607
	C8476	C	0.500938	0.919172	0.365093
	C8477	C	0.750341	0.981665	0.302600
	C8478	C	0.508406	0.955375	0.259947
	C8479	C	0.758186	0.892891	0.322441
	H8480	H	0.663058	0.991133	0.248228
	H8481	H	0.912482	0.928639	0.310657
	H8482	H	0.667613	0.881674	0.367002
	H8483	H	0.916832	0.944146	0.304232
	H8484	H	0.841654	0.930414	0.366819
	H8485	H	0.591206	0.992911	0.304197
	H8486	H	0.845907	0.945922	0.248129
	H8487	H	0.595806	0.883427	0.310790
	H8488	H	0.846025	0.883454	0.376924
	H8489	H	0.595584	0.945903	0.314246
	H8490	H	0.841576	0.992897	0.258318
	H8491	H	0.591280	0.930408	0.320640
	H8492	H	0.667325	0.944110	0.258281
	H8493	H	0.917018	0.881648	0.320644
	H8494	H	0.663190	0.928633	0.376903
	H8495	H	0.912415	0.991124	0.314459
	O8496	O	0.085405	0.977746	0.386334
	O8497	O	0.335401	0.915246	0.448919
	O8498	O	0.093962	0.896185	0.486229
	O8499	O	0.343798	0.958656	0.423582
	O8500	O	0.415396	0.915890	0.486196
	O8501	O	0.165421	0.978372	0.423749
	O8502	O	0.424011	0.959338	0.386248
	O8503	O	0.173902	0.896804	0.449057
	O8504	O	0.423901	0.896817	0.488712
	O8505	O	0.173893	0.959302	0.425944
	O8506	O	0.415602	0.978397	0.388840
	O8507	O	0.165537	0.915910	0.451480
	O8508	O	0.093470	0.958709	0.388627
	O8509	O	0.343876	0.896175	0.451350
	O8510	O	0.085174	0.915255	0.488639
	O8511	O	0.335380	0.977743	0.426083
	F8512	F	0.004886	0.906024	0.452753
	F8513	F	0.254525	0.968542	0.390270
	F8514	F	0.004785	0.968528	0.422233
	F8515	F	0.254595	0.906037	0.484737
	Al8516	Al	0.129633	0.906046	0.468802
	Al8517	Al	0.379581	0.968523	0.406198
	Al8518	Al	0.129535	0.968534	0.406198
	Al8519	Al	0.379603	0.906032	0.468790
	C8520	C	0.093562	0.994920	0.374031
	C8521	C	0.343832	0.932418	0.436638
	C8522	C	0.096399	0.878684	0.495596
	C8523	C	0.346237	0.941144	0.432962
	C8524	C	0.412876	0.933409	0.495506
	C8525	C	0.162894	0.995883	0.433000
	C8526	C	0.415476	0.942149	0.374109
	C8527	C	0.165476	0.879652	0.436717
	C8528	C	0.415572	0.879649	0.500897
	C8529	C	0.165405	0.942149	0.438444
	C8530	C	0.413175	0.995889	0.379599
	C8531	C	0.163010	0.933412	0.442135
	C8532	C	0.096094	0.941187	0.379456
	C8533	C	0.346384	0.878647	0.442181
	C8534	C	0.093429	0.932428	0.500930
	C8535	C	0.343683	0.994910	0.438369
	C8536	C	0.001911	0.990930	0.378685
	C8537	C	0.252132	0.928441	0.441316
	C8538	C	0.007269	0.883653	0.496387
	C8539	C	0.257142	0.946119	0.433739
	C8540	C	0.001737	0.928447	0.496253
	C8541	C	0.252023	0.990924	0.433768
	C8542	C	0.006958	0.946151	0.378571
	C8543	C	0.257296	0.883621	0.441320
	C8544	C	0.000718	0.981664	0.384898
	C8545	C	0.250808	0.919182	0.447571
	C8546	C	0.008645	0.892909	0.490087
	C8547	C	0.258518	0.955376	0.427424
	C8548	C	0.000497	0.919180	0.490015
	C8549	C	0.250694	0.981664	0.427512
	C8550	C	0.008267	0.955403	0.384902
	C8551	C	0.258620	0.892884	0.447580
	H8552	H	0.162891	0.991150	0.373143
	H8553	H	0.413151	0.928651	0.435821
	H8554	H	0.167641	0.881674	0.491996
	H8555	H	0.417602	0.944119	0.429374
	H8556	H	0.341531	0.930428	0.491931
	H8557	H	0.091608	0.992888	0.429451
	H8558	H	0.346244	0.945928	0.373237
	H8559	H	0.096196	0.883436	0.435931
	H8560	H	0.346337	0.883428	0.501687
	H8561	H	0.096270	0.945945	0.439256
	H8562	H	0.341939	0.992904	0.383151
	H8563	H	0.091797	0.930409	0.445778
	H8564	H	0.167327	0.944180	0.383058
	H8565	H	0.417662	0.881629	0.445813
	H8566	H	0.162704	0.928643	0.501804
	H8567	H	0.412903	0.991136	0.439162
	O8568	O	0.585510	0.977722	0.386324
	O8569	O	0.835225	0.915263	0.448771
	O8570	O	0.593831	0.896201	0.486360
	O8571	O	0.843450	0.958669	0.423912
	O8572	O	0.915256	0.915886	0.486185
	O8573	O	0.664929	0.978375	0.423818
	O8574	O	0.923533	0.959325	0.386377
	O8575	O	0.673458	0.896803	0.448964
	O8576	O	0.924016	0.896840	0.488616
	O8577	O	0.673546	0.959333	0.426289
	O8578	O	0.915404	0.978355	0.388756
	O8579	O	0.665295	0.915881	0.451223
	O8580	O	0.593895	0.958665	0.388852
	O8581	O	0.843480	0.896167	0.451206
	O8582	O	0.585376	0.915256	0.488613
	O8583	O	0.834897	0.977748	0.426260
	F8584	F	0.504538	0.906020	0.452872
	F8585	F	0.754630	0.968523	0.390527
	F8586	F	0.504336	0.968523	0.422176
	F8587	F	0.754836	0.906040	0.484569
	Al8588	Al	0.629549	0.906038	0.468779
	Al8589	Al	0.879736	0.968528	0.406384
	Al8590	Al	0.629395	0.968523	0.406337
	Al8591	Al	0.879898	0.906035	0.468606
	C8592	C	0.594012	0.994915	0.374135
	C8593	C	0.843396	0.932423	0.436533
	C8594	C	0.596440	0.878664	0.495457
	C8595	C	0.845723	0.941154	0.432969
	C8596	C	0.912552	0.933425	0.495372
	C8597	C	0.662392	0.995883	0.433092
	C8598	C	0.915259	0.942156	0.374023
	C8599	C	0.665054	0.879636	0.436645
	C8600	C	0.915459	0.879681	0.501042
	C8601	C	0.664918	0.942142	0.438457
	C8602	C	0.912642	0.995893	0.379542
	C8603	C	0.662508	0.933399	0.442023
	C8604	C	0.596307	0.941157	0.379654
	C8605	C	0.846000	0.878665	0.442051
	C8606	C	0.593702	0.932418	0.500942
	C8607	C	0.843168	0.994895	0.438534
	C8608	C	0.502359	0.990928	0.378787
	C8609	C	0.751690	0.928440	0.441164
	C8610	C	0.507326	0.883629	0.496301
	C8611	C	0.756638	0.946124	0.433876
	C8612	C	0.502003	0.928438	0.496317
	C8613	C	0.751522	0.990919	0.433898
	C8614	C	0.507183	0.946123	0.378799
	C8615	C	0.756830	0.883624	0.441196
	C8616	C	0.500958	0.981671	0.385013
	C8617	C	0.750486	0.919176	0.447379
	C8618	C	0.508615	0.892898	0.490119
	C8619	C	0.758124	0.955395	0.427723
	C8620	C	0.500678	0.919175	0.490032
	C8621	C	0.750164	0.981664	0.427647
	C8622	C	0.508603	0.955393	0.384949
	C8623	C	0.758156	0.892884	0.447445
	H8624	H	0.663339	0.991149	0.373286
	H8625	H	0.912788	0.928656	0.435693
	H8626	H	0.667727	0.881654	0.491884
	H8627	H	0.916974	0.944134	0.429393
	H8628	H	0.841303	0.930434	0.491740
	H8629	H	0.591190	0.992886	0.429559
	H8630	H	0.845915	0.945920	0.373258
	H8631	H	0.595733	0.883404	0.435865
	H8632	H	0.846193	0.883461	0.501791
	H8633	H	0.595726	0.945929	0.439286
	H8634	H	0.841473	0.992889	0.383146
	H8635	H	0.591299	0.930390	0.445614
	H8636	H	0.667609	0.944140	0.383236
	H8637	H	0.917310	0.881654	0.445630
	H8638	H	0.663085	0.928648	0.501773
	H8639	H	0.912487	0.991126	0.439375
	O8640	O	0.085476	0.977772	0.511582
	O8641	O	0.335489	0.915266	0.573994
	O8642	O	0.093712	0.896169	0.611165
	O8643	O	0.343695	0.958656	0.548616
	O8644	O	0.415401	0.915873	0.611422
	O8645	O	0.165610	0.978362	0.548880
	O8646	O	0.423861	0.959325	0.511310
	O8647	O	0.173901	0.896825	0.573784
	O8648	O	0.423449	0.896794	0.613633
	O8649	O	0.173828	0.959333	0.551292
	O8650	O	0.415292	0.978355	0.513548
	O8651	O	0.165474	0.915876	0.576214
	O8652	O	0.093554	0.958682	0.513852
	O8653	O	0.343793	0.896177	0.576324
	O8654	O	0.085532	0.915278	0.613426
	O8655	O	0.335571	0.977767	0.551045
	F8656	F	0.004700	0.906026	0.577738
	F8657	F	0.254544	0.968536	0.515374
	F8658	F	0.004764	0.968547	0.547319
	F8659	F	0.254534	0.906040	0.609673
	Al8660	Al	0.129698	0.906027	0.593704
	Al8661	Al	0.379599	0.968529	0.531208
	Al8662	Al	0.129680	0.968531	0.531348
	Al8663	Al	0.379690	0.906032	0.593829
	C8664	C	0.093546	0.994929	0.499146
	C8665	C	0.343801	0.932414	0.561581
	C8666	C	0.096005	0.878664	0.620439
	C8667	C	0.346181	0.941145	0.557941
	C8668	C	0.413015	0.933408	0.620381
	C8669	C	0.163029	0.995892	0.557986
	C8670	C	0.415450	0.942153	0.499126
	C8671	C	0.165494	0.879624	0.561727
	C8672	C	0.415363	0.879643	0.626040
	C8673	C	0.165391	0.942137	0.563431
	C8674	C	0.412800	0.995904	0.504637
	C8675	C	0.162987	0.933396	0.567062
	C8676	C	0.095917	0.941165	0.504534
	C8677	C	0.346278	0.878658	0.567114
	C8678	C	0.093670	0.932445	0.625941
	C8679	C	0.343869	0.994928	0.563480
	C8680	C	0.001889	0.990948	0.503816
	C8681	C	0.252093	0.928429	0.566204
	C8682	C	0.006923	0.883634	0.621309
	C8683	C	0.257079	0.946121	0.558841
	C8684	C	0.002049	0.928460	0.621203
	C8685	C	0.252184	0.990933	0.558894
	C8686	C	0.006844	0.946138	0.503658
	C8687	C	0.257198	0.883625	0.566272
	C8688	C	0.000745	0.981686	0.510091
	C8689	C	0.250740	0.919172	0.572472
	C8690	C	0.008334	0.892896	0.615063
	C8691	C	0.258417	0.955387	0.552600
	C8692	C	0.000785	0.919194	0.614971
	C8693	C	0.250833	0.981670	0.552614
	C8694	C	0.008251	0.955395	0.510000
	C8695	C	0.258518	0.892892	0.572445
	H8696	H	0.162846	0.991157	0.498308
	H8697	H	0.413089	0.928639	0.560759
	H8698	H	0.167298	0.881646	0.616813
	H8699	H	0.417431	0.944131	0.554304
	H8700	H	0.341784	0.930416	0.616743
	H8701	H	0.091848	0.992895	0.554345
	H8702	H	0.346172	0.945926	0.498363
	H8703	H	0.096133	0.883386	0.560938
	H8704	H	0.345932	0.883400	0.626813
	H8705	H	0.096100	0.945903	0.564239
	H8706	H	0.341560	0.992931	0.508272
	H8707	H	0.091726	0.930407	0.570668
	H8708	H	0.167175	0.944149	0.508203
	H8709	H	0.417645	0.881629	0.570666
	H8710	H	0.162985	0.928669	0.626855
	H8711	H	0.413227	0.991158	0.564248
	O8712	O	0.585290	0.977744	0.511382
	O8713	O	0.834976	0.915237	0.573826
	O8714	O	0.593548	0.896200	0.611489
	O8715	O	0.843223	0.958656	0.548842
	O8716	O	0.915512	0.915898	0.611210
	O8717	O	0.665121	0.978399	0.548625
	O8718	O	0.923685	0.959327	0.511408
	O8719	O	0.673485	0.896787	0.574125
	O8720	O	0.923791	0.896841	0.613774
	O8721	O	0.673272	0.959308	0.551201
	O8722	O	0.915443	0.978369	0.513793
	O8723	O	0.665153	0.915881	0.576354
	O8724	O	0.593798	0.958682	0.513795
	O8725	O	0.843395	0.896149	0.576351
	O8726	O	0.585469	0.915242	0.613762
	O8727	O	0.834972	0.977729	0.551285
	F8728	F	0.504770	0.906044	0.577976
	F8729	F	0.754820	0.968524	0.515440
	F8730	F	0.504438	0.968541	0.547097
	F8731	F	0.754916	0.906043	0.609725
	Al8732	Al	0.629797	0.906031	0.593897
	Al8733	Al	0.879859	0.968527	0.531420
	Al8734	Al	0.629588	0.968534	0.531222
	Al8735	Al	0.879882	0.906038	0.593721
	C8736	C	0.593488	0.994896	0.499006
	C8737	C	0.843338	0.932410	0.561573
	C8738	C	0.596184	0.878668	0.620610
	C8739	C	0.845732	0.941139	0.557964
	C8740	C	0.912766	0.933427	0.620406
	C8741	C	0.662464	0.995892	0.558000
	C8742	C	0.915053	0.942163	0.498979
	C8743	C	0.664992	0.879633	0.561646
	C8744	C	0.915183	0.879650	0.625954
	C8745	C	0.664910	0.942130	0.563475
	C8746	C	0.912654	0.995915	0.504621
	C8747	C	0.662480	0.933391	0.567100
	C8748	C	0.596264	0.941156	0.504571
	C8749	C	0.845853	0.878641	0.567036
	C8750	C	0.593792	0.932409	0.626053
	C8751	C	0.843281	0.994916	0.563575
	C8752	C	0.501830	0.990924	0.503684
	C8753	C	0.751616	0.928428	0.566211
	C8754	C	0.507060	0.883632	0.621471
	C8755	C	0.756572	0.946112	0.558834
	C8756	C	0.502105	0.928433	0.621358
	C8757	C	0.751662	0.990933	0.558833
	C8758	C	0.507175	0.946139	0.503678
	C8759	C	0.756717	0.883611	0.566240
	C8760	C	0.500565	0.981657	0.509856
	C8761	C	0.750348	0.919167	0.572465
	C8762	C	0.508265	0.892895	0.615203
	C8763	C	0.757918	0.955377	0.552650
	C8764	C	0.500742	0.919166	0.615178
	C8765	C	0.750385	0.981675	0.552558
	C8766	C	0.508535	0.955398	0.509936
	C8767	C	0.758113	0.892863	0.572574
	H8768	H	0.662783	0.991123	0.498106
	H8769	H	0.912578	0.928636	0.560769
	H8770	H	0.667469	0.881653	0.617032
	H8771	H	0.916970	0.944133	0.554361
	H8772	H	0.841524	0.930429	0.616817
	H8773	H	0.591278	0.992909	0.554355
	H8774	H	0.845824	0.945944	0.498155
	H8775	H	0.595692	0.883406	0.560839
	H8776	H	0.845890	0.883426	0.626768
	H8777	H	0.595641	0.945913	0.564343
	H8778	H	0.841402	0.992916	0.508155
	H8779	H	0.591222	0.930399	0.570720
	H8780	H	0.667443	0.944147	0.508205
	H8781	H	0.917113	0.881623	0.570656
	H8782	H	0.663093	0.928632	0.626941
	H8783	H	0.912623	0.991149	0.564466
	O8784	O	0.085562	0.977765	0.636650
	O8785	O	0.335560	0.915257	0.698988
	O8786	O	0.093689	0.896184	0.736316
	O8787	O	0.343593	0.958697	0.673807
	O8788	O	0.415640	0.915877	0.736301
	O8789	O	0.165497	0.978380	0.673886
	O8790	O	0.423615	0.959301	0.636453
	O8791	O	0.173596	0.896784	0.699100
	O8792	O	0.423604	0.896793	0.738640
	O8793	O	0.173650	0.959288	0.676163
	O8794	O	0.415505	0.978388	0.638789
	O8795	O	0.165598	0.915882	0.701254
	O8796	O	0.093678	0.958687	0.638848
	O8797	O	0.343509	0.896193	0.701300
	O8798	O	0.085568	0.915267	0.738575
	O8799	O	0.335542	0.977761	0.676154
	F8800	F	0.004863	0.906041	0.702818
	F8801	F	0.254592	0.968546	0.640408
	F8802	F	0.004712	0.968525	0.672314
	F8803	F	0.254642	0.906051	0.734779
	Al8804	Al	0.129770	0.906042	0.718783
	Al8805	Al	0.379651	0.968541	0.656278
	Al8806	Al	0.129754	0.968530	0.656390
	Al8807	Al	0.379659	0.906030	0.718845
	C8808	C	0.093721	0.994917	0.624143
	C8809	C	0.343809	0.932412	0.686495
	C8810	C	0.096104	0.878664	0.745491
	C8811	C	0.346308	0.941154	0.682908
	C8812	C	0.413068	0.933403	0.745462
	C8813	C	0.162886	0.995895	0.682965
	C8814	C	0.415399	0.942148	0.623986
	C8815	C	0.165460	0.879617	0.686702
	C8816	C	0.415476	0.879624	0.750948
	C8817	C	0.165494	0.942134	0.688524
	C8818	C	0.413069	0.995901	0.629684
	C8819	C	0.163012	0.933404	0.692104
	C8820	C	0.096008	0.941181	0.629618
	C8821	C	0.346225	0.878652	0.692073
	C8822	C	0.093752	0.932443	0.750903
	C8823	C	0.343686	0.994919	0.688495
	C8824	C	0.002088	0.990931	0.628765
	C8825	C	0.252107	0.928434	0.691176
	C8826	C	0.007010	0.883638	0.746383
	C8827	C	0.257155	0.946117	0.683822
	C8828	C	0.002143	0.928454	0.746222
	C8829	C	0.252025	0.990931	0.683886
	C8830	C	0.006895	0.946147	0.628701
	C8831	C	0.257066	0.883617	0.691285
	C8832	C	0.000828	0.981677	0.635076
	C8833	C	0.250872	0.919176	0.697482
	C8834	C	0.008425	0.892898	0.740117
	C8835	C	0.258429	0.955385	0.677607
	C8836	C	0.000904	0.919187	0.740043
	C8837	C	0.250795	0.981671	0.677667
	C8838	C	0.008315	0.955409	0.634936
	C8839	C	0.258313	0.892880	0.697561
	H8840	H	0.163034	0.991142	0.623337
	H8841	H	0.412972	0.928634	0.685640
	H8842	H	0.167379	0.881650	0.741875
	H8843	H	0.417396	0.944160	0.679306
	H8844	H	0.341872	0.930409	0.741798
	H8845	H	0.091674	0.992907	0.679312
	H8846	H	0.346067	0.945914	0.623110
	H8847	H	0.096046	0.883378	0.685922
	H8848	H	0.346107	0.883389	0.751774
	H8849	H	0.096204	0.945904	0.689425
	H8850	H	0.341864	0.992916	0.633308
	H8851	H	0.091694	0.930420	0.695761
	H8852	H	0.167228	0.944171	0.633303
	H8853	H	0.417510	0.881644	0.695653
	H8854	H	0.163154	0.928676	0.751797
	H8855	H	0.413012	0.991152	0.689305
	O8856	O	0.585417	0.977733	0.636370
	O8857	O	0.835323	0.915267	0.698857
	O8858	O	0.593591	0.896196	0.736382
	O8859	O	0.843205	0.958663	0.673773
	O8860	O	0.915537	0.915888	0.736268
	O8861	O	0.665091	0.978386	0.673807
	O8862	O	0.923754	0.959338	0.636359
	O8863	O	0.673463	0.896799	0.698986
	O8864	O	0.923758	0.896837	0.738697
	O8865	O	0.673293	0.959284	0.676039
	O8866	O	0.915452	0.978381	0.638750
	O8867	O	0.665325	0.915861	0.701204
	O8868	O	0.593585	0.958692	0.638692
	O8869	O	0.843500	0.896159	0.701272
	O8870	O	0.585558	0.915252	0.738656
	O8871	O	0.835105	0.977776	0.676193
	F8872	F	0.504534	0.906030	0.702934
	F8873	F	0.754698	0.968574	0.640436
	F8874	F	0.504568	0.968526	0.672194
	F8875	F	0.754903	0.906040	0.734629
	Al8876	Al	0.629685	0.906036	0.718774
	Al8877	Al	0.879908	0.968553	0.656368
	Al8878	Al	0.629589	0.968533	0.656273
	Al8879	Al	0.879976	0.906043	0.718709
	C8880	C	0.593821	0.994914	0.624120
	C8881	C	0.843457	0.932406	0.686561
	C8882	C	0.596420	0.878663	0.745559
	C8883	C	0.845841	0.941144	0.682967
	C8884	C	0.912856	0.933420	0.745327
	C8885	C	0.662528	0.995913	0.682892
	C8886	C	0.915129	0.942163	0.624052
	C8887	C	0.665063	0.879649	0.686545
	C8888	C	0.915348	0.879651	0.751006
	C8889	C	0.664963	0.942120	0.688506
	C8890	C	0.912971	0.995905	0.629665
	C8891	C	0.662577	0.933389	0.692125
	C8892	C	0.596107	0.941151	0.629667
	C8893	C	0.845711	0.878651	0.692166
	C8894	C	0.593887	0.932421	0.751083
	C8895	C	0.843411	0.994909	0.688447
	C8896	C	0.502158	0.990929	0.628749
	C8897	C	0.751703	0.928428	0.691206
	C8898	C	0.507145	0.883623	0.746354
	C8899	C	0.756661	0.946106	0.683846
	C8900	C	0.502196	0.928433	0.746400
	C8901	C	0.751634	0.990943	0.683799
	C8902	C	0.507085	0.946128	0.628664
	C8903	C	0.756764	0.883628	0.691202
	C8904	C	0.500821	0.981664	0.634943
	C8905	C	0.750513	0.919170	0.697435
	C8906	C	0.508362	0.892887	0.740144
	C8907	C	0.757955	0.955366	0.677557
	C8908	C	0.500889	0.919174	0.740084
	C8909	C	0.750343	0.981681	0.677611
	C8910	C	0.508345	0.955388	0.634942
	C8911	C	0.758158	0.892884	0.697458
	H8912	H	0.663106	0.991139	0.623245
	H8913	H	0.912679	0.928622	0.685728
	H8914	H	0.667601	0.881674	0.741999
	H8915	H	0.916960	0.944147	0.679317
	H8916	H	0.841694	0.930421	0.741682
	H8917	H	0.591258	0.992931	0.679259
	H8918	H	0.845837	0.945940	0.623265
	H8919	H	0.595786	0.883424	0.685693
	H8920	H	0.845990	0.883421	0.751832
	H8921	H	0.595650	0.945891	0.689373
	H8922	H	0.841763	0.992911	0.633303
	H8923	H	0.591346	0.930406	0.695772
	H8924	H	0.667307	0.944134	0.633373
	H8925	H	0.917045	0.881619	0.695838
	H8926	H	0.663267	0.928650	0.751939
	H8927	H	0.912634	0.991127	0.689308
	O8928	O	0.085436	0.977753	0.761452
	O8929	O	0.335530	0.915267	0.824023
	O8930	O	0.093855	0.896191	0.861312
	O8931	O	0.343741	0.958674	0.798626
	O8932	O	0.415717	0.915860	0.861392
	O8933	O	0.165450	0.978386	0.798742
	O8934	O	0.423734	0.959325	0.761312
	O8935	O	0.173817	0.896816	0.823993
	O8936	O	0.423889	0.896829	0.863652
	O8937	O	0.173832	0.959309	0.801080
	O8938	O	0.415532	0.978386	0.763809
	O8939	O	0.165597	0.915912	0.826409
	O8940	O	0.093453	0.958693	0.763786
	O8941	O	0.343761	0.896186	0.826326
	O8942	O	0.085390	0.915264	0.863657
	O8943	O	0.335393	0.977729	0.801145
	F8944	F	0.004823	0.906051	0.827814
	F8945	F	0.254522	0.968533	0.765331
	F8946	F	0.004864	0.968530	0.797270
	F8947	F	0.254744	0.906031	0.859746
	Al8948	Al	0.129771	0.906040	0.843851
	Al8949	Al	0.379646	0.968521	0.781211
	Al8950	Al	0.129717	0.968533	0.781286
	Al8951	Al	0.379650	0.906035	0.843802
	C8952	C	0.093574	0.994930	0.749115
	C8953	C	0.343833	0.932427	0.811499
	C8954	C	0.095930	0.878687	0.870564
	C8955	C	0.346108	0.941156	0.807830
	C8956	C	0.412941	0.933396	0.870400
	C8957	C	0.162864	0.995886	0.807871
	C8958	C	0.415432	0.942145	0.749051
	C8959	C	0.165366	0.879640	0.811750
	C8960	C	0.415511	0.879651	0.875942
	C8961	C	0.165319	0.942148	0.813435
	C8962	C	0.412985	0.995896	0.754620
	C8963	C	0.163016	0.933412	0.817101
	C8964	C	0.096079	0.941185	0.754531
	C8965	C	0.346214	0.878664	0.817155
	C8966	C	0.093606	0.932442	0.875913
	C8967	C	0.343791	0.994902	0.813455
	C8968	C	0.001923	0.990935	0.753742
	C8969	C	0.252207	0.928450	0.816260
	C8970	C	0.006885	0.883654	0.871409
	C8971	C	0.257037	0.946128	0.808763
	C8972	C	0.001903	0.928457	0.871208
	C8973	C	0.252056	0.990927	0.808781
	C8974	C	0.006881	0.946140	0.753679
	C8975	C	0.257048	0.883623	0.816411
	C8976	C	0.000730	0.981670	0.759984
	C8977	C	0.250897	0.919196	0.822570
	C8978	C	0.008535	0.892904	0.865089
	C8979	C	0.258493	0.955389	0.802501
	C8980	C	0.000606	0.919183	0.865093
	C8981	C	0.250811	0.981664	0.802544
	C8982	C	0.008239	0.955394	0.759980
	C8983	C	0.258461	0.892888	0.822595
	H8984	H	0.162799	0.991148	0.748284
	H8985	H	0.413137	0.928655	0.810628
	H8986	H	0.167157	0.881673	0.866951
	H8987	H	0.417311	0.944142	0.804164
	H8988	H	0.341720	0.930414	0.866764
	H8989	H	0.091681	0.992888	0.804198
	H8990	H	0.346149	0.945919	0.748185
	H8991	H	0.096048	0.883410	0.810921
	H8992	H	0.346239	0.883422	0.876769
	H8993	H	0.095992	0.945922	0.814265
	H8994	H	0.341800	0.992904	0.758242
	H8995	H	0.091803	0.930414	0.820753
	H8996	H	0.167304	0.944174	0.758193
	H8997	H	0.417583	0.881653	0.820665
	H8998	H	0.162917	0.928661	0.876839
	H8999	H	0.412974	0.991112	0.814287
	O9000	O	0.585525	0.977750	0.761417
	O9001	O	0.835472	0.915264	0.823832
	O9002	O	0.593823	0.896178	0.861285
	O9003	O	0.843196	0.958659	0.798938
	O9004	O	0.915363	0.915885	0.861284
	O9005	O	0.665247	0.978370	0.798855
	O9006	O	0.923468	0.959303	0.761493
	O9007	O	0.673596	0.896822	0.823818
	O9008	O	0.923918	0.896840	0.863642
	O9009	O	0.673187	0.959290	0.801147
	O9010	O	0.915449	0.978357	0.763773
	O9011	O	0.665559	0.915859	0.826185
	O9012	O	0.593654	0.958685	0.763725
	O9013	O	0.843500	0.896157	0.826329
	O9014	O	0.585772	0.915279	0.863476
	O9015	O	0.835235	0.977756	0.801244
	F9016	F	0.504644	0.906030	0.827839
	F9017	F	0.754733	0.968528	0.765481
	F9018	F	0.504483	0.968531	0.797165
	F9019	F	0.754719	0.906020	0.859564
	Al9020	Al	0.629758	0.906031	0.843713
	Al9021	Al	0.879886	0.968531	0.781427
	Al9022	Al	0.629587	0.968530	0.781278
	Al9023	Al	0.880003	0.906049	0.843679
	C9024	C	0.593754	0.994915	0.749050
	C9025	C	0.843499	0.932426	0.811486
	C9026	C	0.596412	0.878674	0.870570
	C9027	C	0.845729	0.941158	0.807918
	C9028	C	0.912717	0.933435	0.870240
	C9029	C	0.662535	0.995892	0.808002
	C9030	C	0.915203	0.942159	0.748957
	C9031	C	0.665182	0.879649	0.811517
	C9032	C	0.915069	0.879670	0.875934
	C9033	C	0.664918	0.942130	0.813588
	C9034	C	0.912758	0.995903	0.754696
	C9035	C	0.662697	0.933389	0.817167
	C9036	C	0.596212	0.941163	0.754682
	C9037	C	0.845958	0.878655	0.817055
	C9038	C	0.593744	0.932415	0.876052
	C9039	C	0.843325	0.994903	0.813669
	C9040	C	0.502084	0.990929	0.753717
	C9041	C	0.751914	0.928430	0.816155
	C9042	C	0.507156	0.883636	0.871325
	C9043	C	0.756508	0.946116	0.808881
	C9044	C	0.502092	0.928426	0.871317
	C9045	C	0.751671	0.990926	0.808965
	C9046	C	0.507061	0.946125	0.753780
	C9047	C	0.756852	0.883627	0.816167
	C9048	C	0.500812	0.981670	0.759965
	C9049	C	0.750723	0.919170	0.822400
	C9050	C	0.508485	0.892898	0.865082
	C9051	C	0.757869	0.955372	0.802644
	C9052	C	0.500955	0.919173	0.865044
	C9053	C	0.750448	0.981666	0.802691
	C9054	C	0.508371	0.955387	0.760009
	C9055	C	0.758187	0.892886	0.822437
	H9056	H	0.662982	0.991136	0.748177
	H9057	H	0.912878	0.928667	0.810574
	H9058	H	0.667594	0.881681	0.867034
	H9059	H	0.916871	0.944159	0.804263
	H9060	H	0.841480	0.930450	0.866595
	H9061	H	0.591415	0.992885	0.804344
	H9062	H	0.845880	0.945930	0.748090
	H9063	H	0.595861	0.883420	0.810654
	H9064	H	0.845756	0.883442	0.876629
	H9065	H	0.595612	0.945903	0.814507
	H9066	H	0.841596	0.992904	0.758357
	H9067	H	0.591649	0.930383	0.820871
	H9068	H	0.667450	0.944152	0.758302
	H9069	H	0.917222	0.881637	0.820685
	H9070	H	0.663097	0.928648	0.876938
	H9071	H	0.912654	0.991130	0.814562
	O9072	O	0.085339	0.977754	0.886303
	O9073	O	0.335303	0.915242	0.948764
	O9074	O	0.093719	0.896203	0.986390
	O9075	O	0.343624	0.958677	0.923721
	O9076	O	0.415512	0.915909	0.986002
	O9077	O	0.165453	0.978372	0.923745
	O9078	O	0.423625	0.959302	0.886391
	O9079	O	0.173624	0.896794	0.949045
	O9080	O	0.423977	0.896805	0.988416
	O9081	O	0.173646	0.959305	0.926015
	O9082	O	0.415187	0.978368	0.888717
	O9083	O	0.165463	0.915892	0.951323
	O9084	O	0.093411	0.958702	0.888693
	O9085	O	0.343617	0.896179	0.951247
	O9086	O	0.085265	0.915260	0.988629
	O9087	O	0.335355	0.977751	0.926048
	F9088	F	0.004865	0.906047	0.952848
	F9089	F	0.254563	0.968521	0.890303
	F9090	F	0.004663	0.968534	0.922112
	F9091	F	0.254830	0.906047	0.984678
	Al9092	Al	0.129791	0.906037	0.968838
	Al9093	Al	0.379452	0.968527	0.906203
	Al9094	Al	0.129600	0.968540	0.906168
	Al9095	Al	0.379670	0.906032	0.968633
	C9096	C	0.093488	0.994926	0.874004
	C9097	C	0.343748	0.932423	0.936464
	C9098	C	0.096290	0.878699	0.995514
	C9099	C	0.346178	0.941157	0.932843
	C9100	C	0.413039	0.933397	0.995335
	C9101	C	0.162882	0.995901	0.932972
	C9102	C	0.415415	0.942140	0.874014
	C9103	C	0.165367	0.879633	0.936623
	C9104	C	0.415576	0.879667	1.000906
	C9105	C	0.165336	0.942143	0.938412
	C9106	C	0.412687	0.995907	0.879644
	C9107	C	0.162930	0.933411	0.942053
	C9108	C	0.096046	0.941180	0.879493
	C9109	C	0.346338	0.878669	0.941928
	C9110	C	0.093522	0.932427	1.000927
	C9111	C	0.343685	0.994900	0.938518
	C9112	C	0.001857	0.990943	0.878689
	C9113	C	0.252055	0.928442	0.941143
	C9114	C	0.007054	0.883646	0.996342
	C9115	C	0.257005	0.946123	0.933751
	C9116	C	0.001798	0.928443	0.996311
	C9117	C	0.251995	0.990925	0.933868
	C9118	C	0.006933	0.946157	0.878498
	C9119	C	0.257040	0.883620	0.941217
	C9120	C	0.000571	0.981675	0.884872
	C9121	C	0.250687	0.919177	0.947418
	C9122	C	0.008344	0.892913	0.990152
	C9123	C	0.258333	0.955385	0.927510
	C9124	C	0.000481	0.919179	0.990111
	C9125	C	0.250662	0.981667	0.927539
	C9126	C	0.008129	0.955419	0.884747
	C9127	C	0.258344	0.892880	0.947512
	H9128	H	0.162709	0.991151	0.873077
	H9129	H	0.413047	0.928647	0.935620
	H9130	H	0.167439	0.881710	0.991935
	H9131	H	0.417390	0.944162	0.929196
	H9132	H	0.341886	0.930403	0.991719
	H9133	H	0.091707	0.992899	0.929359
	H9134	H	0.346185	0.945913	0.873183
	H9135	H	0.095965	0.883397	0.935878
	H9136	H	0.346405	0.883451	1.001671
	H9137	H	0.095995	0.945913	0.939273
	H9138	H	0.341613	0.992898	0.883285
	H9139	H	0.091738	0.930425	0.945711
	H9140	H	0.167234	0.944168	0.883151
	H9141	H	0.417552	0.881674	0.945462
	H9142	H	0.162798	0.928651	1.001743
	H9143	H	0.412958	0.991122	0.939352
	O9144	O	0.585206	0.977762	0.886450
	O9145	O	0.835411	0.915270	0.948810
	O9146	O	0.593919	0.896200	0.986148
	O9147	O	0.843562	0.958685	0.923825
	O9148	O	0.915228	0.915880	0.986272
	O9149	O	0.665248	0.978369	0.923761
	O9150	O	0.923493	0.959341	0.886178
	O9151	O	0.673677	0.896841	0.948747
	O9152	O	0.923790	0.896844	0.988743
	O9153	O	0.673679	0.959330	0.926150
	O9154	O	0.915276	0.978379	0.888669
	O9155	O	0.665440	0.915908	0.951152
	O9156	O	0.593580	0.958686	0.888781
	O9157	O	0.843574	0.896169	0.951181
	O9158	O	0.585337	0.915241	0.988554
	O9159	O	0.835160	0.977736	0.926197
	F9160	F	0.504636	0.906043	0.952723
	F9161	F	0.754527	0.968540	0.890394
	F9162	F	0.504451	0.968520	0.922147
	F9163	F	0.754666	0.906051	0.984550
	Al9164	Al	0.629684	0.906042	0.968651
	Al9165	Al	0.879739	0.968533	0.906263
	Al9166	Al	0.629574	0.968530	0.906264
	Al9167	Al	0.879939	0.906043	0.968660
	C9168	C	0.593557	0.994895	0.874005
	C9169	C	0.843827	0.932429	0.936502
	C9170	C	0.596454	0.878674	0.995477
	C9171	C	0.846187	0.941165	0.932943
	C9172	C	0.912555	0.933412	0.995423
	C9173	C	0.662795	0.995892	0.932829
	C9174	C	0.915221	0.942178	0.873806
	C9175	C	0.665082	0.879653	0.936635
	C9176	C	0.915336	0.879648	1.000868
	C9177	C	0.665275	0.942162	0.938474
	C9178	C	0.912675	0.995911	0.879665
	C9179	C	0.662896	0.933427	0.942011
	C9180	C	0.596179	0.941159	0.879666
	C9181	C	0.845921	0.878677	0.942103
	C9182	C	0.593898	0.932427	1.000788
	C9183	C	0.843488	0.994888	0.938651
	C9184	C	0.501791	0.990937	0.878745
	C9185	C	0.752125	0.928459	0.941139
	C9186	C	0.507345	0.883639	0.996280
	C9187	C	0.756967	0.946133	0.933838
	C9188	C	0.502214	0.928441	0.996167
	C9189	C	0.751825	0.990917	0.933895
	C9190	C	0.507083	0.946123	0.878722
	C9191	C	0.756763	0.883634	0.941241
	C9192	C	0.500442	0.981670	0.884984
	C9193	C	0.750753	0.919197	0.947368
	C9194	C	0.508738	0.892899	0.989957
	C9195	C	0.758276	0.955398	0.927601
	C9196	C	0.500801	0.919185	0.989878
	C9197	C	0.750501	0.981657	0.927618
	C9198	C	0.508366	0.955385	0.884998
	C9199	C	0.758230	0.892898	0.947389
	H9200	H	0.662735	0.991100	0.873106
	H9201	H	0.913105	0.928655	0.935611
	H9202	H	0.667560	0.881679	0.991887
	H9203	H	0.917341	0.944166	0.929311
	H9204	H	0.841294	0.930408	0.991885
	H9205	H	0.591680	0.992899	0.929106
	H9206	H	0.845929	0.945950	0.872885
	H9207	H	0.595853	0.883430	0.935782
	H9208	H	0.846030	0.883417	1.001675
	H9209	H	0.595945	0.945938	0.939370
	H9210	H	0.841524	0.992916	0.883350
	H9211	H	0.591669	0.930433	0.945639
	H9212	H	0.667361	0.944148	0.883340
	H9213	H	0.917163	0.881674	0.945665
	H9214	H	0.663166	0.928651	1.001569
	H9215	H	0.912650	0.991099	0.939579
