data_Molecule from HDF5

_cell_length_a		13.312220
_cell_length_b		152.561693
_cell_length_c		64.641946
_cell_angle_alpha	88.249787
_cell_angle_beta	89.868214
_cell_angle_gamma	91.033993
_symmetry_space_group_name_H-M	'P 1'
_symmetry_Int_Tables_number		1

loop_
	_symmetry_equiv_pos_as_xyz
	x,y,z

loop_
	_atom_site_label
	_atom_site_type_symbol
	_atom_site_fract_x
	_atom_site_fract_y
	_atom_site_fract_z
	O0	O	0.090827	0.107594	0.035963
	O1	O	0.342892	0.041586	0.080388
	O2	O	0.085379	0.021009	0.109290
	O3	O	0.333324	0.087022	0.064829
	O4	O	0.422599	0.040147	0.110975
	O5	O	0.170643	0.106140	0.066550
	O6	O	0.414055	0.087330	0.033742
	O7	O	0.166459	0.021286	0.078368
	O8	O	0.415689	0.020444	0.107222
	O9	O	0.163661	0.086431	0.062814
	O10	O	0.420996	0.107026	0.033905
	O11	O	0.173188	0.041051	0.078539
	O12	O	0.083448	0.087892	0.032384
	O13	O	0.336252	0.021942	0.076615
	O14	O	0.092215	0.040706	0.109441
	O15	O	0.340358	0.106713	0.064952
	F16	F	0.005010	0.031425	0.080601
	F17	F	0.252303	0.097419	0.036231
	F18	F	0.002384	0.096610	0.062701
	F19	F	0.254164	0.030594	0.107048
	Al20	Al	0.129539	0.031010	0.093875
	Al21	Al	0.377339	0.097012	0.049355
	Al22	Al	0.127340	0.097023	0.049463
	Al23	Al	0.379270	0.031016	0.093884
	C24	C	0.092077	0.125889	0.030844
	C25	C	0.345009	0.059895	0.075004
	C26	C	0.094217	0.002970	0.117235
	C27	C	0.342341	0.068980	0.072958
	C28	C	0.415035	0.057358	0.124707
	C29	C	0.163095	0.123316	0.080370
	C30	C	0.410960	0.069635	0.022897
	C31	C	0.163437	0.003655	0.067223
	C32	C	0.414032	0.002144	0.112510
	C33	C	0.161876	0.068149	0.068199
	C34	C	0.411930	0.125064	0.025964
	C35	C	0.164547	0.059057	0.070242
	C36	C	0.091134	0.070695	0.018479
	C37	C	0.343900	0.004750	0.062738
	C38	C	0.095198	0.058408	0.120271
	C39	C	0.343605	0.124403	0.076073
	C40	C	0.003448	0.120796	0.029357
	C41	C	0.256177	0.054818	0.073680
	C42	C	0.002597	0.007210	0.113770
	C43	C	0.250729	0.073223	0.069517
	C44	C	0.005974	0.053336	0.119972
	C45	C	0.254369	0.119326	0.075596
	C46	C	-0.000149	0.074691	0.023287
	C47	C	0.252693	0.008727	0.067574
	C48	C	0.005461	0.111095	0.033335
	C49	C	0.257678	0.045111	0.077749
	C50	C	0.000939	0.016923	0.109881
	C51	C	0.249010	0.082931	0.065484
	C52	C	0.006976	0.044041	0.113044
	C53	C	0.255315	0.110049	0.068606
	C54	C	-0.001126	0.083966	0.030311
	C55	C	0.251713	0.017998	0.074620
	H56	H	0.163304	0.122715	0.033611
	H57	H	0.416143	0.056710	0.077747
	H58	H	0.163245	0.006819	0.118463
	H59	H	0.411377	0.072828	0.074109
	H60	H	0.345520	0.053524	0.124604
	H61	H	0.093534	0.119484	0.080274
	H62	H	0.339973	0.072603	0.026600
	H63	H	0.092336	0.006598	0.070988
	H64	H	0.342817	0.005315	0.109766
	H65	H	0.090765	0.071349	0.065463
	H66	H	0.342842	0.121219	0.024798
	H67	H	0.095511	0.055202	0.069094
	H68	H	0.160631	0.074534	0.018593
	H69	H	0.413472	0.008576	0.062829
	H70	H	0.166125	0.055438	0.116516
	H71	H	0.414715	0.121444	0.072413
	O72	O	0.590710	0.107624	0.036085
	O73	O	0.842811	0.041616	0.080186
	O74	O	0.585585	0.021018	0.109165
	O75	O	0.832952	0.086997	0.064877
	O76	O	0.922426	0.040107	0.111024
	O77	O	0.670265	0.106132	0.066687
	O78	O	0.913639	0.087301	0.033934
	O79	O	0.666130	0.021312	0.078327
	O80	O	0.915579	0.020433	0.107108
	O81	O	0.663206	0.086450	0.062797
	O82	O	0.921139	0.107000	0.033956
	O83	O	0.673053	0.041058	0.078457
	O84	O	0.583844	0.087934	0.032155
	O85	O	0.835863	0.021966	0.076364
	O86	O	0.592516	0.040734	0.109392
	O87	O	0.840115	0.106748	0.065038
	F88	F	0.504502	0.031436	0.080692
	F89	F	0.752589	0.097438	0.036331
	F90	F	0.501946	0.096608	0.062495
	F91	F	0.754450	0.030617	0.106853
	Al92	Al	0.629528	0.031030	0.093780
	Al93	Al	0.877628	0.097011	0.049542
	Al94	Al	0.627210	0.097028	0.049404
	Al95	Al	0.879741	0.031022	0.093693
	C96	C	0.592375	0.125893	0.030795
	C97	C	0.844506	0.059929	0.075057
	C98	C	0.594414	0.003005	0.117299
	C99	C	0.841742	0.069014	0.073072
	C100	C	0.914797	0.057344	0.124794
	C101	C	0.662480	0.123330	0.080364
	C102	C	0.910567	0.069628	0.022866
	C103	C	0.663034	0.003682	0.067165
	C104	C	0.913758	0.002123	0.112379
	C105	C	0.661262	0.068159	0.068231
	C106	C	0.911755	0.125033	0.025858
	C107	C	0.664034	0.059066	0.070220
	C108	C	0.591481	0.070704	0.018496
	C109	C	0.843544	0.004748	0.062678
	C110	C	0.595569	0.058429	0.120252
	C111	C	0.842960	0.124410	0.076019
	C112	C	0.503600	0.120814	0.029331
	C113	C	0.755754	0.054843	0.073682
	C114	C	0.502725	0.007229	0.113892
	C115	C	0.749993	0.073237	0.069615
	C116	C	0.506260	0.053366	0.119917
	C117	C	0.753773	0.119337	0.075629
	C118	C	0.500230	0.074707	0.023212
	C119	C	0.752337	0.008742	0.067518
	C120	C	0.505370	0.111109	0.033290
	C121	C	0.757483	0.045130	0.077646
	C122	C	0.501093	0.016946	0.109872
	C123	C	0.748414	0.082941	0.065552
	C124	C	0.507305	0.044067	0.112992
	C125	C	0.754889	0.110059	0.068687
	C126	C	0.499221	0.084008	0.030104
	C127	C	0.751249	0.018020	0.074518
	H128	H	0.663554	0.122706	0.033548
	H129	H	0.915705	0.056756	0.077783
	H130	H	0.663410	0.006865	0.118463
	H131	H	0.910730	0.072869	0.074246
	H132	H	0.845218	0.053517	0.124744
	H133	H	0.592956	0.119498	0.080230
	H134	H	0.839478	0.072588	0.026562
	H135	H	0.592004	0.006640	0.070918
	H136	H	0.842567	0.005308	0.109670
	H137	H	0.590127	0.071350	0.065474
	H138	H	0.842786	0.121180	0.024590
	H139	H	0.595122	0.055194	0.069023
	H140	H	0.661042	0.074536	0.018605
	H141	H	0.913150	0.008575	0.062744
	H142	H	0.666561	0.055457	0.116516
	H143	H	0.914014	0.121450	0.072320
	O144	O	0.092893	0.104100	0.142876
	O145	O	0.344988	0.038093	0.187146
	O146	O	0.087573	0.017544	0.216139
	O147	O	0.335545	0.083489	0.171438
	O148	O	0.425134	0.036665	0.217824
	O149	O	0.172866	0.102656	0.173404
	O150	O	0.416368	0.083805	0.140792
	O151	O	0.168383	0.017812	0.185216
	O152	O	0.418068	0.016932	0.213978
	O153	O	0.165743	0.082963	0.169710
	O154	O	0.423787	0.103528	0.140726
	O155	O	0.175260	0.037568	0.185352
	O156	O	0.086340	0.084429	0.139078
	O157	O	0.338233	0.018454	0.183402
	O158	O	0.094697	0.037244	0.216246
	O159	O	0.342476	0.103274	0.171609
	F160	F	0.007079	0.027940	0.187458
	F161	F	0.254691	0.093942	0.143042
	F162	F	0.004503	0.093125	0.169499
	F163	F	0.256563	0.027120	0.213847
	Al164	Al	0.131660	0.027532	0.200716
	Al165	Al	0.379440	0.093533	0.156158
	Al166	Al	0.129568	0.093536	0.156249
	Al167	Al	0.381579	0.027545	0.200640
	C168	C	0.094711	0.122381	0.137318
	C169	C	0.346906	0.056408	0.181841
	C170	C	0.096808	-0.000504	0.224099
	C171	C	0.344145	0.065501	0.179815
	C172	C	0.417655	0.053874	0.231546
	C173	C	0.164845	0.119865	0.187037
	C174	C	0.413252	0.066164	0.129706
	C175	C	0.165569	0.000172	0.174023
	C176	C	0.416571	-0.001375	0.219167
	C177	C	0.163749	0.064644	0.174959
	C178	C	0.414816	0.121536	0.132728
	C179	C	0.166533	0.055559	0.177000
	C180	C	0.093571	0.067225	0.125234
	C181	C	0.345962	0.001265	0.169501
	C182	C	0.097640	0.054932	0.227085
	C183	C	0.345402	0.120930	0.182766
	C184	C	0.005813	0.117301	0.136093
	C185	C	0.258158	0.051330	0.180507
	C186	C	0.005124	0.003726	0.220623
	C187	C	0.252474	0.069732	0.176369
	C188	C	0.008439	0.049853	0.226805
	C189	C	0.256142	0.115861	0.182279
	C190	C	0.002513	0.071228	0.130028
	C191	C	0.254719	0.005248	0.174315
	C192	C	0.007528	0.107599	0.140113
	C193	C	0.259764	0.041622	0.184560
	C194	C	0.003210	0.013446	0.216738
	C195	C	0.251017	0.079435	0.172292
	C196	C	0.009471	0.040561	0.219868
	C197	C	0.257422	0.106591	0.175337
	C198	C	0.001599	0.080507	0.137037
	C199	C	0.253575	0.014522	0.181411
	H200	H	0.165989	0.119195	0.139926
	H201	H	0.418056	0.053225	0.184571
	H202	H	0.165722	0.003362	0.225409
	H203	H	0.413103	0.069371	0.180954
	H204	H	0.348196	0.050039	0.231505
	H205	H	0.095284	0.116036	0.186886
	H206	H	0.342289	0.069125	0.133437
	H207	H	0.094513	0.003118	0.177821
	H208	H	0.345461	0.001809	0.216360
	H209	H	0.092655	0.067823	0.172181
	H210	H	0.345844	0.117679	0.131581
	H211	H	0.097524	0.051710	0.175796
	H212	H	0.163088	0.071055	0.125325
	H213	H	0.415475	0.005099	0.169629
	H214	H	0.168633	0.051973	0.223314
	H215	H	0.416508	0.117964	0.179104
	O216	O	0.593460	0.104097	0.142863
	O217	O	0.844993	0.038125	0.187177
	O218	O	0.587801	0.017529	0.216072
	O219	O	0.835331	0.083503	0.171718
	O220	O	0.924904	0.036637	0.217822
	O221	O	0.672479	0.102610	0.173630
	O222	O	0.916483	0.083830	0.140755
	O223	O	0.668260	0.017854	0.184980
	O224	O	0.917802	0.016940	0.214039
	O225	O	0.665591	0.082945	0.169681
	O226	O	0.923192	0.103502	0.140696
	O227	O	0.675250	0.037535	0.185178
	O228	O	0.586184	0.084413	0.139167
	O229	O	0.838142	0.018432	0.183355
	O230	O	0.594953	0.037258	0.216220
	O231	O	0.842131	0.103268	0.171881
	F232	F	0.506687	0.027953	0.187542
	F233	F	0.754861	0.093921	0.143226
	F234	F	0.503942	0.093128	0.169418
	F235	F	0.756568	0.027130	0.213719
	Al236	Al	0.631594	0.027537	0.200658
	Al237	Al	0.879840	0.093519	0.156384
	Al238	Al	0.629540	0.093529	0.156358
	Al239	Al	0.881982	0.027532	0.200574
	C240	C	0.595313	0.122405	0.137435
	C241	C	0.846767	0.056398	0.181776
	C242	C	0.596883	-0.000506	0.224284
	C243	C	0.844059	0.065487	0.179769
	C244	C	0.917135	0.053853	0.231573
	C245	C	0.664342	0.119860	0.187168
	C246	C	0.913175	0.066158	0.129767
	C247	C	0.665063	0.000163	0.174162
	C248	C	0.916461	-0.001374	0.219115
	C249	C	0.663645	0.064637	0.174848
	C250	C	0.914057	0.121544	0.132736
	C251	C	0.666344	0.055551	0.176848
	C252	C	0.593712	0.067238	0.125251
	C253	C	0.845446	0.001270	0.169517
	C254	C	0.597993	0.054969	0.226954
	C255	C	0.844882	0.120931	0.182841
	C256	C	0.506546	0.117309	0.136149
	C257	C	0.757953	0.051321	0.180374
	C258	C	0.505235	0.003714	0.220691
	C259	C	0.752424	0.069719	0.176310
	C260	C	0.508808	0.049888	0.226720
	C261	C	0.755638	0.115855	0.182433
	C262	C	0.502541	0.071219	0.130105
	C263	C	0.754252	0.005245	0.174378
	C264	C	0.508198	0.107607	0.140156
	C265	C	0.759641	0.041613	0.184433
	C266	C	0.503458	0.013437	0.216698
	C267	C	0.750847	0.079435	0.172375
	C268	C	0.509790	0.040591	0.219807
	C269	C	0.756929	0.106570	0.175545
	C270	C	0.501549	0.080493	0.137126
	C271	C	0.753384	0.014526	0.181343
	H272	H	0.666594	0.119233	0.140110
	H273	H	0.917846	0.053207	0.184559
	H274	H	0.665708	0.003365	0.225631
	H275	H	0.912976	0.069346	0.180978
	H276	H	0.847683	0.050014	0.231479
	H277	H	0.594818	0.116027	0.187073
	H278	H	0.842318	0.069129	0.133549
	H279	H	0.594100	0.003116	0.177982
	H280	H	0.845249	0.001807	0.216365
	H281	H	0.592555	0.067828	0.172065
	H282	H	0.844926	0.117699	0.131638
	H283	H	0.597403	0.051696	0.175588
	H284	H	0.663262	0.071069	0.125351
	H285	H	0.914913	0.005115	0.169531
	H286	H	0.668930	0.052008	0.223147
	H287	H	0.916019	0.117958	0.179192
	O288	O	0.095508	0.100600	0.249579
	O289	O	0.348088	0.034624	0.293583
	O290	O	0.090400	0.014112	0.322716
	O291	O	0.337657	0.080038	0.278554
	O292	O	0.427897	0.033105	0.324319
	O293	O	0.175032	0.099163	0.280270
	O294	O	0.418906	0.080333	0.247662
	O295	O	0.171449	0.014240	0.291895
	O296	O	0.421005	0.013522	0.320719
	O297	O	0.167948	0.079476	0.276570
	O298	O	0.425766	0.100045	0.247714
	O299	O	0.178360	0.034035	0.291554
	O300	O	0.088403	0.080934	0.245915
	O301	O	0.341235	0.014865	0.290033
	O302	O	0.097488	0.033753	0.322480
	O303	O	0.344764	0.099785	0.278561
	F304	F	0.009845	0.024395	0.293853
	F305	F	0.257005	0.090432	0.249965
	F306	F	0.006558	0.089667	0.276232
	F307	F	0.259397	0.023678	0.320219
	Al308	Al	0.134534	0.024038	0.307045
	Al309	Al	0.381626	0.090047	0.263148
	Al310	Al	0.131812	0.090047	0.263082
	Al311	Al	0.384516	0.024047	0.307005
	C312	C	0.097190	0.118911	0.244266
	C313	C	0.349477	0.052934	0.288492
	C314	C	0.099433	-0.003681	0.333383
	C315	C	0.346530	0.062013	0.286576
	C316	C	0.420182	0.050235	0.338573
	C317	C	0.167260	0.116371	0.293983
	C318	C	0.415886	0.062689	0.236499
	C319	C	0.168276	-0.003471	0.281290
	C320	C	0.419846	-0.004738	0.327705
	C321	C	0.166181	0.061161	0.281588
	C322	C	0.416908	0.118060	0.239465
	C323	C	0.169133	0.052060	0.283499
	C324	C	0.095814	0.063746	0.232055
	C325	C	0.348420	-0.002332	0.276283
	C326	C	0.100364	0.051355	0.333798
	C327	C	0.347761	0.117464	0.289584
	C328	C	0.008532	0.113810	0.242852
	C329	C	0.260799	0.047839	0.286999
	C330	C	0.007894	0.000403	0.328802
	C331	C	0.254909	0.066242	0.283064
	C332	C	0.011212	0.046267	0.333538
	C333	C	0.258524	0.112390	0.289204
	C334	C	0.004683	0.067727	0.236897
	C335	C	0.257433	0.001628	0.281336
	C336	C	0.010194	0.104103	0.246898
	C337	C	0.262699	0.038123	0.290922
	C338	C	0.006126	0.010045	0.323775
	C339	C	0.253260	0.075962	0.279191
	C340	C	0.012348	0.037023	0.326306
	C341	C	0.259611	0.103101	0.282232
	C342	C	0.003704	0.077019	0.243900
	C343	C	0.256603	0.010922	0.288214
	H344	H	0.168345	0.115731	0.247064
	H345	H	0.420651	0.049767	0.291293
	H346	H	0.167986	0.000247	0.334462
	H347	H	0.415456	0.065870	0.287870
	H348	H	0.350817	0.046380	0.338535
	H349	H	0.097740	0.112544	0.293864
	H350	H	0.344999	0.065648	0.240284
	H351	H	0.097490	-0.000543	0.285376
	H352	H	0.348844	-0.001662	0.324114
	H353	H	0.095080	0.064353	0.278853
	H354	H	0.347868	0.114206	0.238328
	H355	H	0.100266	0.048189	0.282236
	H356	H	0.165298	0.067586	0.232113
	H357	H	0.417874	0.001512	0.276242
	H358	H	0.171242	0.048422	0.329835
	H359	H	0.418859	0.114514	0.285845
	O360	O	0.595553	0.100624	0.249649
	O361	O	0.847810	0.034632	0.293568
	O362	O	0.590665	0.014140	0.322707
	O363	O	0.837243	0.080038	0.278620
	O364	O	0.927824	0.033072	0.324369
	O365	O	0.674657	0.099161	0.280326
	O366	O	0.918610	0.080348	0.247565
	O367	O	0.670728	0.014254	0.291795
	O368	O	0.920630	0.013508	0.320705
	O369	O	0.667603	0.079460	0.276533
	O370	O	0.925812	0.100031	0.247580
	O371	O	0.678101	0.034039	0.291499
	O372	O	0.588593	0.080974	0.245812
	O373	O	0.840568	0.014873	0.289935
	O374	O	0.597548	0.033764	0.322473
	O375	O	0.844371	0.099806	0.278529
	F376	F	0.509511	0.024427	0.293861
	F377	F	0.756925	0.090427	0.249976
	F378	F	0.506322	0.089657	0.276271
	F379	F	0.759295	0.023681	0.320093
	Al380	Al	0.634366	0.024047	0.306983
	Al381	Al	0.881816	0.090032	0.263119
	Al382	Al	0.631674	0.090040	0.263107
	Al383	Al	0.884610	0.024025	0.306952
	C384	C	0.597275	0.118914	0.244277
	C385	C	0.849125	0.052935	0.288603
	C386	C	0.599579	-0.003664	0.333381
	C387	C	0.846304	0.062021	0.286716
	C388	C	0.920099	0.050215	0.338620
	C389	C	0.666886	0.116362	0.294051
	C390	C	0.915349	0.062660	0.236537
	C391	C	0.667874	-0.003483	0.281359
	C392	C	0.919721	-0.004767	0.327585
	C393	C	0.665941	0.061156	0.281709
	C394	C	0.916835	0.118050	0.239450
	C395	C	0.668794	0.052060	0.283599
	C396	C	0.596222	0.063787	0.231900
	C397	C	0.848026	-0.002306	0.276215
	C398	C	0.600522	0.051372	0.333828
	C399	C	0.847435	0.117443	0.289622
	C400	C	0.508542	0.113826	0.242900
	C401	C	0.760492	0.047843	0.287088
	C402	C	0.508099	0.000434	0.328868
	C403	C	0.754640	0.066243	0.283200
	C404	C	0.511333	0.046288	0.333521
	C405	C	0.758115	0.112375	0.289234
	C406	C	0.505083	0.067759	0.236821
	C407	C	0.756876	0.001624	0.281351
	C408	C	0.510191	0.104120	0.246970
	C409	C	0.762412	0.038127	0.290941
	C410	C	0.506284	0.010067	0.323774
	C411	C	0.752894	0.075956	0.279238
	C412	C	0.512408	0.037049	0.326293
	C413	C	0.759195	0.103104	0.282260
	C414	C	0.504035	0.077030	0.243897
	C415	C	0.755848	0.010927	0.288162
	H416	H	0.668496	0.115738	0.247055
	H417	H	0.920356	0.049762	0.291365
	H418	H	0.668225	0.000261	0.334437
	H419	H	0.915250	0.065879	0.288008
	H420	H	0.850733	0.046357	0.338616
	H421	H	0.597345	0.112533	0.293974
	H422	H	0.844445	0.065629	0.240279
	H423	H	0.597033	-0.000573	0.285473
	H424	H	0.848679	-0.001702	0.323945
	H425	H	0.594913	0.064348	0.278932
	H426	H	0.847751	0.114194	0.238330
	H427	H	0.600013	0.048193	0.282298
	H428	H	0.665634	0.067630	0.231931
	H429	H	0.917318	0.001562	0.276100
	H430	H	0.671465	0.048434	0.329913
	H431	H	0.918523	0.114484	0.285922
	O432	O	0.098435	0.097074	0.355979
	O433	O	0.352048	0.031650	0.406521
	O434	O	0.094165	0.012931	0.441472
	O435	O	0.340407	0.076661	0.385394
	O436	O	0.432149	0.030874	0.437754
	O437	O	0.177594	0.095639	0.386663
	O438	O	0.421314	0.076733	0.354332
	O439	O	0.175114	0.011342	0.408095
	O440	O	0.424974	0.012127	0.439653
	O441	O	0.170912	0.075970	0.382994
	O442	O	0.428790	0.096514	0.353973
	O443	O	0.182448	0.030887	0.404161
	O444	O	0.090885	0.077375	0.352431
	O445	O	0.344591	0.012089	0.405740
	O446	O	0.101671	0.031585	0.435471
	O447	O	0.347193	0.096244	0.384998
	F448	F	0.013618	0.021307	0.408737
	F449	F	0.259821	0.086876	0.356327
	F450	F	0.009514	0.086144	0.382704
	F451	F	0.263166	0.021609	0.434784
	Al452	Al	0.138465	0.021485	0.421673
	Al453	Al	0.384425	0.086535	0.369492
	Al454	Al	0.134684	0.086502	0.369466
	Al455	Al	0.388223	0.021463	0.421725
	C456	C	0.099855	0.115380	0.351003
	C457	C	0.352622	0.049790	0.399050
	C458	C	0.098254	-0.000977	0.470571
	C459	C	0.349696	0.058825	0.395722
	C460	C	0.424425	0.047733	0.452826
	C461	C	0.170174	0.112723	0.401116
	C462	C	0.418297	0.059037	0.343639
	C463	C	0.172448	-0.006127	0.396416
	C464	C	0.419277	-0.002843	0.465970
	C465	C	0.169759	0.057775	0.390252
	C466	C	0.419788	0.114571	0.346050
	C467	C	0.172684	0.048747	0.393566
	C468	C	0.098513	0.060160	0.338880
	C469	C	0.352044	-0.004725	0.390361
	C470	C	0.104208	0.049088	0.446941
	C471	C	0.350400	0.113855	0.396272
	C472	C	0.011145	0.110296	0.349509
	C473	C	0.264206	0.044645	0.398018
	C474	C	0.008656	0.001753	0.461172
	C475	C	0.258156	0.062926	0.391323
	C476	C	0.015264	0.043983	0.446822
	C477	C	0.261228	0.108760	0.395980
	C478	C	0.007369	0.064107	0.343881
	C479	C	0.261229	-0.000994	0.396421
	C480	C	0.013130	0.100579	0.353366
	C481	C	0.266470	0.035025	0.403219
	C482	C	0.009311	0.009457	0.446303
	C483	C	0.256223	0.072552	0.386260
	C484	C	0.016525	0.034805	0.439519
	C485	C	0.262190	0.099549	0.388754
	C486	C	0.006440	0.073413	0.350715
	C487	C	0.260159	0.008136	0.403978
	H488	H	0.171056	0.112199	0.353756
	H489	H	0.423590	0.046704	0.402609
	H490	H	0.167854	0.002578	0.467138
	H491	H	0.418310	0.062747	0.396641
	H492	H	0.355582	0.043810	0.452900
	H493	H	0.100618	0.108887	0.401118
	H494	H	0.347509	0.061980	0.347557
	H495	H	0.102252	-0.003349	0.401401
	H496	H	0.349950	-0.000842	0.458639
	H497	H	0.098820	0.060849	0.386711
	H498	H	0.350818	0.110717	0.344758
	H499	H	0.104059	0.044828	0.392609
	H500	H	0.167830	0.064023	0.338844
	H501	H	0.420892	-0.000802	0.390287
	H502	H	0.174631	0.046280	0.442205
	H503	H	0.421389	0.110940	0.392302
	O504	O	0.598490	0.097117	0.356110
	O505	O	0.851952	0.031656	0.406348
	O506	O	0.594238	0.012960	0.441511
	O507	O	0.840010	0.076624	0.385322
	O508	O	0.932074	0.030845	0.437803
	O509	O	0.677255	0.095603	0.386855
	O510	O	0.921119	0.076737	0.354377
	O511	O	0.674554	0.011320	0.408196
	O512	O	0.924870	0.012108	0.439629
	O513	O	0.670433	0.075983	0.383029
	O514	O	0.928719	0.096489	0.354019
	O515	O	0.682308	0.030880	0.404166
	O516	O	0.591009	0.077406	0.352372
	O517	O	0.844180	0.012085	0.405729
	O518	O	0.601826	0.031616	0.435439
	O519	O	0.846877	0.096279	0.385004
	F520	F	0.513314	0.021302	0.408825
	F521	F	0.759820	0.086904	0.356422
	F522	F	0.509102	0.086163	0.382650
	F523	F	0.763289	0.021658	0.434704
	Al524	Al	0.638470	0.021487	0.421656
	Al525	Al	0.884822	0.086524	0.369591
	Al526	Al	0.634411	0.086518	0.369525
	Al527	Al	0.888424	0.021472	0.421678
	C528	C	0.599985	0.115403	0.351084
	C529	C	0.852031	0.049795	0.399060
	C530	C	0.598454	-0.000949	0.470615
	C531	C	0.848994	0.058831	0.395776
	C532	C	0.924357	0.047728	0.452764
	C533	C	0.669644	0.112733	0.401131
	C534	C	0.918237	0.059011	0.343724
	C535	C	0.672124	-0.006140	0.396519
	C536	C	0.918936	-0.002882	0.465888
	C537	C	0.669253	0.057761	0.390185
	C538	C	0.919464	0.114534	0.346044
	C539	C	0.672270	0.048725	0.393456
	C540	C	0.598663	0.060179	0.338881
	C541	C	0.851720	-0.004699	0.390292
	C542	C	0.604237	0.049122	0.446811
	C543	C	0.849839	0.113881	0.396243
	C544	C	0.511338	0.110323	0.349529
	C545	C	0.763755	0.044634	0.397927
	C546	C	0.508870	0.001784	0.461223
	C547	C	0.757497	0.062920	0.391330
	C548	C	0.515416	0.044003	0.446801
	C549	C	0.760660	0.108784	0.396005
	C550	C	0.507505	0.064119	0.343874
	C551	C	0.760883	-0.001013	0.396487
	C552	C	0.513113	0.100607	0.353416
	C553	C	0.766257	0.035023	0.403146
	C554	C	0.509353	0.009492	0.446361
	C555	C	0.755678	0.072543	0.386223
	C556	C	0.516679	0.034826	0.439484
	C557	C	0.761697	0.099550	0.388838
	C558	C	0.506493	0.073425	0.350672
	C559	C	0.759696	0.008127	0.404026
	H560	H	0.671124	0.112226	0.353894
	H561	H	0.922914	0.046725	0.402664
	H562	H	0.668058	0.002606	0.467165
	H563	H	0.917606	0.062752	0.396738
	H564	H	0.855407	0.043820	0.452802
	H565	H	0.600199	0.108890	0.401172
	H566	H	0.847453	0.061947	0.347729
	H567	H	0.602017	-0.003360	0.401550
	H568	H	0.849491	-0.000892	0.458550
	H569	H	0.598177	0.060827	0.386590
	H570	H	0.850494	0.110685	0.344736
	H571	H	0.603712	0.044801	0.392468
	H572	H	0.667960	0.064041	0.338843
	H573	H	0.920471	-0.000753	0.390128
	H574	H	0.674612	0.046328	0.441976
	H575	H	0.920823	0.110963	0.392280
	O576	O	0.102332	0.094078	0.468760
	O577	O	0.342878	0.039696	0.573894
	O578	O	0.085813	0.023170	0.615136
	O579	O	0.344354	0.075410	0.503920
	O580	O	0.423461	0.040764	0.608206
	O581	O	0.181843	0.093358	0.500173
	O582	O	0.425117	0.073831	0.470534
	O583	O	0.166319	0.020522	0.581779
	O584	O	0.416639	0.022361	0.613524
	O585	O	0.175103	0.074617	0.502192
	O586	O	0.432688	0.093406	0.466827
	O587	O	0.173446	0.038882	0.572287
	O588	O	0.094869	0.074558	0.468278
	O589	O	0.335877	0.021262	0.579339
	O590	O	0.093302	0.041546	0.605520
	O591	O	0.351678	0.094093	0.497893
	F592	F	0.004789	0.030251	0.581042
	F593	F	0.263685	0.083782	0.471293
	F594	F	0.013346	0.084100	0.497240
	F595	F	0.254534	0.031780	0.606394
	Al596	Al	0.129715	0.031019	0.593674
	Al597	Al	0.388570	0.083959	0.484190
	Al598	Al	0.138532	0.083949	0.484150
	Al599	Al	0.379673	0.031032	0.593705
	C600	C	0.102502	0.112252	0.461596
	C601	C	0.348524	0.054276	0.546635
	C602	C	0.089858	0.009511	0.645023
	C603	C	0.348806	0.061415	0.532742
	C604	C	0.416068	0.057235	0.624636
	C605	C	0.174409	0.110223	0.515389
	C606	C	0.422572	0.056385	0.458918
	C607	C	0.163868	0.003266	0.569086
	C608	C	0.410830	0.007694	0.640460
	C609	C	0.169414	0.059767	0.528775
	C610	C	0.423249	0.111216	0.455988
	C611	C	0.169158	0.052624	0.542675
	C612	C	0.102380	0.057751	0.452969
	C613	C	0.343280	0.004806	0.562800
	C614	C	0.095546	0.058814	0.618272
	C615	C	0.354211	0.111601	0.509373
	C616	C	0.014317	0.107096	0.460402
	C617	C	0.258751	0.049810	0.551789
	C618	C	0.000309	0.012248	0.635642
	C619	C	0.259142	0.064270	0.523716
	C620	C	0.006860	0.053708	0.617955
	C621	C	0.265282	0.106497	0.509363
	C622	C	0.011415	0.061483	0.458919
	C623	C	0.252665	0.008340	0.569520
	C624	C	0.016698	0.097474	0.465617
	C625	C	0.258326	0.042263	0.567111
	C626	C	0.000892	0.019792	0.620294
	C627	C	0.259502	0.071972	0.508856
	C628	C	0.008282	0.044683	0.609939
	C629	C	0.266429	0.097310	0.501924
	C630	C	0.010381	0.070624	0.466432
	C631	C	0.251327	0.017357	0.577519
	H632	H	0.173488	0.109194	0.465259
	H633	H	0.417897	0.052191	0.553675
	H634	H	0.159464	0.013030	0.641463
	H635	H	0.418402	0.064862	0.528982
	H636	H	0.347537	0.053297	0.624441
	H637	H	0.105594	0.106297	0.515409
	H638	H	0.352461	0.059182	0.463834
	H639	H	0.094044	0.005964	0.574435
	H640	H	0.341549	0.009708	0.633132
	H641	H	0.100072	0.061874	0.521710
	H642	H	0.354722	0.107288	0.454974
	H643	H	0.099643	0.049172	0.546455
	H644	H	0.171281	0.061663	0.452949
	H645	H	0.411850	0.008746	0.562980
	H646	H	0.165458	0.056150	0.612825
	H647	H	0.424350	0.108792	0.504471
	O648	O	0.602481	0.094101	0.468840
	O649	O	0.842801	0.039756	0.573958
	O650	O	0.586063	0.023195	0.615154
	O651	O	0.844266	0.075402	0.503942
	O652	O	0.923886	0.040753	0.608228
	O653	O	0.682002	0.093338	0.500274
	O654	O	0.925159	0.073830	0.470571
	O655	O	0.666217	0.020519	0.581805
	O656	O	0.916319	0.022336	0.613474
	O657	O	0.675008	0.074637	0.502202
	O658	O	0.932510	0.093349	0.466674
	O659	O	0.673335	0.038879	0.572273
	O660	O	0.594698	0.074584	0.468226
	O661	O	0.835864	0.021277	0.579230
	O662	O	0.592863	0.041554	0.605480
	O663	O	0.851653	0.094134	0.497893
	F664	F	0.504782	0.030270	0.581094
	F665	F	0.763633	0.083765	0.471335
	F666	F	0.513287	0.084105	0.497227
	F667	F	0.754752	0.031809	0.606309
	Al668	Al	0.629805	0.031024	0.593708
	Al669	Al	0.888744	0.083955	0.484277
	Al670	Al	0.638513	0.083949	0.484167
	Al671	Al	0.879792	0.031017	0.593624
	C672	C	0.602957	0.112298	0.461705
	C673	C	0.848245	0.054288	0.546678
	C674	C	0.590115	0.009537	0.645112
	C675	C	0.848489	0.061416	0.532755
	C676	C	0.916044	0.057226	0.624663
	C677	C	0.674085	0.110210	0.515410
	C678	C	0.922530	0.056391	0.458822
	C679	C	0.663820	0.003231	0.569151
	C680	C	0.910406	0.007684	0.640509
	C681	C	0.669093	0.059764	0.528751
	C682	C	0.922778	0.111204	0.455912
	C683	C	0.668828	0.052629	0.542677
	C684	C	0.602415	0.057779	0.452863
	C685	C	0.843217	0.004795	0.562844
	C686	C	0.595532	0.058815	0.618278
	C687	C	0.853771	0.111625	0.509327
	C688	C	0.514746	0.107120	0.460513
	C689	C	0.758472	0.049808	0.551770
	C690	C	0.500753	0.012260	0.635616
	C691	C	0.758876	0.064251	0.523674
	C692	C	0.506863	0.053708	0.617962
	C693	C	0.764942	0.106503	0.509351
	C694	C	0.511597	0.061483	0.458972
	C695	C	0.752465	0.008322	0.569476
	C696	C	0.516899	0.097509	0.465726
	C697	C	0.758132	0.042275	0.567111
	C698	C	0.501227	0.019812	0.620331
	C699	C	0.759330	0.071965	0.508835
	C700	C	0.507937	0.044694	0.609906
	C701	C	0.766392	0.097317	0.502002
	C702	C	0.510272	0.070631	0.466447
	C703	C	0.751236	0.017361	0.577490
	H704	H	0.673956	0.109239	0.465396
	H705	H	0.917553	0.052220	0.553786
	H706	H	0.659729	0.013069	0.641634
	H707	H	0.917987	0.064882	0.529037
	H708	H	0.847525	0.053273	0.624485
	H709	H	0.605402	0.106268	0.515495
	H710	H	0.852302	0.059192	0.463686
	H711	H	0.594030	0.005912	0.574581
	H712	H	0.841079	0.009700	0.633221
	H713	H	0.599744	0.061880	0.521718
	H714	H	0.854196	0.107282	0.454911
	H715	H	0.599236	0.049189	0.546492
	H716	H	0.671157	0.061706	0.452738
	H717	H	0.911713	0.008740	0.563101
	H718	H	0.665444	0.056156	0.612830
	H719	H	0.923974	0.108823	0.504456
	O720	O	0.092815	0.102229	0.636649
	O721	O	0.334163	0.049925	0.747891
	O722	O	0.076805	0.031145	0.783226
	O723	O	0.336016	0.085655	0.677754
	O724	O	0.414415	0.049958	0.781796
	O725	O	0.173680	0.103231	0.670804
	O726	O	0.416238	0.082994	0.644471
	O727	O	0.157547	0.030416	0.752010
	O728	O	0.406878	0.030431	0.781219
	O729	O	0.166555	0.084830	0.676135
	O730	O	0.423822	0.101353	0.634837
	O731	O	0.164798	0.049134	0.746064
	O732	O	0.085991	0.083765	0.641817
	O733	O	0.327284	0.031173	0.749773
	O734	O	0.084109	0.050681	0.779319
	O735	O	0.343231	0.104040	0.668094
	F736	F	-0.004245	0.040410	0.752675
	F737	F	0.254899	0.092775	0.643633
	F738	F	0.004691	0.094258	0.668978
	F739	F	0.245672	0.040743	0.778701
	Al740	Al	0.120765	0.040550	0.765781
	Al741	Al	0.379855	0.093500	0.656333
	Al742	Al	0.129800	0.093506	0.656303
	Al743	Al	0.370755	0.040579	0.765835
	C744	C	0.098271	0.116896	0.609668
	C745	C	0.340151	0.064877	0.721624
	C746	C	0.086310	0.013348	0.794040
	C747	C	0.340352	0.072021	0.707702
	C748	C	0.407102	0.066766	0.797132
	C749	C	0.165730	0.119716	0.687184
	C750	C	0.414065	0.065735	0.631724
	C751	C	0.155093	0.012963	0.740454
	C752	C	0.406410	0.012263	0.788461
	C753	C	0.161018	0.070183	0.703201
	C754	C	0.419464	0.114980	0.604885
	C755	C	0.160789	0.063049	0.717082
	C756	C	0.093487	0.067303	0.625343
	C757	C	0.335174	0.014295	0.734776
	C758	C	0.086927	0.068128	0.791162
	C759	C	0.345325	0.121321	0.680800
	C760	C	0.008526	0.112267	0.614391
	C761	C	0.250317	0.060299	0.726400
	C762	C	-0.005282	0.017438	0.789637
	C763	C	0.250760	0.074747	0.698332
	C764	C	-0.001881	0.063005	0.791202
	C765	C	0.256654	0.116201	0.680503
	C766	C	0.002660	0.070811	0.632073
	C767	C	0.244154	0.018057	0.740615
	C768	C	0.008201	0.104727	0.629728
	C769	C	0.249761	0.052595	0.741259
	C770	C	-0.007365	0.027047	0.784350
	C771	C	0.251156	0.082264	0.682919
	C772	C	-0.000857	0.053889	0.783513
	C773	C	0.258149	0.107168	0.672529
	C774	C	0.001491	0.079835	0.640127
	C775	C	0.242830	0.027219	0.747986
	H776	H	0.167666	0.114948	0.617078
	H777	H	0.409357	0.062835	0.728916
	H778	H	0.154978	0.017273	0.794955
	H779	H	0.409805	0.075549	0.704091
	H780	H	0.338376	0.062834	0.797257
	H781	H	0.097156	0.115759	0.687024
	H782	H	0.344248	0.068416	0.637133
	H783	H	0.084621	0.015763	0.745193
	H784	H	0.335508	0.015339	0.784828
	H785	H	0.091612	0.072178	0.695882
	H786	H	0.349981	0.111410	0.608327
	H787	H	0.091165	0.059525	0.720566
	H788	H	0.162007	0.071254	0.625507
	H789	H	0.404289	0.018181	0.734855
	H790	H	0.157017	0.065351	0.786134
	H791	H	0.415260	0.118651	0.675373
	O792	O	0.593236	0.102226	0.636591
	O793	O	0.833988	0.049961	0.747920
	O794	O	0.576761	0.031131	0.783277
	O795	O	0.835721	0.085675	0.677827
	O796	O	0.914624	0.049948	0.781757
	O797	O	0.673842	0.103219	0.670898
	O798	O	0.916476	0.082972	0.644546
	O799	O	0.657309	0.030440	0.751960
	O800	O	0.906904	0.030436	0.781168
	O801	O	0.666313	0.084805	0.676078
	O802	O	0.923440	0.101298	0.634758
	O803	O	0.664777	0.049103	0.746020
	O804	O	0.585762	0.083791	0.641771
	O805	O	0.826917	0.031171	0.749688
	O806	O	0.584029	0.050681	0.779457
	O807	O	0.843252	0.104037	0.668096
	F808	F	0.495828	0.040408	0.752791
	F809	F	0.754978	0.092747	0.643711
	F810	F	0.504718	0.094257	0.668967
	F811	F	0.745802	0.040729	0.778642
	Al812	Al	0.620871	0.040545	0.765811
	Al813	Al	0.879867	0.093500	0.656379
	Al814	Al	0.629728	0.093511	0.656308
	Al815	Al	0.871074	0.040575	0.765694
	C816	C	0.598747	0.116941	0.609694
	C817	C	0.839920	0.064879	0.721608
	C818	C	0.586348	0.013325	0.793960
	C819	C	0.840212	0.072019	0.707684
	C820	C	0.907356	0.066725	0.797350
	C821	C	0.666336	0.119697	0.687286
	C822	C	0.913978	0.065717	0.631736
	C823	C	0.654915	0.012936	0.740548
	C824	C	0.906416	0.012270	0.788531
	C825	C	0.660733	0.070167	0.703127
	C826	C	0.918950	0.114947	0.604843
	C827	C	0.660471	0.063037	0.717021
	C828	C	0.593634	0.067314	0.625358
	C829	C	0.834700	0.014298	0.734738
	C830	C	0.586715	0.068177	0.790995
	C831	C	0.845767	0.121306	0.680790
	C832	C	0.509051	0.112308	0.614428
	C833	C	0.750042	0.060303	0.726392
	C834	C	0.494659	0.017425	0.789592
	C835	C	0.750561	0.074742	0.698313
	C836	C	0.497811	0.063053	0.791015
	C837	C	0.757033	0.116191	0.680457
	C838	C	0.502821	0.070820	0.632088
	C839	C	0.743775	0.018044	0.740660
	C840	C	0.508669	0.104777	0.629766
	C841	C	0.749562	0.052595	0.741239
	C842	C	0.492480	0.027036	0.784372
	C843	C	0.750887	0.082268	0.682939
	C844	C	0.498915	0.053908	0.783521
	C845	C	0.758265	0.107161	0.672542
	C846	C	0.501276	0.079854	0.640091
	C847	C	0.742433	0.027222	0.747945
	H848	H	0.668202	0.115001	0.617103
	H849	H	0.909200	0.062831	0.728916
	H850	H	0.655040	0.017243	0.794842
	H851	H	0.909739	0.075549	0.704068
	H852	H	0.838507	0.062801	0.797486
	H853	H	0.597817	0.115734	0.687239
	H854	H	0.844085	0.068384	0.637153
	H855	H	0.584436	0.015725	0.745295
	H856	H	0.835469	0.015340	0.784900
	H857	H	0.591376	0.072144	0.695785
	H858	H	0.849381	0.111384	0.608277
	H859	H	0.590809	0.059502	0.720464
	H860	H	0.662104	0.071271	0.625545
	H861	H	0.903629	0.018203	0.734740
	H862	H	0.656809	0.065388	0.786009
	H863	H	0.915787	0.118648	0.675376
	O864	O	0.084183	0.112485	0.810371
	O865	O	0.338220	0.048585	0.866879
	O866	O	0.081048	0.028009	0.895884
	O867	O	0.326707	0.093676	0.845639
	O868	O	0.418023	0.047185	0.897508
	O869	O	0.164865	0.112462	0.844243
	O870	O	0.407649	0.092942	0.814500
	O871	O	0.161700	0.028331	0.864897
	O872	O	0.410972	0.027481	0.894027
	O873	O	0.156880	0.092993	0.843677
	O874	O	0.414881	0.111594	0.808331
	O875	O	0.168586	0.047953	0.864850
	O876	O	0.077126	0.093710	0.812148
	O877	O	0.331340	0.028929	0.863267
	O878	O	0.087388	0.047793	0.895697
	O879	O	0.334339	0.113244	0.841694
	F880	F	-0.000213	0.038402	0.867266
	F881	F	0.245793	0.102926	0.815110
	F882	F	-0.004095	0.103280	0.841193
	F883	F	0.249230	0.037659	0.893618
	Al884	Al	0.124649	0.038017	0.880445
	Al885	Al	0.370686	0.103084	0.828152
	Al886	Al	0.120818	0.103116	0.828265
	Al887	Al	0.374454	0.038034	0.880520
	C888	C	0.089596	0.127445	0.784061
	C889	C	0.339108	0.066864	0.859995
	C890	C	0.089524	0.009983	0.903850
	C891	C	0.336003	0.075892	0.856669
	C892	C	0.410390	0.064379	0.911144
	C893	C	0.157160	0.129273	0.859544
	C894	C	0.405287	0.075422	0.803177
	C895	C	0.158294	0.010694	0.853717
	C896	C	0.409188	0.009156	0.898938
	C897	C	0.156170	0.074806	0.851042
	C898	C	0.410557	0.125509	0.779269
	C899	C	0.159275	0.065765	0.854397
	C900	C	0.084967	0.076797	0.797198
	C901	C	0.338617	0.011816	0.848927
	C902	C	0.090228	0.065494	0.906389
	C903	C	0.336959	0.130682	0.853642
	C904	C	-0.000123	0.122802	0.788740
	C905	C	0.250906	0.061683	0.858857
	C906	C	-0.002094	0.014229	0.900430
	C907	C	0.244434	0.079973	0.852123
	C908	C	0.001126	0.060393	0.906274
	C909	C	0.248077	0.125569	0.853482
	C910	C	-0.005842	0.080522	0.803249
	C911	C	0.247503	0.015786	0.854005
	C912	C	-0.000255	0.115083	0.803600
	C913	C	0.252898	0.052039	0.863834
	C914	C	-0.003437	0.023949	0.896530
	C915	C	0.242406	0.089583	0.846811
	C916	C	0.002227	0.051106	0.899410
	C917	C	0.249258	0.116431	0.845917
	C918	C	-0.007154	0.089718	0.810513
	C919	C	0.246734	0.025016	0.861182
	H920	H	0.159033	0.125462	0.791443
	H921	H	0.410091	0.063806	0.863565
	H922	H	0.158626	0.013835	0.905070
	H923	H	0.404589	0.079816	0.857657
	H924	H	0.341018	0.060525	0.911150
	H925	H	0.088234	0.125354	0.859638
	H926	H	0.335134	0.078218	0.808050
	H927	H	0.087118	0.013597	0.857619
	H928	H	0.338051	0.012338	0.896171
	H929	H	0.085135	0.077877	0.847390
	H930	H	0.341250	0.121888	0.782613
	H931	H	0.090730	0.061829	0.853420
	H932	H	0.153718	0.080734	0.797016
	H933	H	0.408217	0.015642	0.848908
	H934	H	0.161041	0.062562	0.902398
	H935	H	0.407394	0.127904	0.848803
	O936	O	0.584318	0.112463	0.810302
	O937	O	0.837609	0.048635	0.866966
	O938	O	0.580700	0.028032	0.895909
	O939	O	0.826286	0.093684	0.845897
	O940	O	0.917614	0.047156	0.897555
	O941	O	0.664225	0.112468	0.844240
	O942	O	0.907526	0.092922	0.814522
	O943	O	0.661132	0.028344	0.864846
	O944	O	0.911261	0.027478	0.893910
	O945	O	0.656625	0.092969	0.843559
	O946	O	0.914961	0.111597	0.808395
	O947	O	0.668019	0.047939	0.864637
	O948	O	0.577270	0.093662	0.812332
	O949	O	0.830819	0.028919	0.863200
	O950	O	0.587807	0.047803	0.895750
	O951	O	0.833835	0.113211	0.841870
	F952	F	0.499442	0.038392	0.867296
	F953	F	0.746078	0.102899	0.815262
	F954	F	0.495604	0.103311	0.841107
	F955	F	0.749343	0.037665	0.893532
	Al956	Al	0.624312	0.038041	0.880444
	Al957	Al	0.870895	0.103063	0.828268
	Al958	Al	0.620790	0.103101	0.828269
	Al959	Al	0.874835	0.038036	0.880428
	C960	C	0.589870	0.127490	0.784210
	C961	C	0.838398	0.066833	0.859928
	C962	C	0.589437	0.010005	0.903951
	C963	C	0.835423	0.075861	0.856603
	C964	C	0.909911	0.064357	0.911197
	C965	C	0.656562	0.129274	0.859582
	C966	C	0.905389	0.075396	0.803335
	C967	C	0.657682	0.010690	0.853744
	C968	C	0.909143	0.009143	0.898945
	C969	C	0.655703	0.074801	0.850844
	C970	C	0.910172	0.125492	0.779256
	C971	C	0.658638	0.065766	0.854204
	C972	C	0.584904	0.076835	0.797093
	C973	C	0.837988	0.011828	0.848867
	C974	C	0.590636	0.065518	0.906318
	C975	C	0.836374	0.130663	0.853671
	C976	C	0.500120	0.122844	0.788797
	C977	C	0.750072	0.061678	0.858782
	C978	C	0.497881	0.014246	0.900430
	C979	C	0.743955	0.079961	0.852079
	C980	C	0.501603	0.060415	0.906219
	C981	C	0.747452	0.125558	0.853560
	C982	C	0.494044	0.080542	0.803175
	C983	C	0.746883	0.015796	0.853943
	C984	C	0.499806	0.115089	0.803587
	C985	C	0.752177	0.052047	0.863780
	C986	C	0.496286	0.023960	0.896562
	C987	C	0.742075	0.089572	0.846856
	C988	C	0.502650	0.051125	0.899384
	C989	C	0.748690	0.116414	0.845999
	C990	C	0.492803	0.089718	0.810551
	C991	C	0.746115	0.025029	0.861086
	H992	H	0.659114	0.125500	0.791655
	H993	H	0.909361	0.063770	0.863510
	H994	H	0.658450	0.013860	0.905240
	H995	H	0.904123	0.079772	0.857600
	H996	H	0.840468	0.060511	0.911185
	H997	H	0.587563	0.125365	0.859669
	H998	H	0.835082	0.078184	0.808162
	H999	H	0.586561	0.013594	0.857695
	H1000	H	0.837962	0.012329	0.896171
	H1001	H	0.584842	0.077878	0.847093
	H1002	H	0.840694	0.121898	0.782645
	H1003	H	0.590198	0.061834	0.853127
	H1004	H	0.653761	0.080761	0.796989
	H1005	H	0.907680	0.015646	0.848834
	H1006	H	0.661530	0.062593	0.902321
	H1007	H	0.906725	0.127875	0.848811
	O1008	O	0.088292	0.111069	0.929236
	O1009	O	0.340820	0.045128	0.973651
	O1010	O	0.083418	0.024497	1.002261
	O1011	O	0.330669	0.090538	0.958376
	O1012	O	0.420278	0.043633	1.004179
	O1013	O	0.167732	0.109706	0.959942
	O1014	O	0.411517	0.090825	0.927390
	O1015	O	0.164303	0.024829	0.971380
	O1016	O	0.413712	0.023966	1.000427
	O1017	O	0.161026	0.089968	0.956302
	O1018	O	0.418634	0.110444	0.927198
	O1019	O	0.171137	0.044522	0.971537
	O1020	O	0.080773	0.091441	0.925757
	O1021	O	0.334230	0.025387	0.969872
	O1022	O	0.089838	0.044218	1.002508
	O1023	O	0.337590	0.110345	0.958101
	F1024	F	0.002674	0.034946	0.973731
	F1025	F	0.249792	0.100908	0.929712
	F1026	F	-0.000279	0.100143	0.956113
	F1027	F	0.251750	0.034109	1.000119
	Al1028	Al	0.127162	0.034520	0.986920
	Al1029	Al	0.374526	0.100534	0.942926
	Al1030	Al	0.124785	0.100546	0.942920
	Al1031	Al	0.377226	0.034530	0.986975
	C1032	C	0.089207	0.129306	0.922247
	C1033	C	0.342406	0.063421	0.968440
	C1034	C	0.091966	0.006488	1.010400
	C1035	C	0.339634	0.072507	0.966454
	C1036	C	0.412794	0.060817	1.017968
	C1037	C	0.160332	0.126928	0.973532
	C1038	C	0.408469	0.073186	0.916198
	C1039	C	0.161112	0.007140	0.960390
	C1040	C	0.411843	0.005662	1.005646
	C1041	C	0.159316	0.071652	0.961543
	C1042	C	0.409545	0.128256	0.916831
	C1043	C	0.162070	0.062558	0.963552
	C1044	C	0.088419	0.074298	0.911458
	C1045	C	0.341558	0.008223	0.955903
	C1046	C	0.093087	0.061882	1.013509
	C1047	C	0.340677	0.128031	0.968780
	C1048	C	0.000884	0.124143	0.921204
	C1049	C	0.253648	0.058326	0.966972
	C1050	C	0.000293	0.010724	1.006958
	C1051	C	0.248063	0.076741	0.962954
	C1052	C	0.003788	0.056823	1.013136
	C1053	C	0.251428	0.122962	0.968617
	C1054	C	-0.002646	0.078241	0.916552
	C1055	C	0.250382	0.012204	0.960757
	C1056	C	0.002825	0.114513	0.926305
	C1057	C	0.255420	0.048616	0.970949
	C1058	C	-0.001042	0.020437	1.002964
	C1059	C	0.246320	0.086455	0.958965
	C1060	C	0.004701	0.047541	1.006172
	C1061	C	0.252357	0.113656	0.961778
	C1062	C	-0.003753	0.087508	0.923661
	C1063	C	0.249438	0.021493	0.967750
	H1064	H	0.160261	0.126227	0.925792
	H1065	H	0.413436	0.060249	0.971223
	H1066	H	0.161044	0.010343	1.011573
	H1067	H	0.408676	0.076349	0.967692
	H1068	H	0.343342	0.056979	1.017901
	H1069	H	0.090940	0.123078	0.973486
	H1070	H	0.337621	0.076128	0.920102
	H1071	H	0.090121	0.010104	0.964164
	H1072	H	0.340801	0.008865	1.002900
	H1073	H	0.088107	0.074850	0.958769
	H1074	H	0.340931	0.124331	0.915885
	H1075	H	0.093119	0.058699	0.962358
	H1076	H	0.157644	0.078162	0.911405
	H1077	H	0.411080	0.012058	0.955950
	H1078	H	0.164071	0.058910	1.009806
	H1079	H	0.411341	0.125065	0.964808
	O1080	O	0.588420	0.111053	0.929290
	O1081	O	0.840518	0.045127	0.973502
	O1082	O	0.583571	0.024517	1.002302
	O1083	O	0.830075	0.090533	0.958589
	O1084	O	0.920058	0.043600	1.004207
	O1085	O	0.667374	0.109658	0.960110
	O1086	O	0.910946	0.090812	0.927375
	O1087	O	0.663706	0.024847	0.971274
	O1088	O	0.913574	0.023971	1.000299
	O1089	O	0.660407	0.089958	0.956508
	O1090	O	0.918553	0.110431	0.927378
	O1091	O	0.670758	0.044543	0.971502
	O1092	O	0.581253	0.091446	0.925734
	O1093	O	0.833553	0.025415	0.969690
	O1094	O	0.590047	0.044217	1.002546
	O1095	O	0.837079	0.110322	0.958162
	F1096	F	0.502270	0.034937	0.973789
	F1097	F	0.749826	0.100859	0.929881
	F1098	F	0.499164	0.100199	0.956065
	F1099	F	0.751981	0.034117	0.999981
	Al1100	Al	0.626980	0.034529	0.986915
	Al1101	Al	0.874678	0.100494	0.943044
	Al1102	Al	0.624592	0.100540	0.943003
	Al1103	Al	0.877327	0.034526	0.986837
	C1104	C	0.589316	0.129326	0.922375
	C1105	C	0.842043	0.063413	0.968341
	C1106	C	0.592221	0.006489	1.010517
	C1107	C	0.839211	0.072498	0.966464
	C1108	C	0.912472	0.060811	1.017909
	C1109	C	0.659737	0.126903	0.973616
	C1110	C	0.908096	0.073161	0.916223
	C1111	C	0.660627	0.007125	0.960484
	C1112	C	0.911428	0.005647	1.005589
	C1113	C	0.658850	0.071637	0.961446
	C1114	C	0.909332	0.128250	0.916802
	C1115	C	0.661718	0.062541	0.963329
	C1116	C	0.588703	0.074324	0.911391
	C1117	C	0.841087	0.008218	0.955924
	C1118	C	0.593311	0.061890	1.013562
	C1119	C	0.840025	0.128013	0.968769
	C1120	C	0.501172	0.124159	0.921207
	C1121	C	0.753449	0.058323	0.966806
	C1122	C	0.500629	0.010730	1.007088
	C1123	C	0.747523	0.076726	0.962952
	C1124	C	0.503989	0.056832	1.013166
	C1125	C	0.750785	0.122939	0.968618
	C1126	C	0.497629	0.078268	0.916453
	C1127	C	0.749842	0.012198	0.960749
	C1128	C	0.503115	0.114512	0.926206
	C1129	C	0.755181	0.048620	0.970809
	C1130	C	0.499059	0.020451	1.003035
	C1131	C	0.745730	0.086444	0.959115
	C1132	C	0.504946	0.047548	1.006204
	C1133	C	0.751888	0.113627	0.961848
	C1134	C	0.496654	0.087525	0.923627
	C1135	C	0.748815	0.021504	0.967670
	H1136	H	0.660318	0.126256	0.925978
	H1137	H	0.913291	0.060251	0.971114
	H1138	H	0.661256	0.010345	1.011690
	H1139	H	0.908124	0.076359	0.967790
	H1140	H	0.842958	0.056976	1.017799
	H1141	H	0.590387	0.123047	0.973670
	H1142	H	0.837171	0.076107	0.920070
	H1143	H	0.589645	0.010089	0.964262
	H1144	H	0.840276	0.008838	1.002841
	H1145	H	0.587833	0.074825	0.958678
	H1146	H	0.840625	0.124331	0.915884
	H1147	H	0.592894	0.058669	0.962067
	H1148	H	0.657983	0.078194	0.911378
	H1149	H	0.910534	0.012065	0.955957
	H1150	H	0.664275	0.058918	1.009849
	H1151	H	0.910756	0.125043	0.964834
	O1152	O	0.088363	0.236083	0.054352
	O1153	O	0.340736	0.170074	0.098407
	O1154	O	0.083175	0.149498	0.127222
	O1155	O	0.330576	0.215533	0.083435
	O1156	O	0.420125	0.168634	0.129114
	O1157	O	0.168192	0.234699	0.084945
	O1158	O	0.411173	0.215806	0.052428
	O1159	O	0.164053	0.149807	0.096388
	O1160	O	0.413368	0.148931	0.125400
	O1161	O	0.160824	0.214945	0.081390
	O1162	O	0.418696	0.235428	0.052181
	O1163	O	0.170874	0.169577	0.096650
	O1164	O	0.080573	0.216454	0.050758
	O1165	O	0.333894	0.150379	0.094846
	O1166	O	0.089694	0.169210	0.127417
	O1167	O	0.337894	0.235322	0.083099
	F1168	F	0.002521	0.159922	0.098651
	F1169	F	0.249729	0.225884	0.054759
	F1170	F	-0.000411	0.225162	0.081209
	F1171	F	0.251863	0.159116	0.125100
	Al1172	Al	0.127079	0.159522	0.111898
	Al1173	Al	0.374497	0.225536	0.067917
	Al1174	Al	0.124465	0.225531	0.067969
	Al1175	Al	0.377012	0.159517	0.111937
	C1176	C	0.089042	0.254318	0.047263
	C1177	C	0.342741	0.188418	0.093416
	C1178	C	0.092103	0.131483	0.135318
	C1179	C	0.339841	0.197517	0.091445
	C1180	C	0.412913	0.185840	0.142949
	C1181	C	0.160548	0.251914	0.098618
	C1182	C	0.408156	0.198193	0.041208
	C1183	C	0.161209	0.132129	0.085345
	C1184	C	0.411896	0.130637	0.130752
	C1185	C	0.159552	0.196645	0.086504
	C1186	C	0.409290	0.253232	0.041681
	C1187	C	0.162391	0.187564	0.088514
	C1188	C	0.088292	0.199301	0.036511
	C1189	C	0.341773	0.133223	0.081053
	C1190	C	0.092891	0.186882	0.138556
	C1191	C	0.340829	0.253032	0.093850
	C1192	C	0.000804	0.249149	0.046198
	C1193	C	0.253985	0.183333	0.092024
	C1194	C	0.000425	0.135714	0.131974
	C1195	C	0.248143	0.201742	0.088044
	C1196	C	0.003617	0.181812	0.138170
	C1197	C	0.251682	0.247937	0.093648
	C1198	C	-0.002790	0.203247	0.041610
	C1199	C	0.250392	0.137202	0.085741
	C1200	C	0.002958	0.239523	0.051305
	C1201	C	0.255497	0.173620	0.095913
	C1202	C	-0.001326	0.145421	0.127970
	C1203	C	0.246199	0.211451	0.084095
	C1204	C	0.004606	0.172531	0.131152
	C1205	C	0.252783	0.238645	0.086773
	C1206	C	-0.003923	0.212519	0.048691
	C1207	C	0.249170	0.146479	0.092743
	H1208	H	0.160064	0.251245	0.050818
	H1209	H	0.413837	0.185220	0.096146
	H1210	H	0.161204	0.135330	0.136394
	H1211	H	0.408781	0.201384	0.092609
	H1212	H	0.343333	0.182018	0.142863
	H1213	H	0.090924	0.248092	0.098646
	H1214	H	0.337255	0.201131	0.045130
	H1215	H	0.090275	0.135102	0.089056
	H1216	H	0.340679	0.133818	0.128088
	H1217	H	0.088328	0.199805	0.083683
	H1218	H	0.340828	0.249296	0.040669
	H1219	H	0.093361	0.183728	0.087232
	H1220	H	0.157631	0.203164	0.036435
	H1221	H	0.411215	0.137065	0.081218
	H1222	H	0.163933	0.183917	0.134850
	H1223	H	0.411877	0.250119	0.089922
	O1224	O	0.588237	0.236084	0.054393
	O1225	O	0.840366	0.170123	0.098499
	O1226	O	0.583151	0.149507	0.127261
	O1227	O	0.830242	0.215523	0.083545
	O1228	O	0.919941	0.168604	0.129141
	O1229	O	0.667832	0.234656	0.085072
	O1230	O	0.910806	0.215824	0.052419
	O1231	O	0.663845	0.149836	0.096343
	O1232	O	0.913337	0.148940	0.125349
	O1233	O	0.660535	0.214959	0.081406
	O1234	O	0.918734	0.235417	0.052275
	O1235	O	0.670630	0.169545	0.096537
	O1236	O	0.580884	0.216457	0.050673
	O1237	O	0.833655	0.150372	0.094779
	O1238	O	0.589879	0.169214	0.127537
	O1239	O	0.837541	0.235333	0.083280
	F1240	F	0.502070	0.159919	0.098798
	F1241	F	0.749847	0.225883	0.054882
	F1242	F	0.498907	0.225164	0.081047
	F1243	F	0.752031	0.159127	0.125022
	Al1244	Al	0.627132	0.159519	0.111883
	Al1245	Al	0.874767	0.225523	0.068101
	Al1246	Al	0.624415	0.225530	0.068009
	Al1247	Al	0.877312	0.159510	0.111821
	C1248	C	0.589075	0.254332	0.047350
	C1249	C	0.841840	0.188416	0.093383
	C1250	C	0.592438	0.131505	0.135446
	C1251	C	0.839027	0.197511	0.091437
	C1252	C	0.912428	0.185819	0.142975
	C1253	C	0.659728	0.251893	0.098673
	C1254	C	0.907940	0.198172	0.041234
	C1255	C	0.660535	0.132145	0.085335
	C1256	C	0.911485	0.130639	0.130742
	C1257	C	0.658721	0.196647	0.086432
	C1258	C	0.909177	0.253244	0.041756
	C1259	C	0.661509	0.187564	0.088393
	C1260	C	0.588425	0.199328	0.036389
	C1261	C	0.841050	0.133222	0.080993
	C1262	C	0.593346	0.186894	0.138557
	C1263	C	0.840025	0.253034	0.093806
	C1264	C	0.500918	0.249149	0.046165
	C1265	C	0.753146	0.183334	0.091921
	C1266	C	0.500665	0.135720	0.132020
	C1267	C	0.747383	0.201738	0.087973
	C1268	C	0.504009	0.181826	0.138173
	C1269	C	0.750927	0.247934	0.093672
	C1270	C	0.497319	0.203285	0.041461
	C1271	C	0.749747	0.137205	0.085739
	C1272	C	0.502949	0.239519	0.051224
	C1273	C	0.755006	0.173625	0.095852
	C1274	C	0.498754	0.145429	0.127995
	C1275	C	0.745782	0.211454	0.084112
	C1276	C	0.504778	0.172550	0.131165
	C1277	C	0.752280	0.238636	0.086870
	C1278	C	0.496332	0.212518	0.048648
	C1279	C	0.748869	0.146484	0.092736
	H1280	H	0.660045	0.251263	0.050966
	H1281	H	0.912850	0.185223	0.096145
	H1282	H	0.661355	0.135375	0.136602
	H1283	H	0.907886	0.201378	0.092708
	H1284	H	0.842804	0.181996	0.142905
	H1285	H	0.590200	0.248052	0.098727
	H1286	H	0.836971	0.201126	0.045037
	H1287	H	0.589621	0.135109	0.089059
	H1288	H	0.840303	0.133830	0.128105
	H1289	H	0.587549	0.199815	0.083623
	H1290	H	0.840592	0.249317	0.040794
	H1291	H	0.592531	0.183715	0.087081
	H1292	H	0.657864	0.203181	0.036371
	H1293	H	0.910549	0.137058	0.081133
	H1294	H	0.664333	0.183918	0.134860
	H1295	H	0.911139	0.250132	0.089865
	O1296	O	0.090466	0.232604	0.160953
	O1297	O	0.342910	0.166628	0.205389
	O1298	O	0.085523	0.146019	0.234073
	O1299	O	0.333263	0.212022	0.189633
	O1300	O	0.422719	0.165158	0.235963
	O1301	O	0.170704	0.231139	0.191491
	O1302	O	0.414262	0.212322	0.158874
	O1303	O	0.166531	0.146346	0.203241
	O1304	O	0.416083	0.145498	0.232316
	O1305	O	0.163524	0.211462	0.187821
	O1306	O	0.421083	0.232063	0.158935
	O1307	O	0.173229	0.166082	0.203457
	O1308	O	0.083787	0.212925	0.157125
	O1309	O	0.336302	0.146913	0.201685
	O1310	O	0.092333	0.165721	0.234425
	O1311	O	0.340500	0.231753	0.189884
	F1312	F	0.004777	0.156465	0.205546
	F1313	F	0.252549	0.222449	0.161149
	F1314	F	0.002335	0.221633	0.187596
	F1315	F	0.254272	0.155639	0.231988
	Al1316	Al	0.129520	0.156054	0.218784
	Al1317	Al	0.377294	0.222045	0.174287
	Al1318	Al	0.127338	0.222032	0.174310
	Al1319	Al	0.379401	0.156046	0.218785
	C1320	C	0.092201	0.250896	0.155820
	C1321	C	0.344811	0.184927	0.199913
	C1322	C	0.094392	0.128009	0.242247
	C1323	C	0.342181	0.194014	0.197866
	C1324	C	0.415288	0.182360	0.249713
	C1325	C	0.163152	0.248329	0.205340
	C1326	C	0.411274	0.194656	0.147874
	C1327	C	0.162943	0.128684	0.192044
	C1328	C	0.414216	0.127161	0.237451
	C1329	C	0.161608	0.193168	0.193228
	C1330	C	0.412104	0.250073	0.150958
	C1331	C	0.164257	0.184076	0.195263
	C1332	C	0.091169	0.195698	0.143502
	C1333	C	0.343601	0.129750	0.187769
	C1334	C	0.095495	0.183400	0.245312
	C1335	C	0.343728	0.249400	0.201002
	C1336	C	0.003479	0.245818	0.154362
	C1337	C	0.255958	0.179851	0.198707
	C1338	C	0.002741	0.132239	0.238821
	C1339	C	0.250471	0.198244	0.194482
	C1340	C	0.006150	0.178340	0.244956
	C1341	C	0.254332	0.244340	0.200563
	C1342	C	0.000038	0.199699	0.148257
	C1343	C	0.252379	0.133726	0.192568
	C1344	C	0.005190	0.236113	0.158308
	C1345	C	0.257679	0.170151	0.202785
	C1346	C	0.001008	0.141954	0.234795
	C1347	C	0.248846	0.207950	0.190408
	C1348	C	0.007205	0.169046	0.238026
	C1349	C	0.255299	0.235061	0.193570
	C1350	C	-0.000896	0.208989	0.155212
	C1351	C	0.251600	0.143006	0.199608
	H1352	H	0.163386	0.247706	0.158568
	H1353	H	0.416056	0.181754	0.202589
	H1354	H	0.163294	0.131878	0.243408
	H1355	H	0.411313	0.197859	0.198954
	H1356	H	0.345760	0.178532	0.249623
	H1357	H	0.093540	0.244502	0.205232
	H1358	H	0.340372	0.197628	0.151595
	H1359	H	0.092085	0.131682	0.195724
	H1360	H	0.343110	0.130354	0.234734
	H1361	H	0.090596	0.196364	0.190524
	H1362	H	0.343205	0.246207	0.149712
	H1363	H	0.095268	0.180214	0.194159
	H1364	H	0.160783	0.199523	0.143608
	H1365	H	0.413019	0.133594	0.187935
	H1366	H	0.166419	0.180418	0.241606
	H1367	H	0.414756	0.246432	0.197307
	O1368	O	0.590912	0.232631	0.160996
	O1369	O	0.842512	0.166651	0.205319
	O1370	O	0.585897	0.146002	0.233983
	O1371	O	0.832773	0.212036	0.189995
	O1372	O	0.922543	0.165140	0.235940
	O1373	O	0.670040	0.231112	0.191693
	O1374	O	0.913977	0.212309	0.158960
	O1375	O	0.665957	0.146363	0.203076
	O1376	O	0.915679	0.145473	0.232190
	O1377	O	0.663181	0.211459	0.187760
	O1378	O	0.920656	0.232034	0.158997
	O1379	O	0.672811	0.166058	0.203276
	O1380	O	0.584021	0.212935	0.157174
	O1381	O	0.835843	0.146903	0.201502
	O1382	O	0.592473	0.165736	0.234281
	O1383	O	0.839873	0.231724	0.190100
	F1384	F	0.504403	0.156473	0.205565
	F1385	F	0.752674	0.222437	0.161331
	F1386	F	0.501868	0.221661	0.187493
	F1387	F	0.754236	0.155659	0.231788
	Al1388	Al	0.629301	0.156060	0.218688
	Al1389	Al	0.877512	0.222028	0.174494
	Al1390	Al	0.627253	0.222045	0.174407
	Al1391	Al	0.879721	0.156043	0.218689
	C1392	C	0.592469	0.250929	0.155900
	C1393	C	0.844466	0.184918	0.199946
	C1394	C	0.594615	0.128014	0.242250
	C1395	C	0.841831	0.194003	0.197951
	C1396	C	0.914899	0.182347	0.249727
	C1397	C	0.662465	0.248337	0.205383
	C1398	C	0.910709	0.194637	0.147919
	C1399	C	0.662497	0.128684	0.192107
	C1400	C	0.913996	0.127147	0.237444
	C1401	C	0.661247	0.193167	0.193263
	C1402	C	0.911828	0.250057	0.150893
	C1403	C	0.663881	0.184075	0.195251
	C1404	C	0.591674	0.195716	0.143489
	C1405	C	0.843116	0.129754	0.187777
	C1406	C	0.595742	0.183416	0.245248
	C1407	C	0.843019	0.249386	0.201023
	C1408	C	0.503819	0.245842	0.154385
	C1409	C	0.755538	0.179844	0.198631
	C1410	C	0.502922	0.132246	0.238801
	C1411	C	0.750177	0.198238	0.194510
	C1412	C	0.506458	0.178348	0.244918
	C1413	C	0.753704	0.244333	0.200659
	C1414	C	0.500520	0.199715	0.148234
	C1415	C	0.751770	0.133740	0.192455
	C1416	C	0.505551	0.236130	0.158288
	C1417	C	0.757154	0.170139	0.202619
	C1418	C	0.501301	0.141960	0.234819
	C1419	C	0.748425	0.207954	0.190548
	C1420	C	0.507428	0.169070	0.237942
	C1421	C	0.754651	0.235039	0.193737
	C1422	C	0.499408	0.209000	0.155221
	C1423	C	0.750978	0.143018	0.199440
	H1424	H	0.663603	0.247741	0.158689
	H1425	H	0.915663	0.181731	0.202639
	H1426	H	0.663599	0.131873	0.243434
	H1427	H	0.910898	0.197840	0.199141
	H1428	H	0.845349	0.178521	0.249627
	H1429	H	0.592922	0.244509	0.205282
	H1430	H	0.839751	0.197605	0.151653
	H1431	H	0.591649	0.131680	0.195827
	H1432	H	0.842868	0.130335	0.234708
	H1433	H	0.590167	0.196365	0.190611
	H1434	H	0.842810	0.246195	0.149648
	H1435	H	0.594874	0.180211	0.194113
	H1436	H	0.661227	0.199536	0.143590
	H1437	H	0.912607	0.133593	0.187965
	H1438	H	0.666739	0.180447	0.241528
	H1439	H	0.914078	0.246406	0.197388
	O1440	O	0.093034	0.229077	0.267681
	O1441	O	0.344851	0.163117	0.312127
	O1442	O	0.088201	0.142509	0.340987
	O1443	O	0.335889	0.208513	0.296644
	O1444	O	0.424746	0.161702	0.342697
	O1445	O	0.172347	0.227665	0.298357
	O1446	O	0.416780	0.208836	0.265653
	O1447	O	0.168814	0.142866	0.309963
	O1448	O	0.418559	0.141967	0.338982
	O1449	O	0.166172	0.207972	0.294672
	O1450	O	0.423286	0.228568	0.265916
	O1451	O	0.175119	0.162547	0.310158
	O1452	O	0.086500	0.209390	0.264122
	O1453	O	0.338660	0.143410	0.308527
	O1454	O	0.094543	0.162208	0.341190
	O1455	O	0.342154	0.228235	0.296886
	F1456	F	0.007124	0.152924	0.312453
	F1457	F	0.254976	0.218941	0.268080
	F1458	F	0.004714	0.218130	0.294420
	F1459	F	0.256559	0.152137	0.338755
	Al1460	Al	0.131823	0.152542	0.325608
	Al1461	Al	0.379722	0.218537	0.281303
	Al1462	Al	0.129801	0.218532	0.281254
	Al1463	Al	0.381802	0.152537	0.325656
	C1464	C	0.094822	0.247390	0.262510
	C1465	C	0.346754	0.181396	0.306852
	C1466	C	0.097163	0.124485	0.349111
	C1467	C	0.344397	0.190487	0.304829
	C1468	C	0.417835	0.178875	0.356536
	C1469	C	0.164964	0.244887	0.312153
	C1470	C	0.413548	0.191174	0.254682
	C1471	C	0.165428	0.125181	0.298954
	C1472	C	0.416998	0.123671	0.344180
	C1473	C	0.163983	0.189679	0.299970
	C1474	C	0.414744	0.246578	0.257690
	C1475	C	0.166324	0.180590	0.301981
	C1476	C	0.093870	0.192219	0.250247
	C1477	C	0.345908	0.126272	0.294568
	C1478	C	0.098065	0.179907	0.352088
	C1479	C	0.345485	0.245922	0.307729
	C1480	C	0.006150	0.242310	0.261082
	C1481	C	0.257854	0.176335	0.305416
	C1482	C	0.005508	0.128714	0.345615
	C1483	C	0.252919	0.194741	0.301352
	C1484	C	0.008850	0.174827	0.351871
	C1485	C	0.256096	0.240864	0.307386
	C1486	C	0.002713	0.196207	0.255065
	C1487	C	0.254700	0.130247	0.299381
	C1488	C	0.007773	0.232597	0.265094
	C1489	C	0.259508	0.166621	0.309428
	C1490	C	0.003885	0.138431	0.341681
	C1491	C	0.251399	0.204450	0.297353
	C1492	C	0.009528	0.165543	0.344885
	C1493	C	0.256992	0.231577	0.300434
	C1494	C	0.001731	0.205504	0.262038
	C1495	C	0.253909	0.139517	0.306410
	H1496	H	0.165864	0.244194	0.265274
	H1497	H	0.417721	0.178194	0.309609
	H1498	H	0.166111	0.128337	0.350383
	H1499	H	0.413477	0.194326	0.306044
	H1500	H	0.348301	0.175049	0.356457
	H1501	H	0.095137	0.241099	0.312071
	H1502	H	0.342718	0.194155	0.258427
	H1503	H	0.094407	0.128138	0.302652
	H1504	H	0.345885	0.126855	0.341449
	H1505	H	0.092955	0.192889	0.297219
	H1506	H	0.345723	0.242721	0.256563
	H1507	H	0.097187	0.176749	0.300803
	H1508	H	0.163369	0.196044	0.250323
	H1509	H	0.415358	0.130108	0.294663
	H1510	H	0.168986	0.176945	0.348280
	H1511	H	0.416683	0.242981	0.303997
	O1512	O	0.593074	0.229074	0.267732
	O1513	O	0.844866	0.163114	0.312107
	O1514	O	0.588162	0.142557	0.341105
	O1515	O	0.835712	0.208505	0.296656
	O1516	O	0.924791	0.161616	0.342944
	O1517	O	0.672048	0.227671	0.298418
	O1518	O	0.916633	0.208856	0.265628
	O1519	O	0.668352	0.142856	0.310014
	O1520	O	0.918387	0.141947	0.339031
	O1521	O	0.665903	0.207964	0.294800
	O1522	O	0.923238	0.228535	0.265837
	O1523	O	0.675076	0.162590	0.310361
	O1524	O	0.586579	0.209425	0.264114
	O1525	O	0.838048	0.143445	0.308327
	O1526	O	0.594577	0.162235	0.341208
	O1527	O	0.841856	0.228243	0.296882
	F1528	F	0.506950	0.152949	0.312455
	F1529	F	0.755023	0.218928	0.268188
	F1530	F	0.504324	0.218129	0.294413
	F1531	F	0.756811	0.152124	0.338710
	Al1532	Al	0.631834	0.152540	0.325633
	Al1533	Al	0.879853	0.218528	0.281312
	Al1534	Al	0.629604	0.218536	0.281288
	Al1535	Al	0.882049	0.152525	0.325591
	C1536	C	0.595283	0.247395	0.262412
	C1537	C	0.846796	0.181407	0.306797
	C1538	C	0.597209	0.124506	0.349197
	C1539	C	0.844259	0.190498	0.304805
	C1540	C	0.917722	0.178841	0.356683
	C1541	C	0.664388	0.244856	0.312279
	C1542	C	0.913270	0.191156	0.254658
	C1543	C	0.665081	0.125176	0.299012
	C1544	C	0.916733	0.123634	0.344167
	C1545	C	0.663915	0.189665	0.299833
	C1546	C	0.914466	0.246547	0.257664
	C1547	C	0.666462	0.180578	0.301838
	C1548	C	0.594018	0.192232	0.250213
	C1549	C	0.845620	0.126257	0.294582
	C1550	C	0.598248	0.179943	0.351988
	C1551	C	0.844921	0.245923	0.307786
	C1552	C	0.506397	0.242330	0.261088
	C1553	C	0.757990	0.176341	0.305398
	C1554	C	0.505686	0.128747	0.345638
	C1555	C	0.752724	0.194736	0.301287
	C1556	C	0.508944	0.174875	0.351699
	C1557	C	0.755594	0.240860	0.307448
	C1558	C	0.502912	0.196227	0.255018
	C1559	C	0.754364	0.130239	0.299355
	C1560	C	0.507884	0.232614	0.265119
	C1561	C	0.759592	0.166638	0.309514
	C1562	C	0.503856	0.138463	0.341673
	C1563	C	0.751193	0.204446	0.297374
	C1564	C	0.509535	0.165595	0.344743
	C1565	C	0.756709	0.231576	0.300472
	C1566	C	0.501961	0.205506	0.262044
	C1567	C	0.753401	0.139523	0.306336
	H1568	H	0.666328	0.244186	0.265127
	H1569	H	0.917871	0.178214	0.309606
	H1570	H	0.666086	0.128360	0.350524
	H1571	H	0.913242	0.194352	0.306072
	H1572	H	0.848168	0.175016	0.356627
	H1573	H	0.594603	0.241058	0.312226
	H1574	H	0.842459	0.194151	0.258350
	H1575	H	0.594106	0.128141	0.302750
	H1576	H	0.845591	0.126822	0.341425
	H1577	H	0.592869	0.192859	0.297064
	H1578	H	0.845513	0.242684	0.256495
	H1579	H	0.597491	0.176733	0.300610
	H1580	H	0.663537	0.196057	0.250317
	H1581	H	0.915103	0.130090	0.294690
	H1582	H	0.669178	0.176977	0.348190
	H1583	H	0.916119	0.242982	0.304066
	O1584	O	0.095353	0.225565	0.374509
	O1585	O	0.348237	0.159582	0.418548
	O1586	O	0.091073	0.139076	0.447624
	O1587	O	0.337834	0.205018	0.403518
	O1588	O	0.427909	0.158112	0.449347
	O1589	O	0.174695	0.224178	0.405239
	O1590	O	0.419018	0.205310	0.372650
	O1591	O	0.171443	0.139249	0.416765
	O1592	O	0.421130	0.138504	0.445709
	O1593	O	0.168019	0.204450	0.401559
	O1594	O	0.425575	0.225033	0.372737
	O1595	O	0.178516	0.159057	0.416752
	O1596	O	0.088696	0.205959	0.370807
	O1597	O	0.341258	0.139863	0.415108
	O1598	O	0.097350	0.158720	0.447563
	O1599	O	0.344544	0.224747	0.403625
	F1600	F	0.010088	0.149413	0.418854
	F1601	F	0.257378	0.215411	0.374971
	F1602	F	0.007107	0.214638	0.401311
	F1603	F	0.259493	0.148639	0.445272
	Al1604	Al	0.134822	0.149029	0.432041
	Al1605	Al	0.381909	0.215023	0.388152
	Al1606	Al	0.132166	0.215039	0.388092
	Al1607	Al	0.384725	0.149027	0.432069
	C1608	C	0.097359	0.243865	0.369216
	C1609	C	0.349737	0.177947	0.413597
	C1610	C	0.099506	0.121297	0.458285
	C1611	C	0.346837	0.187027	0.411675
	C1612	C	0.420485	0.175246	0.463628
	C1613	C	0.167206	0.241369	0.419057
	C1614	C	0.416137	0.187686	0.361549
	C1615	C	0.168455	0.121521	0.406285
	C1616	C	0.420121	0.120260	0.452654
	C1617	C	0.166490	0.186140	0.406648
	C1618	C	0.416981	0.243054	0.364485
	C1619	C	0.169444	0.177043	0.408577
	C1620	C	0.096408	0.188728	0.357028
	C1621	C	0.348797	0.122660	0.401417
	C1622	C	0.100440	0.176347	0.458896
	C1623	C	0.347706	0.242435	0.414577
	C1624	C	0.008454	0.238798	0.367889
	C1625	C	0.261209	0.172836	0.412089
	C1626	C	0.008055	0.125404	0.453809
	C1627	C	0.255131	0.191234	0.408130
	C1628	C	0.011308	0.171260	0.458611
	C1629	C	0.258450	0.237383	0.414239
	C1630	C	0.005298	0.192722	0.361873
	C1631	C	0.257642	0.126611	0.406387
	C1632	C	0.010064	0.229089	0.371890
	C1633	C	0.263002	0.163119	0.415995
	C1634	C	0.006538	0.135034	0.448736
	C1635	C	0.253359	0.200946	0.404204
	C1636	C	0.012239	0.162010	0.451437
	C1637	C	0.259465	0.228094	0.407242
	C1638	C	0.004229	0.202004	0.368877
	C1639	C	0.256642	0.135914	0.413223
	H1640	H	0.168458	0.240671	0.371943
	H1641	H	0.421010	0.174787	0.416401
	H1642	H	0.168158	0.125207	0.459301
	H1643	H	0.415761	0.190890	0.412995
	H1644	H	0.351098	0.171393	0.463617
	H1645	H	0.097800	0.237518	0.418928
	H1646	H	0.345275	0.190656	0.365365
	H1647	H	0.097812	0.124474	0.410328
	H1648	H	0.349185	0.123327	0.449027
	H1649	H	0.095319	0.189325	0.403905
	H1650	H	0.347970	0.239206	0.363240
	H1651	H	0.100714	0.173161	0.407299
	H1652	H	0.165918	0.192563	0.357059
	H1653	H	0.418151	0.126519	0.401433
	H1654	H	0.171342	0.173415	0.454978
	H1655	H	0.418590	0.239453	0.410813
	O1656	O	0.595331	0.225574	0.374553
	O1657	O	0.848128	0.159648	0.418554
	O1658	O	0.590876	0.139115	0.447648
	O1659	O	0.837538	0.204998	0.403564
	O1660	O	0.927706	0.158066	0.449476
	O1661	O	0.674611	0.224166	0.405297
	O1662	O	0.918898	0.205307	0.372597
	O1663	O	0.671093	0.139255	0.416794
	O1664	O	0.921250	0.138527	0.445731
	O1665	O	0.667742	0.204479	0.401699
	O1666	O	0.925523	0.225026	0.372692
	O1667	O	0.678388	0.159033	0.416501
	O1668	O	0.588796	0.205936	0.370939
	O1669	O	0.840905	0.139843	0.415066
	O1670	O	0.597673	0.158750	0.447548
	O1671	O	0.844376	0.224775	0.403608
	F1672	F	0.509789	0.149428	0.418936
	F1673	F	0.757137	0.215417	0.375038
	F1674	F	0.506573	0.214644	0.401291
	F1675	F	0.759650	0.148680	0.445138
	Al1676	Al	0.634852	0.149053	0.431976
	Al1677	Al	0.882294	0.215015	0.388204
	Al1678	Al	0.631968	0.215043	0.388125
	Al1679	Al	0.885001	0.149036	0.431985
	C1680	C	0.597402	0.243892	0.369407
	C1681	C	0.849235	0.177931	0.413580
	C1682	C	0.599878	0.121339	0.458345
	C1683	C	0.846229	0.187011	0.411675
	C1684	C	0.920116	0.175213	0.463697
	C1685	C	0.666986	0.241369	0.419018
	C1686	C	0.916020	0.187656	0.361616
	C1687	C	0.667877	0.121529	0.406273
	C1688	C	0.919730	0.120248	0.452633
	C1689	C	0.665941	0.186142	0.406568
	C1690	C	0.916779	0.243044	0.364418
	C1691	C	0.668911	0.177045	0.408468
	C1692	C	0.596616	0.188757	0.357001
	C1693	C	0.848122	0.122679	0.401358
	C1694	C	0.600693	0.176389	0.458777
	C1695	C	0.847473	0.242464	0.414512
	C1696	C	0.508567	0.238813	0.367990
	C1697	C	0.760596	0.172837	0.412016
	C1698	C	0.508342	0.125425	0.453831
	C1699	C	0.754555	0.191231	0.408178
	C1700	C	0.511568	0.171303	0.458547
	C1701	C	0.758217	0.237392	0.414207
	C1702	C	0.505416	0.192744	0.361845
	C1703	C	0.756997	0.126621	0.406361
	C1704	C	0.510057	0.229096	0.371979
	C1705	C	0.762643	0.163128	0.415878
	C1706	C	0.506457	0.135052	0.448742
	C1707	C	0.752960	0.200949	0.404301
	C1708	C	0.512512	0.162048	0.451339
	C1709	C	0.759218	0.228101	0.407248
	C1710	C	0.504201	0.202009	0.368923
	C1711	C	0.756176	0.135917	0.413195
	H1712	H	0.668550	0.240703	0.372184
	H1713	H	0.920322	0.174768	0.416394
	H1714	H	0.668435	0.125267	0.459367
	H1715	H	0.915156	0.190866	0.412995
	H1716	H	0.850780	0.171352	0.463707
	H1717	H	0.597541	0.237515	0.418938
	H1718	H	0.845116	0.190624	0.365410
	H1719	H	0.597214	0.124477	0.410298
	H1720	H	0.848856	0.123330	0.449028
	H1721	H	0.594831	0.189337	0.403749
	H1722	H	0.847663	0.239199	0.363218
	H1723	H	0.600199	0.173169	0.407108
	H1724	H	0.666100	0.192598	0.357082
	H1725	H	0.917478	0.126536	0.401367
	H1726	H	0.671550	0.173457	0.454800
	H1727	H	0.918360	0.239491	0.410708
	O1728	O	0.098476	0.222089	0.481137
	O1729	O	0.352499	0.156607	0.531519
	O1730	O	0.094292	0.137917	0.566568
	O1731	O	0.340288	0.201643	0.510426
	O1732	O	0.432192	0.155846	0.562856
	O1733	O	0.177987	0.220624	0.511730
	O1734	O	0.421256	0.201703	0.479472
	O1735	O	0.175231	0.136319	0.533222
	O1736	O	0.425160	0.137097	0.564733
	O1737	O	0.170754	0.200967	0.508072
	O1738	O	0.428641	0.221502	0.479029
	O1739	O	0.182843	0.155880	0.529312
	O1740	O	0.090780	0.202370	0.477472
	O1741	O	0.344888	0.137057	0.530858
	O1742	O	0.101830	0.156587	0.560552
	O1743	O	0.347767	0.221240	0.510036
	F1744	F	0.013991	0.146274	0.533823
	F1745	F	0.259861	0.211861	0.481415
	F1746	F	0.009770	0.211144	0.507786
	F1747	F	0.263400	0.146609	0.559892
	Al1748	Al	0.138644	0.146462	0.546802
	Al1749	Al	0.384682	0.211510	0.494576
	Al1750	Al	0.134779	0.211511	0.494530
	Al1751	Al	0.388472	0.146445	0.546765
	C1752	C	0.099813	0.240395	0.476073
	C1753	C	0.352907	0.174798	0.524112
	C1754	C	0.098548	0.124044	0.595744
	C1755	C	0.349638	0.183815	0.520809
	C1756	C	0.424511	0.172709	0.577912
	C1757	C	0.170608	0.237734	0.526067
	C1758	C	0.418638	0.184035	0.468739
	C1759	C	0.172706	0.118871	0.521523
	C1760	C	0.419494	0.122124	0.590975
	C1761	C	0.169808	0.182737	0.515280
	C1762	C	0.419657	0.239561	0.471146
	C1763	C	0.173100	0.173685	0.518585
	C1764	C	0.098555	0.185152	0.463958
	C1765	C	0.352390	0.120249	0.515464
	C1766	C	0.103852	0.174097	0.571883
	C1767	C	0.350930	0.238865	0.521322
	C1768	C	0.011172	0.235296	0.474566
	C1769	C	0.264716	0.169612	0.523050
	C1770	C	0.009001	0.126729	0.586253
	C1771	C	0.258082	0.187905	0.516368
	C1772	C	0.015041	0.168972	0.571879
	C1773	C	0.261712	0.233798	0.521029
	C1774	C	0.007313	0.189107	0.468886
	C1775	C	0.261596	0.123969	0.521598
	C1776	C	0.013018	0.225578	0.478420
	C1777	C	0.266956	0.159997	0.528282
	C1778	C	0.009437	0.134452	0.571410
	C1779	C	0.256082	0.197538	0.511307
	C1780	C	0.016586	0.159792	0.564593
	C1781	C	0.262614	0.224548	0.513786
	C1782	C	0.006173	0.198411	0.475686
	C1783	C	0.260402	0.133107	0.529142
	H1784	H	0.171094	0.237228	0.478843
	H1785	H	0.424164	0.171779	0.527698
	H1786	H	0.168049	0.127627	0.592391
	H1787	H	0.418418	0.187709	0.521815
	H1788	H	0.355710	0.168792	0.577900
	H1789	H	0.101582	0.233831	0.525987
	H1790	H	0.347787	0.186954	0.472735
	H1791	H	0.102522	0.121654	0.526454
	H1792	H	0.350200	0.124087	0.583573
	H1793	H	0.099009	0.185849	0.511715
	H1794	H	0.350681	0.235714	0.469845
	H1795	H	0.104847	0.169713	0.517649
	H1796	H	0.167916	0.189011	0.463944
	H1797	H	0.421263	0.124165	0.515361
	H1798	H	0.174200	0.171313	0.567040
	H1799	H	0.421395	0.235869	0.517349
	O1800	O	0.598296	0.222099	0.481199
	O1801	O	0.851964	0.156627	0.531484
	O1802	O	0.594442	0.137948	0.566656
	O1803	O	0.840116	0.201627	0.510549
	O1804	O	0.932219	0.155829	0.562824
	O1805	O	0.677509	0.220588	0.511917
	O1806	O	0.920924	0.201732	0.479363
	O1807	O	0.675047	0.136308	0.533215
	O1808	O	0.925002	0.137083	0.564699
	O1809	O	0.670565	0.200957	0.508144
	O1810	O	0.928796	0.221465	0.479007
	O1811	O	0.682316	0.155840	0.529231
	O1812	O	0.591010	0.202388	0.477531
	O1813	O	0.844612	0.137065	0.530767
	O1814	O	0.601927	0.156601	0.560471
	O1815	O	0.847299	0.221253	0.510144
	F1816	F	0.513557	0.146252	0.533941
	F1817	F	0.760013	0.211893	0.481544
	F1818	F	0.509353	0.211144	0.507777
	F1819	F	0.763449	0.146623	0.559812
	Al1820	Al	0.638591	0.146465	0.546791
	Al1821	Al	0.884963	0.211513	0.494676
	Al1822	Al	0.634555	0.211515	0.494600
	Al1823	Al	0.888592	0.146432	0.546706
	C1824	C	0.599962	0.240410	0.476131
	C1825	C	0.852129	0.174772	0.524094
	C1826	C	0.598757	0.124083	0.595790
	C1827	C	0.849217	0.183787	0.520805
	C1828	C	0.924037	0.172689	0.577930
	C1829	C	0.669689	0.237718	0.526166
	C1830	C	0.918194	0.184009	0.468765
	C1831	C	0.672292	0.118866	0.521498
	C1832	C	0.919212	0.122092	0.590926
	C1833	C	0.669373	0.182738	0.515287
	C1834	C	0.919502	0.239540	0.471111
	C1835	C	0.672336	0.173680	0.518576
	C1836	C	0.598822	0.185183	0.463882
	C1837	C	0.852000	0.120285	0.515370
	C1838	C	0.604302	0.174095	0.571943
	C1839	C	0.849944	0.238861	0.521339
	C1840	C	0.511247	0.235318	0.474679
	C1841	C	0.763884	0.169598	0.523011
	C1842	C	0.509082	0.126779	0.586360
	C1843	C	0.757779	0.187889	0.516378
	C1844	C	0.515523	0.168969	0.571972
	C1845	C	0.760839	0.233782	0.521107
	C1846	C	0.507679	0.189129	0.468895
	C1847	C	0.761210	0.123976	0.521533
	C1848	C	0.512960	0.225600	0.478497
	C1849	C	0.766265	0.159987	0.528245
	C1850	C	0.509568	0.134467	0.571448
	C1851	C	0.755885	0.197524	0.511360
	C1852	C	0.516716	0.159801	0.564561
	C1853	C	0.762050	0.224528	0.513953
	C1854	C	0.506519	0.198416	0.475770
	C1855	C	0.760137	0.133114	0.529039
	H1856	H	0.671265	0.237246	0.478881
	H1857	H	0.923309	0.171732	0.527679
	H1858	H	0.668280	0.127649	0.592388
	H1859	H	0.918114	0.187673	0.521802
	H1860	H	0.855198	0.168757	0.578023
	H1861	H	0.600740	0.233803	0.526151
	H1862	H	0.847361	0.186942	0.472704
	H1863	H	0.602188	0.121664	0.526451
	H1864	H	0.849914	0.124079	0.583559
	H1865	H	0.598626	0.185858	0.511732
	H1866	H	0.850468	0.235690	0.469830
	H1867	H	0.604056	0.169720	0.517661
	H1868	H	0.668156	0.189042	0.463871
	H1869	H	0.920767	0.124215	0.515227
	H1870	H	0.674572	0.171304	0.567051
	H1871	H	0.920523	0.235869	0.517397
	O1872	O	0.102313	0.219100	0.593879
	O1873	O	0.342959	0.164754	0.699008
	O1874	O	0.085516	0.148235	0.740254
	O1875	O	0.344518	0.200436	0.629036
	O1876	O	0.423461	0.165738	0.733233
	O1877	O	0.182058	0.218314	0.625320
	O1878	O	0.425143	0.198851	0.595552
	O1879	O	0.166294	0.145480	0.707015
	O1880	O	0.416363	0.147313	0.738348
	O1881	O	0.175219	0.199613	0.627170
	O1882	O	0.432761	0.218386	0.591789
	O1883	O	0.173474	0.163846	0.697249
	O1884	O	0.094710	0.199558	0.593307
	O1885	O	0.335715	0.146310	0.704091
	O1886	O	0.093295	0.166527	0.730539
	O1887	O	0.351744	0.219117	0.622919
	F1888	F	0.004784	0.155247	0.706041
	F1889	F	0.263494	0.208792	0.596325
	F1890	F	0.013138	0.209102	0.622257
	F1891	F	0.254776	0.156780	0.731358
	Al1892	Al	0.129760	0.156015	0.718715
	Al1893	Al	0.388445	0.208989	0.609207
	Al1894	Al	0.138467	0.208949	0.609198
	Al1895	Al	0.379775	0.156017	0.718640
	C1896	C	0.102577	0.237276	0.586635
	C1897	C	0.348419	0.179447	0.672171
	C1898	C	0.089701	0.134592	0.770146
	C1899	C	0.348716	0.186584	0.658261
	C1900	C	0.415931	0.182199	0.749785
	C1901	C	0.174100	0.235212	0.640349
	C1902	C	0.422600	0.181369	0.583978
	C1903	C	0.163739	0.128220	0.694227
	C1904	C	0.410812	0.132652	0.765367
	C1905	C	0.169424	0.184626	0.653361
	C1906	C	0.422915	0.236208	0.581096
	C1907	C	0.169066	0.177485	0.667271
	C1908	C	0.101882	0.182763	0.577892
	C1909	C	0.343375	0.129821	0.687832
	C1910	C	0.095522	0.183783	0.743253
	C1911	C	0.354008	0.236579	0.634518
	C1912	C	0.014419	0.232107	0.585488
	C1913	C	0.258565	0.174822	0.676852
	C1914	C	0.000129	0.137253	0.760592
	C1915	C	0.259184	0.189266	0.648746
	C1916	C	0.006849	0.178670	0.742988
	C1917	C	0.265063	0.231490	0.634384
	C1918	C	0.011066	0.186460	0.584051
	C1919	C	0.252556	0.133314	0.694613
	C1920	C	0.016758	0.222496	0.590691
	C1921	C	0.258270	0.167270	0.692151
	C1922	C	0.000670	0.144810	0.745298
	C1923	C	0.259615	0.196978	0.633892
	C1924	C	0.008297	0.169662	0.734917
	C1925	C	0.266453	0.222302	0.626999
	C1926	C	0.010163	0.195612	0.591548
	C1927	C	0.251263	0.142359	0.702521
	H1928	H	0.173652	0.234223	0.590258
	H1929	H	0.417700	0.177488	0.679645
	H1930	H	0.159167	0.138174	0.766704
	H1931	H	0.418293	0.190175	0.654919
	H1932	H	0.347579	0.178231	0.749651
	H1933	H	0.105366	0.231275	0.640357
	H1934	H	0.352415	0.184170	0.588827
	H1935	H	0.093785	0.130892	0.699606
	H1936	H	0.341535	0.134599	0.757903
	H1937	H	0.100126	0.186599	0.645944
	H1938	H	0.354384	0.232277	0.580101
	H1939	H	0.099613	0.173907	0.670679
	H1940	H	0.170621	0.186697	0.577707
	H1941	H	0.411779	0.133790	0.687939
	H1942	H	0.165400	0.181127	0.737768
	H1943	H	0.424326	0.233769	0.629752
	O1944	O	0.602547	0.219116	0.593930
	O1945	O	0.842717	0.164738	0.698906
	O1946	O	0.585778	0.148219	0.740187
	O1947	O	0.844035	0.200468	0.629108
	O1948	O	0.923774	0.165754	0.733143
	O1949	O	0.682061	0.218334	0.625392
	O1950	O	0.925086	0.198838	0.595678
	O1951	O	0.666301	0.145492	0.706885
	O1952	O	0.915998	0.147307	0.738380
	O1953	O	0.674731	0.199595	0.627146
	O1954	O	0.932552	0.218376	0.591674
	O1955	O	0.673221	0.163874	0.697217
	O1956	O	0.594764	0.199587	0.593260
	O1957	O	0.835883	0.146292	0.704113
	O1958	O	0.592958	0.166538	0.730551
	O1959	O	0.851740	0.219124	0.622957
	F1960	F	0.504837	0.155257	0.705992
	F1961	F	0.763634	0.208786	0.596405
	F1962	F	0.513220	0.209140	0.622312
	F1963	F	0.754657	0.156788	0.731284
	Al1964	Al	0.629708	0.156025	0.718680
	Al1965	Al	0.888732	0.208971	0.609287
	Al1966	Al	0.638417	0.208957	0.609236
	Al1967	Al	0.879726	0.156012	0.718606
	C1968	C	0.602851	0.237304	0.586650
	C1969	C	0.848228	0.179460	0.672127
	C1970	C	0.589991	0.134638	0.770299
	C1971	C	0.848465	0.186599	0.658238
	C1972	C	0.916130	0.182167	0.749768
	C1973	C	0.674154	0.235202	0.640383
	C1974	C	0.922091	0.181351	0.583982
	C1975	C	0.664173	0.128204	0.694312
	C1976	C	0.910263	0.132639	0.765336
	C1977	C	0.669127	0.184628	0.653312
	C1978	C	0.922778	0.236202	0.580998
	C1979	C	0.668897	0.177489	0.667223
	C1980	C	0.602318	0.182758	0.577972
	C1981	C	0.843735	0.129815	0.687808
	C1982	C	0.595323	0.183813	0.743246
	C1983	C	0.853923	0.236615	0.634370
	C1984	C	0.514537	0.232130	0.585582
	C1985	C	0.758401	0.174830	0.676795
	C1986	C	0.500527	0.137285	0.760684
	C1987	C	0.758825	0.189288	0.648753
	C1988	C	0.506657	0.178705	0.742992
	C1989	C	0.765139	0.231488	0.634401
	C1990	C	0.511571	0.186467	0.584089
	C1991	C	0.752859	0.133317	0.694529
	C1992	C	0.516897	0.222506	0.590755
	C1993	C	0.758071	0.167280	0.692091
	C1994	C	0.500901	0.144816	0.745312
	C1995	C	0.759168	0.196988	0.633901
	C1996	C	0.507916	0.169674	0.734952
	C1997	C	0.766513	0.222309	0.627055
	C1998	C	0.510339	0.195625	0.591557
	C1999	C	0.751345	0.142361	0.702441
	H2000	H	0.673984	0.234248	0.590228
	H2001	H	0.917552	0.177514	0.679574
	H2002	H	0.659467	0.138225	0.766908
	H2003	H	0.918043	0.190185	0.654897
	H2004	H	0.847689	0.178206	0.749625
	H2005	H	0.605424	0.231262	0.640431
	H2006	H	0.851860	0.184146	0.588863
	H2007	H	0.594370	0.130879	0.699777
	H2008	H	0.840918	0.134609	0.757917
	H2009	H	0.599808	0.186600	0.645845
	H2010	H	0.854185	0.232279	0.580006
	H2011	H	0.599386	0.173904	0.670626
	H2012	H	0.671095	0.186688	0.577825
	H2013	H	0.912122	0.133792	0.687915
	H2014	H	0.665115	0.181140	0.737760
	H2015	H	0.924246	0.233825	0.629497
	O2016	O	0.092890	0.227247	0.761568
	O2017	O	0.334077	0.174978	0.872919
	O2018	O	0.076825	0.156159	0.908243
	O2019	O	0.335877	0.210690	0.802751
	O2020	O	0.414534	0.174970	0.906700
	O2021	O	0.173423	0.228216	0.795761
	O2022	O	0.416366	0.207998	0.769426
	O2023	O	0.157197	0.155450	0.876963
	O2024	O	0.406784	0.155454	0.906103
	O2025	O	0.166479	0.209824	0.800997
	O2026	O	0.423355	0.226325	0.759728
	O2027	O	0.164853	0.174104	0.870976
	O2028	O	0.085781	0.208768	0.766743
	O2029	O	0.326876	0.156173	0.874772
	O2030	O	0.083917	0.175698	0.904365
	O2031	O	0.342907	0.229012	0.793035
	F2032	F	-0.004227	0.165422	0.877691
	F2033	F	0.254506	0.217751	0.768574
	F2034	F	0.004307	0.219243	0.793910
	F2035	F	0.245645	0.165762	0.903650
	Al2036	Al	0.120722	0.165562	0.890763
	Al2037	Al	0.379531	0.218504	0.781215
	Al2038	Al	0.129519	0.218512	0.781252
	Al2039	Al	0.370722	0.165594	0.890752
	C2040	C	0.098205	0.241943	0.734608
	C2041	C	0.339766	0.189917	0.846649
	C2042	C	0.086190	0.138346	0.918899
	C2043	C	0.340035	0.197050	0.832717
	C2044	C	0.407026	0.191756	0.922031
	C2045	C	0.166089	0.244711	0.812053
	C2046	C	0.413911	0.190700	0.756826
	C2047	C	0.155038	0.137929	0.865557
	C2048	C	0.406426	0.137287	0.913446
	C2049	C	0.160735	0.195182	0.828056
	C2050	C	0.418953	0.239987	0.729845
	C2051	C	0.160449	0.188051	0.841973
	C2052	C	0.093478	0.192278	0.750323
	C2053	C	0.334876	0.139331	0.859713
	C2054	C	0.086769	0.193126	0.916308
	C2055	C	0.345556	0.246257	0.805927
	C2056	C	0.008617	0.237296	0.739295
	C2057	C	0.250069	0.185317	0.851375
	C2058	C	-0.005358	0.142446	0.914514
	C2059	C	0.250497	0.199774	0.823294
	C2060	C	-0.002194	0.188036	0.916117
	C2061	C	0.256776	0.241188	0.805427
	C2062	C	0.002662	0.195781	0.757089
	C2063	C	0.243786	0.143058	0.865602
	C2064	C	0.008378	0.229749	0.754649
	C2065	C	0.249637	0.177613	0.866241
	C2066	C	-0.007361	0.152059	0.909245
	C2067	C	0.251014	0.207283	0.807865
	C2068	C	-0.001167	0.178910	0.908478
	C2069	C	0.257915	0.232149	0.797436
	C2070	C	0.001430	0.204822	0.765075
	C2071	C	0.242390	0.152233	0.872966
	H2072	H	0.167512	0.239997	0.742064
	H2073	H	0.409133	0.187926	0.853976
	H2074	H	0.154920	0.142264	0.919781
	H2075	H	0.409662	0.200567	0.829189
	H2076	H	0.338264	0.187834	0.922077
	H2077	H	0.097783	0.240754	0.811815
	H2078	H	0.344155	0.193360	0.762302
	H2079	H	0.084563	0.140700	0.870355
	H2080	H	0.335428	0.140336	0.909796
	H2081	H	0.091496	0.197162	0.820653
	H2082	H	0.349535	0.236408	0.733287
	H2083	H	0.090958	0.184496	0.845455
	H2084	H	0.161958	0.196234	0.750423
	H2085	H	0.403795	0.143244	0.859717
	H2086	H	0.157022	0.190319	0.911471
	H2087	H	0.415315	0.243537	0.800641
	O2088	O	0.592777	0.227256	0.761613
	O2089	O	0.833903	0.174935	0.872736
	O2090	O	0.576647	0.156157	0.908080
	O2091	O	0.835628	0.210691	0.802725
	O2092	O	0.914312	0.174989	0.906642
	O2093	O	0.673713	0.228239	0.795786
	O2094	O	0.916321	0.207960	0.769461
	O2095	O	0.657068	0.155428	0.876995
	O2096	O	0.907053	0.155472	0.906088
	O2097	O	0.666142	0.209836	0.801017
	O2098	O	0.923603	0.226305	0.759666
	O2099	O	0.664523	0.174128	0.870927
	O2100	O	0.585832	0.208774	0.766764
	O2101	O	0.826764	0.156202	0.874608
	O2102	O	0.584154	0.175693	0.904363
	O2103	O	0.843177	0.229050	0.793019
	F2104	F	0.495593	0.165414	0.877618
	F2105	F	0.754859	0.217751	0.768614
	F2106	F	0.504484	0.219284	0.793873
	F2107	F	0.745757	0.165780	0.903541
	Al2108	Al	0.620601	0.165577	0.890685
	Al2109	Al	0.879677	0.218500	0.781259
	Al2110	Al	0.629565	0.218527	0.781241
	Al2111	Al	0.871041	0.165588	0.890669
	C2112	C	0.598125	0.241933	0.734662
	C2113	C	0.839579	0.189946	0.846631
	C2114	C	0.586161	0.138365	0.919007
	C2115	C	0.839864	0.197095	0.832746
	C2116	C	0.906940	0.191761	0.922159
	C2117	C	0.665992	0.244748	0.812034
	C2118	C	0.914102	0.190663	0.756836
	C2119	C	0.654735	0.137930	0.865585
	C2120	C	0.906321	0.137283	0.913421
	C2121	C	0.660431	0.195175	0.828008
	C2122	C	0.919063	0.239969	0.729767
	C2123	C	0.660137	0.188032	0.841885
	C2124	C	0.593324	0.192309	0.750296
	C2125	C	0.834487	0.139315	0.859706
	C2126	C	0.586935	0.193139	0.916161
	C2127	C	0.845475	0.246290	0.805942
	C2128	C	0.508482	0.237305	0.739373
	C2129	C	0.749775	0.185325	0.851323
	C2130	C	0.494648	0.142455	0.914517
	C2131	C	0.750267	0.199778	0.823259
	C2132	C	0.498040	0.188031	0.916042
	C2133	C	0.756755	0.241238	0.805388
	C2134	C	0.502551	0.195813	0.757075
	C2135	C	0.743541	0.143050	0.865636
	C2136	C	0.508187	0.229756	0.754682
	C2137	C	0.749441	0.177590	0.866101
	C2138	C	0.492401	0.152061	0.909241
	C2139	C	0.750728	0.207306	0.807880
	C2140	C	0.499070	0.178909	0.908457
	C2141	C	0.758171	0.232180	0.797468
	C2142	C	0.501338	0.204841	0.765076
	C2143	C	0.742307	0.152232	0.872949
	H2144	H	0.667458	0.239972	0.742073
	H2145	H	0.908912	0.187947	0.853988
	H2146	H	0.654775	0.142288	0.919969
	H2147	H	0.909458	0.200648	0.829296
	H2148	H	0.838105	0.187841	0.922204
	H2149	H	0.597781	0.240779	0.811798
	H2150	H	0.844257	0.193317	0.762321
	H2151	H	0.584260	0.140701	0.870371
	H2152	H	0.835437	0.140355	0.909768
	H2153	H	0.591145	0.197162	0.820609
	H2154	H	0.849615	0.236394	0.733220
	H2155	H	0.590632	0.184450	0.845282
	H2156	H	0.661752	0.196275	0.750405
	H2157	H	0.903461	0.143217	0.859653
	H2158	H	0.657093	0.190326	0.911289
	H2159	H	0.915297	0.243570	0.800707
	O2160	O	0.084254	0.237450	0.935264
	O2161	O	0.337892	0.173620	0.992139
	O2162	O	0.080731	0.152979	1.020754
	O2163	O	0.326708	0.218718	0.970810
	O2164	O	0.417737	0.172195	1.022520
	O2165	O	0.164471	0.237460	0.969213
	O2166	O	0.407371	0.217952	0.939336
	O2167	O	0.161950	0.153345	0.989865
	O2168	O	0.411003	0.152463	1.018984
	O2169	O	0.157156	0.217921	0.968340
	O2170	O	0.414586	0.236635	0.933394
	O2171	O	0.168473	0.172911	0.989637
	O2172	O	0.077050	0.218663	0.937323
	O2173	O	0.331703	0.153925	0.988350
	O2174	O	0.087106	0.172767	1.020791
	O2175	O	0.334111	0.238207	0.966766
	F2176	F	-0.000056	0.163401	0.992231
	F2177	F	0.245883	0.227931	0.940085
	F2178	F	-0.003995	0.228257	0.966133
	F2179	F	0.249064	0.162642	1.018662
	Al2180	Al	0.124601	0.163008	1.005405
	Al2181	Al	0.370661	0.228078	0.953166
	Al2182	Al	0.120904	0.228101	0.953199
	Al2183	Al	0.374562	0.163042	1.005579
	C2184	C	0.089323	0.252370	0.908858
	C2185	C	0.339024	0.191808	0.984813
	C2186	C	0.089303	0.134990	1.028911
	C2187	C	0.336371	0.200837	0.981429
	C2188	C	0.409971	0.189381	1.036168
	C2189	C	0.156863	0.254298	0.984479
	C2190	C	0.405110	0.200419	0.928058
	C2191	C	0.158763	0.135718	0.978624
	C2192	C	0.409355	0.134164	1.024020
	C2193	C	0.156408	0.199816	0.975958
	C2194	C	0.410602	0.250597	0.904407
	C2195	C	0.159096	0.190781	0.979357
	C2196	C	0.084888	0.201784	0.922387
	C2197	C	0.338995	0.136821	0.973916
	C2198	C	0.090180	0.190492	1.031483
	C2199	C	0.336701	0.255666	0.978433
	C2200	C	-0.000186	0.247794	0.913730
	C2201	C	0.250529	0.186667	0.983771
	C2202	C	-0.002344	0.139216	1.025407
	C2203	C	0.244970	0.204952	0.976924
	C2204	C	0.001092	0.185401	1.031337
	C2205	C	0.247715	0.250574	0.978438
	C2206	C	-0.006136	0.205532	0.928242
	C2207	C	0.248020	0.140778	0.978989
	C2208	C	-0.000218	0.240066	0.928547
	C2209	C	0.252545	0.177033	0.988841
	C2210	C	-0.003823	0.148931	1.021452
	C2211	C	0.242787	0.214564	0.971678
	C2212	C	0.002058	0.176104	1.024454
	C2213	C	0.248966	0.241413	0.970917
	C2214	C	-0.007459	0.214725	0.935514
	C2215	C	0.247054	0.150027	0.986173
	H2216	H	0.158683	0.250328	0.916039
	H2217	H	0.409895	0.188729	0.988377
	H2218	H	0.158289	0.138844	1.030164
	H2219	H	0.405053	0.204745	0.982368
	H2220	H	0.340725	0.185513	1.036166
	H2221	H	0.087921	0.250383	0.984578
	H2222	H	0.334850	0.203217	0.932851
	H2223	H	0.087884	0.138666	0.982499
	H2224	H	0.338225	0.137355	1.021347
	H2225	H	0.085478	0.202906	0.972379
	H2226	H	0.341105	0.247079	0.907896
	H2227	H	0.090280	0.186875	0.978469
	H2228	H	0.153774	0.205694	0.922413
	H2229	H	0.408410	0.140656	0.973942
	H2230	H	0.161007	0.187553	1.027518
	H2231	H	0.406788	0.252850	0.973497
	O2232	O	0.583896	0.237426	0.935233
	O2233	O	0.837785	0.173612	0.991830
	O2234	O	0.580742	0.153047	1.020873
	O2235	O	0.826326	0.218679	0.970785
	O2236	O	0.917315	0.172186	1.022487
	O2237	O	0.664324	0.237472	0.969157
	O2238	O	0.907353	0.217963	0.939384
	O2239	O	0.661372	0.153316	0.989890
	O2240	O	0.910851	0.152481	1.018936
	O2241	O	0.656701	0.217942	0.968517
	O2242	O	0.915105	0.236593	0.933391
	O2243	O	0.668206	0.172928	0.989623
	O2244	O	0.577091	0.218658	0.937238
	O2245	O	0.831036	0.153951	0.988135
	O2246	O	0.587483	0.172806	1.020742
	O2247	O	0.833856	0.238243	0.966704
	F2248	F	0.499553	0.163401	0.992323
	F2249	F	0.745832	0.227910	0.940181
	F2250	F	0.495573	0.228274	0.966070
	F2251	F	0.749495	0.162677	1.018513
	Al2252	Al	0.624511	0.163037	1.005435
	Al2253	Al	0.870830	0.228071	0.953212
	Al2254	Al	0.620701	0.228093	0.953200
	Al2255	Al	0.874776	0.163043	1.005366
	C2256	C	0.589747	0.252405	0.908932
	C2257	C	0.838567	0.191816	0.984867
	C2258	C	0.589814	0.134993	1.028836
	C2259	C	0.835695	0.200847	0.981558
	C2260	C	0.909820	0.189365	1.036245
	C2261	C	0.656744	0.254286	0.984554
	C2262	C	0.905060	0.200418	0.928190
	C2263	C	0.658183	0.135708	0.978643
	C2264	C	0.908970	0.134132	1.023919
	C2265	C	0.655844	0.199807	0.975908
	C2266	C	0.910199	0.250556	0.904451
	C2267	C	0.658723	0.190770	0.979241
	C2268	C	0.584991	0.201799	0.922233
	C2269	C	0.838432	0.136817	0.973823
	C2270	C	0.590287	0.190527	1.031319
	C2271	C	0.836433	0.255691	0.978458
	C2272	C	0.500026	0.247826	0.913724
	C2273	C	0.750199	0.186671	0.983763
	C2274	C	0.498234	0.139236	1.025385
	C2275	C	0.744218	0.204949	0.977052
	C2276	C	0.501199	0.185434	1.031208
	C2277	C	0.747564	0.250575	0.978446
	C2278	C	0.493970	0.205537	0.928077
	C2279	C	0.747461	0.140774	0.978905
	C2280	C	0.499539	0.240094	0.928567
	C2281	C	0.752365	0.177037	0.988745
	C2282	C	0.496413	0.148958	1.021524
	C2283	C	0.742237	0.214559	0.971774
	C2284	C	0.502346	0.176139	1.024342
	C2285	C	0.748740	0.241435	0.970885
	C2286	C	0.492581	0.214724	0.935417
	C2287	C	0.746490	0.150025	0.986075
	H2288	H	0.659053	0.250367	0.916189
	H2289	H	0.909567	0.188738	0.988421
	H2290	H	0.658867	0.138838	1.030075
	H2291	H	0.904357	0.204761	0.982500
	H2292	H	0.840426	0.185512	1.036236
	H2293	H	0.587920	0.250365	0.984667
	H2294	H	0.834776	0.203224	0.932959
	H2295	H	0.587473	0.138669	0.982554
	H2296	H	0.837846	0.137320	1.021111
	H2297	H	0.585061	0.202885	0.972220
	H2298	H	0.840777	0.247022	0.907972
	H2299	H	0.590123	0.186844	0.978206
	H2300	H	0.653863	0.205711	0.922263
	H2301	H	0.907771	0.140669	0.973783
	H2302	H	0.661050	0.187582	1.027310
	H2303	H	0.906556	0.252906	0.973483
	O2304	O	0.084063	0.362435	0.060209
	O2305	O	0.338475	0.298603	0.116972
	O2306	O	0.080528	0.278030	0.145898
	O2307	O	0.326869	0.343697	0.095678
	O2308	O	0.417883	0.297188	0.147538
	O2309	O	0.164782	0.362470	0.094209
	O2310	O	0.407435	0.342966	0.064412
	O2311	O	0.161704	0.278340	0.114861
	O2312	O	0.410681	0.277461	0.143925
	O2313	O	0.157147	0.342966	0.093505
	O2314	O	0.414636	0.361643	0.058376
	O2315	O	0.168765	0.297982	0.114924
	O2316	O	0.076862	0.343713	0.062111
	O2317	O	0.331438	0.278952	0.113243
	O2318	O	0.087404	0.297813	0.145716
	O2319	O	0.334344	0.363214	0.091801
	F2320	F	-0.000138	0.288401	0.117268
	F2321	F	0.245899	0.352942	0.065076
	F2322	F	-0.004075	0.353283	0.091126
	F2323	F	0.249315	0.287654	0.143634
	Al2324	Al	0.124664	0.288030	0.130486
	Al2325	Al	0.370596	0.353095	0.078130
	Al2326	Al	0.120728	0.353103	0.078173
	Al2327	Al	0.374510	0.288038	0.130516
	C2328	C	0.089797	0.377300	0.033620
	C2329	C	0.339383	0.316854	0.109905
	C2330	C	0.089494	0.259998	0.153857
	C2331	C	0.336364	0.325894	0.106553
	C2332	C	0.410263	0.314407	0.161164
	C2333	C	0.157298	0.379260	0.109616
	C2334	C	0.404998	0.325445	0.053036
	C2335	C	0.158649	0.260710	0.103680
	C2336	C	0.409285	0.259168	0.149008
	C2337	C	0.156629	0.324800	0.101031
	C2338	C	0.410582	0.375641	0.029562
	C2339	C	0.159623	0.315779	0.104402
	C2340	C	0.084877	0.326820	0.047159
	C2341	C	0.338944	0.261826	0.098935
	C2342	C	0.089995	0.315504	0.156415
	C2343	C	0.336946	0.380676	0.103492
	C2344	C	0.000009	0.372793	0.038690
	C2345	C	0.251173	0.311692	0.108833
	C2346	C	-0.002174	0.264235	0.150461
	C2347	C	0.244845	0.329972	0.102071
	C2348	C	0.000843	0.310411	0.156256
	C2349	C	0.248173	0.375555	0.103467
	C2350	C	-0.006036	0.330539	0.053216
	C2351	C	0.247845	0.265786	0.103923
	C2352	C	-0.000324	0.365079	0.053493
	C2353	C	0.253162	0.302059	0.113909
	C2354	C	-0.003915	0.273955	0.146571
	C2355	C	0.242723	0.339578	0.096744
	C2356	C	0.002213	0.301115	0.149390
	C2357	C	0.249277	0.366425	0.095912
	C2358	C	-0.007475	0.339727	0.060455
	C2359	C	0.246870	0.275040	0.111095
	H2360	H	0.159326	0.375202	0.040637
	H2361	H	0.410249	0.313769	0.113467
	H2362	H	0.158511	0.263852	0.155082
	H2363	H	0.404771	0.329837	0.107458
	H2364	H	0.340858	0.310562	0.161147
	H2365	H	0.088597	0.375319	0.109750
	H2366	H	0.334697	0.328241	0.057835
	H2367	H	0.087642	0.263638	0.107579
	H2368	H	0.338159	0.262346	0.146227
	H2369	H	0.085658	0.327856	0.097410
	H2370	H	0.341156	0.372158	0.033227
	H2371	H	0.090946	0.311860	0.103459
	H2372	H	0.153641	0.330749	0.047016
	H2373	H	0.408458	0.265656	0.098959
	H2374	H	0.160828	0.312563	0.152453
	H2375	H	0.407045	0.377881	0.098526
	O2376	O	0.583960	0.362421	0.060146
	O2377	O	0.837843	0.298587	0.116729
	O2378	O	0.580402	0.278064	0.145982
	O2379	O	0.826122	0.343671	0.095814
	O2380	O	0.917645	0.297160	0.147478
	O2381	O	0.664260	0.362483	0.094114
	O2382	O	0.907249	0.342926	0.064543
	O2383	O	0.661138	0.278310	0.114974
	O2384	O	0.910616	0.277475	0.143947
	O2385	O	0.656429	0.342974	0.093565
	O2386	O	0.914876	0.361640	0.058445
	O2387	O	0.668158	0.297938	0.114717
	O2388	O	0.577168	0.343686	0.062157
	O2389	O	0.830813	0.278935	0.113171
	O2390	O	0.587659	0.297825	0.145689
	O2391	O	0.833856	0.363211	0.091861
	F2392	F	0.499561	0.288413	0.117318
	F2393	F	0.745840	0.352929	0.065185
	F2394	F	0.495388	0.353286	0.091023
	F2395	F	0.749382	0.287676	0.143525
	Al2396	Al	0.624446	0.288040	0.130452
	Al2397	Al	0.870749	0.353073	0.078225
	Al2398	Al	0.620524	0.353102	0.078168
	Al2399	Al	0.874715	0.288032	0.130363
	C2400	C	0.589785	0.377343	0.033693
	C2401	C	0.838560	0.316835	0.109907
	C2402	C	0.589608	0.260025	0.153953
	C2403	C	0.835360	0.325880	0.106659
	C2404	C	0.909685	0.314375	0.161221
	C2405	C	0.656891	0.379240	0.109671
	C2406	C	0.905217	0.325406	0.053207
	C2407	C	0.657893	0.260687	0.103707
	C2408	C	0.909148	0.259154	0.148921
	C2409	C	0.655616	0.324785	0.100923
	C2410	C	0.910401	0.375618	0.029551
	C2411	C	0.658781	0.315757	0.104207
	C2412	C	0.584754	0.326832	0.047110
	C2413	C	0.838181	0.261830	0.098870
	C2414	C	0.590433	0.315523	0.156333
	C2415	C	0.836617	0.380677	0.103453
	C2416	C	0.500084	0.372813	0.038671
	C2417	C	0.750312	0.311671	0.108766
	C2418	C	0.497931	0.264254	0.150492
	C2419	C	0.743790	0.329960	0.102138
	C2420	C	0.501347	0.310435	0.156194
	C2421	C	0.747747	0.375544	0.103529
	C2422	C	0.493788	0.330558	0.053104
	C2423	C	0.747063	0.265774	0.103908
	C2424	C	0.499575	0.365099	0.053532
	C2425	C	0.752418	0.302032	0.113743
	C2426	C	0.496073	0.273971	0.146596
	C2427	C	0.741864	0.339572	0.096857
	C2428	C	0.502482	0.301137	0.149363
	C2429	C	0.748745	0.366423	0.095929
	C2430	C	0.492597	0.339733	0.060458
	C2431	C	0.746166	0.275015	0.111123
	H2432	H	0.659152	0.375257	0.040782
	H2433	H	0.909569	0.313748	0.113464
	H2434	H	0.658504	0.263893	0.155215
	H2435	H	0.903805	0.329821	0.107652
	H2436	H	0.840284	0.310522	0.161230
	H2437	H	0.588128	0.375303	0.109795
	H2438	H	0.834760	0.328183	0.058006
	H2439	H	0.586972	0.263611	0.107642
	H2440	H	0.838038	0.262336	0.146104
	H2441	H	0.584658	0.327827	0.097226
	H2442	H	0.840854	0.372134	0.033211
	H2443	H	0.590245	0.311832	0.103112
	H2444	H	0.653713	0.330744	0.047061
	H2445	H	0.907672	0.265669	0.098845
	H2446	H	0.661213	0.312585	0.152344
	H2447	H	0.906685	0.377895	0.098383
	O2448	O	0.088149	0.361052	0.179375
	O2449	O	0.340626	0.295105	0.223512
	O2450	O	0.083150	0.274502	0.252281
	O2451	O	0.330759	0.340539	0.208413
	O2452	O	0.420335	0.293641	0.254086
	O2453	O	0.168203	0.359679	0.209916
	O2454	O	0.411563	0.340819	0.177414
	O2455	O	0.164438	0.274800	0.221454
	O2456	O	0.413856	0.273945	0.250384
	O2457	O	0.160992	0.339928	0.206376
	O2458	O	0.418696	0.360413	0.177099
	O2459	O	0.170842	0.294566	0.221727
	O2460	O	0.081135	0.341403	0.175793
	O2461	O	0.334214	0.275399	0.219755
	O2462	O	0.090095	0.294177	0.252661
	O2463	O	0.337922	0.360326	0.208102
	F2464	F	0.002701	0.284930	0.223718
	F2465	F	0.249732	0.350891	0.179756
	F2466	F	-0.000440	0.350144	0.206175
	F2467	F	0.252159	0.284095	0.250137
	Al2468	Al	0.127296	0.284509	0.236965
	Al2469	Al	0.374502	0.350534	0.192897
	Al2470	Al	0.124561	0.350507	0.192942
	Al2471	Al	0.377271	0.284527	0.236929
	C2472	C	0.089194	0.379289	0.172289
	C2473	C	0.342485	0.313403	0.218378
	C2474	C	0.092085	0.256486	0.260524
	C2475	C	0.339969	0.322488	0.216404
	C2476	C	0.412898	0.310801	0.268045
	C2477	C	0.160519	0.376883	0.223655
	C2478	C	0.408555	0.323208	0.166244
	C2479	C	0.161370	0.257133	0.210363
	C2480	C	0.412138	0.255674	0.255685
	C2481	C	0.159659	0.321659	0.211416
	C2482	C	0.409446	0.378250	0.166693
	C2483	C	0.162216	0.312571	0.213406
	C2484	C	0.088289	0.324301	0.161524
	C2485	C	0.341898	0.258205	0.206030
	C2486	C	0.093278	0.311852	0.263588
	C2487	C	0.340803	0.378019	0.218834
	C2488	C	0.000920	0.374126	0.171157
	C2489	C	0.253730	0.308334	0.216926
	C2490	C	0.000492	0.260719	0.257037
	C2491	C	0.248383	0.326733	0.212959
	C2492	C	0.003908	0.306804	0.263171
	C2493	C	0.251673	0.372921	0.218674
	C2494	C	-0.002786	0.328243	0.166614
	C2495	C	0.250640	0.262196	0.210757
	C2496	C	0.002939	0.364494	0.176196
	C2497	C	0.255319	0.298629	0.220968
	C2498	C	-0.001178	0.270425	0.252971
	C2499	C	0.246466	0.336442	0.209019
	C2500	C	0.004962	0.297511	0.256238
	C2501	C	0.252752	0.363629	0.211806
	C2502	C	-0.003550	0.337508	0.173719
	C2503	C	0.249570	0.271482	0.217738
	H2504	H	0.160199	0.376211	0.175853
	H2505	H	0.413598	0.310220	0.221169
	H2506	H	0.160946	0.260344	0.261721
	H2507	H	0.408978	0.326331	0.217628
	H2508	H	0.343422	0.306964	0.268004
	H2509	H	0.090956	0.373045	0.223641
	H2510	H	0.337796	0.326163	0.170151
	H2511	H	0.090391	0.260092	0.214092
	H2512	H	0.341072	0.258871	0.252995
	H2513	H	0.088750	0.324860	0.208605
	H2514	H	0.340893	0.374326	0.165687
	H2515	H	0.093234	0.308712	0.212174
	H2516	H	0.157653	0.328156	0.161508
	H2517	H	0.411430	0.262035	0.206178
	H2518	H	0.164272	0.308877	0.259891
	H2519	H	0.411734	0.375109	0.214832
	O2520	O	0.588339	0.361093	0.179456
	O2521	O	0.840439	0.295133	0.223447
	O2522	O	0.583518	0.274538	0.252313
	O2523	O	0.830263	0.340514	0.208490
	O2524	O	0.920244	0.293610	0.254095
	O2525	O	0.667650	0.359635	0.210188
	O2526	O	0.911264	0.340836	0.177462
	O2527	O	0.664006	0.274803	0.221340
	O2528	O	0.913444	0.273938	0.250349
	O2529	O	0.660529	0.339939	0.206433
	O2530	O	0.918623	0.360398	0.177137
	O2531	O	0.670662	0.294538	0.221527
	O2532	O	0.581377	0.341451	0.175715
	O2533	O	0.833738	0.275400	0.219599
	O2534	O	0.590147	0.294215	0.252479
	O2535	O	0.837326	0.360350	0.208256
	F2536	F	0.502265	0.284933	0.223784
	F2537	F	0.749763	0.350902	0.179913
	F2538	F	0.498981	0.350159	0.206071
	F2539	F	0.752260	0.284108	0.249987
	Al2540	Al	0.627266	0.284521	0.236885
	Al2541	Al	0.874718	0.350530	0.193048
	Al2542	Al	0.624429	0.350529	0.193018
	Al2543	Al	0.877547	0.284512	0.236811
	C2544	C	0.589201	0.379314	0.172360
	C2545	C	0.841927	0.313408	0.218463
	C2546	C	0.592611	0.256495	0.260409
	C2547	C	0.839374	0.322494	0.216527
	C2548	C	0.912716	0.310804	0.268039
	C2549	C	0.659623	0.376903	0.223673
	C2550	C	0.907900	0.323175	0.166300
	C2551	C	0.660695	0.257151	0.210304
	C2552	C	0.911747	0.255642	0.255686
	C2553	C	0.659056	0.321661	0.211507
	C2554	C	0.909422	0.378233	0.166720
	C2555	C	0.661657	0.312569	0.213444
	C2556	C	0.588768	0.324321	0.161453
	C2557	C	0.841219	0.258198	0.205945
	C2558	C	0.593386	0.311887	0.263530
	C2559	C	0.839928	0.378023	0.218822
	C2560	C	0.500974	0.374153	0.171155
	C2561	C	0.753228	0.308335	0.216966
	C2562	C	0.501035	0.260736	0.257019
	C2563	C	0.747712	0.326731	0.213051
	C2564	C	0.504090	0.306817	0.263187
	C2565	C	0.750741	0.372928	0.218730
	C2566	C	0.497770	0.328273	0.166532
	C2567	C	0.749960	0.262204	0.210642
	C2568	C	0.502965	0.364511	0.176208
	C2569	C	0.754995	0.298628	0.220883
	C2570	C	0.499235	0.270452	0.253027
	C2571	C	0.745860	0.336439	0.209104
	C2572	C	0.505064	0.297539	0.256175
	C2573	C	0.751996	0.363627	0.211970
	C2574	C	0.496757	0.337527	0.173666
	C2575	C	0.749062	0.271487	0.217609
	H2576	H	0.660194	0.376238	0.175976
	H2577	H	0.913052	0.310224	0.221213
	H2578	H	0.661645	0.260343	0.261551
	H2579	H	0.908329	0.326339	0.217766
	H2580	H	0.843212	0.306965	0.268020
	H2581	H	0.590086	0.373067	0.223733
	H2582	H	0.837084	0.326129	0.170193
	H2583	H	0.589708	0.260116	0.214010
	H2584	H	0.840656	0.258833	0.252955
	H2585	H	0.588007	0.324854	0.208680
	H2586	H	0.840753	0.374317	0.165721
	H2587	H	0.592692	0.308700	0.212169
	H2588	H	0.658072	0.328178	0.161449
	H2589	H	0.910738	0.262021	0.206092
	H2590	H	0.664347	0.308920	0.259766
	H2591	H	0.910922	0.375105	0.214843
	O2592	O	0.090591	0.357615	0.286093
	O2593	O	0.342954	0.291608	0.330319
	O2594	O	0.086166	0.270972	0.359042
	O2595	O	0.333249	0.336981	0.314654
	O2596	O	0.422809	0.290164	0.360899
	O2597	O	0.170500	0.356113	0.316671
	O2598	O	0.414389	0.337295	0.283886
	O2599	O	0.166701	0.271342	0.328220
	O2600	O	0.416217	0.270458	0.357304
	O2601	O	0.163420	0.336448	0.312855
	O2602	O	0.421156	0.357025	0.283948
	O2603	O	0.173165	0.291043	0.328517
	O2604	O	0.084207	0.337885	0.282300
	O2605	O	0.336470	0.271905	0.326677
	O2606	O	0.092363	0.290734	0.359386
	O2607	O	0.340314	0.356732	0.314900
	F2608	F	0.005124	0.281426	0.330609
	F2609	F	0.252123	0.347450	0.286247
	F2610	F	0.002066	0.346615	0.312630
	F2611	F	0.254394	0.280643	0.356980
	Al2612	Al	0.129707	0.281020	0.343822
	Al2613	Al	0.377032	0.347032	0.299306
	Al2614	Al	0.127163	0.347022	0.299420
	Al2615	Al	0.379677	0.281036	0.343793
	C2616	C	0.092045	0.375901	0.280765
	C2617	C	0.344786	0.309901	0.325072
	C2618	C	0.094742	0.252963	0.367231
	C2619	C	0.342050	0.318991	0.322989
	C2620	C	0.415188	0.307352	0.374733
	C2621	C	0.162850	0.373322	0.330406
	C2622	C	0.411230	0.319612	0.273034
	C2623	C	0.163370	0.253686	0.317131
	C2624	C	0.414382	0.252152	0.362489
	C2625	C	0.161533	0.318150	0.318257
	C2626	C	0.412157	0.375057	0.275969
	C2627	C	0.164285	0.309065	0.320330
	C2628	C	0.091464	0.320670	0.268523
	C2629	C	0.343882	0.254727	0.312719
	C2630	C	0.095344	0.308398	0.370380
	C2631	C	0.343311	0.374415	0.325958
	C2632	C	0.003374	0.370815	0.279324
	C2633	C	0.255972	0.304826	0.323734
	C2634	C	0.003117	0.257206	0.363774
	C2635	C	0.250336	0.323226	0.319568
	C2636	C	0.006079	0.303334	0.370008
	C2637	C	0.254133	0.369337	0.325659
	C2638	C	0.000350	0.324676	0.273322
	C2639	C	0.252772	0.258732	0.317523
	C2640	C	0.005260	0.361103	0.283330
	C2641	C	0.257571	0.295118	0.327752
	C2642	C	0.001608	0.266924	0.359829
	C2643	C	0.248692	0.332928	0.315481
	C2644	C	0.007151	0.294044	0.363049
	C2645	C	0.255161	0.360042	0.318659
	C2646	C	-0.000475	0.333981	0.280252
	C2647	C	0.251767	0.268002	0.324583
	H2648	H	0.163234	0.372716	0.283504
	H2649	H	0.415896	0.306721	0.327829
	H2650	H	0.163701	0.256814	0.368439
	H2651	H	0.411063	0.322849	0.324107
	H2652	H	0.345698	0.303508	0.374683
	H2653	H	0.093454	0.369474	0.330260
	H2654	H	0.340359	0.322582	0.276809
	H2655	H	0.092290	0.256643	0.320839
	H2656	H	0.343334	0.255342	0.359741
	H2657	H	0.090328	0.321342	0.315546
	H2658	H	0.343238	0.371198	0.274686
	H2659	H	0.095220	0.305206	0.319249
	H2660	H	0.160971	0.324505	0.268590
	H2661	H	0.413595	0.258523	0.312784
	H2662	H	0.166368	0.305428	0.366675
	H2663	H	0.414315	0.371447	0.322199
	O2664	O	0.590970	0.357606	0.285984
	O2665	O	0.842894	0.291628	0.330333
	O2666	O	0.586030	0.270983	0.359075
	O2667	O	0.833086	0.336995	0.314859
	O2668	O	0.922535	0.290117	0.361031
	O2669	O	0.670255	0.356135	0.316639
	O2670	O	0.914382	0.337324	0.283910
	O2671	O	0.666263	0.271347	0.328111
	O2672	O	0.916271	0.270467	0.357307
	O2673	O	0.663247	0.336450	0.312969
	O2674	O	0.920967	0.356998	0.283863
	O2675	O	0.673118	0.291062	0.328398
	O2676	O	0.584218	0.337891	0.282280
	O2677	O	0.836111	0.271888	0.326685
	O2678	O	0.592652	0.290749	0.359319
	O2679	O	0.840023	0.356730	0.315023
	F2680	F	0.504779	0.281433	0.330637
	F2681	F	0.752430	0.347399	0.286330
	F2682	F	0.501813	0.346621	0.312518
	F2683	F	0.754615	0.280617	0.356905
	Al2684	Al	0.629626	0.281024	0.343802
	Al2685	Al	0.877386	0.347007	0.299497
	Al2686	Al	0.627136	0.347022	0.299417
	Al2687	Al	0.879898	0.281020	0.343778
	C2688	C	0.592518	0.375908	0.280965
	C2689	C	0.844506	0.309915	0.325011
	C2690	C	0.594817	0.252993	0.367411
	C2691	C	0.841835	0.319004	0.322983
	C2692	C	0.914801	0.307338	0.374746
	C2693	C	0.662765	0.373318	0.330534
	C2694	C	0.910954	0.319618	0.272991
	C2695	C	0.662801	0.253659	0.317220
	C2696	C	0.914199	0.252145	0.362455
	C2697	C	0.661390	0.318149	0.318165
	C2698	C	0.911797	0.375056	0.275803
	C2699	C	0.664084	0.309065	0.320170
	C2700	C	0.591733	0.320695	0.268527
	C2701	C	0.843307	0.254726	0.312739
	C2702	C	0.595716	0.308436	0.370256
	C2703	C	0.843272	0.374395	0.326116
	C2704	C	0.503814	0.370828	0.279445
	C2705	C	0.755820	0.304835	0.323586
	C2706	C	0.503195	0.257223	0.363886
	C2707	C	0.750165	0.323229	0.319539
	C2708	C	0.506413	0.303377	0.369897
	C2709	C	0.754001	0.369340	0.325718
	C2710	C	0.500535	0.324676	0.273359
	C2711	C	0.752170	0.258715	0.317581
	C2712	C	0.505574	0.361108	0.283350
	C2713	C	0.757562	0.295132	0.327667
	C2714	C	0.501492	0.266932	0.359876
	C2715	C	0.748560	0.332936	0.315559
	C2716	C	0.507473	0.294080	0.362939
	C2717	C	0.754924	0.360051	0.318701
	C2718	C	0.499576	0.333968	0.280272
	C2719	C	0.751348	0.267994	0.324564
	H2720	H	0.663654	0.372714	0.283736
	H2721	H	0.915646	0.306734	0.327779
	H2722	H	0.663792	0.256847	0.368662
	H2723	H	0.910791	0.322856	0.324154
	H2724	H	0.845281	0.303505	0.374631
	H2725	H	0.593391	0.369465	0.330455
	H2726	H	0.840095	0.322601	0.276727
	H2727	H	0.591763	0.256607	0.320951
	H2728	H	0.843091	0.255335	0.359774
	H2729	H	0.590266	0.321335	0.315415
	H2730	H	0.842787	0.371203	0.274532
	H2731	H	0.595062	0.305202	0.319049
	H2732	H	0.661161	0.324534	0.268588
	H2733	H	0.913024	0.258531	0.312782
	H2734	H	0.666694	0.305471	0.366494
	H2735	H	0.914231	0.371425	0.322407
	O2736	O	0.093386	0.354065	0.392744
	O2737	O	0.345144	0.288126	0.437306
	O2738	O	0.088379	0.267510	0.466104
	O2739	O	0.335533	0.333506	0.421671
	O2740	O	0.425125	0.286654	0.467814
	O2741	O	0.172419	0.352632	0.423550
	O2742	O	0.416416	0.333827	0.390779
	O2743	O	0.168779	0.267841	0.435039
	O2744	O	0.418391	0.266959	0.464055
	O2745	O	0.165761	0.332955	0.419771
	O2746	O	0.423556	0.353544	0.390940
	O2747	O	0.175451	0.287531	0.435288
	O2748	O	0.086184	0.334400	0.389133
	O2749	O	0.338573	0.268402	0.433610
	O2750	O	0.094643	0.287234	0.466140
	O2751	O	0.342201	0.353274	0.421728
	F2752	F	0.007153	0.277921	0.437493
	F2753	F	0.254841	0.343899	0.393164
	F2754	F	0.004371	0.343146	0.419474
	F2755	F	0.256677	0.277131	0.463869
	Al2756	Al	0.131915	0.277520	0.450703
	Al2757	Al	0.379512	0.343533	0.406345
	Al2758	Al	0.129514	0.343514	0.406317
	Al2759	Al	0.381861	0.277534	0.450719
	C2760	C	0.095045	0.372382	0.387510
	C2761	C	0.346834	0.306401	0.431841
	C2762	C	0.097128	0.249494	0.474144
	C2763	C	0.344235	0.315491	0.429810
	C2764	C	0.417628	0.303868	0.481459
	C2765	C	0.164988	0.369874	0.437226
	C2766	C	0.413427	0.316157	0.379747
	C2767	C	0.165490	0.250174	0.424041
	C2768	C	0.416771	0.248657	0.469184
	C2769	C	0.163823	0.314649	0.424988
	C2770	C	0.414844	0.371570	0.382735
	C2771	C	0.166398	0.305560	0.427016
	C2772	C	0.093571	0.317214	0.375342
	C2773	C	0.345861	0.251245	0.419576
	C2774	C	0.097774	0.304918	0.477206
	C2775	C	0.345412	0.370926	0.432713
	C2776	C	0.006381	0.367285	0.386142
	C2777	C	0.258058	0.301324	0.430527
	C2778	C	0.005524	0.253729	0.470696
	C2779	C	0.252597	0.319728	0.426349
	C2780	C	0.008585	0.299837	0.476851
	C2781	C	0.256072	0.365872	0.432437
	C2782	C	0.002383	0.321210	0.380095
	C2783	C	0.254742	0.255234	0.424392
	C2784	C	0.008066	0.357570	0.390088
	C2785	C	0.259806	0.291618	0.434598
	C2786	C	0.003863	0.263443	0.466786
	C2787	C	0.251044	0.329440	0.422374
	C2788	C	0.009480	0.290556	0.469879
	C2789	C	0.256999	0.356575	0.425476
	C2790	C	0.001456	0.330496	0.387062
	C2791	C	0.253887	0.264500	0.431476
	H2792	H	0.166327	0.369209	0.390179
	H2793	H	0.417972	0.303211	0.434568
	H2794	H	0.166198	0.253340	0.475411
	H2795	H	0.413212	0.319346	0.430948
	H2796	H	0.348139	0.300037	0.481292
	H2797	H	0.095581	0.366025	0.437129
	H2798	H	0.342480	0.319112	0.383539
	H2799	H	0.094613	0.253147	0.427812
	H2800	H	0.345634	0.251830	0.466393
	H2801	H	0.092698	0.317828	0.422254
	H2802	H	0.345814	0.367724	0.381590
	H2803	H	0.097336	0.301701	0.425831
	H2804	H	0.163056	0.321046	0.375467
	H2805	H	0.415402	0.255074	0.419683
	H2806	H	0.168744	0.301952	0.473460
	H2807	H	0.416083	0.367924	0.428894
	O2808	O	0.593295	0.354102	0.392858
	O2809	O	0.845084	0.288139	0.437185
	O2810	O	0.588125	0.267527	0.466014
	O2811	O	0.835243	0.333506	0.421683
	O2812	O	0.924865	0.286630	0.467919
	O2813	O	0.672120	0.352611	0.423588
	O2814	O	0.916311	0.333838	0.390681
	O2815	O	0.668402	0.267827	0.435087
	O2816	O	0.918526	0.266967	0.464124
	O2817	O	0.665517	0.332949	0.419808
	O2818	O	0.923583	0.353498	0.390770
	O2819	O	0.675381	0.287539	0.435115
	O2820	O	0.586220	0.334396	0.389226
	O2821	O	0.838199	0.268409	0.433515
	O2822	O	0.594858	0.287264	0.466084
	O2823	O	0.841848	0.353313	0.421639
	F2824	F	0.506877	0.277939	0.437476
	F2825	F	0.754596	0.343913	0.393199
	F2826	F	0.504052	0.343122	0.419473
	F2827	F	0.756669	0.277137	0.463749
	Al2828	Al	0.631882	0.277542	0.450596
	Al2829	Al	0.879641	0.343529	0.406296
	Al2830	Al	0.629409	0.343517	0.406358
	Al2831	Al	0.882113	0.277534	0.450647
	C2832	C	0.595165	0.372408	0.387551
	C2833	C	0.846698	0.306399	0.431916
	C2834	C	0.597147	0.249506	0.474162
	C2835	C	0.844048	0.315487	0.429885
	C2836	C	0.917250	0.303835	0.481629
	C2837	C	0.664403	0.369857	0.437333
	C2838	C	0.913005	0.316147	0.379713
	C2839	C	0.665191	0.250176	0.424011
	C2840	C	0.916822	0.248637	0.469200
	C2841	C	0.663598	0.314654	0.424979
	C2842	C	0.914664	0.371523	0.382709
	C2843	C	0.666255	0.305570	0.426983
	C2844	C	0.593894	0.317244	0.375264
	C2845	C	0.845667	0.251272	0.419536
	C2846	C	0.598116	0.304945	0.477093
	C2847	C	0.844770	0.370928	0.432741
	C2848	C	0.506419	0.367327	0.386157
	C2849	C	0.757915	0.301334	0.430476
	C2850	C	0.505432	0.253742	0.470708
	C2851	C	0.752392	0.319726	0.426371
	C2852	C	0.508891	0.299863	0.476752
	C2853	C	0.755480	0.365868	0.432468
	C2854	C	0.502627	0.321225	0.380078
	C2855	C	0.754465	0.255238	0.424382
	C2856	C	0.508029	0.357613	0.390194
	C2857	C	0.759694	0.291631	0.434483
	C2858	C	0.503714	0.263456	0.466733
	C2859	C	0.750800	0.329432	0.422385
	C2860	C	0.509768	0.290582	0.469788
	C2861	C	0.756588	0.356578	0.425478
	C2862	C	0.501510	0.330496	0.387120
	C2863	C	0.753531	0.264501	0.431458
	H2864	H	0.666329	0.369226	0.390300
	H2865	H	0.917770	0.303210	0.434732
	H2866	H	0.666086	0.253364	0.475397
	H2867	H	0.912968	0.319341	0.431096
	H2868	H	0.847736	0.299997	0.481532
	H2869	H	0.595074	0.365994	0.437280
	H2870	H	0.842082	0.319126	0.383440
	H2871	H	0.594273	0.253143	0.427794
	H2872	H	0.845653	0.251818	0.466442
	H2873	H	0.592458	0.317836	0.422211
	H2874	H	0.845657	0.367661	0.381541
	H2875	H	0.597228	0.301713	0.425774
	H2876	H	0.663373	0.321085	0.375378
	H2877	H	0.915085	0.255115	0.419624
	H2878	H	0.669138	0.301977	0.473366
	H2879	H	0.915458	0.367935	0.428930
	O2880	O	0.095702	0.350617	0.499677
	O2881	O	0.348662	0.284631	0.543758
	O2882	O	0.090425	0.264131	0.572742
	O2883	O	0.337582	0.330040	0.528537
	O2884	O	0.428081	0.283096	0.574393
	O2885	O	0.175108	0.349128	0.530283
	O2886	O	0.418663	0.330302	0.497623
	O2887	O	0.171509	0.264231	0.541881
	O2888	O	0.420796	0.263490	0.570672
	O2889	O	0.167887	0.329447	0.526448
	O2890	O	0.425783	0.350018	0.497620
	O2891	O	0.178973	0.284041	0.541654
	O2892	O	0.088270	0.330950	0.495840
	O2893	O	0.341191	0.264892	0.540020
	O2894	O	0.097683	0.283747	0.572588
	O2895	O	0.344923	0.349766	0.528482
	F2896	F	0.010082	0.274418	0.543830
	F2897	F	0.256837	0.340407	0.499901
	F2898	F	0.006832	0.339630	0.526323
	F2899	F	0.259320	0.273663	0.570284
	Al2900	Al	0.134759	0.274041	0.557052
	Al2901	Al	0.381671	0.340029	0.513074
	Al2902	Al	0.131912	0.340033	0.513089
	Al2903	Al	0.384438	0.274036	0.557107
	C2904	C	0.097265	0.368900	0.494336
	C2905	C	0.349865	0.302941	0.538645
	C2906	C	0.099372	0.246318	0.583327
	C2907	C	0.346718	0.312031	0.536661
	C2908	C	0.420370	0.300208	0.588641
	C2909	C	0.167551	0.366339	0.544115
	C2910	C	0.415770	0.312679	0.486437
	C2911	C	0.168772	0.246539	0.531197
	C2912	C	0.419743	0.245246	0.577807
	C2913	C	0.166410	0.311138	0.531612
	C2914	C	0.416899	0.368048	0.489411
	C2915	C	0.169566	0.302046	0.533572
	C2916	C	0.095963	0.313738	0.482159
	C2917	C	0.349024	0.247675	0.526431
	C2918	C	0.100220	0.301362	0.583895
	C2919	C	0.347958	0.367435	0.539503
	C2920	C	0.008473	0.363814	0.492898
	C2921	C	0.261357	0.297833	0.537095
	C2922	C	0.007868	0.250412	0.578853
	C2923	C	0.255003	0.316244	0.533109
	C2924	C	0.011153	0.296273	0.583595
	C2925	C	0.258687	0.362371	0.539232
	C2926	C	0.004756	0.317718	0.486934
	C2927	C	0.257889	0.251625	0.531389
	C2928	C	0.010222	0.354103	0.496962
	C2929	C	0.263333	0.288127	0.541032
	C2930	C	0.006085	0.260049	0.573761
	C2931	C	0.253225	0.325953	0.529171
	C2932	C	0.012426	0.287032	0.576407
	C2933	C	0.259724	0.353073	0.532216
	C2934	C	0.003618	0.327008	0.493891
	C2935	C	0.256712	0.260919	0.538238
	H2936	H	0.168390	0.365715	0.497149
	H2937	H	0.421181	0.299786	0.541476
	H2938	H	0.167931	0.250239	0.584328
	H2939	H	0.415598	0.315895	0.537981
	H2940	H	0.351056	0.296339	0.588673
	H2941	H	0.098100	0.362490	0.544035
	H2942	H	0.344837	0.315652	0.490140
	H2943	H	0.098192	0.249512	0.535195
	H2944	H	0.348612	0.248296	0.574264
	H2945	H	0.095236	0.314305	0.528810
	H2946	H	0.347941	0.364195	0.488178
	H2947	H	0.100720	0.298168	0.532296
	H2948	H	0.165422	0.317583	0.482236
	H2949	H	0.418176	0.251563	0.526459
	H2950	H	0.171178	0.298432	0.579999
	H2951	H	0.418850	0.364467	0.535670
	O2952	O	0.595573	0.350585	0.499636
	O2953	O	0.848271	0.284632	0.543538
	O2954	O	0.590398	0.264136	0.572784
	O2955	O	0.837317	0.330003	0.528615
	O2956	O	0.927911	0.283081	0.574349
	O2957	O	0.674742	0.349149	0.530349
	O2958	O	0.918467	0.330313	0.497611
	O2959	O	0.670893	0.264245	0.541832
	O2960	O	0.920736	0.263517	0.570697
	O2961	O	0.667519	0.329458	0.526718
	O2962	O	0.925971	0.350007	0.497693
	O2963	O	0.678516	0.284023	0.541553
	O2964	O	0.588460	0.330942	0.495901
	O2965	O	0.840641	0.264858	0.539991
	O2966	O	0.597858	0.283773	0.572489
	O2967	O	0.844646	0.349791	0.528583
	F2968	F	0.509692	0.274401	0.543917
	F2969	F	0.757070	0.340424	0.500078
	F2970	F	0.506367	0.339645	0.526275
	F2971	F	0.759489	0.273681	0.570143
	Al2972	Al	0.634620	0.274044	0.557026
	Al2973	Al	0.882131	0.340026	0.513201
	Al2974	Al	0.631698	0.340038	0.513161
	Al2975	Al	0.884881	0.274040	0.556959
	C2976	C	0.597225	0.368893	0.494390
	C2977	C	0.849248	0.302921	0.538597
	C2978	C	0.599631	0.246340	0.583333
	C2979	C	0.846228	0.312009	0.536677
	C2980	C	0.919907	0.300211	0.588659
	C2981	C	0.667043	0.366342	0.544169
	C2982	C	0.915442	0.312646	0.486584
	C2983	C	0.667759	0.246529	0.531263
	C2984	C	0.919607	0.245246	0.577727
	C2985	C	0.665972	0.311132	0.531604
	C2986	C	0.916797	0.368056	0.489394
	C2987	C	0.669009	0.302039	0.533508
	C2988	C	0.596300	0.313760	0.482068
	C2989	C	0.847958	0.247675	0.526408
	C2990	C	0.600630	0.301368	0.583810
	C2991	C	0.847371	0.367456	0.539473
	C2992	C	0.508483	0.363820	0.492960
	C2993	C	0.760742	0.297822	0.537017
	C2994	C	0.507974	0.250421	0.578902
	C2995	C	0.754518	0.316232	0.533200
	C2996	C	0.511475	0.296277	0.583533
	C2997	C	0.758288	0.362369	0.539301
	C2998	C	0.505053	0.317740	0.486835
	C2999	C	0.756793	0.251624	0.531339
	C3000	C	0.510252	0.354094	0.496958
	C3001	C	0.762813	0.288117	0.540918
	C3002	C	0.506090	0.260050	0.573823
	C3003	C	0.752805	0.325942	0.529314
	C3004	C	0.512624	0.287040	0.576337
	C3005	C	0.759412	0.353082	0.532320
	C3006	C	0.503900	0.327008	0.493895
	C3007	C	0.755966	0.260922	0.538169
	H3008	H	0.668334	0.365711	0.497189
	H3009	H	0.920524	0.299768	0.541442
	H3010	H	0.668319	0.250256	0.584302
	H3011	H	0.915165	0.315867	0.538002
	H3012	H	0.850572	0.296353	0.588646
	H3013	H	0.597701	0.362479	0.544147
	H3014	H	0.844483	0.315618	0.490326
	H3015	H	0.597210	0.249499	0.535285
	H3016	H	0.848611	0.248310	0.574147
	H3017	H	0.594871	0.314312	0.528789
	H3018	H	0.847784	0.364204	0.488187
	H3019	H	0.600167	0.298167	0.532205
	H3020	H	0.665746	0.317604	0.482196
	H3021	H	0.917111	0.251563	0.526433
	H3022	H	0.671503	0.298438	0.579861
	H3023	H	0.918310	0.364509	0.535599
	O3024	O	0.098312	0.347099	0.606160
	O3025	O	0.352277	0.281618	0.656490
	O3026	O	0.094115	0.262939	0.691545
	O3027	O	0.340505	0.326647	0.635389
	O3028	O	0.432024	0.280872	0.687700
	O3029	O	0.178138	0.345593	0.636815
	O3030	O	0.421335	0.326745	0.604220
	O3031	O	0.175212	0.261314	0.658204
	O3032	O	0.425092	0.262114	0.689668
	O3033	O	0.171013	0.325958	0.633007
	O3034	O	0.428425	0.346501	0.603976
	O3035	O	0.182586	0.280875	0.654235
	O3036	O	0.090885	0.327366	0.602577
	O3037	O	0.344833	0.262050	0.655788
	O3038	O	0.101549	0.281557	0.685556
	O3039	O	0.347827	0.346248	0.634989
	F3040	F	0.013793	0.271275	0.658731
	F3041	F	0.259704	0.336908	0.606372
	F3042	F	0.009618	0.336142	0.632781
	F3043	F	0.263338	0.271610	0.684778
	Al3044	Al	0.138506	0.271459	0.671733
	Al3045	Al	0.384454	0.336530	0.619474
	Al3046	Al	0.134653	0.336526	0.619538
	Al3047	Al	0.388485	0.271449	0.671714
	C3048	C	0.099682	0.365389	0.601144
	C3049	C	0.352779	0.299771	0.649183
	C3050	C	0.098360	0.249087	0.720686
	C3051	C	0.349768	0.308810	0.645846
	C3052	C	0.424313	0.297696	0.702978
	C3053	C	0.170761	0.362727	0.651197
	C3054	C	0.418611	0.309004	0.593742
	C3055	C	0.172312	0.243862	0.646446
	C3056	C	0.419152	0.247144	0.715947
	C3057	C	0.169933	0.307740	0.640168
	C3058	C	0.419491	0.364548	0.595965
	C3059	C	0.172947	0.298709	0.643490
	C3060	C	0.098285	0.310164	0.588958
	C3061	C	0.352148	0.245236	0.640580
	C3062	C	0.103959	0.299056	0.696968
	C3063	C	0.350938	0.363867	0.646289
	C3064	C	0.011086	0.360301	0.599555
	C3065	C	0.264500	0.294614	0.648005
	C3066	C	0.008781	0.251772	0.711237
	C3067	C	0.258250	0.312902	0.641290
	C3068	C	0.015061	0.293952	0.696873
	C3069	C	0.261781	0.358773	0.646060
	C3070	C	0.007125	0.314114	0.593912
	C3071	C	0.261245	0.248959	0.646570
	C3072	C	0.012891	0.350589	0.603390
	C3073	C	0.266696	0.285000	0.653240
	C3074	C	0.009292	0.259476	0.696348
	C3075	C	0.256324	0.322531	0.636239
	C3076	C	0.016403	0.284781	0.689499
	C3077	C	0.262699	0.349533	0.638831
	C3078	C	0.006181	0.323416	0.600717
	C3079	C	0.260255	0.258105	0.654075
	H3080	H	0.170844	0.362212	0.603988
	H3081	H	0.423688	0.296705	0.652887
	H3082	H	0.167791	0.252670	0.717299
	H3083	H	0.418271	0.312745	0.646892
	H3084	H	0.355560	0.293765	0.703076
	H3085	H	0.101174	0.358893	0.651228
	H3086	H	0.347850	0.311933	0.597764
	H3087	H	0.102167	0.246658	0.651319
	H3088	H	0.349932	0.249136	0.708565
	H3089	H	0.098896	0.310805	0.636588
	H3090	H	0.350603	0.360685	0.594648
	H3091	H	0.104376	0.294790	0.642498
	H3092	H	0.167631	0.314022	0.588951
	H3093	H	0.421071	0.249141	0.640564
	H3094	H	0.174348	0.296257	0.692184
	H3095	H	0.422027	0.360972	0.642315
	O3096	O	0.598190	0.347101	0.606111
	O3097	O	0.851684	0.281639	0.656395
	O3098	O	0.594242	0.262993	0.691705
	O3099	O	0.840019	0.326640	0.635469
	O3100	O	0.931823	0.280839	0.687703
	O3101	O	0.677711	0.345606	0.636849
	O3102	O	0.921010	0.326770	0.604310
	O3103	O	0.674797	0.261301	0.658233
	O3104	O	0.924771	0.262099	0.689633
	O3105	O	0.670474	0.325987	0.633137
	O3106	O	0.928530	0.346479	0.603897
	O3107	O	0.681987	0.280878	0.654179
	O3108	O	0.591126	0.327367	0.602515
	O3109	O	0.844373	0.262087	0.655651
	O3110	O	0.601703	0.281582	0.685572
	O3111	O	0.847384	0.346270	0.635067
	F3112	F	0.513547	0.271276	0.658820
	F3113	F	0.759700	0.336899	0.606510
	F3114	F	0.509135	0.336155	0.632677
	F3115	F	0.763271	0.271632	0.684731
	Al3116	Al	0.638360	0.271476	0.671763
	Al3117	Al	0.884769	0.336516	0.619639
	Al3118	Al	0.634432	0.336519	0.619544
	Al3119	Al	0.888339	0.271446	0.671604
	C3120	C	0.599639	0.365407	0.601154
	C3121	C	0.852139	0.299778	0.649132
	C3122	C	0.598319	0.249086	0.720767
	C3123	C	0.849041	0.308816	0.645853
	C3124	C	0.924227	0.297682	0.702881
	C3125	C	0.669967	0.362713	0.651296
	C3126	C	0.918019	0.309013	0.593750
	C3127	C	0.672222	0.243857	0.646474
	C3128	C	0.919214	0.247115	0.715843
	C3129	C	0.669207	0.307766	0.640223
	C3130	C	0.919378	0.364540	0.596031
	C3131	C	0.672293	0.298730	0.643486
	C3132	C	0.598800	0.310164	0.588893
	C3133	C	0.851964	0.245274	0.640415
	C3134	C	0.604089	0.299096	0.697008
	C3135	C	0.850108	0.363886	0.646273
	C3136	C	0.511076	0.360318	0.599453
	C3137	C	0.763717	0.294628	0.648006
	C3138	C	0.508817	0.251788	0.711313
	C3139	C	0.757539	0.312921	0.641386
	C3140	C	0.515250	0.293981	0.696939
	C3141	C	0.761010	0.358779	0.646085
	C3142	C	0.507607	0.314111	0.593844
	C3143	C	0.761058	0.248969	0.646534
	C3144	C	0.512812	0.350592	0.603373
	C3145	C	0.765999	0.285014	0.653200
	C3146	C	0.509376	0.259507	0.696481
	C3147	C	0.755727	0.322549	0.636330
	C3148	C	0.516562	0.284804	0.689551
	C3149	C	0.762194	0.349550	0.638868
	C3150	C	0.506549	0.323414	0.600654
	C3151	C	0.759891	0.258112	0.654033
	H3152	H	0.670637	0.362216	0.604039
	H3153	H	0.923040	0.296699	0.652732
	H3154	H	0.667748	0.252669	0.717404
	H3155	H	0.917691	0.312732	0.646861
	H3156	H	0.855293	0.293770	0.702930
	H3157	H	0.600438	0.358868	0.651421
	H3158	H	0.847098	0.311938	0.597686
	H3159	H	0.602062	0.246649	0.651395
	H3160	H	0.849894	0.249082	0.708430
	H3161	H	0.598255	0.310842	0.636618
	H3162	H	0.850482	0.360674	0.594702
	H3163	H	0.603682	0.294816	0.642437
	H3164	H	0.668117	0.314021	0.588892
	H3165	H	0.920735	0.249211	0.640279
	H3166	H	0.674478	0.296299	0.692217
	H3167	H	0.921184	0.360993	0.642288
	O3168	O	0.102147	0.344097	0.718778
	O3169	O	0.342779	0.289727	0.823942
	O3170	O	0.085799	0.273199	0.865206
	O3171	O	0.344512	0.325461	0.754027
	O3172	O	0.423488	0.290753	0.858217
	O3173	O	0.181790	0.343391	0.750060
	O3174	O	0.424984	0.323834	0.720606
	O3175	O	0.166459	0.270496	0.831866
	O3176	O	0.416574	0.272341	0.863396
	O3177	O	0.175216	0.324646	0.752194
	O3178	O	0.432715	0.343380	0.716614
	O3179	O	0.173310	0.288877	0.822234
	O3180	O	0.094984	0.324538	0.718265
	O3181	O	0.335884	0.271271	0.829217
	O3182	O	0.093259	0.291523	0.855510
	O3183	O	0.351526	0.344081	0.748001
	F3184	F	0.004728	0.280265	0.830980
	F3185	F	0.263510	0.333788	0.721273
	F3186	F	0.013305	0.334118	0.747228
	F3187	F	0.254608	0.281764	0.856331
	Al3188	Al	0.129725	0.281004	0.843654
	Al3189	Al	0.388547	0.333986	0.734165
	Al3190	Al	0.138566	0.333948	0.734124
	Al3191	Al	0.379568	0.281031	0.843647
	C3192	C	0.102735	0.362275	0.711641
	C3193	C	0.348698	0.304407	0.796983
	C3194	C	0.089543	0.259527	0.894972
	C3195	C	0.348931	0.311548	0.783092
	C3196	C	0.415847	0.307209	0.874673
	C3197	C	0.174165	0.360200	0.765329
	C3198	C	0.422352	0.306355	0.709041
	C3199	C	0.164154	0.253214	0.819086
	C3200	C	0.411014	0.257742	0.890503
	C3201	C	0.169460	0.309689	0.778451
	C3202	C	0.423001	0.361221	0.706040
	C3203	C	0.169273	0.302543	0.792351
	C3204	C	0.102213	0.307719	0.702995
	C3205	C	0.343574	0.254767	0.812961
	C3206	C	0.095519	0.308806	0.868318
	C3207	C	0.353996	0.361581	0.759472
	C3208	C	0.014423	0.357115	0.710442
	C3209	C	0.258810	0.299818	0.801776
	C3210	C	0.000184	0.262250	0.885610
	C3211	C	0.259309	0.314287	0.773721
	C3212	C	0.006885	0.303696	0.867962
	C3213	C	0.265200	0.356460	0.759412
	C3214	C	0.011367	0.311451	0.708982
	C3215	C	0.252806	0.258306	0.819508
	C3216	C	0.016732	0.347494	0.715604
	C3217	C	0.258178	0.292280	0.817113
	C3218	C	0.000854	0.269802	0.870296
	C3219	C	0.259617	0.321998	0.758870
	C3220	C	0.008283	0.294681	0.859902
	C3221	C	0.266389	0.347305	0.751978
	C3222	C	0.010528	0.320602	0.716493
	C3223	C	0.251412	0.267348	0.827462
	H3224	H	0.173653	0.359203	0.715324
	H3225	H	0.417993	0.302409	0.804353
	H3226	H	0.158998	0.263044	0.891398
	H3227	H	0.418529	0.315099	0.779648
	H3228	H	0.347396	0.303249	0.874523
	H3229	H	0.105179	0.356294	0.765305
	H3230	H	0.352235	0.309143	0.713952
	H3231	H	0.094434	0.255919	0.824410
	H3232	H	0.341818	0.259756	0.883205
	H3233	H	0.100091	0.311701	0.771154
	H3234	H	0.354508	0.357285	0.705032
	H3235	H	0.099605	0.299018	0.795878
	H3236	H	0.171156	0.311621	0.702925
	H3237	H	0.412017	0.258702	0.813246
	H3238	H	0.165489	0.306136	0.862919
	H3239	H	0.424401	0.358804	0.754649
	O3240	O	0.602446	0.344116	0.718812
	O3241	O	0.842879	0.289751	0.823898
	O3242	O	0.585958	0.273247	0.865186
	O3243	O	0.844149	0.325461	0.754007
	O3244	O	0.923793	0.290777	0.858105
	O3245	O	0.681925	0.343364	0.750214
	O3246	O	0.925338	0.323834	0.720589
	O3247	O	0.666292	0.270514	0.831910
	O3248	O	0.916382	0.272340	0.863417
	O3249	O	0.674885	0.324590	0.752017
	O3250	O	0.932408	0.343374	0.716643
	O3251	O	0.673471	0.288861	0.822147
	O3252	O	0.594639	0.324590	0.718131
	O3253	O	0.835713	0.271296	0.829150
	O3254	O	0.592970	0.291564	0.855488
	O3255	O	0.851513	0.344095	0.748078
	F3256	F	0.504695	0.280263	0.831000
	F3257	F	0.763843	0.333785	0.721265
	F3258	F	0.513561	0.334153	0.747158
	F3259	F	0.754762	0.281821	0.856234
	Al3260	Al	0.629701	0.281035	0.843657
	Al3261	Al	0.888888	0.333975	0.734251
	Al3262	Al	0.638634	0.333965	0.734050
	Al3263	Al	0.879878	0.281033	0.843598
	C3264	C	0.602780	0.362299	0.711712
	C3265	C	0.848268	0.304418	0.796904
	C3266	C	0.590139	0.259553	0.895030
	C3267	C	0.848445	0.311551	0.783010
	C3268	C	0.916090	0.307221	0.874614
	C3269	C	0.674013	0.360201	0.765373
	C3270	C	0.922521	0.306340	0.708956
	C3271	C	0.663837	0.253251	0.819082
	C3272	C	0.910354	0.257708	0.890571
	C3273	C	0.668946	0.309712	0.778500
	C3274	C	0.923050	0.361208	0.705844
	C3275	C	0.668773	0.302569	0.792420
	C3276	C	0.602105	0.307757	0.703015
	C3277	C	0.843297	0.254785	0.812982
	C3278	C	0.595417	0.308805	0.868327
	C3279	C	0.853692	0.361607	0.759328
	C3280	C	0.514561	0.357128	0.710532
	C3281	C	0.758410	0.299849	0.801791
	C3282	C	0.500741	0.262295	0.885639
	C3283	C	0.758744	0.314296	0.773706
	C3284	C	0.506650	0.303704	0.867930
	C3285	C	0.764971	0.356469	0.759388
	C3286	C	0.511148	0.311472	0.709048
	C3287	C	0.752431	0.258330	0.819523
	C3288	C	0.516827	0.347506	0.715646
	C3289	C	0.758253	0.292291	0.817074
	C3290	C	0.501175	0.269828	0.870280
	C3291	C	0.759239	0.321986	0.758810
	C3292	C	0.507929	0.294696	0.859877
	C3293	C	0.766336	0.347312	0.752048
	C3294	C	0.510085	0.320630	0.716447
	C3295	C	0.751177	0.267375	0.827438
	H3296	H	0.673846	0.359236	0.715356
	H3297	H	0.917703	0.302416	0.804179
	H3298	H	0.659643	0.263068	0.891462
	H3299	H	0.918022	0.315080	0.779490
	H3300	H	0.847527	0.303275	0.874423
	H3301	H	0.605196	0.356281	0.765450
	H3302	H	0.852345	0.309132	0.713865
	H3303	H	0.593999	0.255938	0.824376
	H3304	H	0.841125	0.259739	0.883324
	H3305	H	0.599569	0.311735	0.771197
	H3306	H	0.854446	0.357288	0.704733
	H3307	H	0.599285	0.299040	0.795982
	H3308	H	0.670868	0.311688	0.702932
	H3309	H	0.911600	0.258732	0.813283
	H3310	H	0.665424	0.306140	0.862944
	H3311	H	0.924067	0.358835	0.754460
	O3312	O	0.092814	0.352193	0.886422
	O3313	O	0.334117	0.299954	0.997837
	O3314	O	0.076638	0.281163	1.033193
	O3315	O	0.335855	0.335701	0.927699
	O3316	O	0.414549	0.299970	1.031671
	O3317	O	0.173696	0.353253	0.920710
	O3318	O	0.416243	0.333010	0.894344
	O3319	O	0.157579	0.280416	1.002032
	O3320	O	0.406797	0.280487	1.031204
	O3321	O	0.166408	0.334826	0.925934
	O3322	O	0.423449	0.351369	0.884686
	O3323	O	0.164869	0.299097	0.995873
	O3324	O	0.085948	0.333807	0.891631
	O3325	O	0.327218	0.281196	0.999682
	O3326	O	0.084079	0.300706	1.029229
	O3327	O	0.343322	0.354036	0.918044
	F3328	F	-0.004461	0.290414	1.002607
	F3329	F	0.254771	0.342796	0.893536
	F3330	F	0.004608	0.344262	0.918847
	F3331	F	0.245458	0.290765	1.028585
	Al3332	Al	0.120598	0.290562	1.015666
	Al3333	Al	0.379674	0.343529	0.906165
	Al3334	Al	0.129757	0.343522	0.906171
	Al3335	Al	0.370633	0.290597	1.015756
	C3336	C	0.098156	0.366879	0.859441
	C3337	C	0.339760	0.314967	0.971679
	C3338	C	0.085894	0.263365	1.043947
	C3339	C	0.339893	0.322108	0.957754
	C3340	C	0.406874	0.316788	1.047004
	C3341	C	0.165964	0.369754	0.937027
	C3342	C	0.413774	0.315710	0.881729
	C3343	C	0.155282	0.262957	0.990483
	C3344	C	0.406089	0.262280	1.038387
	C3345	C	0.160592	0.320158	0.952935
	C3346	C	0.419052	0.365070	0.854946
	C3347	C	0.160451	0.313024	0.966833
	C3348	C	0.093441	0.317305	0.875332
	C3349	C	0.334969	0.264316	0.984484
	C3350	C	0.086823	0.318155	1.041101
	C3351	C	0.345652	0.371315	0.930793
	C3352	C	0.008407	0.362297	0.864285
	C3353	C	0.250021	0.310326	0.976321
	C3354	C	-0.005664	0.267450	1.039497
	C3355	C	0.250318	0.324783	0.948226
	C3356	C	-0.002000	0.313040	1.041061
	C3357	C	0.256884	0.366232	0.930436
	C3358	C	0.002667	0.320822	0.882038
	C3359	C	0.244188	0.268055	0.990558
	C3360	C	0.008195	0.354737	0.879584
	C3361	C	0.249729	0.302595	0.991124
	C3362	C	-0.007563	0.277061	1.034205
	C3363	C	0.250955	0.332304	0.932835
	C3364	C	-0.000930	0.303900	1.033509
	C3365	C	0.258282	0.357181	0.922437
	C3366	C	0.001522	0.329852	0.890022
	C3367	C	0.242856	0.277222	0.997969
	H3368	H	0.167621	0.364888	0.866758
	H3369	H	0.408992	0.312974	0.979093
	H3370	H	0.154478	0.267292	1.044855
	H3371	H	0.409315	0.325683	0.954274
	H3372	H	0.338052	0.312876	1.047058
	H3373	H	0.097442	0.365813	0.936762
	H3374	H	0.344027	0.318378	0.887200
	H3375	H	0.084898	0.265741	0.995267
	H3376	H	0.335183	0.265359	1.034791
	H3377	H	0.091144	0.322097	0.945528
	H3378	H	0.349459	0.361545	0.858488
	H3379	H	0.090900	0.309455	0.970189
	H3380	H	0.161972	0.321257	0.875487
	H3381	H	0.403921	0.268218	0.984375
	H3382	H	0.156919	0.315365	1.036168
	H3383	H	0.415536	0.368630	0.925399
	O3384	O	0.592906	0.352199	0.886355
	O3385	O	0.834021	0.299983	0.997845
	O3386	O	0.576625	0.281161	1.033173
	O3387	O	0.835779	0.335704	0.927703
	O3388	O	0.914541	0.299950	1.031767
	O3389	O	0.673380	0.353275	0.920551
	O3390	O	0.916482	0.332991	0.894412
	O3391	O	0.657228	0.280456	1.001960
	O3392	O	0.906867	0.280492	1.031057
	O3393	O	0.666378	0.334789	0.925815
	O3394	O	0.923444	0.351338	0.884694
	O3395	O	0.664775	0.299127	0.995914
	O3396	O	0.585786	0.333781	0.891645
	O3397	O	0.826813	0.281220	0.999589
	O3398	O	0.584124	0.300718	1.029354
	O3399	O	0.842935	0.354022	0.918088
	F3400	F	0.495731	0.290421	1.002687
	F3401	F	0.754935	0.342740	0.893549
	F3402	F	0.504674	0.344278	0.918816
	F3403	F	0.745723	0.290783	1.028566
	Al3404	Al	0.620682	0.290581	1.015692
	Al3405	Al	0.879928	0.343508	0.906226
	Al3406	Al	0.629782	0.343512	0.906149
	Al3407	Al	0.870949	0.290599	1.015646
	C3408	C	0.598536	0.366915	0.859497
	C3409	C	0.839705	0.314950	0.971604
	C3410	C	0.585929	0.263381	1.044061
	C3411	C	0.839920	0.322082	0.957655
	C3412	C	0.907179	0.316738	1.047191
	C3413	C	0.665943	0.369741	0.937099
	C3414	C	0.913960	0.315725	0.881643
	C3415	C	0.654955	0.262945	0.990579
	C3416	C	0.906052	0.262285	1.038410
	C3417	C	0.660670	0.320135	0.952871
	C3418	C	0.918734	0.365024	0.854883
	C3419	C	0.660408	0.313013	0.966796
	C3420	C	0.593402	0.317302	0.875378
	C3421	C	0.834660	0.264351	0.984524
	C3422	C	0.586541	0.318173	1.041044
	C3423	C	0.845482	0.371286	0.930843
	C3424	C	0.508714	0.362330	0.864316
	C3425	C	0.749973	0.310315	0.976267
	C3426	C	0.494407	0.267443	1.039441
	C3427	C	0.750373	0.324759	0.948147
	C3428	C	0.497684	0.313067	1.040985
	C3429	C	0.756655	0.366213	0.930382
	C3430	C	0.502444	0.320821	0.881979
	C3431	C	0.743807	0.268062	0.990621
	C3432	C	0.508341	0.354764	0.879565
	C3433	C	0.749611	0.302611	0.991132
	C3434	C	0.492341	0.277067	1.034254
	C3435	C	0.750916	0.332287	0.932773
	C3436	C	0.498964	0.303928	1.033417
	C3437	C	0.757898	0.357191	0.922337
	C3438	C	0.501229	0.329856	0.889969
	C3439	C	0.742398	0.277248	0.997936
	H3440	H	0.667949	0.364921	0.866815
	H3441	H	0.908837	0.312960	0.979008
	H3442	H	0.654306	0.267329	1.045138
	H3443	H	0.909335	0.325641	0.954146
	H3444	H	0.838392	0.312816	1.047331
	H3445	H	0.597432	0.365802	0.936922
	H3446	H	0.843984	0.318397	0.887011
	H3447	H	0.584639	0.265738	0.995397
	H3448	H	0.835110	0.265351	1.034773
	H3449	H	0.591286	0.322077	0.945437
	H3450	H	0.849202	0.361488	0.858418
	H3451	H	0.590877	0.309446	0.970159
	H3452	H	0.661959	0.321252	0.875608
	H3453	H	0.903451	0.268279	0.984371
	H3454	H	0.656801	0.315396	1.036139
	H3455	H	0.915395	0.368592	0.925523
	O3456	O	0.092597	0.477155	0.011430
	O3457	O	0.334154	0.424936	0.122799
	O3458	O	0.076713	0.406164	0.158184
	O3459	O	0.336177	0.460683	0.052734
	O3460	O	0.414650	0.424966	0.156700
	O3461	O	0.173735	0.478244	0.045745
	O3462	O	0.416193	0.457978	0.019483
	O3463	O	0.157782	0.405467	0.126900
	O3464	O	0.406933	0.405456	0.156075
	O3465	O	0.166700	0.459870	0.051071
	O3466	O	0.423409	0.476344	0.009790
	O3467	O	0.164921	0.424122	0.120975
	O3468	O	0.086273	0.458727	0.016878
	O3469	O	0.327515	0.406173	0.124745
	O3470	O	0.084223	0.425704	0.154394
	O3471	O	0.343066	0.479041	0.042984
	F3472	F	-0.004123	0.415432	0.127667
	F3473	F	0.254951	0.467746	0.018580
	F3474	F	0.004808	0.469267	0.043890
	F3475	F	0.245812	0.415746	0.153650
	Al3476	Al	0.120940	0.415577	0.140759
	Al3477	Al	0.379874	0.468512	0.031260
	Al3478	Al	0.130005	0.468511	0.031219
	Al3479	Al	0.370892	0.415583	0.140747
	C3480	C	0.098306	0.491782	-0.015717
	C3481	C	0.340218	0.439847	0.096370
	C3482	C	0.086235	0.388336	0.168995
	C3483	C	0.340442	0.446990	0.082487
	C3484	C	0.407175	0.441782	0.171939
	C3485	C	0.166149	0.494699	0.062233
	C3486	C	0.413784	0.440720	0.006689
	C3487	C	0.155269	0.387927	0.115655
	C3488	C	0.406413	0.387285	0.163367
	C3489	C	0.160912	0.445271	0.078260
	C3490	C	0.419099	0.490098	-0.019896
	C3491	C	0.160699	0.438120	0.092146
	C3492	C	0.093504	0.442282	0.000341
	C3493	C	0.335002	0.389337	0.109571
	C3494	C	0.086773	0.443153	0.166238
	C3495	C	0.345541	0.496303	0.055787
	C3496	C	0.008508	0.487266	-0.010696
	C3497	C	0.250380	0.435313	0.101313
	C3498	C	-0.005262	0.392437	0.164543
	C3499	C	0.250858	0.449781	0.073264
	C3500	C	-0.002146	0.438046	0.166059
	C3501	C	0.256932	0.491179	0.055509
	C3502	C	0.002802	0.445784	0.007119
	C3503	C	0.244034	0.393058	0.115572
	C3504	C	0.007948	0.479729	0.004661
	C3505	C	0.249797	0.427581	0.116115
	C3506	C	-0.007368	0.402050	0.159251
	C3507	C	0.251221	0.457316	0.057920
	C3508	C	-0.000902	0.428921	0.158427
	C3509	C	0.258210	0.482163	0.047513
	C3510	C	0.001689	0.454809	0.015106
	C3511	C	0.242952	0.402233	0.122954
	H3512	H	0.167682	0.489736	-0.008521
	H3513	H	0.409646	0.437770	0.103502
	H3514	H	0.154853	0.392256	0.169939
	H3515	H	0.410102	0.450471	0.078809
	H3516	H	0.338326	0.437866	0.171947
	H3517	H	0.097690	0.490742	0.062088
	H3518	H	0.344102	0.443408	0.012111
	H3519	H	0.085055	0.390720	0.120551
	H3520	H	0.335446	0.390335	0.159713
	H3521	H	0.091542	0.447334	0.071101
	H3522	H	0.349553	0.486612	-0.016212
	H3523	H	0.091165	0.434629	0.095771
	H3524	H	0.161956	0.446239	0.000525
	H3525	H	0.403716	0.393275	0.109516
	H3526	H	0.157067	0.440364	0.161385
	H3527	H	0.415437	0.493644	0.050341
	O3528	O	0.592915	0.477250	0.011569
	O3529	O	0.833792	0.424901	0.122691
	O3530	O	0.576660	0.406172	0.158263
	O3531	O	0.835733	0.460650	0.052724
	O3532	O	0.914577	0.424987	0.156545
	O3533	O	0.673792	0.478207	0.045844
	O3534	O	0.916594	0.457967	0.019390
	O3535	O	0.657354	0.405431	0.126958
	O3536	O	0.906928	0.405453	0.156048
	O3537	O	0.666214	0.459849	0.051068
	O3538	O	0.923150	0.476342	0.009819
	O3539	O	0.664537	0.424117	0.120976
	O3540	O	0.585789	0.458795	0.016742
	O3541	O	0.827036	0.406157	0.124625
	O3542	O	0.584224	0.425698	0.154343
	O3543	O	0.843189	0.479007	0.043126
	F3544	F	0.495963	0.415422	0.127700
	F3545	F	0.754870	0.467748	0.018636
	F3546	F	0.504692	0.469293	0.043918
	F3547	F	0.745980	0.415726	0.153558
	Al3548	Al	0.620894	0.415559	0.140729
	Al3549	Al	0.879951	0.468474	0.031318
	Al3550	Al	0.629756	0.468520	0.031246
	Al3551	Al	0.871092	0.415581	0.140619
	C3552	C	0.598594	0.491816	-0.015693
	C3553	C	0.839586	0.439861	0.096457
	C3554	C	0.586070	0.388353	0.169058
	C3555	C	0.839841	0.447002	0.082585
	C3556	C	0.906872	0.441770	0.172044
	C3557	C	0.666086	0.494693	0.062143
	C3558	C	0.914015	0.440702	0.006730
	C3559	C	0.654945	0.387900	0.115734
	C3560	C	0.906474	0.387274	0.163406
	C3561	C	0.660559	0.445253	0.078285
	C3562	C	0.918925	0.490065	-0.019931
	C3563	C	0.660280	0.438106	0.092173
	C3564	C	0.593222	0.442304	0.000289
	C3565	C	0.834707	0.389334	0.109557
	C3566	C	0.587024	0.443142	0.166194
	C3567	C	0.845556	0.496295	0.055770
	C3568	C	0.508664	0.487322	-0.010656
	C3569	C	0.749859	0.435310	0.101351
	C3570	C	0.494607	0.392449	0.164520
	C3571	C	0.750310	0.449777	0.073325
	C3572	C	0.498103	0.438042	0.165937
	C3573	C	0.756931	0.491179	0.055440
	C3574	C	0.502494	0.445808	0.007006
	C3575	C	0.743758	0.393025	0.115672
	C3576	C	0.508252	0.479758	0.004673
	C3577	C	0.749379	0.427573	0.116110
	C3578	C	0.492492	0.402060	0.159274
	C3579	C	0.750722	0.457302	0.057945
	C3580	C	0.499129	0.428914	0.158421
	C3581	C	0.758232	0.482145	0.047513
	C3582	C	0.501277	0.454848	0.015065
	C3583	C	0.742505	0.402204	0.122962
	H3584	H	0.667983	0.489744	-0.008537
	H3585	H	0.908893	0.437792	0.103620
	H3586	H	0.654682	0.392273	0.170065
	H3587	H	0.909357	0.450492	0.078933
	H3588	H	0.837941	0.437858	0.172043
	H3589	H	0.597609	0.490734	0.062005
	H3590	H	0.844187	0.443380	0.012157
	H3591	H	0.584789	0.390702	0.120637
	H3592	H	0.835526	0.390340	0.159754
	H3593	H	0.591250	0.447303	0.071085
	H3594	H	0.849312	0.486594	-0.016221
	H3595	H	0.590835	0.434598	0.095781
	H3596	H	0.661613	0.446266	0.000458
	H3597	H	0.903358	0.393284	0.109403
	H3598	H	0.657366	0.440341	0.161418
	H3599	H	0.915534	0.493624	0.050403
	O3600	O	0.083947	0.487439	0.185299
	O3601	O	0.338165	0.423599	0.242013
	O3602	O	0.080521	0.403037	0.270982
	O3603	O	0.326841	0.468706	0.220740
	O3604	O	0.417947	0.422181	0.272449
	O3605	O	0.164419	0.487478	0.219243
	O3606	O	0.407383	0.467953	0.189436
	O3607	O	0.161691	0.403294	0.240004
	O3608	O	0.411168	0.402464	0.268929
	O3609	O	0.157148	0.467947	0.218560
	O3610	O	0.414586	0.486617	0.183331
	O3611	O	0.168582	0.422947	0.239740
	O3612	O	0.077173	0.468667	0.187360
	O3613	O	0.331461	0.403934	0.238252
	O3614	O	0.087700	0.422773	0.270817
	O3615	O	0.334040	0.488241	0.216669
	F3616	F	-0.000068	0.413386	0.242278
	F3617	F	0.245674	0.477934	0.190134
	F3618	F	-0.004120	0.478268	0.216233
	F3619	F	0.249357	0.412636	0.268639
	Al3620	Al	0.124652	0.413014	0.255505
	Al3621	Al	0.370652	0.478081	0.203159
	Al3622	Al	0.120784	0.478100	0.203290
	Al3623	Al	0.374561	0.413038	0.255464
	C3624	C	0.089665	0.502405	0.158978
	C3625	C	0.339362	0.441837	0.234855
	C3626	C	0.089327	0.385000	0.278843
	C3627	C	0.336472	0.450843	0.231503
	C3628	C	0.410285	0.439392	0.286098
	C3629	C	0.157122	0.504285	0.234520
	C3630	C	0.405077	0.450441	0.178036
	C3631	C	0.158663	0.385676	0.228756
	C3632	C	0.409472	0.384150	0.274032
	C3633	C	0.156504	0.449821	0.226124
	C3634	C	0.410592	0.500578	0.154438
	C3635	C	0.159444	0.440763	0.229503
	C3636	C	0.084931	0.451809	0.172384
	C3637	C	0.339011	0.386810	0.223972
	C3638	C	0.090523	0.440477	0.281428
	C3639	C	0.336848	0.505685	0.228469
	C3640	C	-0.000115	0.497795	0.163759
	C3641	C	0.251071	0.436668	0.233836
	C3642	C	-0.002272	0.389237	0.275440
	C3643	C	0.244953	0.454962	0.227102
	C3644	C	0.001345	0.435393	0.281210
	C3645	C	0.247991	0.500568	0.228507
	C3646	C	-0.006092	0.455540	0.178244
	C3647	C	0.247926	0.390744	0.229090
	C3648	C	-0.000441	0.490083	0.178619
	C3649	C	0.252906	0.427038	0.238860
	C3650	C	-0.003839	0.398953	0.271544
	C3651	C	0.242819	0.464572	0.221784
	C3652	C	0.002484	0.426093	0.274411
	C3653	C	0.248970	0.491435	0.220907
	C3654	C	-0.007320	0.464726	0.185562
	C3655	C	0.246884	0.400006	0.236203
	H3656	H	0.159133	0.500393	0.166259
	H3657	H	0.410689	0.438821	0.238352
	H3658	H	0.158326	0.388848	0.280071
	H3659	H	0.405523	0.454710	0.232396
	H3660	H	0.340909	0.435540	0.286103
	H3661	H	0.088202	0.500370	0.234544
	H3662	H	0.334759	0.453238	0.182821
	H3663	H	0.087678	0.388607	0.232623
	H3664	H	0.338336	0.387322	0.271221
	H3665	H	0.085779	0.452948	0.222539
	H3666	H	0.341121	0.497018	0.157893
	H3667	H	0.091053	0.436800	0.228679
	H3668	H	0.153920	0.455712	0.172440
	H3669	H	0.408403	0.390666	0.223931
	H3670	H	0.161459	0.437543	0.277507
	H3671	H	0.406927	0.502900	0.223439
	O3672	O	0.583864	0.487424	0.185260
	O3673	O	0.837797	0.423607	0.241882
	O3674	O	0.580871	0.403027	0.270898
	O3675	O	0.826155	0.468667	0.220861
	O3676	O	0.917876	0.422159	0.272465
	O3677	O	0.663923	0.487493	0.219163
	O3678	O	0.907326	0.467968	0.189430
	O3679	O	0.661264	0.403330	0.239921
	O3680	O	0.910756	0.402468	0.268896
	O3681	O	0.656421	0.467953	0.218574
	O3682	O	0.914738	0.486608	0.183446
	O3683	O	0.668288	0.422927	0.239659
	O3684	O	0.577112	0.468662	0.187299
	O3685	O	0.830999	0.403924	0.238158
	O3686	O	0.587732	0.422798	0.270763
	O3687	O	0.833565	0.488223	0.216893
	F3688	F	0.499750	0.413416	0.242289
	F3689	F	0.745835	0.477934	0.190227
	F3690	F	0.495450	0.478271	0.216070
	F3691	F	0.749389	0.412664	0.268513
	Al3692	Al	0.624622	0.413042	0.255443
	Al3693	Al	0.870804	0.478083	0.203294
	Al3694	Al	0.620627	0.478109	0.203235
	Al3695	Al	0.874880	0.413031	0.255356
	C3696	C	0.590045	0.502423	0.159020
	C3697	C	0.838717	0.441844	0.234892
	C3698	C	0.589736	0.385004	0.279029
	C3699	C	0.835615	0.450852	0.231587
	C3700	C	0.910102	0.439365	0.286136
	C3701	C	0.656520	0.504306	0.234532
	C3702	C	0.905065	0.450423	0.178138
	C3703	C	0.657886	0.385699	0.228732
	C3704	C	0.909085	0.384153	0.273872
	C3705	C	0.655859	0.449803	0.225955
	C3706	C	0.910277	0.500518	0.154353
	C3707	C	0.659040	0.440746	0.229306
	C3708	C	0.584949	0.451795	0.172329
	C3709	C	0.838212	0.386816	0.223901
	C3710	C	0.590623	0.440520	0.281380
	C3711	C	0.836312	0.505673	0.228578
	C3712	C	0.500137	0.497831	0.163803
	C3713	C	0.750598	0.436661	0.233724
	C3714	C	0.498168	0.389235	0.275525
	C3715	C	0.744135	0.454951	0.227109
	C3716	C	0.501434	0.435425	0.281129
	C3717	C	0.747425	0.500569	0.228537
	C3718	C	0.493954	0.455543	0.178129
	C3719	C	0.747116	0.390771	0.228939
	C3720	C	0.499535	0.490089	0.178574
	C3721	C	0.752458	0.427031	0.238748
	C3722	C	0.496481	0.398951	0.271553
	C3723	C	0.741944	0.464562	0.221847
	C3724	C	0.502513	0.426128	0.274324
	C3725	C	0.748446	0.491434	0.220965
	C3726	C	0.492596	0.464723	0.185488
	C3727	C	0.746274	0.400025	0.236089
	H3728	H	0.659592	0.500398	0.166264
	H3729	H	0.909946	0.438825	0.238480
	H3730	H	0.658667	0.388859	0.280303
	H3731	H	0.904561	0.454732	0.232594
	H3732	H	0.840693	0.435514	0.286128
	H3733	H	0.587642	0.500389	0.234573
	H3734	H	0.834722	0.453213	0.182933
	H3735	H	0.587034	0.388632	0.232680
	H3736	H	0.837998	0.387336	0.271063
	H3737	H	0.585265	0.452922	0.222280
	H3738	H	0.840768	0.496955	0.157767
	H3739	H	0.590915	0.436773	0.228364
	H3740	H	0.653879	0.455693	0.172434
	H3741	H	0.907671	0.390659	0.223892
	H3742	H	0.661528	0.437585	0.277483
	H3743	H	0.906437	0.502880	0.223646
	O3744	O	0.088010	0.486029	0.304201
	O3745	O	0.340612	0.420069	0.348379
	O3746	O	0.083355	0.399497	0.377393
	O3747	O	0.330886	0.465520	0.333404
	O3748	O	0.420455	0.418666	0.378984
	O3749	O	0.167615	0.484721	0.334792
	O3750	O	0.411504	0.465810	0.302459
	O3751	O	0.164086	0.399802	0.346441
	O3752	O	0.413851	0.398949	0.375356
	O3753	O	0.161150	0.464962	0.331492
	O3754	O	0.418636	0.485450	0.302289
	O3755	O	0.170755	0.419579	0.346824
	O3756	O	0.081236	0.466406	0.300794
	O3757	O	0.333786	0.400422	0.344743
	O3758	O	0.090105	0.419172	0.377687
	O3759	O	0.337431	0.485323	0.333159
	F3760	F	0.002607	0.409901	0.348802
	F3761	F	0.249728	0.475886	0.304739
	F3762	F	-0.000464	0.475155	0.331151
	F3763	F	0.251976	0.409097	0.375154
	Al3764	Al	0.127286	0.409508	0.362004
	Al3765	Al	0.374529	0.475535	0.317961
	Al3766	Al	0.124703	0.475520	0.317942
	Al3767	Al	0.377056	0.409514	0.361931
	C3768	C	0.089093	0.504284	0.297291
	C3769	C	0.342698	0.438409	0.343423
	C3770	C	0.092248	0.381481	0.385512
	C3771	C	0.339852	0.447499	0.341463
	C3772	C	0.413498	0.435815	0.393070
	C3773	C	0.160345	0.501903	0.348620
	C3774	C	0.408456	0.448192	0.291161
	C3775	C	0.160986	0.382134	0.335359
	C3776	C	0.412190	0.380664	0.380696
	C3777	C	0.159585	0.446648	0.336424
	C3778	C	0.409559	0.503245	0.291840
	C3779	C	0.162386	0.437561	0.338404
	C3780	C	0.088648	0.449277	0.286516
	C3781	C	0.341374	0.383223	0.330929
	C3782	C	0.093229	0.436863	0.388506
	C3783	C	0.340594	0.503045	0.343786
	C3784	C	0.000873	0.499118	0.296145
	C3785	C	0.253949	0.433326	0.341931
	C3786	C	0.000565	0.385713	0.382145
	C3787	C	0.248244	0.451730	0.337961
	C3788	C	0.003943	0.431800	0.388188
	C3789	C	0.251478	0.497946	0.343659
	C3790	C	-0.002437	0.453229	0.291573
	C3791	C	0.250196	0.387201	0.335778
	C3792	C	0.002681	0.489483	0.301168
	C3793	C	0.255378	0.423615	0.345926
	C3794	C	-0.001149	0.395430	0.378121
	C3795	C	0.246495	0.461445	0.334079
	C3796	C	0.004964	0.422499	0.381287
	C3797	C	0.252246	0.488653	0.336749
	C3798	C	-0.003414	0.462500	0.298715
	C3799	C	0.249219	0.396487	0.342743
	H3800	H	0.160093	0.501208	0.300849
	H3801	H	0.413682	0.435222	0.346236
	H3802	H	0.161245	0.385331	0.386636
	H3803	H	0.408787	0.451359	0.342752
	H3804	H	0.344010	0.431981	0.393049
	H3805	H	0.090909	0.498051	0.348575
	H3806	H	0.337633	0.451140	0.295034
	H3807	H	0.089901	0.385090	0.339041
	H3808	H	0.341062	0.383841	0.377956
	H3809	H	0.088441	0.449831	0.333596
	H3810	H	0.340964	0.499317	0.290857
	H3811	H	0.093449	0.433708	0.337140
	H3812	H	0.157984	0.453131	0.286516
	H3813	H	0.410785	0.387066	0.330987
	H3814	H	0.164169	0.433884	0.384796
	H3815	H	0.411334	0.500110	0.339725
	O3816	O	0.588296	0.486091	0.304483
	O3817	O	0.840564	0.420128	0.348514
	O3818	O	0.583565	0.399527	0.377358
	O3819	O	0.830211	0.465507	0.333483
	O3820	O	0.920254	0.418589	0.379247
	O3821	O	0.667507	0.484671	0.335138
	O3822	O	0.911491	0.465814	0.302508
	O3823	O	0.664022	0.399817	0.346365
	O3824	O	0.913532	0.398941	0.375419
	O3825	O	0.660475	0.464961	0.331490
	O3826	O	0.918349	0.485401	0.302187
	O3827	O	0.670798	0.419552	0.346528
	O3828	O	0.581266	0.466433	0.300789
	O3829	O	0.833707	0.400412	0.344692
	O3830	O	0.590361	0.419200	0.377565
	O3831	O	0.837319	0.485310	0.333340
	F3832	F	0.502402	0.409917	0.348744
	F3833	F	0.749739	0.475887	0.304911
	F3834	F	0.499206	0.475165	0.331121
	F3835	F	0.752069	0.409116	0.375016
	Al3836	Al	0.627223	0.409525	0.361926
	Al3837	Al	0.874721	0.475506	0.318044
	Al3838	Al	0.624451	0.475525	0.318025
	Al3839	Al	0.877467	0.409508	0.361927
	C3840	C	0.589503	0.504321	0.297371
	C3841	C	0.842011	0.438429	0.343532
	C3842	C	0.592577	0.381503	0.385515
	C3843	C	0.839017	0.447518	0.341599
	C3844	C	0.912681	0.435813	0.392897
	C3845	C	0.659718	0.501883	0.348629
	C3846	C	0.908276	0.448163	0.291210
	C3847	C	0.660836	0.382130	0.335463
	C3848	C	0.911882	0.380617	0.380710
	C3849	C	0.658762	0.446646	0.336449
	C3850	C	0.909423	0.503237	0.291641
	C3851	C	0.661766	0.437559	0.338385
	C3852	C	0.588769	0.449319	0.286468
	C3853	C	0.841281	0.383209	0.331045
	C3854	C	0.593863	0.436896	0.388518
	C3855	C	0.840001	0.503036	0.343671
	C3856	C	0.501150	0.499153	0.296295
	C3857	C	0.753450	0.433344	0.341928
	C3858	C	0.500929	0.385741	0.382052
	C3859	C	0.747388	0.451735	0.337991
	C3860	C	0.504549	0.431822	0.388178
	C3861	C	0.750907	0.497932	0.343668
	C3862	C	0.497679	0.453265	0.291497
	C3863	C	0.750060	0.387195	0.335803
	C3864	C	0.502992	0.489531	0.301325
	C3865	C	0.755207	0.423629	0.345865
	C3866	C	0.499191	0.395447	0.378024
	C3867	C	0.745739	0.461442	0.334080
	C3868	C	0.505281	0.422548	0.381148
	C3869	C	0.752071	0.488626	0.336942
	C3870	C	0.496679	0.462514	0.298697
	C3871	C	0.749076	0.396491	0.342693
	H3872	H	0.660612	0.501254	0.300908
	H3873	H	0.913182	0.435260	0.346384
	H3874	H	0.661573	0.385356	0.386675
	H3875	H	0.907828	0.451391	0.342954
	H3876	H	0.843121	0.431984	0.392785
	H3877	H	0.590401	0.498017	0.348695
	H3878	H	0.837332	0.451110	0.295062
	H3879	H	0.589836	0.385096	0.339165
	H3880	H	0.840724	0.383794	0.377944
	H3881	H	0.587633	0.449827	0.333618
	H3882	H	0.840864	0.499313	0.290582
	H3883	H	0.592922	0.433696	0.337065
	H3884	H	0.658127	0.453169	0.286495
	H3885	H	0.910711	0.387048	0.331125
	H3886	H	0.664771	0.433927	0.384730
	H3887	H	0.910762	0.500099	0.339641
	O3888	O	0.090612	0.482571	0.410756
	O3889	O	0.343144	0.416600	0.455346
	O3890	O	0.086104	0.395994	0.484073
	O3891	O	0.333726	0.461980	0.439676
	O3892	O	0.422874	0.415135	0.486004
	O3893	O	0.170375	0.481180	0.441499
	O3894	O	0.414755	0.462329	0.408842
	O3895	O	0.166509	0.396332	0.453244
	O3896	O	0.416240	0.395451	0.482274
	O3897	O	0.163896	0.461477	0.437899
	O3898	O	0.421089	0.482039	0.409050
	O3899	O	0.173397	0.416048	0.453453
	O3900	O	0.084435	0.462875	0.407268
	O3901	O	0.336329	0.396921	0.451599
	O3902	O	0.092526	0.415728	0.484324
	O3903	O	0.340169	0.481745	0.439991
	F3904	F	0.005036	0.406452	0.455583
	F3905	F	0.252533	0.472430	0.411203
	F3906	F	0.002232	0.471635	0.437551
	F3907	F	0.254543	0.405641	0.481970
	Al3908	Al	0.129668	0.406033	0.468791
	Al3909	Al	0.377320	0.472029	0.424387
	Al3910	Al	0.127362	0.472036	0.424355
	Al3911	Al	0.379728	0.406037	0.468772
	C3912	C	0.092443	0.500889	0.405792
	C3913	C	0.344782	0.434905	0.450154
	C3914	C	0.094721	0.377991	0.492307
	C3915	C	0.342016	0.443997	0.448126
	C3916	C	0.415484	0.432348	0.499759
	C3917	C	0.162794	0.498347	0.455412
	C3918	C	0.411801	0.444628	0.398052
	C3919	C	0.163320	0.378687	0.442234
	C3920	C	0.414352	0.377135	0.487394
	C3921	C	0.161778	0.443141	0.443077
	C3922	C	0.411985	0.500053	0.400780
	C3923	C	0.164543	0.434056	0.445111
	C3924	C	0.091499	0.445678	0.393445
	C3925	C	0.343716	0.379736	0.437731
	C3926	C	0.095623	0.433410	0.495250
	C3927	C	0.343336	0.499429	0.450980
	C3928	C	0.003664	0.495808	0.404314
	C3929	C	0.256151	0.429821	0.448663
	C3930	C	0.003165	0.382223	0.488765
	C3931	C	0.250429	0.448229	0.444552
	C3932	C	0.006395	0.428324	0.494965
	C3933	C	0.254036	0.494361	0.450603
	C3934	C	0.000394	0.449683	0.398200
	C3935	C	0.252591	0.383741	0.442515
	C3936	C	0.005393	0.486091	0.408203
	C3937	C	0.257859	0.420111	0.452693
	C3938	C	0.001491	0.391941	0.484812
	C3939	C	0.249082	0.457941	0.440518
	C3940	C	0.007272	0.419034	0.488033
	C3941	C	0.255042	0.485089	0.443587
	C3942	C	-0.000305	0.458978	0.405188
	C3943	C	0.251638	0.393015	0.449545
	H3944	H	0.163685	0.497709	0.408503
	H3945	H	0.415870	0.431729	0.452985
	H3946	H	0.163725	0.381843	0.493550
	H3947	H	0.410846	0.447854	0.449397
	H3948	H	0.346034	0.428503	0.499691
	H3949	H	0.093392	0.494504	0.455301
	H3950	H	0.340960	0.447585	0.401881
	H3951	H	0.092529	0.381670	0.446040
	H3952	H	0.343230	0.380299	0.484577
	H3953	H	0.090608	0.446321	0.440269
	H3954	H	0.343094	0.496195	0.399416
	H3955	H	0.095474	0.430192	0.443884
	H3956	H	0.161031	0.449506	0.393542
	H3957	H	0.413162	0.383576	0.437842
	H3958	H	0.166545	0.430449	0.491463
	H3959	H	0.414187	0.496445	0.447231
	O3960	O	0.590827	0.482613	0.411013
	O3961	O	0.842873	0.416649	0.455388
	O3962	O	0.586014	0.395992	0.484007
	O3963	O	0.833051	0.461990	0.439862
	O3964	O	0.922742	0.415095	0.486078
	O3965	O	0.670246	0.481104	0.441680
	O3966	O	0.914554	0.462313	0.408816
	O3967	O	0.666091	0.396340	0.453175
	O3968	O	0.916285	0.395466	0.482239
	O3969	O	0.663315	0.461432	0.437807
	O3970	O	0.920845	0.482024	0.408966
	O3971	O	0.673123	0.416044	0.453336
	O3972	O	0.584584	0.462918	0.407217
	O3973	O	0.835881	0.396936	0.451491
	O3974	O	0.592641	0.415738	0.484320
	O3975	O	0.839985	0.481747	0.439979
	F3976	F	0.504619	0.406458	0.455635
	F3977	F	0.752575	0.472421	0.411348
	F3978	F	0.502126	0.471613	0.437557
	F3979	F	0.754461	0.405607	0.481863
	Al3980	Al	0.629455	0.406036	0.468756
	Al3981	Al	0.877561	0.472005	0.424454
	Al3982	Al	0.627344	0.472037	0.424432
	Al3983	Al	0.879867	0.406029	0.468714
	C3984	C	0.592323	0.500909	0.405867
	C3985	C	0.844516	0.434894	0.449993
	C3986	C	0.594564	0.377984	0.492361
	C3987	C	0.841853	0.443983	0.447960
	C3988	C	0.915167	0.432318	0.499779
	C3989	C	0.662326	0.498314	0.455433
	C3990	C	0.910961	0.444627	0.397822
	C3991	C	0.662850	0.378671	0.442293
	C3992	C	0.914261	0.377147	0.487381
	C3993	C	0.661372	0.443142	0.443092
	C3994	C	0.912065	0.500066	0.400797
	C3995	C	0.664046	0.434059	0.445114
	C3996	C	0.592132	0.445714	0.393468
	C3997	C	0.843167	0.379747	0.437725
	C3998	C	0.595923	0.433430	0.495219
	C3999	C	0.842861	0.499405	0.450925
	C4000	C	0.503595	0.495816	0.404428
	C4001	C	0.755698	0.429828	0.448632
	C4002	C	0.503064	0.382221	0.488842
	C4003	C	0.750136	0.448219	0.444524
	C4004	C	0.506650	0.428354	0.494934
	C4005	C	0.753556	0.494338	0.450615
	C4006	C	0.500945	0.449711	0.398232
	C4007	C	0.752135	0.383735	0.442559
	C4008	C	0.505490	0.486115	0.408375
	C4009	C	0.757467	0.420127	0.452685
	C4010	C	0.501539	0.391929	0.484819
	C4011	C	0.748568	0.457925	0.440526
	C4012	C	0.507535	0.419065	0.487991
	C4013	C	0.754708	0.485052	0.443636
	C4014	C	0.499902	0.459004	0.405183
	C4015	C	0.751194	0.393021	0.449502
	H4016	H	0.663543	0.497739	0.408646
	H4017	H	0.915718	0.431709	0.452754
	H4018	H	0.663681	0.381818	0.493603
	H4019	H	0.910819	0.447846	0.449115
	H4020	H	0.845688	0.428474	0.499730
	H4021	H	0.592942	0.494462	0.455366
	H4022	H	0.840118	0.447615	0.401524
	H4023	H	0.592121	0.381663	0.446080
	H4024	H	0.843156	0.380340	0.484657
	H4025	H	0.590261	0.446328	0.440300
	H4026	H	0.843059	0.496217	0.399460
	H4027	H	0.595102	0.430198	0.443894
	H4028	H	0.661594	0.449552	0.393539
	H4029	H	0.912626	0.383590	0.437780
	H4030	H	0.666841	0.430465	0.491447
	H4031	H	0.913727	0.496423	0.447140
	O4032	O	0.093245	0.479088	0.517879
	O4033	O	0.345596	0.413118	0.562263
	O4034	O	0.087900	0.392537	0.591016
	O4035	O	0.335819	0.458513	0.546621
	O4036	O	0.424973	0.411647	0.592857
	O4037	O	0.172743	0.477634	0.548467
	O4038	O	0.416521	0.458818	0.515640
	O4039	O	0.168962	0.392838	0.560054
	O4040	O	0.418325	0.391967	0.589178
	O4041	O	0.166106	0.457933	0.544653
	O4042	O	0.423282	0.478551	0.515845
	O4043	O	0.175880	0.412525	0.560141
	O4044	O	0.086125	0.459402	0.514132
	O4045	O	0.338723	0.393400	0.558527
	O4046	O	0.094606	0.412248	0.591150
	O4047	O	0.342556	0.478232	0.546761
	F4048	F	0.007281	0.402949	0.562401
	F4049	F	0.254732	0.468922	0.518095
	F4050	F	0.004665	0.468092	0.544528
	F4051	F	0.256468	0.402134	0.588799
	Al4052	Al	0.131951	0.402539	0.575637
	Al4053	Al	0.379602	0.468526	0.531280
	Al4054	Al	0.129649	0.468510	0.531295
	Al4055	Al	0.381737	0.402532	0.575724
	C4056	C	0.094954	0.497384	0.512456
	C4057	C	0.347196	0.431396	0.556922
	C4058	C	0.096879	0.374497	0.599217
	C4059	C	0.344616	0.440482	0.554905
	C4060	C	0.417390	0.428836	0.606669
	C4061	C	0.165253	0.494848	0.562269
	C4062	C	0.413645	0.441159	0.504693
	C4063	C	0.165815	0.375142	0.549110
	C4064	C	0.416863	0.373647	0.594097
	C4065	C	0.164299	0.439636	0.549914
	C4066	C	0.414581	0.496572	0.507659
	C4067	C	0.166892	0.430540	0.551922
	C4068	C	0.093730	0.442220	0.500239
	C4069	C	0.346099	0.376238	0.544514
	C4070	C	0.097536	0.429917	0.602114
	C4071	C	0.345672	0.495932	0.557731
	C4072	C	0.006210	0.492299	0.511052
	C4073	C	0.258527	0.426312	0.555431
	C4074	C	0.005309	0.378726	0.595646
	C4075	C	0.253072	0.444717	0.551333
	C4076	C	0.008330	0.424838	0.601853
	C4077	C	0.256420	0.490858	0.557428
	C4078	C	0.002556	0.446199	0.505078
	C4079	C	0.254995	0.380222	0.549405
	C4080	C	0.007902	0.482600	0.515164
	C4081	C	0.260265	0.416608	0.559478
	C4082	C	0.003542	0.388441	0.591677
	C4083	C	0.251448	0.454429	0.547313
	C4084	C	0.009404	0.415558	0.594863
	C4085	C	0.257421	0.481563	0.550444
	C4086	C	0.001322	0.455486	0.512078
	C4087	C	0.254049	0.389497	0.556432
	H4088	H	0.166084	0.494196	0.515258
	H4089	H	0.418349	0.428231	0.559759
	H4090	H	0.165808	0.378355	0.600526
	H4091	H	0.413664	0.444322	0.556168
	H4092	H	0.347890	0.424994	0.606625
	H4093	H	0.095628	0.491023	0.562209
	H4094	H	0.342732	0.444122	0.508441
	H4095	H	0.094826	0.378090	0.552915
	H4096	H	0.345782	0.376827	0.591295
	H4097	H	0.093246	0.442834	0.547127
	H4098	H	0.345554	0.492718	0.506479
	H4099	H	0.098009	0.426668	0.550702
	H4100	H	0.163110	0.446064	0.500304
	H4101	H	0.415623	0.380069	0.544556
	H4102	H	0.168503	0.426964	0.598294
	H4103	H	0.416647	0.492975	0.553936
	O4104	O	0.593067	0.479083	0.517682
	O4105	O	0.845309	0.413134	0.562075
	O4106	O	0.588095	0.392543	0.591132
	O4107	O	0.835188	0.458512	0.546850
	O4108	O	0.924804	0.411609	0.592901
	O4109	O	0.672221	0.477672	0.548357
	O4110	O	0.916250	0.458818	0.515725
	O4111	O	0.668282	0.392850	0.560051
	O4112	O	0.918115	0.391944	0.588954
	O4113	O	0.665501	0.457941	0.544661
	O4114	O	0.923505	0.478519	0.515955
	O4115	O	0.675545	0.412537	0.560178
	O4116	O	0.586366	0.459440	0.513961
	O4117	O	0.838045	0.393440	0.558365
	O4118	O	0.594875	0.412269	0.591097
	O4119	O	0.842073	0.478289	0.546793
	F4120	F	0.506918	0.402952	0.562531
	F4121	F	0.755019	0.468939	0.518206
	F4122	F	0.504343	0.468117	0.544327
	F4123	F	0.756819	0.402150	0.588701
	Al4124	Al	0.631881	0.402553	0.575631
	Al4125	Al	0.879913	0.468515	0.531413
	Al4126	Al	0.629557	0.468531	0.531201
	Al4127	Al	0.882157	0.402547	0.575527
	C4128	C	0.595044	0.497398	0.512485
	C4129	C	0.846889	0.431423	0.556927
	C4130	C	0.596994	0.374507	0.599258
	C4131	C	0.844124	0.440504	0.554956
	C4132	C	0.917116	0.428830	0.606751
	C4133	C	0.664632	0.494862	0.562253
	C4134	C	0.913275	0.441124	0.504758
	C4135	C	0.665118	0.375149	0.549154
	C4136	C	0.916603	0.373639	0.594125
	C4137	C	0.663780	0.439648	0.549921
	C4138	C	0.914469	0.496541	0.507575
	C4139	C	0.666582	0.430553	0.551917
	C4140	C	0.594070	0.442244	0.500163
	C4141	C	0.845318	0.376264	0.544459
	C4142	C	0.597746	0.429939	0.602024
	C4143	C	0.845037	0.495959	0.557693
	C4144	C	0.506206	0.492317	0.511077
	C4145	C	0.758247	0.426331	0.555449
	C4146	C	0.505431	0.378740	0.595677
	C4147	C	0.752428	0.444730	0.551436
	C4148	C	0.508595	0.424851	0.601818
	C4149	C	0.755791	0.490881	0.557388
	C4150	C	0.502888	0.446223	0.505022
	C4151	C	0.754232	0.380233	0.549406
	C4152	C	0.507814	0.482607	0.515073
	C4153	C	0.759911	0.416626	0.559452
	C4154	C	0.503697	0.388458	0.591800
	C4155	C	0.750772	0.454441	0.547440
	C4156	C	0.509677	0.415571	0.594837
	C4157	C	0.756792	0.481601	0.550404
	C4158	C	0.501754	0.455505	0.511982
	C4159	C	0.753337	0.389520	0.556386
	H4160	H	0.666152	0.494205	0.515225
	H4161	H	0.918154	0.428261	0.559734
	H4162	H	0.665821	0.378371	0.600645
	H4163	H	0.913068	0.444354	0.556219
	H4164	H	0.847577	0.424987	0.606757
	H4165	H	0.595009	0.491041	0.562182
	H4166	H	0.842375	0.444085	0.508546
	H4167	H	0.594150	0.378094	0.552975
	H4168	H	0.845441	0.376815	0.591325
	H4169	H	0.592791	0.442836	0.547098
	H4170	H	0.845395	0.492687	0.506406
	H4171	H	0.597808	0.426667	0.550675
	H4172	H	0.663509	0.446089	0.500191
	H4173	H	0.914734	0.380114	0.544436
	H4174	H	0.668712	0.426993	0.598170
	H4175	H	0.916086	0.493017	0.553881
	O4176	O	0.095291	0.475600	0.624728
	O4177	O	0.348132	0.409626	0.668683
	O4178	O	0.090730	0.389138	0.697759
	O4179	O	0.338051	0.455055	0.653629
	O4180	O	0.427556	0.408094	0.699396
	O4181	O	0.175279	0.474159	0.655297
	O4182	O	0.418661	0.455326	0.622600
	O4183	O	0.171612	0.389263	0.666761
	O4184	O	0.420818	0.388496	0.695682
	O4185	O	0.168395	0.454445	0.651520
	O4186	O	0.425611	0.475046	0.622696
	O4187	O	0.178447	0.409051	0.666646
	O4188	O	0.088491	0.455916	0.620998
	O4189	O	0.341368	0.389867	0.665062
	O4190	O	0.097032	0.408745	0.697505
	O4191	O	0.345057	0.474790	0.653498
	F4192	F	0.010008	0.399397	0.668790
	F4193	F	0.256914	0.465455	0.624980
	F4194	F	0.006931	0.464625	0.651388
	F4195	F	0.259105	0.398681	0.695231
	Al4196	Al	0.134613	0.399041	0.681977
	Al4197	Al	0.381676	0.465048	0.638097
	Al4198	Al	0.131918	0.465041	0.638141
	Al4199	Al	0.384470	0.399035	0.682083
	C4200	C	0.097129	0.493893	0.619260
	C4201	C	0.350006	0.427923	0.663707
	C4202	C	0.099844	0.371325	0.708360
	C4203	C	0.347349	0.437020	0.661772
	C4204	C	0.420239	0.425232	0.713709
	C4205	C	0.167653	0.491355	0.669045
	C4206	C	0.415602	0.437645	0.611645
	C4207	C	0.168764	0.371515	0.656305
	C4208	C	0.419868	0.370266	0.702747
	C4209	C	0.167050	0.436167	0.656641
	C4210	C	0.416637	0.493059	0.614469
	C4211	C	0.169728	0.427084	0.658561
	C4212	C	0.095684	0.438734	0.607089
	C4213	C	0.348923	0.372663	0.651379
	C4214	C	0.100102	0.426361	0.708743
	C4215	C	0.348052	0.492455	0.664469
	C4216	C	0.008368	0.488810	0.617930
	C4217	C	0.261260	0.422849	0.662170
	C4218	C	0.008378	0.375420	0.703824
	C4219	C	0.255666	0.441252	0.658233
	C4220	C	0.010924	0.421277	0.708577
	C4221	C	0.258799	0.487372	0.664200
	C4222	C	0.004570	0.442717	0.611979
	C4223	C	0.257824	0.376617	0.656390
	C4224	C	0.009999	0.479107	0.622018
	C4225	C	0.262802	0.413134	0.666057
	C4226	C	0.006587	0.385056	0.698788
	C4227	C	0.253763	0.450959	0.654271
	C4228	C	0.011994	0.412024	0.701340
	C4229	C	0.259879	0.478095	0.657224
	C4230	C	0.003765	0.451998	0.618982
	C4231	C	0.256770	0.385923	0.663196
	H4232	H	0.168276	0.490712	0.622010
	H4233	H	0.420960	0.424723	0.666527
	H4234	H	0.168438	0.375252	0.709451
	H4235	H	0.416108	0.440895	0.663088
	H4236	H	0.350898	0.421372	0.713826
	H4237	H	0.098122	0.487520	0.668964
	H4238	H	0.344667	0.440594	0.615450
	H4239	H	0.097825	0.374425	0.660321
	H4240	H	0.349022	0.373344	0.699114
	H4241	H	0.095805	0.439337	0.653810
	H4242	H	0.347706	0.489200	0.613262
	H4243	H	0.100690	0.423244	0.657209
	H4244	H	0.165173	0.442576	0.607117
	H4245	H	0.418348	0.376502	0.651336
	H4246	H	0.170926	0.423428	0.704711
	H4247	H	0.418982	0.489496	0.660644
	O4248	O	0.595412	0.475614	0.624599
	O4249	O	0.847776	0.409607	0.668423
	O4250	O	0.590493	0.389142	0.697811
	O4251	O	0.837719	0.455013	0.653598
	O4252	O	0.927247	0.408114	0.699247
	O4253	O	0.674841	0.474137	0.655303
	O4254	O	0.918661	0.455340	0.622648
	O4255	O	0.671024	0.389257	0.666776
	O4256	O	0.921001	0.388510	0.695689
	O4257	O	0.667984	0.454457	0.651521
	O4258	O	0.925530	0.475031	0.622750
	O4259	O	0.677930	0.409051	0.666582
	O4260	O	0.588445	0.455948	0.620858
	O4261	O	0.840875	0.389828	0.665069
	O4262	O	0.597282	0.408729	0.697649
	O4263	O	0.844506	0.474779	0.653686
	F4264	F	0.509635	0.399425	0.668920
	F4265	F	0.757168	0.465441	0.625019
	F4266	F	0.506523	0.464660	0.651226
	F4267	F	0.759404	0.398679	0.695130
	Al4268	Al	0.634434	0.399042	0.682059
	Al4269	Al	0.882084	0.465026	0.638262
	Al4270	Al	0.631842	0.465046	0.638075
	Al4271	Al	0.884698	0.399016	0.681929
	C4272	C	0.597034	0.493910	0.619348
	C4273	C	0.849119	0.427907	0.663795
	C4274	C	0.599642	0.371345	0.708401
	C4275	C	0.846394	0.437005	0.661900
	C4276	C	0.919995	0.425222	0.713786
	C4277	C	0.666917	0.491348	0.669140
	C4278	C	0.915269	0.437644	0.611721
	C4279	C	0.667994	0.371505	0.656401
	C4280	C	0.920093	0.370257	0.702580
	C4281	C	0.666254	0.436142	0.656581
	C4282	C	0.916671	0.493054	0.614460
	C4283	C	0.668909	0.427059	0.658472
	C4284	C	0.595917	0.438749	0.607008
	C4285	C	0.848268	0.372684	0.651338
	C4286	C	0.600375	0.426362	0.708692
	C4287	C	0.847346	0.492453	0.664521
	C4288	C	0.508295	0.488822	0.617938
	C4289	C	0.760527	0.422832	0.662076
	C4290	C	0.508095	0.375431	0.703916
	C4291	C	0.754825	0.441232	0.658237
	C4292	C	0.511151	0.421289	0.708501
	C4293	C	0.758147	0.487374	0.664195
	C4294	C	0.504763	0.442728	0.611911
	C4295	C	0.757092	0.376611	0.656405
	C4296	C	0.510049	0.479118	0.621974
	C4297	C	0.762368	0.413116	0.665903
	C4298	C	0.506149	0.385059	0.698816
	C4299	C	0.753218	0.450944	0.654243
	C4300	C	0.512103	0.412029	0.701387
	C4301	C	0.759338	0.478092	0.657265
	C4302	C	0.503807	0.452012	0.618890
	C4303	C	0.756120	0.385909	0.663219
	H4304	H	0.668248	0.490731	0.622121
	H4305	H	0.920079	0.424714	0.666683
	H4306	H	0.668249	0.375269	0.709398
	H4307	H	0.915194	0.440884	0.663308
	H4308	H	0.850543	0.421373	0.713870
	H4309	H	0.597562	0.487492	0.669147
	H4310	H	0.844354	0.440596	0.615554
	H4311	H	0.597200	0.374421	0.660485
	H4312	H	0.849215	0.373341	0.698943
	H4313	H	0.595108	0.439306	0.653679
	H4314	H	0.847680	0.489194	0.613281
	H4315	H	0.599977	0.423213	0.657042
	H4316	H	0.665369	0.442590	0.607011
	H4317	H	0.917706	0.376535	0.651240
	H4318	H	0.671178	0.423415	0.704722
	H4319	H	0.918443	0.489504	0.660749
	O4320	O	0.098068	0.472126	0.731133
	O4321	O	0.352303	0.406619	0.781379
	O4322	O	0.094365	0.387933	0.816490
	O4323	O	0.340443	0.451657	0.760230
	O4324	O	0.432024	0.405853	0.812770
	O4325	O	0.178187	0.470627	0.761694
	O4326	O	0.421489	0.451729	0.729310
	O4327	O	0.174949	0.386339	0.783078
	O4328	O	0.425205	0.387116	0.814608
	O4329	O	0.170786	0.451000	0.758173
	O4330	O	0.428725	0.471497	0.728822
	O4331	O	0.182574	0.405918	0.779242
	O4332	O	0.091172	0.452367	0.727510
	O4333	O	0.344532	0.387069	0.780802
	O4334	O	0.101864	0.406581	0.810420
	O4335	O	0.347927	0.471264	0.759871
	F4336	F	0.013913	0.396297	0.783699
	F4337	F	0.259773	0.461910	0.731333
	F4338	F	0.009598	0.461163	0.757738
	F4339	F	0.263319	0.396623	0.809759
	Al4340	Al	0.138616	0.396471	0.796668
	Al4341	Al	0.384661	0.461538	0.744420
	Al4342	Al	0.134644	0.461530	0.744506
	Al4343	Al	0.388333	0.396468	0.796670
	C4344	C	0.099481	0.490399	0.726023
	C4345	C	0.352668	0.424808	0.774165
	C4346	C	0.098361	0.374029	0.845554
	C4347	C	0.349612	0.433849	0.770854
	C4348	C	0.424343	0.422717	0.827921
	C4349	C	0.170396	0.487711	0.776020
	C4350	C	0.418572	0.434028	0.718812
	C4351	C	0.172289	0.368856	0.771428
	C4352	C	0.419291	0.372225	0.841052
	C4353	C	0.169944	0.432759	0.765123
	C4354	C	0.419291	0.489586	0.721039
	C4355	C	0.172966	0.423728	0.768417
	C4356	C	0.098520	0.435163	0.713852
	C4357	C	0.352163	0.370243	0.765527
	C4358	C	0.104317	0.424084	0.821883
	C4359	C	0.350784	0.488865	0.771246
	C4360	C	0.010718	0.485321	0.724517
	C4361	C	0.264526	0.419638	0.772944
	C4362	C	0.008761	0.376765	0.836198
	C4363	C	0.258113	0.437934	0.766294
	C4364	C	0.015454	0.418963	0.821813
	C4365	C	0.261601	0.483783	0.770933
	C4366	C	0.007499	0.439117	0.718906
	C4367	C	0.261269	0.373952	0.771597
	C4368	C	0.012820	0.475602	0.728376
	C4369	C	0.266782	0.410023	0.778193
	C4370	C	0.009427	0.384474	0.821332
	C4371	C	0.256150	0.447565	0.761236
	C4372	C	0.016691	0.409792	0.814436
	C4373	C	0.262802	0.474548	0.763715
	C4374	C	0.006680	0.448429	0.725688
	C4375	C	0.260061	0.383111	0.779057
	H4376	H	0.170736	0.487224	0.728783
	H4377	H	0.423433	0.421739	0.777881
	H4378	H	0.167898	0.377581	0.842111
	H4379	H	0.418039	0.437788	0.771924
	H4380	H	0.355459	0.418797	0.827995
	H4381	H	0.101257	0.483821	0.775943
	H4382	H	0.347932	0.436958	0.722931
	H4383	H	0.102110	0.371670	0.776261
	H4384	H	0.349947	0.374261	0.833798
	H4385	H	0.098852	0.435821	0.761517
	H4386	H	0.350328	0.485737	0.719716
	H4387	H	0.104322	0.419813	0.767402
	H4388	H	0.167921	0.439022	0.713775
	H4389	H	0.420935	0.374175	0.765430
	H4390	H	0.174760	0.421291	0.817089
	H4391	H	0.421439	0.485906	0.767255
	O4392	O	0.598296	0.472138	0.731128
	O4393	O	0.851568	0.406643	0.781335
	O4394	O	0.594470	0.387969	0.816547
	O4395	O	0.840108	0.451622	0.760306
	O4396	O	0.932218	0.405860	0.812642
	O4397	O	0.677701	0.470597	0.761828
	O4398	O	0.921310	0.451751	0.729328
	O4399	O	0.674788	0.386330	0.783091
	O4400	O	0.925085	0.387118	0.814643
	O4401	O	0.670463	0.450995	0.758121
	O4402	O	0.928472	0.471496	0.728866
	O4403	O	0.681920	0.405872	0.779126
	O4404	O	0.591285	0.452359	0.727473
	O4405	O	0.844400	0.387056	0.780773
	O4406	O	0.601501	0.406607	0.810436
	O4407	O	0.847371	0.471270	0.760089
	F4408	F	0.513511	0.396284	0.783798
	F4409	F	0.759704	0.461915	0.731442
	F4410	F	0.509273	0.461176	0.757622
	F4411	F	0.763284	0.396663	0.809699
	Al4412	Al	0.638525	0.396488	0.796672
	Al4413	Al	0.884973	0.461540	0.744550
	Al4414	Al	0.634494	0.461545	0.744510
	Al4415	Al	0.888625	0.396459	0.796624
	C4416	C	0.599541	0.490418	0.726017
	C4417	C	0.851642	0.424789	0.774237
	C4418	C	0.598778	0.374070	0.845610
	C4419	C	0.848822	0.433828	0.770932
	C4420	C	0.924404	0.422675	0.827883
	C4421	C	0.669837	0.487717	0.776129
	C4422	C	0.918370	0.434015	0.718914
	C4423	C	0.671924	0.368867	0.771444
	C4424	C	0.918948	0.372175	0.840989
	C4425	C	0.669093	0.432759	0.765208
	C4426	C	0.919045	0.489566	0.721073
	C4427	C	0.671941	0.423727	0.768489
	C4428	C	0.598718	0.435161	0.713771
	C4429	C	0.851751	0.370273	0.765354
	C4430	C	0.603972	0.424096	0.821859
	C4431	C	0.850158	0.488871	0.771245
	C4432	C	0.510879	0.485330	0.724507
	C4433	C	0.763477	0.419626	0.772913
	C4434	C	0.509165	0.376800	0.836249
	C4435	C	0.757447	0.437913	0.766291
	C4436	C	0.515160	0.418962	0.821900
	C4437	C	0.760995	0.483783	0.771058
	C4438	C	0.507653	0.439124	0.718774
	C4439	C	0.760903	0.373963	0.771510
	C4440	C	0.512887	0.475613	0.728353
	C4441	C	0.765885	0.410009	0.778096
	C4442	C	0.509594	0.384500	0.821365
	C4443	C	0.755707	0.447545	0.761240
	C4444	C	0.516422	0.409807	0.814540
	C4445	C	0.762117	0.474545	0.763865
	C4446	C	0.506642	0.448417	0.725626
	C4447	C	0.759875	0.383109	0.779019
	H4448	H	0.670740	0.487244	0.728759
	H4449	H	0.922423	0.421709	0.777977
	H4450	H	0.668308	0.377623	0.842154
	H4451	H	0.917288	0.437760	0.772035
	H4452	H	0.855661	0.418731	0.827982
	H4453	H	0.600726	0.483825	0.776110
	H4454	H	0.847751	0.436959	0.722994
	H4455	H	0.601874	0.371678	0.776359
	H4456	H	0.849602	0.374201	0.833722
	H4457	H	0.598123	0.435830	0.761652
	H4458	H	0.849984	0.485720	0.719804
	H4459	H	0.603240	0.419815	0.767508
	H4460	H	0.668116	0.439013	0.713724
	H4461	H	0.920381	0.374221	0.765209
	H4462	H	0.674334	0.421311	0.817006
	H4463	H	0.920825	0.485911	0.767249
	O4464	O	0.102624	0.469082	0.843715
	O4465	O	0.342894	0.414763	0.948952
	O4466	O	0.085792	0.398193	0.990069
	O4467	O	0.344567	0.450427	0.878921
	O4468	O	0.423391	0.415747	0.983197
	O4469	O	0.181947	0.468337	0.875193
	O4470	O	0.425187	0.448842	0.845526
	O4471	O	0.166275	0.395483	0.956856
	O4472	O	0.416641	0.397391	0.988467
	O4473	O	0.175263	0.449638	0.877154
	O4474	O	0.432746	0.468408	0.841746
	O4475	O	0.173501	0.413849	0.947128
	O4476	O	0.094857	0.449546	0.843210
	O4477	O	0.335809	0.396295	0.954216
	O4478	O	0.093297	0.416552	0.980406
	O4479	O	0.351526	0.469102	0.872872
	F4480	F	0.004524	0.405258	0.955969
	F4481	F	0.263735	0.458772	0.846200
	F4482	F	0.013384	0.459105	0.872164
	F4483	F	0.254371	0.406786	0.981282
	Al4484	Al	0.129614	0.406028	0.968576
	Al4485	Al	0.388602	0.458982	0.859148
	Al4486	Al	0.138685	0.458944	0.859113
	Al4487	Al	0.379602	0.406036	0.968689
	C4488	C	0.102848	0.487278	0.836556
	C4489	C	0.348463	0.429406	0.921877
	C4490	C	0.089976	0.384458	1.019709
	C4491	C	0.348745	0.436544	0.907979
	C4492	C	0.415736	0.432235	0.999623
	C4493	C	0.174154	0.485212	0.890319
	C4494	C	0.422463	0.431391	0.833966
	C4495	C	0.163937	0.378243	0.944059
	C4496	C	0.410825	0.382802	1.015685
	C4497	C	0.169249	0.434719	0.903559
	C4498	C	0.423215	0.486230	0.830967
	C4499	C	0.169001	0.427576	0.917459
	C4500	C	0.102276	0.432748	0.827906
	C4501	C	0.343564	0.379808	0.937842
	C4502	C	0.095594	0.433791	0.993236
	C4503	C	0.354080	0.486572	0.884419
	C4504	C	0.014745	0.482095	0.835324
	C4505	C	0.258631	0.424841	0.926777
	C4506	C	0.000382	0.387270	1.010589
	C4507	C	0.259073	0.439294	0.898702
	C4508	C	0.006928	0.428693	0.992931
	C4509	C	0.265035	0.481477	0.884272
	C4510	C	0.011337	0.436440	0.834018
	C4511	C	0.252814	0.383324	0.944537
	C4512	C	0.017016	0.472476	0.840545
	C4513	C	0.258284	0.417290	0.942086
	C4514	C	0.000866	0.394829	0.995314
	C4515	C	0.259646	0.446985	0.883812
	C4516	C	0.008330	0.419682	0.984879
	C4517	C	0.266348	0.472301	0.876931
	C4518	C	0.010291	0.445600	0.841493
	C4519	C	0.251395	0.392349	0.952507
	H4520	H	0.173879	0.484231	0.840238
	H4521	H	0.417851	0.427395	0.929163
	H4522	H	0.159492	0.387921	1.015945
	H4523	H	0.418248	0.440071	0.904443
	H4524	H	0.347253	0.428308	0.999451
	H4525	H	0.105252	0.481301	0.890380
	H4526	H	0.352524	0.434230	0.838863
	H4527	H	0.093971	0.380929	0.949367
	H4528	H	0.341612	0.384873	1.008523
	H4529	H	0.099872	0.436760	0.896341
	H4530	H	0.354668	0.482307	0.829920
	H4531	H	0.099411	0.424068	0.921063
	H4532	H	0.171012	0.436688	0.827806
	H4533	H	0.412083	0.383748	0.937994
	H4534	H	0.165409	0.431122	0.987809
	H4535	H	0.424478	0.483769	0.879647
	O4536	O	0.602474	0.469113	0.843826
	O4537	O	0.842627	0.414736	0.948823
	O4538	O	0.586116	0.398199	0.990065
	O4539	O	0.844279	0.450470	0.879078
	O4540	O	0.923915	0.415762	0.983120
	O4541	O	0.682082	0.468334	0.875240
	O4542	O	0.925190	0.448809	0.845619
	O4543	O	0.666488	0.395540	0.956716
	O4544	O	0.916277	0.397390	0.988490
	O4545	O	0.675006	0.449616	0.877065
	O4546	O	0.932867	0.468362	0.841634
	O4547	O	0.673042	0.413903	0.947148
	O4548	O	0.594831	0.449587	0.843139
	O4549	O	0.836016	0.396290	0.954158
	O4550	O	0.592832	0.416539	0.980498
	O4551	O	0.851617	0.469118	0.872901
	F4552	F	0.504644	0.405265	0.955966
	F4553	F	0.763872	0.458768	0.846328
	F4554	F	0.513388	0.459122	0.872238
	F4555	F	0.754628	0.406821	0.981205
	Al4556	Al	0.629551	0.406046	0.968595
	Al4557	Al	0.888915	0.458958	0.859223
	Al4558	Al	0.638588	0.458948	0.859135
	Al4559	Al	0.879701	0.406035	0.968602
	C4560	C	0.603062	0.487305	0.836563
	C4561	C	0.848468	0.429379	0.921855
	C4562	C	0.590108	0.384503	1.019815
	C4563	C	0.848607	0.436523	0.907988
	C4564	C	0.916127	0.432212	0.999625
	C4565	C	0.673981	0.485208	0.890264
	C4566	C	0.922374	0.431333	0.833948
	C4567	C	0.664047	0.378244	0.944147
	C4568	C	0.910541	0.382774	1.015651
	C4569	C	0.669088	0.434711	0.903465
	C4570	C	0.923019	0.486193	0.830940
	C4571	C	0.668934	0.427566	0.917353
	C4572	C	0.602282	0.432774	0.827855
	C4573	C	0.843588	0.379783	0.937887
	C4574	C	0.595011	0.433811	0.993243
	C4575	C	0.853962	0.486572	0.884517
	C4576	C	0.514786	0.482131	0.835486
	C4577	C	0.758501	0.424847	0.926768
	C4578	C	0.500552	0.387302	1.010630
	C4579	C	0.758897	0.439309	0.898756
	C4580	C	0.506443	0.428711	0.992915
	C4581	C	0.764976	0.481469	0.884303
	C4582	C	0.511482	0.436474	0.834019
	C4583	C	0.752742	0.383331	0.944462
	C4584	C	0.516919	0.472519	0.840695
	C4585	C	0.757978	0.417309	0.942079
	C4586	C	0.501172	0.394821	0.995243
	C4587	C	0.759333	0.446999	0.883846
	C4588	C	0.507869	0.419677	0.984918
	C4589	C	0.766413	0.472305	0.876974
	C4590	C	0.510361	0.445629	0.841455
	C4591	C	0.751465	0.392375	0.952396
	H4592	H	0.674190	0.484251	0.840136
	H4593	H	0.917850	0.427342	0.929136
	H4594	H	0.659591	0.387976	1.016062
	H4595	H	0.918164	0.440033	0.904430
	H4596	H	0.847683	0.428260	0.999434
	H4597	H	0.605064	0.481297	0.890270
	H4598	H	0.852173	0.434130	0.838872
	H4599	H	0.594223	0.380922	0.949553
	H4600	H	0.841155	0.384848	1.008557
	H4601	H	0.599878	0.436727	0.896169
	H4602	H	0.854466	0.482261	0.829995
	H4603	H	0.599414	0.424033	0.920901
	H4604	H	0.670986	0.436716	0.827661
	H4605	H	0.912112	0.383719	0.938133
	H4606	H	0.664915	0.431163	0.987810
	H4607	H	0.924466	0.483771	0.879809
	O4608	O	0.102104	0.594105	-0.031076
	O4609	O	0.343037	0.539753	0.073992
	O4610	O	0.085849	0.523179	0.115110
	O4611	O	0.344421	0.575495	0.004060
	O4612	O	0.423578	0.540733	0.108260
	O4613	O	0.182222	0.593354	0.000170
	O4614	O	0.424804	0.573814	-0.029360
	O4615	O	0.166291	0.520500	0.081814
	O4616	O	0.416379	0.522322	0.113389
	O4617	O	0.175304	0.574601	0.002080
	O4618	O	0.432909	0.593397	-0.033320
	O4619	O	0.173646	0.538821	0.072092
	O4620	O	0.095012	0.574559	-0.031749
	O4621	O	0.335774	0.521321	0.079064
	O4622	O	0.093080	0.541516	0.105523
	O4623	O	0.351896	0.594096	-0.002021
	F4624	F	0.004759	0.530250	0.080999
	F4625	F	0.263667	0.583797	-0.028745
	F4626	F	0.013275	0.584117	-0.002702
	F4627	F	0.254597	0.531797	0.106292
	Al4628	Al	0.129771	0.531009	0.093631
	Al4629	Al	0.388516	0.583991	-0.015832
	Al4630	Al	0.138601	0.583957	-0.015844
	Al4631	Al	0.379758	0.531030	0.093664
	C4632	C	0.102639	0.612257	-0.038483
	C4633	C	0.348486	0.554438	0.047059
	C4634	C	0.089920	0.509557	0.145068
	C4635	C	0.348741	0.561582	0.033183
	C4636	C	0.416250	0.557236	0.124545
	C4637	C	0.174350	0.610214	0.015251
	C4638	C	0.422486	0.556352	-0.041020
	C4639	C	0.164005	0.503212	0.069248
	C4640	C	0.410699	0.507729	0.140559
	C4641	C	0.169789	0.559657	0.028367
	C4642	C	0.423141	0.611230	-0.043810
	C4643	C	0.169565	0.552506	0.042254
	C4644	C	0.102156	0.557755	-0.047080
	C4645	C	0.343487	0.504813	0.062802
	C4646	C	0.095714	0.558763	0.118478
	C4647	C	0.354238	0.611567	0.009544
	C4648	C	0.014292	0.607101	-0.039532
	C4649	C	0.258876	0.549819	0.051769
	C4650	C	0.000290	0.512273	0.135675
	C4651	C	0.259312	0.564305	0.023755
	C4652	C	0.006957	0.553681	0.118006
	C4653	C	0.265288	0.606476	0.009362
	C4654	C	0.011263	0.561483	-0.041055
	C4655	C	0.252721	0.508313	0.069540
	C4656	C	0.016544	0.597483	-0.034317
	C4657	C	0.258458	0.542262	0.067066
	C4658	C	0.000938	0.519806	0.120294
	C4659	C	0.259696	0.572002	0.008873
	C4660	C	0.008217	0.544667	0.109922
	C4661	C	0.266657	0.597305	0.001966
	C4662	C	0.010454	0.570618	-0.033490
	C4663	C	0.251338	0.517369	0.077411
	H4664	H	0.173658	0.609186	-0.034906
	H4665	H	0.417824	0.552468	0.054457
	H4666	H	0.159474	0.513086	0.141522
	H4667	H	0.418137	0.565144	0.029781
	H4668	H	0.347755	0.553299	0.124308
	H4669	H	0.105510	0.606303	0.015185
	H4670	H	0.352259	0.559142	-0.036147
	H4671	H	0.094167	0.505898	0.074630
	H4672	H	0.341430	0.509732	0.133220
	H4673	H	0.100694	0.561649	0.020962
	H4674	H	0.354582	0.607302	-0.044727
	H4675	H	0.100133	0.548946	0.045690
	H4676	H	0.171103	0.561668	-0.047142
	H4677	H	0.411802	0.508788	0.062890
	H4678	H	0.165680	0.556076	0.113183
	H4679	H	0.424545	0.608753	0.004808
	O4680	O	0.602628	0.594133	-0.031026
	O4681	O	0.842869	0.539732	0.073920
	O4682	O	0.585761	0.523247	0.115205
	O4683	O	0.844284	0.575476	0.004099
	O4684	O	0.923644	0.540770	0.108096
	O4685	O	0.682019	0.593322	0.000340
	O4686	O	0.925383	0.573843	-0.029353
	O4687	O	0.666248	0.520489	0.081840
	O4688	O	0.916295	0.522373	0.113508
	O4689	O	0.675033	0.574585	0.002096
	O4690	O	0.932405	0.593354	-0.033345
	O4691	O	0.673503	0.538805	0.072024
	O4692	O	0.594403	0.574593	-0.031741
	O4693	O	0.835844	0.521265	0.079203
	O4694	O	0.592973	0.541549	0.105431
	O4695	O	0.851681	0.594107	-0.001948
	F4696	F	0.504761	0.530261	0.081001
	F4697	F	0.763821	0.583781	-0.028622
	F4698	F	0.513337	0.584125	-0.002752
	F4699	F	0.754629	0.531781	0.106218
	Al4700	Al	0.629649	0.531020	0.093619
	Al4701	Al	0.888853	0.583969	-0.015683
	Al4702	Al	0.638598	0.583952	-0.015782
	Al4703	Al	0.879831	0.531015	0.093582
	C4704	C	0.603027	0.612295	-0.038338
	C4705	C	0.848213	0.554451	0.047097
	C4706	C	0.590105	0.509584	0.145134
	C4707	C	0.848369	0.561594	0.033220
	C4708	C	0.916013	0.557230	0.124478
	C4709	C	0.674019	0.610232	0.015237
	C4710	C	0.922429	0.556363	-0.041038
	C4711	C	0.664011	0.503202	0.069160
	C4712	C	0.910510	0.507673	0.140457
	C4713	C	0.669440	0.559645	0.028358
	C4714	C	0.922724	0.611205	-0.043948
	C4715	C	0.669314	0.552498	0.042246
	C4716	C	0.602251	0.557759	-0.046979
	C4717	C	0.843608	0.504805	0.062780
	C4718	C	0.595706	0.558772	0.118434
	C4719	C	0.853962	0.611572	0.009574
	C4720	C	0.514771	0.607134	-0.039441
	C4721	C	0.758669	0.549810	0.051752
	C4722	C	0.500422	0.512303	0.135712
	C4723	C	0.758993	0.564292	0.023744
	C4724	C	0.506913	0.553700	0.117898
	C4725	C	0.765022	0.606483	0.009398
	C4726	C	0.511295	0.561475	-0.040927
	C4727	C	0.752680	0.508308	0.069470
	C4728	C	0.517035	0.597519	-0.034263
	C4729	C	0.758292	0.542251	0.067024
	C4730	C	0.500934	0.519823	0.120319
	C4731	C	0.759462	0.571989	0.008873
	C4732	C	0.508013	0.544673	0.109904
	C4733	C	0.766371	0.597302	0.002057
	C4734	C	0.509988	0.570626	-0.033482
	C4735	C	0.751245	0.517351	0.077414
	H4736	H	0.674010	0.609226	-0.034741
	H4737	H	0.917510	0.552491	0.054523
	H4738	H	0.659680	0.513119	0.141597
	H4739	H	0.917751	0.565167	0.029854
	H4740	H	0.847418	0.553301	0.124127
	H4741	H	0.605098	0.606326	0.015203
	H4742	H	0.852264	0.559148	-0.036094
	H4743	H	0.594152	0.505879	0.074557
	H4744	H	0.841157	0.509645	0.133078
	H4745	H	0.600311	0.561627	0.020960
	H4746	H	0.854079	0.607288	-0.044892
	H4747	H	0.599929	0.548924	0.045686
	H4748	H	0.671106	0.561685	-0.047068
	H4749	H	0.911981	0.508774	0.062943
	H4750	H	0.665635	0.556081	0.113165
	H4751	H	0.924394	0.608754	0.004891
	O4752	O	0.092762	0.602159	0.136371
	O4753	O	0.334239	0.549909	0.247836
	O4754	O	0.076708	0.531156	0.283253
	O4755	O	0.335885	0.585698	0.177742
	O4756	O	0.414527	0.549953	0.281822
	O4757	O	0.173458	0.603259	0.170586
	O4758	O	0.416623	0.582983	0.144534
	O4759	O	0.157439	0.530430	0.252029
	O4760	O	0.406984	0.530463	0.281174
	O4761	O	0.166462	0.584805	0.176007
	O4762	O	0.423349	0.601392	0.134913
	O4763	O	0.164952	0.549104	0.245978
	O4764	O	0.085647	0.583785	0.141687
	O4765	O	0.327023	0.531227	0.249703
	O4766	O	0.084228	0.550697	0.279379
	O4767	O	0.343013	0.604019	0.168131
	F4768	F	-0.004161	0.540431	0.252736
	F4769	F	0.254890	0.592733	0.143570
	F4770	F	0.004840	0.594272	0.168870
	F4771	F	0.245661	0.540747	0.278717
	Al4772	Al	0.120838	0.540563	0.265784
	Al4773	Al	0.379871	0.593496	0.156272
	Al4774	Al	0.129838	0.593502	0.156187
	Al4775	Al	0.370793	0.540595	0.265831
	C4776	C	0.098247	0.616836	0.109419
	C4777	C	0.339925	0.564843	0.221465
	C4778	C	0.085927	0.513330	0.294008
	C4779	C	0.340129	0.571997	0.207578
	C4780	C	0.407041	0.566807	0.296892
	C4781	C	0.165994	0.619709	0.187211
	C4782	C	0.414238	0.565739	0.131622
	C4783	C	0.155314	0.512940	0.240558
	C4784	C	0.406474	0.512284	0.288481
	C4785	C	0.160607	0.570237	0.203269
	C4786	C	0.418890	0.615064	0.105055
	C4787	C	0.160404	0.563091	0.217138
	C4788	C	0.093643	0.567263	0.125533
	C4789	C	0.334986	0.514342	0.234563
	C4790	C	0.086909	0.568132	0.291273
	C4791	C	0.345332	0.621310	0.180624
	C4792	C	0.008452	0.612280	0.114308
	C4793	C	0.250112	0.560278	0.226309
	C4794	C	-0.005542	0.517439	0.289583
	C4795	C	0.250598	0.574747	0.198238
	C4796	C	-0.002001	0.563032	0.291117
	C4797	C	0.256744	0.616197	0.180423
	C4798	C	0.002698	0.570799	0.132068
	C4799	C	0.244225	0.518054	0.240669
	C4800	C	0.008142	0.604721	0.129632
	C4801	C	0.249885	0.552555	0.241133
	C4802	C	-0.007547	0.527059	0.284306
	C4803	C	0.251094	0.582285	0.182871
	C4804	C	-0.000896	0.553893	0.283557
	C4805	C	0.258005	0.607169	0.172435
	C4806	C	0.001363	0.579836	0.140047
	C4807	C	0.242759	0.527234	0.248038
	H4808	H	0.167693	0.614810	0.116673
	H4809	H	0.409257	0.562780	0.228697
	H4810	H	0.154553	0.517245	0.294963
	H4811	H	0.409678	0.575513	0.203957
	H4812	H	0.338237	0.562885	0.296911
	H4813	H	0.097549	0.615741	0.187118
	H4814	H	0.344415	0.568433	0.136948
	H4815	H	0.084950	0.515738	0.245330
	H4816	H	0.335566	0.515351	0.284833
	H4817	H	0.091056	0.572278	0.196115
	H4818	H	0.349320	0.611551	0.108669
	H4819	H	0.090707	0.559602	0.220726
	H4820	H	0.162225	0.571194	0.125825
	H4821	H	0.403782	0.518270	0.234413
	H4822	H	0.157164	0.565325	0.286450
	H4823	H	0.415140	0.618647	0.175131
	O4824	O	0.592908	0.602181	0.136437
	O4825	O	0.833912	0.549946	0.247774
	O4826	O	0.576780	0.531174	0.283170
	O4827	O	0.835691	0.585728	0.177816
	O4828	O	0.914632	0.549953	0.281802
	O4829	O	0.673754	0.603245	0.170716
	O4830	O	0.916227	0.582963	0.144470
	O4831	O	0.657315	0.530490	0.251872
	O4832	O	0.906906	0.530470	0.281098
	O4833	O	0.666298	0.584816	0.175962
	O4834	O	0.923326	0.601317	0.134764
	O4835	O	0.664590	0.549109	0.245925
	O4836	O	0.586082	0.583773	0.141759
	O4837	O	0.827044	0.531189	0.249705
	O4838	O	0.584213	0.550717	0.279371
	O4839	O	0.843320	0.604037	0.168094
	F4840	F	0.495862	0.540445	0.252747
	F4841	F	0.755115	0.592749	0.143599
	F4842	F	0.504790	0.594285	0.168886
	F4843	F	0.745777	0.540774	0.278567
	Al4844	Al	0.620854	0.540601	0.265733
	Al4845	Al	0.879935	0.593507	0.156301
	Al4846	Al	0.629875	0.593511	0.156206
	Al4847	Al	0.871095	0.540598	0.265677
	C4848	C	0.598488	0.616847	0.109449
	C4849	C	0.839696	0.564861	0.221411
	C4850	C	0.586402	0.513367	0.294030
	C4851	C	0.840068	0.572021	0.207539
	C4852	C	0.906958	0.566764	0.297032
	C4853	C	0.666168	0.619708	0.187288
	C4854	C	0.913925	0.565728	0.131537
	C4855	C	0.654669	0.512966	0.240559
	C4856	C	0.906248	0.512278	0.288345
	C4857	C	0.660523	0.570222	0.203168
	C4858	C	0.918829	0.615059	0.105026
	C4859	C	0.660183	0.563075	0.217026
	C4860	C	0.593778	0.567268	0.125506
	C4861	C	0.834485	0.514333	0.234648
	C4862	C	0.586956	0.568171	0.291114
	C4863	C	0.845462	0.621326	0.180699
	C4864	C	0.508565	0.612305	0.114385
	C4865	C	0.749815	0.560289	0.226238
	C4866	C	0.494797	0.517450	0.289572
	C4867	C	0.750396	0.574769	0.198229
	C4868	C	0.497943	0.563082	0.290903
	C4869	C	0.756841	0.616217	0.180432
	C4870	C	0.502941	0.570813	0.132086
	C4871	C	0.743610	0.518069	0.240633
	C4872	C	0.508261	0.604745	0.129666
	C4873	C	0.749434	0.552584	0.241098
	C4874	C	0.492593	0.527067	0.284311
	C4875	C	0.750843	0.582303	0.182871
	C4876	C	0.499016	0.553922	0.283443
	C4877	C	0.758243	0.607176	0.172457
	C4878	C	0.501563	0.579843	0.140073
	C4879	C	0.742456	0.527250	0.247955
	H4880	H	0.667873	0.614807	0.116695
	H4881	H	0.909038	0.562800	0.228647
	H4882	H	0.655036	0.517291	0.294958
	H4883	H	0.909587	0.575536	0.203920
	H4884	H	0.838069	0.562848	0.297034
	H4885	H	0.597808	0.615730	0.187244
	H4886	H	0.843925	0.568423	0.136788
	H4887	H	0.584362	0.515768	0.245354
	H4888	H	0.835376	0.515342	0.284635
	H4889	H	0.591056	0.572253	0.195938
	H4890	H	0.849219	0.611559	0.108651
	H4891	H	0.590405	0.559567	0.220555
	H4892	H	0.662270	0.571209	0.125808
	H4893	H	0.903384	0.518248	0.234584
	H4894	H	0.657192	0.565352	0.286312
	H4895	H	0.915314	0.618653	0.175244
	O4896	O	0.083961	0.612442	0.310264
	O4897	O	0.338608	0.548599	0.366846
	O4898	O	0.080935	0.528037	0.395899
	O4899	O	0.326502	0.593654	0.345591
	O4900	O	0.418019	0.547138	0.397587
	O4901	O	0.164488	0.612495	0.344083
	O4902	O	0.407450	0.592959	0.314498
	O4903	O	0.161528	0.528325	0.364925
	O4904	O	0.410810	0.527437	0.393763
	O4905	O	0.156701	0.592982	0.343677
	O4906	O	0.414666	0.611633	0.308373
	O4907	O	0.168893	0.547963	0.364823
	O4908	O	0.077005	0.593719	0.312121
	O4909	O	0.331258	0.528953	0.363139
	O4910	O	0.087704	0.547819	0.395675
	O4911	O	0.334135	0.613226	0.341809
	F4912	F	0.000039	0.538393	0.367249
	F4913	F	0.245811	0.602934	0.315141
	F4914	F	-0.004272	0.603273	0.341123
	F4915	F	0.249500	0.537652	0.393587
	Al4916	Al	0.124842	0.538035	0.380460
	Al4917	Al	0.370476	0.603088	0.328208
	Al4918	Al	0.120730	0.603107	0.328228
	Al4919	Al	0.374667	0.538035	0.380383
	C4920	C	0.089448	0.627391	0.283950
	C4921	C	0.339506	0.566848	0.359772
	C4922	C	0.089602	0.509993	0.403942
	C4923	C	0.336256	0.575879	0.356453
	C4924	C	0.410241	0.564386	0.411017
	C4925	C	0.157217	0.629322	0.359402
	C4926	C	0.405148	0.575464	0.302955
	C4927	C	0.158587	0.510694	0.353746
	C4928	C	0.409185	0.509149	0.398779
	C4929	C	0.156351	0.574772	0.350986
	C4930	C	0.410777	0.625532	0.279305
	C4931	C	0.159610	0.565740	0.354319
	C4932	C	0.084999	0.576798	0.297307
	C4933	C	0.338760	0.511839	0.348931
	C4934	C	0.090579	0.565511	0.406427
	C4935	C	0.337032	0.630686	0.353546
	C4936	C	-0.000141	0.622770	0.288687
	C4937	C	0.251312	0.561670	0.358738
	C4938	C	-0.001959	0.514242	0.400486
	C4939	C	0.244518	0.579952	0.352058
	C4940	C	0.001336	0.560432	0.406147
	C4941	C	0.248054	0.625602	0.353363
	C4942	C	-0.006009	0.580535	0.303204
	C4943	C	0.247663	0.515780	0.353991
	C4944	C	-0.000473	0.615056	0.303533
	C4945	C	0.253260	0.552044	0.363794
	C4946	C	-0.003485	0.523967	0.396625
	C4947	C	0.242215	0.589568	0.346790
	C4948	C	0.002555	0.551133	0.399291
	C4949	C	0.249016	0.616447	0.345855
	C4950	C	-0.007388	0.589740	0.310441
	C4951	C	0.246626	0.525033	0.361122
	H4952	H	0.158832	0.625383	0.291248
	H4953	H	0.410653	0.563792	0.363303
	H4954	H	0.158610	0.513841	0.405242
	H4955	H	0.404778	0.579810	0.357364
	H4956	H	0.340890	0.560527	0.411026
	H4957	H	0.088387	0.625405	0.359431
	H4958	H	0.334837	0.578252	0.307750
	H4959	H	0.087697	0.513628	0.357679
	H4960	H	0.338183	0.512329	0.395882
	H4961	H	0.085425	0.577834	0.347379
	H4962	H	0.341262	0.621991	0.282776
	H4963	H	0.091096	0.561795	0.353368
	H4964	H	0.153870	0.580713	0.297284
	H4965	H	0.408057	0.515700	0.348907
	H4966	H	0.161468	0.562563	0.402545
	H4967	H	0.407205	0.627877	0.348697
	O4968	O	0.583899	0.612440	0.310299
	O4969	O	0.837866	0.548575	0.366746
	O4970	O	0.580563	0.528015	0.395748
	O4971	O	0.826148	0.593670	0.345735
	O4972	O	0.917911	0.547171	0.397449
	O4973	O	0.664401	0.612496	0.344224
	O4974	O	0.907362	0.592951	0.314376
	O4975	O	0.661258	0.528358	0.364729
	O4976	O	0.911097	0.527492	0.394040
	O4977	O	0.656367	0.592987	0.343727
	O4978	O	0.914810	0.611580	0.308325
	O4979	O	0.668228	0.547957	0.364675
	O4980	O	0.577210	0.593684	0.312362
	O4981	O	0.831042	0.528886	0.363313
	O4982	O	0.587741	0.547803	0.395649
	O4983	O	0.833959	0.613231	0.341789
	F4984	F	0.499815	0.538425	0.367215
	F4985	F	0.745706	0.602945	0.315228
	F4986	F	0.495243	0.603283	0.341120
	F4987	F	0.749321	0.537670	0.393484
	Al4988	Al	0.624524	0.538029	0.380387
	Al4989	Al	0.870679	0.603064	0.328202
	Al4990	Al	0.620599	0.603121	0.328321
	Al4991	Al	0.874869	0.538022	0.380383
	C4992	C	0.589949	0.627412	0.284003
	C4993	C	0.838735	0.566833	0.359822
	C4994	C	0.589533	0.510004	0.403903
	C4995	C	0.835582	0.575870	0.356569
	C4996	C	0.910175	0.564387	0.411146
	C4997	C	0.656942	0.629279	0.359636
	C4998	C	0.905046	0.575429	0.303025
	C4999	C	0.657819	0.510691	0.353642
	C5000	C	0.909264	0.509168	0.398917
	C5001	C	0.655832	0.574791	0.350960
	C5002	C	0.910322	0.625518	0.279293
	C5003	C	0.658995	0.565749	0.354210
	C5004	C	0.584980	0.576826	0.297226
	C5005	C	0.838075	0.511833	0.348742
	C5006	C	0.590569	0.565515	0.406236
	C5007	C	0.836531	0.630697	0.353490
	C5008	C	0.500239	0.622789	0.288686
	C5009	C	0.750621	0.561656	0.358584
	C5010	C	0.497848	0.514231	0.400407
	C5011	C	0.744073	0.579956	0.352052
	C5012	C	0.501429	0.560422	0.406068
	C5013	C	0.747743	0.625585	0.353468
	C5014	C	0.494007	0.580574	0.303079
	C5015	C	0.746980	0.515768	0.353864
	C5016	C	0.499631	0.615080	0.303540
	C5017	C	0.752578	0.552026	0.363647
	C5018	C	0.496131	0.523940	0.396456
	C5019	C	0.741905	0.589572	0.346829
	C5020	C	0.502536	0.551112	0.399323
	C5021	C	0.748917	0.616439	0.345932
	C5022	C	0.492696	0.589743	0.310525
	C5023	C	0.746272	0.525015	0.361082
	H5024	H	0.659217	0.625423	0.291380
	H5025	H	0.909746	0.563776	0.363442
	H5026	H	0.658476	0.513863	0.405131
	H5027	H	0.904180	0.579787	0.357621
	H5028	H	0.840809	0.560527	0.411162
	H5029	H	0.588185	0.625346	0.359836
	H5030	H	0.834666	0.578237	0.307714
	H5031	H	0.586972	0.513631	0.357563
	H5032	H	0.838158	0.512352	0.396115
	H5033	H	0.584911	0.577869	0.347387
	H5034	H	0.840880	0.621957	0.282736
	H5035	H	0.590509	0.561811	0.353238
	H5036	H	0.653924	0.580723	0.297309
	H5037	H	0.907356	0.515702	0.348687
	H5038	H	0.661479	0.562576	0.402297
	H5039	H	0.906684	0.627908	0.348557
	O5040	O	0.088051	0.611079	0.429452
	O5041	O	0.340939	0.545126	0.473719
	O5042	O	0.083691	0.524486	0.502226
	O5043	O	0.330584	0.590543	0.458386
	O5044	O	0.420505	0.543633	0.504163
	O5045	O	0.168013	0.609690	0.459970
	O5046	O	0.411509	0.590822	0.427318
	O5047	O	0.164354	0.524818	0.471403
	O5048	O	0.413651	0.523936	0.500299
	O5049	O	0.160854	0.589922	0.456357
	O5050	O	0.418532	0.610396	0.426996
	O5051	O	0.171266	0.544541	0.471555
	O5052	O	0.081276	0.591425	0.425697
	O5053	O	0.334081	0.525435	0.469723
	O5054	O	0.089994	0.544221	0.502443
	O5055	O	0.337574	0.610324	0.458068
	F5056	F	0.002898	0.534922	0.473716
	F5057	F	0.249604	0.600891	0.429699
	F5058	F	-0.000269	0.600140	0.456101
	F5059	F	0.252018	0.534107	0.500155
	Al5060	Al	0.127388	0.534522	0.486905
	Al5061	Al	0.374596	0.600523	0.442869
	Al5062	Al	0.124639	0.600509	0.442938
	Al5063	Al	0.377298	0.534520	0.486962
	C5064	C	0.089438	0.629306	0.422246
	C5065	C	0.342558	0.563420	0.468407
	C5066	C	0.092255	0.506479	0.510421
	C5067	C	0.339763	0.572502	0.466418
	C5068	C	0.412991	0.560833	0.517904
	C5069	C	0.160182	0.626895	0.473568
	C5070	C	0.408349	0.573188	0.416077
	C5071	C	0.161064	0.507164	0.460415
	C5072	C	0.411884	0.505667	0.505691
	C5073	C	0.159389	0.571632	0.461484
	C5074	C	0.409396	0.628237	0.416579
	C5075	C	0.162182	0.562540	0.463466
	C5076	C	0.088684	0.574309	0.411521
	C5077	C	0.341604	0.508243	0.455976
	C5078	C	0.093259	0.561869	0.513588
	C5079	C	0.340480	0.628030	0.468666
	C5080	C	0.000977	0.624150	0.421210
	C5081	C	0.253946	0.558325	0.466909
	C5082	C	0.000666	0.510715	0.506934
	C5083	C	0.248115	0.576721	0.462886
	C5084	C	0.003977	0.556805	0.513222
	C5085	C	0.251370	0.622927	0.468517
	C5086	C	-0.002482	0.578258	0.416488
	C5087	C	0.250355	0.512222	0.460756
	C5088	C	0.002968	0.614523	0.426264
	C5089	C	0.255658	0.548623	0.470947
	C5090	C	-0.000948	0.520422	0.502955
	C5091	C	0.246309	0.586437	0.458979
	C5092	C	0.004847	0.547538	0.506191
	C5093	C	0.252519	0.613646	0.461745
	C5094	C	-0.003296	0.587517	0.423616
	C5095	C	0.249501	0.521502	0.467744
	H5096	H	0.160492	0.626232	0.425790
	H5097	H	0.413718	0.560261	0.471221
	H5098	H	0.161275	0.510331	0.511628
	H5099	H	0.408659	0.576361	0.467722
	H5100	H	0.343518	0.556996	0.517805
	H5101	H	0.090827	0.623032	0.473633
	H5102	H	0.337586	0.576133	0.419994
	H5103	H	0.090211	0.510147	0.464177
	H5104	H	0.340760	0.508851	0.503004
	H5105	H	0.088198	0.574827	0.458738
	H5106	H	0.340835	0.624315	0.415504
	H5107	H	0.093283	0.558671	0.462290
	H5108	H	0.158019	0.578165	0.411594
	H5109	H	0.410964	0.512094	0.456099
	H5110	H	0.164274	0.558907	0.509846
	H5111	H	0.411302	0.625095	0.464671
	O5112	O	0.587981	0.611051	0.429333
	O5113	O	0.840573	0.545122	0.473400
	O5114	O	0.583348	0.524542	0.502398
	O5115	O	0.830483	0.590494	0.458392
	O5116	O	0.920116	0.543617	0.504123
	O5117	O	0.667719	0.609698	0.459919
	O5118	O	0.911451	0.590829	0.427353
	O5119	O	0.663798	0.524796	0.471456
	O5120	O	0.913820	0.523954	0.500314
	O5121	O	0.660698	0.589961	0.456537
	O5122	O	0.918535	0.610420	0.427087
	O5123	O	0.670751	0.544537	0.471541
	O5124	O	0.581312	0.591405	0.425732
	O5125	O	0.833518	0.525398	0.469625
	O5126	O	0.590335	0.544237	0.502485
	O5127	O	0.837349	0.610316	0.458269
	F5128	F	0.502236	0.534941	0.473789
	F5129	F	0.749801	0.600857	0.429866
	F5130	F	0.499419	0.600155	0.456035
	F5131	F	0.752198	0.534103	0.500019
	Al5132	Al	0.627150	0.534521	0.486914
	Al5133	Al	0.874955	0.600513	0.442981
	Al5134	Al	0.624690	0.600514	0.442991
	Al5135	Al	0.877561	0.534508	0.486848
	C5136	C	0.589123	0.629286	0.422246
	C5137	C	0.842189	0.563411	0.468375
	C5138	C	0.592312	0.506497	0.510512
	C5139	C	0.839455	0.572493	0.466453
	C5140	C	0.912655	0.560809	0.517942
	C5141	C	0.659977	0.626884	0.473726
	C5142	C	0.908262	0.573188	0.416220
	C5143	C	0.660518	0.507133	0.460391
	C5144	C	0.911780	0.505636	0.505551
	C5145	C	0.659056	0.571631	0.461447
	C5146	C	0.909590	0.628254	0.416686
	C5147	C	0.661777	0.562532	0.463381
	C5148	C	0.588693	0.574313	0.411322
	C5149	C	0.841017	0.508217	0.455886
	C5150	C	0.593492	0.561912	0.513480
	C5151	C	0.840283	0.628037	0.468771
	C5152	C	0.500835	0.624120	0.421140
	C5153	C	0.753479	0.558324	0.466894
	C5154	C	0.500746	0.510736	0.507005
	C5155	C	0.747688	0.576715	0.462986
	C5156	C	0.504257	0.556835	0.513156
	C5157	C	0.751148	0.622924	0.468714
	C5158	C	0.497547	0.578265	0.416340
	C5159	C	0.749771	0.512192	0.460750
	C5160	C	0.502732	0.614495	0.426171
	C5161	C	0.755148	0.548619	0.470820
	C5162	C	0.499050	0.520448	0.503018
	C5163	C	0.745947	0.586433	0.459101
	C5164	C	0.505194	0.547553	0.506185
	C5165	C	0.752192	0.613644	0.461858
	C5166	C	0.496613	0.587512	0.423566
	C5167	C	0.748863	0.521469	0.467735
	H5168	H	0.660080	0.626208	0.425788
	H5169	H	0.913325	0.560227	0.471139
	H5170	H	0.661349	0.510344	0.511734
	H5171	H	0.908385	0.576349	0.467732
	H5172	H	0.843053	0.556985	0.517778
	H5173	H	0.590613	0.623022	0.473766
	H5174	H	0.837453	0.576133	0.420137
	H5175	H	0.589622	0.510108	0.464155
	H5176	H	0.840622	0.508822	0.502800
	H5177	H	0.588029	0.574813	0.458650
	H5178	H	0.840855	0.624345	0.415670
	H5179	H	0.592920	0.558665	0.462107
	H5180	H	0.657982	0.578172	0.411355
	H5181	H	0.910366	0.512073	0.455949
	H5182	H	0.664496	0.558952	0.509747
	H5183	H	0.911032	0.625107	0.464732
	O5184	O	0.091114	0.607623	0.536083
	O5185	O	0.343167	0.541626	0.580447
	O5186	O	0.085599	0.521003	0.609011
	O5187	O	0.333333	0.587021	0.564784
	O5188	O	0.422796	0.540147	0.610960
	O5189	O	0.170802	0.606127	0.566621
	O5190	O	0.414138	0.587322	0.533790
	O5191	O	0.166655	0.521322	0.578211
	O5192	O	0.415603	0.520473	0.607344
	O5193	O	0.163601	0.586443	0.562852
	O5194	O	0.421217	0.607053	0.533930
	O5195	O	0.173478	0.541036	0.578282
	O5196	O	0.083789	0.587908	0.532267
	O5197	O	0.336441	0.521924	0.576638
	O5198	O	0.092551	0.540779	0.609161
	O5199	O	0.340359	0.606741	0.564874
	F5200	F	0.004845	0.531437	0.580503
	F5201	F	0.252537	0.597404	0.536225
	F5202	F	0.002232	0.596628	0.562629
	F5203	F	0.254242	0.530639	0.606908
	Al5204	Al	0.129551	0.531036	0.593755
	Al5205	Al	0.377292	0.597026	0.549328
	Al5206	Al	0.127399	0.597031	0.549429
	Al5207	Al	0.379423	0.531035	0.593837
	C5208	C	0.092436	0.625910	0.530882
	C5209	C	0.344915	0.559904	0.575011
	C5210	C	0.094356	0.502991	0.617227
	C5211	C	0.342188	0.568995	0.572965
	C5212	C	0.415210	0.557358	0.624683
	C5213	C	0.162927	0.623336	0.580366
	C5214	C	0.411138	0.569648	0.522837
	C5215	C	0.163582	0.503651	0.567252
	C5216	C	0.413809	0.502157	0.612516
	C5217	C	0.161734	0.568147	0.568240
	C5218	C	0.412057	0.625080	0.525912
	C5219	C	0.164438	0.559057	0.570275
	C5220	C	0.091424	0.570680	0.518607
	C5221	C	0.343928	0.504738	0.562713
	C5222	C	0.095391	0.558442	0.620299
	C5223	C	0.343438	0.624411	0.575974
	C5224	C	0.003813	0.620806	0.529329
	C5225	C	0.256087	0.554824	0.573714
	C5226	C	0.002727	0.507223	0.613800
	C5227	C	0.250553	0.573231	0.569592
	C5228	C	0.006202	0.553359	0.619922
	C5229	C	0.254249	0.619331	0.575573
	C5230	C	0.000211	0.574672	0.523372
	C5231	C	0.252809	0.508726	0.567555
	C5232	C	0.005768	0.611106	0.533298
	C5233	C	0.257850	0.545121	0.577706
	C5234	C	0.001136	0.516940	0.609792
	C5235	C	0.248926	0.582941	0.565525
	C5236	C	0.007402	0.544074	0.612939
	C5237	C	0.255390	0.610061	0.568608
	C5238	C	-0.000870	0.583959	0.530294
	C5239	C	0.251830	0.518003	0.574570
	H5240	H	0.163602	0.622740	0.533722
	H5241	H	0.416067	0.556721	0.577708
	H5242	H	0.163465	0.506835	0.618392
	H5243	H	0.411256	0.572841	0.574064
	H5244	H	0.345741	0.553525	0.624546
	H5245	H	0.093470	0.619498	0.580312
	H5246	H	0.340176	0.572616	0.526538
	H5247	H	0.092588	0.506591	0.571037
	H5248	H	0.342692	0.505344	0.609796
	H5249	H	0.090646	0.571332	0.565504
	H5250	H	0.343056	0.621226	0.524710
	H5251	H	0.095396	0.555203	0.569134
	H5252	H	0.160918	0.574513	0.518739
	H5253	H	0.413521	0.508564	0.562748
	H5254	H	0.166479	0.555484	0.616594
	H5255	H	0.414555	0.621451	0.572303
	O5256	O	0.590910	0.607647	0.536012
	O5257	O	0.843056	0.541682	0.580418
	O5258	O	0.585389	0.521018	0.609197
	O5259	O	0.832829	0.587022	0.564977
	O5260	O	0.922867	0.540110	0.611081
	O5261	O	0.670597	0.606138	0.566580
	O5262	O	0.913947	0.587277	0.533989
	O5263	O	0.666150	0.521332	0.578351
	O5264	O	0.915781	0.520462	0.607185
	O5265	O	0.663066	0.586457	0.562804
	O5266	O	0.921548	0.606988	0.533808
	O5267	O	0.673348	0.541052	0.578366
	O5268	O	0.583896	0.587945	0.532107
	O5269	O	0.835875	0.521935	0.576560
	O5270	O	0.592548	0.540773	0.609330
	O5271	O	0.840335	0.606779	0.564899
	F5272	F	0.504555	0.531462	0.580665
	F5273	F	0.752776	0.597426	0.536288
	F5274	F	0.501839	0.596629	0.562447
	F5275	F	0.754350	0.530659	0.606881
	Al5276	Al	0.629440	0.531047	0.593826
	Al5277	Al	0.877698	0.597022	0.549465
	Al5278	Al	0.627289	0.597033	0.549358
	Al5279	Al	0.879887	0.531043	0.593689
	C5280	C	0.592371	0.625937	0.530890
	C5281	C	0.844440	0.559940	0.574981
	C5282	C	0.594229	0.503007	0.617384
	C5283	C	0.841608	0.569026	0.572912
	C5284	C	0.914884	0.557338	0.624761
	C5285	C	0.662671	0.623310	0.580389
	C5286	C	0.910811	0.569619	0.522948
	C5287	C	0.662959	0.503664	0.567276
	C5288	C	0.913925	0.502148	0.612433
	C5289	C	0.661154	0.568158	0.568192
	C5290	C	0.912144	0.625037	0.525857
	C5291	C	0.664002	0.559074	0.570263
	C5292	C	0.591615	0.570725	0.518429
	C5293	C	0.843357	0.504759	0.562720
	C5294	C	0.595763	0.558433	0.620386
	C5295	C	0.843148	0.624410	0.575926
	C5296	C	0.503729	0.620839	0.529349
	C5297	C	0.755743	0.554854	0.573643
	C5298	C	0.502517	0.507238	0.613908
	C5299	C	0.749845	0.573251	0.569559
	C5300	C	0.506478	0.553358	0.619952
	C5301	C	0.753887	0.619321	0.575584
	C5302	C	0.500376	0.574714	0.523205
	C5303	C	0.752147	0.508734	0.567604
	C5304	C	0.505567	0.611142	0.533306
	C5305	C	0.757602	0.545151	0.577686
	C5306	C	0.500891	0.516953	0.609931
	C5307	C	0.748327	0.582955	0.565585
	C5308	C	0.507354	0.544082	0.612976
	C5309	C	0.755081	0.610064	0.568633
	C5310	C	0.499306	0.584006	0.530134
	C5311	C	0.751210	0.518011	0.574630
	H5312	H	0.663579	0.622766	0.533697
	H5313	H	0.915717	0.556782	0.577717
	H5314	H	0.663168	0.506863	0.618607
	H5315	H	0.910609	0.572883	0.574005
	H5316	H	0.845452	0.553489	0.624690
	H5317	H	0.593135	0.619480	0.580321
	H5318	H	0.839825	0.572591	0.526634
	H5319	H	0.591984	0.506608	0.571075
	H5320	H	0.842746	0.505331	0.609684
	H5321	H	0.590050	0.571349	0.565463
	H5322	H	0.843113	0.621190	0.524612
	H5323	H	0.595089	0.555207	0.569169
	H5324	H	0.661056	0.574565	0.518504
	H5325	H	0.912864	0.508588	0.562779
	H5326	H	0.666886	0.555472	0.616715
	H5327	H	0.914134	0.621451	0.572202
	O5328	O	0.093114	0.604094	0.642851
	O5329	O	0.345474	0.538117	0.687248
	O5330	O	0.087886	0.517526	0.715945
	O5331	O	0.335520	0.583536	0.671627
	O5332	O	0.425011	0.536634	0.717941
	O5333	O	0.172899	0.602677	0.673379
	O5334	O	0.416210	0.583858	0.640626
	O5335	O	0.169152	0.517840	0.685037
	O5336	O	0.418290	0.516987	0.714157
	O5337	O	0.165717	0.582947	0.669679
	O5338	O	0.423376	0.603537	0.640708
	O5339	O	0.175824	0.537562	0.685245
	O5340	O	0.085861	0.584414	0.639154
	O5341	O	0.338888	0.518433	0.683504
	O5342	O	0.094584	0.537241	0.716148
	O5343	O	0.342763	0.603286	0.671641
	F5344	F	0.007014	0.527944	0.687377
	F5345	F	0.254454	0.593926	0.643109
	F5346	F	0.004492	0.593136	0.669511
	F5347	F	0.256378	0.527138	0.713802
	Al5348	Al	0.131785	0.527549	0.700543
	Al5349	Al	0.379300	0.593541	0.656145
	Al5350	Al	0.129505	0.593535	0.656278
	Al5351	Al	0.381684	0.527541	0.700687
	C5352	C	0.094928	0.622394	0.637437
	C5353	C	0.347421	0.556431	0.681752
	C5354	C	0.096835	0.499502	0.724105
	C5355	C	0.344709	0.565526	0.679729
	C5356	C	0.417111	0.553887	0.731532
	C5357	C	0.165610	0.619847	0.687172
	C5358	C	0.413147	0.566174	0.629626
	C5359	C	0.165918	0.500166	0.674067
	C5360	C	0.416451	0.498688	0.719186
	C5361	C	0.164235	0.564665	0.674992
	C5362	C	0.414573	0.621556	0.632560
	C5363	C	0.166962	0.555585	0.677007
	C5364	C	0.093428	0.567258	0.625250
	C5365	C	0.346330	0.501261	0.669509
	C5366	C	0.097650	0.554903	0.727180
	C5367	C	0.346064	0.620955	0.682638
	C5368	C	0.006192	0.617303	0.636087
	C5369	C	0.258604	0.551350	0.680507
	C5370	C	0.005139	0.503739	0.720670
	C5371	C	0.252964	0.569749	0.676337
	C5372	C	0.008400	0.549835	0.726863
	C5373	C	0.256908	0.615867	0.682387
	C5374	C	0.002117	0.571232	0.630004
	C5375	C	0.255219	0.505232	0.674411
	C5376	C	0.007841	0.607594	0.640140
	C5377	C	0.260244	0.541635	0.684573
	C5378	C	0.003650	0.513454	0.716678
	C5379	C	0.251105	0.579456	0.672344
	C5380	C	0.009446	0.540558	0.719808
	C5381	C	0.257657	0.606591	0.675389
	C5382	C	0.001153	0.580513	0.637036
	C5383	C	0.254333	0.514510	0.681440
	H5384	H	0.166143	0.619220	0.640207
	H5385	H	0.418452	0.553219	0.684463
	H5386	H	0.165886	0.503351	0.725350
	H5387	H	0.413484	0.569405	0.680893
	H5388	H	0.347613	0.550054	0.731438
	H5389	H	0.096159	0.616005	0.687057
	H5390	H	0.342137	0.569147	0.633282
	H5391	H	0.095042	0.503136	0.677850
	H5392	H	0.345379	0.501871	0.716434
	H5393	H	0.092923	0.567829	0.672272
	H5394	H	0.345540	0.617707	0.631358
	H5395	H	0.097849	0.551742	0.675825
	H5396	H	0.162882	0.571098	0.625372
	H5397	H	0.415776	0.505104	0.669575
	H5398	H	0.168579	0.551934	0.723404
	H5399	H	0.417013	0.618009	0.678798
	O5400	O	0.593117	0.604116	0.642764
	O5401	O	0.845185	0.538133	0.687168
	O5402	O	0.588054	0.517554	0.716096
	O5403	O	0.835201	0.583515	0.671779
	O5404	O	0.924791	0.536622	0.717826
	O5405	O	0.672417	0.602646	0.673439
	O5406	O	0.915965	0.583853	0.640638
	O5407	O	0.668408	0.517822	0.685093
	O5408	O	0.918105	0.516960	0.713980
	O5409	O	0.665518	0.582939	0.669668
	O5410	O	0.923448	0.603509	0.640789
	O5411	O	0.675446	0.537534	0.685118
	O5412	O	0.586088	0.584422	0.639011
	O5413	O	0.838239	0.518404	0.683375
	O5414	O	0.594790	0.537305	0.716033
	O5415	O	0.842196	0.603279	0.671704
	F5416	F	0.506877	0.527949	0.687538
	F5417	F	0.754727	0.593920	0.643169
	F5418	F	0.504025	0.593150	0.669347
	F5419	F	0.756656	0.527143	0.713674
	Al5420	Al	0.631765	0.527550	0.700638
	Al5421	Al	0.879617	0.593525	0.656356
	Al5422	Al	0.629469	0.593524	0.656260
	Al5423	Al	0.882012	0.527520	0.700542
	C5424	C	0.594845	0.622416	0.637491
	C5425	C	0.846787	0.556392	0.681788
	C5426	C	0.596756	0.499518	0.724150
	C5427	C	0.844122	0.565486	0.679794
	C5428	C	0.917203	0.553843	0.731636
	C5429	C	0.664963	0.619857	0.687188
	C5430	C	0.912895	0.566152	0.629698
	C5431	C	0.665078	0.500158	0.674123
	C5432	C	0.916390	0.498663	0.719169
	C5433	C	0.663638	0.564639	0.675030
	C5434	C	0.914577	0.621548	0.632582
	C5435	C	0.666257	0.555555	0.677013
	C5436	C	0.593745	0.567250	0.625335
	C5437	C	0.845578	0.501274	0.669494
	C5438	C	0.597590	0.554951	0.727099
	C5439	C	0.845435	0.620934	0.682745
	C5440	C	0.506172	0.617320	0.636040
	C5441	C	0.757924	0.551324	0.680424
	C5442	C	0.505168	0.503765	0.720719
	C5443	C	0.752463	0.569715	0.676319
	C5444	C	0.508277	0.549889	0.726730
	C5445	C	0.756137	0.615868	0.682366
	C5446	C	0.502399	0.571230	0.630066
	C5447	C	0.754307	0.505232	0.674344
	C5448	C	0.507775	0.607616	0.640065
	C5449	C	0.759790	0.541618	0.684457
	C5450	C	0.503617	0.513482	0.716802
	C5451	C	0.750816	0.579427	0.672344
	C5452	C	0.509530	0.540597	0.719781
	C5453	C	0.757027	0.606580	0.675409
	C5454	C	0.501318	0.580518	0.637005
	C5455	C	0.753451	0.514499	0.681380
	H5456	H	0.666099	0.619252	0.640271
	H5457	H	0.917739	0.553182	0.684539
	H5458	H	0.665711	0.503372	0.725421
	H5459	H	0.912998	0.569359	0.680991
	H5460	H	0.847618	0.550016	0.731505
	H5461	H	0.595469	0.616015	0.687149
	H5462	H	0.841883	0.569106	0.633470
	H5463	H	0.594309	0.503129	0.677982
	H5464	H	0.845344	0.501856	0.716414
	H5465	H	0.592344	0.567811	0.672356
	H5466	H	0.845487	0.617705	0.631385
	H5467	H	0.597061	0.551715	0.675862
	H5468	H	0.663158	0.571093	0.625452
	H5469	H	0.914997	0.505123	0.669553
	H5470	H	0.668537	0.551967	0.723365
	H5471	H	0.916435	0.617969	0.679028
	O5472	O	0.095186	0.600611	0.749635
	O5473	O	0.348422	0.534611	0.793511
	O5474	O	0.090549	0.514120	0.822660
	O5475	O	0.338035	0.580013	0.778328
	O5476	O	0.427854	0.533153	0.824183
	O5477	O	0.175176	0.599149	0.780286
	O5478	O	0.418904	0.580343	0.747582
	O5479	O	0.171309	0.514223	0.791767
	O5480	O	0.420882	0.513524	0.820811
	O5481	O	0.168257	0.579473	0.776587
	O5482	O	0.425661	0.600052	0.747615
	O5483	O	0.178625	0.534036	0.791543
	O5484	O	0.088505	0.580947	0.745838
	O5485	O	0.341121	0.514834	0.790193
	O5486	O	0.097485	0.533753	0.822449
	O5487	O	0.344862	0.599795	0.778508
	F5488	F	0.009928	0.524412	0.793737
	F5489	F	0.256939	0.590437	0.749906
	F5490	F	0.006909	0.589635	0.776306
	F5491	F	0.259296	0.523673	0.820175
	Al5492	Al	0.134607	0.524044	0.806965
	Al5493	Al	0.381735	0.590058	0.763062
	Al5494	Al	0.131940	0.590042	0.763127
	Al5495	Al	0.384557	0.524029	0.807030
	C5496	C	0.096907	0.618891	0.744225
	C5497	C	0.349825	0.552925	0.788637
	C5498	C	0.099583	0.496318	0.833254
	C5499	C	0.347000	0.562019	0.786707
	C5500	C	0.420524	0.550243	0.838597
	C5501	C	0.167563	0.616372	0.794064
	C5502	C	0.415512	0.562700	0.736501
	C5503	C	0.168508	0.496511	0.781211
	C5504	C	0.419973	0.495279	0.827710
	C5505	C	0.166643	0.561150	0.781728
	C5506	C	0.416728	0.618065	0.739437
	C5507	C	0.169471	0.552061	0.783633
	C5508	C	0.095963	0.563722	0.732152
	C5509	C	0.348864	0.497664	0.776418
	C5510	C	0.100546	0.551348	0.833927
	C5511	C	0.347926	0.617462	0.789492
	C5512	C	0.008120	0.613813	0.742805
	C5513	C	0.261193	0.547836	0.787098
	C5514	C	0.008057	0.500403	0.828762
	C5515	C	0.255303	0.566242	0.783169
	C5516	C	0.011340	0.546267	0.833596
	C5517	C	0.258672	0.612386	0.789184
	C5518	C	0.004832	0.567718	0.736958
	C5519	C	0.257655	0.501597	0.781407
	C5520	C	0.009915	0.604109	0.746880
	C5521	C	0.263049	0.538117	0.790908
	C5522	C	0.006176	0.510042	0.823703
	C5523	C	0.253538	0.575952	0.779156
	C5524	C	0.012290	0.537027	0.826328
	C5525	C	0.259673	0.603101	0.782207
	C5526	C	0.004008	0.577006	0.743943
	C5527	C	0.256559	0.510896	0.788256
	H5528	H	0.168026	0.615709	0.747047
	H5529	H	0.420928	0.549747	0.791416
	H5530	H	0.168076	0.500246	0.834296
	H5531	H	0.415844	0.565885	0.788004
	H5532	H	0.351183	0.546383	0.838559
	H5533	H	0.098036	0.612535	0.794012
	H5534	H	0.344676	0.565683	0.740240
	H5535	H	0.097892	0.499474	0.785223
	H5536	H	0.349037	0.498346	0.824109
	H5537	H	0.095410	0.564323	0.778963
	H5538	H	0.347725	0.614205	0.738226
	H5539	H	0.100548	0.548199	0.782339
	H5540	H	0.165473	0.567558	0.732248
	H5541	H	0.417984	0.501552	0.776471
	H5542	H	0.171472	0.548407	0.830016
	H5543	H	0.418901	0.614503	0.785701
	O5544	O	0.595394	0.600610	0.749585
	O5545	O	0.848096	0.534633	0.793472
	O5546	O	0.590559	0.514160	0.822802
	O5547	O	0.837912	0.580031	0.778600
	O5548	O	0.927816	0.533074	0.824377
	O5549	O	0.674648	0.599181	0.780295
	O5550	O	0.918737	0.580339	0.747621
	O5551	O	0.670839	0.514234	0.791745
	O5552	O	0.920841	0.513500	0.820674
	O5553	O	0.668108	0.579505	0.776711
	O5554	O	0.925364	0.600046	0.747667
	O5555	O	0.678286	0.534049	0.791561
	O5556	O	0.588731	0.580942	0.745943
	O5557	O	0.840550	0.514866	0.789907
	O5558	O	0.597726	0.533733	0.822571
	O5559	O	0.844458	0.599772	0.778706
	F5560	F	0.509751	0.524394	0.793882
	F5561	F	0.757099	0.590434	0.750050
	F5562	F	0.506436	0.589662	0.776227
	F5563	F	0.759485	0.523661	0.820055
	Al5564	Al	0.634643	0.524050	0.806952
	Al5565	Al	0.882128	0.590040	0.763162
	Al5566	Al	0.631668	0.590049	0.763122
	Al5567	Al	0.884891	0.524030	0.806921
	C5568	C	0.597069	0.618915	0.744421
	C5569	C	0.849516	0.552927	0.788615
	C5570	C	0.599880	0.496350	0.833290
	C5571	C	0.846730	0.562025	0.786762
	C5572	C	0.920167	0.550216	0.838689
	C5573	C	0.667182	0.616364	0.794135
	C5574	C	0.915529	0.562657	0.736603
	C5575	C	0.667949	0.496524	0.781230
	C5576	C	0.919744	0.495234	0.827655
	C5577	C	0.666504	0.561176	0.781614
	C5578	C	0.916515	0.618042	0.739215
	C5579	C	0.669304	0.552085	0.783448
	C5580	C	0.595956	0.563764	0.732069
	C5581	C	0.848286	0.497685	0.776321
	C5582	C	0.600788	0.551377	0.833756
	C5583	C	0.847566	0.617464	0.789511
	C5584	C	0.508378	0.613829	0.742923
	C5585	C	0.760897	0.547847	0.787006
	C5586	C	0.508189	0.500447	0.828933
	C5587	C	0.755091	0.566262	0.783200
	C5588	C	0.511618	0.546294	0.833511
	C5589	C	0.758373	0.612382	0.789276
	C5590	C	0.504843	0.567754	0.736874
	C5591	C	0.757086	0.501611	0.781346
	C5592	C	0.510111	0.604123	0.746920
	C5593	C	0.762676	0.538131	0.790876
	C5594	C	0.506225	0.510077	0.823864
	C5595	C	0.753354	0.575981	0.779316
	C5596	C	0.512611	0.537049	0.826308
	C5597	C	0.759308	0.603101	0.782314
	C5598	C	0.504044	0.577025	0.743919
	C5599	C	0.755970	0.510911	0.788138
	H5600	H	0.668191	0.615733	0.747249
	H5601	H	0.920680	0.549742	0.791435
	H5602	H	0.668453	0.500279	0.834239
	H5603	H	0.915579	0.565885	0.788153
	H5604	H	0.850767	0.546362	0.838668
	H5605	H	0.597749	0.612513	0.794120
	H5606	H	0.844632	0.565634	0.740339
	H5607	H	0.597419	0.499498	0.785246
	H5608	H	0.848769	0.498307	0.824112
	H5609	H	0.595413	0.564360	0.778811
	H5610	H	0.847498	0.614191	0.737938
	H5611	H	0.600456	0.548228	0.782066
	H5612	H	0.665507	0.567597	0.732176
	H5613	H	0.917373	0.501581	0.776295
	H5614	H	0.671659	0.548444	0.829786
	H5615	H	0.918538	0.614512	0.785674
	O5616	O	0.098221	0.597080	0.855983
	O5617	O	0.352045	0.531633	0.906442
	O5618	O	0.094191	0.512888	0.941407
	O5619	O	0.340530	0.576632	0.885383
	O5620	O	0.431919	0.530891	0.937603
	O5621	O	0.177720	0.595621	0.886755
	O5622	O	0.421476	0.576743	0.854266
	O5623	O	0.175420	0.511313	0.908105
	O5624	O	0.425115	0.512141	0.939721
	O5625	O	0.170977	0.575966	0.882984
	O5626	O	0.428241	0.596513	0.854030
	O5627	O	0.182359	0.530869	0.904220
	O5628	O	0.091266	0.577369	0.852483
	O5629	O	0.345071	0.512059	0.905765
	O5630	O	0.101930	0.531567	0.935614
	O5631	O	0.347320	0.596249	0.885045
	F5632	F	0.014065	0.521273	0.908766
	F5633	F	0.259862	0.586894	0.856391
	F5634	F	0.009702	0.586137	0.882748
	F5635	F	0.263414	0.521607	0.934781
	Al5636	Al	0.138677	0.521453	0.921734
	Al5637	Al	0.384591	0.586523	0.869562
	Al5638	Al	0.134653	0.586521	0.869462
	Al5639	Al	0.388524	0.521457	0.921670
	C5640	C	0.099858	0.615390	0.850983
	C5641	C	0.352647	0.549781	0.899184
	C5642	C	0.098521	0.498927	0.970359
	C5643	C	0.349737	0.558811	0.895838
	C5644	C	0.424460	0.547693	0.952874
	C5645	C	0.170387	0.612753	0.901092
	C5646	C	0.418610	0.559031	0.843751
	C5647	C	0.172496	0.493868	0.896426
	C5648	C	0.419445	0.497242	0.966205
	C5649	C	0.169868	0.557769	0.890289
	C5650	C	0.419386	0.614558	0.846051
	C5651	C	0.172798	0.548730	0.893622
	C5652	C	0.098744	0.560146	0.839004
	C5653	C	0.352454	0.495233	0.890482
	C5654	C	0.104198	0.549085	0.946902
	C5655	C	0.350595	0.613865	0.896261
	C5656	C	0.011155	0.610305	0.849509
	C5657	C	0.264302	0.544622	0.897999
	C5658	C	0.008881	0.501751	0.961222
	C5659	C	0.258217	0.562915	0.891344
	C5660	C	0.015456	0.543965	0.946929
	C5661	C	0.261398	0.608771	0.896011
	C5662	C	0.007621	0.564107	0.843914
	C5663	C	0.261630	0.498953	0.896524
	C5664	C	0.012840	0.600589	0.853368
	C5665	C	0.266403	0.535001	0.903184
	C5666	C	0.009268	0.509449	0.946334
	C5667	C	0.256266	0.572541	0.886252
	C5668	C	0.016688	0.534793	0.939538
	C5669	C	0.262257	0.599543	0.888826
	C5670	C	0.006595	0.573416	0.850699
	C5671	C	0.260566	0.508106	0.903993
	H5672	H	0.171035	0.612201	0.853701
	H5673	H	0.423524	0.546702	0.902856
	H5674	H	0.168130	0.502408	0.966693
	H5675	H	0.418394	0.562731	0.896840
	H5676	H	0.355730	0.543763	0.952877
	H5677	H	0.100667	0.608941	0.901124
	H5678	H	0.347827	0.561960	0.847738
	H5679	H	0.102405	0.496685	0.901320
	H5680	H	0.350009	0.499314	0.959113
	H5681	H	0.098897	0.560847	0.886762
	H5682	H	0.350445	0.610701	0.844731
	H5683	H	0.104137	0.544820	0.892697
	H5684	H	0.168164	0.563992	0.839028
	H5685	H	0.421376	0.499142	0.890418
	H5686	H	0.174621	0.546304	0.942071
	H5687	H	0.421682	0.610967	0.892316
	O5688	O	0.597948	0.597074	0.855975
	O5689	O	0.851918	0.531647	0.906316
	O5690	O	0.594365	0.512947	0.941514
	O5691	O	0.840325	0.576630	0.885421
	O5692	O	0.932218	0.530846	0.937738
	O5693	O	0.677343	0.595651	0.886703
	O5694	O	0.921390	0.576750	0.854301
	O5695	O	0.674947	0.511328	0.908070
	O5696	O	0.924805	0.512125	0.939739
	O5697	O	0.670709	0.575995	0.883219
	O5698	O	0.928465	0.596503	0.854049
	O5699	O	0.682189	0.530882	0.904121
	O5700	O	0.591350	0.577329	0.852685
	O5701	O	0.844561	0.512061	0.905731
	O5702	O	0.601689	0.531567	0.935514
	O5703	O	0.847094	0.596274	0.885043
	F5704	F	0.513556	0.521285	0.908816
	F5705	F	0.759825	0.586895	0.856464
	F5706	F	0.509245	0.586162	0.882710
	F5707	F	0.763469	0.521643	0.934671
	Al5708	Al	0.638574	0.521465	0.921695
	Al5709	Al	0.884885	0.586519	0.869658
	Al5710	Al	0.634511	0.586523	0.869522
	Al5711	Al	0.888609	0.521461	0.921614
	C5712	C	0.599624	0.615410	0.851092
	C5713	C	0.852268	0.549789	0.899106
	C5714	C	0.598863	0.498960	0.970403
	C5715	C	0.849293	0.558818	0.895807
	C5716	C	0.924506	0.547706	0.952892
	C5717	C	0.669968	0.612735	0.901195
	C5718	C	0.918421	0.559009	0.843792
	C5719	C	0.672082	0.493870	0.896357
	C5720	C	0.919117	0.497209	0.966140
	C5721	C	0.669422	0.557773	0.890213
	C5722	C	0.919502	0.614543	0.845939
	C5723	C	0.672448	0.548734	0.893490
	C5724	C	0.598813	0.560168	0.838892
	C5725	C	0.852141	0.495236	0.890574
	C5726	C	0.604281	0.549097	0.946965
	C5727	C	0.850112	0.613883	0.896173
	C5728	C	0.510982	0.610323	0.849555
	C5729	C	0.764012	0.544630	0.897884
	C5730	C	0.509219	0.501771	0.961222
	C5731	C	0.757814	0.562922	0.891315
	C5732	C	0.515421	0.543974	0.946910
	C5733	C	0.760947	0.608785	0.895995
	C5734	C	0.507707	0.564114	0.843891
	C5735	C	0.761127	0.498956	0.896503
	C5736	C	0.512648	0.600596	0.853404
	C5737	C	0.766225	0.535015	0.903086
	C5738	C	0.509479	0.509497	0.946412
	C5739	C	0.756016	0.572549	0.886309
	C5740	C	0.516582	0.534804	0.939504
	C5741	C	0.761933	0.599563	0.888799
	C5742	C	0.506691	0.573408	0.850737
	C5743	C	0.760040	0.508117	0.903949
	H5744	H	0.670647	0.612219	0.853872
	H5745	H	0.923127	0.546717	0.902781
	H5746	H	0.668473	0.502449	0.966773
	H5747	H	0.917892	0.562741	0.896843
	H5748	H	0.855731	0.543780	0.952938
	H5749	H	0.600358	0.608912	0.901276
	H5750	H	0.847632	0.561946	0.847781
	H5751	H	0.601922	0.496696	0.901191
	H5752	H	0.849780	0.499268	0.958979
	H5753	H	0.598466	0.560857	0.886659
	H5754	H	0.850656	0.610678	0.844580
	H5755	H	0.603777	0.544820	0.892534
	H5756	H	0.668266	0.564007	0.838888
	H5757	H	0.920988	0.499149	0.890574
	H5758	H	0.674595	0.546306	0.942140
	H5759	H	0.921220	0.610995	0.892153
	O5760	O	0.098244	0.722071	-0.019038
	O5761	O	0.352562	0.656591	0.031382
	O5762	O	0.094388	0.637910	0.066531
	O5763	O	0.340863	0.701600	0.010216
	O5764	O	0.432168	0.655886	0.062676
	O5765	O	0.177970	0.720625	0.011711
	O5766	O	0.421572	0.701746	-0.020709
	O5767	O	0.175383	0.636329	0.033067
	O5768	O	0.425400	0.637152	0.064810
	O5769	O	0.171226	0.700990	0.008236
	O5770	O	0.428656	0.721531	-0.020940
	O5771	O	0.182771	0.655893	0.029371
	O5772	O	0.091153	0.702363	-0.022444
	O5773	O	0.345076	0.636995	0.030993
	O5774	O	0.101766	0.656571	0.060511
	O5775	O	0.347683	0.721253	0.010006
	F5776	F	0.013938	0.646273	0.033761
	F5777	F	0.259959	0.711893	-0.018623
	F5778	F	0.009579	0.711148	0.007761
	F5779	F	0.263378	0.646626	0.059828
	Al5780	Al	0.138544	0.646452	0.046743
	Al5781	Al	0.384609	0.711526	-0.005468
	Al5782	Al	0.134696	0.711514	-0.005493
	Al5783	Al	0.388535	0.646446	0.046757
	C5784	C	0.099678	0.740371	-0.023937
	C5785	C	0.352999	0.674776	0.024207
	C5786	C	0.098465	0.623993	0.095537
	C5787	C	0.349920	0.683821	0.020897
	C5788	C	0.424392	0.672710	0.077836
	C5789	C	0.170793	0.737745	0.026130
	C5790	C	0.418741	0.684027	-0.031222
	C5791	C	0.172455	0.618866	0.021358
	C5792	C	0.419187	0.622212	0.091131
	C5793	C	0.170143	0.682731	0.015281
	C5794	C	0.419761	0.739555	-0.028921
	C5795	C	0.173203	0.673707	0.018572
	C5796	C	0.098697	0.685128	-0.036045
	C5797	C	0.352342	0.620218	0.015609
	C5798	C	0.103979	0.674069	0.071888
	C5799	C	0.351010	0.738875	0.021252
	C5800	C	0.011041	0.735289	-0.025585
	C5801	C	0.264744	0.669615	0.023058
	C5802	C	0.008852	0.626777	0.086298
	C5803	C	0.258346	0.687905	0.016411
	C5804	C	0.015101	0.668960	0.071825
	C5805	C	0.261801	0.733788	0.020990
	C5806	C	0.007645	0.689093	-0.031016
	C5807	C	0.261418	0.623951	0.021534
	C5808	C	0.012896	0.725572	-0.021698
	C5809	C	0.266974	0.659998	0.028270
	C5810	C	0.009501	0.634470	0.071384
	C5811	C	0.256461	0.697532	0.011313
	C5812	C	0.016584	0.659785	0.064466
	C5813	C	0.262556	0.724552	0.013768
	C5814	C	0.006622	0.698400	-0.024230
	C5815	C	0.260450	0.633084	0.029094
	H5816	H	0.170756	0.737178	-0.021126
	H5817	H	0.423867	0.671689	0.027859
	H5818	H	0.168081	0.627501	0.091974
	H5819	H	0.418304	0.687770	0.021899
	H5820	H	0.355580	0.668791	0.077793
	H5821	H	0.101259	0.733906	0.026166
	H5822	H	0.348012	0.686967	-0.027218
	H5823	H	0.102319	0.621672	0.026189
	H5824	H	0.349866	0.624276	0.083933
	H5825	H	0.099062	0.685778	0.011703
	H5826	H	0.350839	0.735694	-0.030197
	H5827	H	0.104516	0.669796	0.017561
	H5828	H	0.168119	0.688978	-0.036119
	H5829	H	0.421237	0.624118	0.015636
	H5830	H	0.174354	0.671270	0.067071
	H5831	H	0.421969	0.735958	0.017275
	O5832	O	0.598499	0.722112	-0.018800
	O5833	O	0.851877	0.656635	0.031343
	O5834	O	0.594724	0.637899	0.066470
	O5835	O	0.840265	0.701587	0.010355
	O5836	O	0.932187	0.655809	0.062777
	O5837	O	0.677818	0.720551	0.011994
	O5838	O	0.921369	0.701727	-0.020598
	O5839	O	0.675193	0.636345	0.033046
	O5840	O	0.925044	0.637125	0.064712
	O5841	O	0.670675	0.700997	0.008250
	O5842	O	0.928378	0.721488	-0.021027
	O5843	O	0.682170	0.655868	0.029196
	O5844	O	0.591381	0.702378	-0.022484
	O5845	O	0.844857	0.637044	0.030813
	O5846	O	0.601834	0.656583	0.060490
	O5847	O	0.847418	0.721252	0.010094
	F5848	F	0.513340	0.646265	0.033857
	F5849	F	0.759915	0.711895	-0.018477
	F5850	F	0.509235	0.711165	0.007722
	F5851	F	0.763437	0.646627	0.059743
	Al5852	Al	0.638364	0.646468	0.046706
	Al5853	Al	0.884864	0.711511	-0.005367
	Al5854	Al	0.634636	0.711533	-0.005393
	Al5855	Al	0.888537	0.646452	0.046643
	C5856	C	0.600012	0.740400	-0.023856
	C5857	C	0.852189	0.674765	0.024045
	C5858	C	0.598710	0.623994	0.095529
	C5859	C	0.849163	0.683807	0.020748
	C5860	C	0.924187	0.672688	0.077851
	C5861	C	0.670093	0.737705	0.026223
	C5862	C	0.918440	0.683996	-0.031168
	C5863	C	0.672216	0.618895	0.021273
	C5864	C	0.919081	0.622213	0.091138
	C5865	C	0.669281	0.682742	0.015213
	C5866	C	0.919346	0.739535	-0.029001
	C5867	C	0.672271	0.673716	0.018484
	C5868	C	0.599008	0.685160	-0.036124
	C5869	C	0.852167	0.620233	0.015582
	C5870	C	0.604289	0.674083	0.072057
	C5871	C	0.850194	0.738866	0.021254
	C5872	C	0.511415	0.735320	-0.025479
	C5873	C	0.763819	0.669616	0.022948
	C5874	C	0.509137	0.626761	0.086263
	C5875	C	0.757557	0.687902	0.016356
	C5876	C	0.515402	0.668974	0.071904
	C5877	C	0.761080	0.733763	0.021070
	C5878	C	0.507900	0.689121	-0.031111
	C5879	C	0.761237	0.623979	0.021459
	C5880	C	0.513131	0.725604	-0.021550
	C5881	C	0.766162	0.660005	0.028169
	C5882	C	0.509788	0.634486	0.071435
	C5883	C	0.755816	0.697529	0.011346
	C5884	C	0.516743	0.659814	0.064509
	C5885	C	0.762181	0.724514	0.013932
	C5886	C	0.506790	0.698424	-0.024313
	C5887	C	0.760276	0.633121	0.028990
	H5888	H	0.671134	0.737215	-0.021008
	H5889	H	0.923042	0.671671	0.027633
	H5890	H	0.668297	0.627519	0.091999
	H5891	H	0.917720	0.687739	0.021688
	H5892	H	0.855357	0.668765	0.077916
	H5893	H	0.600598	0.733864	0.026307
	H5894	H	0.847624	0.686933	-0.027178
	H5895	H	0.602021	0.621713	0.026074
	H5896	H	0.849747	0.624264	0.083904
	H5897	H	0.598181	0.685796	0.011651
	H5898	H	0.850349	0.735679	-0.030292
	H5899	H	0.603514	0.669809	0.017494
	H5900	H	0.668401	0.689018	-0.036167
	H5901	H	0.921084	0.624134	0.015617
	H5902	H	0.674656	0.671277	0.067286
	H5903	H	0.921193	0.735956	0.017271
	O5904	O	0.102516	0.719086	0.093731
	O5905	O	0.343078	0.664721	0.198947
	O5906	O	0.085828	0.648210	0.240193
	O5907	O	0.344840	0.700401	0.128869
	O5908	O	0.423608	0.665752	0.233140
	O5909	O	0.182233	0.718360	0.125206
	O5910	O	0.425267	0.698828	0.095558
	O5911	O	0.166403	0.645497	0.206909
	O5912	O	0.416604	0.647322	0.238425
	O5913	O	0.175484	0.699666	0.127212
	O5914	O	0.432969	0.718391	0.091695
	O5915	O	0.173597	0.663883	0.197329
	O5916	O	0.094872	0.699536	0.093254
	O5917	O	0.335829	0.646297	0.204174
	O5918	O	0.093280	0.666528	0.230537
	O5919	O	0.351857	0.719115	0.122815
	F5920	F	0.004804	0.655239	0.206045
	F5921	F	0.263638	0.708784	0.096260
	F5922	F	0.013256	0.709098	0.122189
	F5923	F	0.254651	0.656787	0.231358
	Al5924	Al	0.129782	0.656014	0.218723
	Al5925	Al	0.388677	0.708972	0.109133
	Al5926	Al	0.138538	0.708960	0.109147
	Al5927	Al	0.379730	0.656035	0.218693
	C5928	C	0.102964	0.737297	0.086618
	C5929	C	0.348619	0.679328	0.171755
	C5930	C	0.089604	0.634552	0.270069
	C5931	C	0.348970	0.686451	0.157850
	C5932	C	0.415922	0.682260	0.249428
	C5933	C	0.174573	0.735221	0.140242
	C5934	C	0.422452	0.681367	0.083939
	C5935	C	0.164073	0.628212	0.194257
	C5936	C	0.411065	0.632667	0.265386
	C5937	C	0.169724	0.684751	0.153642
	C5938	C	0.423229	0.736226	0.081038
	C5939	C	0.169406	0.677605	0.167585
	C5940	C	0.102065	0.682733	0.077934
	C5941	C	0.343410	0.629818	0.187655
	C5942	C	0.095727	0.683790	0.243354
	C5943	C	0.354387	0.736584	0.134444
	C5944	C	0.014762	0.732117	0.085390
	C5945	C	0.258877	0.674820	0.176809
	C5946	C	0.000221	0.637264	0.260614
	C5947	C	0.259435	0.689283	0.148717
	C5948	C	0.006953	0.678714	0.242841
	C5949	C	0.265472	0.731482	0.134311
	C5950	C	0.011165	0.686456	0.083940
	C5951	C	0.252722	0.633320	0.194487
	C5952	C	0.017058	0.722494	0.090574
	C5953	C	0.258466	0.667271	0.192151
	C5954	C	0.000875	0.644813	0.245283
	C5955	C	0.259887	0.696990	0.133831
	C5956	C	0.008247	0.669695	0.234820
	C5957	C	0.266716	0.722314	0.126925
	C5958	C	0.010374	0.695598	0.091474
	C5959	C	0.251342	0.642360	0.202472
	H5960	H	0.173954	0.734241	0.090289
	H5961	H	0.418045	0.677281	0.178880
	H5962	H	0.159069	0.638096	0.266567
	H5963	H	0.418691	0.689906	0.154188
	H5964	H	0.347405	0.678333	0.249121
	H5965	H	0.105580	0.731322	0.140228
	H5966	H	0.352294	0.684187	0.088766
	H5967	H	0.094267	0.630880	0.199733
	H5968	H	0.341801	0.634670	0.258067
	H5969	H	0.100616	0.686838	0.146443
	H5970	H	0.354692	0.732297	0.080068
	H5971	H	0.100028	0.674120	0.171321
	H5972	H	0.170965	0.686648	0.077880
	H5973	H	0.411818	0.633788	0.187721
	H5974	H	0.165736	0.681098	0.238082
	H5975	H	0.424723	0.733781	0.129659
	O5976	O	0.602666	0.719102	0.093822
	O5977	O	0.842738	0.664727	0.198826
	O5978	O	0.586103	0.648168	0.240068
	O5979	O	0.844313	0.700435	0.128959
	O5980	O	0.923778	0.665804	0.232990
	O5981	O	0.682011	0.718340	0.125269
	O5982	O	0.925176	0.698835	0.095559
	O5983	O	0.666336	0.645523	0.206821
	O5984	O	0.916414	0.647364	0.238441
	O5985	O	0.675067	0.699625	0.127113
	O5986	O	0.932787	0.718383	0.091683
	O5987	O	0.673201	0.663899	0.197223
	O5988	O	0.594847	0.699578	0.093244
	O5989	O	0.835828	0.646298	0.204188
	O5990	O	0.593089	0.666554	0.230480
	O5991	O	0.851672	0.719104	0.122981
	F5992	F	0.504770	0.655258	0.206001
	F5993	F	0.763754	0.708795	0.096306
	F5994	F	0.513342	0.709130	0.122204
	F5995	F	0.754646	0.656816	0.231243
	Al5996	Al	0.629699	0.656029	0.218640
	Al5997	Al	0.888810	0.708968	0.109240
	Al5998	Al	0.638494	0.708958	0.109167
	Al5999	Al	0.879828	0.656033	0.218596
	C6000	C	0.603037	0.737302	0.086654
	C6001	C	0.848227	0.679333	0.171702
	C6002	C	0.590213	0.634552	0.270075
	C6003	C	0.848400	0.686466	0.157819
	C6004	C	0.916054	0.682255	0.249425
	C6005	C	0.674173	0.735206	0.140353
	C6006	C	0.922301	0.681345	0.083944
	C6007	C	0.664073	0.628215	0.194298
	C6008	C	0.910466	0.632677	0.265426
	C6009	C	0.669020	0.684781	0.153728
	C6010	C	0.923190	0.736204	0.080816
	C6011	C	0.668827	0.677634	0.167650
	C6012	C	0.602361	0.682742	0.078109
	C6013	C	0.843308	0.629825	0.187710
	C6014	C	0.595546	0.683789	0.243401
	C6015	C	0.853882	0.736608	0.134335
	C6016	C	0.514828	0.732128	0.085471
	C6017	C	0.758465	0.674819	0.176733
	C6018	C	0.500853	0.637230	0.260556
	C6019	C	0.758823	0.689277	0.148667
	C6020	C	0.506727	0.678719	0.242893
	C6021	C	0.765071	0.731488	0.134305
	C6022	C	0.511447	0.686458	0.084087
	C6023	C	0.752590	0.633337	0.194496
	C6024	C	0.517135	0.722505	0.090657
	C6025	C	0.758102	0.667272	0.192033
	C6026	C	0.501252	0.644772	0.245228
	C6027	C	0.759396	0.696983	0.133813
	C6028	C	0.508042	0.669689	0.234863
	C6029	C	0.766431	0.722303	0.126981
	C6030	C	0.510418	0.695617	0.091518
	C6031	C	0.751337	0.642379	0.202451
	H6032	H	0.673999	0.734235	0.090273
	H6033	H	0.917724	0.677297	0.178805
	H6034	H	0.659689	0.638103	0.266630
	H6035	H	0.918088	0.689933	0.154207
	H6036	H	0.847445	0.678324	0.249144
	H6037	H	0.605348	0.731276	0.140467
	H6038	H	0.852201	0.684138	0.088900
	H6039	H	0.594199	0.630870	0.199777
	H6040	H	0.841189	0.634674	0.258093
	H6041	H	0.599807	0.686906	0.146644
	H6042	H	0.854689	0.732273	0.079691
	H6043	H	0.599474	0.674164	0.171485
	H6044	H	0.671190	0.686664	0.078093
	H6045	H	0.911662	0.633791	0.187791
	H6046	H	0.665536	0.681094	0.238115
	H6047	H	0.924263	0.733820	0.129499
	O6048	O	0.093148	0.727200	0.261493
	O6049	O	0.334158	0.674972	0.372945
	O6050	O	0.076686	0.656203	0.408250
	O6051	O	0.335853	0.710714	0.302796
	O6052	O	0.414906	0.674945	0.406762
	O6053	O	0.173993	0.728211	0.295908
	O6054	O	0.416486	0.707993	0.269487
	O6055	O	0.157807	0.655475	0.376981
	O6056	O	0.407142	0.655438	0.406055
	O6057	O	0.166493	0.709820	0.301004
	O6058	O	0.423596	0.726320	0.259743
	O6059	O	0.164961	0.674102	0.370956
	O6060	O	0.086313	0.708761	0.266820
	O6061	O	0.327489	0.656170	0.374828
	O6062	O	0.084326	0.675722	0.404389
	O6063	O	0.343359	0.729043	0.293004
	F6064	F	-0.004183	0.665431	0.377698
	F6065	F	0.254893	0.717758	0.268593
	F6066	F	0.004718	0.719272	0.293910
	F6067	F	0.245829	0.665749	0.403660
	Al6068	Al	0.120971	0.665585	0.390762
	Al6069	Al	0.379662	0.718515	0.281231
	Al6070	Al	0.129910	0.718513	0.281262
	Al6071	Al	0.370927	0.665598	0.390829
	C6072	C	0.098259	0.741834	0.234376
	C6073	C	0.339826	0.689932	0.346645
	C6074	C	0.086582	0.638361	0.418921
	C6075	C	0.340130	0.697062	0.332785
	C6076	C	0.407081	0.691767	0.422049
	C6077	C	0.166165	0.744706	0.312256
	C6078	C	0.413985	0.690755	0.256501
	C6079	C	0.155331	0.637971	0.365473
	C6080	C	0.406385	0.637287	0.413276
	C6081	C	0.160911	0.695149	0.327938
	C6082	C	0.419476	0.740065	0.230008
	C6083	C	0.160637	0.687989	0.341848
	C6084	C	0.093785	0.692276	0.250466
	C6085	C	0.335046	0.639335	0.359657
	C6086	C	0.086582	0.693164	0.416129
	C6087	C	0.345536	0.746344	0.305625
	C6088	C	0.008647	0.737266	0.239271
	C6089	C	0.250214	0.685290	0.351301
	C6090	C	-0.004986	0.642457	0.414496
	C6091	C	0.250740	0.699747	0.323213
	C6092	C	-0.002288	0.688053	0.416065
	C6093	C	0.257021	0.741208	0.305452
	C6094	C	0.002954	0.695811	0.257046
	C6095	C	0.244132	0.643077	0.365581
	C6096	C	0.008480	0.729731	0.254673
	C6097	C	0.249806	0.677588	0.366170
	C6098	C	-0.007162	0.652068	0.409262
	C6099	C	0.251080	0.707287	0.307875
	C6100	C	-0.000756	0.678920	0.408514
	C6101	C	0.258444	0.732169	0.297494
	C6102	C	0.001770	0.704839	0.265079
	C6103	C	0.242887	0.652245	0.372977
	H6104	H	0.167636	0.739834	0.241655
	H6105	H	0.409403	0.687982	0.353995
	H6106	H	0.155205	0.642285	0.419852
	H6107	H	0.409868	0.700600	0.329437
	H6108	H	0.338305	0.687836	0.422167
	H6109	H	0.097793	0.740722	0.312189
	H6110	H	0.344107	0.693446	0.261769
	H6111	H	0.084913	0.640757	0.370236
	H6112	H	0.335641	0.640367	0.409566
	H6113	H	0.091916	0.697161	0.320496
	H6114	H	0.349921	0.736564	0.233609
	H6115	H	0.091318	0.684397	0.345301
	H6116	H	0.162427	0.696198	0.250816
	H6117	H	0.403944	0.643237	0.359647
	H6118	H	0.156831	0.690378	0.411210
	H6119	H	0.415486	0.743694	0.300129
	O6120	O	0.593136	0.727206	0.261450
	O6121	O	0.834246	0.674941	0.372825
	O6122	O	0.576854	0.656164	0.408217
	O6123	O	0.835624	0.710714	0.302804
	O6124	O	0.914729	0.674963	0.406718
	O6125	O	0.673526	0.728229	0.295811
	O6126	O	0.916769	0.707976	0.269462
	O6127	O	0.657272	0.655440	0.376961
	O6128	O	0.906931	0.655448	0.406012
	O6129	O	0.666248	0.709807	0.300965
	O6130	O	0.923738	0.726331	0.259802
	O6131	O	0.664987	0.674065	0.370820
	O6132	O	0.585950	0.708780	0.266727
	O6133	O	0.826964	0.656194	0.374647
	O6134	O	0.584381	0.675741	0.404177
	O6135	O	0.843232	0.729036	0.293115
	F6136	F	0.495897	0.665420	0.377666
	F6137	F	0.754992	0.717765	0.268650
	F6138	F	0.504598	0.719281	0.293880
	F6139	F	0.745780	0.665755	0.403589
	Al6140	Al	0.620886	0.665564	0.390713
	Al6141	Al	0.879935	0.718514	0.281302
	Al6142	Al	0.629773	0.718516	0.281242
	Al6143	Al	0.871170	0.665584	0.390688
	C6144	C	0.598778	0.741852	0.234404
	C6145	C	0.839732	0.689918	0.346603
	C6146	C	0.586194	0.638335	0.418963
	C6147	C	0.839847	0.697053	0.332749
	C6148	C	0.906806	0.691773	0.422111
	C6149	C	0.665911	0.744694	0.312317
	C6150	C	0.914085	0.690742	0.256543
	C6151	C	0.654985	0.637938	0.365659
	C6152	C	0.906725	0.637299	0.413356
	C6153	C	0.660513	0.695150	0.327947
	C6154	C	0.918993	0.740027	0.229964
	C6155	C	0.660395	0.687987	0.341843
	C6156	C	0.593602	0.692283	0.250468
	C6157	C	0.834634	0.639351	0.359554
	C6158	C	0.586798	0.693193	0.415971
	C6159	C	0.845225	0.746350	0.305546
	C6160	C	0.508998	0.737312	0.239318
	C6161	C	0.750113	0.685271	0.351238
	C6162	C	0.494721	0.642437	0.414506
	C6163	C	0.750381	0.699749	0.323232
	C6164	C	0.497968	0.688071	0.415925
	C6165	C	0.756649	0.741225	0.305451
	C6166	C	0.502776	0.695819	0.257068
	C6167	C	0.743761	0.643066	0.365589
	C6168	C	0.508446	0.729747	0.254643
	C6169	C	0.749862	0.677555	0.366061
	C6170	C	0.492706	0.652046	0.409240
	C6171	C	0.750812	0.707287	0.307869
	C6172	C	0.499267	0.678923	0.408403
	C6173	C	0.758071	0.732171	0.297473
	C6174	C	0.501438	0.704853	0.265048
	C6175	C	0.742450	0.652236	0.372920
	H6176	H	0.668047	0.739809	0.241642
	H6177	H	0.909360	0.687957	0.353912
	H6178	H	0.654687	0.642265	0.419912
	H6179	H	0.909627	0.700572	0.329356
	H6180	H	0.837895	0.687855	0.422199
	H6181	H	0.597633	0.740694	0.312290
	H6182	H	0.844177	0.693425	0.261899
	H6183	H	0.584734	0.640713	0.370541
	H6184	H	0.835840	0.640369	0.409690
	H6185	H	0.591482	0.697148	0.320488
	H6186	H	0.849439	0.736531	0.233623
	H6187	H	0.591182	0.684382	0.345310
	H6188	H	0.662188	0.696212	0.250770
	H6189	H	0.903379	0.643280	0.359462
	H6190	H	0.656964	0.690408	0.411015
	H6191	H	0.914967	0.743687	0.299969
	O6192	O	0.083873	0.737444	0.435304
	O6193	O	0.338253	0.673610	0.491954
	O6194	O	0.080694	0.653039	0.520926
	O6195	O	0.326536	0.718677	0.470719
	O6196	O	0.418302	0.672180	0.522553
	O6197	O	0.164632	0.737463	0.469186
	O6198	O	0.407440	0.717934	0.439535
	O6199	O	0.161662	0.653304	0.489974
	O6200	O	0.410900	0.652487	0.519002
	O6201	O	0.156808	0.717962	0.468631
	O6202	O	0.414750	0.736641	0.433420
	O6203	O	0.168712	0.672926	0.489593
	O6204	O	0.077294	0.718680	0.437267
	O6205	O	0.331336	0.653933	0.488317
	O6206	O	0.087686	0.672808	0.520646
	O6207	O	0.334121	0.738240	0.466775
	F6208	F	0.000266	0.663396	0.492186
	F6209	F	0.245751	0.727917	0.440128
	F6210	F	-0.004101	0.728281	0.466238
	F6211	F	0.249452	0.662680	0.518603
	Al6212	Al	0.124824	0.663029	0.505396
	Al6213	Al	0.370659	0.728083	0.453171
	Al6214	Al	0.120814	0.728092	0.453278
	Al6215	Al	0.374803	0.663041	0.505473
	C6216	C	0.089989	0.752390	0.408936
	C6217	C	0.339150	0.691827	0.484907
	C6218	C	0.089695	0.635012	0.528926
	C6219	C	0.336033	0.700863	0.481572
	C6220	C	0.410491	0.689395	0.536049
	C6221	C	0.157085	0.754299	0.484461
	C6222	C	0.405256	0.700425	0.428095
	C6223	C	0.158272	0.635711	0.478657
	C6224	C	0.409279	0.634184	0.523965
	C6225	C	0.156196	0.699797	0.475999
	C6226	C	0.410373	0.750568	0.404445
	C6227	C	0.159335	0.690770	0.479332
	C6228	C	0.084721	0.701829	0.422178
	C6229	C	0.338696	0.636841	0.473779
	C6230	C	0.090601	0.690495	0.531437
	C6231	C	0.336930	0.755683	0.478587
	C6232	C	0.000140	0.747786	0.413712
	C6233	C	0.250894	0.686667	0.483762
	C6234	C	-0.001937	0.639232	0.525361
	C6235	C	0.244502	0.704956	0.477068
	C6236	C	0.001401	0.685407	0.531176
	C6237	C	0.247980	0.750575	0.478423
	C6238	C	-0.006194	0.705550	0.428194
	C6239	C	0.247574	0.640765	0.478944
	C6240	C	-0.000375	0.740071	0.428553
	C6241	C	0.252898	0.677036	0.488782
	C6242	C	-0.003638	0.648944	0.521453
	C6243	C	0.242365	0.714562	0.471771
	C6244	C	0.002570	0.676108	0.524363
	C6245	C	0.248982	0.741439	0.470896
	C6246	C	-0.007075	0.714733	0.435505
	C6247	C	0.246763	0.650011	0.486191
	H6248	H	0.159497	0.750386	0.416239
	H6249	H	0.410155	0.688746	0.488491
	H6250	H	0.158509	0.638877	0.530227
	H6251	H	0.404548	0.704790	0.482513
	H6252	H	0.341115	0.685544	0.536047
	H6253	H	0.088178	0.750390	0.484520
	H6254	H	0.334963	0.703211	0.432924
	H6255	H	0.087591	0.638682	0.482620
	H6256	H	0.338233	0.637382	0.521234
	H6257	H	0.085210	0.702857	0.472372
	H6258	H	0.340848	0.747015	0.407935
	H6259	H	0.090655	0.686849	0.478381
	H6260	H	0.153597	0.705756	0.422076
	H6261	H	0.407797	0.640731	0.473766
	H6262	H	0.161541	0.687557	0.527548
	H6263	H	0.407256	0.752895	0.473734
	O6264	O	0.584133	0.737422	0.435220
	O6265	O	0.838198	0.673627	0.491870
	O6266	O	0.580658	0.653064	0.520958
	O6267	O	0.826228	0.718676	0.470865
	O6268	O	0.917960	0.672145	0.522562
	O6269	O	0.664347	0.737513	0.469113
	O6270	O	0.907646	0.717964	0.439542
	O6271	O	0.661207	0.653324	0.489879
	O6272	O	0.910951	0.652457	0.518766
	O6273	O	0.656491	0.717978	0.468679
	O6274	O	0.914712	0.736620	0.433416
	O6275	O	0.668604	0.672940	0.489675
	O6276	O	0.577065	0.718699	0.437209
	O6277	O	0.830947	0.653942	0.488082
	O6278	O	0.587976	0.672823	0.520641
	O6279	O	0.833983	0.738228	0.466951
	F6280	F	0.499674	0.663397	0.492292
	F6281	F	0.746109	0.727879	0.440291
	F6282	F	0.495557	0.728293	0.466117
	F6283	F	0.749662	0.662659	0.518508
	Al6284	Al	0.624669	0.663031	0.505416
	Al6285	Al	0.870907	0.728086	0.453287
	Al6286	Al	0.620670	0.728097	0.453284
	Al6287	Al	0.875092	0.663036	0.505342
	C6288	C	0.590039	0.752404	0.408991
	C6289	C	0.839034	0.691845	0.484916
	C6290	C	0.589675	0.635041	0.528939
	C6291	C	0.835810	0.700882	0.481599
	C6292	C	0.910095	0.689364	0.536075
	C6293	C	0.656722	0.754290	0.484539
	C6294	C	0.904931	0.700440	0.428127
	C6295	C	0.658130	0.635696	0.478774
	C6296	C	0.909327	0.634139	0.523888
	C6297	C	0.656092	0.699796	0.475891
	C6298	C	0.910360	0.750549	0.404415
	C6299	C	0.659346	0.690768	0.479222
	C6300	C	0.584957	0.701848	0.422063
	C6301	C	0.838551	0.636848	0.473841
	C6302	C	0.590791	0.690545	0.531303
	C6303	C	0.836524	0.755687	0.478548
	C6304	C	0.500156	0.747809	0.413774
	C6305	C	0.750875	0.686679	0.483728
	C6306	C	0.498027	0.639262	0.525388
	C6307	C	0.744246	0.704963	0.477063
	C6308	C	0.501755	0.685431	0.531160
	C6309	C	0.747644	0.750574	0.478446
	C6310	C	0.494061	0.705551	0.428138
	C6311	C	0.747376	0.640766	0.478981
	C6312	C	0.499729	0.740087	0.428566
	C6313	C	0.752791	0.677047	0.488751
	C6314	C	0.496286	0.648979	0.521547
	C6315	C	0.741993	0.714573	0.471854
	C6316	C	0.502867	0.676129	0.524375
	C6317	C	0.748829	0.741453	0.470927
	C6318	C	0.492639	0.714733	0.435469
	C6319	C	0.746299	0.650021	0.486101
	H6320	H	0.659420	0.750365	0.416271
	H6321	H	0.910076	0.688785	0.488519
	H6322	H	0.658521	0.638906	0.530249
	H6323	H	0.904284	0.704823	0.482607
	H6324	H	0.840643	0.685519	0.536032
	H6325	H	0.587803	0.750376	0.484652
	H6326	H	0.834614	0.703240	0.432922
	H6327	H	0.587453	0.638663	0.482729
	H6328	H	0.838268	0.637320	0.521095
	H6329	H	0.585166	0.702850	0.472211
	H6330	H	0.840726	0.747016	0.407954
	H6331	H	0.590806	0.686833	0.478213
	H6332	H	0.653669	0.705781	0.421934
	H6333	H	0.907702	0.640735	0.473763
	H6334	H	0.661742	0.687624	0.527340
	H6335	H	0.906875	0.752908	0.473670
	O6336	O	0.088321	0.736076	0.554311
	O6337	O	0.341368	0.670134	0.598523
	O6338	O	0.083601	0.649514	0.627226
	O6339	O	0.330471	0.715551	0.583428
	O6340	O	0.420597	0.668607	0.629145
	O6341	O	0.167761	0.734670	0.584953
	O6342	O	0.411298	0.715797	0.552414
	O6343	O	0.164231	0.649807	0.596278
	O6344	O	0.413343	0.648953	0.625352
	O6345	O	0.160782	0.714952	0.581344
	O6346	O	0.418770	0.735435	0.552209
	O6347	O	0.171649	0.669539	0.596429
	O6348	O	0.081003	0.716435	0.550716
	O6349	O	0.334053	0.650421	0.594678
	O6350	O	0.090160	0.669237	0.627315
	O6351	O	0.337628	0.735326	0.583043
	F6352	F	0.002956	0.659907	0.598618
	F6353	F	0.249593	0.725882	0.554719
	F6354	F	-0.000482	0.725157	0.581138
	F6355	F	0.252261	0.659128	0.625009
	Al6356	Al	0.127636	0.659525	0.611818
	Al6357	Al	0.374542	0.725521	0.567889
	Al6358	Al	0.124570	0.725529	0.567935
	Al6359	Al	0.377440	0.659522	0.611935
	C6360	C	0.089246	0.754307	0.547240
	C6361	C	0.342876	0.688428	0.593398
	C6362	C	0.092279	0.631495	0.635411
	C6363	C	0.339933	0.697522	0.591419
	C6364	C	0.412824	0.685818	0.642865
	C6365	C	0.160347	0.751909	0.598515
	C6366	C	0.408537	0.698199	0.541115
	C6367	C	0.161029	0.632157	0.585298
	C6368	C	0.411799	0.630657	0.630558
	C6369	C	0.159626	0.696655	0.586413
	C6370	C	0.409612	0.753233	0.541624
	C6371	C	0.162542	0.687571	0.588401
	C6372	C	0.088804	0.699297	0.536534
	C6373	C	0.341687	0.633245	0.580908
	C6374	C	0.093134	0.686890	0.638501
	C6375	C	0.340592	0.753041	0.593603
	C6376	C	0.000918	0.749149	0.546167
	C6377	C	0.254243	0.683340	0.591893
	C6378	C	0.000653	0.635731	0.631978
	C6379	C	0.248160	0.701749	0.587966
	C6380	C	0.003916	0.681814	0.638133
	C6381	C	0.251410	0.747962	0.593524
	C6382	C	-0.002407	0.703237	0.541521
	C6383	C	0.250390	0.637215	0.585645
	C6384	C	0.003054	0.739512	0.551182
	C6385	C	0.256026	0.673629	0.595825
	C6386	C	-0.000868	0.645443	0.627955
	C6387	C	0.246150	0.711459	0.584020
	C6388	C	0.005043	0.672536	0.631111
	C6389	C	0.252344	0.738634	0.586719
	C6390	C	-0.003482	0.712499	0.548670
	C6391	C	0.249388	0.646497	0.592610
	H6392	H	0.160361	0.751242	0.550765
	H6393	H	0.414015	0.685247	0.596176
	H6394	H	0.161252	0.635351	0.636588
	H6395	H	0.408857	0.701392	0.592633
	H6396	H	0.343315	0.681983	0.642735
	H6397	H	0.091281	0.748012	0.598492
	H6398	H	0.337659	0.701137	0.545016
	H6399	H	0.090311	0.635160	0.589033
	H6400	H	0.340700	0.633841	0.627774
	H6401	H	0.088421	0.699812	0.583575
	H6402	H	0.341020	0.749317	0.540615
	H6403	H	0.093665	0.683707	0.587151
	H6404	H	0.158210	0.703153	0.536593
	H6405	H	0.411085	0.637095	0.581020
	H6406	H	0.164154	0.683922	0.634768
	H6407	H	0.411003	0.750050	0.589535
	O6408	O	0.588418	0.736057	0.554248
	O6409	O	0.841004	0.670120	0.598353
	O6410	O	0.583105	0.649536	0.627398
	O6411	O	0.830143	0.715522	0.583485
	O6412	O	0.920410	0.668610	0.629104
	O6413	O	0.667630	0.734672	0.584968
	O6414	O	0.911261	0.715775	0.552538
	O6415	O	0.663727	0.649774	0.596501
	O6416	O	0.913739	0.648953	0.625314
	O6417	O	0.660381	0.714906	0.581261
	O6418	O	0.918745	0.735416	0.552149
	O6419	O	0.671308	0.669507	0.596392
	O6420	O	0.580994	0.716494	0.550516
	O6421	O	0.833468	0.650411	0.594689
	O6422	O	0.590375	0.669213	0.627519
	O6423	O	0.837488	0.735309	0.583224
	F6424	F	0.502587	0.659907	0.598787
	F6425	F	0.750009	0.725890	0.554793
	F6426	F	0.499356	0.725135	0.581028
	F6427	F	0.752492	0.659130	0.624983
	Al6428	Al	0.627535	0.659516	0.611929
	Al6429	Al	0.874823	0.725517	0.567993
	Al6430	Al	0.624618	0.725524	0.567887
	Al6431	Al	0.877794	0.659530	0.611788
	C6432	C	0.589391	0.754314	0.547280
	C6433	C	0.842261	0.688418	0.593358
	C6434	C	0.592135	0.631519	0.635485
	C6435	C	0.839362	0.697509	0.591406
	C6436	C	0.912623	0.685801	0.642982
	C6437	C	0.660063	0.751856	0.598736
	C6438	C	0.908301	0.698164	0.541127
	C6439	C	0.660635	0.632133	0.585413
	C6440	C	0.911893	0.630647	0.630550
	C6441	C	0.659052	0.696650	0.586410
	C6442	C	0.909336	0.753248	0.541700
	C6443	C	0.661996	0.687564	0.588393
	C6444	C	0.588924	0.699347	0.536394
	C6445	C	0.841157	0.633222	0.580930
	C6446	C	0.593376	0.686886	0.638521
	C6447	C	0.840363	0.753021	0.593749
	C6448	C	0.501200	0.749141	0.546105
	C6449	C	0.753679	0.683331	0.591863
	C6450	C	0.500435	0.635745	0.632030
	C6451	C	0.747627	0.701735	0.587970
	C6452	C	0.504078	0.681807	0.638150
	C6453	C	0.751199	0.747933	0.593683
	C6454	C	0.497692	0.703286	0.541384
	C6455	C	0.749910	0.637197	0.585714
	C6456	C	0.503141	0.739511	0.551169
	C6457	C	0.755569	0.673612	0.595770
	C6458	C	0.498686	0.645456	0.628043
	C6459	C	0.745814	0.711433	0.584012
	C6460	C	0.505203	0.672526	0.631202
	C6461	C	0.752200	0.738620	0.586853
	C6462	C	0.496514	0.712545	0.548508
	C6463	C	0.748899	0.646484	0.592697
	H6464	H	0.660412	0.751254	0.550890
	H6465	H	0.913488	0.685244	0.596133
	H6466	H	0.661137	0.635373	0.636660
	H6467	H	0.908211	0.701385	0.592617
	H6468	H	0.843174	0.681953	0.642924
	H6469	H	0.590971	0.747956	0.598796
	H6470	H	0.837351	0.701115	0.544955
	H6471	H	0.589845	0.635109	0.589207
	H6472	H	0.840835	0.633837	0.627788
	H6473	H	0.587953	0.699814	0.583587
	H6474	H	0.840717	0.749324	0.540688
	H6475	H	0.593014	0.683710	0.587140
	H6476	H	0.658222	0.703213	0.536404
	H6477	H	0.910488	0.637079	0.581056
	H6478	H	0.664375	0.683909	0.634821
	H6479	H	0.910776	0.750036	0.589683
	O6480	O	0.091006	0.732626	0.660998
	O6481	O	0.343446	0.666585	0.705261
	O6482	O	0.085404	0.646021	0.734139
	O6483	O	0.333282	0.711995	0.689605
	O6484	O	0.422913	0.665160	0.735913
	O6485	O	0.170634	0.731138	0.691540
	O6486	O	0.414155	0.712312	0.658775
	O6487	O	0.166630	0.646332	0.703275
	O6488	O	0.415909	0.645462	0.732232
	O6489	O	0.163479	0.711437	0.687733
	O6490	O	0.421250	0.732027	0.658828
	O6491	O	0.173723	0.666045	0.703463
	O6492	O	0.083557	0.712929	0.657153
	O6493	O	0.336395	0.646934	0.701581
	O6494	O	0.092559	0.665770	0.734252
	O6495	O	0.340500	0.731713	0.689959
	F6496	F	0.005258	0.656430	0.705573
	F6497	F	0.252366	0.722438	0.661201
	F6498	F	0.002400	0.721605	0.687598
	F6499	F	0.254393	0.655649	0.731956
	Al6500	Al	0.129786	0.656029	0.718803
	Al6501	Al	0.377322	0.722025	0.674295
	Al6502	Al	0.127385	0.722031	0.674337
	Al6503	Al	0.379805	0.656041	0.718762
	C6504	C	0.092149	0.750905	0.655793
	C6505	C	0.345113	0.684911	0.700050
	C6506	C	0.094252	0.627988	0.742232
	C6507	C	0.342165	0.694000	0.697997
	C6508	C	0.415284	0.682364	0.749646
	C6509	C	0.163147	0.748305	0.705381
	C6510	C	0.411015	0.694641	0.647807
	C6511	C	0.163680	0.628651	0.692178
	C6512	C	0.414049	0.627164	0.737429
	C6513	C	0.161773	0.693143	0.693230
	C6514	C	0.412199	0.750080	0.650675
	C6515	C	0.164745	0.684055	0.695280
	C6516	C	0.091308	0.695709	0.643472
	C6517	C	0.344050	0.629761	0.687672
	C6518	C	0.095359	0.683424	0.745287
	C6519	C	0.343596	0.749414	0.700872
	C6520	C	0.003516	0.745809	0.654309
	C6521	C	0.256457	0.679821	0.698692
	C6522	C	0.002675	0.632220	0.738657
	C6523	C	0.250509	0.698228	0.694512
	C6524	C	0.006111	0.678349	0.744941
	C6525	C	0.254423	0.744331	0.700556
	C6526	C	0.000079	0.699692	0.648247
	C6527	C	0.252830	0.633726	0.692565
	C6528	C	0.005531	0.736099	0.658306
	C6529	C	0.258179	0.670109	0.702700
	C6530	C	0.001118	0.641941	0.734783
	C6531	C	0.248812	0.707930	0.690384
	C6532	C	0.007326	0.669066	0.737953
	C6533	C	0.255372	0.735048	0.693571
	C6534	C	-0.001010	0.708994	0.655158
	C6535	C	0.251735	0.643008	0.699590
	H6536	H	0.163412	0.747734	0.658579
	H6537	H	0.416393	0.681745	0.702797
	H6538	H	0.163169	0.631848	0.743530
	H6539	H	0.411138	0.697861	0.699159
	H6540	H	0.345801	0.678529	0.749492
	H6541	H	0.093757	0.744456	0.705304
	H6542	H	0.340120	0.697629	0.651495
	H6543	H	0.092679	0.631607	0.695921
	H6544	H	0.342973	0.630353	0.734644
	H6545	H	0.090685	0.696323	0.690482
	H6546	H	0.343283	0.746226	0.649254
	H6547	H	0.095806	0.680191	0.694157
	H6548	H	0.160729	0.699557	0.643552
	H6549	H	0.413461	0.633610	0.687712
	H6550	H	0.166342	0.680459	0.741541
	H6551	H	0.414557	0.746444	0.697111
	O6552	O	0.590952	0.732607	0.660857
	O6553	O	0.843241	0.666619	0.705247
	O6554	O	0.585637	0.646039	0.734200
	O6555	O	0.833114	0.712020	0.689951
	O6556	O	0.922795	0.665118	0.735973
	O6557	O	0.670275	0.731146	0.691507
	O6558	O	0.913755	0.712299	0.658874
	O6559	O	0.666337	0.646322	0.703184
	O6560	O	0.915626	0.645447	0.732113
	O6561	O	0.663433	0.711439	0.687806
	O6562	O	0.921312	0.731993	0.658911
	O6563	O	0.673454	0.666050	0.703326
	O6564	O	0.584000	0.712900	0.657205
	O6565	O	0.836154	0.646931	0.701434
	O6566	O	0.592682	0.665777	0.734163
	O6567	O	0.840147	0.731748	0.689932
	F6568	F	0.505027	0.656430	0.705605
	F6569	F	0.752667	0.722419	0.661312
	F6570	F	0.502127	0.721627	0.687474
	F6571	F	0.754666	0.655633	0.731793
	Al6572	Al	0.629762	0.656041	0.718774
	Al6573	Al	0.877630	0.722005	0.674485
	Al6574	Al	0.627310	0.722028	0.674332
	Al6575	Al	0.880032	0.656034	0.718646
	C6576	C	0.592430	0.750923	0.655838
	C6577	C	0.844991	0.684906	0.699970
	C6578	C	0.594368	0.628015	0.742433
	C6579	C	0.842165	0.693994	0.697969
	C6580	C	0.914785	0.682338	0.749697
	C6581	C	0.662846	0.748316	0.705469
	C6582	C	0.910776	0.694613	0.647936
	C6583	C	0.663125	0.628666	0.692177
	C6584	C	0.913899	0.627139	0.737218
	C6585	C	0.661843	0.693143	0.693031
	C6586	C	0.911837	0.750039	0.650771
	C6587	C	0.664700	0.684053	0.695041
	C6588	C	0.591581	0.695707	0.643470
	C6589	C	0.843549	0.629744	0.687724
	C6590	C	0.595815	0.683441	0.745313
	C6591	C	0.843235	0.749422	0.700856
	C6592	C	0.503753	0.745835	0.654293
	C6593	C	0.756319	0.679819	0.698527
	C6594	C	0.502782	0.632245	0.738893
	C6595	C	0.750526	0.698226	0.694470
	C6596	C	0.506517	0.678378	0.744867
	C6597	C	0.753993	0.744342	0.700577
	C6598	C	0.500346	0.699698	0.648193
	C6599	C	0.752330	0.633740	0.692438
	C6600	C	0.505618	0.736115	0.658191
	C6601	C	0.757895	0.670118	0.702596
	C6602	C	0.501221	0.641957	0.734888
	C6603	C	0.748745	0.707939	0.690513
	C6604	C	0.507545	0.669094	0.737865
	C6605	C	0.754937	0.735059	0.693575
	C6606	C	0.499319	0.708990	0.655124
	C6607	C	0.751445	0.643016	0.699428
	H6608	H	0.663641	0.747747	0.658624
	H6609	H	0.916213	0.681724	0.702777
	H6610	H	0.663265	0.631876	0.743701
	H6611	H	0.911138	0.697847	0.699190
	H6612	H	0.845265	0.678501	0.749571
	H6613	H	0.593419	0.744468	0.705445
	H6614	H	0.839806	0.697587	0.651672
	H6615	H	0.592212	0.631620	0.695994
	H6616	H	0.842804	0.630322	0.734435
	H6617	H	0.590675	0.696319	0.690277
	H6618	H	0.842946	0.746179	0.649465
	H6619	H	0.595714	0.680188	0.693852
	H6620	H	0.661054	0.699546	0.643581
	H6621	H	0.913078	0.633572	0.687852
	H6622	H	0.666853	0.680476	0.741609
	H6623	H	0.914170	0.746453	0.697051
	O6624	O	0.093170	0.729084	0.767752
	O6625	O	0.345202	0.663109	0.812220
	O6626	O	0.088161	0.642523	0.841177
	O6627	O	0.335582	0.708496	0.796629
	O6628	O	0.425183	0.661694	0.842676
	O6629	O	0.172641	0.727680	0.798351
	O6630	O	0.416649	0.708846	0.765685
	O6631	O	0.168864	0.642821	0.810204
	O6632	O	0.418417	0.641947	0.839002
	O6633	O	0.165854	0.707930	0.794566
	O6634	O	0.423265	0.728562	0.765931
	O6635	O	0.175464	0.662535	0.810297
	O6636	O	0.086048	0.709437	0.764026
	O6637	O	0.338653	0.643434	0.808386
	O6638	O	0.094826	0.662246	0.841222
	O6639	O	0.342300	0.728236	0.796802
	F6640	F	0.007367	0.652919	0.812505
	F6641	F	0.255071	0.718912	0.768094
	F6642	F	0.004769	0.718124	0.794465
	F6643	F	0.256846	0.652125	0.838851
	Al6644	Al	0.132081	0.652516	0.825769
	Al6645	Al	0.379717	0.718533	0.781331
	Al6646	Al	0.129790	0.718528	0.781211
	Al6647	Al	0.382012	0.652537	0.825627
	C6648	C	0.094986	0.747378	0.762457
	C6649	C	0.347117	0.681390	0.806893
	C6650	C	0.097024	0.624494	0.849118
	C6651	C	0.344443	0.690481	0.804823
	C6652	C	0.417860	0.678840	0.856625
	C6653	C	0.165306	0.744876	0.812187
	C6654	C	0.413487	0.691174	0.754637
	C6655	C	0.165665	0.625178	0.799085
	C6656	C	0.416738	0.623660	0.844171
	C6657	C	0.164002	0.689642	0.799987
	C6658	C	0.414811	0.746569	0.757626
	C6659	C	0.166668	0.680560	0.802056
	C6660	C	0.093522	0.692237	0.750263
	C6661	C	0.346032	0.626267	0.794514
	C6662	C	0.097657	0.679955	0.852052
	C6663	C	0.345715	0.745940	0.807718
	C6664	C	0.006237	0.742298	0.761038
	C6665	C	0.258273	0.676320	0.805538
	C6666	C	0.005368	0.628725	0.845663
	C6667	C	0.252770	0.694720	0.801363
	C6668	C	0.008520	0.674865	0.851767
	C6669	C	0.256397	0.740865	0.807336
	C6670	C	0.002332	0.696213	0.755090
	C6671	C	0.254898	0.630244	0.799384
	C6672	C	0.007897	0.732590	0.765038
	C6673	C	0.259855	0.666613	0.809566
	C6674	C	0.003694	0.638445	0.841777
	C6675	C	0.251112	0.704424	0.797293
	C6676	C	0.009561	0.665572	0.844864
	C6677	C	0.257281	0.731589	0.800379
	C6678	C	0.001488	0.705503	0.762064
	C6679	C	0.253992	0.639512	0.806436
	H6680	H	0.166164	0.744199	0.765243
	H6681	H	0.418151	0.678198	0.809629
	H6682	H	0.165973	0.628352	0.850384
	H6683	H	0.413427	0.694350	0.805937
	H6684	H	0.348439	0.674993	0.856584
	H6685	H	0.095689	0.741047	0.812122
	H6686	H	0.342494	0.694148	0.758311
	H6687	H	0.094765	0.628136	0.802889
	H6688	H	0.345684	0.626851	0.841403
	H6689	H	0.092825	0.692824	0.797220
	H6690	H	0.345727	0.742719	0.756464
	H6691	H	0.097626	0.676717	0.800886
	H6692	H	0.162940	0.696082	0.750352
	H6693	H	0.415510	0.630104	0.794607
	H6694	H	0.168685	0.677007	0.848254
	H6695	H	0.416695	0.742971	0.803987
	O6696	O	0.593038	0.729098	0.767840
	O6697	O	0.845371	0.663129	0.812157
	O6698	O	0.588099	0.642553	0.841197
	O6699	O	0.835352	0.708532	0.796843
	O6700	O	0.924998	0.661635	0.842870
	O6701	O	0.672429	0.727678	0.798414
	O6702	O	0.916281	0.708831	0.765720
	O6703	O	0.668611	0.642826	0.810178
	O6704	O	0.918398	0.641958	0.839016
	O6705	O	0.665709	0.707950	0.794738
	O6706	O	0.923423	0.728515	0.765727
	O6707	O	0.675624	0.662563	0.810199
	O6708	O	0.586456	0.709423	0.764185
	O6709	O	0.838346	0.643424	0.808425
	O6710	O	0.595025	0.662242	0.841188
	O6711	O	0.842264	0.728281	0.796749
	F6712	F	0.507294	0.652942	0.812478
	F6713	F	0.754915	0.718934	0.768206
	F6714	F	0.504259	0.718136	0.794470
	F6715	F	0.756990	0.652144	0.838758
	Al6716	Al	0.632110	0.652533	0.825662
	Al6717	Al	0.879984	0.718518	0.781338
	Al6718	Al	0.629604	0.718536	0.781326
	Al6719	Al	0.882218	0.652530	0.825592
	C6720	C	0.595329	0.747403	0.762456
	C6721	C	0.847397	0.681413	0.806804
	C6722	C	0.596964	0.624512	0.849221
	C6723	C	0.844525	0.690499	0.804809
	C6724	C	0.917254	0.678839	0.856665
	C6725	C	0.665002	0.744849	0.812258
	C6726	C	0.912997	0.691151	0.754653
	C6727	C	0.665324	0.625172	0.799120
	C6728	C	0.916679	0.623640	0.844074
	C6729	C	0.664121	0.689650	0.799900
	C6730	C	0.914528	0.746536	0.757549
	C6731	C	0.666903	0.680564	0.801879
	C6732	C	0.594008	0.692253	0.750320
	C6733	C	0.845709	0.626275	0.794503
	C6734	C	0.598293	0.679954	0.852037
	C6735	C	0.845353	0.745960	0.807645
	C6736	C	0.506403	0.742324	0.761063
	C6737	C	0.758536	0.676338	0.805442
	C6738	C	0.505409	0.628745	0.845733
	C6739	C	0.752792	0.694729	0.801375
	C6740	C	0.509091	0.674865	0.851736
	C6741	C	0.756150	0.740877	0.807344
	C6742	C	0.502746	0.696234	0.755088
	C6743	C	0.754542	0.630239	0.799408
	C6744	C	0.507793	0.732619	0.765152
	C6745	C	0.760069	0.666637	0.809483
	C6746	C	0.503776	0.638458	0.841782
	C6747	C	0.750997	0.704446	0.797441
	C6748	C	0.509959	0.665590	0.844764
	C6749	C	0.757097	0.731601	0.800383
	C6750	C	0.501769	0.705513	0.762089
	C6751	C	0.753667	0.639505	0.806468
	H6752	H	0.666423	0.744211	0.765243
	H6753	H	0.918353	0.678209	0.809542
	H6754	H	0.665864	0.628369	0.850525
	H6755	H	0.913369	0.694369	0.805984
	H6756	H	0.847833	0.674988	0.856652
	H6757	H	0.595545	0.741000	0.812235
	H6758	H	0.842008	0.694120	0.758330
	H6759	H	0.594454	0.628129	0.802950
	H6760	H	0.845567	0.626823	0.841289
	H6761	H	0.592755	0.692809	0.797127
	H6762	H	0.845520	0.742678	0.756326
	H6763	H	0.597878	0.676704	0.800619
	H6764	H	0.663460	0.696090	0.750480
	H6765	H	0.915168	0.630124	0.794526
	H6766	H	0.669301	0.677002	0.848238
	H6767	H	0.916274	0.743003	0.803830
	O6768	O	0.095514	0.725592	0.874638
	O6769	O	0.348473	0.659612	0.918695
	O6770	O	0.090753	0.639124	0.947837
	O6771	O	0.338115	0.705048	0.903620
	O6772	O	0.427986	0.658089	0.949387
	O6773	O	0.175016	0.724184	0.905241
	O6774	O	0.418883	0.705320	0.872679
	O6775	O	0.171679	0.639249	0.916887
	O6776	O	0.421214	0.638489	0.945667
	O6777	O	0.168403	0.704467	0.901595
	O6778	O	0.425801	0.725045	0.872762
	O6779	O	0.178770	0.659048	0.916695
	O6780	O	0.088503	0.705915	0.871052
	O6781	O	0.341353	0.639886	0.915044
	O6782	O	0.097496	0.658741	0.947577
	O6783	O	0.344855	0.724771	0.903651
	F6784	F	0.010246	0.649381	0.918855
	F6785	F	0.257079	0.715442	0.875004
	F6786	F	0.007018	0.714633	0.901389
	F6787	F	0.259528	0.648656	0.945264
	Al6788	Al	0.134730	0.649038	0.932093
	Al6789	Al	0.381968	0.715042	0.888128
	Al6790	Al	0.132005	0.715041	0.888191
	Al6791	Al	0.384629	0.649026	0.932108
	C6792	C	0.097380	0.743879	0.869300
	C6793	C	0.350026	0.677927	0.913590
	C6794	C	0.099657	0.621299	0.958207
	C6795	C	0.347058	0.687022	0.911678
	C6796	C	0.420459	0.675234	0.963654
	C6797	C	0.167548	0.741367	0.919129
	C6798	C	0.416043	0.687651	0.861633
	C6799	C	0.168683	0.621545	0.906225
	C6800	C	0.420062	0.620274	0.952879
	C6801	C	0.166713	0.686161	0.906712
	C6802	C	0.417017	0.743053	0.864452
	C6803	C	0.169727	0.677073	0.908631
	C6804	C	0.095795	0.688764	0.857057
	C6805	C	0.348967	0.622663	0.901373
	C6806	C	0.100347	0.676329	0.958858
	C6807	C	0.347924	0.742469	0.914502
	C6808	C	0.008600	0.738803	0.867903
	C6809	C	0.261420	0.672841	0.912087
	C6810	C	0.008139	0.625403	0.953845
	C6811	C	0.255392	0.691252	0.908184
	C6812	C	0.011182	0.671255	0.958637
	C6813	C	0.258739	0.737383	0.914251
	C6814	C	0.004632	0.692735	0.861919
	C6815	C	0.257896	0.626622	0.906379
	C6816	C	0.010165	0.729094	0.871934
	C6817	C	0.263198	0.663125	0.916045
	C6818	C	0.006466	0.635045	0.948831
	C6819	C	0.253740	0.700964	0.904240
	C6820	C	0.012347	0.662014	0.951425
	C6821	C	0.259722	0.728096	0.907302
	C6822	C	0.003721	0.702010	0.868952
	C6823	C	0.256820	0.635926	0.913236
	H6824	H	0.168527	0.740692	0.872044
	H6825	H	0.421181	0.674750	0.916381
	H6826	H	0.168312	0.625216	0.959148
	H6827	H	0.415856	0.690889	0.912944
	H6828	H	0.351121	0.671381	0.963654
	H6829	H	0.097950	0.737541	0.919092
	H6830	H	0.345112	0.690610	0.865454
	H6831	H	0.097845	0.624473	0.910217
	H6832	H	0.349135	0.623357	0.949363
	H6833	H	0.095513	0.689336	0.903980
	H6834	H	0.348068	0.739196	0.863233
	H6835	H	0.100736	0.673215	0.907393
	H6836	H	0.165248	0.692609	0.857102
	H6837	H	0.418428	0.626498	0.901353
	H6838	H	0.171131	0.673390	0.954884
	H6839	H	0.419009	0.739541	0.910671
	O6840	O	0.595549	0.725606	0.874666
	O6841	O	0.848262	0.659602	0.918493
	O6842	O	0.590825	0.639142	0.947833
	O6843	O	0.837589	0.705021	0.903666
	O6844	O	0.927742	0.658081	0.949376
	O6845	O	0.674803	0.724165	0.905387
	O6846	O	0.918591	0.705339	0.872660
	O6847	O	0.671190	0.639231	0.916886
	O6848	O	0.921103	0.638495	0.945735
	O6849	O	0.667893	0.704464	0.901660
	O6850	O	0.925808	0.725018	0.872636
	O6851	O	0.678533	0.659028	0.916567
	O6852	O	0.588614	0.705953	0.870964
	O6853	O	0.841019	0.639854	0.914967
	O6854	O	0.597661	0.658773	0.947467
	O6855	O	0.844732	0.724784	0.903703
	F6856	F	0.509762	0.649408	0.918926
	F6857	F	0.757243	0.715442	0.875093
	F6858	F	0.506642	0.714640	0.901341
	F6859	F	0.759499	0.648648	0.945144
	Al6860	Al	0.634648	0.649042	0.932052
	Al6861	Al	0.882237	0.715030	0.888237
	Al6862	Al	0.631905	0.715031	0.888203
	Al6863	Al	0.884967	0.649006	0.931981
	C6864	C	0.597414	0.743903	0.869332
	C6865	C	0.849448	0.677934	0.913686
	C6866	C	0.599982	0.621336	0.958336
	C6867	C	0.846411	0.687021	0.911800
	C6868	C	0.920086	0.675199	0.963716
	C6869	C	0.667286	0.741369	0.919162
	C6870	C	0.915405	0.687647	0.861663
	C6871	C	0.668198	0.621522	0.906346
	C6872	C	0.919752	0.620247	0.952772
	C6873	C	0.666148	0.686135	0.906735
	C6874	C	0.916995	0.743056	0.864412
	C6875	C	0.669158	0.677041	0.908632
	C6876	C	0.596464	0.688771	0.857039
	C6877	C	0.848438	0.622674	0.901300
	C6878	C	0.600671	0.676365	0.958778
	C6879	C	0.847653	0.742445	0.914515
	C6880	C	0.508613	0.738819	0.867993
	C6881	C	0.760905	0.672829	0.912070
	C6882	C	0.508405	0.625428	0.953921
	C6883	C	0.754744	0.691235	0.908269
	C6884	C	0.511489	0.671288	0.958547
	C6885	C	0.758419	0.737374	0.914290
	C6886	C	0.505214	0.692737	0.861915
	C6887	C	0.757353	0.626615	0.906373
	C6888	C	0.510237	0.729118	0.872049
	C6889	C	0.762892	0.663112	0.915915
	C6890	C	0.506538	0.635054	0.948810
	C6891	C	0.753151	0.700949	0.904317
	C6892	C	0.512476	0.662040	0.951352
	C6893	C	0.759498	0.728085	0.907385
	C6894	C	0.504059	0.702015	0.868959
	C6895	C	0.756346	0.635911	0.913204
	H6896	H	0.668635	0.740719	0.872088
	H6897	H	0.920508	0.674761	0.916481
	H6898	H	0.668534	0.625265	0.959280
	H6899	H	0.915187	0.690889	0.913123
	H6900	H	0.850693	0.671348	0.963731
	H6901	H	0.597667	0.737548	0.919136
	H6902	H	0.844482	0.690599	0.865495
	H6903	H	0.597465	0.624445	0.910406
	H6904	H	0.848816	0.623327	0.949257
	H6905	H	0.594886	0.689312	0.903938
	H6906	H	0.847991	0.739201	0.863192
	H6907	H	0.600278	0.673179	0.907339
	H6908	H	0.665873	0.692621	0.857120
	H6909	H	0.917888	0.626513	0.901224
	H6910	H	0.671488	0.673430	0.954785
	H6911	H	0.918705	0.739500	0.910718
	O6912	O	0.095280	0.850609	-0.000390
	O6913	O	0.348513	0.784616	0.043604
	O6914	O	0.090779	0.764123	0.072777
	O6915	O	0.338187	0.830015	0.028477
	O6916	O	0.427984	0.783117	0.074290
	O6917	O	0.175011	0.849187	0.030178
	O6918	O	0.418878	0.830341	-0.002404
	O6919	O	0.171696	0.764242	0.041887
	O6920	O	0.421161	0.763487	0.070673
	O6921	O	0.168475	0.829465	0.026524
	O6922	O	0.425575	0.850059	-0.002313
	O6923	O	0.178799	0.784042	0.041714
	O6924	O	0.088262	0.830940	-0.004070
	O6925	O	0.341382	0.764899	0.039940
	O6926	O	0.097381	0.783741	0.072558
	O6927	O	0.344839	0.849789	0.028510
	F6928	F	0.010272	0.774424	0.043832
	F6929	F	0.257167	0.840432	-0.000078
	F6930	F	0.006869	0.839627	0.026324
	F6931	F	0.259521	0.773646	0.070253
	Al6932	Al	0.134856	0.774036	0.057076
	Al6933	Al	0.381781	0.840043	0.013099
	Al6934	Al	0.132055	0.840043	0.013072
	Al6935	Al	0.384719	0.774030	0.057047
	C6936	C	0.096885	0.868886	-0.005694
	C6937	C	0.350066	0.802934	0.038618
	C6938	C	0.099733	0.746345	0.083387
	C6939	C	0.347235	0.812025	0.036682
	C6940	C	0.420499	0.800228	0.088649
	C6941	C	0.167722	0.866393	0.043934
	C6942	C	0.415849	0.812672	-0.013424
	C6943	C	0.168952	0.746530	0.031299
	C6944	C	0.420078	0.745268	0.077777
	C6945	C	0.166908	0.811148	0.031666
	C6946	C	0.416872	0.868068	-0.010615
	C6947	C	0.169727	0.802059	0.033585
	C6948	C	0.095777	0.813729	-0.017907
	C6949	C	0.349149	0.747667	0.026384
	C6950	C	0.100415	0.801352	0.083800
	C6951	C	0.348222	0.867460	0.039529
	C6952	C	0.008099	0.863806	-0.007122
	C6953	C	0.261421	0.797838	0.037084
	C6954	C	0.008156	0.750423	0.078835
	C6955	C	0.255493	0.816241	0.033170
	C6956	C	0.011222	0.796272	0.083567
	C6957	C	0.258875	0.862399	0.039158
	C6958	C	0.004619	0.817718	-0.013024
	C6959	C	0.258043	0.751623	0.031398
	C6960	C	0.009952	0.854100	-0.003087
	C6961	C	0.263180	0.788123	0.041011
	C6962	C	0.006445	0.760060	0.073818
	C6963	C	0.253721	0.825950	0.029199
	C6964	C	0.012222	0.787033	0.076323
	C6965	C	0.259687	0.853109	0.032188
	C6966	C	0.003676	0.827010	-0.006072
	C6967	C	0.256855	0.760928	0.038206
	H6968	H	0.168075	0.865702	-0.002901
	H6969	H	0.421074	0.799753	0.041411
	H6970	H	0.168197	0.750281	0.084515
	H6971	H	0.416008	0.815902	0.037953
	H6972	H	0.351209	0.796359	0.088721
	H6973	H	0.098099	0.862573	0.043778
	H6974	H	0.344995	0.815635	-0.009623
	H6975	H	0.098095	0.749446	0.035327
	H6976	H	0.349059	0.748334	0.074218
	H6977	H	0.095576	0.814319	0.028888
	H6978	H	0.347923	0.864210	-0.011794
	H6979	H	0.100793	0.798197	0.032306
	H6980	H	0.165233	0.817574	-0.017893
	H6981	H	0.418599	0.751508	0.026339
	H6982	H	0.171360	0.798426	0.079807
	H6983	H	0.419207	0.864494	0.035788
	O6984	O	0.595437	0.850606	-0.000301
	O6985	O	0.848015	0.784602	0.043337
	O6986	O	0.590796	0.764136	0.072739
	O6987	O	0.837946	0.830016	0.028684
	O6988	O	0.927646	0.783100	0.074265
	O6989	O	0.674836	0.849157	0.030405
	O6990	O	0.918406	0.830338	-0.002429
	O6991	O	0.671142	0.764240	0.041780
	O6992	O	0.921063	0.763527	0.070703
	O6993	O	0.668247	0.829464	0.026660
	O6994	O	0.925455	0.850022	-0.002295
	O6995	O	0.678227	0.784038	0.041479
	O6996	O	0.588732	0.830940	-0.003972
	O6997	O	0.841006	0.764851	0.039915
	O6998	O	0.597700	0.783748	0.072553
	O6999	O	0.844575	0.849774	0.028722
	F7000	F	0.509757	0.774433	0.043878
	F7001	F	0.757167	0.840445	0.000147
	F7002	F	0.506531	0.839654	0.026316
	F7003	F	0.759577	0.773672	0.070071
	Al7004	Al	0.634544	0.774050	0.057014
	Al7005	Al	0.882142	0.840029	0.013238
	Al7006	Al	0.631892	0.840050	0.013216
	Al7007	Al	0.884928	0.774032	0.056902
	C7008	C	0.597162	0.868913	-0.005656
	C7009	C	0.849579	0.802906	0.038611
	C7010	C	0.599887	0.746342	0.083378
	C7011	C	0.846704	0.812000	0.036798
	C7012	C	0.920119	0.800216	0.088734
	C7013	C	0.667145	0.866394	0.044014
	C7014	C	0.915343	0.812648	-0.013340
	C7015	C	0.668326	0.746503	0.031308
	C7016	C	0.919927	0.745253	0.077599
	C7017	C	0.666410	0.811151	0.031719
	C7018	C	0.916446	0.868043	-0.010563
	C7019	C	0.669224	0.802062	0.033524
	C7020	C	0.596239	0.813767	-0.017991
	C7021	C	0.848423	0.747662	0.026308
	C7022	C	0.600711	0.801390	0.083660
	C7023	C	0.847579	0.867464	0.039521
	C7024	C	0.508491	0.863831	-0.007137
	C7025	C	0.760904	0.797830	0.037000
	C7026	C	0.508347	0.750427	0.078879
	C7027	C	0.755039	0.816232	0.033324
	C7028	C	0.511556	0.796301	0.083454
	C7029	C	0.758316	0.862395	0.039213
	C7030	C	0.505099	0.817741	-0.013096
	C7031	C	0.757336	0.751605	0.031362
	C7032	C	0.510136	0.854118	-0.003024
	C7033	C	0.762641	0.788113	0.040808
	C7034	C	0.506507	0.760049	0.073771
	C7035	C	0.753462	0.825946	0.029359
	C7036	C	0.512564	0.787044	0.076319
	C7037	C	0.759405	0.853096	0.032340
	C7038	C	0.504069	0.827026	-0.006064
	C7039	C	0.756302	0.760909	0.038140
	H7040	H	0.668239	0.865723	-0.002824
	H7041	H	0.920644	0.799707	0.041382
	H7042	H	0.668422	0.750265	0.084385
	H7043	H	0.915617	0.815875	0.038134
	H7044	H	0.850689	0.796358	0.088770
	H7045	H	0.597587	0.862563	0.043941
	H7046	H	0.844381	0.815614	-0.009582
	H7047	H	0.597510	0.749418	0.035333
	H7048	H	0.848985	0.748318	0.073982
	H7049	H	0.595246	0.814320	0.028918
	H7050	H	0.847400	0.864192	-0.011721
	H7051	H	0.600370	0.798209	0.032150
	H7052	H	0.665664	0.817616	-0.017942
	H7053	H	0.917792	0.751520	0.026199
	H7054	H	0.671564	0.798457	0.079676
	H7055	H	0.918581	0.864505	0.035766
	O7056	O	0.098072	0.847093	0.106014
	O7057	O	0.352464	0.781623	0.156506
	O7058	O	0.094548	0.762879	0.191415
	O7059	O	0.340820	0.826631	0.135288
	O7060	O	0.431981	0.780855	0.187736
	O7061	O	0.177753	0.845629	0.136709
	O7062	O	0.421474	0.826755	0.104208
	O7063	O	0.175721	0.761322	0.158107
	O7064	O	0.425453	0.762104	0.189629
	O7065	O	0.171220	0.825987	0.133092
	O7066	O	0.428322	0.846505	0.103998
	O7067	O	0.182811	0.780874	0.154195
	O7068	O	0.091266	0.827330	0.102615
	O7069	O	0.345252	0.762070	0.155764
	O7070	O	0.102084	0.781575	0.185498
	O7071	O	0.347475	0.846263	0.134941
	F7072	F	0.014121	0.771274	0.158726
	F7073	F	0.259725	0.836914	0.106352
	F7074	F	0.009515	0.836140	0.132693
	F7075	F	0.263547	0.771606	0.184800
	Al7076	Al	0.138672	0.771450	0.171693
	Al7077	Al	0.384605	0.836535	0.119507
	Al7078	Al	0.134703	0.836531	0.119466
	Al7079	Al	0.388592	0.771449	0.171720
	C7080	C	0.099603	0.865408	0.100979
	C7081	C	0.352991	0.799780	0.149156
	C7082	C	0.098532	0.748972	0.220450
	C7083	C	0.349915	0.808805	0.145822
	C7084	C	0.424346	0.797723	0.202830
	C7085	C	0.170168	0.862749	0.151031
	C7086	C	0.418627	0.809023	0.093773
	C7087	C	0.172895	0.743875	0.146341
	C7088	C	0.419751	0.747211	0.216132
	C7089	C	0.170133	0.807756	0.140191
	C7090	C	0.419347	0.864554	0.096030
	C7091	C	0.173196	0.798712	0.143509
	C7092	C	0.098658	0.810152	0.088926
	C7093	C	0.352708	0.745241	0.140504
	C7094	C	0.104352	0.799084	0.196936
	C7095	C	0.350462	0.863882	0.146255
	C7096	C	0.010909	0.860322	0.099480
	C7097	C	0.264749	0.794612	0.147935
	C7098	C	0.009014	0.751731	0.211171
	C7099	C	0.258470	0.812907	0.141303
	C7100	C	0.015483	0.793971	0.196816
	C7101	C	0.261247	0.858802	0.145934
	C7102	C	0.007508	0.814099	0.093943
	C7103	C	0.261877	0.748958	0.146558
	C7104	C	0.012743	0.850597	0.103336
	C7105	C	0.266902	0.785002	0.153203
	C7106	C	0.009588	0.759441	0.196293
	C7107	C	0.256534	0.822542	0.136220
	C7108	C	0.016846	0.784790	0.189507
	C7109	C	0.262310	0.849555	0.138735
	C7110	C	0.006598	0.823405	0.100737
	C7111	C	0.260842	0.758108	0.154043
	H7112	H	0.170788	0.862225	0.103746
	H7113	H	0.423975	0.796722	0.152852
	H7114	H	0.168035	0.752487	0.216919
	H7115	H	0.418600	0.812711	0.146842
	H7116	H	0.355468	0.793801	0.202882
	H7117	H	0.100602	0.858925	0.151002
	H7118	H	0.347923	0.811947	0.097842
	H7119	H	0.102671	0.746692	0.151153
	H7120	H	0.350321	0.749238	0.208969
	H7121	H	0.099251	0.810843	0.136605
	H7122	H	0.350508	0.860685	0.094718
	H7123	H	0.104674	0.794774	0.142571
	H7124	H	0.168003	0.814012	0.088894
	H7125	H	0.421586	0.749154	0.140441
	H7126	H	0.174853	0.796289	0.192181
	H7127	H	0.421501	0.860956	0.142341
	O7128	O	0.597980	0.847093	0.106085
	O7129	O	0.851865	0.781644	0.156361
	O7130	O	0.594689	0.762929	0.191556
	O7131	O	0.840471	0.826608	0.135312
	O7132	O	0.932462	0.780849	0.187685
	O7133	O	0.677522	0.845594	0.136876
	O7134	O	0.921358	0.826769	0.104235
	O7135	O	0.675193	0.761360	0.158108
	O7136	O	0.925203	0.762114	0.189711
	O7137	O	0.670813	0.825996	0.133210
	O7138	O	0.928410	0.846502	0.103932
	O7139	O	0.682197	0.780867	0.154138
	O7140	O	0.591368	0.827347	0.102591
	O7141	O	0.844795	0.762060	0.155727
	O7142	O	0.601621	0.781600	0.185458
	O7143	O	0.847312	0.846272	0.135029
	F7144	F	0.513566	0.771289	0.158839
	F7145	F	0.759791	0.836924	0.106450
	F7146	F	0.509397	0.836151	0.132696
	F7147	F	0.763418	0.771643	0.184713
	Al7148	Al	0.638577	0.771482	0.171718
	Al7149	Al	0.884941	0.836531	0.119587
	Al7150	Al	0.634563	0.836529	0.119529
	Al7151	Al	0.888664	0.771457	0.171636
	C7152	C	0.599647	0.865411	0.101008
	C7153	C	0.852195	0.799780	0.149129
	C7154	C	0.598914	0.748998	0.220528
	C7155	C	0.849248	0.808810	0.145828
	C7156	C	0.924387	0.797707	0.202763
	C7157	C	0.669872	0.862723	0.151144
	C7158	C	0.918346	0.809010	0.093870
	C7159	C	0.672295	0.743866	0.146407
	C7160	C	0.919274	0.747162	0.216043
	C7161	C	0.669358	0.807756	0.140257
	C7162	C	0.919232	0.864550	0.095925
	C7163	C	0.672374	0.798713	0.143534
	C7164	C	0.598837	0.810182	0.088759
	C7165	C	0.851953	0.745271	0.140344
	C7166	C	0.604217	0.799107	0.196862
	C7167	C	0.850163	0.863878	0.146221
	C7168	C	0.510960	0.860321	0.099533
	C7169	C	0.763928	0.794618	0.147893
	C7170	C	0.509430	0.751768	0.211242
	C7171	C	0.757780	0.812911	0.141359
	C7172	C	0.515333	0.793997	0.196808
	C7173	C	0.760961	0.858787	0.146035
	C7174	C	0.507697	0.814121	0.093820
	C7175	C	0.761127	0.748984	0.146440
	C7176	C	0.512638	0.850599	0.103446
	C7177	C	0.766170	0.785006	0.153118
	C7178	C	0.509782	0.759468	0.196370
	C7179	C	0.756075	0.822537	0.136286
	C7180	C	0.516445	0.784808	0.189490
	C7181	C	0.762035	0.849538	0.138870
	C7182	C	0.506688	0.823419	0.100649
	C7183	C	0.760178	0.758129	0.153981
	H7184	H	0.670811	0.862225	0.103770
	H7185	H	0.923189	0.796726	0.152826
	H7186	H	0.668395	0.752513	0.216998
	H7187	H	0.917942	0.812714	0.146879
	H7188	H	0.855526	0.793787	0.202766
	H7189	H	0.600385	0.858880	0.151182
	H7190	H	0.847592	0.811943	0.097929
	H7191	H	0.602078	0.746652	0.151341
	H7192	H	0.849956	0.749208	0.208823
	H7193	H	0.598548	0.810859	0.136716
	H7194	H	0.850368	0.860685	0.094561
	H7195	H	0.603765	0.794784	0.142611
	H7196	H	0.668082	0.814054	0.088697
	H7197	H	0.920805	0.749192	0.140220
	H7198	H	0.674587	0.796312	0.192033
	H7199	H	0.921201	0.860966	0.142233
	O7200	O	0.102378	0.844100	0.218969
	O7201	O	0.342960	0.789725	0.323987
	O7202	O	0.085723	0.773192	0.365132
	O7203	O	0.344514	0.825440	0.254042
	O7204	O	0.423575	0.790760	0.358138
	O7205	O	0.182272	0.843357	0.250198
	O7206	O	0.425085	0.823844	0.220578
	O7207	O	0.166373	0.770474	0.331989
	O7208	O	0.416681	0.772310	0.363357
	O7209	O	0.175309	0.824633	0.252228
	O7210	O	0.432690	0.843402	0.216765
	O7211	O	0.173507	0.788847	0.322172
	O7212	O	0.094959	0.824544	0.218400
	O7213	O	0.335773	0.771331	0.329043
	O7214	O	0.093446	0.791549	0.355473
	O7215	O	0.351929	0.844098	0.247965
	F7216	F	0.004675	0.780259	0.330972
	F7217	F	0.263727	0.833802	0.221304
	F7218	F	0.013396	0.834103	0.247329
	F7219	F	0.254747	0.781768	0.356360
	Al7220	Al	0.129706	0.781025	0.343661
	Al7221	Al	0.388712	0.833975	0.234211
	Al7222	Al	0.138645	0.833953	0.234239
	Al7223	Al	0.379751	0.781016	0.343656
	C7224	C	0.102779	0.862265	0.211682
	C7225	C	0.348568	0.804380	0.297000
	C7226	C	0.090178	0.759537	0.394985
	C7227	C	0.348717	0.811530	0.283102
	C7228	C	0.415874	0.807228	0.374647
	C7229	C	0.174532	0.860208	0.265329
	C7230	C	0.422408	0.806374	0.208926
	C7231	C	0.163942	0.753213	0.319275
	C7232	C	0.410666	0.757711	0.390518
	C7233	C	0.169394	0.809657	0.278510
	C7234	C	0.423228	0.861223	0.206011
	C7235	C	0.169212	0.802515	0.292384
	C7236	C	0.102438	0.807745	0.203004
	C7237	C	0.343374	0.754855	0.312626
	C7238	C	0.095519	0.808800	0.368239
	C7239	C	0.354258	0.861613	0.259319
	C7240	C	0.014639	0.857092	0.210446
	C7241	C	0.258750	0.799805	0.301824
	C7242	C	0.000427	0.762253	0.385610
	C7243	C	0.259113	0.814273	0.273771
	C7244	C	0.006808	0.803697	0.367890
	C7245	C	0.265498	0.856474	0.259319
	C7246	C	0.011469	0.811456	0.209043
	C7247	C	0.252582	0.758339	0.319466
	C7248	C	0.016758	0.847480	0.215662
	C7249	C	0.258410	0.792259	0.317113
	C7250	C	0.000940	0.769799	0.370289
	C7251	C	0.259634	0.821988	0.258922
	C7252	C	0.008422	0.794680	0.359853
	C7253	C	0.266747	0.847307	0.251984
	C7254	C	0.010359	0.820610	0.216555
	C7255	C	0.251377	0.767367	0.327475
	H7256	H	0.173694	0.859192	0.215362
	H7257	H	0.417901	0.802372	0.304325
	H7258	H	0.159730	0.763081	0.391438
	H7259	H	0.418161	0.815085	0.279600
	H7260	H	0.347290	0.803281	0.374468
	H7261	H	0.105488	0.856300	0.265406
	H7262	H	0.352156	0.809162	0.213802
	H7263	H	0.094106	0.755875	0.324795
	H7264	H	0.341386	0.759711	0.383160
	H7265	H	0.099966	0.811658	0.271233
	H7266	H	0.354714	0.857282	0.205079
	H7267	H	0.099579	0.798987	0.295859
	H7268	H	0.171340	0.811661	0.202964
	H7269	H	0.411721	0.758841	0.312675
	H7270	H	0.165536	0.806139	0.362840
	H7271	H	0.424811	0.858857	0.254462
	O7272	O	0.602455	0.844160	0.219042
	O7273	O	0.842766	0.789739	0.323914
	O7274	O	0.586082	0.773210	0.365169
	O7275	O	0.844276	0.825457	0.254094
	O7276	O	0.923947	0.790758	0.358061
	O7277	O	0.682190	0.843339	0.250385
	O7278	O	0.925270	0.823830	0.220665
	O7279	O	0.666303	0.770507	0.331864
	O7280	O	0.916196	0.772334	0.363453
	O7281	O	0.674970	0.824623	0.252167
	O7282	O	0.932615	0.843358	0.216672
	O7283	O	0.673300	0.788862	0.322209
	O7284	O	0.594747	0.824572	0.218297
	O7285	O	0.835800	0.771291	0.329087
	O7286	O	0.593085	0.791534	0.355539
	O7287	O	0.851827	0.844150	0.247911
	F7288	F	0.504895	0.780253	0.331038
	F7289	F	0.763849	0.833812	0.221389
	F7290	F	0.513285	0.834126	0.247282
	F7291	F	0.754788	0.781793	0.356272
	Al7292	Al	0.629806	0.781035	0.343689
	Al7293	Al	0.888934	0.833969	0.234306
	Al7294	Al	0.638560	0.833967	0.234259
	Al7295	Al	0.879762	0.781010	0.343591
	C7296	C	0.603027	0.862302	0.211665
	C7297	C	0.848267	0.804395	0.296938
	C7298	C	0.590282	0.759551	0.395061
	C7299	C	0.848479	0.811545	0.283051
	C7300	C	0.915996	0.807211	0.374618
	C7301	C	0.674177	0.860221	0.265385
	C7302	C	0.922473	0.806359	0.208873
	C7303	C	0.663885	0.753193	0.319334
	C7304	C	0.910518	0.757690	0.390490
	C7305	C	0.669007	0.809681	0.278497
	C7306	C	0.922961	0.861184	0.205997
	C7307	C	0.668826	0.802542	0.292374
	C7308	C	0.602243	0.807759	0.202924
	C7309	C	0.843092	0.754844	0.312567
	C7310	C	0.595415	0.808821	0.368261
	C7311	C	0.853788	0.861639	0.259291
	C7312	C	0.514779	0.857134	0.210441
	C7313	C	0.758445	0.799817	0.301761
	C7314	C	0.500709	0.762274	0.385671
	C7315	C	0.758805	0.814273	0.273703
	C7316	C	0.506724	0.803711	0.367935
	C7317	C	0.765087	0.856503	0.259338
	C7318	C	0.511421	0.811471	0.209048
	C7319	C	0.752360	0.758339	0.319422
	C7320	C	0.516823	0.847528	0.215742
	C7321	C	0.758104	0.792275	0.317089
	C7322	C	0.501237	0.769806	0.370296
	C7323	C	0.759330	0.821985	0.258871
	C7324	C	0.508097	0.794679	0.359915
	C7325	C	0.766564	0.847323	0.252046
	C7326	C	0.510229	0.820623	0.216513
	C7327	C	0.751245	0.767362	0.327444
	H7328	H	0.673922	0.859238	0.215387
	H7329	H	0.917494	0.802382	0.304275
	H7330	H	0.659973	0.763072	0.391478
	H7331	H	0.917877	0.815101	0.279546
	H7332	H	0.847486	0.803260	0.374475
	H7333	H	0.605308	0.856302	0.265496
	H7334	H	0.852217	0.809159	0.213736
	H7335	H	0.594055	0.755828	0.324901
	H7336	H	0.841086	0.759701	0.383199
	H7337	H	0.599483	0.811688	0.271250
	H7338	H	0.854465	0.857240	0.205009
	H7339	H	0.599137	0.799022	0.295894
	H7340	H	0.671016	0.811693	0.202805
	H7341	H	0.911595	0.758818	0.312588
	H7342	H	0.665361	0.806165	0.362803
	H7343	H	0.924290	0.858878	0.254423
	O7344	O	0.092531	0.852242	0.386540
	O7345	O	0.333931	0.799938	0.497835
	O7346	O	0.076724	0.781169	0.533187
	O7347	O	0.335763	0.835715	0.427755
	O7348	O	0.414502	0.799984	0.531683
	O7349	O	0.173337	0.853260	0.420630
	O7350	O	0.416214	0.833003	0.394418
	O7351	O	0.157237	0.780426	0.502102
	O7352	O	0.406740	0.780413	0.531003
	O7353	O	0.166324	0.834824	0.426001
	O7354	O	0.423364	0.851372	0.384746
	O7355	O	0.164705	0.799108	0.495933
	O7356	O	0.085807	0.833782	0.391754
	O7357	O	0.326783	0.781219	0.499593
	O7358	O	0.084001	0.800732	0.529308
	O7359	O	0.342774	0.854036	0.418015
	F7360	F	-0.004299	0.790436	0.502642
	F7361	F	0.254581	0.842754	0.393575
	F7362	F	0.004544	0.844275	0.418948
	F7363	F	0.245467	0.790752	0.528684
	Al7364	Al	0.120651	0.790576	0.515733
	Al7365	Al	0.379631	0.843511	0.406223
	Al7366	Al	0.129574	0.843521	0.406231
	Al7367	Al	0.370586	0.790595	0.515783
	C7368	C	0.098221	0.866858	0.359449
	C7369	C	0.339776	0.814952	0.471669
	C7370	C	0.086118	0.763354	0.543956
	C7371	C	0.340011	0.822101	0.457771
	C7372	C	0.406763	0.816800	0.546935
	C7373	C	0.165954	0.869730	0.437090
	C7374	C	0.413857	0.815723	0.381729
	C7375	C	0.155089	0.762955	0.490527
	C7376	C	0.406562	0.762273	0.538293
	C7377	C	0.160970	0.820146	0.452948
	C7378	C	0.419102	0.865018	0.354865
	C7379	C	0.160757	0.813005	0.466831
	C7380	C	0.093478	0.817295	0.375333
	C7381	C	0.335005	0.764339	0.484694
	C7382	C	0.086576	0.818166	0.541053
	C7383	C	0.345521	0.871288	0.430816
	C7384	C	0.008408	0.862278	0.364265
	C7385	C	0.250175	0.810305	0.476296
	C7386	C	-0.005389	0.767443	0.539459
	C7387	C	0.250586	0.824768	0.448234
	C7388	C	-0.002302	0.813060	0.541023
	C7389	C	0.256778	0.866195	0.430430
	C7390	C	0.002630	0.820806	0.382058
	C7391	C	0.243910	0.768069	0.490573
	C7392	C	0.007918	0.854751	0.379652
	C7393	C	0.249591	0.802577	0.491118
	C7394	C	-0.007304	0.777059	0.534213
	C7395	C	0.250921	0.832307	0.432892
	C7396	C	-0.001098	0.803923	0.533447
	C7397	C	0.257860	0.857173	0.422423
	C7398	C	0.001452	0.829843	0.390060
	C7399	C	0.242422	0.777241	0.497958
	H7400	H	0.167661	0.864876	0.366785
	H7401	H	0.409056	0.812969	0.479058
	H7402	H	0.154773	0.767276	0.544932
	H7403	H	0.409389	0.825671	0.454351
	H7404	H	0.337875	0.812887	0.546945
	H7405	H	0.097313	0.865795	0.436876
	H7406	H	0.343965	0.818390	0.387127
	H7407	H	0.084722	0.765744	0.495334
	H7408	H	0.335623	0.765325	0.534632
	H7409	H	0.091814	0.822116	0.445536
	H7410	H	0.349574	0.861481	0.358393
	H7411	H	0.091405	0.809420	0.470199
	H7412	H	0.161995	0.821245	0.375539
	H7413	H	0.403839	0.768253	0.484723
	H7414	H	0.156750	0.815380	0.536102
	H7415	H	0.415585	0.868618	0.425464
	O7416	O	0.592758	0.852240	0.386538
	O7417	O	0.834051	0.799973	0.497863
	O7418	O	0.576509	0.781184	0.533252
	O7419	O	0.835314	0.835708	0.427780
	O7420	O	0.914481	0.799955	0.531798
	O7421	O	0.673556	0.853255	0.420767
	O7422	O	0.916347	0.832979	0.394515
	O7423	O	0.657122	0.780435	0.502017
	O7424	O	0.906994	0.780452	0.530977
	O7425	O	0.665900	0.834808	0.425909
	O7426	O	0.923091	0.851320	0.384737
	O7427	O	0.664814	0.799055	0.495845
	O7428	O	0.585736	0.833805	0.391753
	O7429	O	0.826830	0.781203	0.499610
	O7430	O	0.584081	0.800735	0.529328
	O7431	O	0.843087	0.854053	0.418085
	F7432	F	0.495700	0.790424	0.502717
	F7433	F	0.754850	0.842741	0.393641
	F7434	F	0.504551	0.844314	0.418874
	F7435	F	0.745782	0.790749	0.528585
	Al7436	Al	0.620643	0.790573	0.515767
	Al7437	Al	0.879730	0.843520	0.406328
	Al7438	Al	0.629594	0.843544	0.406222
	Al7439	Al	0.871059	0.790595	0.515643
	C7440	C	0.598358	0.866900	0.359469
	C7441	C	0.839325	0.814941	0.471630
	C7442	C	0.586346	0.763356	0.543974
	C7443	C	0.839391	0.822078	0.457722
	C7444	C	0.906936	0.816787	0.547092
	C7445	C	0.665861	0.869759	0.437056
	C7446	C	0.913939	0.815709	0.381708
	C7447	C	0.654775	0.762948	0.490614
	C7448	C	0.906209	0.762288	0.538384
	C7449	C	0.660373	0.820101	0.452848
	C7450	C	0.918943	0.864978	0.354772
	C7451	C	0.660292	0.812960	0.466758
	C7452	C	0.593407	0.817317	0.375339
	C7453	C	0.834663	0.764341	0.484652
	C7454	C	0.586655	0.818185	0.541122
	C7455	C	0.845436	0.871323	0.430803
	C7456	C	0.508651	0.862304	0.364301
	C7457	C	0.749818	0.810281	0.476251
	C7458	C	0.494793	0.767439	0.539468
	C7459	C	0.749929	0.824746	0.448185
	C7460	C	0.497746	0.813078	0.540933
	C7461	C	0.756662	0.866233	0.430388
	C7462	C	0.502601	0.820828	0.382063
	C7463	C	0.743580	0.768065	0.490580
	C7464	C	0.508240	0.854785	0.379682
	C7465	C	0.749582	0.802565	0.491091
	C7466	C	0.492447	0.777050	0.534249
	C7467	C	0.750415	0.832291	0.432841
	C7468	C	0.498950	0.803945	0.533407
	C7469	C	0.758035	0.857190	0.422469
	C7470	C	0.501284	0.829863	0.390053
	C7471	C	0.742327	0.777240	0.497957
	H7472	H	0.667801	0.864930	0.366808
	H7473	H	0.908545	0.812979	0.479016
	H7474	H	0.654807	0.767287	0.544956
	H7475	H	0.908799	0.825643	0.454288
	H7476	H	0.838102	0.812870	0.547168
	H7477	H	0.597300	0.865815	0.436877
	H7478	H	0.844108	0.818369	0.387158
	H7479	H	0.584500	0.765734	0.495496
	H7480	H	0.835250	0.765351	0.534748
	H7481	H	0.591194	0.822051	0.445368
	H7482	H	0.849407	0.861435	0.358256
	H7483	H	0.591021	0.809359	0.470132
	H7484	H	0.661912	0.821270	0.375478
	H7485	H	0.903527	0.768265	0.484667
	H7486	H	0.657001	0.815396	0.536282
	H7487	H	0.915467	0.868642	0.425475
	O7488	O	0.083848	0.862433	0.560252
	O7489	O	0.338097	0.798597	0.616865
	O7490	O	0.080482	0.778004	0.645751
	O7491	O	0.326676	0.843676	0.595660
	O7492	O	0.418070	0.797178	0.647612
	O7493	O	0.164653	0.862509	0.594095
	O7494	O	0.407122	0.842959	0.564412
	O7495	O	0.161732	0.778307	0.614937
	O7496	O	0.410999	0.777499	0.644095
	O7497	O	0.156925	0.842983	0.593617
	O7498	O	0.414976	0.861620	0.558383
	O7499	O	0.168496	0.797962	0.614789
	O7500	O	0.077006	0.843692	0.562277
	O7501	O	0.331505	0.778905	0.613312
	O7502	O	0.087285	0.797790	0.645634
	O7503	O	0.334265	0.863242	0.591759
	F7504	F	0.000019	0.788412	0.617143
	F7505	F	0.245710	0.852959	0.565142
	F7506	F	-0.004162	0.853284	0.591227
	F7507	F	0.249247	0.787655	0.643599
	Al7508	Al	0.124597	0.788015	0.630406
	Al7509	Al	0.370590	0.853086	0.578182
	Al7510	Al	0.120683	0.853119	0.578251
	Al7511	Al	0.374609	0.788050	0.630516
	C7512	C	0.089341	0.877378	0.534033
	C7513	C	0.339002	0.816839	0.609908
	C7514	C	0.089370	0.759998	0.653851
	C7515	C	0.336022	0.825881	0.606578
	C7516	C	0.410537	0.814419	0.661116
	C7517	C	0.157054	0.879296	0.609535
	C7518	C	0.404769	0.825460	0.553008
	C7519	C	0.158694	0.760702	0.603636
	C7520	C	0.409382	0.759179	0.648805
	C7521	C	0.156160	0.824808	0.601006
	C7522	C	0.410761	0.875542	0.529371
	C7523	C	0.159183	0.815782	0.604347
	C7524	C	0.084712	0.826818	0.547180
	C7525	C	0.338804	0.761835	0.598763
	C7526	C	0.090239	0.815495	0.656341
	C7527	C	0.336732	0.880726	0.603468
	C7528	C	-0.000424	0.872768	0.538750
	C7529	C	0.250753	0.811685	0.608813
	C7530	C	-0.002261	0.764222	0.650360
	C7531	C	0.244478	0.829972	0.602098
	C7532	C	0.001073	0.810410	0.656116
	C7533	C	0.247970	0.875602	0.603402
	C7534	C	-0.006174	0.830553	0.553180
	C7535	C	0.247840	0.765773	0.603907
	C7536	C	-0.000676	0.865065	0.553629
	C7537	C	0.252788	0.802047	0.613804
	C7538	C	-0.003916	0.773938	0.646409
	C7539	C	0.242429	0.839580	0.596806
	C7540	C	0.002138	0.801097	0.649328
	C7541	C	0.249152	0.866462	0.595837
	C7542	C	-0.007281	0.839726	0.560592
	C7543	C	0.246839	0.775008	0.611169
	H7544	H	0.158757	0.875381	0.541369
	H7545	H	0.409878	0.813752	0.613457
	H7546	H	0.158357	0.763851	0.655116
	H7547	H	0.404505	0.829818	0.607492
	H7548	H	0.341105	0.810575	0.661133
	H7549	H	0.088231	0.875367	0.609671
	H7550	H	0.334432	0.828260	0.557795
	H7551	H	0.087911	0.763653	0.607600
	H7552	H	0.338322	0.762354	0.645938
	H7553	H	0.085163	0.827856	0.597356
	H7554	H	0.341236	0.871993	0.532828
	H7555	H	0.090535	0.811878	0.603347
	H7556	H	0.153544	0.830729	0.547155
	H7557	H	0.408135	0.765695	0.598763
	H7558	H	0.161167	0.812555	0.652434
	H7559	H	0.407060	0.877966	0.598525
	O7560	O	0.584364	0.862447	0.560296
	O7561	O	0.837887	0.798628	0.616803
	O7562	O	0.580849	0.778030	0.645826
	O7563	O	0.826211	0.843683	0.595874
	O7564	O	0.917591	0.797144	0.647538
	O7565	O	0.664182	0.862491	0.594149
	O7566	O	0.907397	0.842929	0.564604
	O7567	O	0.661211	0.778286	0.614949
	O7568	O	0.910736	0.777453	0.643780
	O7569	O	0.656514	0.842934	0.593477
	O7570	O	0.914547	0.861600	0.558445
	O7571	O	0.668329	0.797938	0.614622
	O7572	O	0.576801	0.843705	0.562148
	O7573	O	0.830882	0.778943	0.613122
	O7574	O	0.587721	0.797837	0.645649
	O7575	O	0.833778	0.863238	0.591748
	F7576	F	0.499588	0.788411	0.617306
	F7577	F	0.745914	0.852899	0.565198
	F7578	F	0.495536	0.853267	0.591090
	F7579	F	0.749434	0.787658	0.643495
	Al7580	Al	0.624586	0.788035	0.630405
	Al7581	Al	0.870709	0.853063	0.578313
	Al7582	Al	0.620673	0.853099	0.578207
	Al7583	Al	0.874770	0.788044	0.630319
	C7584	C	0.590132	0.877420	0.533992
	C7585	C	0.838621	0.816834	0.609791
	C7586	C	0.589639	0.760024	0.653979
	C7587	C	0.835670	0.825874	0.606498
	C7588	C	0.909835	0.814379	0.661087
	C7589	C	0.656648	0.879305	0.609444
	C7590	C	0.905015	0.825443	0.553171
	C7591	C	0.658306	0.760664	0.603810
	C7592	C	0.909058	0.759130	0.648835
	C7593	C	0.655752	0.824800	0.600858
	C7594	C	0.909995	0.875498	0.529365
	C7595	C	0.658720	0.815772	0.604167
	C7596	C	0.584755	0.826842	0.547226
	C7597	C	0.838498	0.761822	0.598839
	C7598	C	0.590706	0.815540	0.656234
	C7599	C	0.836555	0.880706	0.603470
	C7600	C	0.500410	0.872807	0.538720
	C7601	C	0.750321	0.811677	0.608637
	C7602	C	0.497975	0.764259	0.650513
	C7603	C	0.744048	0.829961	0.602047
	C7604	C	0.501601	0.810447	0.656115
	C7605	C	0.747607	0.875597	0.603394
	C7606	C	0.493683	0.830569	0.553093
	C7607	C	0.747449	0.765751	0.604001
	C7608	C	0.499985	0.865072	0.553537
	C7609	C	0.752480	0.802046	0.613690
	C7610	C	0.496314	0.773976	0.646625
	C7611	C	0.742051	0.839562	0.596797
	C7612	C	0.502597	0.801146	0.649339
	C7613	C	0.748692	0.866440	0.595914
	C7614	C	0.492330	0.839748	0.560420
	C7615	C	0.746396	0.775004	0.611132
	H7616	H	0.659542	0.875418	0.541302
	H7617	H	0.909542	0.813740	0.613366
	H7618	H	0.658623	0.763871	0.655309
	H7619	H	0.904168	0.829810	0.607455
	H7620	H	0.840433	0.810523	0.661089
	H7621	H	0.587706	0.875390	0.609549
	H7622	H	0.834792	0.828231	0.558032
	H7623	H	0.587604	0.763616	0.607822
	H7624	H	0.837949	0.762311	0.646024
	H7625	H	0.584807	0.827845	0.597186
	H7626	H	0.840405	0.871953	0.532828
	H7627	H	0.590091	0.811859	0.603125
	H7628	H	0.653657	0.830760	0.547261
	H7629	H	0.907605	0.765711	0.598786
	H7630	H	0.661575	0.812614	0.652239
	H7631	H	0.906871	0.877913	0.598581
	O7632	O	0.088054	0.861061	0.679189
	O7633	O	0.340795	0.795088	0.723473
	O7634	O	0.083443	0.774485	0.752237
	O7635	O	0.331034	0.840531	0.708317
	O7636	O	0.420496	0.793648	0.754008
	O7637	O	0.167712	0.859727	0.709811
	O7638	O	0.411846	0.840823	0.677475
	O7639	O	0.164298	0.774834	0.721287
	O7640	O	0.413983	0.773951	0.750295
	O7641	O	0.161229	0.839961	0.706411
	O7642	O	0.418478	0.860470	0.677244
	O7643	O	0.170992	0.794551	0.721646
	O7644	O	0.081184	0.841407	0.675736
	O7645	O	0.334069	0.775386	0.719812
	O7646	O	0.089917	0.794204	0.752569
	O7647	O	0.337607	0.860319	0.708141
	F7648	F	0.002841	0.784949	0.723751
	F7649	F	0.249787	0.850889	0.679713
	F7650	F	-0.000364	0.850147	0.706101
	F7651	F	0.252241	0.784102	0.750084
	Al7652	Al	0.127465	0.784523	0.736942
	Al7653	Al	0.374470	0.850539	0.692877
	Al7654	Al	0.124576	0.850533	0.692886
	Al7655	Al	0.377488	0.784526	0.736878
	C7656	C	0.088939	0.879318	0.672221
	C7657	C	0.342362	0.813409	0.718300
	C7658	C	0.092221	0.756481	0.760478
	C7659	C	0.339676	0.822509	0.716367
	C7660	C	0.413096	0.810820	0.767978
	C7661	C	0.160360	0.876923	0.723558
	C7662	C	0.408668	0.823220	0.666190
	C7663	C	0.161268	0.757120	0.710344
	C7664	C	0.412228	0.755662	0.755635
	C7665	C	0.159389	0.821638	0.711405
	C7666	C	0.409432	0.878282	0.666728
	C7667	C	0.162061	0.812553	0.713344
	C7668	C	0.088417	0.824295	0.661440
	C7669	C	0.341626	0.758229	0.705844
	C7670	C	0.092936	0.811894	0.763467
	C7671	C	0.340562	0.878038	0.718631
	C7672	C	0.000689	0.874149	0.671149
	C7673	C	0.253655	0.808322	0.716831
	C7674	C	0.000596	0.760707	0.756956
	C7675	C	0.248090	0.826734	0.712888
	C7676	C	0.003688	0.806823	0.763168
	C7677	C	0.251491	0.872957	0.718583
	C7678	C	-0.002681	0.828244	0.666458
	C7679	C	0.250375	0.762201	0.710678
	C7680	C	0.002692	0.864514	0.676219
	C7681	C	0.255480	0.798608	0.720855
	C7682	C	-0.000998	0.770423	0.752986
	C7683	C	0.246602	0.836452	0.708996
	C7684	C	0.004765	0.797534	0.756194
	C7685	C	0.252475	0.863651	0.711740
	C7686	C	-0.003526	0.837511	0.673626
	C7687	C	0.249360	0.771480	0.717719
	H7688	H	0.160019	0.876245	0.675781
	H7689	H	0.413318	0.810212	0.721106
	H7690	H	0.161233	0.760335	0.761744
	H7691	H	0.408441	0.826378	0.717641
	H7692	H	0.343570	0.806987	0.767912
	H7693	H	0.091079	0.873059	0.723548
	H7694	H	0.337855	0.826164	0.670134
	H7695	H	0.090316	0.760076	0.714100
	H7696	H	0.341053	0.758847	0.752962
	H7697	H	0.088136	0.824808	0.708649
	H7698	H	0.340831	0.874359	0.665708
	H7699	H	0.092951	0.808712	0.712112
	H7700	H	0.157832	0.828146	0.661458
	H7701	H	0.411020	0.762079	0.705948
	H7702	H	0.163925	0.808931	0.759702
	H7703	H	0.411203	0.875093	0.714557
	O7704	O	0.588103	0.861076	0.679207
	O7705	O	0.840734	0.795127	0.723464
	O7706	O	0.583600	0.774541	0.752328
	O7707	O	0.830356	0.840524	0.708562
	O7708	O	0.920169	0.793600	0.754170
	O7709	O	0.667343	0.859703	0.709898
	O7710	O	0.911381	0.840808	0.677430
	O7711	O	0.663963	0.774823	0.721302
	O7712	O	0.913607	0.773944	0.750356
	O7713	O	0.660689	0.839969	0.706389
	O7714	O	0.918436	0.860430	0.677219
	O7715	O	0.671008	0.794532	0.721460
	O7716	O	0.581543	0.841465	0.675602
	O7717	O	0.833731	0.775407	0.719645
	O7718	O	0.590243	0.794223	0.752445
	O7719	O	0.837109	0.860322	0.708206
	F7720	F	0.502484	0.784949	0.723726
	F7721	F	0.749744	0.850877	0.679831
	F7722	F	0.499274	0.850185	0.706052
	F7723	F	0.752272	0.784093	0.749982
	Al7724	Al	0.627423	0.784530	0.736853
	Al7725	Al	0.874781	0.850509	0.693004
	Al7726	Al	0.624534	0.850541	0.692924
	Al7727	Al	0.877636	0.784516	0.736835
	C7728	C	0.589286	0.879347	0.672344
	C7729	C	0.842120	0.813417	0.718404
	C7730	C	0.592673	0.756503	0.760466
	C7731	C	0.839213	0.822514	0.716488
	C7732	C	0.912399	0.810843	0.767926
	C7733	C	0.659670	0.876907	0.723638
	C7734	C	0.908018	0.823171	0.666164
	C7735	C	0.661013	0.757130	0.710433
	C7736	C	0.911758	0.755630	0.755578
	C7737	C	0.659066	0.821630	0.711337
	C7738	C	0.909100	0.878244	0.666687
	C7739	C	0.661956	0.812546	0.713250
	C7740	C	0.588908	0.824342	0.661332
	C7741	C	0.841405	0.758234	0.705832
	C7742	C	0.593474	0.811902	0.763429
	C7743	C	0.839881	0.878047	0.718683
	C7744	C	0.501002	0.874179	0.671210
	C7745	C	0.753542	0.808325	0.716821
	C7746	C	0.501102	0.760736	0.756933
	C7747	C	0.747574	0.826734	0.712972
	C7748	C	0.504245	0.806826	0.763115
	C7749	C	0.750747	0.872952	0.718608
	C7750	C	0.497852	0.828288	0.666435
	C7751	C	0.750169	0.762211	0.710690
	C7752	C	0.502846	0.864542	0.676230
	C7753	C	0.755336	0.798614	0.720794
	C7754	C	0.499308	0.770453	0.752963
	C7755	C	0.745915	0.836452	0.709105
	C7756	C	0.505162	0.797555	0.756076
	C7757	C	0.751895	0.863642	0.711809
	C7758	C	0.496948	0.837538	0.673612
	C7759	C	0.749055	0.771493	0.717653
	H7760	H	0.660303	0.876281	0.675936
	H7761	H	0.913252	0.810226	0.721238
	H7762	H	0.661691	0.760351	0.761758
	H7763	H	0.908035	0.826390	0.717829
	H7764	H	0.842894	0.807011	0.767826
	H7765	H	0.590354	0.873039	0.723688
	H7766	H	0.837180	0.826124	0.670048
	H7767	H	0.590116	0.760087	0.714243
	H7768	H	0.840627	0.758815	0.752844
	H7769	H	0.587976	0.824790	0.708485
	H7770	H	0.840498	0.874321	0.665712
	H7771	H	0.593032	0.808694	0.711901
	H7772	H	0.658179	0.828202	0.661305
	H7773	H	0.910828	0.762086	0.705875
	H7774	H	0.664427	0.808949	0.759622
	H7775	H	0.910574	0.875097	0.714646
	O7776	O	0.090909	0.857600	0.786004
	O7777	O	0.343273	0.791626	0.830473
	O7778	O	0.086056	0.771019	0.859294
	O7779	O	0.333492	0.837032	0.814847
	O7780	O	0.422844	0.790141	0.861042
	O7781	O	0.170667	0.856132	0.816578
	O7782	O	0.414334	0.837326	0.783804
	O7783	O	0.166809	0.771331	0.828294
	O7784	O	0.416071	0.770447	0.857167
	O7785	O	0.163817	0.836432	0.812799
	O7786	O	0.421238	0.857008	0.784004
	O7787	O	0.173550	0.791054	0.828517
	O7788	O	0.083945	0.837893	0.782277
	O7789	O	0.336483	0.771975	0.826525
	O7790	O	0.092439	0.790718	0.859462
	O7791	O	0.340435	0.856746	0.814949
	F7792	F	0.005185	0.781443	0.830648
	F7793	F	0.252543	0.847424	0.786269
	F7794	F	0.002203	0.846601	0.812618
	F7795	F	0.254567	0.780632	0.857039
	Al7796	Al	0.129811	0.781032	0.843885
	Al7797	Al	0.377349	0.847018	0.799429
	Al7798	Al	0.127324	0.847020	0.799424
	Al7799	Al	0.379625	0.781029	0.843845
	C7800	C	0.092495	0.875898	0.780732
	C7801	C	0.345055	0.809903	0.824926
	C7802	C	0.094655	0.752978	0.867307
	C7803	C	0.342482	0.818991	0.822911
	C7804	C	0.415309	0.807342	0.874759
	C7805	C	0.162838	0.873326	0.830429
	C7806	C	0.411242	0.819641	0.772916
	C7807	C	0.163518	0.753699	0.817177
	C7808	C	0.414290	0.752153	0.862418
	C7809	C	0.161984	0.818153	0.818132
	C7810	C	0.411880	0.875041	0.775914
	C7811	C	0.164500	0.809062	0.820164
	C7812	C	0.091092	0.820711	0.768437
	C7813	C	0.344014	0.754765	0.812686
	C7814	C	0.095410	0.808425	0.870312
	C7815	C	0.343362	0.874412	0.825991
	C7816	C	0.003769	0.870809	0.779277
	C7817	C	0.256156	0.804828	0.823648
	C7818	C	0.003073	0.757231	0.863935
	C7819	C	0.250851	0.823226	0.819490
	C7820	C	0.006209	0.803348	0.869955
	C7821	C	0.254082	0.869337	0.825597
	C7822	C	-0.000073	0.824706	0.773247
	C7823	C	0.252894	0.758751	0.817528
	C7824	C	0.005629	0.861094	0.783244
	C7825	C	0.257954	0.795128	0.827775
	C7826	C	0.001538	0.766954	0.859990
	C7827	C	0.249207	0.832940	0.815481
	C7828	C	0.007258	0.794050	0.863041
	C7829	C	0.255261	0.860064	0.818587
	C7830	C	-0.000798	0.833996	0.780221
	C7831	C	0.251993	0.768030	0.824560
	H7832	H	0.163710	0.872721	0.783451
	H7833	H	0.416128	0.806704	0.827639
	H7834	H	0.163642	0.756832	0.868467
	H7835	H	0.411538	0.822834	0.824065
	H7836	H	0.345899	0.803496	0.874680
	H7837	H	0.093241	0.869502	0.830349
	H7838	H	0.340367	0.822617	0.776647
	H7839	H	0.092728	0.756688	0.820962
	H7840	H	0.343221	0.755337	0.859612
	H7841	H	0.090871	0.821338	0.815396
	H7842	H	0.342955	0.871180	0.774662
	H7843	H	0.095462	0.805202	0.818987
	H7844	H	0.160649	0.824543	0.768525
	H7845	H	0.413461	0.758610	0.812781
	H7846	H	0.166430	0.805466	0.866586
	H7847	H	0.414483	0.871458	0.822261
	O7848	O	0.590937	0.857617	0.786104
	O7849	O	0.842986	0.791629	0.830254
	O7850	O	0.585824	0.771010	0.859149
	O7851	O	0.833004	0.836986	0.814840
	O7852	O	0.922640	0.790148	0.860968
	O7853	O	0.670303	0.856105	0.816652
	O7854	O	0.914097	0.837358	0.783794
	O7855	O	0.666424	0.771328	0.828323
	O7856	O	0.916280	0.770472	0.857282
	O7857	O	0.663238	0.836436	0.812857
	O7858	O	0.921217	0.857007	0.783947
	O7859	O	0.673296	0.791025	0.828359
	O7860	O	0.584135	0.837922	0.782214
	O7861	O	0.836228	0.771918	0.826596
	O7862	O	0.592652	0.790742	0.859365
	O7863	O	0.840143	0.856747	0.815052
	F7864	F	0.504720	0.781461	0.830666
	F7865	F	0.752639	0.847452	0.786322
	F7866	F	0.501923	0.846601	0.812573
	F7867	F	0.754595	0.780640	0.856882
	Al7868	Al	0.629604	0.781051	0.843776
	Al7869	Al	0.877542	0.847020	0.799479
	Al7870	Al	0.627277	0.847012	0.799461
	Al7871	Al	0.879978	0.781032	0.843761
	C7872	C	0.592239	0.875888	0.780883
	C7873	C	0.844289	0.809917	0.825152
	C7874	C	0.594742	0.753002	0.867306
	C7875	C	0.841655	0.819001	0.823178
	C7876	C	0.914886	0.807341	0.874736
	C7877	C	0.662489	0.873323	0.830486
	C7878	C	0.910547	0.819656	0.772895
	C7879	C	0.663244	0.753661	0.817272
	C7880	C	0.914285	0.752152	0.862409
	C7881	C	0.661254	0.818144	0.818210
	C7882	C	0.912017	0.875043	0.775847
	C7883	C	0.663928	0.809054	0.820184
	C7884	C	0.591700	0.820722	0.768386
	C7885	C	0.843594	0.754770	0.812664
	C7886	C	0.595783	0.808417	0.870299
	C7887	C	0.842880	0.874407	0.825937
	C7888	C	0.503539	0.870807	0.779405
	C7889	C	0.755640	0.804828	0.823676
	C7890	C	0.503006	0.757235	0.863885
	C7891	C	0.749988	0.823226	0.819632
	C7892	C	0.506544	0.803348	0.869959
	C7893	C	0.753651	0.869341	0.825619
	C7894	C	0.500553	0.824702	0.773273
	C7895	C	0.752419	0.758736	0.817560
	C7896	C	0.505532	0.861099	0.783395
	C7897	C	0.757566	0.795118	0.827645
	C7898	C	0.501369	0.766942	0.859860
	C7899	C	0.748477	0.832929	0.815557
	C7900	C	0.507513	0.794060	0.863036
	C7901	C	0.754824	0.860048	0.818663
	C7902	C	0.499510	0.833993	0.780215
	C7903	C	0.751514	0.768008	0.824615
	H7904	H	0.663443	0.872707	0.783664
	H7905	H	0.915412	0.806735	0.827947
	H7906	H	0.663695	0.756870	0.868446
	H7907	H	0.910634	0.822862	0.824440
	H7908	H	0.845372	0.803502	0.874683
	H7909	H	0.592986	0.869484	0.830460
	H7910	H	0.839649	0.822630	0.776639
	H7911	H	0.592401	0.756622	0.821108
	H7912	H	0.843272	0.755349	0.859603
	H7913	H	0.590139	0.821329	0.815427
	H7914	H	0.843008	0.871190	0.774621
	H7915	H	0.595044	0.805187	0.818969
	H7916	H	0.661088	0.824574	0.768405
	H7917	H	0.912979	0.758622	0.812743
	H7918	H	0.666802	0.805456	0.866561
	H7919	H	0.913916	0.871451	0.822206
	O7920	O	0.093346	0.854080	0.892803
	O7921	O	0.345856	0.788101	0.937236
	O7922	O	0.088205	0.767520	0.966103
	O7923	O	0.335758	0.833480	0.921626
	O7924	O	0.425260	0.786634	0.967992
	O7925	O	0.172793	0.852663	0.923442
	O7926	O	0.416420	0.833821	0.890747
	O7927	O	0.168840	0.767824	0.935144
	O7928	O	0.418542	0.766962	0.964155
	O7929	O	0.166009	0.832929	0.919727
	O7930	O	0.423496	0.853528	0.890975
	O7931	O	0.176115	0.787524	0.935352
	O7932	O	0.086086	0.834420	0.889145
	O7933	O	0.338732	0.768427	0.933552
	O7934	O	0.094629	0.787237	0.966233
	O7935	O	0.342453	0.853223	0.921910
	F7936	F	0.007340	0.777950	0.937492
	F7937	F	0.254756	0.843934	0.893177
	F7938	F	0.004616	0.843108	0.919545
	F7939	F	0.256785	0.777138	0.963879
	Al7940	Al	0.131997	0.777533	0.950729
	Al7941	Al	0.379550	0.843513	0.906325
	Al7942	Al	0.129602	0.843524	0.906327
	Al7943	Al	0.381922	0.777544	0.950763
	C7944	C	0.094946	0.872364	0.887462
	C7945	C	0.347445	0.806391	0.931885
	C7946	C	0.096876	0.749475	0.974208
	C7947	C	0.344688	0.815475	0.929853
	C7948	C	0.417666	0.803865	0.981581
	C7949	C	0.165314	0.869869	0.937158
	C7950	C	0.413298	0.816155	0.879729
	C7951	C	0.165806	0.750162	0.924174
	C7952	C	0.416905	0.748654	0.969183
	C7953	C	0.164252	0.814619	0.925079
	C7954	C	0.414670	0.871540	0.882697
	C7955	C	0.167068	0.805524	0.927112
	C7956	C	0.093567	0.817238	0.875304
	C7957	C	0.346212	0.751271	0.919546
	C7958	C	0.097639	0.804914	0.977144
	C7959	C	0.345710	0.870939	0.932707
	C7960	C	0.006202	0.867282	0.886083
	C7961	C	0.258737	0.801299	0.930558
	C7962	C	0.005348	0.753717	0.970682
	C7963	C	0.252990	0.819708	0.926469
	C7964	C	0.008446	0.799843	0.976886
	C7965	C	0.256519	0.865848	0.932395
	C7966	C	0.002374	0.821224	0.880064
	C7967	C	0.255053	0.755238	0.924453
	C7968	C	0.008016	0.857574	0.890118
	C7969	C	0.260495	0.791601	0.934628
	C7970	C	0.003871	0.763441	0.966781
	C7971	C	0.251296	0.829415	0.922375
	C7972	C	0.009532	0.790554	0.969934
	C7973	C	0.257444	0.856567	0.925510
	C7974	C	0.001352	0.830512	0.887075
	C7975	C	0.254028	0.764514	0.931468
	H7976	H	0.166074	0.869173	0.890190
	H7977	H	0.418809	0.803229	0.934614
	H7978	H	0.165832	0.753330	0.975539
	H7979	H	0.413819	0.819317	0.930977
	H7980	H	0.348212	0.800029	0.981543
	H7981	H	0.095582	0.866059	0.937043
	H7982	H	0.342376	0.819120	0.883472
	H7983	H	0.094813	0.753098	0.927994
	H7984	H	0.345833	0.751839	0.966425
	H7985	H	0.093248	0.817816	0.922299
	H7986	H	0.345578	0.867685	0.881599
	H7987	H	0.098106	0.801651	0.925963
	H7988	H	0.162959	0.821076	0.875430
	H7989	H	0.415730	0.755105	0.919563
	H7990	H	0.168540	0.801954	0.973357
	H7991	H	0.416863	0.868010	0.928948
	O7992	O	0.593204	0.854096	0.892889
	O7993	O	0.845257	0.788118	0.937169
	O7994	O	0.588310	0.767529	0.966075
	O7995	O	0.835281	0.833485	0.921807
	O7996	O	0.924812	0.786624	0.967965
	O7997	O	0.672701	0.852641	0.923513
	O7998	O	0.916253	0.833827	0.890790
	O7999	O	0.668726	0.767836	0.935093
	O8000	O	0.918441	0.766962	0.964144
	O8001	O	0.665525	0.832920	0.919725
	O8002	O	0.923687	0.853491	0.890866
	O8003	O	0.675555	0.787518	0.935250
	O8004	O	0.586202	0.834429	0.889051
	O8005	O	0.838617	0.768403	0.933505
	O8006	O	0.595063	0.787275	0.966179
	O8007	O	0.842399	0.853282	0.921823
	F8008	F	0.507060	0.777952	0.937564
	F8009	F	0.754869	0.843926	0.893262
	F8010	F	0.504240	0.843102	0.919469
	F8011	F	0.756805	0.777117	0.963771
	Al8012	Al	0.631974	0.777535	0.950709
	Al8013	Al	0.879813	0.843511	0.906420
	Al8014	Al	0.629574	0.843523	0.906330
	Al8015	Al	0.882274	0.777535	0.950619
	C8016	C	0.595111	0.872376	0.887463
	C8017	C	0.846812	0.806399	0.931816
	C8018	C	0.597174	0.749499	0.974218
	C8019	C	0.844159	0.815485	0.929827
	C8020	C	0.917214	0.803833	0.981697
	C8021	C	0.664904	0.869860	0.937247
	C8022	C	0.913079	0.816147	0.879721
	C8023	C	0.665538	0.750168	0.924184
	C8024	C	0.916604	0.748637	0.969160
	C8025	C	0.663744	0.814626	0.924948
	C8026	C	0.914539	0.871528	0.882639
	C8027	C	0.666446	0.805536	0.926947
	C8028	C	0.593749	0.817229	0.875262
	C8029	C	0.845855	0.751244	0.919544
	C8030	C	0.597965	0.804961	0.977003
	C8031	C	0.845435	0.870945	0.932780
	C8032	C	0.506302	0.867291	0.886119
	C8033	C	0.758084	0.801310	0.930407
	C8034	C	0.505561	0.753738	0.970684
	C8035	C	0.752538	0.819710	0.926377
	C8036	C	0.508816	0.799878	0.976762
	C8037	C	0.756100	0.865870	0.932383
	C8038	C	0.502525	0.821219	0.880061
	C8039	C	0.754755	0.755237	0.924398
	C8040	C	0.507902	0.857599	0.890234
	C8041	C	0.759856	0.791606	0.934500
	C8042	C	0.503883	0.763453	0.966759
	C8043	C	0.750843	0.829414	0.922411
	C8044	C	0.509866	0.790578	0.969901
	C8045	C	0.757181	0.856589	0.925469
	C8046	C	0.501559	0.830505	0.887041
	C8047	C	0.753830	0.764512	0.931421
	H8048	H	0.666234	0.869186	0.890217
	H8049	H	0.918042	0.803242	0.934597
	H8050	H	0.666016	0.753369	0.975545
	H8051	H	0.913205	0.819324	0.931028
	H8052	H	0.847694	0.799997	0.981647
	H8053	H	0.595273	0.866037	0.937208
	H8054	H	0.842204	0.819122	0.883495
	H8055	H	0.594577	0.753110	0.928019
	H8056	H	0.845447	0.751828	0.966429
	H8057	H	0.592783	0.817840	0.922209
	H8058	H	0.845557	0.867668	0.881451
	H8059	H	0.597513	0.801663	0.925792
	H8060	H	0.663129	0.821075	0.875339
	H8061	H	0.915494	0.755059	0.919616
	H8062	H	0.668870	0.802002	0.973208
	H8063	H	0.916605	0.868000	0.929077
	O8064	O	0.093225	0.979120	0.017804
	O8065	O	0.345545	0.913138	0.062386
	O8066	O	0.087806	0.892534	0.091125
	O8067	O	0.335985	0.958505	0.046583
	O8068	O	0.425083	0.911657	0.092881
	O8069	O	0.172949	0.977671	0.048411
	O8070	O	0.416534	0.958852	0.015646
	O8071	O	0.169091	0.892817	0.060203
	O8072	O	0.417976	0.891967	0.089232
	O8073	O	0.166257	0.957944	0.044607
	O8074	O	0.423236	0.978541	0.015793
	O8075	O	0.175825	0.912537	0.060240
	O8076	O	0.085947	0.959416	0.014192
	O8077	O	0.338883	0.893435	0.058499
	O8078	O	0.094544	0.912244	0.091198
	O8079	O	0.342746	0.978260	0.046716
	F8080	F	0.007373	0.902937	0.062472
	F8081	F	0.254731	0.968926	0.018070
	F8082	F	0.004615	0.968121	0.044484
	F8083	F	0.256690	0.902144	0.088859
	Al8084	Al	0.132050	0.902530	0.075681
	Al8085	Al	0.379539	0.968540	0.031238
	Al8086	Al	0.129698	0.968535	0.031262
	Al8087	Al	0.381918	0.902548	0.075729
	C8088	C	0.094665	0.997394	0.012426
	C8089	C	0.347386	0.931401	0.056833
	C8090	C	0.096790	0.874508	0.099132
	C8091	C	0.344802	0.940476	0.054729
	C8092	C	0.417378	0.928855	0.106577
	C8093	C	0.165343	0.994854	0.062207
	C8094	C	0.413231	0.941171	0.004688
	C8095	C	0.166082	0.875189	0.049002
	C8096	C	0.416523	0.873653	0.094168
	C8097	C	0.164338	0.939666	0.049894
	C8098	C	0.414498	0.996573	0.007605
	C8099	C	0.166947	0.930570	0.051996
	C8100	C	0.093262	0.942238	0.000286
	C8101	C	0.346550	0.876260	0.044598
	C8102	C	0.097737	0.929944	0.102139
	C8103	C	0.345756	0.995948	0.057728
	C8104	C	0.005848	0.992320	0.011117
	C8105	C	0.258523	0.926326	0.055492
	C8106	C	0.005131	0.878734	0.095639
	C8107	C	0.253228	0.944729	0.051270
	C8108	C	0.008552	0.924862	0.101852
	C8109	C	0.256584	0.990876	0.057369
	C8110	C	0.002046	0.946228	0.005059
	C8111	C	0.255334	0.880250	0.049375
	C8112	C	0.007843	0.982620	0.015161
	C8113	C	0.260188	0.916625	0.059579
	C8114	C	0.003415	0.888457	0.091784
	C8115	C	0.251568	0.954436	0.047289
	C8116	C	0.009377	0.915586	0.094842
	C8117	C	0.257647	0.981593	0.050403
	C8118	C	0.001315	0.955513	0.012060
	C8119	C	0.254255	0.889513	0.056456
	H8120	H	0.165815	0.994210	0.015160
	H8121	H	0.418668	0.928231	0.059595
	H8122	H	0.165628	0.878376	0.100493
	H8123	H	0.413986	0.944305	0.055885
	H8124	H	0.348026	0.925004	0.106556
	H8125	H	0.095865	0.991020	0.062123
	H8126	H	0.342211	0.944144	0.008391
	H8127	H	0.095086	0.878143	0.052784
	H8128	H	0.345424	0.876836	0.091407
	H8129	H	0.093400	0.942881	0.047110
	H8130	H	0.345414	0.992735	0.006398
	H8131	H	0.097997	0.926704	0.050851
	H8132	H	0.162803	0.946076	0.000411
	H8133	H	0.416111	0.880080	0.044780
	H8134	H	0.168704	0.926979	0.098361
	H8135	H	0.416748	0.992999	0.053974
	O8136	O	0.592971	0.979089	0.017770
	O8137	O	0.845335	0.913129	0.062111
	O8138	O	0.587779	0.892539	0.091034
	O8139	O	0.835687	0.958514	0.046799
	O8140	O	0.924725	0.911668	0.092845
	O8141	O	0.672259	0.977666	0.048473
	O8142	O	0.916043	0.958853	0.015636
	O8143	O	0.668438	0.892832	0.060088
	O8144	O	0.918008	0.891972	0.089125
	O8145	O	0.665907	0.957951	0.044779
	O8146	O	0.923406	0.978529	0.015876
	O8147	O	0.675637	0.912536	0.060064
	O8148	O	0.586441	0.959417	0.014156
	O8149	O	0.838259	0.893427	0.058449
	O8150	O	0.594822	0.912293	0.091091
	O8151	O	0.842133	0.978269	0.046881
	F8152	F	0.506963	0.902942	0.062509
	F8153	F	0.754829	0.968921	0.018256
	F8154	F	0.504218	0.968131	0.044418
	F8155	F	0.756691	0.902173	0.088689
	Al8156	Al	0.631890	0.902551	0.075608
	Al8157	Al	0.879876	0.968526	0.031387
	Al8158	Al	0.629576	0.968539	0.031329
	Al8159	Al	0.882220	0.902550	0.075595
	C8160	C	0.594731	0.997394	0.012464
	C8161	C	0.847035	0.931415	0.056926
	C8162	C	0.596851	0.874510	0.099125
	C8163	C	0.844350	0.940495	0.054938
	C8164	C	0.917320	0.928855	0.106683
	C8165	C	0.664793	0.994872	0.062202
	C8166	C	0.912831	0.941144	0.004724
	C8167	C	0.665351	0.875199	0.049017
	C8168	C	0.916436	0.873646	0.094102
	C8169	C	0.663928	0.939669	0.049973
	C8170	C	0.914130	0.996548	0.007618
	C8171	C	0.666696	0.930570	0.051954
	C8172	C	0.593814	0.942239	0.000339
	C8173	C	0.845793	0.876273	0.044510
	C8174	C	0.597773	0.929975	0.101968
	C8175	C	0.845264	0.995939	0.057737
	C8176	C	0.506003	0.992318	0.011075
	C8177	C	0.758266	0.926332	0.055409
	C8178	C	0.505140	0.878743	0.095704
	C8179	C	0.752816	0.944737	0.051429
	C8180	C	0.508586	0.924892	0.101673
	C8181	C	0.755922	0.990881	0.057394
	C8182	C	0.502530	0.946234	0.005043
	C8183	C	0.754620	0.880255	0.049349
	C8184	C	0.507679	0.982608	0.015132
	C8185	C	0.759990	0.916620	0.059382
	C8186	C	0.503352	0.888460	0.091785
	C8187	C	0.751233	0.954446	0.047465
	C8188	C	0.509639	0.915606	0.094760
	C8189	C	0.756902	0.981590	0.050484
	C8190	C	0.501681	0.955523	0.012013
	C8191	C	0.753588	0.889517	0.056408
	H8192	H	0.665937	0.994218	0.015197
	H8193	H	0.918212	0.928249	0.059749
	H8194	H	0.665679	0.878383	0.100393
	H8195	H	0.913513	0.944321	0.056217
	H8196	H	0.847753	0.925024	0.106599
	H8197	H	0.595212	0.991052	0.062162
	H8198	H	0.841742	0.944097	0.008465
	H8199	H	0.594435	0.878164	0.052802
	H8200	H	0.845351	0.876838	0.091359
	H8201	H	0.593025	0.942887	0.047197
	H8202	H	0.845105	0.992694	0.006440
	H8203	H	0.597808	0.926694	0.050735
	H8204	H	0.663351	0.946070	0.000492
	H8205	H	0.915332	0.880105	0.044620
	H8206	H	0.668779	0.927019	0.098178
	H8207	H	0.916316	0.992983	0.054020
	O8208	O	0.095359	0.975599	0.124701
	O8209	O	0.348271	0.909621	0.168684
	O8210	O	0.090474	0.889120	0.197785
	O8211	O	0.337691	0.955057	0.153590
	O8212	O	0.427869	0.908112	0.199352
	O8213	O	0.175068	0.974170	0.155248
	O8214	O	0.418513	0.955335	0.122625
	O8215	O	0.171352	0.889235	0.166865
	O8216	O	0.420779	0.888506	0.195669
	O8217	O	0.168029	0.954422	0.151502
	O8218	O	0.425798	0.975039	0.122667
	O8219	O	0.178568	0.909031	0.166558
	O8220	O	0.088456	0.955946	0.120964
	O8221	O	0.341047	0.889883	0.165072
	O8222	O	0.097550	0.908748	0.197511
	O8223	O	0.344854	0.974768	0.153669
	F8224	F	0.010069	0.899388	0.168823
	F8225	F	0.257044	0.965451	0.124989
	F8226	F	0.006698	0.964621	0.151387
	F8227	F	0.259347	0.898673	0.195250
	Al8228	Al	0.134612	0.899039	0.182049
	Al8229	Al	0.381717	0.965049	0.138119
	Al8230	Al	0.131888	0.965026	0.138176
	Al8231	Al	0.384470	0.899038	0.182060
	C8232	C	0.096981	0.993870	0.119259
	C8233	C	0.349769	0.927925	0.163676
	C8234	C	0.099596	0.871307	0.208352
	C8235	C	0.346952	0.937006	0.161745
	C8236	C	0.420457	0.925236	0.213626
	C8237	C	0.167475	0.991373	0.168996
	C8238	C	0.415461	0.937670	0.111552
	C8239	C	0.168468	0.871538	0.156184
	C8240	C	0.420067	0.870267	0.202712
	C8241	C	0.166605	0.936156	0.156680
	C8242	C	0.416937	0.993054	0.114508
	C8243	C	0.169457	0.927056	0.158598
	C8244	C	0.095952	0.938761	0.107113
	C8245	C	0.348728	0.872670	0.151380
	C8246	C	0.100387	0.926342	0.208793
	C8247	C	0.347764	0.992463	0.164503
	C8248	C	0.008275	0.988794	0.117834
	C8249	C	0.261163	0.922834	0.162107
	C8250	C	0.008073	0.875394	0.203850
	C8251	C	0.255340	0.941234	0.158175
	C8252	C	0.011256	0.921250	0.208638
	C8253	C	0.258629	0.987385	0.164182
	C8254	C	0.004783	0.942748	0.111919
	C8255	C	0.257637	0.876621	0.156392
	C8256	C	0.010010	0.979096	0.121908
	C8257	C	0.262949	0.913119	0.165977
	C8258	C	0.006073	0.885032	0.198805
	C8259	C	0.253498	0.950946	0.154216
	C8260	C	0.012252	0.912007	0.201407
	C8261	C	0.259703	0.978095	0.157279
	C8262	C	0.003779	0.952019	0.118936
	C8263	C	0.256574	0.885918	0.163250
	H8264	H	0.168112	0.990689	0.122053
	H8265	H	0.420965	0.924767	0.166514
	H8266	H	0.168149	0.875238	0.209376
	H8267	H	0.415846	0.940855	0.163119
	H8268	H	0.351074	0.921383	0.213630
	H8269	H	0.097969	0.987542	0.168903
	H8270	H	0.344571	0.940630	0.115369
	H8271	H	0.097580	0.874463	0.160146
	H8272	H	0.349090	0.873342	0.199148
	H8273	H	0.095537	0.939348	0.153893
	H8274	H	0.347924	0.989206	0.113326
	H8275	H	0.100645	0.923182	0.157278
	H8276	H	0.165365	0.942604	0.107217
	H8277	H	0.418101	0.876513	0.151389
	H8278	H	0.171262	0.923416	0.204792
	H8279	H	0.418856	0.989513	0.160775
	O8280	O	0.595505	0.975595	0.124613
	O8281	O	0.848190	0.909633	0.168519
	O8282	O	0.590345	0.889163	0.197881
	O8283	O	0.837695	0.954996	0.153516
	O8284	O	0.927780	0.908053	0.199426
	O8285	O	0.674854	0.974137	0.155451
	O8286	O	0.918558	0.955360	0.122548
	O8287	O	0.670905	0.889228	0.166865
	O8288	O	0.920711	0.888474	0.195671
	O8289	O	0.667933	0.954476	0.151717
	O8290	O	0.925584	0.975026	0.122688
	O8291	O	0.678450	0.909024	0.166547
	O8292	O	0.588296	0.955925	0.121021
	O8293	O	0.840615	0.889883	0.164854
	O8294	O	0.597659	0.908773	0.197465
	O8295	O	0.844643	0.974788	0.153722
	F8296	F	0.509628	0.899421	0.168919
	F8297	F	0.757003	0.965413	0.125133
	F8298	F	0.506560	0.964643	0.151306
	F8299	F	0.759578	0.898656	0.195116
	Al8300	Al	0.634586	0.899057	0.182079
	Al8301	Al	0.882084	0.965033	0.138226
	Al8302	Al	0.631824	0.965022	0.138190
	Al8303	Al	0.884876	0.899019	0.181946
	C8304	C	0.597249	0.993914	0.119306
	C8305	C	0.849437	0.927929	0.163661
	C8306	C	0.599837	0.871346	0.208330
	C8307	C	0.846448	0.937008	0.161746
	C8308	C	0.920141	0.925214	0.213708
	C8309	C	0.666988	0.991351	0.169212
	C8310	C	0.915509	0.937671	0.111647
	C8311	C	0.668023	0.871511	0.156258
	C8312	C	0.919786	0.870227	0.202695
	C8313	C	0.666134	0.936144	0.156567
	C8314	C	0.916507	0.993028	0.114391
	C8315	C	0.669126	0.927046	0.158470
	C8316	C	0.595903	0.938789	0.106941
	C8317	C	0.848249	0.872668	0.151300
	C8318	C	0.600735	0.926386	0.208740
	C8319	C	0.847269	0.992462	0.164574
	C8320	C	0.508571	0.988819	0.117944
	C8321	C	0.760823	0.922836	0.162082
	C8322	C	0.508266	0.875431	0.203822
	C8323	C	0.754740	0.941230	0.158195
	C8324	C	0.511555	0.921296	0.208509
	C8325	C	0.758171	0.987374	0.164380
	C8326	C	0.504632	0.942745	0.111855
	C8327	C	0.757106	0.876612	0.156338
	C8328	C	0.510224	0.979112	0.121978
	C8329	C	0.762738	0.913123	0.165921
	C8330	C	0.506131	0.885065	0.198776
	C8331	C	0.753151	0.950943	0.154273
	C8332	C	0.512477	0.912051	0.201308
	C8333	C	0.759401	0.978085	0.157435
	C8334	C	0.503630	0.952013	0.118949
	C8335	C	0.756052	0.885916	0.163135
	H8336	H	0.668464	0.990743	0.122063
	H8337	H	0.920545	0.924773	0.166472
	H8338	H	0.668388	0.875275	0.209377
	H8339	H	0.915272	0.940863	0.163087
	H8340	H	0.850699	0.921367	0.213708
	H8341	H	0.597539	0.987506	0.169202
	H8342	H	0.844534	0.940633	0.115422
	H8343	H	0.597132	0.874421	0.160273
	H8344	H	0.848754	0.873299	0.199092
	H8345	H	0.595087	0.939340	0.153689
	H8346	H	0.847536	0.989169	0.113232
	H8347	H	0.600401	0.923155	0.157068
	H8348	H	0.665277	0.942648	0.107006
	H8349	H	0.917704	0.876514	0.151213
	H8350	H	0.671643	0.923461	0.204758
	H8351	H	0.918311	0.989519	0.160759
	O8352	O	0.098140	0.972073	0.230920
	O8353	O	0.352226	0.906605	0.281414
	O8354	O	0.094040	0.887913	0.316441
	O8355	O	0.340305	0.951611	0.260136
	O8356	O	0.432136	0.905862	0.312793
	O8357	O	0.177576	0.970583	0.261809
	O8358	O	0.421412	0.951740	0.229302
	O8359	O	0.175060	0.886320	0.283092
	O8360	O	0.424840	0.887115	0.314668
	O8361	O	0.170691	0.950958	0.258069
	O8362	O	0.428494	0.971512	0.229054
	O8363	O	0.182439	0.905889	0.279251
	O8364	O	0.091041	0.952395	0.227374
	O8365	O	0.344741	0.887068	0.280816
	O8366	O	0.101603	0.906608	0.310352
	O8367	O	0.347249	0.971280	0.259918
	F8368	F	0.013733	0.896285	0.283726
	F8369	F	0.259713	0.961918	0.231336
	F8370	F	0.009506	0.961157	0.257697
	F8371	F	0.263127	0.896626	0.309793
	Al8372	Al	0.138384	0.896457	0.296691
	Al8373	Al	0.384486	0.961540	0.244559
	Al8374	Al	0.134529	0.961517	0.244476
	Al8375	Al	0.388412	0.896474	0.296712
	C8376	C	0.099778	0.990398	0.225979
	C8377	C	0.352686	0.924773	0.274129
	C8378	C	0.098365	0.874002	0.345514
	C8379	C	0.349665	0.933800	0.270753
	C8380	C	0.424310	0.922719	0.327925
	C8381	C	0.169918	0.987739	0.276139
	C8382	C	0.418677	0.934027	0.218760
	C8383	C	0.172548	0.868858	0.271457
	C8384	C	0.419266	0.872160	0.340932
	C8385	C	0.169902	0.932724	0.265096
	C8386	C	0.419539	0.989530	0.221061
	C8387	C	0.172940	0.923686	0.268440
	C8388	C	0.098642	0.935140	0.213876
	C8389	C	0.352350	0.870269	0.265401
	C8390	C	0.103880	0.924086	0.321865
	C8391	C	0.350081	0.988874	0.271164
	C8392	C	0.011207	0.985303	0.224408
	C8393	C	0.264528	0.919602	0.272935
	C8394	C	0.008783	0.876743	0.336158
	C8395	C	0.258099	0.937891	0.266233
	C8396	C	0.014995	0.918979	0.321762
	C8397	C	0.260878	0.983794	0.270961
	C8398	C	0.007596	0.939109	0.218867
	C8399	C	0.261430	0.873968	0.271519
	C8400	C	0.012776	0.975584	0.228289
	C8401	C	0.266668	0.909993	0.278185
	C8402	C	0.009190	0.884463	0.321338
	C8403	C	0.256051	0.947518	0.261159
	C8404	C	0.016483	0.909807	0.314424
	C8405	C	0.261999	0.974545	0.263767
	C8406	C	0.006413	0.948428	0.225645
	C8407	C	0.260246	0.883115	0.279028
	H8408	H	0.170927	0.987226	0.228771
	H8409	H	0.423638	0.921720	0.277806
	H8410	H	0.167913	0.877543	0.342030
	H8411	H	0.418195	0.937727	0.271754
	H8412	H	0.355689	0.918772	0.328035
	H8413	H	0.100507	0.983888	0.276191
	H8414	H	0.347873	0.936952	0.222749
	H8415	H	0.102298	0.871637	0.276409
	H8416	H	0.349978	0.874154	0.333586
	H8417	H	0.098963	0.935792	0.261496
	H8418	H	0.350714	0.985668	0.219722
	H8419	H	0.104363	0.919752	0.267478
	H8420	H	0.168059	0.938983	0.213825
	H8421	H	0.421178	0.874198	0.265278
	H8422	H	0.174241	0.921292	0.317062
	H8423	H	0.420937	0.985952	0.267184
	O8424	O	0.598235	0.972085	0.231067
	O8425	O	0.851705	0.906653	0.281400
	O8426	O	0.594089	0.887973	0.316504
	O8427	O	0.840225	0.951633	0.260393
	O8428	O	0.932030	0.905827	0.312802
	O8429	O	0.677347	0.970631	0.261779
	O8430	O	0.921275	0.951745	0.229366
	O8431	O	0.674673	0.886336	0.283102
	O8432	O	0.924557	0.887118	0.314688
	O8433	O	0.670576	0.950993	0.258204
	O8434	O	0.928351	0.971508	0.228978
	O8435	O	0.682120	0.905854	0.279053
	O8436	O	0.591230	0.952370	0.227535
	O8437	O	0.844269	0.887096	0.280693
	O8438	O	0.601798	0.906624	0.310433
	O8439	O	0.847176	0.971305	0.259997
	F8440	F	0.513387	0.896303	0.283828
	F8441	F	0.759827	0.961894	0.231497
	F8442	F	0.509105	0.961159	0.257714
	F8443	F	0.763194	0.896642	0.309720
	Al8444	Al	0.638262	0.896483	0.296702
	Al8445	Al	0.884750	0.961532	0.244625
	Al8446	Al	0.634363	0.961521	0.244539
	Al8447	Al	0.888343	0.896466	0.296613
	C8448	C	0.599778	0.990398	0.226180
	C8449	C	0.852130	0.924779	0.274043
	C8450	C	0.598500	0.874040	0.345545
	C8451	C	0.849303	0.933812	0.270779
	C8452	C	0.924097	0.922701	0.327795
	C8453	C	0.669782	0.987728	0.276234
	C8454	C	0.918481	0.934009	0.218806
	C8455	C	0.672226	0.868866	0.271492
	C8456	C	0.919099	0.872123	0.340844
	C8457	C	0.669517	0.932776	0.265109
	C8458	C	0.919420	0.989529	0.220965
	C8459	C	0.672367	0.923732	0.268350
	C8460	C	0.598928	0.935179	0.213869
	C8461	C	0.851839	0.870290	0.265352
	C8462	C	0.604001	0.924136	0.321780
	C8463	C	0.849863	0.988909	0.271121
	C8464	C	0.511185	0.985308	0.224595
	C8465	C	0.763800	0.919624	0.272869
	C8466	C	0.508868	0.876785	0.336226
	C8467	C	0.757760	0.937923	0.266366
	C8468	C	0.515148	0.919009	0.321801
	C8469	C	0.760805	0.983815	0.270980
	C8470	C	0.507776	0.939122	0.218889
	C8471	C	0.761008	0.873985	0.271490
	C8472	C	0.512915	0.975592	0.228452
	C8473	C	0.766024	0.910009	0.278099
	C8474	C	0.509286	0.884488	0.321351
	C8475	C	0.755885	0.947555	0.261345
	C8476	C	0.516555	0.909830	0.314471
	C8477	C	0.761896	0.974573	0.263779
	C8478	C	0.506651	0.948421	0.225697
	C8479	C	0.759799	0.883141	0.278963
	H8480	H	0.671000	0.987237	0.229008
	H8481	H	0.923024	0.921699	0.277662
	H8482	H	0.668021	0.877579	0.342039
	H8483	H	0.918004	0.937718	0.271767
	H8484	H	0.855200	0.918785	0.327863
	H8485	H	0.600505	0.983864	0.276348
	H8486	H	0.847741	0.936938	0.222829
	H8487	H	0.601981	0.871636	0.276450
	H8488	H	0.849789	0.874119	0.333502
	H8489	H	0.598635	0.935859	0.261501
	H8490	H	0.850558	0.985661	0.219686
	H8491	H	0.603824	0.919805	0.267310
	H8492	H	0.668286	0.939036	0.213829
	H8493	H	0.920616	0.874214	0.265186
	H8494	H	0.674315	0.921350	0.316896
	H8495	H	0.920735	0.986000	0.267077
	O8496	O	0.102366	0.969121	0.343930
	O8497	O	0.342800	0.914680	0.448835
	O8498	O	0.085662	0.898203	0.490246
	O8499	O	0.344346	0.950407	0.378912
	O8500	O	0.423306	0.915785	0.483029
	O8501	O	0.182226	0.968319	0.375357
	O8502	O	0.425017	0.948846	0.345632
	O8503	O	0.166233	0.895512	0.456830
	O8504	O	0.416497	0.897325	0.488384
	O8505	O	0.174986	0.949651	0.377283
	O8506	O	0.432509	0.968379	0.341685
	O8507	O	0.173288	0.913901	0.447300
	O8508	O	0.094869	0.949549	0.343322
	O8509	O	0.335707	0.896294	0.454142
	O8510	O	0.093040	0.916545	0.480506
	O8511	O	0.351826	0.969117	0.372859
	F8512	F	0.004761	0.905276	0.455992
	F8513	F	0.263546	0.958784	0.346311
	F8514	F	0.012967	0.959131	0.372201
	F8515	F	0.254581	0.906769	0.481308
	Al8516	Al	0.129626	0.906017	0.468710
	Al8517	Al	0.388501	0.958972	0.359231
	Al8518	Al	0.138488	0.958955	0.359210
	Al8519	Al	0.379618	0.906033	0.468651
	C8520	C	0.102539	0.987277	0.336682
	C8521	C	0.348427	0.929323	0.421729
	C8522	C	0.089536	0.884522	0.520122
	C8523	C	0.348557	0.936462	0.407839
	C8524	C	0.415792	0.932240	0.499537
	C8525	C	0.174283	0.985199	0.390341
	C8526	C	0.422315	0.931374	0.334031
	C8527	C	0.163929	0.878235	0.444113
	C8528	C	0.410995	0.882683	0.515464
	C8529	C	0.169358	0.934710	0.403575
	C8530	C	0.422924	0.986211	0.330955
	C8531	C	0.169208	0.927569	0.417469
	C8532	C	0.102156	0.932745	0.327940
	C8533	C	0.343539	0.879794	0.437841
	C8534	C	0.095490	0.933804	0.493344
	C8535	C	0.353983	0.986606	0.384322
	C8536	C	0.014381	0.982104	0.335419
	C8537	C	0.258702	0.924806	0.426736
	C8538	C	0.000032	0.887234	0.510646
	C8539	C	0.259028	0.939261	0.398677
	C8540	C	0.006722	0.928720	0.492901
	C8541	C	0.265125	0.981493	0.384256
	C8542	C	0.011278	0.936468	0.333943
	C8543	C	0.252711	0.883314	0.444537
	C8544	C	0.016857	0.972488	0.340615
	C8545	C	0.258221	0.917265	0.442091
	C8546	C	0.000824	0.894781	0.495273
	C8547	C	0.259433	0.946976	0.383841
	C8548	C	0.008079	0.919712	0.484816
	C8549	C	0.266589	0.972312	0.376931
	C8550	C	0.010483	0.945608	0.341493
	C8551	C	0.251224	0.892361	0.452449
	H8552	H	0.173494	0.984218	0.340375
	H8553	H	0.417627	0.927262	0.428894
	H8554	H	0.159101	0.888061	0.516627
	H8555	H	0.417936	0.939959	0.404171
	H8556	H	0.347365	0.928291	0.499285
	H8557	H	0.105593	0.981253	0.390454
	H8558	H	0.352285	0.934167	0.339035
	H8559	H	0.093985	0.880930	0.449427
	H8560	H	0.341632	0.884673	0.508157
	H8561	H	0.099970	0.936764	0.396390
	H8562	H	0.354389	0.982278	0.329940
	H8563	H	0.099707	0.924078	0.421105
	H8564	H	0.171025	0.936663	0.327900
	H8565	H	0.411959	0.883752	0.437993
	H8566	H	0.165491	0.931128	0.487976
	H8567	H	0.424213	0.983790	0.379519
	O8568	O	0.602264	0.969121	0.343896
	O8569	O	0.842462	0.914740	0.448867
	O8570	O	0.585936	0.898223	0.490178
	O8571	O	0.844335	0.950417	0.378868
	O8572	O	0.923535	0.915818	0.482977
	O8573	O	0.681993	0.968351	0.375288
	O8574	O	0.925245	0.948836	0.345594
	O8575	O	0.666179	0.895509	0.456916
	O8576	O	0.916353	0.897326	0.488362
	O8577	O	0.675004	0.949626	0.377053
	O8578	O	0.932666	0.968342	0.341542
	O8579	O	0.672996	0.913910	0.447302
	O8580	O	0.594697	0.949565	0.343377
	O8581	O	0.835684	0.896309	0.454150
	O8582	O	0.592855	0.916544	0.480546
	O8583	O	0.851619	0.969140	0.372845
	F8584	F	0.504704	0.905261	0.456036
	F8585	F	0.763614	0.958796	0.346293
	F8586	F	0.513223	0.959147	0.372278
	F8587	F	0.754726	0.906817	0.481296
	Al8588	Al	0.629649	0.906036	0.468716
	Al8589	Al	0.888771	0.958969	0.359196
	Al8590	Al	0.638478	0.958985	0.359184
	Al8591	Al	0.879779	0.906034	0.468579
	C8592	C	0.602614	0.987291	0.336655
	C8593	C	0.848136	0.929349	0.421733
	C8594	C	0.590309	0.884564	0.520075
	C8595	C	0.848529	0.936475	0.407789
	C8596	C	0.915830	0.932249	0.499525
	C8597	C	0.674186	0.985203	0.390420
	C8598	C	0.922381	0.931360	0.333914
	C8599	C	0.663741	0.878260	0.444091
	C8600	C	0.910245	0.882642	0.515455
	C8601	C	0.669128	0.934749	0.403533
	C8602	C	0.922847	0.986182	0.330844
	C8603	C	0.668796	0.927624	0.417488
	C8604	C	0.601984	0.932795	0.327856
	C8605	C	0.843320	0.879820	0.437835
	C8606	C	0.595356	0.933815	0.493298
	C8607	C	0.853777	0.986642	0.384231
	C8608	C	0.514419	0.982121	0.335451
	C8609	C	0.758248	0.924855	0.426776
	C8610	C	0.500709	0.887267	0.510620
	C8611	C	0.758919	0.939278	0.398616
	C8612	C	0.506656	0.928719	0.492905
	C8613	C	0.764986	0.981506	0.384265
	C8614	C	0.511113	0.936488	0.334008
	C8615	C	0.752492	0.883344	0.444494
	C8616	C	0.516629	0.972505	0.340675
	C8617	C	0.757806	0.917302	0.442108
	C8618	C	0.501057	0.894819	0.495307
	C8619	C	0.759361	0.946981	0.383747
	C8620	C	0.507850	0.919693	0.484866
	C8621	C	0.766368	0.972330	0.376932
	C8622	C	0.510132	0.945635	0.341554
	C8623	C	0.751178	0.892381	0.452472
	H8624	H	0.673537	0.984224	0.340324
	H8625	H	0.917401	0.927287	0.428917
	H8626	H	0.659807	0.888115	0.516585
	H8627	H	0.918115	0.939951	0.404120
	H8628	H	0.847235	0.928313	0.499235
	H8629	H	0.605486	0.981259	0.390572
	H8630	H	0.852263	0.934147	0.338877
	H8631	H	0.593759	0.880933	0.449436
	H8632	H	0.840923	0.884630	0.508089
	H8633	H	0.599829	0.936809	0.396340
	H8634	H	0.854426	0.982245	0.329750
	H8635	H	0.599313	0.924145	0.421162
	H8636	H	0.670806	0.936720	0.327710
	H8637	H	0.911844	0.883767	0.438025
	H8638	H	0.665201	0.931128	0.487901
	H8639	H	0.924025	0.983862	0.379326
	O8640	O	0.092746	0.977213	0.511488
	O8641	O	0.334114	0.924969	0.622825
	O8642	O	0.076549	0.906181	0.658254
	O8643	O	0.335842	0.960680	0.552675
	O8644	O	0.414159	0.924984	0.656661
	O8645	O	0.173283	0.978246	0.545761
	O8646	O	0.416138	0.958021	0.519363
	O8647	O	0.157011	0.905464	0.626974
	O8648	O	0.407016	0.905466	0.656028
	O8649	O	0.166403	0.959838	0.550991
	O8650	O	0.423484	0.976356	0.509774
	O8651	O	0.164897	0.924106	0.620863
	O8652	O	0.085952	0.958770	0.516855
	O8653	O	0.326708	0.906209	0.624658
	O8654	O	0.084237	0.925727	0.654295
	O8655	O	0.342805	0.979042	0.543041
	F8656	F	-0.004430	0.915447	0.627653
	F8657	F	0.254733	0.967794	0.518581
	F8658	F	0.004408	0.969267	0.543881
	F8659	F	0.245548	0.915749	0.653609
	Al8660	Al	0.120660	0.915581	0.640707
	Al8661	Al	0.379579	0.968526	0.531212
	Al8662	Al	0.129691	0.968526	0.531232
	Al8663	Al	0.370628	0.915600	0.640738
	C8664	C	0.098011	0.991880	0.484497
	C8665	C	0.339714	0.939953	0.596629
	C8666	C	0.085866	0.888359	0.668918
	C8667	C	0.339846	0.947089	0.582722
	C8668	C	0.406682	0.941787	0.671979
	C8669	C	0.165732	0.994759	0.562043
	C8670	C	0.413825	0.940732	0.506634
	C8671	C	0.154874	0.887948	0.615594
	C8672	C	0.406323	0.887322	0.663390
	C8673	C	0.160528	0.945160	0.577957
	C8674	C	0.419079	0.990005	0.479889
	C8675	C	0.160404	0.938024	0.591858
	C8676	C	0.093519	0.942294	0.500446
	C8677	C	0.334592	0.889373	0.609573
	C8678	C	0.086722	0.943188	0.666066
	C8679	C	0.345199	0.996302	0.555752
	C8680	C	0.008328	0.987268	0.489253
	C8681	C	0.250029	0.935320	0.601284
	C8682	C	-0.005671	0.892450	0.664508
	C8683	C	0.250305	0.949755	0.573180
	C8684	C	-0.001974	0.938055	0.666062
	C8685	C	0.256433	0.991215	0.555431
	C8686	C	0.002644	0.945818	0.507088
	C8687	C	0.243542	0.893077	0.615611
	C8688	C	0.008139	0.979737	0.504614
	C8689	C	0.249738	0.927604	0.616116
	C8690	C	-0.007628	0.902065	0.659235
	C8691	C	0.250941	0.957280	0.557808
	C8692	C	-0.000834	0.928929	0.658450
	C8693	C	0.257763	0.982178	0.547450
	C8694	C	0.001505	0.954849	0.515087
	C8695	C	0.242188	0.902251	0.622977
	H8696	H	0.167306	0.989916	0.491915
	H8697	H	0.408983	0.937968	0.604011
	H8698	H	0.154518	0.892283	0.669844
	H8699	H	0.409284	0.950654	0.579256
	H8700	H	0.337795	0.937870	0.672022
	H8701	H	0.097236	0.990823	0.561819
	H8702	H	0.343969	0.943412	0.511989
	H8703	H	0.084471	0.890712	0.620447
	H8704	H	0.335439	0.890385	0.659710
	H8705	H	0.091212	0.947120	0.570569
	H8706	H	0.349638	0.986451	0.483425
	H8707	H	0.090932	0.934453	0.595265
	H8708	H	0.162119	0.946230	0.500703
	H8709	H	0.403367	0.893306	0.609500
	H8710	H	0.156926	0.940419	0.661062
	H8711	H	0.414901	0.993593	0.550358
	O8712	O	0.592947	0.977205	0.511441
	O8713	O	0.833807	0.924967	0.622854
	O8714	O	0.576761	0.906198	0.658308
	O8715	O	0.835620	0.960685	0.552710
	O8716	O	0.914747	0.924981	0.656700
	O8717	O	0.673147	0.978261	0.545644
	O8718	O	0.916387	0.958003	0.519391
	O8719	O	0.657157	0.905442	0.626955
	O8720	O	0.906828	0.905466	0.656031
	O8721	O	0.666275	0.959788	0.550878
	O8722	O	0.923356	0.976308	0.509654
	O8723	O	0.664494	0.924137	0.620939
	O8724	O	0.585676	0.958771	0.516793
	O8725	O	0.826764	0.906218	0.624605
	O8726	O	0.583743	0.925709	0.654327
	O8727	O	0.842667	0.979050	0.542968
	F8728	F	0.495662	0.915420	0.627643
	F8729	F	0.754736	0.967718	0.518585
	F8730	F	0.504487	0.969288	0.543890
	F8731	F	0.745688	0.915779	0.653593
	Al8732	Al	0.620602	0.915583	0.640701
	Al8733	Al	0.879631	0.968511	0.531219
	Al8734	Al	0.629633	0.968508	0.531221
	Al8735	Al	0.870970	0.915601	0.640685
	C8736	C	0.598281	0.991902	0.484520
	C8737	C	0.839509	0.939932	0.596640
	C8738	C	0.586148	0.888393	0.669053
	C8739	C	0.839655	0.947055	0.582696
	C8740	C	0.907099	0.941746	0.672177
	C8741	C	0.665793	0.994737	0.562098
	C8742	C	0.913809	0.940738	0.506647
	C8743	C	0.654821	0.887958	0.615474
	C8744	C	0.906073	0.887277	0.663344
	C8745	C	0.660483	0.945116	0.577832
	C8746	C	0.918682	0.989971	0.479819
	C8747	C	0.660289	0.937990	0.591774
	C8748	C	0.593363	0.942307	0.500392
	C8749	C	0.834666	0.889356	0.609539
	C8750	C	0.586609	0.943174	0.666074
	C8751	C	0.845118	0.996302	0.555789
	C8752	C	0.508600	0.987295	0.489303
	C8753	C	0.749821	0.935299	0.601279
	C8754	C	0.494642	0.892477	0.664570
	C8755	C	0.750203	0.949725	0.573128
	C8756	C	0.497626	0.938065	0.665985
	C8757	C	0.756413	0.991218	0.555356
	C8758	C	0.502556	0.945820	0.507078
	C8759	C	0.743736	0.893066	0.615584
	C8760	C	0.508331	0.979754	0.504638
	C8761	C	0.749403	0.927601	0.616147
	C8762	C	0.492595	0.902084	0.659303
	C8763	C	0.750793	0.957253	0.557752
	C8764	C	0.498646	0.928929	0.658422
	C8765	C	0.757642	0.982192	0.547340
	C8766	C	0.501117	0.954858	0.515041
	C8767	C	0.742385	0.902248	0.622896
	H8768	H	0.667621	0.989917	0.491897
	H8769	H	0.908751	0.937951	0.604061
	H8770	H	0.654746	0.892319	0.670049
	H8771	H	0.909093	0.950618	0.579234
	H8772	H	0.838341	0.937809	0.672263
	H8773	H	0.597257	0.990798	0.561955
	H8774	H	0.843882	0.943413	0.512008
	H8775	H	0.584314	0.890736	0.620239
	H8776	H	0.835161	0.890340	0.659672
	H8777	H	0.591269	0.947051	0.570378
	H8778	H	0.849151	0.986428	0.483349
	H8779	H	0.590840	0.934410	0.595155
	H8780	H	0.661797	0.946257	0.500612
	H8781	H	0.903584	0.893270	0.609421
	H8782	H	0.656811	0.940368	0.661171
	H8783	H	0.915038	0.993628	0.550457
	O8784	O	0.083999	0.987418	0.685192
	O8785	O	0.338289	0.923615	0.742057
	O8786	O	0.080654	0.903035	0.770946
	O8787	O	0.326745	0.968682	0.720744
	O8788	O	0.417920	0.922146	0.772641
	O8789	O	0.164246	0.987482	0.719116
	O8790	O	0.407356	0.967936	0.689523
	O8791	O	0.161733	0.903317	0.739973
	O8792	O	0.410991	0.902455	0.768953
	O8793	O	0.157022	0.967944	0.718422
	O8794	O	0.414578	0.986643	0.683432
	O8795	O	0.168703	0.922945	0.739809
	O8796	O	0.076942	0.968682	0.687234
	O8797	O	0.331408	0.903968	0.738174
	O8798	O	0.087384	0.922789	0.770782
	O8799	O	0.333916	0.988187	0.716907
	F8800	F	-0.000329	0.913411	0.742282
	F8801	F	0.245992	0.977928	0.690133
	F8802	F	-0.004008	0.978265	0.716187
	F8803	F	0.249282	0.912649	0.768662
	Al8804	Al	0.124621	0.913021	0.755452
	Al8805	Al	0.370794	0.978083	0.703221
	Al8806	Al	0.120878	0.978098	0.703193
	Al8807	Al	0.374390	0.913041	0.755536
	C8808	C	0.089665	1.002358	0.658926
	C8809	C	0.339352	0.941821	0.734859
	C8810	C	0.089650	0.885000	0.778830
	C8811	C	0.336306	0.950858	0.731483
	C8812	C	0.410089	0.939388	0.786172
	C8813	C	0.156815	1.004304	0.734393
	C8814	C	0.404897	0.950447	0.678013
	C8815	C	0.158613	0.885714	0.728660
	C8816	C	0.409108	0.884139	0.773967
	C8817	C	0.156435	0.949805	0.725987
	C8818	C	0.410317	1.000545	0.654376
	C8819	C	0.159405	0.940782	0.729385
	C8820	C	0.084717	0.951840	0.672170
	C8821	C	0.338724	0.886834	0.723761
	C8822	C	0.090409	0.940519	0.781396
	C8823	C	0.336916	1.005641	0.728679
	C8824	C	-0.000132	0.997784	0.663728
	C8825	C	0.250874	0.936680	0.733866
	C8826	C	-0.002033	0.889228	0.775394
	C8827	C	0.244732	0.954957	0.727071
	C8828	C	0.001258	0.935421	0.781255
	C8829	C	0.247731	1.000571	0.728430
	C8830	C	-0.006229	0.955534	0.678226
	C8831	C	0.247810	0.890783	0.728933
	C8832	C	-0.000480	0.990064	0.678569
	C8833	C	0.252920	0.927045	0.738891
	C8834	C	-0.003739	0.898956	0.771603
	C8835	C	0.242582	0.964566	0.721768
	C8836	C	0.002257	0.926132	0.774360
	C8837	C	0.248807	0.991416	0.720932
	C8838	C	-0.007500	0.964717	0.685551
	C8839	C	0.246867	0.900029	0.736153
	H8840	H	0.159043	1.000323	0.666171
	H8841	H	0.410086	0.938710	0.738370
	H8842	H	0.158561	0.888860	0.780099
	H8843	H	0.404777	0.954798	0.732328
	H8844	H	0.340737	0.935530	0.786170
	H8845	H	0.087861	1.000399	0.734404
	H8846	H	0.334551	0.953246	0.682778
	H8847	H	0.087780	0.888658	0.732594
	H8848	H	0.338039	0.887321	0.771168
	H8849	H	0.085333	0.952851	0.722329
	H8850	H	0.340783	0.997001	0.657836
	H8851	H	0.090576	0.936881	0.728387
	H8852	H	0.153393	0.955783	0.672055
	H8853	H	0.408077	0.890688	0.723716
	H8854	H	0.161233	0.937583	0.777395
	H8855	H	0.407177	1.002817	0.723910
	O8856	O	0.583892	0.987441	0.685263
	O8857	O	0.837784	0.923590	0.741807
	O8858	O	0.580796	0.903000	0.770771
	O8859	O	0.825932	0.968690	0.720927
	O8860	O	0.917549	0.922186	0.772502
	O8861	O	0.664396	0.987485	0.719093
	O8862	O	0.907307	0.967929	0.689534
	O8863	O	0.661341	0.903336	0.739874
	O8864	O	0.910853	0.902477	0.768995
	O8865	O	0.656320	0.967915	0.718438
	O8866	O	0.914748	0.986602	0.683419
	O8867	O	0.668124	0.922948	0.739704
	O8868	O	0.576894	0.968721	0.687051
	O8869	O	0.831189	0.903921	0.738240
	O8870	O	0.587645	0.922819	0.770694
	O8871	O	0.834067	0.988216	0.716872
	F8872	F	0.499446	0.913429	0.742308
	F8873	F	0.745976	0.977917	0.690190
	F8874	F	0.495637	0.978278	0.716097
	F8875	F	0.749308	0.912659	0.768531
	Al8876	Al	0.624358	0.913033	0.755412
	Al8877	Al	0.870910	0.978067	0.703281
	Al8878	Al	0.620591	0.978083	0.703190
	Al8879	Al	0.874738	0.913036	0.755453
	C8880	C	0.589661	1.002386	0.659029
	C8881	C	0.838621	0.941817	0.734891
	C8882	C	0.589433	0.884987	0.778931
	C8883	C	0.835456	0.950855	0.731589
	C8884	C	0.910099	0.939385	0.786222
	C8885	C	0.656896	1.004274	0.734514
	C8886	C	0.905042	0.950397	0.678228
	C8887	C	0.657969	0.885707	0.728733
	C8888	C	0.909188	0.884143	0.773943
	C8889	C	0.655695	0.949775	0.725887
	C8890	C	0.910199	1.000536	0.654401
	C8891	C	0.658826	0.940750	0.729222
	C8892	C	0.584801	0.951833	0.672147
	C8893	C	0.838195	0.886846	0.723809
	C8894	C	0.590375	0.940524	0.781283
	C8895	C	0.836735	1.005643	0.728669
	C8896	C	0.499880	0.997809	0.663753
	C8897	C	0.750375	0.936660	0.733685
	C8898	C	0.497838	0.889217	0.775434
	C8899	C	0.743973	0.954941	0.727060
	C8900	C	0.501243	0.935419	0.781215
	C8901	C	0.747736	1.000557	0.728494
	C8902	C	0.493864	0.955550	0.678132
	C8903	C	0.747239	0.890782	0.728939
	C8904	C	0.499527	0.990089	0.678569
	C8905	C	0.752425	0.927028	0.738709
	C8906	C	0.496315	0.898931	0.771488
	C8907	C	0.741894	0.964550	0.721811
	C8908	C	0.502420	0.926116	0.774416
	C8909	C	0.748901	0.991416	0.720966
	C8910	C	0.492543	0.964738	0.685420
	C8911	C	0.746463	0.900029	0.736113
	H8912	H	0.658893	1.000360	0.666334
	H8913	H	0.909517	0.938719	0.738508
	H8914	H	0.658420	0.888830	0.780198
	H8915	H	0.903850	0.954812	0.732586
	H8916	H	0.840614	0.935543	0.786202
	H8917	H	0.588063	1.000357	0.734571
	H8918	H	0.834734	0.953174	0.683068
	H8919	H	0.587261	0.888657	0.732719
	H8920	H	0.838026	0.887325	0.771251
	H8921	H	0.584736	0.952820	0.722216
	H8922	H	0.840688	0.996996	0.657914
	H8923	H	0.590138	0.936849	0.728183
	H8924	H	0.653673	0.955753	0.672097
	H8925	H	0.907522	0.890710	0.723772
	H8926	H	0.661199	0.937587	0.777267
	H8927	H	0.906955	1.002830	0.723864
	O8928	O	0.088261	0.986039	0.804332
	O8929	O	0.340992	0.920091	0.848648
	O8930	O	0.083676	0.899460	0.877258
	O8931	O	0.330795	0.965514	0.833476
	O8932	O	0.420620	0.918626	0.879218
	O8933	O	0.167800	0.984717	0.834940
	O8934	O	0.411694	0.965814	0.802473
	O8935	O	0.164136	0.899799	0.846403
	O8936	O	0.413686	0.898914	0.875306
	O8937	O	0.161053	0.964956	0.831546
	O8938	O	0.418555	0.985417	0.802301
	O8939	O	0.171294	0.919526	0.846698
	O8940	O	0.081464	0.966434	0.800795
	O8941	O	0.333924	0.900412	0.844824
	O8942	O	0.090199	0.919210	0.877508
	O8943	O	0.337639	0.985332	0.833152
	F8944	F	0.002498	0.909928	0.848774
	F8945	F	0.249770	0.975869	0.804860
	F8946	F	-0.000580	0.975145	0.831222
	F8947	F	0.252109	0.909090	0.875192
	Al8948	Al	0.127259	0.909501	0.862002
	Al8949	Al	0.374466	0.975509	0.817979
	Al8950	Al	0.124639	0.975518	0.818006
	Al8951	Al	0.377080	0.909518	0.862004
	C8952	C	0.089371	1.004299	0.797358
	C8953	C	0.342868	0.938383	0.843333
	C8954	C	0.092225	0.881465	0.885465
	C8955	C	0.339833	0.947475	0.841411
	C8956	C	0.413168	0.935812	0.892959
	C8957	C	0.160167	1.001895	0.848647
	C8958	C	0.408362	0.948189	0.791229
	C8959	C	0.161093	0.882136	0.835434
	C8960	C	0.412057	0.880643	0.880669
	C8961	C	0.159577	0.946627	0.836437
	C8962	C	0.409474	1.003224	0.791804
	C8963	C	0.162512	0.937538	0.838366
	C8964	C	0.088830	0.949322	0.786507
	C8965	C	0.341630	0.883220	0.830994
	C8966	C	0.093455	0.936859	0.888667
	C8967	C	0.340606	1.003020	0.843815
	C8968	C	0.001102	0.999136	0.796279
	C8969	C	0.254146	0.933303	0.841914
	C8970	C	0.000586	0.885701	0.882083
	C8971	C	0.248150	0.951709	0.837962
	C8972	C	0.004147	0.931792	0.888281
	C8973	C	0.251422	0.997949	0.843655
	C8974	C	-0.002217	0.953264	0.791558
	C8975	C	0.250374	0.887201	0.835785
	C8976	C	0.003030	0.989502	0.801325
	C8977	C	0.255747	0.923597	0.845961
	C8978	C	-0.000960	0.895423	0.878079
	C8979	C	0.246368	0.961438	0.834128
	C8980	C	0.005104	0.922511	0.881251
	C8981	C	0.252485	0.988654	0.836800
	C8982	C	-0.003142	0.962513	0.798742
	C8983	C	0.249355	0.896482	0.842782
	H8984	H	0.160349	1.001222	0.800901
	H8985	H	0.413988	0.935193	0.846092
	H8986	H	0.161238	0.885316	0.886619
	H8987	H	0.408673	0.951344	0.842689
	H8988	H	0.343717	0.931973	0.892879
	H8989	H	0.090751	0.998042	0.848659
	H8990	H	0.337597	0.951141	0.795140
	H8991	H	0.090105	0.885094	0.839201
	H8992	H	0.341047	0.883845	0.877949
	H8993	H	0.088342	0.949794	0.833672
	H8994	H	0.340934	0.999294	0.790863
	H8995	H	0.093579	0.933672	0.837083
	H8996	H	0.158220	0.953171	0.786522
	H8997	H	0.411120	0.887058	0.831119
	H8998	H	0.164461	0.933886	0.884934
	H8999	H	0.411475	1.000090	0.839856
	O9000	O	0.588256	0.986059	0.804414
	O9001	O	0.840618	0.920125	0.848508
	O9002	O	0.583395	0.899512	0.877370
	O9003	O	0.830580	0.965452	0.833317
	O9004	O	0.920503	0.918567	0.879314
	O9005	O	0.667405	0.984653	0.835122
	O9006	O	0.911632	0.965823	0.802476
	O9007	O	0.663809	0.899834	0.846393
	O9008	O	0.913846	0.898961	0.875468
	O9009	O	0.660765	0.964972	0.831568
	O9010	O	0.918619	0.985427	0.802307
	O9011	O	0.670820	0.919519	0.846550
	O9012	O	0.581498	0.966420	0.800772
	O9013	O	0.833600	0.900378	0.844844
	O9014	O	0.590486	0.919218	0.877552
	O9015	O	0.837181	0.985321	0.833354
	F9016	F	0.502089	0.909953	0.848865
	F9017	F	0.749774	0.975908	0.804936
	F9018	F	0.499306	0.975153	0.831152
	F9019	F	0.752037	0.909121	0.875033
	Al9020	Al	0.627068	0.909526	0.861970
	Al9021	Al	0.874787	0.975506	0.818080
	Al9022	Al	0.624611	0.975522	0.818030
	Al9023	Al	0.877497	0.909522	0.861920
	C9024	C	0.589372	1.004281	0.797284
	C9025	C	0.842047	0.938398	0.843461
	C9026	C	0.592494	0.881481	0.885422
	C9027	C	0.839135	0.947487	0.841546
	C9028	C	0.912914	0.935801	0.893033
	C9029	C	0.659368	1.001884	0.848711
	C9030	C	0.908529	0.948183	0.791313
	C9031	C	0.660636	0.882132	0.835445
	C9032	C	0.911844	0.880622	0.880640
	C9033	C	0.658750	0.946632	0.836547
	C9034	C	0.909485	1.003232	0.791867
	C9035	C	0.661660	0.937544	0.838456
	C9036	C	0.588634	0.949323	0.786383
	C9037	C	0.840903	0.883212	0.830902
	C9038	C	0.593614	0.936914	0.888467
	C9039	C	0.839740	1.003024	0.843811
	C9040	C	0.500980	0.999131	0.796262
	C9041	C	0.753305	0.933323	0.841983
	C9042	C	0.500889	0.885716	0.882004
	C9043	C	0.747409	0.951713	0.838075
	C9044	C	0.504417	0.931835	0.888171
	C9045	C	0.750600	0.997938	0.843709
	C9046	C	0.497619	0.953261	0.791512
	C9047	C	0.749743	0.887208	0.835728
	C9048	C	0.502888	0.989502	0.801349
	C9049	C	0.755150	0.923610	0.845897
	C9050	C	0.499072	0.895424	0.877986
	C9051	C	0.745903	0.961422	0.834100
	C9052	C	0.505369	0.922539	0.881226
	C9053	C	0.751873	0.988624	0.836958
	C9054	C	0.496811	0.962512	0.798700
	C9055	C	0.748834	0.896486	0.842761
	H9056	H	0.660391	1.001202	0.800793
	H9057	H	0.913180	0.935216	0.846215
	H9058	H	0.661522	0.885339	0.886555
	H9059	H	0.908047	0.951351	0.842805
	H9060	H	0.843362	0.931975	0.892889
	H9061	H	0.590048	0.998022	0.848800
	H9062	H	0.837736	0.951128	0.795270
	H9063	H	0.589637	0.885075	0.839217
	H9064	H	0.840842	0.883817	0.877877
	H9065	H	0.587624	0.949819	0.833713
	H9066	H	0.840945	0.999303	0.790932
	H9067	H	0.592838	0.933678	0.837126
	H9068	H	0.658010	0.953179	0.786341
	H9069	H	0.910440	0.887037	0.831003
	H9070	H	0.664622	0.933949	0.884720
	H9071	H	0.910644	1.000087	0.839875
	O9072	O	0.090866	0.982596	0.910904
	O9073	O	0.343520	0.916630	0.955373
	O9074	O	0.085710	0.896002	0.984066
	O9075	O	0.333517	0.961993	0.939684
	O9076	O	0.422801	0.915149	0.986068
	O9077	O	0.170287	0.981148	0.941537
	O9078	O	0.414418	0.962317	0.908841
	O9079	O	0.166704	0.896346	0.953207
	O9080	O	0.415892	0.895475	0.982342
	O9081	O	0.163758	0.961474	0.937861
	O9082	O	0.420944	0.982051	0.909041
	O9083	O	0.173830	0.916041	0.953433
	O9084	O	0.084057	0.962910	0.907193
	O9085	O	0.336566	0.896894	0.951799
	O9086	O	0.092237	0.915754	0.984281
	O9087	O	0.340064	0.981744	0.939919
	F9088	F	0.005018	0.906459	0.955580
	F9089	F	0.252404	0.972449	0.911213
	F9090	F	0.002386	0.971614	0.937593
	F9091	F	0.254307	0.905655	0.982017
	Al9092	Al	0.129790	0.906040	0.968761
	Al9093	Al	0.377223	0.972031	0.924382
	Al9094	Al	0.127314	0.972029	0.924368
	Al9095	Al	0.379574	0.906051	0.968881
	C9096	C	0.092290	1.000882	0.905773
	C9097	C	0.345171	0.934924	0.950082
	C9098	C	0.094242	0.877985	0.992275
	C9099	C	0.342279	0.944002	0.948050
	C9100	C	0.415096	0.932362	0.999709
	C9101	C	0.162901	0.998333	0.955397
	C9102	C	0.411423	0.944627	0.897902
	C9103	C	0.163350	0.878682	0.942170
	C9104	C	0.414204	0.877162	0.987374
	C9105	C	0.161869	0.943154	0.943206
	C9106	C	0.411923	1.000051	0.900868
	C9107	C	0.164786	0.934057	0.945233
	C9108	C	0.091674	0.945675	0.893626
	C9109	C	0.343939	0.879756	0.937719
	C9110	C	0.095175	0.933428	0.995301
	C9111	C	0.343276	0.999420	0.950898
	C9112	C	0.003556	0.995803	0.904342
	C9113	C	0.256522	0.929832	0.948712
	C9114	C	0.002671	0.882222	0.988776
	C9115	C	0.250522	0.948236	0.944593
	C9116	C	0.006034	0.928347	0.994984
	C9117	C	0.254055	0.994344	0.950592
	C9118	C	0.000490	0.949679	0.898335
	C9119	C	0.252724	0.883731	0.942563
	C9120	C	0.005497	0.986091	0.908309
	C9121	C	0.258197	0.920128	0.952729
	C9122	C	0.001301	0.891941	0.984799
	C9123	C	0.248950	0.957943	0.940488
	C9124	C	0.007162	0.919066	0.988007
	C9125	C	0.254947	0.985060	0.943607
	C9126	C	-0.000567	0.958983	0.905246
	C9127	C	0.251808	0.893006	0.949611
	H9128	H	0.163410	0.997694	0.908524
	H9129	H	0.416392	0.931767	0.952836
	H9130	H	0.163247	0.881840	0.993514
	H9131	H	0.411147	0.947855	0.949237
	H9132	H	0.345580	0.928533	0.999579
	H9133	H	0.093357	0.994507	0.955322
	H9134	H	0.340466	0.947588	0.901635
	H9135	H	0.092408	0.881657	0.945915
	H9136	H	0.343059	0.880336	0.984585
	H9137	H	0.090722	0.946342	0.940399
	H9138	H	0.343065	0.996183	0.899637
	H9139	H	0.095912	0.930174	0.944017
	H9140	H	0.161209	0.949504	0.893738
	H9141	H	0.413415	0.883596	0.937808
	H9142	H	0.166194	0.930474	0.991530
	H9143	H	0.414219	0.996468	0.947101
	O9144	O	0.590751	0.982600	0.910975
	O9145	O	0.843183	0.916652	0.955386
	O9146	O	0.585724	0.896026	0.984131
	O9147	O	0.833075	0.962008	0.939939
	O9148	O	0.922433	0.915127	0.986094
	O9149	O	0.670017	0.981147	0.941587
	O9150	O	0.914261	0.962311	0.908901
	O9151	O	0.666220	0.896324	0.953227
	O9152	O	0.915916	0.895469	0.982141
	O9153	O	0.663385	0.961441	0.937852
	O9154	O	0.921104	0.982002	0.909007
	O9155	O	0.673531	0.916033	0.953292
	O9156	O	0.584180	0.962932	0.907186
	O9157	O	0.836005	0.896941	0.951538
	O9158	O	0.592527	0.915777	0.984232
	O9159	O	0.839818	0.981737	0.940008
	F9160	F	0.504670	0.906433	0.955656
	F9161	F	0.752681	0.972406	0.911358
	F9162	F	0.501858	0.971626	0.937522
	F9163	F	0.754448	0.905640	0.981838
	Al9164	Al	0.629523	0.906038	0.968760
	Al9165	Al	0.877467	0.972001	0.924524
	Al9166	Al	0.627191	0.972008	0.924410
	Al9167	Al	0.879872	0.906044	0.968748
	C9168	C	0.592241	1.000906	0.905890
	C9169	C	0.844694	0.934911	0.949939
	C9170	C	0.594424	0.878007	0.992321
	C9171	C	0.841874	0.943988	0.947968
	C9172	C	0.914732	0.932331	0.999746
	C9173	C	0.662565	0.998313	0.955545
	C9174	C	0.911161	0.944612	0.897978
	C9175	C	0.663071	0.878673	0.942222
	C9176	C	0.913833	0.877143	0.987424
	C9177	C	0.661339	0.943157	0.943176
	C9178	C	0.911864	1.000044	0.900895
	C9179	C	0.664195	0.934057	0.945155
	C9180	C	0.591782	0.945730	0.893405
	C9181	C	0.843647	0.879756	0.937751
	C9182	C	0.595604	0.933431	0.995348
	C9183	C	0.842943	0.999408	0.950992
	C9184	C	0.503611	0.995821	0.904313
	C9185	C	0.755970	0.929832	0.948587
	C9186	C	0.502880	0.882248	0.988836
	C9187	C	0.750143	0.948223	0.944513
	C9188	C	0.506322	0.928367	0.994978
	C9189	C	0.753713	0.994339	0.950637
	C9190	C	0.500603	0.949706	0.898251
	C9191	C	0.752406	0.883732	0.942562
	C9192	C	0.505431	0.986115	0.908319
	C9193	C	0.757814	0.920129	0.952644
	C9194	C	0.501248	0.891959	0.984867
	C9195	C	0.748650	0.957932	0.940521
	C9196	C	0.507415	0.919078	0.988030
	C9197	C	0.754693	0.985058	0.943654
	C9198	C	0.499595	0.958999	0.905178
	C9199	C	0.751385	0.893014	0.949543
	H9200	H	0.663237	0.997710	0.908724
	H9201	H	0.915881	0.931748	0.952664
	H9202	H	0.663414	0.881859	0.993539
	H9203	H	0.910772	0.947834	0.949162
	H9204	H	0.845220	0.928495	0.999619
	H9205	H	0.593054	0.994470	0.955533
	H9206	H	0.840202	0.947590	0.901656
	H9207	H	0.592120	0.881634	0.945974
	H9208	H	0.842725	0.880332	0.984706
	H9209	H	0.590237	0.946351	0.940458
	H9210	H	0.842925	0.996179	0.899662
	H9211	H	0.595242	0.930175	0.943999
	H9212	H	0.661187	0.949575	0.893446
	H9213	H	0.913120	0.883595	0.937823
	H9214	H	0.666576	0.930464	0.991631
	H9215	H	0.913986	0.996448	0.947270
