data_Molecule from HDF5

_cell_length_a		13.347911
_cell_length_b		146.607566
_cell_length_c		75.321130
_cell_angle_alpha	92.879601
_cell_angle_beta	89.861033
_cell_angle_gamma	89.387499
_symmetry_space_group_name_H-M	'P 1'
_symmetry_Int_Tables_number		1

loop_
	_symmetry_equiv_pos_as_xyz
	x,y,z

loop_
	_atom_site_label
	_atom_site_type_symbol
	_atom_site_fract_x
	_atom_site_fract_y
	_atom_site_fract_z
	O0	O	0.082381	0.095059	0.050879
	O1	O	0.332737	0.032627	0.113571
	O2	O	0.086276	0.014120	0.143748
	O3	O	0.336134	0.076598	0.081190
	O4	O	0.412736	0.034972	0.139681
	O5	O	0.162015	0.097477	0.076963
	O6	O	0.417669	0.075215	0.054764
	O7	O	0.167738	0.012705	0.117320
	O8	O	0.417242	0.014543	0.144617
	O9	O	0.166737	0.077013	0.082045
	O10	O	0.413101	0.095566	0.051983
	O11	O	0.163312	0.033057	0.114473
	O12	O	0.087055	0.074781	0.055957
	O13	O	0.337032	0.012289	0.118656
	O14	O	0.082399	0.034618	0.140904
	O15	O	0.331480	0.097057	0.078488
	F16	F	0.000528	0.022754	0.117948
	F17	F	0.250013	0.085255	0.055399
	F18	F	-0.000055	0.086967	0.077866
	F19	F	0.249808	0.024486	0.140433
	Al20	Al	0.125016	0.023629	0.129247
	Al21	Al	0.374711	0.086117	0.066691
	Al22	Al	0.124808	0.086088	0.066589
	Al23	Al	0.374837	0.023628	0.129207
	C24	C	0.089275	0.112387	0.036457
	C25	C	0.339160	0.049876	0.099003
	C26	C	0.089909	-0.003724	0.155791
	C27	C	0.340079	0.058754	0.093263
	C28	C	0.410894	0.054087	0.140963
	C29	C	0.160420	0.116602	0.078493
	C30	C	0.408178	0.056288	0.049734
	C31	C	0.158080	-0.006191	0.112189
	C32	C	0.410525	-0.002841	0.158716
	C33	C	0.159864	0.059645	0.096088
	C34	C	0.409160	0.113304	0.039426
	C35	C	0.158920	0.050760	0.101804
	C36	C	0.087812	0.055635	0.053350
	C37	C	0.338082	-0.006870	0.116034
	C38	C	0.091122	0.053618	0.144241
	C39	C	0.340751	0.116078	0.081969
	C40	C	-0.001397	0.108251	0.040892
	C41	C	0.248534	0.045750	0.103416
	C42	C	0.000448	0.001342	0.154384
	C43	C	0.250601	0.063793	0.091784
	C44	C	-0.000362	0.048994	0.142644
	C45	C	0.249181	0.111487	0.080257
	C46	C	-0.000539	0.060833	0.051889
	C47	C	0.249769	-0.001662	0.114501
	C48	C	-0.002072	0.098934	0.048382
	C49	C	0.248170	0.036463	0.110969
	C50	C	0.001221	0.010713	0.147158
	C51	C	0.251273	0.073147	0.084510
	C52	C	-0.001898	0.038784	0.141031
	C53	C	0.247335	0.101256	0.078537
	C54	C	0.001722	0.071025	0.054269
	C55	C	0.251875	0.008517	0.116925
	H56	H	0.159016	0.108570	0.037410
	H57	H	0.408962	0.046080	0.100047
	H58	H	0.160670	-0.000669	0.152394
	H59	H	0.410757	0.061808	0.089875
	H60	H	0.339824	0.050609	0.139635
	H61	H	0.089391	0.113123	0.077075
	H62	H	0.339458	0.060221	0.048512
	H63	H	0.089357	-0.002249	0.110958
	H64	H	0.340726	0.000954	0.157720
	H65	H	0.090089	0.063425	0.095023
	H66	H	0.338478	0.110254	0.042856
	H67	H	0.088296	0.047685	0.105143
	H68	H	0.159053	0.059041	0.055137
	H69	H	0.409195	-0.003456	0.117941
	H70	H	0.160283	0.049753	0.145556
	H71	H	0.409771	0.112200	0.083386
	O72	O	0.582485	0.095094	0.051011
	O73	O	0.832384	0.032621	0.113504
	O74	O	0.586592	0.014096	0.143620
	O75	O	0.836091	0.076557	0.081175
	O76	O	0.912858	0.034969	0.139640
	O77	O	0.661992	0.097474	0.077033
	O78	O	0.917676	0.075243	0.054623
	O79	O	0.667641	0.012745	0.117063
	O80	O	0.916869	0.014631	0.144790
	O81	O	0.666644	0.077049	0.082165
	O82	O	0.912971	0.095560	0.051943
	O83	O	0.662993	0.033052	0.114390
	O84	O	0.587076	0.074760	0.056155
	O85	O	0.836834	0.012246	0.118671
	O86	O	0.582193	0.034589	0.140902
	O87	O	0.831503	0.097065	0.078579
	F88	F	0.499794	0.022797	0.117944
	F89	F	0.750054	0.085263	0.055514
	F90	F	0.499463	0.086968	0.077878
	F91	F	0.749671	0.024492	0.140278
	Al92	Al	0.624905	0.023619	0.129097
	Al93	Al	0.875120	0.086126	0.066712
	Al94	Al	0.624747	0.086110	0.066675
	Al95	Al	0.875305	0.023618	0.129136
	C96	C	0.589355	0.112356	0.036429
	C97	C	0.838971	0.049882	0.098984
	C98	C	0.590580	-0.003759	0.155762
	C99	C	0.839933	0.058765	0.093268
	C100	C	0.910630	0.054103	0.141061
	C101	C	0.660231	0.116573	0.078381
	C102	C	0.907673	0.056300	0.049629
	C103	C	0.657613	-0.006198	0.112000
	C104	C	0.909704	-0.002816	0.158764
	C105	C	0.659763	0.059686	0.096218
	C106	C	0.909071	0.113307	0.039451
	C107	C	0.658786	0.050797	0.101904
	C108	C	0.588247	0.055632	0.053482
	C109	C	0.837533	-0.006875	0.116007
	C110	C	0.591228	0.053604	0.144219
	C111	C	0.840697	0.116069	0.081852
	C112	C	0.498648	0.108252	0.040920
	C113	C	0.748357	0.045766	0.103427
	C114	C	0.501161	0.001324	0.154364
	C115	C	0.750419	0.063814	0.091861
	C116	C	0.499708	0.048979	0.142689
	C117	C	0.749123	0.111478	0.080131
	C118	C	0.499750	0.060825	0.052064
	C119	C	0.749272	-0.001665	0.114394
	C120	C	0.498021	0.098955	0.048453
	C121	C	0.747852	0.036462	0.110917
	C122	C	0.501751	0.010673	0.147083
	C123	C	0.751074	0.073159	0.084593
	C124	C	0.497973	0.038769	0.141058
	C125	C	0.747303	0.101253	0.078537
	C126	C	0.501773	0.071010	0.054463
	C127	C	0.751527	0.008514	0.116834
	H128	H	0.659096	0.108537	0.037403
	H129	H	0.908747	0.046074	0.099958
	H130	H	0.661303	-0.000720	0.152321
	H131	H	0.910536	0.061816	0.089844
	H132	H	0.839543	0.050617	0.139794
	H133	H	0.589128	0.113093	0.077018
	H134	H	0.838946	0.060239	0.048394
	H135	H	0.588924	-0.002256	0.110688
	H136	H	0.839783	0.000980	0.157819
	H137	H	0.590038	0.063479	0.095215
	H138	H	0.838438	0.110244	0.042852
	H139	H	0.588184	0.047725	0.105276
	H140	H	0.659455	0.059042	0.055302
	H141	H	0.908662	-0.003471	0.117973
	H142	H	0.660439	0.049749	0.145515
	H143	H	0.909701	0.112193	0.083278
	O144	O	0.087043	0.102570	0.140663
	O145	O	0.337958	0.040071	0.203256
	O146	O	0.091187	0.021619	0.233465
	O147	O	0.340988	0.084061	0.170856
	O148	O	0.417689	0.042386	0.229316
	O149	O	0.167321	0.104901	0.166603
	O150	O	0.422206	0.082568	0.144451
	O151	O	0.172644	0.020094	0.206959
	O152	O	0.422110	0.022032	0.234416
	O153	O	0.171624	0.084493	0.171737
	O154	O	0.417872	0.102987	0.141491
	O155	O	0.168567	0.040484	0.204033
	O156	O	0.091642	0.082204	0.145703
	O157	O	0.341883	0.019668	0.208493
	O158	O	0.087008	0.042015	0.230501
	O159	O	0.336697	0.104495	0.167930
	F160	F	0.005472	0.030180	0.207459
	F161	F	0.254704	0.092673	0.144948
	F162	F	0.004857	0.094422	0.167512
	F163	F	0.254492	0.031916	0.230016
	Al164	Al	0.130007	0.031052	0.218731
	Al165	Al	0.379579	0.093542	0.156169
	Al166	Al	0.129784	0.093536	0.156185
	Al167	Al	0.379888	0.031030	0.218818
	C168	C	0.093698	0.119929	0.126471
	C169	C	0.344588	0.057411	0.188915
	C170	C	0.095340	0.003824	0.245833
	C171	C	0.345327	0.066310	0.183268
	C172	C	0.415637	0.061507	0.230744
	C173	C	0.165446	0.124008	0.168149
	C174	C	0.413381	0.063570	0.140921
	C175	C	0.163309	0.001064	0.203402
	C176	C	0.415292	0.004671	0.248505
	C177	C	0.165032	0.067154	0.186053
	C178	C	0.413983	0.120765	0.129140
	C179	C	0.164301	0.058257	0.191692
	C180	C	0.093479	0.063100	0.144217
	C181	C	0.343689	0.000559	0.206877
	C182	C	0.095897	0.061016	0.233996
	C183	C	0.345835	0.123497	0.171592
	C184	C	0.002992	0.115764	0.130760
	C185	C	0.253977	0.053250	0.193252
	C186	C	0.005762	0.008859	0.244286
	C187	C	0.255643	0.071318	0.181729
	C188	C	0.004384	0.056401	0.232317
	C189	C	0.254269	0.118892	0.169799
	C190	C	0.004568	0.068199	0.142578
	C191	C	0.254834	0.005680	0.205198
	C192	C	0.002445	0.106423	0.138148
	C193	C	0.253440	0.043922	0.200663
	C194	C	0.006282	0.018193	0.236909
	C195	C	0.256124	0.080640	0.174305
	C196	C	0.002827	0.046195	0.230591
	C197	C	0.252540	0.108686	0.168069
	C198	C	0.006382	0.078412	0.144276
	C199	C	0.256669	0.015888	0.206944
	H200	H	0.163633	0.116147	0.127504
	H201	H	0.414481	0.053628	0.189938
	H202	H	0.166130	0.006907	0.242553
	H203	H	0.415996	0.069407	0.179949
	H204	H	0.344576	0.058032	0.229372
	H205	H	0.094195	0.120551	0.166787
	H206	H	0.344348	0.067433	0.139581
	H207	H	0.094195	0.004930	0.201990
	H208	H	0.345464	0.008463	0.247491
	H209	H	0.095093	0.070930	0.185008
	H210	H	0.343217	0.117679	0.132392
	H211	H	0.093665	0.055166	0.194962
	H212	H	0.164530	0.066585	0.145503
	H213	H	0.414915	0.004024	0.208266
	H214	H	0.165004	0.057155	0.235374
	H215	H	0.414864	0.119624	0.173046
	O216	O	0.587363	0.102537	0.140605
	O217	O	0.837171	0.040068	0.203096
	O218	O	0.591513	0.021594	0.233470
	O219	O	0.840556	0.084067	0.171008
	O220	O	0.917516	0.042385	0.229154
	O221	O	0.666762	0.104903	0.166735
	O222	O	0.922154	0.082593	0.144488
	O223	O	0.672107	0.020048	0.207037
	O224	O	0.921742	0.022054	0.234333
	O225	O	0.671121	0.084508	0.171822
	O226	O	0.917563	0.102983	0.141595
	O227	O	0.667734	0.040481	0.204033
	O228	O	0.591666	0.082210	0.145669
	O229	O	0.841647	0.019656	0.208225
	O230	O	0.587128	0.042028	0.230505
	O231	O	0.836173	0.104514	0.168191
	F232	F	0.504813	0.030157	0.207584
	F233	F	0.754951	0.092688	0.145169
	F234	F	0.504288	0.094428	0.167453
	F235	F	0.754777	0.031912	0.229894
	Al236	Al	0.629717	0.031039	0.218763
	Al237	Al	0.879935	0.093561	0.156362
	Al238	Al	0.629446	0.093548	0.156243
	Al239	Al	0.880232	0.031039	0.218676
	C240	C	0.594400	0.119888	0.126399
	C241	C	0.843625	0.057390	0.188901
	C242	C	0.595583	0.003796	0.245751
	C243	C	0.844598	0.066297	0.183305
	C244	C	0.915443	0.061506	0.230662
	C245	C	0.665025	0.124017	0.168218
	C246	C	0.912998	0.063587	0.141048
	C247	C	0.662991	0.001065	0.203422
	C248	C	0.914997	0.004683	0.248595
	C249	C	0.664297	0.067166	0.186091
	C250	C	0.913404	0.120817	0.129278
	C251	C	0.663329	0.058265	0.191698
	C252	C	0.593734	0.063090	0.144165
	C253	C	0.843453	0.000555	0.206787
	C254	C	0.596028	0.061006	0.234089
	C255	C	0.845454	0.123502	0.171618
	C256	C	0.503595	0.115751	0.130724
	C257	C	0.752926	0.053240	0.193204
	C258	C	0.506038	0.008841	0.244238
	C259	C	0.754987	0.071316	0.181771
	C260	C	0.504434	0.056392	0.232464
	C261	C	0.753825	0.118904	0.169974
	C262	C	0.504868	0.068187	0.142551
	C263	C	0.754604	0.005669	0.205099
	C264	C	0.502846	0.106407	0.138100
	C265	C	0.752528	0.043910	0.200574
	C266	C	0.506662	0.018179	0.236924
	C267	C	0.755596	0.080649	0.174396
	C268	C	0.502830	0.046195	0.230703
	C269	C	0.751990	0.108695	0.168266
	C270	C	0.506513	0.078400	0.144256
	C271	C	0.756356	0.015871	0.206852
	H272	H	0.664199	0.116081	0.127391
	H273	H	0.913510	0.053599	0.189897
	H274	H	0.666347	0.006879	0.242482
	H275	H	0.915275	0.069377	0.180027
	H276	H	0.844356	0.058032	0.229309
	H277	H	0.593940	0.120535	0.166847
	H278	H	0.843788	0.067451	0.139763
	H279	H	0.593878	0.004935	0.202069
	H280	H	0.845079	0.008468	0.247575
	H281	H	0.594527	0.070973	0.185100
	H282	H	0.842668	0.117748	0.132602
	H283	H	0.592722	0.055174	0.195010
	H284	H	0.664796	0.066570	0.145453
	H285	H	0.914663	0.004019	0.208148
	H286	H	0.665164	0.057141	0.235423
	H287	H	0.914554	0.119642	0.172998
	O288	O	0.091904	0.110033	0.230420
	O289	O	0.342372	0.047516	0.292788
	O290	O	0.096051	0.029024	0.323036
	O291	O	0.345722	0.091511	0.260481
	O292	O	0.422485	0.049796	0.318862
	O293	O	0.172050	0.112290	0.256339
	O294	O	0.427108	0.089992	0.233971
	O295	O	0.177453	0.027485	0.296571
	O296	O	0.426859	0.029469	0.323972
	O297	O	0.176385	0.091971	0.261454
	O298	O	0.422649	0.110443	0.231266
	O299	O	0.172968	0.047958	0.293763
	O300	O	0.096440	0.089595	0.235432
	O301	O	0.346962	0.027101	0.297907
	O302	O	0.091876	0.049368	0.320271
	O303	O	0.341407	0.111832	0.257806
	F304	F	0.010027	0.037605	0.297088
	F305	F	0.259312	0.100080	0.234582
	F306	F	0.009233	0.101793	0.257095
	F307	F	0.259445	0.039312	0.319514
	Al308	Al	0.134665	0.038449	0.308321
	Al309	Al	0.384273	0.100944	0.245817
	Al310	Al	0.134204	0.100958	0.245836
	Al311	Al	0.384693	0.038462	0.308334
	C312	C	0.098560	0.127420	0.216327
	C313	C	0.348860	0.064905	0.278770
	C314	C	0.100003	0.011279	0.335620
	C315	C	0.349822	0.073801	0.273113
	C316	C	0.421314	0.068929	0.321592
	C317	C	0.170779	0.131434	0.259085
	C318	C	0.418103	0.070993	0.230688
	C319	C	0.168421	0.008479	0.293157
	C320	C	0.420184	0.012181	0.338504
	C321	C	0.169713	0.074700	0.276053
	C322	C	0.418521	0.128315	0.219230
	C323	C	0.168757	0.065809	0.281734
	C324	C	0.098366	0.070500	0.233979
	C325	C	0.348763	0.007973	0.296463
	C326	C	0.101273	0.068315	0.325297
	C327	C	0.350802	0.130778	0.262759
	C328	C	0.007961	0.123268	0.220696
	C329	C	0.258293	0.060756	0.283129
	C330	C	0.010548	0.016326	0.334093
	C331	C	0.260242	0.078827	0.271572
	C332	C	0.009770	0.063762	0.323009
	C333	C	0.259290	0.126242	0.260442
	C334	C	0.009452	0.075599	0.232307
	C335	C	0.260008	0.013087	0.294769
	C336	C	0.007446	0.113902	0.227947
	C337	C	0.257849	0.051389	0.290354
	C338	C	0.011033	0.025644	0.326591
	C339	C	0.260841	0.088118	0.264027
	C340	C	0.007702	0.053563	0.320649
	C341	C	0.257340	0.116045	0.258064
	C342	C	0.011203	0.085803	0.233981
	C343	C	0.261751	0.023306	0.296455
	H344	H	0.168446	0.123628	0.217294
	H345	H	0.418521	0.061108	0.279713
	H346	H	0.170786	0.014335	0.332262
	H347	H	0.420291	0.076866	0.269724
	H348	H	0.350233	0.065506	0.319806
	H349	H	0.099678	0.128008	0.257303
	H350	H	0.349205	0.074871	0.229296
	H351	H	0.099362	0.012357	0.291832
	H352	H	0.350491	0.015997	0.337552
	H353	H	0.099831	0.078505	0.275081
	H354	H	0.347839	0.125260	0.222629
	H355	H	0.098031	0.062745	0.285140
	H356	H	0.169390	0.073980	0.235316
	H357	H	0.419862	0.011449	0.297810
	H358	H	0.170011	0.064395	0.326546
	H359	H	0.419519	0.126853	0.263997
	O360	O	0.592067	0.110027	0.230388
	O361	O	0.841966	0.047562	0.292831
	O362	O	0.596341	0.029012	0.323063
	O363	O	0.845142	0.091477	0.260513
	O364	O	0.922459	0.049779	0.318993
	O365	O	0.671662	0.112270	0.256410
	O366	O	0.926957	0.090000	0.234014
	O367	O	0.677197	0.027514	0.296438
	O368	O	0.926639	0.029508	0.324043
	O369	O	0.675789	0.091987	0.261533
	O370	O	0.922449	0.110428	0.231249
	O371	O	0.672583	0.047965	0.293796
	O372	O	0.596526	0.089601	0.235363
	O373	O	0.846631	0.027081	0.297913
	O374	O	0.591871	0.049349	0.320346
	O375	O	0.841080	0.111886	0.257797
	F376	F	0.509749	0.037597	0.297145
	F377	F	0.759500	0.100109	0.234665
	F378	F	0.509050	0.101780	0.257025
	F379	F	0.759562	0.039313	0.319526
	Al380	Al	0.634585	0.038453	0.308346
	Al381	Al	0.884536	0.100959	0.245885
	Al382	Al	0.634259	0.100948	0.245805
	Al383	Al	0.884858	0.038472	0.308309
	C384	C	0.598678	0.127397	0.216241
	C385	C	0.848214	0.064901	0.278720
	C386	C	0.600397	0.011261	0.335532
	C387	C	0.849074	0.073795	0.273061
	C388	C	0.921263	0.068946	0.321527
	C389	C	0.670204	0.131414	0.259024
	C390	C	0.917918	0.070989	0.230626
	C391	C	0.667869	0.008489	0.293068
	C392	C	0.919719	0.012182	0.338482
	C393	C	0.668864	0.074701	0.276071
	C394	C	0.918367	0.128324	0.219260
	C395	C	0.668041	0.065814	0.281751
	C396	C	0.598480	0.070493	0.234049
	C397	C	0.848155	0.007973	0.296561
	C398	C	0.601379	0.068294	0.325336
	C399	C	0.850211	0.130777	0.262792
	C400	C	0.508043	0.123257	0.220659
	C401	C	0.757644	0.060775	0.283164
	C402	C	0.510821	0.016301	0.334040
	C403	C	0.759445	0.078823	0.271607
	C404	C	0.509888	0.063755	0.322958
	C405	C	0.758623	0.126237	0.260501
	C406	C	0.509604	0.075591	0.232363
	C407	C	0.759390	0.013088	0.294793
	C408	C	0.507518	0.113896	0.227935
	C409	C	0.757343	0.051415	0.290395
	C410	C	0.511371	0.025615	0.326554
	C411	C	0.760157	0.088114	0.264079
	C412	C	0.507812	0.053557	0.320554
	C413	C	0.756774	0.116055	0.258094
	C414	C	0.511299	0.085807	0.233971
	C415	C	0.761260	0.023308	0.296444
	H416	H	0.668528	0.123595	0.217150
	H417	H	0.917987	0.061099	0.279655
	H418	H	0.671080	0.014325	0.332137
	H419	H	0.919668	0.076866	0.269640
	H420	H	0.850243	0.065512	0.319706
	H421	H	0.599114	0.127991	0.257157
	H422	H	0.848858	0.074856	0.229264
	H423	H	0.598849	0.012362	0.291654
	H424	H	0.849956	0.015989	0.337483
	H425	H	0.599024	0.078500	0.275119
	H426	H	0.847734	0.125268	0.222673
	H427	H	0.597423	0.062752	0.285160
	H428	H	0.669529	0.073968	0.235363
	H429	H	0.919279	0.011441	0.297934
	H430	H	0.670073	0.064361	0.326598
	H431	H	0.919028	0.126854	0.263997
	O432	O	0.098451	0.117264	0.326471
	O433	O	0.348750	0.054756	0.389016
	O434	O	0.102485	0.035442	0.416704
	O435	O	0.352280	0.097971	0.354340
	O436	O	0.429194	0.055447	0.418127
	O437	O	0.178759	0.118002	0.355422
	O438	O	0.433820	0.097355	0.327368
	O439	O	0.184127	0.034840	0.389909
	O440	O	0.433626	0.035988	0.418061
	O441	O	0.182907	0.098463	0.355463
	O442	O	0.429270	0.117789	0.327721
	O443	O	0.179415	0.055255	0.390168
	O444	O	0.103200	0.096896	0.328740
	O445	O	0.353645	0.034361	0.391374
	O446	O	0.098016	0.054980	0.419052
	O447	O	0.347849	0.117426	0.356734
	F448	F	0.016456	0.045088	0.392220
	F449	F	0.265984	0.107560	0.329834
	F450	F	0.015531	0.108143	0.352093
	F451	F	0.265821	0.045631	0.414589
	Al452	Al	0.141170	0.045336	0.403329
	Al453	Al	0.390934	0.107836	0.340899
	Al454	Al	0.140799	0.107843	0.340849
	Al455	Al	0.391075	0.045345	0.403430
	C456	C	0.105113	0.134218	0.311209
	C457	C	0.355282	0.071735	0.373874
	C458	C	0.106317	0.017904	0.429639
	C459	C	0.356234	0.080439	0.367378
	C460	C	0.423554	0.071595	0.439543
	C461	C	0.173101	0.134264	0.376569
	C462	C	0.424251	0.078418	0.322393
	C463	C	0.174184	0.015908	0.384772
	C464	C	0.427010	0.019008	0.433282
	C465	C	0.176263	0.081494	0.370650
	C466	C	0.425446	0.135331	0.314773
	C467	C	0.175308	0.072786	0.377177
	C468	C	0.104038	0.077805	0.326072
	C469	C	0.354211	0.015239	0.388610
	C470	C	0.102700	0.070498	0.442073
	C471	C	0.352298	0.132848	0.380004
	C472	C	0.014476	0.130313	0.316274
	C473	C	0.264782	0.067798	0.378819
	C474	C	0.016851	0.022930	0.428128
	C475	C	0.266857	0.085430	0.365705
	C476	C	0.012957	0.067014	0.435147
	C477	C	0.262751	0.129531	0.372619
	C478	C	0.015630	0.082981	0.324525
	C479	C	0.265831	0.020440	0.387119
	C480	C	0.013962	0.121138	0.324116
	C481	C	0.264256	0.058604	0.386559
	C482	C	0.017646	0.032148	0.420431
	C483	C	0.267448	0.094629	0.357970
	C484	C	0.013404	0.058561	0.423182
	C485	C	0.263104	0.121054	0.360705
	C486	C	0.017705	0.093167	0.326950
	C487	C	0.268196	0.030624	0.389617
	H488	H	0.174546	0.130395	0.312334
	H489	H	0.424612	0.067928	0.375033
	H490	H	0.176629	0.020825	0.425655
	H491	H	0.426549	0.083378	0.363508
	H492	H	0.354088	0.069013	0.434120
	H493	H	0.103644	0.131807	0.370822
	H494	H	0.355450	0.082336	0.321285
	H495	H	0.105363	0.019837	0.383540
	H496	H	0.357620	0.022846	0.432257
	H497	H	0.106766	0.085302	0.369474
	H498	H	0.355375	0.132416	0.318836
	H499	H	0.105240	0.069841	0.381137
	H500	H	0.174965	0.081234	0.327953
	H501	H	0.425352	0.018644	0.390519
	H502	H	0.172279	0.066994	0.438769
	H503	H	0.421807	0.129221	0.377118
	O504	O	0.598670	0.117250	0.326472
	O505	O	0.848159	0.054737	0.388888
	O506	O	0.602812	0.035434	0.416754
	O507	O	0.852455	0.097914	0.354252
	O508	O	0.929101	0.055467	0.418061
	O509	O	0.678576	0.118001	0.355415
	O510	O	0.933716	0.097398	0.327269
	O511	O	0.683676	0.034874	0.389865
	O512	O	0.933270	0.036028	0.418046
	O513	O	0.683117	0.098461	0.355475
	O514	O	0.929082	0.117806	0.327806
	O515	O	0.678811	0.055277	0.390205
	O516	O	0.603385	0.096867	0.328784
	O517	O	0.853181	0.034332	0.391308
	O518	O	0.598043	0.054925	0.419207
	O519	O	0.847529	0.117415	0.356751
	F520	F	0.516117	0.045080	0.392370
	F521	F	0.766258	0.107577	0.329876
	F522	F	0.515697	0.108121	0.352052
	F523	F	0.765923	0.045639	0.414524
	Al524	Al	0.641048	0.045328	0.403366
	Al525	Al	0.891245	0.107853	0.340956
	Al526	Al	0.640927	0.107833	0.340856
	Al527	Al	0.891174	0.045359	0.403325
	C528	C	0.605468	0.134198	0.311212
	C529	C	0.854995	0.071675	0.373705
	C530	C	0.606773	0.017880	0.429622
	C531	C	0.856154	0.080376	0.367203
	C532	C	0.923138	0.071590	0.439576
	C533	C	0.672929	0.134269	0.376585
	C534	C	0.924053	0.078436	0.322279
	C535	C	0.673659	0.015902	0.384817
	C536	C	0.926239	0.019029	0.433280
	C537	C	0.676078	0.081501	0.370656
	C538	C	0.924969	0.135329	0.314718
	C539	C	0.674905	0.072796	0.377182
	C540	C	0.604250	0.077780	0.326148
	C541	C	0.853722	0.015256	0.388588
	C542	C	0.602993	0.070484	0.442082
	C543	C	0.852187	0.132844	0.379931
	C544	C	0.514906	0.130312	0.316320
	C545	C	0.764343	0.067783	0.378758
	C546	C	0.517434	0.022921	0.428131
	C547	C	0.766816	0.085410	0.365666
	C548	C	0.513252	0.066977	0.435177
	C549	C	0.762520	0.129528	0.372571
	C550	C	0.515849	0.082958	0.324536
	C551	C	0.765256	0.020435	0.387099
	C552	C	0.514217	0.121119	0.324057
	C553	C	0.763674	0.058606	0.386540
	C554	C	0.518001	0.032107	0.420405
	C555	C	0.767556	0.094595	0.357901
	C556	C	0.513476	0.058533	0.423280
	C557	C	0.762863	0.121051	0.360697
	C558	C	0.517906	0.093139	0.327014
	C559	C	0.767588	0.030629	0.389556
	H560	H	0.674754	0.130354	0.312292
	H561	H	0.924379	0.067844	0.374795
	H562	H	0.677063	0.020787	0.425593
	H563	H	0.926468	0.083282	0.363210
	H564	H	0.853634	0.068995	0.434196
	H565	H	0.603340	0.131821	0.370867
	H566	H	0.855262	0.082363	0.321046
	H567	H	0.604904	0.019837	0.383608
	H568	H	0.856879	0.022886	0.432277
	H569	H	0.606732	0.085331	0.369497
	H570	H	0.854875	0.132413	0.318802
	H571	H	0.604795	0.069877	0.381214
	H572	H	0.675228	0.081201	0.328110
	H573	H	0.924847	0.018665	0.390491
	H574	H	0.672665	0.066992	0.438790
	H575	H	0.921762	0.129221	0.377020
	O576	O	0.092581	0.113292	0.479524
	O577	O	0.343012	0.050806	0.542085
	O578	O	0.097145	0.030350	0.566264
	O579	O	0.346513	0.092893	0.503793
	O580	O	0.423571	0.049862	0.572143
	O581	O	0.173364	0.112435	0.509599
	O582	O	0.427796	0.094621	0.474644
	O583	O	0.177521	0.032113	0.537148
	O584	O	0.427493	0.030867	0.567486
	O585	O	0.177249	0.093402	0.505068
	O586	O	0.423668	0.113820	0.480870
	O587	O	0.173732	0.051332	0.543434
	O588	O	0.097085	0.094111	0.475601
	O589	O	0.346911	0.031586	0.538092
	O590	O	0.092150	0.049317	0.573010
	O591	O	0.342524	0.111818	0.510536
	F592	F	0.010407	0.041393	0.544019
	F593	F	0.260203	0.103925	0.481557
	F594	F	0.010072	0.102853	0.503198
	F595	F	0.260095	0.040329	0.565692
	Al596	Al	0.135238	0.040855	0.554880
	Al597	Al	0.385170	0.103364	0.492320
	Al598	Al	0.135126	0.103376	0.492390
	Al599	Al	0.385261	0.040849	0.554854
	C600	C	0.099235	0.129672	0.462810
	C601	C	0.349382	0.067318	0.525748
	C602	C	0.100605	0.013239	0.580688
	C603	C	0.350360	0.075759	0.518189
	C604	C	0.417939	0.064424	0.597593
	C605	C	0.167611	0.127020	0.534988
	C606	C	0.423290	0.079448	0.450746
	C607	C	0.173074	0.016923	0.513117
	C608	C	0.420914	0.014321	0.583658
	C609	C	0.170650	0.076832	0.521195
	C610	C	0.419965	0.131042	0.466791
	C611	C	0.169658	0.068392	0.528763
	C612	C	0.102585	0.078333	0.453269
	C613	C	0.352583	0.015778	0.515844
	C614	C	0.096880	0.063133	0.599910
	C615	C	0.347011	0.125506	0.537744
	C616	C	0.008706	0.126049	0.468531
	C617	C	0.259038	0.063570	0.531112
	C618	C	0.011365	0.018080	0.578368
	C619	C	0.261021	0.080595	0.515889
	C620	C	0.007155	0.060150	0.592116
	C621	C	0.257498	0.122669	0.529651
	C622	C	0.012770	0.082878	0.457775
	C623	C	0.262628	0.020331	0.520250
	C624	C	0.008102	0.117098	0.477020
	C625	C	0.258441	0.054583	0.539499
	C626	C	0.012337	0.027079	0.570062
	C627	C	0.261792	0.089610	0.507607
	C628	C	0.007415	0.052597	0.578025
	C629	C	0.257852	0.115124	0.515528
	C630	C	0.012579	0.091147	0.470228
	C631	C	0.262305	0.028606	0.532746
	H632	H	0.168214	0.125843	0.464227
	H633	H	0.418391	0.063589	0.527450
	H634	H	0.170303	0.016096	0.576490
	H635	H	0.420075	0.078609	0.513977
	H636	H	0.348529	0.062228	0.591542
	H637	H	0.098123	0.124907	0.528786
	H638	H	0.353916	0.082961	0.454092
	H639	H	0.103432	0.020431	0.516350
	H640	H	0.352099	0.018062	0.581929
	H641	H	0.101639	0.080571	0.519463
	H642	H	0.350281	0.128310	0.471421
	H643	H	0.099908	0.065527	0.532948
	H644	H	0.172009	0.080918	0.458687
	H645	H	0.422147	0.018324	0.521332
	H646	H	0.166537	0.059861	0.595780
	H647	H	0.416596	0.122138	0.533836
	O648	O	0.592862	0.113281	0.479473
	O649	O	0.842890	0.050790	0.542028
	O650	O	0.596816	0.030365	0.566276
	O651	O	0.846950	0.092828	0.503669
	O652	O	0.923033	0.049905	0.572069
	O653	O	0.673044	0.112434	0.509541
	O654	O	0.927958	0.094681	0.474547
	O655	O	0.677652	0.032070	0.537168
	O656	O	0.927924	0.030867	0.567478
	O657	O	0.677658	0.093393	0.505017
	O658	O	0.923301	0.113893	0.481067
	O659	O	0.673628	0.051293	0.543320
	O660	O	0.597042	0.094112	0.475570
	O661	O	0.846863	0.031572	0.538023
	O662	O	0.592734	0.049313	0.573045
	O663	O	0.842075	0.111772	0.510616
	F664	F	0.510378	0.041369	0.544048
	F665	F	0.760397	0.103893	0.481595
	F666	F	0.510003	0.102834	0.503151
	F667	F	0.760242	0.040321	0.565605
	Al668	Al	0.635366	0.040835	0.554834
	Al669	Al	0.885319	0.103362	0.492406
	Al670	Al	0.635181	0.103374	0.492340
	Al671	Al	0.885370	0.040856	0.554771
	C672	C	0.599591	0.129691	0.462803
	C673	C	0.849360	0.067293	0.525776
	C674	C	0.600387	0.013236	0.580702
	C675	C	0.850521	0.075732	0.518207
	C676	C	0.917306	0.064436	0.597610
	C677	C	0.667507	0.127048	0.534934
	C678	C	0.923029	0.079430	0.450769
	C679	C	0.673202	0.016911	0.513162
	C680	C	0.920985	0.014327	0.583686
	C681	C	0.670734	0.076849	0.521217
	C682	C	0.919516	0.131022	0.466675
	C683	C	0.669607	0.068411	0.528788
	C684	C	0.602858	0.078335	0.453281
	C685	C	0.852651	0.015769	0.515766
	C686	C	0.597466	0.063091	0.600013
	C687	C	0.846958	0.125556	0.537602
	C688	C	0.509152	0.126059	0.468607
	C689	C	0.758909	0.063578	0.531174
	C690	C	0.511217	0.018068	0.578349
	C691	C	0.761301	0.080605	0.515974
	C692	C	0.507780	0.060149	0.592133
	C693	C	0.757235	0.122682	0.529601
	C694	C	0.512958	0.082876	0.457759
	C695	C	0.762792	0.020329	0.520243
	C696	C	0.508356	0.117074	0.476955
	C697	C	0.758313	0.054580	0.539504
	C698	C	0.512057	0.027087	0.570079
	C699	C	0.762130	0.089589	0.507574
	C700	C	0.507954	0.052566	0.578087
	C701	C	0.757405	0.115103	0.515541
	C702	C	0.512556	0.091119	0.470258
	C703	C	0.762346	0.028573	0.532730
	H704	H	0.668611	0.125857	0.464139
	H705	H	0.918260	0.063534	0.527453
	H706	H	0.670069	0.016088	0.576511
	H707	H	0.920362	0.078554	0.513931
	H708	H	0.847810	0.062242	0.591562
	H709	H	0.597967	0.124944	0.528737
	H710	H	0.853481	0.082929	0.454123
	H711	H	0.603470	0.020394	0.516450
	H712	H	0.852014	0.018067	0.581971
	H713	H	0.601717	0.080577	0.519425
	H714	H	0.849833	0.128290	0.471301
	H715	H	0.599850	0.065554	0.532936
	H716	H	0.672221	0.080928	0.458716
	H717	H	0.922226	0.018307	0.521228
	H718	H	0.667039	0.059786	0.595950
	H719	H	0.916616	0.122219	0.533619
	O720	O	0.087112	0.103525	0.643736
	O721	O	0.336698	0.041005	0.706229
	O722	O	0.091470	0.020397	0.729795
	O723	O	0.341027	0.082875	0.667204
	O724	O	0.417496	0.039894	0.736368
	O725	O	0.167502	0.102418	0.673775
	O726	O	0.422175	0.085221	0.637723
	O727	O	0.172384	0.022757	0.700221
	O728	O	0.421951	0.020988	0.731283
	O729	O	0.171783	0.083479	0.668816
	O730	O	0.417406	0.104110	0.645247
	O731	O	0.167498	0.041635	0.707855
	O732	O	0.090887	0.084621	0.638703
	O733	O	0.341247	0.022125	0.701189
	O734	O	0.086495	0.039249	0.737359
	O735	O	0.336474	0.101748	0.674800
	F736	F	0.004640	0.031690	0.708044
	F737	F	0.254464	0.094150	0.645535
	F738	F	0.004309	0.092822	0.667039
	F739	F	0.254301	0.030324	0.729519
	Al740	Al	0.129506	0.031005	0.718779
	Al741	Al	0.379272	0.093499	0.656237
	Al742	Al	0.129374	0.093504	0.656277
	Al743	Al	0.379529	0.031007	0.718789
	C744	C	0.093516	0.119857	0.626921
	C745	C	0.343385	0.057361	0.689416
	C746	C	0.094814	0.003348	0.744451
	C747	C	0.344660	0.065747	0.681672
	C748	C	0.411906	0.054465	0.761821
	C749	C	0.161947	0.116937	0.699362
	C750	C	0.417790	0.071486	0.610637
	C751	C	0.167447	0.008936	0.673370
	C752	C	0.415276	0.004563	0.747853
	C753	C	0.165038	0.067131	0.685579
	C754	C	0.413916	0.121274	0.630897
	C755	C	0.163797	0.058739	0.693338
	C756	C	0.096685	0.070191	0.612981
	C757	C	0.346937	0.007767	0.675381
	C758	C	0.091232	0.052969	0.764504
	C759	C	0.341272	0.115427	0.702055
	C760	C	0.003016	0.116293	0.632812
	C761	C	0.253040	0.053799	0.695341
	C762	C	0.005575	0.008239	0.742268
	C763	C	0.255534	0.070714	0.679745
	C764	C	0.001619	0.050102	0.756457
	C765	C	0.251687	0.112566	0.694002
	C766	C	0.006819	0.074449	0.618513
	C767	C	0.257116	0.011982	0.681089
	C768	C	0.002534	0.107349	0.641328
	C769	C	0.252229	0.044837	0.703791
	C770	C	0.006739	0.017179	0.733759
	C771	C	0.256313	0.079668	0.671268
	C772	C	0.001852	0.042562	0.742338
	C773	C	0.251889	0.105058	0.679816
	C774	C	0.006445	0.081978	0.632669
	C775	C	0.256908	0.019477	0.695187
	H776	H	0.162515	0.116020	0.628320
	H777	H	0.412235	0.053526	0.690803
	H778	H	0.164614	0.006119	0.740032
	H779	H	0.414425	0.068450	0.677020
	H780	H	0.342517	0.052362	0.755594
	H781	H	0.092462	0.114825	0.693160
	H782	H	0.348218	0.074785	0.614683
	H783	H	0.097832	0.012151	0.677604
	H784	H	0.346374	0.008353	0.746290
	H785	H	0.096191	0.070968	0.684143
	H786	H	0.344301	0.118569	0.635621
	H787	H	0.094173	0.056010	0.697968
	H788	H	0.166193	0.072401	0.619016
	H789	H	0.416550	0.010023	0.681274
	H790	H	0.160858	0.049609	0.760551
	H791	H	0.410860	0.112071	0.698113
	O792	O	0.586891	0.103522	0.643717
	O793	O	0.837123	0.041046	0.706212
	O794	O	0.591242	0.020425	0.729847
	O795	O	0.841193	0.082882	0.667261
	O796	O	0.917374	0.039937	0.736273
	O797	O	0.667027	0.102439	0.673791
	O798	O	0.921830	0.085261	0.637685
	O799	O	0.671870	0.022708	0.700267
	O800	O	0.922396	0.020975	0.731183
	O801	O	0.671949	0.083502	0.668767
	O802	O	0.917865	0.104126	0.645374
	O803	O	0.667797	0.041626	0.707785
	O804	O	0.591334	0.084629	0.638633
	O805	O	0.840937	0.022166	0.701100
	O806	O	0.586760	0.039269	0.737345
	O807	O	0.836201	0.101768	0.674827
	F808	F	0.504629	0.031692	0.708078
	F809	F	0.754589	0.094179	0.645569
	F810	F	0.504132	0.092832	0.666961
	F811	F	0.754548	0.030348	0.729480
	Al812	Al	0.629440	0.031014	0.718802
	Al813	Al	0.879532	0.093513	0.656327
	Al814	Al	0.629385	0.093508	0.656241
	Al815	Al	0.879659	0.031019	0.718691
	C816	C	0.593602	0.119883	0.626868
	C817	C	0.843748	0.057378	0.689408
	C818	C	0.594846	0.003313	0.744381
	C819	C	0.844805	0.065762	0.681660
	C820	C	0.911798	0.054472	0.761752
	C821	C	0.661619	0.116975	0.699262
	C822	C	0.917148	0.071492	0.610685
	C823	C	0.667361	0.008929	0.673302
	C824	C	0.915127	0.004588	0.747871
	C825	C	0.665054	0.067140	0.685573
	C826	C	0.913741	0.121268	0.630903
	C827	C	0.663955	0.058743	0.693323
	C828	C	0.597376	0.070152	0.613062
	C829	C	0.846857	0.007748	0.675420
	C830	C	0.591302	0.052926	0.764566
	C831	C	0.841104	0.115444	0.702027
	C832	C	0.503118	0.116319	0.632749
	C833	C	0.753298	0.053807	0.695299
	C834	C	0.505651	0.008201	0.742205
	C835	C	0.755514	0.070726	0.679758
	C836	C	0.501659	0.050084	0.756543
	C837	C	0.751432	0.112605	0.693969
	C838	C	0.507397	0.074421	0.618533
	C839	C	0.756983	0.011966	0.681018
	C840	C	0.502258	0.107335	0.641247
	C841	C	0.752531	0.044854	0.703773
	C842	C	0.506462	0.017177	0.733761
	C843	C	0.756374	0.079679	0.671274
	C844	C	0.501998	0.042562	0.742345
	C845	C	0.751490	0.105066	0.679832
	C846	C	0.506907	0.081960	0.632654
	C847	C	0.756546	0.019453	0.695207
	H848	H	0.662504	0.116033	0.628271
	H849	H	0.912786	0.053556	0.690827
	H850	H	0.664637	0.006086	0.739954
	H851	H	0.914659	0.068476	0.676997
	H852	H	0.842321	0.052362	0.755541
	H853	H	0.592086	0.114872	0.693037
	H854	H	0.847570	0.074771	0.614800
	H855	H	0.597734	0.012147	0.677544
	H856	H	0.846276	0.008376	0.746272
	H857	H	0.596146	0.070972	0.684138
	H858	H	0.843896	0.118573	0.635603
	H859	H	0.594320	0.056018	0.697969
	H860	H	0.666804	0.072353	0.619114
	H861	H	0.916230	0.009985	0.681399
	H862	H	0.660839	0.049549	0.760619
	H863	H	0.910664	0.112071	0.698089
	O864	O	0.081064	0.093638	0.807351
	O865	O	0.331188	0.031105	0.869768
	O866	O	0.085600	0.010690	0.893974
	O867	O	0.335347	0.073201	0.831420
	O868	O	0.411579	0.030533	0.899203
	O869	O	0.161562	0.093010	0.836813
	O870	O	0.416562	0.075294	0.801822
	O871	O	0.166684	0.012762	0.864400
	O872	O	0.416293	0.011289	0.895574
	O873	O	0.166143	0.073794	0.832993
	O874	O	0.411881	0.094240	0.808884
	O875	O	0.161915	0.031725	0.871342
	O876	O	0.085196	0.074618	0.802972
	O877	O	0.335709	0.012107	0.865448
	O878	O	0.080738	0.029898	0.900440
	O879	O	0.330865	0.092431	0.837852
	F880	F	-0.001098	0.021737	0.871762
	F881	F	0.248595	0.084239	0.809267
	F882	F	-0.001529	0.083150	0.830971
	F883	F	0.248639	0.020656	0.893419
	Al884	Al	0.123726	0.021195	0.882624
	Al885	Al	0.373488	0.083705	0.820098
	Al886	Al	0.123544	0.083695	0.820153
	Al887	Al	0.373740	0.021177	0.882621
	C888	C	0.087593	0.110039	0.790709
	C889	C	0.338035	0.047594	0.853359
	C890	C	0.089214	-0.006463	0.908351
	C891	C	0.339268	0.056039	0.845802
	C892	C	0.406165	0.046425	0.921189
	C893	C	0.156068	0.108822	0.859023
	C894	C	0.411874	0.061529	0.774850
	C895	C	0.161902	-0.001040	0.837487
	C896	C	0.409523	-0.005164	0.912139
	C897	C	0.159660	0.057380	0.849666
	C898	C	0.408353	0.111493	0.794991
	C899	C	0.158452	0.048940	0.857224
	C900	C	0.091088	0.060034	0.777567
	C901	C	0.341373	-0.002425	0.839955
	C902	C	0.085348	0.044975	0.924695
	C903	C	0.335413	0.107571	0.861959
	C904	C	-0.002799	0.106478	0.796680
	C905	C	0.247597	0.043956	0.859063
	C906	C	-0.000015	-0.001500	0.906450
	C907	C	0.250001	0.060987	0.843841
	C908	C	-0.004230	0.041733	0.917149
	C909	C	0.245830	0.104211	0.854734
	C910	C	0.001202	0.064390	0.782870
	C911	C	0.251575	0.001881	0.845407
	C912	C	-0.003342	0.097469	0.804951
	C913	C	0.246727	0.034948	0.867373
	C914	C	0.000808	0.007479	0.898013
	C915	C	0.250654	0.069971	0.835435
	C916	C	-0.003951	0.033466	0.904691
	C917	C	0.246149	0.095959	0.842206
	C918	C	0.000868	0.071968	0.796918
	C919	C	0.251325	0.009453	0.859440
	H920	H	0.156521	0.106171	0.791920
	H921	H	0.406847	0.043763	0.854732
	H922	H	0.158954	-0.003715	0.903774
	H923	H	0.408884	0.058784	0.841259
	H924	H	0.336669	0.044011	0.915365
	H925	H	0.086740	0.106305	0.853386
	H926	H	0.342418	0.064897	0.778753
	H927	H	0.092270	0.002279	0.841494
	H928	H	0.340723	-0.001327	0.910760
	H929	H	0.090702	0.061210	0.848316
	H930	H	0.338699	0.108796	0.799750
	H931	H	0.088632	0.046196	0.861803
	H932	H	0.160465	0.062174	0.783747
	H933	H	0.410997	-0.000255	0.846000
	H934	H	0.154858	0.041323	0.921808
	H935	H	0.404876	0.104011	0.858764
	O936	O	0.581052	0.093607	0.807239
	O937	O	0.831167	0.031104	0.869712
	O938	O	0.585537	0.010681	0.894016
	O939	O	0.835376	0.073194	0.831547
	O940	O	0.911549	0.030524	0.899274
	O941	O	0.661250	0.092980	0.836833
	O942	O	0.916176	0.075286	0.801838
	O943	O	0.666400	0.012763	0.864388
	O944	O	0.916494	0.011288	0.895500
	O945	O	0.666116	0.073792	0.833031
	O946	O	0.911836	0.094234	0.808879
	O947	O	0.661948	0.031728	0.871405
	O948	O	0.585678	0.074606	0.802935
	O949	O	0.835392	0.012123	0.865390
	O950	O	0.580832	0.029841	0.900518
	O951	O	0.830333	0.092412	0.837896
	F952	F	0.498968	0.021714	0.871832
	F953	F	0.748782	0.084222	0.809341
	F954	F	0.498279	0.083156	0.830877
	F955	F	0.748873	0.020636	0.893376
	Al956	Al	0.623867	0.021193	0.882649
	Al957	Al	0.873640	0.083705	0.820175
	Al958	Al	0.623505	0.083680	0.820117
	Al959	Al	0.874043	0.021198	0.882576
	C960	C	0.587692	0.110037	0.790636
	C961	C	0.837834	0.047584	0.853323
	C962	C	0.588977	-0.006493	0.908294
	C963	C	0.839009	0.056028	0.845773
	C964	C	0.906042	0.046491	0.921134
	C965	C	0.655683	0.108837	0.858962
	C966	C	0.911624	0.061539	0.774803
	C967	C	0.661558	-0.001028	0.837413
	C968	C	0.909585	-0.005140	0.912205
	C969	C	0.659220	0.057350	0.849609
	C970	C	0.908055	0.111497	0.794975
	C971	C	0.658072	0.048910	0.857172
	C972	C	0.591181	0.059987	0.777598
	C973	C	0.840828	-0.002452	0.839985
	C974	C	0.585601	0.044917	0.924744
	C975	C	0.834997	0.107523	0.861993
	C976	C	0.497401	0.106453	0.796584
	C977	C	0.747354	0.043955	0.859070
	C978	C	0.499878	-0.001539	0.906403
	C979	C	0.749769	0.060990	0.843916
	C980	C	0.495945	0.041695	0.917173
	C981	C	0.745406	0.104189	0.854692
	C982	C	0.501502	0.064374	0.782894
	C983	C	0.751130	0.001906	0.845360
	C984	C	0.496652	0.097461	0.804903
	C985	C	0.746671	0.034954	0.867396
	C986	C	0.500763	0.007454	0.898011
	C987	C	0.750569	0.069963	0.835495
	C988	C	0.496178	0.033439	0.904695
	C989	C	0.745695	0.095944	0.842224
	C990	C	0.501232	0.071939	0.796949
	C991	C	0.750966	0.009440	0.859442
	H992	H	0.656650	0.106164	0.791784
	H993	H	0.906799	0.043744	0.854669
	H994	H	0.658667	-0.003743	0.903739
	H995	H	0.908741	0.058763	0.841169
	H996	H	0.836646	0.044086	0.915269
	H997	H	0.586276	0.106341	0.853310
	H998	H	0.842097	0.064921	0.778697
	H999	H	0.591867	0.002271	0.841436
	H1000	H	0.840717	-0.001309	0.910820
	H1001	H	0.590305	0.061163	0.848192
	H1002	H	0.838228	0.108812	0.799718
	H1003	H	0.588393	0.046159	0.861706
	H1004	H	0.660641	0.062100	0.783807
	H1005	H	0.910305	-0.000322	0.846144
	H1006	H	0.655060	0.041253	0.921871
	H1007	H	0.904432	0.103948	0.858864
	O1008	O	0.075221	0.088546	0.956925
	O1009	O	0.325268	0.026040	1.019378
	O1010	O	0.079639	0.006803	1.047329
	O1011	O	0.329858	0.069238	0.984616
	O1012	O	0.405546	0.027721	1.046020
	O1013	O	0.155416	0.090193	0.983600
	O1014	O	0.411069	0.069666	0.955595
	O1015	O	0.160714	0.007098	1.018445
	O1016	O	0.410476	0.007353	1.048586
	O1017	O	0.160536	0.069827	0.986071
	O1018	O	0.405981	0.089128	0.958169
	O1019	O	0.155921	0.026664	1.020831
	O1020	O	0.079782	0.069063	0.957064
	O1021	O	0.329650	0.006624	1.019406
	O1022	O	0.074961	0.027223	1.047630
	O1023	O	0.324847	0.089671	0.985105
	F1024	F	-0.006946	0.016419	1.022930
	F1025	F	0.242972	0.078906	0.960341
	F1026	F	-0.007094	0.079491	0.982700
	F1027	F	0.243025	0.017022	1.045169
	Al1028	Al	0.117935	0.016736	1.034155
	Al1029	Al	0.367740	0.079210	0.971510
	Al1030	Al	0.117847	0.079212	0.971618
	Al1031	Al	0.367948	0.016726	1.034074
	C1032	C	0.082069	0.105501	0.941618
	C1033	C	0.332210	0.042984	1.004071
	C1034	C	0.083411	-0.010744	1.060201
	C1035	C	0.333394	0.051677	0.997515
	C1036	C	0.405141	0.046797	1.048880
	C1037	C	0.154973	0.109283	0.986325
	C1038	C	0.406239	0.054259	0.932374
	C1039	C	0.155913	-0.008406	0.995446
	C1040	C	0.403596	-0.009598	1.063842
	C1041	C	0.153537	0.052930	1.001449
	C1042	C	0.402342	0.106692	0.945378
	C1043	C	0.152390	0.044222	1.007957
	C1044	C	0.085315	0.052809	0.935903
	C1045	C	0.335271	-0.009520	0.997934
	C1046	C	0.084585	0.046146	1.052614
	C1047	C	0.334977	0.108619	0.990240
	C1048	C	-0.008522	0.101629	0.946809
	C1049	C	0.241629	0.039140	1.009315
	C1050	C	-0.006012	-0.005686	1.058790
	C1051	C	0.244151	0.056750	0.996134
	C1052	C	-0.007109	0.041624	1.050403
	C1053	C	0.243293	0.104088	0.987945
	C1054	C	-0.004289	0.057586	0.939795
	C1055	C	0.245579	-0.004926	1.002369
	C1056	C	-0.009168	0.092433	0.954595
	C1057	C	0.240901	0.029947	1.017076
	C1058	C	-0.005292	0.003482	1.051004
	C1059	C	0.244966	0.065927	0.988345
	C1060	C	-0.009160	0.031438	1.047976
	C1061	C	0.240911	0.093907	0.985437
	C1062	C	-0.004561	0.066038	0.951752
	C1063	C	0.245362	0.003523	1.014284
	H1064	H	0.151424	0.101648	0.942623
	H1065	H	0.401507	0.039102	1.005013
	H1066	H	0.153566	-0.007853	1.056032
	H1067	H	0.403499	0.054535	0.993288
	H1068	H	0.334144	0.043387	1.046948
	H1069	H	0.083813	0.105880	0.984344
	H1070	H	0.336764	0.057921	0.935225
	H1071	H	0.086450	-0.004898	0.998751
	H1072	H	0.334185	-0.005747	1.062828
	H1073	H	0.084409	0.056808	1.000521
	H1074	H	0.332158	0.103800	0.949471
	H1075	H	0.082128	0.041351	1.012102
	H1076	H	0.154786	0.055228	0.941729
	H1077	H	0.404754	-0.006925	1.003317
	H1078	H	0.153302	0.042210	1.053822
	H1079	H	0.403745	0.104679	0.991456
	O1080	O	0.575301	0.088525	0.956783
	O1081	O	0.825077	0.026093	1.019408
	O1082	O	0.579887	0.006807	1.047341
	O1083	O	0.829065	0.069238	0.984678
	O1084	O	0.905379	0.027688	1.046217
	O1085	O	0.654669	0.090203	0.983628
	O1086	O	0.910884	0.069659	0.955713
	O1087	O	0.660787	0.007126	1.018305
	O1088	O	0.910348	0.007370	1.048611
	O1089	O	0.659738	0.069842	0.986055
	O1090	O	0.905920	0.089157	0.958352
	O1091	O	0.655720	0.026648	1.020794
	O1092	O	0.580043	0.069050	0.956993
	O1093	O	0.829541	0.006612	1.019407
	O1094	O	0.575018	0.027194	1.047658
	O1095	O	0.824118	0.089683	0.985228
	F1096	F	0.493109	0.016413	1.022911
	F1097	F	0.743045	0.078922	0.960407
	F1098	F	0.492487	0.079485	0.982548
	F1099	F	0.742923	0.017009	1.045096
	Al1100	Al	0.617897	0.016724	1.034114
	Al1101	Al	0.867783	0.079229	0.971634
	Al1102	Al	0.617736	0.079207	0.971550
	Al1103	Al	0.868215	0.016734	1.034053
	C1104	C	0.582219	0.105507	0.941561
	C1105	C	0.831832	0.043041	1.004209
	C1106	C	0.583777	-0.010750	1.060187
	C1107	C	0.832842	0.051729	0.997652
	C1108	C	0.904483	0.046814	1.048868
	C1109	C	0.654170	0.109307	0.986226
	C1110	C	0.905998	0.054317	0.932332
	C1111	C	0.656030	-0.008398	0.995364
	C1112	C	0.903450	-0.009566	1.063974
	C1113	C	0.652663	0.052876	1.001259
	C1114	C	0.902072	0.106689	0.945328
	C1115	C	0.651649	0.044173	1.007782
	C1116	C	0.585637	0.052757	0.935933
	C1117	C	0.835264	-0.009533	0.997946
	C1118	C	0.585196	0.046139	1.052669
	C1119	C	0.834015	0.108616	0.990371
	C1120	C	0.491649	0.101626	0.946767
	C1121	C	0.741184	0.039154	1.009325
	C1122	C	0.494279	-0.005716	1.058714
	C1123	C	0.743288	0.056754	0.996138
	C1124	C	0.493464	0.041611	1.050432
	C1125	C	0.742303	0.104110	0.987966
	C1126	C	0.496002	0.057543	0.939791
	C1127	C	0.745623	-0.004933	1.002350
	C1128	C	0.490939	0.092425	0.954464
	C1129	C	0.740556	0.029957	1.017050
	C1130	C	0.494954	0.003483	1.051005
	C1131	C	0.744065	0.065936	0.988389
	C1132	C	0.491058	0.031430	1.047921
	C1133	C	0.740108	0.093918	0.985496
	C1134	C	0.495749	0.066014	0.951679
	C1135	C	0.745354	0.003515	1.014251
	H1136	H	0.651543	0.101642	0.942516
	H1137	H	0.901239	0.039208	1.005275
	H1138	H	0.654028	-0.007859	1.056080
	H1139	H	0.903035	0.054635	0.993559
	H1140	H	0.833344	0.043406	1.046992
	H1141	H	0.583092	0.105914	0.984168
	H1142	H	0.836663	0.057993	0.935195
	H1143	H	0.586450	-0.004881	0.998627
	H1144	H	0.834029	-0.005712	1.063009
	H1145	H	0.583212	0.056717	1.000224
	H1146	H	0.831752	0.103796	0.949393
	H1147	H	0.581404	0.041257	1.011809
	H1148	H	0.655100	0.055177	0.941757
	H1149	H	0.904688	-0.006947	1.003345
	H1150	H	0.653903	0.042194	1.053821
	H1151	H	0.902570	0.104657	0.991693
	O1152	O	0.087213	0.227546	0.015616
	O1153	O	0.337261	0.165068	0.078185
	O1154	O	0.090782	0.146605	0.108423
	O1155	O	0.340818	0.209067	0.045817
	O1156	O	0.417162	0.167365	0.104285
	O1157	O	0.167413	0.229886	0.041586
	O1158	O	0.422396	0.207549	0.019420
	O1159	O	0.172229	0.145073	0.082015
	O1160	O	0.421551	0.147011	0.109360
	O1161	O	0.171424	0.209509	0.046770
	O1162	O	0.417898	0.227958	0.016461
	O1163	O	0.167865	0.165518	0.079117
	O1164	O	0.091599	0.207165	0.020716
	O1165	O	0.341587	0.144693	0.083313
	O1166	O	0.086712	0.167004	0.105497
	O1167	O	0.336824	0.229491	0.042911
	F1168	F	0.005010	0.155155	0.082461
	F1169	F	0.254565	0.217652	0.019921
	F1170	F	0.004568	0.219392	0.042452
	F1171	F	0.254302	0.156905	0.105013
	Al1172	Al	0.129671	0.156047	0.093751
	Al1173	Al	0.379334	0.218513	0.031145
	Al1174	Al	0.129392	0.218524	0.031183
	Al1175	Al	0.379410	0.156034	0.093789
	C1176	C	0.093845	0.244925	0.001511
	C1177	C	0.343900	0.182421	0.063938
	C1178	C	0.094730	0.128837	0.120834
	C1179	C	0.344929	0.191317	0.058283
	C1180	C	0.415168	0.186502	0.105716
	C1181	C	0.165506	0.249012	0.043209
	C1182	C	0.413206	0.188560	0.015983
	C1183	C	0.163081	0.126080	0.078476
	C1184	C	0.415096	0.129672	0.123547
	C1185	C	0.164692	0.192172	0.061003
	C1186	C	0.413609	0.245747	0.004060
	C1187	C	0.163681	0.183276	0.066659
	C1188	C	0.093323	0.188053	0.019211
	C1189	C	0.343332	0.125553	0.081928
	C1190	C	0.095490	0.185997	0.109040
	C1191	C	0.345904	0.248493	0.046484
	C1192	C	0.003078	0.240742	0.005719
	C1193	C	0.253283	0.178259	0.068255
	C1194	C	0.005246	0.133876	0.119331
	C1195	C	0.255361	0.196341	0.056727
	C1196	C	0.003947	0.181390	0.107388
	C1197	C	0.254344	0.243886	0.044794
	C1198	C	0.004453	0.193166	0.017575
	C1199	C	0.254577	0.130679	0.080225
	C1200	C	0.002641	0.231394	0.013066
	C1201	C	0.252756	0.168930	0.075652
	C1202	C	0.005836	0.143204	0.111918
	C1203	C	0.255958	0.205658	0.049300
	C1204	C	0.002448	0.171178	0.105635
	C1205	C	0.252617	0.233676	0.043045
	C1206	C	0.006343	0.203375	0.019312
	C1207	C	0.256404	0.140892	0.081885
	H1208	H	0.163765	0.241141	0.002560
	H1209	H	0.413761	0.178643	0.064956
	H1210	H	0.165479	0.131909	0.117542
	H1211	H	0.415729	0.194401	0.054976
	H1212	H	0.344062	0.183033	0.104367
	H1213	H	0.094383	0.245543	0.041866
	H1214	H	0.344188	0.192435	0.014580
	H1215	H	0.093998	0.129939	0.077050
	H1216	H	0.345205	0.133449	0.122535
	H1217	H	0.094837	0.195962	0.059938
	H1218	H	0.342903	0.242647	0.007281
	H1219	H	0.092932	0.180188	0.069942
	H1220	H	0.164470	0.191526	0.020533
	H1221	H	0.414485	0.129012	0.083285
	H1222	H	0.164640	0.182130	0.110380
	H1223	H	0.415005	0.244616	0.047793
	O1224	O	0.587287	0.227538	0.015587
	O1225	O	0.836948	0.165055	0.078033
	O1226	O	0.590982	0.146596	0.108449
	O1227	O	0.840406	0.209068	0.045933
	O1228	O	0.917168	0.167369	0.104171
	O1229	O	0.667001	0.229844	0.041785
	O1230	O	0.922136	0.207560	0.019444
	O1231	O	0.672036	0.145046	0.081940
	O1232	O	0.921335	0.147075	0.109413
	O1233	O	0.671101	0.209548	0.046878
	O1234	O	0.917737	0.227960	0.016482
	O1235	O	0.667505	0.165477	0.078982
	O1236	O	0.591898	0.207166	0.020726
	O1237	O	0.841549	0.144635	0.083240
	O1238	O	0.586641	0.167004	0.105473
	O1239	O	0.836521	0.229522	0.043000
	F1240	F	0.504552	0.155167	0.082570
	F1241	F	0.754702	0.217670	0.020070
	F1242	F	0.504033	0.219353	0.042368
	F1243	F	0.754456	0.156901	0.104833
	Al1244	Al	0.629554	0.156032	0.093718
	Al1245	Al	0.879764	0.218535	0.031270
	Al1246	Al	0.629378	0.218511	0.031196
	Al1247	Al	0.879910	0.156028	0.093651
	C1248	C	0.593933	0.244912	0.001470
	C1249	C	0.843537	0.182410	0.063933
	C1250	C	0.595402	0.128795	0.120787
	C1251	C	0.844493	0.191318	0.058358
	C1252	C	0.915038	0.186510	0.105738
	C1253	C	0.664933	0.248994	0.043235
	C1254	C	0.912829	0.188558	0.015939
	C1255	C	0.662857	0.126048	0.078339
	C1256	C	0.914477	0.129725	0.123645
	C1257	C	0.664204	0.192177	0.061052
	C1258	C	0.913325	0.245762	0.004112
	C1259	C	0.663192	0.183262	0.066624
	C1260	C	0.593623	0.188026	0.019310
	C1261	C	0.843219	0.125541	0.081799
	C1262	C	0.595561	0.186002	0.109110
	C1263	C	0.845377	0.248471	0.046598
	C1264	C	0.503184	0.240718	0.005658
	C1265	C	0.752823	0.178241	0.068180
	C1266	C	0.505790	0.133828	0.119258
	C1267	C	0.754877	0.196339	0.056778
	C1268	C	0.504027	0.181386	0.107392
	C1269	C	0.753744	0.243877	0.044914
	C1270	C	0.504836	0.193161	0.017693
	C1271	C	0.754411	0.130650	0.080043
	C1272	C	0.502723	0.231388	0.013035
	C1273	C	0.752342	0.168903	0.075527
	C1274	C	0.506157	0.143161	0.111878
	C1275	C	0.755482	0.205670	0.049393
	C1276	C	0.502345	0.171175	0.105659
	C1277	C	0.752105	0.233667	0.043183
	C1278	C	0.506655	0.203373	0.019333
	C1279	C	0.756222	0.140858	0.081776
	H1280	H	0.663833	0.241132	0.002560
	H1281	H	0.913420	0.178619	0.064957
	H1282	H	0.666135	0.131868	0.117489
	H1283	H	0.915282	0.194411	0.055120
	H1284	H	0.843935	0.183036	0.104411
	H1285	H	0.593912	0.245511	0.041876
	H1286	H	0.843679	0.192426	0.014605
	H1287	H	0.593727	0.129914	0.076940
	H1288	H	0.844667	0.133521	0.122633
	H1289	H	0.594255	0.195964	0.060017
	H1290	H	0.842518	0.242665	0.007327
	H1291	H	0.592472	0.180162	0.069857
	H1292	H	0.664837	0.191490	0.020612
	H1293	H	0.914321	0.129004	0.083178
	H1294	H	0.664693	0.182138	0.110508
	H1295	H	0.914454	0.244600	0.047964
	O1296	O	0.091667	0.235034	0.105339
	O1297	O	0.342123	0.172557	0.167927
	O1298	O	0.095498	0.154038	0.198040
	O1299	O	0.345646	0.216497	0.135406
	O1300	O	0.422126	0.174813	0.193920
	O1301	O	0.171980	0.237294	0.131282
	O1302	O	0.427015	0.214995	0.108923
	O1303	O	0.177288	0.152494	0.171578
	O1304	O	0.426342	0.154505	0.199086
	O1305	O	0.176330	0.216985	0.136464
	O1306	O	0.422597	0.235444	0.106121
	O1307	O	0.172740	0.173006	0.168855
	O1308	O	0.096407	0.214596	0.110317
	O1309	O	0.346595	0.152121	0.172978
	O1310	O	0.091133	0.174370	0.195304
	O1311	O	0.341107	0.236866	0.132650
	F1312	F	0.009905	0.162623	0.172045
	F1313	F	0.259367	0.225111	0.109512
	F1314	F	0.009349	0.226811	0.132081
	F1315	F	0.259088	0.164326	0.194590
	Al1316	Al	0.134408	0.163469	0.183342
	Al1317	Al	0.384177	0.225943	0.120724
	Al1318	Al	0.134298	0.225948	0.120746
	Al1319	Al	0.384320	0.163474	0.183383
	C1320	C	0.098136	0.252404	0.091265
	C1321	C	0.348726	0.189924	0.153799
	C1322	C	0.099514	0.136326	0.210673
	C1323	C	0.349734	0.198800	0.148070
	C1324	C	0.421145	0.193937	0.196513
	C1325	C	0.170767	0.256424	0.133922
	C1326	C	0.417719	0.195985	0.105649
	C1327	C	0.168127	0.133494	0.168129
	C1328	C	0.419604	0.137225	0.213600
	C1329	C	0.169586	0.199722	0.151029
	C1330	C	0.418461	0.253306	0.094179
	C1331	C	0.168598	0.190834	0.156761
	C1332	C	0.098026	0.195481	0.108992
	C1333	C	0.348515	0.132976	0.171586
	C1334	C	0.100693	0.193294	0.200422
	C1335	C	0.350764	0.255746	0.137840
	C1336	C	0.007461	0.248263	0.095630
	C1337	C	0.258099	0.185787	0.158188
	C1338	C	0.009975	0.141351	0.209132
	C1339	C	0.260176	0.203829	0.146536
	C1340	C	0.009119	0.188763	0.198004
	C1341	C	0.259105	0.251195	0.135454
	C1342	C	0.009226	0.200593	0.107319
	C1343	C	0.259730	0.138093	0.169852
	C1344	C	0.007072	0.238900	0.102888
	C1345	C	0.257610	0.176437	0.165471
	C1346	C	0.010622	0.150649	0.201582
	C1347	C	0.260771	0.213117	0.138988
	C1348	C	0.007146	0.178581	0.195572
	C1349	C	0.257074	0.241055	0.133027
	C1350	C	0.011126	0.210803	0.108933
	C1351	C	0.261510	0.148311	0.171525
	H1352	H	0.167942	0.248595	0.092208
	H1353	H	0.418559	0.186127	0.154796
	H1354	H	0.170203	0.139391	0.207327
	H1355	H	0.420344	0.201854	0.144668
	H1356	H	0.350126	0.190508	0.194651
	H1357	H	0.099477	0.253038	0.131995
	H1358	H	0.348720	0.199857	0.104213
	H1359	H	0.099070	0.137363	0.166721
	H1360	H	0.349871	0.141037	0.212672
	H1361	H	0.099934	0.203523	0.150047
	H1362	H	0.347785	0.250248	0.097573
	H1363	H	0.098039	0.187789	0.160205
	H1364	H	0.169193	0.198950	0.110304
	H1365	H	0.419537	0.136455	0.173006
	H1366	H	0.169379	0.189362	0.201736
	H1367	H	0.419575	0.251822	0.139105
	O1368	O	0.592039	0.235024	0.105355
	O1369	O	0.841308	0.172525	0.167736
	O1370	O	0.595724	0.154034	0.198036
	O1371	O	0.845294	0.216498	0.135571
	O1372	O	0.921740	0.174811	0.193775
	O1373	O	0.671689	0.237291	0.131394
	O1374	O	0.926903	0.214998	0.109030
	O1375	O	0.676784	0.152512	0.171494
	O1376	O	0.926111	0.154530	0.199022
	O1377	O	0.675899	0.216993	0.136573
	O1378	O	0.922201	0.235441	0.106262
	O1379	O	0.671890	0.172984	0.168780
	O1380	O	0.596495	0.214579	0.110423
	O1381	O	0.846160	0.152090	0.172810
	O1382	O	0.591483	0.174336	0.195419
	O1383	O	0.840906	0.236856	0.132942
	F1384	F	0.509316	0.162616	0.172154
	F1385	F	0.759539	0.225099	0.109713
	F1386	F	0.508745	0.226801	0.131977
	F1387	F	0.759297	0.164334	0.194458
	Al1388	Al	0.634315	0.163460	0.183314
	Al1389	Al	0.884589	0.225965	0.120907
	Al1390	Al	0.634160	0.225960	0.120834
	Al1391	Al	0.884676	0.163474	0.183231
	C1392	C	0.598730	0.252391	0.091255
	C1393	C	0.848145	0.189888	0.153725
	C1394	C	0.599738	0.136309	0.210619
	C1395	C	0.849200	0.198778	0.148086
	C1396	C	0.920769	0.193958	0.196409
	C1397	C	0.670197	0.256418	0.133991
	C1398	C	0.917559	0.195992	0.105687
	C1399	C	0.667507	0.133491	0.168114
	C1400	C	0.919352	0.137229	0.213604
	C1401	C	0.669051	0.199727	0.151100
	C1402	C	0.917908	0.253334	0.094215
	C1403	C	0.667973	0.190830	0.156762
	C1404	C	0.598133	0.195485	0.109067
	C1405	C	0.847906	0.132986	0.171511
	C1406	C	0.601070	0.193293	0.200425
	C1407	C	0.850204	0.255778	0.137937
	C1408	C	0.508005	0.248247	0.095608
	C1409	C	0.757389	0.185761	0.158110
	C1410	C	0.510218	0.141349	0.209135
	C1411	C	0.759695	0.203829	0.146624
	C1412	C	0.509562	0.188746	0.198038
	C1413	C	0.758668	0.251223	0.135510
	C1414	C	0.509262	0.200589	0.107352
	C1415	C	0.759023	0.138093	0.169857
	C1416	C	0.507531	0.238893	0.102847
	C1417	C	0.756755	0.176406	0.165354
	C1418	C	0.510845	0.150647	0.201617
	C1419	C	0.760346	0.213124	0.139116
	C1420	C	0.507456	0.178556	0.195672
	C1421	C	0.756822	0.241052	0.133171
	C1422	C	0.511164	0.210800	0.108954
	C1423	C	0.760814	0.148308	0.171461
	H1424	H	0.668510	0.248582	0.092209
	H1425	H	0.917814	0.186081	0.154657
	H1426	H	0.670439	0.139364	0.207251
	H1427	H	0.919884	0.201833	0.144677
	H1428	H	0.849668	0.190548	0.194470
	H1429	H	0.599007	0.253011	0.132098
	H1430	H	0.848456	0.199864	0.104331
	H1431	H	0.598505	0.137358	0.166651
	H1432	H	0.849577	0.141027	0.212659
	H1433	H	0.599344	0.203548	0.150183
	H1434	H	0.847247	0.250284	0.097630
	H1435	H	0.597360	0.187790	0.160214
	H1436	H	0.669140	0.198967	0.110431
	H1437	H	0.919066	0.136452	0.172805
	H1438	H	0.669772	0.189361	0.201742
	H1439	H	0.919013	0.251863	0.139272
	O1440	O	0.098305	0.242242	0.201449
	O1441	O	0.348200	0.179718	0.263888
	O1442	O	0.102520	0.160454	0.291728
	O1443	O	0.352509	0.222952	0.229277
	O1444	O	0.428847	0.180486	0.293030
	O1445	O	0.178651	0.242988	0.230485
	O1446	O	0.433790	0.222377	0.202303
	O1447	O	0.183761	0.159877	0.264852
	O1448	O	0.433259	0.160996	0.293002
	O1449	O	0.183178	0.223506	0.230560
	O1450	O	0.429018	0.242787	0.202753
	O1451	O	0.178923	0.180298	0.265165
	O1452	O	0.103364	0.221869	0.203811
	O1453	O	0.353242	0.159335	0.266458
	O1454	O	0.097667	0.179967	0.294157
	O1455	O	0.347633	0.242435	0.231660
	F1456	F	0.016231	0.170089	0.267250
	F1457	F	0.266032	0.232579	0.204855
	F1458	F	0.015453	0.233137	0.227081
	F1459	F	0.265447	0.170644	0.289581
	Al1460	Al	0.140720	0.170350	0.278350
	Al1461	Al	0.390957	0.232835	0.215864
	Al1462	Al	0.140839	0.232854	0.215855
	Al1463	Al	0.390646	0.170359	0.278373
	C1464	C	0.104885	0.259160	0.186092
	C1465	C	0.355049	0.196675	0.248566
	C1466	C	0.106125	0.142924	0.304690
	C1467	C	0.356071	0.205392	0.242117
	C1468	C	0.423501	0.196631	0.314494
	C1469	C	0.173089	0.259211	0.251701
	C1470	C	0.424094	0.203430	0.197269
	C1471	C	0.173683	0.140925	0.259907
	C1472	C	0.426575	0.144038	0.308245
	C1473	C	0.176398	0.206577	0.245968
	C1474	C	0.425257	0.260372	0.190054
	C1475	C	0.175334	0.197868	0.252449
	C1476	C	0.103744	0.202787	0.201237
	C1477	C	0.353703	0.140268	0.263604
	C1478	C	0.102385	0.195472	0.317249
	C1479	C	0.352248	0.257836	0.254936
	C1480	C	0.014306	0.255288	0.191299
	C1481	C	0.264589	0.192817	0.253823
	C1482	C	0.016706	0.147947	0.303153
	C1483	C	0.266757	0.210459	0.240782
	C1484	C	0.012800	0.192024	0.310198
	C1485	C	0.262676	0.254491	0.247651
	C1486	C	0.015419	0.207971	0.199570
	C1487	C	0.265307	0.145452	0.262114
	C1488	C	0.013827	0.246113	0.199068
	C1489	C	0.263892	0.183622	0.261550
	C1490	C	0.017524	0.157152	0.295410
	C1491	C	0.267600	0.219642	0.232996
	C1492	C	0.013037	0.183572	0.298227
	C1493	C	0.262978	0.246047	0.235708
	C1494	C	0.017954	0.218151	0.201985
	C1495	C	0.267676	0.155634	0.264601
	H1496	H	0.174342	0.255315	0.187051
	H1497	H	0.424181	0.192802	0.249451
	H1498	H	0.176427	0.145837	0.300701
	H1499	H	0.426145	0.208283	0.237978
	H1500	H	0.354079	0.194075	0.309004
	H1501	H	0.103639	0.256746	0.246016
	H1502	H	0.355448	0.207364	0.196018
	H1503	H	0.104932	0.144857	0.258799
	H1504	H	0.357262	0.147880	0.307215
	H1505	H	0.107050	0.210429	0.245000
	H1506	H	0.355274	0.257514	0.194339
	H1507	H	0.105273	0.194977	0.256598
	H1508	H	0.174684	0.206198	0.203252
	H1509	H	0.424716	0.143685	0.265536
	H1510	H	0.171899	0.191947	0.314042
	H1511	H	0.421784	0.254235	0.251942
	O1512	O	0.598322	0.242217	0.201351
	O1513	O	0.847986	0.179753	0.263885
	O1514	O	0.602598	0.160467	0.291790
	O1515	O	0.852333	0.222904	0.229275
	O1516	O	0.928713	0.180499	0.293024
	O1517	O	0.678544	0.243016	0.230408
	O1518	O	0.933867	0.222402	0.202202
	O1519	O	0.683301	0.159877	0.264821
	O1520	O	0.933180	0.161039	0.293078
	O1521	O	0.682949	0.223503	0.230516
	O1522	O	0.928847	0.242786	0.202767
	O1523	O	0.678626	0.180303	0.265240
	O1524	O	0.603233	0.221884	0.203793
	O1525	O	0.852740	0.159319	0.266402
	O1526	O	0.597790	0.179954	0.294193
	O1527	O	0.847481	0.242409	0.231723
	F1528	F	0.515716	0.170084	0.267327
	F1529	F	0.766101	0.232570	0.204850
	F1530	F	0.515673	0.233137	0.227057
	F1531	F	0.765487	0.170656	0.289539
	Al1532	Al	0.640585	0.170349	0.278361
	Al1533	Al	0.891178	0.232833	0.215936
	Al1534	Al	0.640921	0.232848	0.215833
	Al1535	Al	0.890784	0.170362	0.278341
	C1536	C	0.604900	0.259123	0.185937
	C1537	C	0.854738	0.196671	0.248559
	C1538	C	0.606547	0.142913	0.304717
	C1539	C	0.855848	0.205386	0.242085
	C1540	C	0.923134	0.196665	0.314426
	C1541	C	0.672729	0.259207	0.251729
	C1542	C	0.923803	0.203453	0.197207
	C1543	C	0.673196	0.140906	0.259840
	C1544	C	0.926022	0.144029	0.308163
	C1545	C	0.675920	0.206592	0.246012
	C1546	C	0.924972	0.260359	0.189973
	C1547	C	0.674821	0.197893	0.252519
	C1548	C	0.603971	0.202787	0.201212
	C1549	C	0.853220	0.140265	0.263627
	C1550	C	0.602745	0.195450	0.317204
	C1551	C	0.852093	0.257845	0.254939
	C1552	C	0.514487	0.255278	0.191285
	C1553	C	0.764179	0.192837	0.253880
	C1554	C	0.517168	0.147929	0.303146
	C1555	C	0.766386	0.210437	0.240731
	C1556	C	0.513051	0.192003	0.310202
	C1557	C	0.762493	0.254516	0.247619
	C1558	C	0.515663	0.207964	0.199588
	C1559	C	0.764780	0.145440	0.262144
	C1560	C	0.513875	0.246106	0.199051
	C1561	C	0.763472	0.183634	0.261561
	C1562	C	0.517734	0.157143	0.295455
	C1563	C	0.767253	0.219629	0.232992
	C1564	C	0.513159	0.183563	0.298239
	C1565	C	0.762851	0.246060	0.235677
	C1566	C	0.517796	0.218153	0.202019
	C1567	C	0.767125	0.155622	0.264612
	H1568	H	0.674091	0.255240	0.186779
	H1569	H	0.923913	0.192779	0.249422
	H1570	H	0.676831	0.145834	0.300779
	H1571	H	0.926068	0.208277	0.237959
	H1572	H	0.853732	0.194129	0.308866
	H1573	H	0.603237	0.256723	0.246067
	H1574	H	0.855095	0.207385	0.195930
	H1575	H	0.604569	0.144848	0.258629
	H1576	H	0.856633	0.147858	0.307024
	H1577	H	0.606568	0.210454	0.245118
	H1578	H	0.854828	0.257487	0.194192
	H1579	H	0.604775	0.195014	0.256733
	H1580	H	0.675014	0.206196	0.203202
	H1581	H	0.924272	0.143684	0.265509
	H1582	H	0.672224	0.191925	0.313977
	H1583	H	0.921646	0.254236	0.251938
	O1584	O	0.092892	0.238317	0.354657
	O1585	O	0.342627	0.175755	0.416982
	O1586	O	0.097165	0.155351	0.441203
	O1587	O	0.346648	0.217853	0.378720
	O1588	O	0.423440	0.174959	0.447078
	O1589	O	0.173441	0.237401	0.384686
	O1590	O	0.428048	0.219641	0.349659
	O1591	O	0.177650	0.157159	0.412087
	O1592	O	0.427824	0.155956	0.442687
	O1593	O	0.177339	0.218421	0.380186
	O1594	O	0.423373	0.238829	0.355970
	O1595	O	0.173384	0.176339	0.418479
	O1596	O	0.096732	0.219108	0.350690
	O1597	O	0.346823	0.156550	0.413253
	O1598	O	0.092146	0.174316	0.448115
	O1599	O	0.342524	0.236815	0.385597
	F1600	F	0.010225	0.166399	0.419073
	F1601	F	0.260118	0.228878	0.356615
	F1602	F	0.009905	0.227858	0.378273
	F1603	F	0.260012	0.165350	0.440733
	Al1604	Al	0.135068	0.165868	0.429900
	Al1605	Al	0.385083	0.228356	0.367383
	Al1606	Al	0.135037	0.228380	0.367442
	Al1607	Al	0.385113	0.165878	0.429896
	C1608	C	0.099311	0.254756	0.338059
	C1609	C	0.348975	0.192176	0.400314
	C1610	C	0.100564	0.138122	0.455235
	C1611	C	0.350108	0.200621	0.392773
	C1612	C	0.417995	0.189541	0.472441
	C1613	C	0.167693	0.251910	0.410265
	C1614	C	0.423404	0.204464	0.325718
	C1615	C	0.173023	0.142082	0.387797
	C1616	C	0.421053	0.139496	0.459236
	C1617	C	0.170762	0.201963	0.396690
	C1618	C	0.419767	0.255986	0.341561
	C1619	C	0.169616	0.193512	0.404233
	C1620	C	0.102224	0.203295	0.328489
	C1621	C	0.352146	0.140667	0.391221
	C1622	C	0.096697	0.188008	0.475244
	C1623	C	0.346847	0.250656	0.412533
	C1624	C	0.008868	0.251074	0.343625
	C1625	C	0.258738	0.188553	0.406103
	C1626	C	0.011386	0.143082	0.453341
	C1627	C	0.261063	0.205601	0.390956
	C1628	C	0.007128	0.185185	0.467162
	C1629	C	0.257436	0.247659	0.404745
	C1630	C	0.012511	0.207882	0.332840
	C1631	C	0.262526	0.145365	0.395286
	C1632	C	0.008316	0.242099	0.352079
	C1633	C	0.258149	0.179573	0.414515
	C1634	C	0.012380	0.152109	0.445122
	C1635	C	0.261873	0.214607	0.382633
	C1636	C	0.007501	0.177638	0.453048
	C1637	C	0.257852	0.240105	0.390617
	C1638	C	0.012205	0.216132	0.345333
	C1639	C	0.262303	0.153615	0.407781
	H1640	H	0.168327	0.250972	0.339627
	H1641	H	0.417801	0.188342	0.401661
	H1642	H	0.170414	0.140871	0.450708
	H1643	H	0.419703	0.203366	0.388174
	H1644	H	0.348645	0.187438	0.466198
	H1645	H	0.098371	0.249696	0.404258
	H1646	H	0.353999	0.207983	0.328995
	H1647	H	0.103454	0.145680	0.390768
	H1648	H	0.352261	0.143347	0.457952
	H1649	H	0.101908	0.205794	0.395340
	H1650	H	0.350025	0.253185	0.345962
	H1651	H	0.099966	0.190771	0.408813
	H1652	H	0.171511	0.205839	0.334048
	H1653	H	0.421572	0.143092	0.397009
	H1654	H	0.166191	0.184624	0.471332
	H1655	H	0.416549	0.247411	0.408405
	O1656	O	0.592769	0.238280	0.354559
	O1657	O	0.842404	0.175736	0.416906
	O1658	O	0.597083	0.155328	0.441138
	O1659	O	0.846815	0.217842	0.378779
	O1660	O	0.923058	0.174986	0.447032
	O1661	O	0.672852	0.237433	0.384644
	O1662	O	0.927628	0.219665	0.349649
	O1663	O	0.677972	0.157180	0.412035
	O1664	O	0.928048	0.155972	0.442801
	O1665	O	0.677552	0.218416	0.380159
	O1666	O	0.923643	0.238858	0.356069
	O1667	O	0.673243	0.176347	0.418509
	O1668	O	0.597246	0.219083	0.350635
	O1669	O	0.847151	0.156486	0.413297
	O1670	O	0.592492	0.174273	0.448155
	O1671	O	0.842011	0.236808	0.385633
	F1672	F	0.510213	0.166389	0.419111
	F1673	F	0.760362	0.228909	0.356648
	F1674	F	0.509885	0.227836	0.378206
	F1675	F	0.760117	0.165333	0.440681
	Al1676	Al	0.635209	0.165868	0.429864
	Al1677	Al	0.885203	0.228374	0.367464
	Al1678	Al	0.635081	0.228373	0.367409
	Al1679	Al	0.885261	0.165873	0.429862
	C1680	C	0.599455	0.254751	0.338084
	C1681	C	0.848990	0.192185	0.400363
	C1682	C	0.600668	0.138140	0.455240
	C1683	C	0.850239	0.200631	0.392826
	C1684	C	0.917401	0.189563	0.472478
	C1685	C	0.667400	0.251942	0.410232
	C1686	C	0.922990	0.204488	0.325663
	C1687	C	0.672903	0.142092	0.387818
	C1688	C	0.920883	0.139469	0.459111
	C1689	C	0.670771	0.201962	0.396680
	C1690	C	0.919535	0.255971	0.341532
	C1691	C	0.669551	0.193513	0.404219
	C1692	C	0.602684	0.203281	0.328415
	C1693	C	0.852184	0.140661	0.391166
	C1694	C	0.597175	0.188013	0.475235
	C1695	C	0.846730	0.250648	0.412495
	C1696	C	0.508976	0.251077	0.343609
	C1697	C	0.758660	0.188560	0.406139
	C1698	C	0.511455	0.143109	0.453434
	C1699	C	0.761162	0.205597	0.390966
	C1700	C	0.507684	0.185152	0.467186
	C1701	C	0.757101	0.247698	0.404679
	C1702	C	0.512973	0.207862	0.332827
	C1703	C	0.762553	0.145361	0.395270
	C1704	C	0.508167	0.242080	0.352040
	C1705	C	0.757956	0.179573	0.414515
	C1706	C	0.512270	0.152115	0.445112
	C1707	C	0.762008	0.214598	0.382645
	C1708	C	0.507883	0.177589	0.453118
	C1709	C	0.757297	0.240121	0.390591
	C1710	C	0.512678	0.216108	0.345315
	C1711	C	0.762553	0.153599	0.407779
	H1712	H	0.668235	0.250939	0.339606
	H1713	H	0.917755	0.188340	0.401683
	H1714	H	0.670364	0.140884	0.450649
	H1715	H	0.919895	0.203362	0.388224
	H1716	H	0.847999	0.187460	0.466253
	H1717	H	0.597870	0.249728	0.404253
	H1718	H	0.853542	0.208023	0.328893
	H1719	H	0.603420	0.145705	0.390827
	H1720	H	0.852136	0.143325	0.457787
	H1721	H	0.601850	0.205790	0.395273
	H1722	H	0.849840	0.253179	0.345984
	H1723	H	0.599839	0.190754	0.408725
	H1724	H	0.672019	0.205831	0.333936
	H1725	H	0.921680	0.143093	0.396934
	H1726	H	0.666709	0.184646	0.471318
	H1727	H	0.916312	0.247373	0.408392
	O1728	O	0.086789	0.228582	0.518850
	O1729	O	0.337016	0.166045	0.581257
	O1730	O	0.091664	0.145371	0.604729
	O1731	O	0.341035	0.207939	0.542375
	O1732	O	0.417537	0.164904	0.611394
	O1733	O	0.167485	0.227430	0.548845
	O1734	O	0.422161	0.210243	0.512791
	O1735	O	0.172095	0.147767	0.575227
	O1736	O	0.421656	0.146004	0.606311
	O1737	O	0.171769	0.208488	0.543769
	O1738	O	0.417807	0.229117	0.520204
	O1739	O	0.167730	0.166635	0.582818
	O1740	O	0.091370	0.209626	0.513751
	O1741	O	0.341239	0.147107	0.576285
	O1742	O	0.086114	0.164262	0.612339
	O1743	O	0.336561	0.226795	0.549850
	F1744	F	0.004583	0.156692	0.583043
	F1745	F	0.254472	0.219208	0.520598
	F1746	F	0.004266	0.217856	0.542050
	F1747	F	0.254132	0.155387	0.604524
	Al1748	Al	0.129398	0.156017	0.593781
	Al1749	Al	0.379414	0.218529	0.531303
	Al1750	Al	0.129409	0.218536	0.531308
	Al1751	Al	0.379434	0.156027	0.593804
	C1752	C	0.093396	0.244989	0.502273
	C1753	C	0.343706	0.182419	0.564511
	C1754	C	0.094827	0.128250	0.619162
	C1755	C	0.344861	0.190814	0.556782
	C1756	C	0.412111	0.179494	0.636800
	C1757	C	0.161888	0.241952	0.574392
	C1758	C	0.417785	0.196593	0.485520
	C1759	C	0.167370	0.134067	0.548067
	C1760	C	0.415191	0.129655	0.623159
	C1761	C	0.164953	0.192126	0.560505
	C1762	C	0.413853	0.246199	0.505585
	C1763	C	0.163795	0.183730	0.568228
	C1764	C	0.096552	0.195059	0.488322
	C1765	C	0.346716	0.132551	0.550818
	C1766	C	0.090797	0.177906	0.639581
	C1767	C	0.341027	0.240464	0.577074
	C1768	C	0.002937	0.241326	0.507825
	C1769	C	0.253192	0.178818	0.570324
	C1770	C	0.005650	0.133223	0.617245
	C1771	C	0.255550	0.195738	0.554775
	C1772	C	0.001232	0.175090	0.631472
	C1773	C	0.251583	0.237603	0.569060
	C1774	C	0.006933	0.199453	0.493592
	C1775	C	0.257027	0.136934	0.556085
	C1776	C	0.002272	0.232371	0.516312
	C1777	C	0.252457	0.169864	0.578814
	C1778	C	0.006798	0.142177	0.608776
	C1779	C	0.256286	0.204702	0.546327
	C1780	C	0.001424	0.167578	0.617322
	C1781	C	0.251884	0.230082	0.554878
	C1782	C	0.006876	0.206983	0.507747
	C1783	C	0.256788	0.144453	0.570271
	H1784	H	0.162340	0.241224	0.503957
	H1785	H	0.412674	0.178600	0.565948
	H1786	H	0.164684	0.130940	0.614473
	H1787	H	0.414622	0.193538	0.552164
	H1788	H	0.342706	0.177406	0.630538
	H1789	H	0.092702	0.239813	0.568189
	H1790	H	0.348367	0.199977	0.489426
	H1791	H	0.097663	0.137401	0.552016
	H1792	H	0.346108	0.133469	0.621814
	H1793	H	0.095938	0.195933	0.558984
	H1794	H	0.344108	0.243399	0.509944
	H1795	H	0.094050	0.180972	0.572749
	H1796	H	0.165953	0.197146	0.494560
	H1797	H	0.416101	0.134632	0.557060
	H1798	H	0.160376	0.174527	0.635675
	H1799	H	0.410390	0.237100	0.573084
	O1800	O	0.586988	0.228550	0.518760
	O1801	O	0.836981	0.166027	0.581245
	O1802	O	0.590932	0.145419	0.604772
	O1803	O	0.841191	0.207915	0.542312
	O1804	O	0.916968	0.164946	0.611291
	O1805	O	0.667176	0.227460	0.548797
	O1806	O	0.922346	0.210305	0.512718
	O1807	O	0.672243	0.147737	0.575258
	O1808	O	0.922528	0.146024	0.606365
	O1809	O	0.671936	0.208485	0.543786
	O1810	O	0.917569	0.229133	0.520310
	O1811	O	0.667748	0.166605	0.582745
	O1812	O	0.591211	0.209626	0.513755
	O1813	O	0.841335	0.147060	0.576315
	O1814	O	0.586722	0.164255	0.612355
	O1815	O	0.836342	0.226759	0.549883
	F1816	F	0.504590	0.156680	0.583037
	F1817	F	0.754551	0.219201	0.520612
	F1818	F	0.504337	0.217858	0.542045
	F1819	F	0.754396	0.155340	0.604475
	Al1820	Al	0.629429	0.156008	0.593779
	Al1821	Al	0.879472	0.218535	0.531349
	Al1822	Al	0.629374	0.218521	0.531294
	Al1823	Al	0.879638	0.156016	0.593751
	C1824	C	0.593599	0.244993	0.502237
	C1825	C	0.843862	0.182408	0.564547
	C1826	C	0.594672	0.128270	0.619129
	C1827	C	0.845115	0.190804	0.556832
	C1828	C	0.911519	0.179477	0.636767
	C1829	C	0.661822	0.241949	0.574355
	C1830	C	0.917299	0.196614	0.485555
	C1831	C	0.667468	0.134078	0.548033
	C1832	C	0.915049	0.129661	0.623140
	C1833	C	0.665263	0.192150	0.560604
	C1834	C	0.913674	0.246195	0.505536
	C1835	C	0.664005	0.183750	0.568335
	C1836	C	0.596970	0.195067	0.488310
	C1837	C	0.846882	0.132591	0.550702
	C1838	C	0.591501	0.177901	0.639635
	C1839	C	0.841053	0.240460	0.577062
	C1840	C	0.503185	0.241320	0.507816
	C1841	C	0.753302	0.178815	0.570348
	C1842	C	0.505532	0.133241	0.617245
	C1843	C	0.755780	0.195734	0.554781
	C1844	C	0.501800	0.175095	0.631533
	C1845	C	0.751501	0.237602	0.569049
	C1846	C	0.507239	0.199419	0.493628
	C1847	C	0.757152	0.136931	0.556066
	C1848	C	0.502502	0.232352	0.516239
	C1849	C	0.752475	0.169839	0.578764
	C1850	C	0.506206	0.142193	0.608761
	C1851	C	0.756486	0.204689	0.546313
	C1852	C	0.502064	0.167568	0.617356
	C1853	C	0.751673	0.230076	0.554854
	C1854	C	0.506825	0.206956	0.507761
	C1855	C	0.756896	0.144430	0.570257
	H1856	H	0.662528	0.241213	0.503830
	H1857	H	0.912720	0.178582	0.565994
	H1858	H	0.664584	0.130949	0.614448
	H1859	H	0.914926	0.193543	0.552249
	H1860	H	0.842019	0.177394	0.630524
	H1861	H	0.592627	0.239815	0.568108
	H1862	H	0.847838	0.199984	0.489508
	H1863	H	0.597876	0.137422	0.552006
	H1864	H	0.846072	0.133508	0.621744
	H1865	H	0.596291	0.195971	0.559169
	H1866	H	0.843858	0.243407	0.509912
	H1867	H	0.594222	0.181017	0.572914
	H1868	H	0.666248	0.197193	0.494538
	H1869	H	0.916404	0.134698	0.556872
	H1870	H	0.660998	0.174504	0.635742
	H1871	H	0.910404	0.237107	0.573055
	O1872	O	0.081370	0.218616	0.682372
	O1873	O	0.330929	0.156067	0.744657
	O1874	O	0.085770	0.135661	0.768890
	O1875	O	0.335651	0.198161	0.706434
	O1876	O	0.411509	0.155530	0.774265
	O1877	O	0.161502	0.218010	0.711808
	O1878	O	0.416742	0.200270	0.676910
	O1879	O	0.166529	0.137779	0.739386
	O1880	O	0.416341	0.136328	0.770561
	O1881	O	0.166419	0.198824	0.708156
	O1882	O	0.411724	0.219247	0.683924
	O1883	O	0.161676	0.156760	0.746512
	O1884	O	0.085449	0.199574	0.678034
	O1885	O	0.335615	0.137077	0.740485
	O1886	O	0.080611	0.154862	0.775479
	O1887	O	0.330736	0.217337	0.713029
	F1888	F	-0.001175	0.146703	0.746759
	F1889	F	0.248984	0.209205	0.684309
	F1890	F	-0.001290	0.208142	0.705994
	F1891	F	0.248617	0.145652	0.768421
	Al1892	Al	0.123687	0.146199	0.757657
	Al1893	Al	0.373656	0.208692	0.695186
	Al1894	Al	0.123866	0.208681	0.695183
	Al1895	Al	0.373749	0.146191	0.757597
	C1896	C	0.087908	0.235106	0.665881
	C1897	C	0.337844	0.172497	0.728055
	C1898	C	0.088940	0.118480	0.783108
	C1899	C	0.339131	0.180940	0.720499
	C1900	C	0.406121	0.171440	0.796284
	C1901	C	0.156423	0.233878	0.733929
	C1902	C	0.412041	0.186550	0.649851
	C1903	C	0.161705	0.123991	0.712435
	C1904	C	0.409458	0.119944	0.787415
	C1905	C	0.159519	0.182459	0.725044
	C1906	C	0.408340	0.236430	0.669732
	C1907	C	0.158216	0.174017	0.732595
	C1908	C	0.090743	0.184961	0.652646
	C1909	C	0.341053	0.122479	0.715137
	C1910	C	0.085407	0.169945	0.799735
	C1911	C	0.335506	0.232485	0.737148
	C1912	C	-0.002379	0.231492	0.671725
	C1913	C	0.247321	0.168945	0.734069
	C1914	C	-0.000122	0.123499	0.781411
	C1915	C	0.249897	0.185974	0.718877
	C1916	C	-0.004144	0.166703	0.792202
	C1917	C	0.245963	0.229185	0.729807
	C1918	C	0.001123	0.189370	0.657896
	C1919	C	0.251338	0.126858	0.720420
	C1920	C	-0.003030	0.222477	0.680001
	C1921	C	0.246467	0.159937	0.742366
	C1922	C	0.000980	0.132467	0.772966
	C1923	C	0.250836	0.194963	0.710499
	C1924	C	-0.003973	0.158457	0.779701
	C1925	C	0.246119	0.220921	0.717288
	C1926	C	0.000985	0.196935	0.671962
	C1927	C	0.251120	0.134426	0.734491
	H1928	H	0.156835	0.231267	0.667203
	H1929	H	0.406717	0.168597	0.729173
	H1930	H	0.158760	0.121165	0.778391
	H1931	H	0.408961	0.183618	0.715699
	H1932	H	0.336612	0.169037	0.790472
	H1933	H	0.087049	0.231413	0.728227
	H1934	H	0.342499	0.189934	0.653758
	H1935	H	0.092152	0.127348	0.716395
	H1936	H	0.340745	0.123835	0.786216
	H1937	H	0.090629	0.186388	0.724007
	H1938	H	0.338680	0.233685	0.674322
	H1939	H	0.088499	0.171356	0.737477
	H1940	H	0.160239	0.187055	0.658871
	H1941	H	0.410377	0.124584	0.721361
	H1942	H	0.154885	0.166297	0.796803
	H1943	H	0.404829	0.228871	0.734104
	O1944	O	0.580960	0.218604	0.682310
	O1945	O	0.830907	0.156080	0.744636
	O1946	O	0.585522	0.135692	0.768944
	O1947	O	0.835858	0.198172	0.706470
	O1948	O	0.911480	0.155564	0.774162
	O1949	O	0.661504	0.218010	0.711803
	O1950	O	0.916423	0.200280	0.676874
	O1951	O	0.666447	0.137774	0.739422
	O1952	O	0.916613	0.136311	0.770545
	O1953	O	0.666561	0.198826	0.708114
	O1954	O	0.912148	0.219249	0.683938
	O1955	O	0.661655	0.156770	0.746443
	O1956	O	0.585836	0.199590	0.678014
	O1957	O	0.835430	0.137085	0.740463
	O1958	O	0.580693	0.154870	0.775545
	O1959	O	0.830631	0.217373	0.712999
	F1960	F	0.498884	0.146736	0.746831
	F1961	F	0.749063	0.209214	0.684361
	F1962	F	0.498547	0.208178	0.705933
	F1963	F	0.748850	0.145693	0.768407
	Al1964	Al	0.623691	0.146223	0.757685
	Al1965	Al	0.873971	0.208703	0.695193
	Al1966	Al	0.623841	0.208691	0.695157
	Al1967	Al	0.873921	0.146195	0.757536
	C1968	C	0.587841	0.235093	0.665865
	C1969	C	0.837795	0.172491	0.728013
	C1970	C	0.588892	0.118484	0.783058
	C1971	C	0.839045	0.180940	0.720480
	C1972	C	0.906238	0.171445	0.796243
	C1973	C	0.655940	0.233871	0.733880
	C1974	C	0.911441	0.186535	0.649836
	C1975	C	0.661530	0.124021	0.712336
	C1976	C	0.909436	0.119936	0.787389
	C1977	C	0.659480	0.182475	0.725039
	C1978	C	0.908305	0.236441	0.669799
	C1979	C	0.658248	0.174029	0.732575
	C1980	C	0.591327	0.184961	0.652685
	C1981	C	0.840926	0.122493	0.715098
	C1982	C	0.585441	0.169920	0.799811
	C1983	C	0.835108	0.232472	0.737210
	C1984	C	0.497362	0.231452	0.671609
	C1985	C	0.747333	0.168968	0.734091
	C1986	C	0.499774	0.123495	0.781377
	C1987	C	0.749937	0.185986	0.718892
	C1988	C	0.495809	0.166686	0.792262
	C1989	C	0.745634	0.229176	0.729765
	C1990	C	0.501677	0.189384	0.657900
	C1991	C	0.751165	0.126853	0.720414
	C1992	C	0.496532	0.222464	0.679943
	C1993	C	0.746461	0.159949	0.742349
	C1994	C	0.500731	0.132483	0.772977
	C1995	C	0.751013	0.194976	0.710523
	C1996	C	0.495997	0.158443	0.779773
	C1997	C	0.745986	0.220941	0.717255
	C1998	C	0.501420	0.196936	0.672004
	C1999	C	0.751009	0.134438	0.734450
	H2000	H	0.656781	0.231259	0.667240
	H2001	H	0.906645	0.168565	0.729076
	H2002	H	0.658494	0.121179	0.778265
	H2003	H	0.908824	0.183611	0.715669
	H2004	H	0.836768	0.169042	0.790419
	H2005	H	0.586586	0.231427	0.728125
	H2006	H	0.841857	0.189920	0.653719
	H2007	H	0.591980	0.127403	0.716240
	H2008	H	0.840656	0.123827	0.786203
	H2009	H	0.590737	0.186399	0.723995
	H2010	H	0.838462	0.233692	0.674362
	H2011	H	0.588459	0.171355	0.737410
	H2012	H	0.660838	0.187027	0.658943
	H2013	H	0.910447	0.124607	0.721294
	H2014	H	0.655019	0.166258	0.796941
	H2015	H	0.904592	0.228866	0.734194
	O2016	O	0.075369	0.213588	0.832003
	O2017	O	0.325479	0.151050	0.894408
	O2018	O	0.079618	0.131782	0.922254
	O2019	O	0.329775	0.194231	0.859566
	O2020	O	0.405400	0.152697	0.921155
	O2021	O	0.155194	0.215199	0.858725
	O2022	O	0.410975	0.194685	0.830691
	O2023	O	0.160648	0.132136	0.893361
	O2024	O	0.410286	0.132345	0.923612
	O2025	O	0.160465	0.194836	0.861033
	O2026	O	0.405970	0.214144	0.833197
	O2027	O	0.156095	0.151638	0.895753
	O2028	O	0.079774	0.194068	0.832044
	O2029	O	0.329537	0.131578	0.894537
	O2030	O	0.074697	0.152198	0.922673
	O2031	O	0.324753	0.214678	0.860134
	F2032	F	-0.007182	0.141440	0.897900
	F2033	F	0.242922	0.203958	0.835383
	F2034	F	-0.007087	0.204484	0.857725
	F2035	F	0.242670	0.142019	0.920179
	Al2036	Al	0.117772	0.141738	0.909137
	Al2037	Al	0.367820	0.204235	0.846556
	Al2038	Al	0.117845	0.204228	0.846650
	Al2039	Al	0.367745	0.141720	0.909124
	C2040	C	0.082243	0.230519	0.816628
	C2041	C	0.332490	0.167975	0.878938
	C2042	C	0.083202	0.114211	0.935089
	C2043	C	0.333588	0.176666	0.872392
	C2044	C	0.404909	0.171790	0.923770
	C2045	C	0.155006	0.234301	0.861349
	C2046	C	0.406103	0.179280	0.807478
	C2047	C	0.155983	0.116645	0.870254
	C2048	C	0.403517	0.115408	0.938881
	C2049	C	0.153679	0.177900	0.876327
	C2050	C	0.402552	0.231736	0.820448
	C2051	C	0.152617	0.169189	0.882840
	C2052	C	0.085303	0.177781	0.810948
	C2053	C	0.335284	0.115392	0.873199
	C2054	C	0.084611	0.171141	0.927729
	C2055	C	0.335040	0.233627	0.865250
	C2056	C	-0.008371	0.226649	0.821832
	C2057	C	0.241911	0.164120	0.884209
	C2058	C	-0.006125	0.119261	0.933636
	C2059	C	0.244222	0.181740	0.871046
	C2060	C	-0.007022	0.166616	0.925352
	C2061	C	0.243319	0.229108	0.862931
	C2062	C	-0.004273	0.182559	0.814851
	C2063	C	0.245545	0.120042	0.877424
	C2064	C	-0.009041	0.217454	0.829596
	C2065	C	0.241081	0.154934	0.892016
	C2066	C	-0.005357	0.128471	0.925908
	C2067	C	0.244844	0.190927	0.863293
	C2068	C	-0.009251	0.156425	0.922900
	C2069	C	0.240784	0.218916	0.860476
	C2070	C	-0.004501	0.191030	0.826737
	C2071	C	0.245230	0.128508	0.889343
	H2072	H	0.151539	0.226649	0.817611
	H2073	H	0.401887	0.164122	0.879865
	H2074	H	0.153340	0.117097	0.930959
	H2075	H	0.403736	0.179522	0.868171
	H2076	H	0.333843	0.168384	0.921799
	H2077	H	0.083878	0.230900	0.859382
	H2078	H	0.336732	0.182950	0.810370
	H2079	H	0.086471	0.120214	0.873355
	H2080	H	0.334354	0.119282	0.937904
	H2081	H	0.084409	0.181791	0.875425
	H2082	H	0.332334	0.228862	0.824613
	H2083	H	0.082386	0.166304	0.887020
	H2084	H	0.154674	0.180216	0.816738
	H2085	H	0.404710	0.117920	0.878773
	H2086	H	0.153256	0.167203	0.929027
	H2087	H	0.403752	0.229687	0.866515
	O2088	O	0.575248	0.213568	0.831919
	O2089	O	0.825103	0.151069	0.894379
	O2090	O	0.579682	0.131766	0.922183
	O2091	O	0.829427	0.194246	0.859666
	O2092	O	0.905187	0.152704	0.921123
	O2093	O	0.654778	0.215217	0.858614
	O2094	O	0.910862	0.194689	0.830633
	O2095	O	0.660836	0.132139	0.893286
	O2096	O	0.910375	0.132361	0.923582
	O2097	O	0.660101	0.194829	0.861004
	O2098	O	0.905962	0.214146	0.833289
	O2099	O	0.655784	0.151646	0.895736
	O2100	O	0.579999	0.194057	0.832032
	O2101	O	0.829704	0.131547	0.894517
	O2102	O	0.574894	0.152176	0.922644
	O2103	O	0.824174	0.214688	0.860203
	F2104	F	0.492908	0.141419	0.897933
	F2105	F	0.742995	0.203958	0.835401
	F2106	F	0.492498	0.204481	0.857597
	F2107	F	0.742815	0.141988	0.920076
	Al2108	Al	0.617834	0.141723	0.909081
	Al2109	Al	0.867842	0.204233	0.846613
	Al2110	Al	0.617720	0.204221	0.846577
	Al2111	Al	0.868147	0.141724	0.909036
	C2112	C	0.582296	0.230497	0.816487
	C2113	C	0.832107	0.168018	0.879099
	C2114	C	0.583388	0.114223	0.935029
	C2115	C	0.833184	0.176710	0.872561
	C2116	C	0.904636	0.171824	0.923762
	C2117	C	0.654509	0.234312	0.861256
	C2118	C	0.906127	0.179278	0.807447
	C2119	C	0.655611	0.116675	0.870168
	C2120	C	0.903232	0.115398	0.938827
	C2121	C	0.653224	0.177895	0.876338
	C2122	C	0.902304	0.231728	0.820482
	C2123	C	0.652118	0.169189	0.882855
	C2124	C	0.585447	0.177762	0.811016
	C2125	C	0.834984	0.115361	0.873217
	C2126	C	0.584906	0.171127	0.927700
	C2127	C	0.834412	0.233628	0.865350
	C2128	C	0.491749	0.226640	0.821764
	C2129	C	0.741455	0.164145	0.884291
	C2130	C	0.494069	0.119275	0.933696
	C2131	C	0.743828	0.181760	0.871153
	C2132	C	0.493267	0.166593	0.925381
	C2133	C	0.742783	0.229107	0.862873
	C2134	C	0.495822	0.182553	0.814878
	C2135	C	0.745397	0.120031	0.877370
	C2136	C	0.490894	0.217455	0.829514
	C2137	C	0.740665	0.154944	0.892012
	C2138	C	0.494773	0.128462	0.925933
	C2139	C	0.744499	0.190940	0.863382
	C2140	C	0.490944	0.156410	0.922932
	C2141	C	0.740272	0.218927	0.860424
	C2142	C	0.495617	0.191028	0.826756
	C2143	C	0.745368	0.128496	0.889295
	H2144	H	0.651555	0.226611	0.817404
	H2145	H	0.901488	0.164173	0.880077
	H2146	H	0.653495	0.117099	0.930818
	H2147	H	0.903367	0.179574	0.868404
	H2148	H	0.833530	0.168417	0.921826
	H2149	H	0.583371	0.230912	0.859248
	H2150	H	0.836635	0.182941	0.810300
	H2151	H	0.586336	0.120286	0.873261
	H2152	H	0.834063	0.119276	0.937848
	H2153	H	0.583951	0.181774	0.875345
	H2154	H	0.832021	0.228856	0.824626
	H2155	H	0.581934	0.166285	0.886947
	H2156	H	0.654868	0.180183	0.816844
	H2157	H	0.904371	0.117878	0.878833
	H2158	H	0.653633	0.167189	0.928946
	H2159	H	0.903074	0.229685	0.866694
	O2160	O	0.082493	0.220149	0.926066
	O2161	O	0.332306	0.157601	0.988517
	O2162	O	0.086205	0.139136	1.018737
	O2163	O	0.336502	0.201573	0.956104
	O2164	O	0.412268	0.159962	1.014532
	O2165	O	0.162455	0.222429	0.952159
	O2166	O	0.417700	0.200216	0.929551
	O2167	O	0.167552	0.137703	0.992229
	O2168	O	0.417090	0.139537	1.019627
	O2169	O	0.167147	0.202029	0.956992
	O2170	O	0.413233	0.220546	0.926888
	O2171	O	0.162962	0.158049	0.989427
	O2172	O	0.087189	0.199753	0.931073
	O2173	O	0.336902	0.137240	0.993657
	O2174	O	0.081841	0.159577	1.015924
	O2175	O	0.331963	0.222073	0.953341
	F2176	F	-0.000027	0.147743	0.992885
	F2177	F	0.249946	0.210266	0.930349
	F2178	F	-0.000197	0.211929	0.952827
	F2179	F	0.249553	0.149459	1.015366
	Al2180	Al	0.124814	0.148615	1.004143
	Al2181	Al	0.374725	0.211103	0.941576
	Al2182	Al	0.124857	0.211093	0.941588
	Al2183	Al	0.374609	0.148592	1.004135
	C2184	C	0.088882	0.237385	0.911419
	C2185	C	0.339196	0.174859	0.973977
	C2186	C	0.090342	0.121289	1.030811
	C2187	C	0.340332	0.183746	0.968278
	C2188	C	0.410468	0.179076	1.015985
	C2189	C	0.160442	0.241566	0.953427
	C2190	C	0.407985	0.181285	0.924571
	C2191	C	0.157988	0.118774	0.987152
	C2192	C	0.410378	0.122194	1.033709
	C2193	C	0.160177	0.184678	0.971158
	C2194	C	0.409187	0.238278	0.914321
	C2195	C	0.158973	0.175793	0.976846
	C2196	C	0.087865	0.180632	0.928516
	C2197	C	0.338035	0.118108	0.991041
	C2198	C	0.090818	0.178577	1.019258
	C2199	C	0.340853	0.241049	0.956791
	C2200	C	-0.001775	0.233256	0.915871
	C2201	C	0.248468	0.170751	0.978414
	C2202	C	0.000891	0.126348	1.029422
	C2203	C	0.250892	0.188798	0.966796
	C2204	C	-0.000755	0.173972	1.017626
	C2205	C	0.249297	0.236450	0.955111
	C2206	C	-0.000399	0.185827	0.926901
	C2207	C	0.249560	0.123298	0.989562
	C2208	C	-0.002094	0.223943	0.923394
	C2209	C	0.247831	0.161451	0.985920
	C2210	C	0.001311	0.135721	1.022155
	C2211	C	0.251566	0.198150	0.959483
	C2212	C	-0.002379	0.163759	1.015967
	C2213	C	0.247657	0.226237	0.953477
	C2214	C	0.001852	0.196020	0.929268
	C2215	C	0.251595	0.133489	0.991947
	H2216	H	0.158687	0.233578	0.912368
	H2217	H	0.408826	0.171047	0.974967
	H2218	H	0.161013	0.124347	1.027395
	H2219	H	0.410863	0.186784	0.964886
	H2220	H	0.339324	0.175614	1.014603
	H2221	H	0.089378	0.238089	0.952091
	H2222	H	0.339372	0.185220	0.923284
	H2223	H	0.089299	0.122708	0.985849
	H2224	H	0.340691	0.126019	1.032741
	H2225	H	0.090414	0.188492	0.970147
	H2226	H	0.338398	0.235225	0.917676
	H2227	H	0.088210	0.172722	0.980196
	H2228	H	0.158976	0.184032	0.930471
	H2229	H	0.409166	0.121519	0.992913
	H2230	H	0.159892	0.174707	1.020585
	H2231	H	0.410024	0.237182	0.958175
	O2232	O	0.582658	0.220101	0.926035
	O2233	O	0.831919	0.157618	0.988464
	O2234	O	0.586518	0.139103	1.018662
	O2235	O	0.835915	0.201564	0.956107
	O2236	O	0.912323	0.159955	1.014604
	O2237	O	0.662148	0.222454	0.952117
	O2238	O	0.917880	0.200237	0.929460
	O2239	O	0.667556	0.137708	0.992107
	O2240	O	0.916821	0.139617	1.019778
	O2241	O	0.666529	0.202052	0.957158
	O2242	O	0.913091	0.220506	0.926801
	O2243	O	0.662509	0.158058	0.989365
	O2244	O	0.587046	0.199751	0.931137
	O2245	O	0.836810	0.137238	0.993654
	O2246	O	0.581784	0.159568	1.015880
	O2247	O	0.831614	0.222095	0.953352
	F2248	F	0.499671	0.147731	0.992889
	F2249	F	0.749852	0.210262	0.930457
	F2250	F	0.499278	0.211942	0.952861
	F2251	F	0.749516	0.149471	1.015257
	Al2252	Al	0.624625	0.148611	1.004087
	Al2253	Al	0.875010	0.211105	0.941607
	Al2254	Al	0.624585	0.211102	0.941671
	Al2255	Al	0.874948	0.148611	1.004122
	C2256	C	0.589433	0.237351	0.911370
	C2257	C	0.838569	0.174860	0.973884
	C2258	C	0.590517	0.121247	1.030699
	C2259	C	0.839727	0.183751	0.968221
	C2260	C	0.910324	0.179082	1.015970
	C2261	C	0.660180	0.241590	0.953448
	C2262	C	0.907867	0.181307	0.924563
	C2263	C	0.657528	0.118796	0.987016
	C2264	C	0.910207	0.122210	1.033829
	C2265	C	0.659471	0.184680	0.971198
	C2266	C	0.908694	0.238316	0.914387
	C2267	C	0.658377	0.175785	0.976848
	C2268	C	0.588027	0.180618	0.928495
	C2269	C	0.837311	0.118097	0.991127
	C2270	C	0.590915	0.178545	1.019331
	C2271	C	0.840484	0.241086	0.956845
	C2272	C	0.498771	0.233241	0.915861
	C2273	C	0.747937	0.170751	0.978336
	C2274	C	0.501109	0.126305	1.029296
	C2275	C	0.750195	0.188802	0.966796
	C2276	C	0.499264	0.173957	1.017706
	C2277	C	0.748973	0.236477	0.955171
	C2278	C	0.499649	0.185809	0.926954
	C2279	C	0.749161	0.123303	0.989510
	C2280	C	0.498171	0.223943	0.923411
	C2281	C	0.747394	0.161453	0.985861
	C2282	C	0.501658	0.135663	1.022041
	C2283	C	0.750949	0.198156	0.959537
	C2284	C	0.497553	0.163747	1.016001
	C2285	C	0.747305	0.226261	0.953495
	C2286	C	0.501753	0.196001	0.929346
	C2287	C	0.751564	0.133491	0.991884
	H2288	H	0.659239	0.233543	0.912314
	H2289	H	0.908439	0.171049	0.974826
	H2290	H	0.661186	0.124283	1.027246
	H2291	H	0.910343	0.186813	0.964808
	H2292	H	0.839218	0.175603	1.014660
	H2293	H	0.589091	0.238118	0.952041
	H2294	H	0.839264	0.185259	0.923317
	H2295	H	0.588994	0.122737	0.985613
	H2296	H	0.840467	0.126030	1.032900
	H2297	H	0.589823	0.188494	0.970269
	H2298	H	0.838026	0.235262	0.917788
	H2299	H	0.587707	0.172724	0.980242
	H2300	H	0.659113	0.184042	0.930378
	H2301	H	0.908487	0.121494	0.993064
	H2302	H	0.659935	0.174659	1.020660
	H2303	H	0.909635	0.237222	0.958218
	O2304	O	0.091257	0.359978	-0.019841
	O2305	O	0.342233	0.297554	0.042903
	O2306	O	0.095494	0.279045	0.073055
	O2307	O	0.345575	0.341498	0.010389
	O2308	O	0.422199	0.299778	0.068935
	O2309	O	0.171396	0.362318	0.006101
	O2310	O	0.427010	0.339987	-0.016036
	O2311	O	0.176970	0.277472	0.046669
	O2312	O	0.426279	0.279461	0.073986
	O2313	O	0.176220	0.341939	0.011250
	O2314	O	0.422257	0.360471	-0.018833
	O2315	O	0.172813	0.297977	0.043831
	O2316	O	0.095946	0.339616	-0.014804
	O2317	O	0.346439	0.277098	0.047998
	O2318	O	0.091186	0.299351	0.070287
	O2319	O	0.340790	0.361850	0.007642
	F2320	F	0.009814	0.287594	0.046976
	F2321	F	0.259097	0.350085	-0.015563
	F2322	F	0.009233	0.351825	0.007034
	F2323	F	0.258975	0.289308	0.069602
	Al2324	Al	0.134324	0.288461	0.058336
	Al2325	Al	0.383955	0.350954	-0.004296
	Al2326	Al	0.134036	0.350962	-0.004335
	Al2327	Al	0.384128	0.288463	0.058376
	C2328	C	0.097981	0.377385	-0.033756
	C2329	C	0.348956	0.314894	0.028750
	C2330	C	0.099361	0.261315	0.085621
	C2331	C	0.349886	0.323776	0.023015
	C2332	C	0.421065	0.318916	0.071552
	C2333	C	0.170718	0.381466	0.008865
	C2334	C	0.418226	0.320986	-0.019421
	C2335	C	0.167994	0.258506	0.043244
	C2336	C	0.419597	0.262212	0.088504
	C2337	C	0.169760	0.324698	0.025980
	C2338	C	0.418440	0.378300	-0.030919
	C2339	C	0.168810	0.315821	0.031734
	C2340	C	0.098008	0.320492	-0.016037
	C2341	C	0.348455	0.257977	0.046530
	C2342	C	0.100733	0.318280	0.075284
	C2343	C	0.350773	0.380767	0.012719
	C2344	C	0.007235	0.373249	-0.029385
	C2345	C	0.258282	0.310763	0.033147
	C2346	C	0.009868	0.266356	0.084108
	C2347	C	0.260330	0.328811	0.021484
	C2348	C	0.009150	0.313755	0.072869
	C2349	C	0.259010	0.376263	0.010338
	C2350	C	0.009104	0.325590	-0.017751
	C2351	C	0.259565	0.263093	0.044878
	C2352	C	0.006714	0.363879	-0.022188
	C2353	C	0.257662	0.301414	0.040427
	C2354	C	0.010545	0.275659	0.076572
	C2355	C	0.260701	0.338097	0.013900
	C2356	C	0.007143	0.303560	0.070489
	C2357	C	0.256727	0.366067	0.007880
	C2358	C	0.010680	0.335804	-0.016112
	C2359	C	0.261240	0.273301	0.046568
	H2360	H	0.167750	0.373570	-0.032845
	H2361	H	0.418730	0.311096	0.029728
	H2362	H	0.170092	0.264366	0.082245
	H2363	H	0.420561	0.326824	0.019592
	H2364	H	0.349972	0.315500	0.069733
	H2365	H	0.099620	0.378053	0.006963
	H2366	H	0.349164	0.324848	-0.020838
	H2367	H	0.098891	0.262376	0.041936
	H2368	H	0.349961	0.266030	0.087528
	H2369	H	0.099973	0.328494	0.024979
	H2370	H	0.347687	0.375227	-0.027593
	H2371	H	0.098271	0.312766	0.035179
	H2372	H	0.169025	0.323980	-0.014700
	H2373	H	0.419434	0.261467	0.047884
	H2374	H	0.169415	0.314349	0.076594
	H2375	H	0.419378	0.376811	0.013968
	O2376	O	0.591818	0.360016	-0.019691
	O2377	O	0.841676	0.297505	0.042687
	O2378	O	0.595674	0.279036	0.073053
	O2379	O	0.845288	0.341514	0.010659
	O2380	O	0.921768	0.299797	0.068742
	O2381	O	0.671214	0.362298	0.006413
	O2382	O	0.926367	0.339994	-0.015968
	O2383	O	0.676793	0.277453	0.046563
	O2384	O	0.926137	0.279528	0.073973
	O2385	O	0.675906	0.341958	0.011524
	O2386	O	0.921777	0.360443	-0.018706
	O2387	O	0.672254	0.297921	0.043647
	O2388	O	0.596550	0.339623	-0.014627
	O2389	O	0.846329	0.277061	0.047734
	O2390	O	0.591692	0.299343	0.070214
	O2391	O	0.840738	0.361856	0.007954
	F2392	F	0.509241	0.287589	0.047105
	F2393	F	0.759424	0.350115	-0.015262
	F2394	F	0.508666	0.351821	0.006969
	F2395	F	0.759237	0.289285	0.069374
	Al2396	Al	0.634169	0.288430	0.058261
	Al2397	Al	0.884271	0.350968	-0.004083
	Al2398	Al	0.633980	0.350972	-0.004165
	Al2399	Al	0.884598	0.288448	0.058148
	C2400	C	0.598838	0.377402	-0.033701
	C2401	C	0.848197	0.314858	0.028676
	C2402	C	0.599852	0.261298	0.085604
	C2403	C	0.849224	0.323761	0.023053
	C2404	C	0.920693	0.318953	0.071378
	C2405	C	0.670021	0.381437	0.009037
	C2406	C	0.917636	0.320969	-0.019449
	C2407	C	0.667630	0.258472	0.043199
	C2408	C	0.919112	0.262239	0.088559
	C2409	C	0.669124	0.324685	0.026066
	C2410	C	0.917684	0.378316	-0.030812
	C2411	C	0.668067	0.315786	0.031703
	C2412	C	0.598566	0.320486	-0.015957
	C2413	C	0.848039	0.257956	0.046558
	C2414	C	0.601214	0.318262	0.075265
	C2415	C	0.850106	0.380775	0.012856
	C2416	C	0.508016	0.373260	-0.029408
	C2417	C	0.757553	0.310731	0.033070
	C2418	C	0.510313	0.266321	0.084061
	C2419	C	0.759766	0.328809	0.021627
	C2420	C	0.509583	0.313726	0.072968
	C2421	C	0.758473	0.376258	0.010567
	C2422	C	0.509734	0.325589	-0.017725
	C2423	C	0.759269	0.263064	0.044851
	C2424	C	0.507301	0.363898	-0.022163
	C2425	C	0.757075	0.301368	0.040285
	C2426	C	0.510860	0.275620	0.076540
	C2427	C	0.760386	0.338112	0.014139
	C2428	C	0.507539	0.303541	0.070582
	C2429	C	0.756555	0.366054	0.008180
	C2430	C	0.511351	0.335816	-0.016096
	C2431	C	0.761015	0.273273	0.046437
	H2432	H	0.668666	0.373603	-0.032671
	H2433	H	0.917996	0.311054	0.029581
	H2434	H	0.670496	0.264362	0.082231
	H2435	H	0.919886	0.326806	0.019650
	H2436	H	0.849538	0.315541	0.069487
	H2437	H	0.599026	0.378000	0.007183
	H2438	H	0.848459	0.324821	-0.020858
	H2439	H	0.598678	0.262356	0.041806
	H2440	H	0.849439	0.266058	0.087609
	H2441	H	0.599479	0.328503	0.025117
	H2442	H	0.846929	0.375268	-0.027434
	H2443	H	0.597572	0.312717	0.035122
	H2444	H	0.669599	0.323967	-0.014551
	H2445	H	0.919135	0.261422	0.047908
	H2446	H	0.669947	0.314331	0.076508
	H2447	H	0.918780	0.376838	0.014116
	O2448	O	0.098721	0.367213	0.076349
	O2449	O	0.348602	0.304723	0.138916
	O2450	O	0.102547	0.285448	0.166785
	O2451	O	0.352860	0.347939	0.104296
	O2452	O	0.428920	0.305465	0.168079
	O2453	O	0.178979	0.367952	0.105531
	O2454	O	0.433926	0.347344	0.077439
	O2455	O	0.183865	0.284865	0.139897
	O2456	O	0.433287	0.286034	0.168190
	O2457	O	0.183464	0.348473	0.105446
	O2458	O	0.429209	0.367762	0.077748
	O2459	O	0.179301	0.305278	0.140225
	O2460	O	0.103524	0.346862	0.078799
	O2461	O	0.353350	0.284348	0.141389
	O2462	O	0.097697	0.304974	0.169089
	O2463	O	0.348103	0.367449	0.106637
	F2464	F	0.016201	0.295074	0.142285
	F2465	F	0.266222	0.357576	0.079802
	F2466	F	0.015708	0.358139	0.102044
	F2467	F	0.265519	0.295640	0.164601
	Al2468	Al	0.140888	0.295338	0.153374
	Al2469	Al	0.391106	0.357829	0.090872
	Al2470	Al	0.141075	0.357836	0.090820
	Al2471	Al	0.390781	0.295348	0.153437
	C2472	C	0.104946	0.384155	0.061037
	C2473	C	0.355372	0.321694	0.123701
	C2474	C	0.106025	0.267881	0.179594
	C2475	C	0.356554	0.330405	0.117222
	C2476	C	0.423389	0.321586	0.189620
	C2477	C	0.173283	0.384166	0.126791
	C2478	C	0.424064	0.328407	0.072349
	C2479	C	0.173773	0.265934	0.134763
	C2480	C	0.426387	0.269091	0.183538
	C2481	C	0.176496	0.331507	0.120656
	C2482	C	0.425255	0.385356	0.065094
	C2483	C	0.175406	0.322802	0.127180
	C2484	C	0.103906	0.327769	0.076108
	C2485	C	0.353992	0.265260	0.138714
	C2486	C	0.102535	0.320490	0.192108
	C2487	C	0.352736	0.382897	0.129713
	C2488	C	0.014523	0.380280	0.066260
	C2489	C	0.264916	0.317790	0.128758
	C2490	C	0.016675	0.272941	0.178204
	C2491	C	0.267109	0.335419	0.115629
	C2492	C	0.012816	0.317032	0.185127
	C2493	C	0.263030	0.379523	0.122573
	C2494	C	0.015607	0.332962	0.074521
	C2495	C	0.265537	0.270437	0.137149
	C2496	C	0.014196	0.371079	0.074011
	C2497	C	0.264203	0.308609	0.136551
	C2498	C	0.017618	0.282139	0.170469
	C2499	C	0.267909	0.344613	0.107900
	C2500	C	0.013047	0.308572	0.173224
	C2501	C	0.263331	0.371046	0.110679
	C2502	C	0.018037	0.343144	0.077013
	C2503	C	0.267820	0.280629	0.139593
	H2504	H	0.174347	0.380303	0.061980
	H2505	H	0.424690	0.317867	0.124776
	H2506	H	0.176277	0.270772	0.175499
	H2507	H	0.426663	0.333327	0.113264
	H2508	H	0.353900	0.319000	0.184242
	H2509	H	0.103826	0.381619	0.121257
	H2510	H	0.355326	0.332336	0.071192
	H2511	H	0.105341	0.269909	0.133518
	H2512	H	0.357280	0.272979	0.182633
	H2513	H	0.107128	0.335328	0.119536
	H2514	H	0.355361	0.382493	0.069441
	H2515	H	0.105231	0.319880	0.131203
	H2516	H	0.174981	0.331167	0.078085
	H2517	H	0.424850	0.268700	0.140696
	H2518	H	0.172118	0.316990	0.188855
	H2519	H	0.422196	0.379316	0.126600
	O2520	O	0.598609	0.367174	0.076274
	O2521	O	0.848239	0.304761	0.139002
	O2522	O	0.602595	0.285417	0.166735
	O2523	O	0.852541	0.347935	0.104349
	O2524	O	0.928587	0.305481	0.168082
	O2525	O	0.678935	0.367996	0.105377
	O2526	O	0.933972	0.347376	0.077303
	O2527	O	0.683513	0.284894	0.139719
	O2528	O	0.933140	0.286024	0.168079
	O2529	O	0.683138	0.348447	0.105417
	O2530	O	0.929369	0.367746	0.077711
	O2531	O	0.678856	0.305294	0.140245
	O2532	O	0.603470	0.346852	0.078754
	O2533	O	0.852951	0.284323	0.141361
	O2534	O	0.597904	0.304937	0.169181
	O2535	O	0.847989	0.367444	0.106632
	F2536	F	0.515871	0.295066	0.142377
	F2537	F	0.766365	0.357542	0.079860
	F2538	F	0.515942	0.358115	0.102050
	F2539	F	0.765570	0.295627	0.164547
	Al2540	Al	0.640748	0.295329	0.153375
	Al2541	Al	0.891346	0.357834	0.090949
	Al2542	Al	0.641106	0.357817	0.090790
	Al2543	Al	0.890867	0.295348	0.153396
	C2544	C	0.604930	0.384079	0.060772
	C2545	C	0.854973	0.321694	0.123765
	C2546	C	0.606093	0.267843	0.179460
	C2547	C	0.856088	0.330391	0.117258
	C2548	C	0.923066	0.321628	0.189484
	C2549	C	0.673091	0.384164	0.126781
	C2550	C	0.923880	0.328441	0.072185
	C2551	C	0.673138	0.265922	0.134770
	C2552	C	0.926093	0.269075	0.183434
	C2553	C	0.676057	0.331535	0.120764
	C2554	C	0.925009	0.385324	0.064820
	C2555	C	0.674896	0.322837	0.127315
	C2556	C	0.604141	0.327756	0.076085
	C2557	C	0.853253	0.265277	0.138736
	C2558	C	0.602878	0.320485	0.192113
	C2559	C	0.852518	0.382917	0.129694
	C2560	C	0.514504	0.380269	0.066238
	C2561	C	0.764370	0.317818	0.128883
	C2562	C	0.516913	0.272939	0.178258
	C2563	C	0.766729	0.335430	0.115737
	C2564	C	0.513087	0.316990	0.185202
	C2565	C	0.762844	0.379502	0.122593
	C2566	C	0.515760	0.332938	0.074583
	C2567	C	0.764828	0.270448	0.137095
	C2568	C	0.514086	0.371066	0.073981
	C2569	C	0.763778	0.308633	0.136629
	C2570	C	0.517666	0.282134	0.170509
	C2571	C	0.767581	0.344606	0.107944
	C2572	C	0.513250	0.308533	0.173291
	C2573	C	0.763270	0.371054	0.110634
	C2574	C	0.517993	0.343127	0.077048
	C2575	C	0.767327	0.280635	0.139481
	H2576	H	0.674137	0.380171	0.061511
	H2577	H	0.924284	0.317846	0.124803
	H2578	H	0.676207	0.270709	0.175241
	H2579	H	0.926362	0.333294	0.113229
	H2580	H	0.853488	0.319065	0.184038
	H2581	H	0.603684	0.381640	0.121180
	H2582	H	0.855227	0.332380	0.070950
	H2583	H	0.604620	0.269875	0.133491
	H2584	H	0.856827	0.272939	0.182477
	H2585	H	0.606686	0.335359	0.119630
	H2586	H	0.854836	0.382425	0.068956
	H2587	H	0.604716	0.319930	0.131352
	H2588	H	0.675220	0.331161	0.077993
	H2589	H	0.924146	0.268715	0.140708
	H2590	H	0.672580	0.316991	0.188831
	H2591	H	0.922176	0.379378	0.126515
	O2592	O	0.092971	0.363281	0.229482
	O2593	O	0.342655	0.300782	0.292004
	O2594	O	0.097046	0.280353	0.316252
	O2595	O	0.346855	0.342815	0.253598
	O2596	O	0.423214	0.299929	0.322130
	O2597	O	0.173102	0.362440	0.259605
	O2598	O	0.428104	0.344655	0.224620
	O2599	O	0.177861	0.282146	0.287104
	O2600	O	0.427694	0.280929	0.317644
	O2601	O	0.177646	0.343448	0.255209
	O2602	O	0.423241	0.363836	0.230969
	O2603	O	0.173422	0.301352	0.293454
	O2604	O	0.096764	0.344088	0.225662
	O2605	O	0.347020	0.281571	0.288153
	O2606	O	0.092010	0.299307	0.323034
	O2607	O	0.342191	0.361810	0.260555
	F2608	F	0.010210	0.291401	0.294053
	F2609	F	0.260112	0.353871	0.231567
	F2610	F	0.009977	0.352839	0.253218
	F2611	F	0.259876	0.290337	0.315688
	Al2612	Al	0.135097	0.290859	0.304829
	Al2613	Al	0.385179	0.353353	0.242329
	Al2614	Al	0.135018	0.353376	0.242415
	Al2615	Al	0.385030	0.290867	0.304868
	C2616	C	0.099060	0.379671	0.212751
	C2617	C	0.349216	0.317234	0.275454
	C2618	C	0.100501	0.263194	0.330467
	C2619	C	0.350240	0.325670	0.267883
	C2620	C	0.417671	0.314495	0.347555
	C2621	C	0.167691	0.376998	0.285056
	C2622	C	0.423318	0.329423	0.200833
	C2623	C	0.173068	0.267045	0.262916
	C2624	C	0.420971	0.264423	0.333994
	C2625	C	0.170828	0.326947	0.271605
	C2626	C	0.419799	0.381057	0.216819
	C2627	C	0.169766	0.318510	0.279171
	C2628	C	0.102430	0.328319	0.203336
	C2629	C	0.352244	0.265668	0.266144
	C2630	C	0.096471	0.313100	0.350054
	C2631	C	0.347015	0.375565	0.287611
	C2632	C	0.008717	0.376070	0.218621
	C2633	C	0.258921	0.313595	0.281183
	C2634	C	0.011165	0.268094	0.328383
	C2635	C	0.261139	0.330607	0.265958
	C2636	C	0.006932	0.310166	0.342124
	C2637	C	0.257403	0.372668	0.279669
	C2638	C	0.012610	0.332875	0.207784
	C2639	C	0.262601	0.270340	0.270315
	C2640	C	0.008383	0.367081	0.226994
	C2641	C	0.258157	0.304598	0.289526
	C2642	C	0.012176	0.277102	0.320099
	C2643	C	0.262060	0.339607	0.257620
	C2644	C	0.007344	0.302587	0.328067
	C2645	C	0.257576	0.365114	0.265559
	C2646	C	0.012305	0.341124	0.220244
	C2647	C	0.262503	0.278601	0.282785
	H2648	H	0.167961	0.375812	0.214000
	H2649	H	0.418084	0.313406	0.276858
	H2650	H	0.170335	0.265985	0.326076
	H2651	H	0.419854	0.328426	0.263358
	H2652	H	0.348199	0.312346	0.341461
	H2653	H	0.098468	0.374832	0.278873
	H2654	H	0.353925	0.332925	0.204165
	H2655	H	0.103660	0.270653	0.265950
	H2656	H	0.351963	0.268192	0.332460
	H2657	H	0.102012	0.330758	0.270145
	H2658	H	0.350080	0.378330	0.221479
	H2659	H	0.100085	0.315728	0.283635
	H2660	H	0.171905	0.330890	0.208790
	H2661	H	0.421619	0.268136	0.271847
	H2662	H	0.166176	0.309800	0.346015
	H2663	H	0.416407	0.372223	0.283537
	O2664	O	0.592649	0.363242	0.229445
	O2665	O	0.842439	0.300760	0.291972
	O2666	O	0.596882	0.280358	0.316212
	O2667	O	0.846740	0.342833	0.253700
	O2668	O	0.922988	0.299920	0.322091
	O2669	O	0.673230	0.362465	0.259552
	O2670	O	0.927490	0.344644	0.224591
	O2671	O	0.677569	0.282167	0.287048
	O2672	O	0.927848	0.280927	0.317646
	O2673	O	0.677493	0.343449	0.255217
	O2674	O	0.923603	0.363830	0.230969
	O2675	O	0.673233	0.301367	0.293514
	O2676	O	0.597239	0.344068	0.225722
	O2677	O	0.846711	0.281506	0.288256
	O2678	O	0.592248	0.299262	0.323158
	O2679	O	0.842241	0.361845	0.260529
	F2680	F	0.510138	0.291407	0.294091
	F2681	F	0.760325	0.353891	0.231621
	F2682	F	0.509948	0.352860	0.253220
	F2683	F	0.760027	0.290325	0.315664
	Al2684	Al	0.635048	0.290867	0.304865
	Al2685	Al	0.885196	0.353357	0.242406
	Al2686	Al	0.635091	0.353390	0.242399
	Al2687	Al	0.885140	0.290867	0.304849
	C2688	C	0.599410	0.379636	0.212657
	C2689	C	0.849020	0.317208	0.275444
	C2690	C	0.600506	0.263186	0.330513
	C2691	C	0.850174	0.325652	0.267890
	C2692	C	0.917088	0.314468	0.347575
	C2693	C	0.667648	0.376995	0.285020
	C2694	C	0.922940	0.329461	0.200714
	C2695	C	0.672649	0.267027	0.262967
	C2696	C	0.920692	0.264407	0.333941
	C2697	C	0.670675	0.326948	0.271566
	C2698	C	0.919490	0.381057	0.216845
	C2699	C	0.669540	0.318511	0.279122
	C2700	C	0.602871	0.328323	0.203323
	C2701	C	0.851944	0.265660	0.266168
	C2702	C	0.597045	0.313077	0.350059
	C2703	C	0.846942	0.375540	0.287625
	C2704	C	0.508966	0.376081	0.218598
	C2705	C	0.758700	0.313576	0.281145
	C2706	C	0.511392	0.268105	0.328431
	C2707	C	0.761056	0.330600	0.265941
	C2708	C	0.507407	0.310162	0.342145
	C2709	C	0.757328	0.372651	0.279649
	C2710	C	0.513006	0.332844	0.207879
	C2711	C	0.762270	0.270339	0.270309
	C2712	C	0.508073	0.367068	0.226983
	C2713	C	0.757978	0.304595	0.289541
	C2714	C	0.512178	0.277113	0.320119
	C2715	C	0.761901	0.339605	0.257623
	C2716	C	0.507639	0.302585	0.328119
	C2717	C	0.757570	0.365145	0.265513
	C2718	C	0.512745	0.341120	0.220309
	C2719	C	0.762146	0.278589	0.282790
	H2720	H	0.668090	0.375738	0.213882
	H2721	H	0.917850	0.313385	0.276887
	H2722	H	0.670290	0.265952	0.326080
	H2723	H	0.919850	0.328414	0.263385
	H2724	H	0.847639	0.312303	0.341495
	H2725	H	0.598408	0.374858	0.278806
	H2726	H	0.853399	0.332965	0.203986
	H2727	H	0.603111	0.270609	0.266041
	H2728	H	0.851739	0.268207	0.332419
	H2729	H	0.601799	0.330764	0.270103
	H2730	H	0.849717	0.378321	0.221485
	H2731	H	0.599836	0.315740	0.283608
	H2732	H	0.672476	0.330899	0.208704
	H2733	H	0.921330	0.268113	0.271899
	H2734	H	0.666694	0.309763	0.346061
	H2735	H	0.916369	0.372209	0.283546
	O2736	O	0.086843	0.353567	0.393854
	O2737	O	0.337067	0.291078	0.456387
	O2738	O	0.091182	0.270445	0.479876
	O2739	O	0.340766	0.332947	0.417353
	O2740	O	0.417692	0.289892	0.486473
	O2741	O	0.167555	0.352412	0.423851
	O2742	O	0.422096	0.335233	0.387756
	O2743	O	0.171897	0.272753	0.450335
	O2744	O	0.421651	0.271007	0.481258
	O2745	O	0.171504	0.333486	0.418761
	O2746	O	0.417772	0.354087	0.395137
	O2747	O	0.167808	0.291610	0.457734
	O2748	O	0.090734	0.334612	0.388771
	O2749	O	0.340948	0.272195	0.451193
	O2750	O	0.086273	0.289310	0.487339
	O2751	O	0.336669	0.351784	0.424807
	F2752	F	0.004456	0.281706	0.458053
	F2753	F	0.254315	0.344176	0.395536
	F2754	F	0.004068	0.342860	0.417022
	F2755	F	0.254208	0.280391	0.479559
	Al2756	Al	0.129308	0.281044	0.468834
	Al2757	Al	0.379148	0.343515	0.406272
	Al2758	Al	0.129208	0.343523	0.406294
	Al2759	Al	0.379308	0.281045	0.468815
	C2760	C	0.093468	0.369943	0.377189
	C2761	C	0.343688	0.307485	0.439754
	C2762	C	0.094655	0.253390	0.494531
	C2763	C	0.344746	0.315879	0.432028
	C2764	C	0.412076	0.304391	0.511995
	C2765	C	0.161993	0.366962	0.449327
	C2766	C	0.417480	0.321553	0.360623
	C2767	C	0.167395	0.258967	0.423309
	C2768	C	0.414948	0.254602	0.497853
	C2769	C	0.164943	0.317055	0.435285
	C2770	C	0.414053	0.371196	0.380688
	C2771	C	0.163909	0.308660	0.443011
	C2772	C	0.096248	0.320147	0.363130
	C2773	C	0.346498	0.257716	0.425573
	C2774	C	0.090904	0.303030	0.514452
	C2775	C	0.341176	0.365388	0.452182
	C2776	C	0.003076	0.366318	0.382894
	C2777	C	0.253276	0.303813	0.445309
	C2778	C	0.005430	0.258256	0.492252
	C2779	C	0.255420	0.320740	0.429777
	C2780	C	0.001221	0.300106	0.506573
	C2781	C	0.251701	0.362584	0.444026
	C2782	C	0.006454	0.324438	0.368586
	C2783	C	0.256823	0.261962	0.431111
	C2784	C	0.002358	0.357372	0.391358
	C2785	C	0.252547	0.294861	0.453819
	C2786	C	0.006475	0.267208	0.483789
	C2787	C	0.256068	0.329704	0.421315
	C2788	C	0.001610	0.292587	0.492408
	C2789	C	0.252017	0.355076	0.429841
	C2790	C	0.006290	0.331969	0.382741
	C2791	C	0.256560	0.269494	0.445261
	H2792	H	0.162266	0.366144	0.378761
	H2793	H	0.412672	0.303727	0.441425
	H2794	H	0.164429	0.256175	0.490156
	H2795	H	0.414501	0.318682	0.427640
	H2796	H	0.342784	0.302218	0.505868
	H2797	H	0.092615	0.364862	0.443080
	H2798	H	0.348004	0.324889	0.364647
	H2799	H	0.097773	0.262215	0.427422
	H2800	H	0.346024	0.258360	0.496186
	H2801	H	0.095965	0.320818	0.433596
	H2802	H	0.344342	0.368430	0.385157
	H2803	H	0.094141	0.305860	0.447399
	H2804	H	0.165626	0.322318	0.369219
	H2805	H	0.415913	0.259928	0.431545
	H2806	H	0.160477	0.299726	0.510356
	H2807	H	0.410632	0.361984	0.448299
	O2808	O	0.586803	0.353557	0.393815
	O2809	O	0.836965	0.291070	0.456290
	O2810	O	0.590917	0.270456	0.479847
	O2811	O	0.841243	0.332917	0.417297
	O2812	O	0.917135	0.289925	0.486414
	O2813	O	0.667109	0.352462	0.423824
	O2814	O	0.921706	0.335272	0.387720
	O2815	O	0.672192	0.272759	0.450318
	O2816	O	0.922086	0.271006	0.481257
	O2817	O	0.671947	0.333508	0.418821
	O2818	O	0.917569	0.354150	0.395305
	O2819	O	0.667647	0.291626	0.457706
	O2820	O	0.591262	0.334597	0.388791
	O2821	O	0.841215	0.272127	0.451242
	O2822	O	0.586890	0.289292	0.487388
	O2823	O	0.836155	0.351773	0.424856
	F2824	F	0.504538	0.281711	0.458109
	F2825	F	0.754407	0.344208	0.395573
	F2826	F	0.504095	0.342849	0.417012
	F2827	F	0.754398	0.280368	0.479511
	Al2828	Al	0.629461	0.281038	0.468840
	Al2829	Al	0.879342	0.343528	0.406308
	Al2830	Al	0.629246	0.343528	0.406294
	Al2831	Al	0.879529	0.281038	0.468772
	C2832	C	0.593662	0.369937	0.377169
	C2833	C	0.843657	0.307506	0.439798
	C2834	C	0.594717	0.253399	0.494506
	C2835	C	0.844973	0.315894	0.432071
	C2836	C	0.911398	0.304403	0.512049
	C2837	C	0.661672	0.366993	0.449310
	C2838	C	0.916854	0.321521	0.360654
	C2839	C	0.667323	0.258990	0.423277
	C2840	C	0.914914	0.254593	0.497789
	C2841	C	0.665097	0.317072	0.435297
	C2842	C	0.913860	0.371187	0.380658
	C2843	C	0.663765	0.308677	0.443027
	C2844	C	0.596900	0.320132	0.363131
	C2845	C	0.846500	0.257696	0.425537
	C2846	C	0.591425	0.303020	0.514492
	C2847	C	0.840904	0.365418	0.452126
	C2848	C	0.503211	0.366284	0.382860
	C2849	C	0.753089	0.303832	0.445323
	C2850	C	0.505439	0.258257	0.492253
	C2851	C	0.755684	0.320744	0.429786
	C2852	C	0.501862	0.300083	0.506608
	C2853	C	0.751327	0.362601	0.443998
	C2854	C	0.507086	0.324428	0.368581
	C2855	C	0.756881	0.261954	0.431095
	C2856	C	0.502418	0.357340	0.391249
	C2857	C	0.752411	0.294868	0.453769
	C2858	C	0.506235	0.267223	0.483803
	C2859	C	0.756503	0.329704	0.421314
	C2860	C	0.502168	0.292567	0.492433
	C2861	C	0.751565	0.355088	0.429849
	C2862	C	0.506832	0.331945	0.382759
	C2863	C	0.756782	0.269474	0.445265
	H2864	H	0.662574	0.366152	0.378719
	H2865	H	0.912636	0.303736	0.441495
	H2866	H	0.664476	0.256173	0.490079
	H2867	H	0.914810	0.318690	0.427707
	H2868	H	0.841958	0.302238	0.505959
	H2869	H	0.592254	0.364909	0.443058
	H2870	H	0.847284	0.324835	0.364696
	H2871	H	0.597655	0.262240	0.427404
	H2872	H	0.846000	0.258359	0.496099
	H2873	H	0.596282	0.320837	0.433597
	H2874	H	0.844243	0.368405	0.385093
	H2875	H	0.594007	0.305877	0.447382
	H2876	H	0.666283	0.322300	0.369253
	H2877	H	0.916058	0.259881	0.431525
	H2878	H	0.660989	0.299712	0.510429
	H2879	H	0.910378	0.362027	0.448205
	O2880	O	0.080850	0.343636	0.557405
	O2881	O	0.331081	0.281117	0.619816
	O2882	O	0.085518	0.260694	0.644003
	O2883	O	0.335200	0.323240	0.581631
	O2884	O	0.411718	0.280466	0.649473
	O2885	O	0.161466	0.342997	0.586894
	O2886	O	0.416293	0.325257	0.551997
	O2887	O	0.166508	0.262793	0.614407
	O2888	O	0.416325	0.261310	0.645592
	O2889	O	0.165942	0.323802	0.583122
	O2890	O	0.411904	0.344226	0.558836
	O2891	O	0.161849	0.281719	0.621362
	O2892	O	0.085371	0.324610	0.553017
	O2893	O	0.335529	0.262089	0.615532
	O2894	O	0.080739	0.279889	0.650447
	O2895	O	0.330646	0.342432	0.587942
	F2896	F	-0.001250	0.271706	0.621817
	F2897	F	0.248628	0.334219	0.559345
	F2898	F	-0.001657	0.333169	0.580985
	F2899	F	0.248517	0.270663	0.643469
	Al2900	Al	0.123739	0.271203	0.632670
	Al2901	Al	0.373410	0.333725	0.570180
	Al2902	Al	0.123543	0.333690	0.570204
	Al2903	Al	0.373698	0.271189	0.632678
	C2904	C	0.087642	0.360064	0.540793
	C2905	C	0.337740	0.297629	0.603505
	C2906	C	0.089031	0.243550	0.658313
	C2907	C	0.338971	0.306074	0.595959
	C2908	C	0.406254	0.296298	0.671651
	C2909	C	0.155879	0.358855	0.609019
	C2910	C	0.411741	0.311450	0.525045
	C2911	C	0.161758	0.249006	0.587462
	C2912	C	0.409565	0.244879	0.662165
	C2913	C	0.159282	0.307341	0.599615
	C2914	C	0.408631	0.361493	0.544988
	C2915	C	0.158081	0.298896	0.607160
	C2916	C	0.090775	0.310087	0.527519
	C2917	C	0.340944	0.247520	0.590147
	C2918	C	0.085309	0.295075	0.674402
	C2919	C	0.335223	0.357523	0.612160
	C2920	C	-0.002887	0.356470	0.546647
	C2921	C	0.247281	0.293951	0.609074
	C2922	C	-0.000164	0.248518	0.656464
	C2923	C	0.249737	0.311005	0.593972
	C2924	C	-0.004309	0.291681	0.667224
	C2925	C	0.245611	0.354199	0.604792
	C2926	C	0.001031	0.314393	0.532962
	C2927	C	0.251312	0.251873	0.595464
	C2928	C	-0.003594	0.347471	0.554962
	C2929	C	0.246605	0.284953	0.617414
	C2930	C	0.000702	0.257480	0.648027
	C2931	C	0.250465	0.319984	0.585571
	C2932	C	-0.003920	0.283432	0.654742
	C2933	C	0.245944	0.345956	0.592290
	C2934	C	0.000923	0.321960	0.547022
	C2935	C	0.251096	0.259448	0.609500
	H2936	H	0.156636	0.356197	0.542051
	H2937	H	0.406715	0.293825	0.604979
	H2938	H	0.158726	0.246289	0.653708
	H2939	H	0.408722	0.308849	0.591486
	H2940	H	0.336787	0.293753	0.666157
	H2941	H	0.086359	0.356379	0.603349
	H2942	H	0.342205	0.314753	0.529086
	H2943	H	0.092348	0.252366	0.591434
	H2944	H	0.340888	0.248739	0.660804
	H2945	H	0.090357	0.311149	0.598157
	H2946	H	0.338956	0.358790	0.549722
	H2947	H	0.088351	0.296133	0.611663
	H2948	H	0.160238	0.312270	0.533592
	H2949	H	0.410209	0.249658	0.596327
	H2950	H	0.154926	0.291550	0.671214
	H2951	H	0.404725	0.353937	0.609074
	O2952	O	0.581239	0.343622	0.557350
	O2953	O	0.831128	0.281123	0.619790
	O2954	O	0.585568	0.260720	0.644064
	O2955	O	0.835251	0.323192	0.581524
	O2956	O	0.911608	0.280483	0.649321
	O2957	O	0.661332	0.343014	0.586862
	O2958	O	0.916338	0.325295	0.551951
	O2959	O	0.666234	0.262773	0.614446
	O2960	O	0.916280	0.261290	0.645545
	O2961	O	0.666035	0.323806	0.583143
	O2962	O	0.911499	0.344263	0.558970
	O2963	O	0.661771	0.281720	0.621300
	O2964	O	0.585319	0.324615	0.553015
	O2965	O	0.835265	0.262107	0.615490
	O2966	O	0.580933	0.279903	0.650487
	O2967	O	0.830617	0.342401	0.588000
	F2968	F	0.498845	0.271735	0.621864
	F2969	F	0.748650	0.334225	0.559393
	F2970	F	0.498310	0.333183	0.580980
	F2971	F	0.748673	0.270679	0.643411
	Al2972	Al	0.623688	0.271214	0.632690
	Al2973	Al	0.873552	0.333713	0.570218
	Al2974	Al	0.623506	0.333683	0.570199
	Al2975	Al	0.873827	0.271183	0.632594
	C2976	C	0.588133	0.360062	0.540750
	C2977	C	0.838032	0.297629	0.603517
	C2978	C	0.589143	0.243546	0.658293
	C2979	C	0.839194	0.306069	0.595957
	C2980	C	0.905882	0.296284	0.671582
	C2981	C	0.656111	0.358881	0.608931
	C2982	C	0.911311	0.311464	0.525113
	C2983	C	0.661676	0.248999	0.587430
	C2984	C	0.909389	0.244887	0.662220
	C2985	C	0.659537	0.307361	0.599690
	C2986	C	0.907967	0.361487	0.544941
	C2987	C	0.658369	0.298919	0.607237
	C2988	C	0.591072	0.310078	0.527543
	C2989	C	0.840763	0.247513	0.590134
	C2990	C	0.585674	0.295089	0.674450
	C2991	C	0.835390	0.357512	0.612133
	C2992	C	0.497732	0.356459	0.546613
	C2993	C	0.747505	0.293961	0.609102
	C2994	C	0.499926	0.248491	0.656386
	C2995	C	0.749919	0.311002	0.593980
	C2996	C	0.496006	0.291705	0.667262
	C2997	C	0.745781	0.354191	0.604805
	C2998	C	0.501246	0.314371	0.532972
	C2999	C	0.751118	0.251863	0.595475
	C3000	C	0.496775	0.347454	0.554909
	C3001	C	0.746616	0.284958	0.617390
	C3002	C	0.500815	0.257490	0.648035
	C3003	C	0.750529	0.319972	0.585534
	C3004	C	0.496268	0.283432	0.654832
	C3005	C	0.745910	0.345944	0.592320
	C3006	C	0.500921	0.321935	0.547050
	C3007	C	0.750843	0.259439	0.609522
	H3008	H	0.657027	0.356189	0.541980
	H3009	H	0.906955	0.293816	0.604996
	H3010	H	0.658941	0.246296	0.653755
	H3011	H	0.908962	0.308838	0.591468
	H3012	H	0.836424	0.293745	0.666043
	H3013	H	0.586708	0.356425	0.603192
	H3014	H	0.841794	0.314773	0.529182
	H3015	H	0.592228	0.252355	0.591367
	H3016	H	0.840402	0.248719	0.660855
	H3017	H	0.590602	0.311180	0.598292
	H3018	H	0.838131	0.358786	0.549662
	H3019	H	0.588677	0.296169	0.611794
	H3020	H	0.660412	0.312256	0.533645
	H3021	H	0.910015	0.249654	0.596312
	H3022	H	0.655291	0.291550	0.671284
	H3023	H	0.904880	0.353932	0.609059
	O3024	O	0.074938	0.338592	0.707023
	O3025	O	0.325554	0.276071	0.769419
	O3026	O	0.079814	0.256768	0.797218
	O3027	O	0.329451	0.319284	0.734663
	O3028	O	0.405502	0.277713	0.796123
	O3029	O	0.155204	0.340189	0.733682
	O3030	O	0.410645	0.319629	0.705805
	O3031	O	0.161083	0.257157	0.768260
	O3032	O	0.410793	0.257386	0.798669
	O3033	O	0.160114	0.319824	0.736010
	O3034	O	0.405838	0.339157	0.708235
	O3035	O	0.156202	0.276625	0.770706
	O3036	O	0.079731	0.319069	0.706963
	O3037	O	0.329967	0.256545	0.769638
	O3038	O	0.074987	0.277175	0.797663
	O3039	O	0.324665	0.339691	0.735119
	F3040	F	-0.006839	0.266427	0.772855
	F3041	F	0.242724	0.328936	0.710339
	F3042	F	-0.007152	0.329508	0.732715
	F3043	F	0.242874	0.267014	0.795137
	Al3044	Al	0.118077	0.266720	0.784089
	Al3045	Al	0.367472	0.329229	0.721573
	Al3046	Al	0.117701	0.329218	0.721601
	Al3047	Al	0.368084	0.266729	0.784107
	C3048	C	0.081906	0.355540	0.691657
	C3049	C	0.332314	0.293028	0.754175
	C3050	C	0.083405	0.239226	0.810088
	C3051	C	0.333467	0.301742	0.747626
	C3052	C	0.404838	0.296793	0.798775
	C3053	C	0.154584	0.359301	0.736398
	C3054	C	0.406148	0.304144	0.682824
	C3055	C	0.156473	0.241700	0.745127
	C3056	C	0.403792	0.240460	0.813971
	C3057	C	0.153659	0.302895	0.751388
	C3058	C	0.402269	0.356737	0.695468
	C3059	C	0.152526	0.294202	0.757882
	C3060	C	0.085137	0.302917	0.685598
	C3061	C	0.335382	0.240317	0.748349
	C3062	C	0.084711	0.296140	0.802762
	C3063	C	0.334630	0.358630	0.740269
	C3064	C	-0.008675	0.351682	0.696921
	C3065	C	0.241747	0.289139	0.759291
	C3066	C	-0.005957	0.244284	0.808703
	C3067	C	0.244091	0.306768	0.746154
	C3068	C	-0.006805	0.291596	0.800403
	C3069	C	0.243001	0.354101	0.737901
	C3070	C	-0.004574	0.307541	0.689847
	C3071	C	0.246024	0.245042	0.752415
	C3072	C	-0.009443	0.342467	0.704603
	C3073	C	0.241069	0.279937	0.767009
	C3074	C	-0.005122	0.253466	0.800905
	C3075	C	0.244620	0.315952	0.738368
	C3076	C	-0.008881	0.281413	0.797953
	C3077	C	0.240679	0.343919	0.735433
	C3078	C	-0.004661	0.316004	0.701763
	C3079	C	0.245703	0.253507	0.764330
	H3080	H	0.151225	0.351667	0.692557
	H3081	H	0.401535	0.289165	0.755246
	H3082	H	0.153535	0.242100	0.805889
	H3083	H	0.403474	0.304657	0.743507
	H3084	H	0.333882	0.293365	0.796811
	H3085	H	0.083393	0.355899	0.734477
	H3086	H	0.336751	0.307704	0.685979
	H3087	H	0.087030	0.245300	0.748130
	H3088	H	0.334734	0.244363	0.813070
	H3089	H	0.084323	0.306738	0.750435
	H3090	H	0.332059	0.353862	0.699611
	H3091	H	0.082277	0.291333	0.761956
	H3092	H	0.154571	0.305471	0.691107
	H3093	H	0.404837	0.242768	0.754021
	H3094	H	0.153465	0.292211	0.804032
	H3095	H	0.403366	0.354696	0.741528
	O3096	O	0.575244	0.338587	0.706893
	O3097	O	0.825422	0.276114	0.769420
	O3098	O	0.580123	0.256784	0.797212
	O3099	O	0.829322	0.319293	0.734777
	O3100	O	0.905505	0.277689	0.796083
	O3101	O	0.654840	0.340217	0.733654
	O3102	O	0.910817	0.319630	0.705799
	O3103	O	0.660920	0.257167	0.768200
	O3104	O	0.910452	0.257369	0.798568
	O3105	O	0.659926	0.319831	0.736028
	O3106	O	0.905563	0.339135	0.708193
	O3107	O	0.655954	0.276635	0.770653
	O3108	O	0.579673	0.319096	0.707012
	O3109	O	0.829930	0.256563	0.769486
	O3110	O	0.574936	0.277178	0.797710
	O3111	O	0.824216	0.339710	0.735278
	F3112	F	0.493173	0.266432	0.772931
	F3113	F	0.742901	0.328947	0.710466
	F3114	F	0.492378	0.329511	0.732606
	F3115	F	0.743146	0.267001	0.795066
	Al3116	Al	0.618066	0.266746	0.784083
	Al3117	Al	0.867830	0.329245	0.721631
	Al3118	Al	0.617535	0.329231	0.721584
	Al3119	Al	0.868463	0.266722	0.784013
	C3120	C	0.582150	0.355517	0.691533
	C3121	C	0.832057	0.293054	0.754223
	C3122	C	0.583563	0.239214	0.809968
	C3123	C	0.833178	0.301770	0.747688
	C3124	C	0.904751	0.296783	0.798788
	C3125	C	0.654151	0.359302	0.736367
	C3126	C	0.905697	0.304121	0.682770
	C3127	C	0.655995	0.241709	0.745090
	C3128	C	0.903500	0.240445	0.813978
	C3129	C	0.653231	0.302916	0.751403
	C3130	C	0.901946	0.356751	0.695506
	C3131	C	0.652126	0.294224	0.757881
	C3132	C	0.585644	0.302939	0.685625
	C3133	C	0.835150	0.240308	0.748419
	C3134	C	0.584823	0.296143	0.802716
	C3135	C	0.834176	0.358634	0.740354
	C3136	C	0.491557	0.351659	0.696818
	C3137	C	0.741498	0.289188	0.759382
	C3138	C	0.494373	0.244298	0.808713
	C3139	C	0.743806	0.306803	0.746279
	C3140	C	0.493229	0.291604	0.800403
	C3141	C	0.742470	0.354101	0.738009
	C3142	C	0.495784	0.307562	0.689886
	C3143	C	0.745598	0.245046	0.752367
	C3144	C	0.490778	0.342462	0.704523
	C3145	C	0.740848	0.279981	0.767063
	C3146	C	0.495193	0.253482	0.800952
	C3147	C	0.744410	0.315969	0.738446
	C3148	C	0.491003	0.281422	0.797966
	C3149	C	0.740240	0.343935	0.735535
	C3150	C	0.495391	0.316025	0.701782
	C3151	C	0.745514	0.253515	0.764268
	H3152	H	0.651448	0.351645	0.692444
	H3153	H	0.901272	0.289189	0.755231
	H3154	H	0.653601	0.242084	0.805705
	H3155	H	0.903175	0.304674	0.743509
	H3156	H	0.833698	0.293363	0.796797
	H3157	H	0.582993	0.355905	0.734362
	H3158	H	0.836223	0.307669	0.685929
	H3159	H	0.586586	0.245327	0.748067
	H3160	H	0.834265	0.244323	0.813057
	H3161	H	0.583871	0.306749	0.750362
	H3162	H	0.831610	0.353865	0.699590
	H3163	H	0.581765	0.291329	0.761881
	H3164	H	0.655058	0.305508	0.691113
	H3165	H	0.904463	0.242781	0.754155
	H3166	H	0.653566	0.292207	0.803986
	H3167	H	0.902890	0.354697	0.741639
	O3168	O	0.082308	0.345110	0.800997
	O3169	O	0.332859	0.282595	0.863440
	O3170	O	0.086542	0.264124	0.893697
	O3171	O	0.335851	0.326631	0.831225
	O3172	O	0.412624	0.284956	0.889537
	O3173	O	0.162247	0.347441	0.827112
	O3174	O	0.416956	0.325208	0.804704
	O3175	O	0.168027	0.262706	0.867171
	O3176	O	0.417173	0.264544	0.894574
	O3177	O	0.166425	0.327024	0.832047
	O3178	O	0.413168	0.345542	0.801861
	O3179	O	0.163458	0.283024	0.864372
	O3180	O	0.086505	0.324781	0.806032
	O3181	O	0.337348	0.262247	0.868604
	O3182	O	0.082318	0.284603	0.890774
	O3183	O	0.331694	0.347079	0.828440
	F3184	F	0.000299	0.272762	0.867877
	F3185	F	0.249499	0.335277	0.805389
	F3186	F	-0.000638	0.336952	0.827831
	F3187	F	0.249814	0.274465	0.890315
	Al3188	Al	0.125126	0.273612	0.879135
	Al3189	Al	0.374393	0.336114	0.816631
	Al3190	Al	0.124420	0.336104	0.816617
	Al3191	Al	0.374850	0.273601	0.879116
	C3192	C	0.088956	0.362405	0.786558
	C3193	C	0.339080	0.299859	0.848820
	C3194	C	0.090030	0.246287	0.905753
	C3195	C	0.339971	0.308749	0.843156
	C3196	C	0.410729	0.304051	0.890894
	C3197	C	0.160157	0.366578	0.828561
	C3198	C	0.407649	0.306284	0.799570
	C3199	C	0.158213	0.243782	0.862162
	C3200	C	0.410298	0.247180	0.908662
	C3201	C	0.159984	0.309689	0.846302
	C3202	C	0.409105	0.363288	0.789372
	C3203	C	0.159042	0.300784	0.851962
	C3204	C	0.087643	0.305635	0.803538
	C3205	C	0.338209	0.243114	0.866040
	C3206	C	0.091039	0.303609	0.894352
	C3207	C	0.340678	0.366083	0.831715
	C3208	C	-0.001737	0.358265	0.790945
	C3209	C	0.248585	0.295742	0.853369
	C3210	C	0.000650	0.251353	0.904376
	C3211	C	0.250531	0.313819	0.841849
	C3212	C	-0.000380	0.298990	0.892635
	C3213	C	0.249084	0.361463	0.830148
	C3214	C	-0.000777	0.310817	0.802008
	C3215	C	0.249856	0.248306	0.864526
	C3216	C	-0.002260	0.348950	0.798406
	C3217	C	0.248283	0.286436	0.860870
	C3218	C	0.001565	0.260730	0.897121
	C3219	C	0.251020	0.323174	0.834560
	C3220	C	-0.001899	0.288771	0.890972
	C3221	C	0.247404	0.351251	0.828506
	C3222	C	0.001345	0.321012	0.804322
	C3223	C	0.252059	0.258494	0.866882
	H3224	H	0.158799	0.358612	0.787551
	H3225	H	0.408828	0.296035	0.849695
	H3226	H	0.160741	0.249336	0.902348
	H3227	H	0.410543	0.311799	0.839660
	H3228	H	0.339748	0.300569	0.889482
	H3229	H	0.088915	0.363110	0.827294
	H3230	H	0.338966	0.310215	0.798271
	H3231	H	0.089534	0.247719	0.860879
	H3232	H	0.340510	0.250982	0.907711
	H3233	H	0.090101	0.313492	0.845404
	H3234	H	0.338388	0.360230	0.792750
	H3235	H	0.088390	0.297733	0.855405
	H3236	H	0.158723	0.309060	0.805410
	H3237	H	0.409428	0.246511	0.867898
	H3238	H	0.160194	0.299751	0.895738
	H3239	H	0.409794	0.362206	0.833043
	O3240	O	0.582582	0.345084	0.800919
	O3241	O	0.832181	0.282621	0.863505
	O3242	O	0.586632	0.264110	0.893693
	O3243	O	0.835411	0.326593	0.831229
	O3244	O	0.912747	0.284974	0.889630
	O3245	O	0.661888	0.347459	0.827071
	O3246	O	0.917157	0.325223	0.804581
	O3247	O	0.667773	0.262735	0.867049
	O3248	O	0.917173	0.264633	0.894750
	O3249	O	0.665944	0.326998	0.832071
	O3250	O	0.912854	0.345526	0.801896
	O3251	O	0.662838	0.283073	0.864482
	O3252	O	0.586381	0.324769	0.806041
	O3253	O	0.837062	0.262231	0.868707
	O3254	O	0.582092	0.284574	0.890915
	O3255	O	0.831326	0.347082	0.828456
	F3256	F	0.500099	0.272753	0.867902
	F3257	F	0.749708	0.335251	0.805452
	F3258	F	0.499135	0.336959	0.827805
	F3259	F	0.749731	0.274446	0.890313
	Al3260	Al	0.625030	0.273606	0.879137
	Al3261	Al	0.874628	0.336108	0.816654
	Al3262	Al	0.624335	0.336091	0.816612
	Al3263	Al	0.875304	0.273615	0.879134
	C3264	C	0.589334	0.362388	0.786467
	C3265	C	0.838501	0.299870	0.848861
	C3266	C	0.590478	0.246249	0.905696
	C3267	C	0.839490	0.308750	0.843155
	C3268	C	0.910681	0.304095	0.890918
	C3269	C	0.659885	0.366587	0.828567
	C3270	C	0.907734	0.306275	0.799581
	C3271	C	0.657647	0.243806	0.862076
	C3272	C	0.909827	0.247217	0.908745
	C3273	C	0.659420	0.309696	0.846314
	C3274	C	0.908646	0.363299	0.789364
	C3275	C	0.658426	0.300807	0.852018
	C3276	C	0.587578	0.305640	0.803483
	C3277	C	0.837603	0.243115	0.866158
	C3278	C	0.591035	0.303577	0.894345
	C3279	C	0.840354	0.366065	0.831779
	C3280	C	0.498689	0.358242	0.790855
	C3281	C	0.747953	0.295763	0.853412
	C3282	C	0.501028	0.251314	0.904301
	C3283	C	0.750050	0.313810	0.841867
	C3284	C	0.499551	0.298953	0.892665
	C3285	C	0.748745	0.361461	0.830189
	C3286	C	0.499138	0.310816	0.801979
	C3287	C	0.749330	0.248316	0.864487
	C3288	C	0.498103	0.348937	0.798337
	C3289	C	0.747646	0.286468	0.860939
	C3290	C	0.501703	0.260675	0.897047
	C3291	C	0.750545	0.323156	0.834592
	C3292	C	0.497860	0.288746	0.890992
	C3293	C	0.747080	0.351257	0.828531
	C3294	C	0.501082	0.321007	0.804373
	C3295	C	0.751690	0.258505	0.866863
	H3296	H	0.659211	0.358592	0.787459
	H3297	H	0.908311	0.296046	0.849754
	H3298	H	0.661127	0.249292	0.902252
	H3299	H	0.910107	0.311787	0.839640
	H3300	H	0.839671	0.300611	0.889541
	H3301	H	0.588701	0.363113	0.827267
	H3302	H	0.839062	0.310202	0.798224
	H3303	H	0.588986	0.247747	0.860756
	H3304	H	0.840169	0.251040	0.907813
	H3305	H	0.589639	0.313506	0.845410
	H3306	H	0.837845	0.360231	0.792680
	H3307	H	0.587780	0.297766	0.855508
	H3308	H	0.658638	0.309062	0.805369
	H3309	H	0.908689	0.246520	0.868152
	H3310	H	0.660177	0.299719	0.895742
	H3311	H	0.909550	0.362193	0.833070
	O3312	O	0.086783	0.352574	0.890680
	O3313	O	0.337787	0.290050	0.953139
	O3314	O	0.090817	0.271640	0.983562
	O3315	O	0.340530	0.334105	0.920954
	O3316	O	0.417655	0.292390	0.979181
	O3317	O	0.166815	0.354893	0.916722
	O3318	O	0.421659	0.332538	0.894476
	O3319	O	0.172240	0.270039	0.957033
	O3320	O	0.421628	0.272040	0.984376
	O3321	O	0.171142	0.334503	0.921791
	O3322	O	0.417319	0.352967	0.891456
	O3323	O	0.168439	0.290460	0.954033
	O3324	O	0.091239	0.332209	0.895760
	O3325	O	0.341674	0.269663	0.958271
	O3326	O	0.086941	0.292004	0.980483
	O3327	O	0.336384	0.354495	0.917925
	F3328	F	0.005175	0.280161	0.957468
	F3329	F	0.254229	0.342659	0.894993
	F3330	F	0.004000	0.344412	0.917495
	F3331	F	0.254477	0.281894	0.979965
	Al3332	Al	0.129787	0.281023	0.968740
	Al3333	Al	0.378926	0.343524	0.906166
	Al3334	Al	0.129210	0.343545	0.906235
	Al3335	Al	0.379707	0.281027	0.968727
	C3336	C	0.093508	0.369931	0.876556
	C3337	C	0.344234	0.307403	0.938835
	C3338	C	0.094861	0.253847	0.995949
	C3339	C	0.345140	0.316308	0.933241
	C3340	C	0.415734	0.311508	0.980595
	C3341	C	0.165184	0.374007	0.918369
	C3342	C	0.413137	0.313537	0.890891
	C3343	C	0.163060	0.251049	0.953416
	C3344	C	0.414665	0.254674	0.998481
	C3345	C	0.164918	0.317161	0.936089
	C3346	C	0.413473	0.370750	0.879071
	C3347	C	0.164045	0.308249	0.941680
	C3348	C	0.093387	0.313092	0.894338
	C3349	C	0.343424	0.250530	0.956784
	C3350	C	0.095583	0.311013	0.984019
	C3351	C	0.345761	0.373474	0.921521
	C3352	C	0.002732	0.365751	0.880732
	C3353	C	0.253619	0.303235	0.943177
	C3354	C	0.005266	0.258860	0.994325
	C3355	C	0.255501	0.321325	0.931726
	C3356	C	0.004144	0.306390	0.982351
	C3357	C	0.254071	0.368890	0.919941
	C3358	C	0.004497	0.318190	0.892624
	C3359	C	0.254631	0.255648	0.955105
	C3360	C	0.002201	0.356411	0.888087
	C3361	C	0.253214	0.293897	0.950582
	C3362	C	0.005888	0.268201	0.986935
	C3363	C	0.255740	0.330663	0.924360
	C3364	C	0.002657	0.296178	0.980632
	C3365	C	0.252142	0.358678	0.918134
	C3366	C	0.006163	0.328403	0.894310
	C3367	C	0.256464	0.265859	0.956868
	H3368	H	0.163387	0.366149	0.877635
	H3369	H	0.414208	0.303614	0.939835
	H3370	H	0.165597	0.256962	0.992768
	H3371	H	0.415817	0.319406	0.929957
	H3372	H	0.344658	0.308045	0.979199
	H3373	H	0.094064	0.370534	0.917099
	H3374	H	0.344107	0.317402	0.889488
	H3375	H	0.093992	0.254922	0.952079
	H3376	H	0.344842	0.258464	0.997401
	H3377	H	0.095130	0.320956	0.935118
	H3378	H	0.342665	0.367661	0.882290
	H3379	H	0.093430	0.305158	0.944983
	H3380	H	0.164394	0.316573	0.895709
	H3381	H	0.414529	0.253993	0.958157
	H3382	H	0.164768	0.307155	0.985378
	H3383	H	0.414808	0.369589	0.922792
	O3384	O	0.586825	0.352514	0.890548
	O3385	O	0.837322	0.290071	0.953025
	O3386	O	0.591063	0.271594	0.983441
	O3387	O	0.840343	0.334048	0.920853
	O3388	O	0.917376	0.292359	0.979208
	O3389	O	0.666398	0.354878	0.916695
	O3390	O	0.921780	0.332565	0.894403
	O3391	O	0.671808	0.270060	0.956887
	O3392	O	0.921368	0.272043	0.984313
	O3393	O	0.671000	0.334551	0.921865
	O3394	O	0.917261	0.352970	0.891490
	O3395	O	0.667832	0.290505	0.953990
	O3396	O	0.591183	0.332174	0.895687
	O3397	O	0.841332	0.269668	0.958079
	O3398	O	0.587123	0.292002	0.980454
	O3399	O	0.835955	0.354514	0.917935
	F3400	F	0.504713	0.280166	0.957506
	F3401	F	0.754294	0.342671	0.895036
	F3402	F	0.503829	0.344390	0.917392
	F3403	F	0.754540	0.281901	0.979810
	Al3404	Al	0.629551	0.281039	0.968672
	Al3405	Al	0.879437	0.343538	0.906219
	Al3406	Al	0.629140	0.343526	0.906175
	Al3407	Al	0.879894	0.281032	0.968615
	C3408	C	0.593863	0.369908	0.876507
	C3409	C	0.843735	0.307395	0.938781
	C3410	C	0.594939	0.253835	0.995886
	C3411	C	0.844559	0.316297	0.933184
	C3412	C	0.915246	0.311485	0.980609
	C3413	C	0.664677	0.374018	0.918255
	C3414	C	0.913000	0.313575	0.890895
	C3415	C	0.662725	0.251073	0.953407
	C3416	C	0.914396	0.254688	0.998555
	C3417	C	0.664365	0.317174	0.936104
	C3418	C	0.913137	0.370789	0.879126
	C3419	C	0.663503	0.308265	0.941697
	C3420	C	0.593476	0.313059	0.894317
	C3421	C	0.843097	0.250564	0.956797
	C3422	C	0.596032	0.311007	0.984052
	C3423	C	0.845207	0.373478	0.921387
	C3424	C	0.503033	0.365726	0.880685
	C3425	C	0.753194	0.303242	0.943136
	C3426	C	0.505434	0.258845	0.994285
	C3427	C	0.754861	0.321332	0.931749
	C3428	C	0.504509	0.306397	0.982325
	C3429	C	0.753448	0.368893	0.919817
	C3430	C	0.504509	0.318157	0.892623
	C3431	C	0.754260	0.255674	0.955105
	C3432	C	0.502297	0.356382	0.888034
	C3433	C	0.752751	0.293917	0.950520
	C3434	C	0.506154	0.268179	0.986897
	C3435	C	0.755384	0.330663	0.924360
	C3436	C	0.502883	0.296184	0.980627
	C3437	C	0.751607	0.358678	0.918100
	C3438	C	0.505954	0.328368	0.894313
	C3439	C	0.756041	0.265880	0.956744
	H3440	H	0.663732	0.366130	0.877607
	H3441	H	0.913641	0.303615	0.939738
	H3442	H	0.665750	0.256926	0.992681
	H3443	H	0.915145	0.319392	0.929841
	H3444	H	0.844211	0.308005	0.979234
	H3445	H	0.593437	0.370556	0.916990
	H3446	H	0.843931	0.317436	0.889498
	H3447	H	0.593709	0.254946	0.951985
	H3448	H	0.844559	0.258475	0.997493
	H3449	H	0.594506	0.320968	0.935148
	H3450	H	0.842324	0.367708	0.882361
	H3451	H	0.592932	0.305169	0.945052
	H3452	H	0.664364	0.316558	0.895683
	H3453	H	0.914211	0.254037	0.958118
	H3454	H	0.665114	0.307141	0.985474
	H3455	H	0.914279	0.369587	0.922675
	O3456	O	0.098536	0.492189	-0.048759
	O3457	O	0.348674	0.429710	0.013931
	O3458	O	0.102453	0.410445	0.041758
	O3459	O	0.352908	0.472886	-0.020869
	O3460	O	0.429171	0.430470	0.043046
	O3461	O	0.179037	0.493017	-0.019661
	O3462	O	0.434342	0.472368	-0.047681
	O3463	O	0.183896	0.409857	0.015012
	O3464	O	0.433267	0.411006	0.043146
	O3465	O	0.183589	0.473499	-0.019466
	O3466	O	0.429233	0.492780	-0.047274
	O3467	O	0.179373	0.430291	0.015233
	O3468	O	0.103429	0.471857	-0.046203
	O3469	O	0.353392	0.409362	0.016380
	O3470	O	0.097506	0.429990	0.044094
	O3471	O	0.347906	0.492392	-0.018302
	F3472	F	0.016465	0.420060	0.017227
	F3473	F	0.266206	0.482532	-0.045231
	F3474	F	0.015936	0.483146	-0.022991
	F3475	F	0.265620	0.420659	0.039639
	Al3476	Al	0.140842	0.420355	0.028382
	Al3477	Al	0.391267	0.482808	-0.034142
	Al3478	Al	0.141256	0.482840	-0.034189
	Al3479	Al	0.390901	0.420354	0.028441
	C3480	C	0.105268	0.509122	-0.064063
	C3481	C	0.355536	0.446645	-0.001436
	C3482	C	0.105850	0.392875	0.054575
	C3483	C	0.356413	0.455352	-0.007942
	C3484	C	0.423896	0.446595	0.064538
	C3485	C	0.173752	0.509311	0.001430
	C3486	C	0.424137	0.453423	-0.052736
	C3487	C	0.174057	0.390953	0.009718
	C3488	C	0.426394	0.394061	0.058577
	C3489	C	0.176440	0.456524	-0.004230
	C3490	C	0.425740	0.510345	-0.060036
	C3491	C	0.175514	0.447824	0.002305
	C3492	C	0.103796	0.452747	-0.048892
	C3493	C	0.354047	0.390254	0.013591
	C3494	C	0.102207	0.445507	0.067025
	C3495	C	0.352943	0.507747	0.005120
	C3496	C	0.014646	0.505276	-0.058797
	C3497	C	0.264995	0.442783	0.003775
	C3498	C	0.016541	0.397933	0.053183
	C3499	C	0.267004	0.460394	-0.009423
	C3500	C	0.012534	0.442044	0.060095
	C3501	C	0.263288	0.504502	-0.002432
	C3502	C	0.015513	0.457944	-0.050516
	C3503	C	0.265776	0.395463	0.012049
	C3504	C	0.014102	0.496088	-0.051032
	C3505	C	0.264338	0.433600	0.011545
	C3506	C	0.017540	0.407145	0.045445
	C3507	C	0.267948	0.469599	-0.017136
	C3508	C	0.012849	0.433570	0.048168
	C3509	C	0.263334	0.496046	-0.014339
	C3510	C	0.018030	0.468125	-0.047995
	C3511	C	0.267945	0.405638	0.014631
	H3512	H	0.174558	0.505250	-0.063160
	H3513	H	0.424828	0.442792	-0.000453
	H3514	H	0.176092	0.395767	0.050512
	H3515	H	0.426679	0.458255	-0.011985
	H3516	H	0.354555	0.443992	0.059173
	H3517	H	0.104273	0.506899	-0.004416
	H3518	H	0.355513	0.457365	-0.054013
	H3519	H	0.105352	0.394897	0.008540
	H3520	H	0.357205	0.397951	0.057774
	H3521	H	0.107015	0.460380	-0.005213
	H3522	H	0.355680	0.507473	-0.055835
	H3523	H	0.105467	0.444934	0.006460
	H3524	H	0.174932	0.456153	-0.046895
	H3525	H	0.425169	0.393651	0.015589
	H3526	H	0.171648	0.442004	0.063733
	H3527	H	0.422271	0.504044	0.002343
	O3528	O	0.598574	0.492157	-0.048717
	O3529	O	0.847975	0.429701	0.013826
	O3530	O	0.602620	0.410407	0.041734
	O3531	O	0.852711	0.472883	-0.020764
	O3532	O	0.928584	0.430461	0.043082
	O3533	O	0.678793	0.493041	-0.019648
	O3534	O	0.933962	0.472363	-0.047734
	O3535	O	0.683497	0.409889	0.014771
	O3536	O	0.933190	0.411013	0.043016
	O3537	O	0.683483	0.473516	-0.019368
	O3538	O	0.929167	0.492770	-0.047264
	O3539	O	0.678690	0.430295	0.015235
	O3540	O	0.603779	0.471831	-0.046133
	O3541	O	0.852924	0.409339	0.016206
	O3542	O	0.598146	0.429933	0.044165
	O3543	O	0.847856	0.492394	-0.018275
	F3544	F	0.515825	0.420056	0.017399
	F3545	F	0.766502	0.482530	-0.045132
	F3546	F	0.516041	0.483144	-0.022920
	F3547	F	0.765828	0.420628	0.039519
	Al3548	Al	0.640835	0.420321	0.028372
	Al3549	Al	0.891541	0.482825	-0.034068
	Al3550	Al	0.641225	0.482825	-0.034136
	Al3551	Al	0.890931	0.420333	0.028310
	C3552	C	0.605406	0.509109	-0.064058
	C3553	C	0.854887	0.446617	-0.001523
	C3554	C	0.605977	0.392800	0.054313
	C3555	C	0.855960	0.455320	-0.007993
	C3556	C	0.922867	0.446620	0.064536
	C3557	C	0.673634	0.509310	0.001387
	C3558	C	0.923756	0.453420	-0.052840
	C3559	C	0.673170	0.390924	0.009754
	C3560	C	0.925927	0.394038	0.058319
	C3561	C	0.676160	0.456544	-0.004118
	C3562	C	0.925339	0.510352	-0.060131
	C3563	C	0.675063	0.447837	0.002390
	C3564	C	0.604245	0.452738	-0.048878
	C3565	C	0.853098	0.390261	0.013592
	C3566	C	0.603063	0.445504	0.066999
	C3567	C	0.852865	0.507762	0.005045
	C3568	C	0.514990	0.505275	-0.058691
	C3569	C	0.764382	0.442782	0.003758
	C3570	C	0.516706	0.397903	0.053185
	C3571	C	0.766760	0.460394	-0.009337
	C3572	C	0.513437	0.442024	0.060096
	C3573	C	0.763163	0.504518	-0.002457
	C3574	C	0.515834	0.457937	-0.050376
	C3575	C	0.764785	0.395456	0.012034
	C3576	C	0.514231	0.496082	-0.050979
	C3577	C	0.763605	0.433606	0.011531
	C3578	C	0.517662	0.407117	0.045493
	C3579	C	0.767726	0.469597	-0.017046
	C3580	C	0.513519	0.433553	0.048197
	C3581	C	0.763226	0.496055	-0.014348
	C3582	C	0.518242	0.468122	-0.047935
	C3583	C	0.767301	0.405638	0.014468
	H3584	H	0.674618	0.505218	-0.063238
	H3585	H	0.924048	0.442725	-0.000619
	H3586	H	0.676172	0.395641	0.050055
	H3587	H	0.926197	0.458196	-0.012130
	H3588	H	0.853561	0.444018	0.059154
	H3589	H	0.604242	0.506890	-0.004474
	H3590	H	0.855100	0.457360	-0.054097
	H3591	H	0.604488	0.394859	0.008489
	H3592	H	0.856544	0.397888	0.057324
	H3593	H	0.606893	0.460406	-0.005067
	H3594	H	0.855156	0.507489	-0.055903
	H3595	H	0.604982	0.444961	0.006590
	H3596	H	0.675464	0.456140	-0.046983
	H3597	H	0.924282	0.393662	0.015479
	H3598	H	0.672379	0.441999	0.063670
	H3599	H	0.922239	0.504072	0.002247
	O3600	O	0.092816	0.488224	0.104317
	O3601	O	0.342831	0.425754	0.166940
	O3602	O	0.096950	0.405331	0.191133
	O3603	O	0.347048	0.467851	0.128793
	O3604	O	0.423111	0.424936	0.197091
	O3605	O	0.173360	0.487430	0.134551
	O3606	O	0.428339	0.469608	0.099666
	O3607	O	0.177943	0.407100	0.162121
	O3608	O	0.427965	0.405950	0.192756
	O3609	O	0.177703	0.468416	0.130127
	O3610	O	0.423698	0.488831	0.105995
	O3611	O	0.173531	0.426318	0.168383
	O3612	O	0.096894	0.469079	0.100590
	O3613	O	0.347165	0.406541	0.163156
	O3614	O	0.092073	0.424298	0.198042
	O3615	O	0.342438	0.486734	0.135700
	F3616	F	0.010274	0.416365	0.169030
	F3617	F	0.260642	0.478891	0.106574
	F3618	F	0.010297	0.477838	0.128215
	F3619	F	0.259998	0.415332	0.190639
	Al3620	Al	0.135209	0.415849	0.179828
	Al3621	Al	0.385552	0.478333	0.117403
	Al3622	Al	0.135363	0.478358	0.117356
	Al3623	Al	0.385269	0.415854	0.179851
	C3624	C	0.099433	0.504601	0.087527
	C3625	C	0.349234	0.442226	0.150466
	C3626	C	0.100265	0.388124	0.205189
	C3627	C	0.350349	0.450667	0.142929
	C3628	C	0.417862	0.439562	0.222424
	C3629	C	0.167812	0.502113	0.159785
	C3630	C	0.423897	0.454427	0.075751
	C3631	C	0.173253	0.391983	0.138017
	C3632	C	0.421223	0.389495	0.209298
	C3633	C	0.170750	0.451926	0.146518
	C3634	C	0.420093	0.506091	0.092039
	C3635	C	0.169615	0.443477	0.154056
	C3636	C	0.102086	0.453331	0.078253
	C3637	C	0.352599	0.390719	0.140935
	C3638	C	0.096826	0.438009	0.225208
	C3639	C	0.347021	0.500425	0.162870
	C3640	C	0.009004	0.501042	0.093542
	C3641	C	0.258825	0.438548	0.156047
	C3642	C	0.011044	0.393105	0.203395
	C3643	C	0.261183	0.455584	0.140898
	C3644	C	0.007232	0.435164	0.217118
	C3645	C	0.257437	0.497648	0.154656
	C3646	C	0.012424	0.457888	0.082715
	C3647	C	0.262925	0.395356	0.145201
	C3648	C	0.008373	0.492079	0.102028
	C3649	C	0.258274	0.429557	0.164420
	C3650	C	0.012105	0.402109	0.195076
	C3651	C	0.262195	0.464605	0.132638
	C3652	C	0.007463	0.427605	0.203044
	C3653	C	0.257746	0.490078	0.140592
	C3654	C	0.012315	0.466127	0.095259
	C3655	C	0.262656	0.403589	0.157735
	H3656	H	0.168324	0.500718	0.088692
	H3657	H	0.418158	0.438425	0.151944
	H3658	H	0.170094	0.390850	0.200540
	H3659	H	0.420099	0.453454	0.138509
	H3660	H	0.348439	0.437457	0.216212
	H3661	H	0.098344	0.500071	0.153459
	H3662	H	0.354566	0.457912	0.079129
	H3663	H	0.103715	0.395523	0.141242
	H3664	H	0.352247	0.393342	0.208073
	H3665	H	0.101786	0.455740	0.145060
	H3666	H	0.350446	0.503415	0.096875
	H3667	H	0.099947	0.440693	0.158502
	H3668	H	0.171394	0.455896	0.083713
	H3669	H	0.421975	0.393206	0.146549
	H3670	H	0.166455	0.434632	0.221327
	H3671	H	0.416544	0.496986	0.159100
	O3672	O	0.592837	0.488198	0.104313
	O3673	O	0.842493	0.425767	0.166977
	O3674	O	0.597218	0.405336	0.191152
	O3675	O	0.847120	0.467844	0.128767
	O3676	O	0.922983	0.424949	0.197055
	O3677	O	0.672940	0.487491	0.134475
	O3678	O	0.927714	0.469619	0.099673
	O3679	O	0.677458	0.407122	0.162101
	O3680	O	0.927708	0.405951	0.192643
	O3681	O	0.677830	0.468435	0.130239
	O3682	O	0.923725	0.488888	0.106166
	O3683	O	0.673172	0.426331	0.168407
	O3684	O	0.597530	0.469062	0.100649
	O3685	O	0.846671	0.406545	0.163150
	O3686	O	0.592164	0.424263	0.198097
	O3687	O	0.841930	0.486742	0.135726
	F3688	F	0.510247	0.416367	0.169048
	F3689	F	0.760727	0.478898	0.106641
	F3690	F	0.510296	0.477814	0.128186
	F3691	F	0.760009	0.415361	0.190664
	Al3692	Al	0.635104	0.415858	0.179820
	Al3693	Al	0.885465	0.478356	0.117477
	Al3694	Al	0.635393	0.478355	0.117375
	Al3695	Al	0.885142	0.415872	0.179791
	C3696	C	0.599529	0.504577	0.087514
	C3697	C	0.849230	0.442219	0.150482
	C3698	C	0.600652	0.388083	0.205134
	C3699	C	0.850508	0.450665	0.142944
	C3700	C	0.917462	0.439552	0.222377
	C3701	C	0.667536	0.502126	0.159792
	C3702	C	0.922748	0.454436	0.075772
	C3703	C	0.672846	0.391980	0.138036
	C3704	C	0.920656	0.389509	0.209291
	C3705	C	0.670901	0.451913	0.146443
	C3706	C	0.919963	0.506073	0.091877
	C3707	C	0.669601	0.443465	0.153973
	C3708	C	0.603079	0.453341	0.078206
	C3709	C	0.852291	0.390736	0.140937
	C3710	C	0.597179	0.437997	0.225161
	C3711	C	0.846913	0.500447	0.162769
	C3712	C	0.509139	0.501030	0.093582
	C3713	C	0.758833	0.438553	0.156077
	C3714	C	0.511649	0.393103	0.203448
	C3715	C	0.761376	0.455595	0.140927
	C3716	C	0.507454	0.435155	0.217122
	C3717	C	0.757200	0.497666	0.154605
	C3718	C	0.513427	0.457861	0.082756
	C3719	C	0.762395	0.395333	0.145298
	C3720	C	0.508412	0.492053	0.101973
	C3721	C	0.757954	0.429566	0.164472
	C3722	C	0.512462	0.402113	0.195143
	C3723	C	0.762315	0.464609	0.132671
	C3724	C	0.507573	0.427596	0.203062
	C3725	C	0.757298	0.490106	0.140558
	C3726	C	0.513053	0.466094	0.095282
	C3727	C	0.762106	0.403577	0.157794
	H3728	H	0.668386	0.500675	0.088606
	H3729	H	0.918042	0.438419	0.151969
	H3730	H	0.670528	0.390768	0.200462
	H3731	H	0.920158	0.453448	0.138526
	H3732	H	0.848066	0.437449	0.216144
	H3733	H	0.597961	0.500083	0.153487
	H3734	H	0.853360	0.457915	0.079200
	H3735	H	0.603297	0.395528	0.141215
	H3736	H	0.851771	0.393368	0.208017
	H3737	H	0.601867	0.455709	0.144912
	H3738	H	0.850168	0.503388	0.096636
	H3739	H	0.599765	0.440668	0.158355
	H3740	H	0.672442	0.455921	0.083595
	H3741	H	0.921754	0.393252	0.146514
	H3742	H	0.666682	0.434612	0.221255
	H3743	H	0.916436	0.497026	0.158954
	O3744	O	0.087025	0.478502	0.268629
	O3745	O	0.337023	0.416046	0.331290
	O3746	O	0.091071	0.395457	0.354985
	O3747	O	0.341135	0.457905	0.292324
	O3748	O	0.417619	0.414916	0.361342
	O3749	O	0.167487	0.477374	0.298876
	O3750	O	0.422578	0.460250	0.262742
	O3751	O	0.172023	0.397713	0.325360
	O3752	O	0.421885	0.396005	0.356323
	O3753	O	0.171860	0.458490	0.293767
	O3754	O	0.417584	0.479107	0.270307
	O3755	O	0.167762	0.416586	0.332710
	O3756	O	0.090949	0.459641	0.263683
	O3757	O	0.341155	0.397144	0.326216
	O3758	O	0.086246	0.414318	0.362296
	O3759	O	0.336621	0.476725	0.299861
	F3760	F	0.004528	0.406663	0.333089
	F3761	F	0.254585	0.469178	0.270552
	F3762	F	0.004406	0.467847	0.292055
	F3763	F	0.254303	0.405358	0.354540
	Al3764	Al	0.129441	0.406016	0.343827
	Al3765	Al	0.379487	0.468504	0.281266
	Al3766	Al	0.129465	0.468510	0.281270
	Al3767	Al	0.379403	0.406024	0.343795
	C3768	C	0.093418	0.494846	0.251824
	C3769	C	0.343701	0.432395	0.314488
	C3770	C	0.094653	0.378339	0.369424
	C3771	C	0.344900	0.440798	0.306781
	C3772	C	0.412121	0.429492	0.386792
	C3773	C	0.161956	0.491907	0.324367
	C3774	C	0.417800	0.446627	0.235492
	C3775	C	0.167585	0.384052	0.298149
	C3776	C	0.415215	0.379623	0.372963
	C3777	C	0.165247	0.442152	0.310668
	C3778	C	0.414239	0.496278	0.255983
	C3779	C	0.164089	0.433748	0.318373
	C3780	C	0.096619	0.445070	0.238280
	C3781	C	0.346823	0.382620	0.300707
	C3782	C	0.090595	0.427904	0.389659
	C3783	C	0.341310	0.490456	0.326998
	C3784	C	0.002917	0.491273	0.257732
	C3785	C	0.253259	0.428794	0.320292
	C3786	C	0.005494	0.383245	0.367331
	C3787	C	0.255596	0.445723	0.304740
	C3788	C	0.001019	0.425096	0.381523
	C3789	C	0.251716	0.487554	0.319026
	C3790	C	0.006792	0.449436	0.243559
	C3791	C	0.257111	0.386934	0.306119
	C3792	C	0.002496	0.482323	0.266251
	C3793	C	0.252443	0.419822	0.328712
	C3794	C	0.006353	0.392200	0.358866
	C3795	C	0.256348	0.454683	0.296289
	C3796	C	0.001483	0.417592	0.367304
	C3797	C	0.251970	0.480016	0.304890
	C3798	C	0.006527	0.456963	0.257710
	C3799	C	0.256705	0.394455	0.320282
	H3800	H	0.162389	0.490997	0.253164
	H3801	H	0.412698	0.428581	0.315921
	H3802	H	0.164176	0.381102	0.364909
	H3803	H	0.414695	0.443535	0.302222
	H3804	H	0.342807	0.427408	0.380518
	H3805	H	0.092575	0.489768	0.318210
	H3806	H	0.348478	0.450008	0.239468
	H3807	H	0.098250	0.387400	0.302198
	H3808	H	0.346600	0.383449	0.371370
	H3809	H	0.096504	0.446006	0.309302
	H3810	H	0.344472	0.493603	0.260725
	H3811	H	0.094363	0.431021	0.323015
	H3812	H	0.166036	0.447180	0.244507
	H3813	H	0.416067	0.384787	0.306870
	H3814	H	0.160150	0.424513	0.385768
	H3815	H	0.410845	0.487109	0.323016
	O3816	O	0.586809	0.478456	0.268574
	O3817	O	0.836807	0.416023	0.331263
	O3818	O	0.591196	0.395417	0.354835
	O3819	O	0.841212	0.457903	0.292340
	O3820	O	0.917059	0.414922	0.361336
	O3821	O	0.667245	0.477440	0.298730
	O3822	O	0.921853	0.460240	0.262737
	O3823	O	0.672204	0.397758	0.325231
	O3824	O	0.921911	0.395967	0.356253
	O3825	O	0.671997	0.458507	0.293845
	O3826	O	0.917849	0.479112	0.270388
	O3827	O	0.667612	0.416622	0.332857
	O3828	O	0.591733	0.459569	0.263814
	O3829	O	0.841222	0.397095	0.326227
	O3830	O	0.586711	0.414249	0.362399
	O3831	O	0.836352	0.476749	0.299900
	F3832	F	0.504639	0.406678	0.333093
	F3833	F	0.754836	0.469168	0.270579
	F3834	F	0.504376	0.467835	0.291976
	F3835	F	0.754458	0.405324	0.354513
	Al3836	Al	0.629580	0.406002	0.343822
	Al3837	Al	0.879613	0.468508	0.281387
	Al3838	Al	0.629615	0.468504	0.281247
	Al3839	Al	0.879505	0.406001	0.343766
	C3840	C	0.593699	0.494821	0.251837
	C3841	C	0.843364	0.432379	0.314478
	C3842	C	0.594979	0.378355	0.369428
	C3843	C	0.844668	0.440777	0.306760
	C3844	C	0.911321	0.429500	0.386802
	C3845	C	0.661644	0.491909	0.324389
	C3846	C	0.917250	0.446612	0.235435
	C3847	C	0.667451	0.384050	0.298134
	C3848	C	0.915108	0.379582	0.372894
	C3849	C	0.665000	0.442132	0.310607
	C3850	C	0.913737	0.496271	0.255925
	C3851	C	0.663722	0.433732	0.318326
	C3852	C	0.597147	0.445055	0.238239
	C3853	C	0.846833	0.382590	0.300730
	C3854	C	0.591345	0.427895	0.389660
	C3855	C	0.841033	0.490470	0.326906
	C3856	C	0.503242	0.491270	0.257780
	C3857	C	0.752936	0.428781	0.320279
	C3858	C	0.505695	0.383248	0.367320
	C3859	C	0.755435	0.445702	0.304705
	C3860	C	0.501815	0.425081	0.381534
	C3861	C	0.751378	0.487581	0.318968
	C3862	C	0.507430	0.449439	0.243556
	C3863	C	0.757011	0.386904	0.306121
	C3864	C	0.502342	0.482309	0.266250
	C3865	C	0.752258	0.419830	0.328778
	C3866	C	0.506420	0.392202	0.358837
	C3867	C	0.756435	0.454682	0.296318
	C3868	C	0.502045	0.417556	0.367377
	C3869	C	0.751621	0.480061	0.304819
	C3870	C	0.507279	0.456944	0.257763
	C3871	C	0.756772	0.394431	0.320271
	H3872	H	0.662552	0.490957	0.253148
	H3873	H	0.912237	0.428560	0.315917
	H3874	H	0.664485	0.381150	0.364932
	H3875	H	0.914428	0.443507	0.302193
	H3876	H	0.841946	0.427420	0.380519
	H3877	H	0.592223	0.489761	0.318268
	H3878	H	0.847714	0.449999	0.239322
	H3879	H	0.598142	0.387416	0.302174
	H3880	H	0.846289	0.383351	0.371234
	H3881	H	0.596285	0.445979	0.309205
	H3882	H	0.844001	0.493571	0.260656
	H3883	H	0.593993	0.430999	0.322941
	H3884	H	0.666562	0.447144	0.244479
	H3885	H	0.915987	0.384767	0.306936
	H3886	H	0.660816	0.424495	0.385764
	H3887	H	0.910549	0.487136	0.322893
	O3888	O	0.081041	0.468613	0.432334
	O3889	O	0.330989	0.406099	0.494829
	O3890	O	0.085535	0.385692	0.518993
	O3891	O	0.335431	0.448206	0.456539
	O3892	O	0.411739	0.405494	0.524380
	O3893	O	0.161645	0.467987	0.461901
	O3894	O	0.416644	0.450255	0.426983
	O3895	O	0.166437	0.387779	0.489419
	O3896	O	0.416221	0.386319	0.520618
	O3897	O	0.166152	0.448813	0.458140
	O3898	O	0.411831	0.469224	0.433880
	O3899	O	0.161745	0.406731	0.496377
	O3900	O	0.085369	0.449619	0.427995
	O3901	O	0.335466	0.387096	0.490538
	O3902	O	0.080522	0.404902	0.525458
	O3903	O	0.330862	0.467390	0.463027
	F3904	F	-0.001202	0.396734	0.496813
	F3905	F	0.248909	0.459193	0.434384
	F3906	F	-0.001347	0.458185	0.456004
	F3907	F	0.248313	0.395671	0.518475
	Al3908	Al	0.123605	0.396210	0.507674
	Al3909	Al	0.373819	0.458698	0.445229
	Al3910	Al	0.123772	0.458689	0.445173
	Al3911	Al	0.373524	0.396186	0.507689
	C3912	C	0.087811	0.485109	0.415991
	C3913	C	0.337652	0.422519	0.478097
	C3914	C	0.088944	0.368508	0.533215
	C3915	C	0.338869	0.430964	0.470543
	C3916	C	0.406352	0.421379	0.546422
	C3917	C	0.156264	0.483851	0.484055
	C3918	C	0.411993	0.436552	0.399854
	C3919	C	0.161776	0.374014	0.462411
	C3920	C	0.409836	0.369942	0.537433
	C3921	C	0.159521	0.432417	0.474888
	C3922	C	0.408459	0.486433	0.419737
	C3923	C	0.158273	0.423975	0.482445
	C3924	C	0.090507	0.434959	0.402742
	C3925	C	0.340938	0.372440	0.465264
	C3926	C	0.085053	0.420030	0.549577
	C3927	C	0.335690	0.482501	0.487148
	C3928	C	-0.002633	0.481453	0.421613
	C3929	C	0.247430	0.418959	0.484126
	C3930	C	-0.000306	0.373496	0.531397
	C3931	C	0.249944	0.436010	0.468987
	C3932	C	-0.004624	0.416708	0.542251
	C3933	C	0.245955	0.479183	0.479827
	C3934	C	0.000891	0.439391	0.407940
	C3935	C	0.251321	0.376869	0.470446
	C3936	C	-0.003360	0.472457	0.429983
	C3937	C	0.246606	0.409962	0.492459
	C3938	C	0.000780	0.382484	0.523036
	C3939	C	0.250682	0.444989	0.460565
	C3940	C	-0.004123	0.408464	0.529731
	C3941	C	0.246137	0.470927	0.467344
	C3942	C	0.000862	0.446966	0.422024
	C3943	C	0.251083	0.384451	0.484494
	H3944	H	0.156766	0.481297	0.417460
	H3945	H	0.406399	0.418633	0.479227
	H3946	H	0.158779	0.371224	0.528569
	H3947	H	0.408521	0.433640	0.465725
	H3948	H	0.337071	0.418913	0.540678
	H3949	H	0.086770	0.481371	0.478385
	H3950	H	0.342639	0.439957	0.403722
	H3951	H	0.092310	0.377382	0.466338
	H3952	H	0.341015	0.373824	0.536252
	H3953	H	0.090643	0.436298	0.473662
	H3954	H	0.338613	0.483676	0.424238
	H3955	H	0.088627	0.421269	0.487180
	H3956	H	0.159923	0.437027	0.409029
	H3957	H	0.410225	0.374516	0.471562
	H3958	H	0.154643	0.416446	0.546468
	H3959	H	0.405125	0.478896	0.484045
	O3960	O	0.581130	0.468597	0.432248
	O3961	O	0.830802	0.406090	0.494710
	O3962	O	0.585493	0.385701	0.518989
	O3963	O	0.835601	0.448183	0.456499
	O3964	O	0.911352	0.405541	0.524251
	O3965	O	0.661341	0.468061	0.461776
	O3966	O	0.916309	0.450308	0.426928
	O3967	O	0.666487	0.387786	0.489412
	O3968	O	0.916414	0.386334	0.520636
	O3969	O	0.666382	0.448827	0.458124
	O3970	O	0.911818	0.469263	0.434020
	O3971	O	0.661617	0.406754	0.496416
	O3972	O	0.585728	0.449604	0.428005
	O3973	O	0.835592	0.387049	0.490566
	O3974	O	0.581065	0.404912	0.525493
	O3975	O	0.830480	0.467374	0.463091
	F3976	F	0.498734	0.396725	0.496863
	F3977	F	0.748964	0.459241	0.434388
	F3978	F	0.498766	0.458185	0.455992
	F3979	F	0.748662	0.395669	0.518431
	Al3980	Al	0.623670	0.396211	0.507679
	Al3981	Al	0.873811	0.458722	0.445274
	Al3982	Al	0.623803	0.458713	0.445152
	Al3983	Al	0.873837	0.396195	0.507612
	C3984	C	0.588083	0.485102	0.415975
	C3985	C	0.837585	0.422538	0.478128
	C3986	C	0.589372	0.368510	0.533182
	C3987	C	0.839016	0.430976	0.470574
	C3988	C	0.905620	0.421390	0.546446
	C3989	C	0.655923	0.483881	0.483973
	C3990	C	0.911214	0.436553	0.399874
	C3991	C	0.661568	0.374045	0.462408
	C3992	C	0.909275	0.369933	0.537356
	C3993	C	0.659489	0.432455	0.474944
	C3994	C	0.908251	0.486411	0.419703
	C3995	C	0.658097	0.424013	0.482503
	C3996	C	0.591208	0.434957	0.402724
	C3997	C	0.840921	0.372469	0.465229
	C3998	C	0.585723	0.419994	0.549677
	C3999	C	0.835448	0.482538	0.487095
	C4000	C	0.497571	0.481478	0.421660
	C4001	C	0.747224	0.418992	0.484158
	C4002	C	0.500155	0.373497	0.531400
	C4003	C	0.749944	0.436009	0.468966
	C4004	C	0.496081	0.416691	0.542313
	C4005	C	0.745763	0.479233	0.479762
	C4006	C	0.501595	0.439364	0.407949
	C4007	C	0.751239	0.376872	0.470454
	C4008	C	0.496661	0.472452	0.429920
	C4009	C	0.746419	0.409968	0.492410
	C4010	C	0.500731	0.382483	0.523009
	C4011	C	0.750828	0.444991	0.460564
	C4012	C	0.496311	0.408447	0.529790
	C4013	C	0.745884	0.470957	0.467312
	C4014	C	0.501314	0.446940	0.422018
	C4015	C	0.751108	0.384437	0.484518
	H4016	H	0.656970	0.481266	0.417377
	H4017	H	0.906219	0.418635	0.479247
	H4018	H	0.659100	0.371225	0.528481
	H4019	H	0.908736	0.433649	0.465772
	H4020	H	0.836107	0.418938	0.540745
	H4021	H	0.586521	0.481371	0.478310
	H4022	H	0.841796	0.439947	0.403801
	H4023	H	0.592226	0.377440	0.466355
	H4024	H	0.840433	0.373813	0.536145
	H4025	H	0.590649	0.436353	0.473734
	H4026	H	0.838566	0.483649	0.424243
	H4027	H	0.588402	0.421304	0.487221
	H4028	H	0.660650	0.437042	0.408976
	H4029	H	0.910179	0.374568	0.471501
	H4030	H	0.655198	0.416387	0.546626
	H4031	H	0.904821	0.478924	0.484026
	O4032	O	0.075204	0.463571	0.581986
	O4033	O	0.325265	0.401074	0.644446
	O4034	O	0.079358	0.381789	0.672265
	O4035	O	0.329902	0.444240	0.609649
	O4036	O	0.405333	0.402704	0.671196
	O4037	O	0.155410	0.465202	0.608680
	O4038	O	0.411050	0.444680	0.580721
	O4039	O	0.160760	0.382162	0.643348
	O4040	O	0.410157	0.382383	0.673642
	O4041	O	0.160561	0.444855	0.611109
	O4042	O	0.405883	0.464156	0.583273
	O4043	O	0.155840	0.401667	0.645840
	O4044	O	0.079984	0.444087	0.582022
	O4045	O	0.329782	0.381577	0.644574
	O4046	O	0.074707	0.402196	0.672745
	O4047	O	0.324985	0.464694	0.610187
	F4048	F	-0.007296	0.391413	0.647946
	F4049	F	0.243003	0.453936	0.585423
	F4050	F	-0.006925	0.454492	0.607734
	F4051	F	0.242494	0.392008	0.670184
	Al4052	Al	0.117567	0.391743	0.659166
	Al4053	Al	0.367884	0.454234	0.596591
	Al4054	Al	0.117929	0.454234	0.596651
	Al4055	Al	0.367660	0.391731	0.659148
	C4056	C	0.082125	0.480517	0.566624
	C4057	C	0.332095	0.417951	0.628882
	C4058	C	0.083070	0.364257	0.685139
	C4059	C	0.333299	0.426643	0.622304
	C4060	C	0.404657	0.421804	0.673790
	C4061	C	0.154897	0.484305	0.611369
	C4062	C	0.406250	0.429210	0.557624
	C4063	C	0.155831	0.366687	0.620244
	C4064	C	0.403350	0.365463	0.688984
	C4065	C	0.153490	0.427933	0.626480
	C4066	C	0.402653	0.481725	0.570401
	C4067	C	0.152259	0.419234	0.633004
	C4068	C	0.085135	0.427864	0.560790
	C4069	C	0.335187	0.365353	0.623382
	C4070	C	0.084311	0.421137	0.677840
	C4071	C	0.334912	0.483632	0.615253
	C4072	C	-0.008409	0.476657	0.571861
	C4073	C	0.241526	0.414142	0.634279
	C4074	C	-0.006249	0.369327	0.683838
	C4075	C	0.244108	0.431750	0.621121
	C4076	C	-0.007304	0.416604	0.675443
	C4077	C	0.243208	0.479108	0.612980
	C4078	C	-0.004504	0.432567	0.564905
	C4079	C	0.245568	0.370060	0.627441
	C4080	C	-0.009162	0.467461	0.579600
	C4081	C	0.240771	0.404951	0.642064
	C4082	C	-0.005586	0.378496	0.676024
	C4083	C	0.244938	0.440945	0.613399
	C4084	C	-0.009274	0.406411	0.673001
	C4085	C	0.240940	0.468921	0.610498
	C4086	C	-0.004423	0.441034	0.576789
	C4087	C	0.245413	0.378524	0.639350
	H4088	H	0.151495	0.476660	0.567589
	H4089	H	0.401243	0.414050	0.629739
	H4090	H	0.153094	0.367131	0.680899
	H4091	H	0.403345	0.429491	0.617947
	H4092	H	0.333610	0.418405	0.671727
	H4093	H	0.083810	0.480892	0.609376
	H4094	H	0.336793	0.432827	0.560624
	H4095	H	0.086310	0.370284	0.623303
	H4096	H	0.334255	0.369358	0.688090
	H4097	H	0.084294	0.431828	0.625630
	H4098	H	0.332385	0.478859	0.574509
	H4099	H	0.082068	0.416396	0.637229
	H4100	H	0.154607	0.430362	0.566407
	H4101	H	0.404566	0.367849	0.629051
	H4102	H	0.152934	0.417201	0.679174
	H4103	H	0.403635	0.479693	0.616462
	O4104	O	0.575282	0.463540	0.581808
	O4105	O	0.825107	0.401084	0.644434
	O4106	O	0.579554	0.381799	0.672273
	O4107	O	0.829530	0.444263	0.609745
	O4108	O	0.905296	0.402672	0.671124
	O4109	O	0.654884	0.465271	0.608447
	O4110	O	0.910998	0.444677	0.580764
	O4111	O	0.660714	0.382146	0.643301
	O4112	O	0.909962	0.382366	0.673648
	O4113	O	0.660250	0.444860	0.611080
	O4114	O	0.905804	0.464161	0.583308
	O4115	O	0.655726	0.401638	0.645704
	O4116	O	0.580052	0.444066	0.582019
	O4117	O	0.829722	0.381550	0.644541
	O4118	O	0.574786	0.402181	0.672752
	O4119	O	0.824273	0.464698	0.610316
	F4120	F	0.492831	0.391427	0.647930
	F4121	F	0.743213	0.453949	0.585434
	F4122	F	0.492720	0.454510	0.607629
	F4123	F	0.742571	0.392009	0.670096
	Al4124	Al	0.617632	0.391740	0.659133
	Al4125	Al	0.867966	0.454242	0.596663
	Al4126	Al	0.617906	0.454237	0.596595
	Al4127	Al	0.867986	0.391709	0.659044
	C4128	C	0.582452	0.480513	0.566589
	C4129	C	0.832061	0.418000	0.629032
	C4130	C	0.583262	0.364234	0.685017
	C4131	C	0.833211	0.426696	0.622484
	C4132	C	0.904320	0.421800	0.673794
	C4133	C	0.654703	0.484332	0.611270
	C4134	C	0.905674	0.429226	0.557670
	C4135	C	0.655990	0.366707	0.620144
	C4136	C	0.903046	0.365473	0.689035
	C4137	C	0.653313	0.427920	0.626453
	C4138	C	0.902336	0.481737	0.570495
	C4139	C	0.652145	0.419218	0.632956
	C4140	C	0.585641	0.427828	0.560887
	C4141	C	0.835289	0.365341	0.623354
	C4142	C	0.584509	0.421138	0.677975
	C4143	C	0.834656	0.483637	0.615341
	C4144	C	0.491774	0.476648	0.571746
	C4145	C	0.741430	0.414143	0.634263
	C4146	C	0.493886	0.369300	0.683712
	C4147	C	0.743799	0.431758	0.621147
	C4148	C	0.492935	0.416608	0.675505
	C4149	C	0.742961	0.479134	0.612942
	C4150	C	0.495925	0.432551	0.564898
	C4151	C	0.745616	0.370040	0.627430
	C4152	C	0.490851	0.467436	0.579484
	C4153	C	0.740646	0.404945	0.641999
	C4154	C	0.494603	0.378493	0.675980
	C4155	C	0.744556	0.440951	0.613417
	C4156	C	0.490843	0.406422	0.673011
	C4157	C	0.740456	0.468953	0.610451
	C4158	C	0.495638	0.441019	0.576791
	C4159	C	0.745311	0.378510	0.639315
	H4160	H	0.651715	0.476649	0.567585
	H4161	H	0.901307	0.414127	0.629977
	H4162	H	0.653258	0.367115	0.680774
	H4163	H	0.903248	0.429572	0.618251
	H4164	H	0.833323	0.418383	0.671784
	H4165	H	0.583630	0.480925	0.609246
	H4166	H	0.836229	0.432842	0.560689
	H4167	H	0.586553	0.370326	0.623132
	H4168	H	0.833823	0.369353	0.688082
	H4169	H	0.583984	0.431791	0.625571
	H4170	H	0.832069	0.478870	0.574614
	H4171	H	0.581880	0.416347	0.637119
	H4172	H	0.655002	0.430306	0.566597
	H4173	H	0.904687	0.367835	0.629016
	H4174	H	0.653179	0.417203	0.679348
	H4175	H	0.903274	0.479689	0.616636
	O4176	O	0.082504	0.470093	0.675965
	O4177	O	0.332149	0.407581	0.738461
	O4178	O	0.085972	0.389134	0.768751
	O4179	O	0.336068	0.451588	0.706189
	O4180	O	0.412397	0.409983	0.764483
	O4181	O	0.162654	0.472457	0.702025
	O4182	O	0.417584	0.450210	0.679675
	O4183	O	0.167382	0.387707	0.742295
	O4184	O	0.416906	0.389573	0.769661
	O4185	O	0.166651	0.452036	0.707086
	O4186	O	0.413564	0.470540	0.676940
	O4187	O	0.162806	0.408073	0.739514
	O4188	O	0.086934	0.449759	0.680972
	O4189	O	0.336799	0.387250	0.743743
	O4190	O	0.081807	0.409590	0.766019
	O4191	O	0.332089	0.472070	0.703400
	F4192	F	-0.000012	0.397766	0.742928
	F4193	F	0.249951	0.460234	0.680362
	F4194	F	-0.000238	0.461967	0.702875
	F4195	F	0.249418	0.399482	0.765403
	Al4196	Al	0.124584	0.398626	0.754210
	Al4197	Al	0.374571	0.461103	0.691659
	Al4198	Al	0.124797	0.461084	0.691586
	Al4199	Al	0.374516	0.398605	0.754151
	C4200	C	0.089333	0.487398	0.661463
	C4201	C	0.338812	0.424865	0.723961
	C4202	C	0.090009	0.371314	0.780899
	C4203	C	0.339892	0.433753	0.718284
	C4204	C	0.410649	0.429089	0.766014
	C4205	C	0.160529	0.491581	0.703545
	C4206	C	0.407867	0.431296	0.674593
	C4207	C	0.157674	0.368790	0.737253
	C4208	C	0.410143	0.372200	0.783714
	C4209	C	0.159666	0.434699	0.721312
	C4210	C	0.409417	0.488275	0.664381
	C4211	C	0.158620	0.425802	0.726982
	C4212	C	0.087375	0.430627	0.678591
	C4213	C	0.337787	0.368122	0.741103
	C4214	C	0.091007	0.428581	0.769412
	C4215	C	0.341048	0.491093	0.706870
	C4216	C	-0.001294	0.483268	0.665931
	C4217	C	0.248131	0.420756	0.728427
	C4218	C	0.000470	0.376349	0.779385
	C4219	C	0.250384	0.438815	0.716880
	C4220	C	-0.000615	0.423982	0.767722
	C4221	C	0.249527	0.486481	0.705168
	C4222	C	-0.000956	0.435818	0.676967
	C4223	C	0.249375	0.373313	0.739569
	C4224	C	-0.001999	0.473956	0.673433
	C4225	C	0.247680	0.411451	0.735941
	C4226	C	0.001043	0.385710	0.772131
	C4227	C	0.251118	0.448161	0.709577
	C4228	C	-0.002401	0.413769	0.766030
	C4229	C	0.247888	0.476258	0.703468
	C4230	C	0.001604	0.446016	0.679299
	C4231	C	0.251463	0.383499	0.741996
	H4232	H	0.159203	0.483601	0.662431
	H4233	H	0.408532	0.421051	0.724895
	H4234	H	0.160630	0.374389	0.777544
	H4235	H	0.410500	0.436802	0.714811
	H4236	H	0.339527	0.425615	0.764681
	H4237	H	0.089494	0.488093	0.702210
	H4238	H	0.339326	0.435235	0.673206
	H4239	H	0.088904	0.372727	0.736039
	H4240	H	0.340478	0.376015	0.782743
	H4241	H	0.089883	0.438521	0.720388
	H4242	H	0.338769	0.485214	0.667777
	H4243	H	0.087856	0.422761	0.730407
	H4244	H	0.158429	0.434041	0.680514
	H4245	H	0.408933	0.371527	0.743026
	H4246	H	0.160142	0.424714	0.770786
	H4247	H	0.410201	0.487227	0.708243
	O4248	O	0.583025	0.470114	0.676050
	O4249	O	0.831765	0.407597	0.738414
	O4250	O	0.586334	0.389131	0.768730
	O4251	O	0.835888	0.451586	0.706276
	O4252	O	0.912311	0.409962	0.764540
	O4253	O	0.662241	0.472450	0.702229
	O4254	O	0.917602	0.450238	0.679679
	O4255	O	0.667121	0.387714	0.742158
	O4256	O	0.916474	0.389596	0.769682
	O4257	O	0.666496	0.452055	0.707203
	O4258	O	0.913039	0.470554	0.676943
	O4259	O	0.662399	0.408053	0.739418
	O4260	O	0.586954	0.449774	0.681172
	O4261	O	0.836534	0.387226	0.743640
	O4262	O	0.581790	0.409560	0.765953
	O4263	O	0.831770	0.472105	0.703539
	F4264	F	0.499528	0.397735	0.742926
	F4265	F	0.749982	0.460277	0.680576
	F4266	F	0.499331	0.461955	0.702889
	F4267	F	0.749339	0.399472	0.765303
	Al4268	Al	0.624394	0.398612	0.754131
	Al4269	Al	0.875053	0.461127	0.691706
	Al4270	Al	0.624596	0.461107	0.691729
	Al4271	Al	0.874744	0.398608	0.754086
	C4272	C	0.589627	0.487370	0.661440
	C4273	C	0.838528	0.424858	0.723927
	C4274	C	0.590436	0.371290	0.780801
	C4275	C	0.839741	0.433752	0.718281
	C4276	C	0.910508	0.429098	0.766013
	C4277	C	0.660235	0.491586	0.703447
	C4278	C	0.907359	0.431292	0.674575
	C4279	C	0.657226	0.368799	0.737162
	C4280	C	0.909693	0.372208	0.783717
	C4281	C	0.659491	0.434709	0.721357
	C4282	C	0.909100	0.488313	0.664449
	C4283	C	0.658255	0.425808	0.726980
	C4284	C	0.587721	0.430628	0.678738
	C4285	C	0.837394	0.368126	0.741123
	C4286	C	0.591136	0.428579	0.769385
	C4287	C	0.840646	0.491083	0.706922
	C4288	C	0.498987	0.483240	0.665884
	C4289	C	0.747870	0.420770	0.728460
	C4290	C	0.500853	0.376341	0.779361
	C4291	C	0.750236	0.438817	0.716940
	C4292	C	0.499519	0.423973	0.767673
	C4293	C	0.749044	0.486480	0.705247
	C4294	C	0.499468	0.435821	0.677055
	C4295	C	0.748915	0.373307	0.739578
	C4296	C	0.498449	0.473945	0.673437
	C4297	C	0.747258	0.411462	0.735924
	C4298	C	0.501424	0.385698	0.772108
	C4299	C	0.750901	0.448167	0.709645
	C4300	C	0.497695	0.413760	0.765981
	C4301	C	0.747404	0.476263	0.703654
	C4302	C	0.501695	0.446012	0.679426
	C4303	C	0.751134	0.383495	0.741919
	H4304	H	0.659462	0.483568	0.662414
	H4305	H	0.908167	0.421027	0.724803
	H4306	H	0.661029	0.374370	0.777412
	H4307	H	0.910410	0.436791	0.714811
	H4308	H	0.839442	0.425625	0.764607
	H4309	H	0.589156	0.488105	0.702062
	H4310	H	0.838730	0.435229	0.673221
	H4311	H	0.588636	0.372747	0.735837
	H4312	H	0.839946	0.376013	0.782737
	H4313	H	0.589746	0.438529	0.720439
	H4314	H	0.838405	0.485254	0.667860
	H4315	H	0.587576	0.422737	0.730366
	H4316	H	0.658771	0.434035	0.680734
	H4317	H	0.908477	0.371549	0.743006
	H4318	H	0.660176	0.424711	0.770774
	H4319	H	0.909700	0.487215	0.708357
	O4320	O	0.087159	0.477563	0.765666
	O4321	O	0.337392	0.415047	0.828092
	O4322	O	0.090837	0.396622	0.858518
	O4323	O	0.340865	0.459118	0.795993
	O4324	O	0.417042	0.417373	0.854185
	O4325	O	0.167119	0.479901	0.791601
	O4326	O	0.422299	0.457556	0.769549
	O4327	O	0.171906	0.395053	0.831966
	O4328	O	0.421232	0.396993	0.859273
	O4329	O	0.171431	0.459498	0.796763
	O4330	O	0.417798	0.477992	0.766543
	O4331	O	0.168001	0.415464	0.828987
	O4332	O	0.091819	0.457177	0.770796
	O4333	O	0.341389	0.394672	0.833230
	O4334	O	0.086695	0.417003	0.855464
	O4335	O	0.336445	0.479496	0.793053
	F4336	F	0.004952	0.405142	0.832444
	F4337	F	0.254641	0.467665	0.770004
	F4338	F	0.004306	0.469406	0.792514
	F4339	F	0.254259	0.406910	0.854897
	Al4340	Al	0.129530	0.406021	0.843719
	Al4341	Al	0.379332	0.468540	0.781249
	Al4342	Al	0.129398	0.468531	0.781212
	Al4343	Al	0.379369	0.406018	0.843677
	C4344	C	0.093801	0.494921	0.751522
	C4345	C	0.344137	0.432385	0.813885
	C4346	C	0.094649	0.378848	0.870964
	C4347	C	0.345106	0.441293	0.808274
	C4348	C	0.415229	0.436476	0.855678
	C4349	C	0.165458	0.499007	0.793303
	C4350	C	0.413234	0.438572	0.765987
	C4351	C	0.162810	0.376069	0.828531
	C4352	C	0.414612	0.379661	0.873463
	C4353	C	0.164817	0.442170	0.811021
	C4354	C	0.413857	0.495807	0.754233
	C4355	C	0.163863	0.433265	0.816644
	C4356	C	0.093628	0.438066	0.769367
	C4357	C	0.343368	0.375565	0.831683
	C4358	C	0.095801	0.436007	0.858998
	C4359	C	0.345986	0.498486	0.796517
	C4360	C	0.003100	0.490753	0.755787
	C4361	C	0.253403	0.428227	0.818161
	C4362	C	0.005134	0.383872	0.869320
	C4363	C	0.255534	0.446335	0.806747
	C4364	C	0.004240	0.431394	0.857349
	C4365	C	0.254306	0.493876	0.794905
	C4366	C	0.004767	0.443176	0.767698
	C4367	C	0.254407	0.380668	0.830087
	C4368	C	0.002558	0.481407	0.763149
	C4369	C	0.252831	0.418889	0.825532
	C4370	C	0.005904	0.393212	0.861960
	C4371	C	0.256036	0.455669	0.799376
	C4372	C	0.002461	0.421183	0.855618
	C4373	C	0.252332	0.483682	0.793142
	C4374	C	0.006621	0.453382	0.769390
	C4375	C	0.256158	0.390878	0.831806
	H4376	H	0.163668	0.491138	0.752559
	H4377	H	0.414029	0.428597	0.814905
	H4378	H	0.165473	0.381944	0.867770
	H4379	H	0.415808	0.444384	0.804974
	H4380	H	0.344097	0.433011	0.854331
	H4381	H	0.094168	0.495553	0.791990
	H4382	H	0.344193	0.442445	0.764628
	H4383	H	0.093621	0.379942	0.827259
	H4384	H	0.344746	0.383438	0.872376
	H4385	H	0.094890	0.445961	0.810012
	H4386	H	0.343064	0.492735	0.757528
	H4387	H	0.093087	0.430190	0.819966
	H4388	H	0.164760	0.441532	0.770682
	H4389	H	0.414458	0.379048	0.832979
	H4390	H	0.164966	0.432145	0.860376
	H4391	H	0.415185	0.494627	0.797825
	O4392	O	0.587239	0.477558	0.765613
	O4393	O	0.836883	0.415047	0.828087
	O4394	O	0.590746	0.396609	0.858523
	O4395	O	0.840510	0.459042	0.795929
	O4396	O	0.917124	0.417383	0.854169
	O4397	O	0.666846	0.479890	0.791618
	O4398	O	0.922348	0.457572	0.769483
	O4399	O	0.671635	0.395056	0.832034
	O4400	O	0.921389	0.397087	0.859405
	O4401	O	0.671074	0.459517	0.796872
	O4402	O	0.917743	0.477956	0.766525
	O4403	O	0.667561	0.415522	0.829168
	O4404	O	0.591774	0.457176	0.770775
	O4405	O	0.841170	0.394660	0.833264
	O4406	O	0.586518	0.416979	0.855541
	O4407	O	0.836265	0.479503	0.793033
	F4408	F	0.504602	0.405158	0.832514
	F4409	F	0.754741	0.467637	0.770070
	F4410	F	0.504081	0.469405	0.792405
	F4411	F	0.754323	0.406892	0.854905
	Al4412	Al	0.629388	0.406029	0.843761
	Al4413	Al	0.879700	0.468522	0.781302
	Al4414	Al	0.629338	0.468515	0.781210
	Al4415	Al	0.879767	0.406030	0.843681
	C4416	C	0.594077	0.494915	0.751449
	C4417	C	0.843603	0.432406	0.813926
	C4418	C	0.594945	0.378826	0.870909
	C4419	C	0.844641	0.441305	0.808292
	C4420	C	0.915301	0.436504	0.855656
	C4421	C	0.664843	0.498998	0.793268
	C4422	C	0.913110	0.438577	0.765976
	C4423	C	0.662351	0.376071	0.828558
	C4424	C	0.914298	0.379710	0.873545
	C4425	C	0.664248	0.442183	0.811094
	C4426	C	0.913376	0.495783	0.754169
	C4427	C	0.663227	0.433283	0.816724
	C4428	C	0.593702	0.438059	0.769336
	C4429	C	0.842887	0.375554	0.831751
	C4430	C	0.595637	0.435964	0.859083
	C4431	C	0.845402	0.498473	0.796528
	C4432	C	0.503327	0.490754	0.755739
	C4433	C	0.752933	0.428253	0.818255
	C4434	C	0.505369	0.383835	0.869272
	C4435	C	0.754933	0.446330	0.806783
	C4436	C	0.504068	0.431367	0.857390
	C4437	C	0.753738	0.493871	0.794870
	C4438	C	0.504837	0.443168	0.767662
	C4439	C	0.754037	0.380667	0.830140
	C4440	C	0.502686	0.481418	0.763104
	C4441	C	0.752418	0.418928	0.825654
	C4442	C	0.505859	0.393168	0.861896
	C4443	C	0.755523	0.455651	0.799386
	C4444	C	0.502312	0.421160	0.855668
	C4445	C	0.752022	0.483675	0.793143
	C4446	C	0.506569	0.453381	0.769373
	C4447	C	0.755855	0.390876	0.831862
	H4448	H	0.663967	0.491122	0.752466
	H4449	H	0.913487	0.428615	0.814918
	H4450	H	0.665722	0.381922	0.867715
	H4451	H	0.915390	0.444386	0.804979
	H4452	H	0.844190	0.433026	0.854316
	H4453	H	0.593587	0.495548	0.791971
	H4454	H	0.844093	0.442456	0.764570
	H4455	H	0.593294	0.379959	0.827269
	H4456	H	0.844499	0.383497	0.872491
	H4457	H	0.594314	0.445971	0.810081
	H4458	H	0.842630	0.492682	0.757400
	H4459	H	0.592493	0.430198	0.820031
	H4460	H	0.664826	0.441523	0.770676
	H4461	H	0.914058	0.379022	0.833053
	H4462	H	0.664735	0.432097	0.860466
	H4463	H	0.914647	0.494610	0.797881
	O4464	O	0.091874	0.485012	0.855260
	O4465	O	0.341846	0.422478	0.917737
	O4466	O	0.095627	0.404032	0.948109
	O4467	O	0.345523	0.466505	0.885472
	O4468	O	0.421741	0.424799	0.943784
	O4469	O	0.171903	0.487305	0.881326
	O4470	O	0.427082	0.464966	0.859006
	O4471	O	0.177105	0.402467	0.921627
	O4472	O	0.426530	0.404486	0.948970
	O4473	O	0.176231	0.466954	0.886377
	O4474	O	0.422528	0.485459	0.856294
	O4475	O	0.172485	0.422991	0.918890
	O4476	O	0.096247	0.464629	0.860328
	O4477	O	0.346520	0.402081	0.922933
	O4478	O	0.091020	0.424331	0.945276
	O4479	O	0.341339	0.486858	0.882664
	F4480	F	0.009767	0.412583	0.922025
	F4481	F	0.259341	0.475101	0.859544
	F4482	F	0.009252	0.476823	0.882073
	F4483	F	0.259072	0.414308	0.944561
	Al4484	Al	0.134347	0.413430	0.933340
	Al4485	Al	0.384142	0.475936	0.870741
	Al4486	Al	0.134354	0.475973	0.870768
	Al4487	Al	0.384112	0.413452	0.933327
	C4488	C	0.098409	0.502387	0.841215
	C4489	C	0.348805	0.439885	0.903778
	C4490	C	0.099262	0.386301	0.960643
	C4491	C	0.349720	0.448778	0.898100
	C4492	C	0.420901	0.443936	0.946489
	C4493	C	0.171150	0.506444	0.883901
	C4494	C	0.417882	0.445964	0.855627
	C4495	C	0.167882	0.383482	0.918348
	C4496	C	0.419565	0.387201	0.963424
	C4497	C	0.169540	0.449683	0.901005
	C4498	C	0.418725	0.503272	0.844143
	C4499	C	0.168590	0.440800	0.906709
	C4500	C	0.098281	0.445494	0.858945
	C4501	C	0.348329	0.382953	0.921503
	C4502	C	0.100679	0.443257	0.950313
	C4503	C	0.351198	0.505762	0.887820
	C4504	C	0.007774	0.498250	0.845604
	C4505	C	0.258073	0.435758	0.908173
	C4506	C	0.009797	0.391336	0.959088
	C4507	C	0.260194	0.453801	0.896538
	C4508	C	0.009069	0.438740	0.947899
	C4509	C	0.259451	0.501248	0.885449
	C4510	C	0.009418	0.450599	0.857247
	C4511	C	0.259541	0.388074	0.919912
	C4512	C	0.007283	0.488890	0.852882
	C4513	C	0.257387	0.426398	0.915421
	C4514	C	0.010604	0.400644	0.951600
	C4515	C	0.260693	0.463099	0.888980
	C4516	C	0.007085	0.428553	0.945497
	C4517	C	0.257189	0.491059	0.883035
	C4518	C	0.011131	0.460817	0.858891
	C4519	C	0.261297	0.398282	0.921568
	H4520	H	0.168231	0.498585	0.842163
	H4521	H	0.418436	0.436071	0.904752
	H4522	H	0.170044	0.389355	0.957318
	H4523	H	0.420310	0.451837	0.894717
	H4524	H	0.349763	0.440538	0.944594
	H4525	H	0.100001	0.503038	0.881981
	H4526	H	0.348913	0.449842	0.854230
	H4527	H	0.098788	0.387355	0.917074
	H4528	H	0.349773	0.390996	0.962410
	H4529	H	0.099734	0.453492	0.900034
	H4530	H	0.348008	0.500217	0.847546
	H4531	H	0.097901	0.437741	0.910105
	H4532	H	0.169311	0.448969	0.860293
	H4533	H	0.419568	0.386406	0.922774
	H4534	H	0.169360	0.439322	0.951623
	H4535	H	0.419812	0.501812	0.889110
	O4536	O	0.591958	0.484966	0.855201
	O4537	O	0.841499	0.422523	0.917711
	O4538	O	0.595934	0.404030	0.948079
	O4539	O	0.845439	0.466510	0.885609
	O4540	O	0.921637	0.424797	0.943780
	O4541	O	0.671514	0.487313	0.881263
	O4542	O	0.926819	0.464999	0.858930
	O4543	O	0.676983	0.402469	0.921619
	O4544	O	0.926197	0.404522	0.948987
	O4545	O	0.676046	0.466967	0.886471
	O4546	O	0.922449	0.485448	0.856279
	O4547	O	0.672106	0.422970	0.918756
	O4548	O	0.596500	0.464589	0.860323
	O4549	O	0.846507	0.402072	0.922775
	O4550	O	0.591085	0.424353	0.945265
	O4551	O	0.840840	0.486872	0.882842
	F4552	F	0.509386	0.412580	0.922115
	F4553	F	0.759560	0.475112	0.859644
	F4554	F	0.508965	0.476788	0.881985
	F4555	F	0.759125	0.414335	0.944455
	Al4556	Al	0.634301	0.413452	0.933333
	Al4557	Al	0.884599	0.475958	0.870871
	Al4558	Al	0.634312	0.475943	0.870770
	Al4559	Al	0.884563	0.413462	0.933199
	C4560	C	0.598959	0.502346	0.841187
	C4561	C	0.848260	0.439876	0.903689
	C4562	C	0.599881	0.386303	0.960650
	C4563	C	0.849355	0.448769	0.898050
	C4564	C	0.920631	0.443930	0.946390
	C4565	C	0.670579	0.506453	0.883855
	C4566	C	0.917810	0.445985	0.855584
	C4567	C	0.667620	0.383493	0.918227
	C4568	C	0.918993	0.387231	0.963561
	C4569	C	0.669050	0.449706	0.901015
	C4570	C	0.918249	0.503326	0.844242
	C4571	C	0.667964	0.440815	0.906688
	C4572	C	0.598306	0.445445	0.859037
	C4573	C	0.848074	0.382954	0.921362
	C4574	C	0.600995	0.443251	0.950333
	C4575	C	0.850651	0.505755	0.887858
	C4576	C	0.508217	0.498211	0.845555
	C4577	C	0.757505	0.435755	0.908067
	C4578	C	0.510311	0.391325	0.959045
	C4579	C	0.759781	0.453808	0.896554
	C4580	C	0.509214	0.438740	0.948004
	C4581	C	0.758950	0.501242	0.885433
	C4582	C	0.509442	0.450565	0.857330
	C4583	C	0.759343	0.388079	0.919764
	C4584	C	0.507479	0.488864	0.852842
	C4585	C	0.756932	0.426402	0.915326
	C4586	C	0.511008	0.400629	0.951545
	C4587	C	0.760484	0.463112	0.889071
	C4588	C	0.506985	0.428555	0.945562
	C4589	C	0.756761	0.491067	0.883058
	C4590	C	0.511308	0.460783	0.858946
	C4591	C	0.761205	0.398286	0.921435
	H4592	H	0.668718	0.498540	0.842136
	H4593	H	0.917977	0.436061	0.904654
	H4594	H	0.670652	0.389368	0.957334
	H4595	H	0.920098	0.451832	0.894670
	H4596	H	0.849507	0.440518	0.944513
	H4597	H	0.599439	0.503039	0.881936
	H4598	H	0.848667	0.449849	0.854203
	H4599	H	0.598602	0.387378	0.916957
	H4600	H	0.849305	0.391053	0.962636
	H4601	H	0.599315	0.453525	0.900069
	H4602	H	0.847595	0.500279	0.847700
	H4603	H	0.597403	0.437762	0.910126
	H4604	H	0.669330	0.448934	0.860388
	H4605	H	0.919379	0.386400	0.922642
	H4606	H	0.669700	0.439312	0.951560
	H4607	H	0.919341	0.501811	0.889200
	O4608	O	0.093569	0.613318	-0.020338
	O4609	O	0.343018	0.550728	0.041933
	O4610	O	0.097712	0.530292	0.066067
	O4611	O	0.347530	0.592840	0.003683
	O4612	O	0.423993	0.549935	0.072017
	O4613	O	0.174083	0.612358	0.009719
	O4614	O	0.428466	0.594626	-0.025398
	O4615	O	0.178450	0.532167	0.037018
	O4616	O	0.428246	0.530944	0.067777
	O4617	O	0.178326	0.593429	0.005250
	O4618	O	0.424325	0.613765	-0.019252
	O4619	O	0.173809	0.551352	0.043501
	O4620	O	0.097580	0.594044	-0.024283
	O4621	O	0.347634	0.531523	0.038248
	O4622	O	0.092186	0.549276	0.073073
	O4623	O	0.343125	0.611845	0.010531
	F4624	F	0.010718	0.541363	0.044045
	F4625	F	0.260885	0.603903	-0.018395
	F4626	F	0.010538	0.602806	0.003184
	F4627	F	0.260376	0.540348	0.065722
	Al4628	Al	0.135613	0.540843	0.054837
	Al4629	Al	0.385871	0.603342	-0.007629
	Al4630	Al	0.135834	0.603353	-0.007567
	Al4631	Al	0.385627	0.540855	0.054881
	C4632	C	0.100052	0.629845	-0.036529
	C4633	C	0.349703	0.567112	0.025139
	C4634	C	0.100713	0.513047	0.079972
	C4635	C	0.350965	0.575558	0.017599
	C4636	C	0.418478	0.564524	0.097421
	C4637	C	0.168232	0.626818	0.035380
	C4638	C	0.424032	0.579579	-0.049683
	C4639	C	0.173843	0.517145	0.012669
	C4640	C	0.421289	0.514538	0.084474
	C4641	C	0.171470	0.576975	0.021732
	C4642	C	0.420365	0.630817	-0.034033
	C4643	C	0.170193	0.568531	0.029282
	C4644	C	0.102968	0.578158	-0.046359
	C4645	C	0.353040	0.515579	0.016348
	C4646	C	0.097160	0.563021	0.100105
	C4647	C	0.347812	0.625764	0.037145
	C4648	C	0.009610	0.626054	-0.031384
	C4649	C	0.259316	0.563533	0.031057
	C4650	C	0.011717	0.518091	0.078379
	C4651	C	0.261984	0.580580	0.015915
	C4652	C	0.007347	0.560164	0.092115
	C4653	C	0.258095	0.622662	0.029611
	C4654	C	0.013332	0.582892	-0.042293
	C4655	C	0.263480	0.520362	0.020235
	C4656	C	0.009007	0.617070	-0.023001
	C4657	C	0.258581	0.554558	0.039480
	C4658	C	0.012850	0.527098	0.070084
	C4659	C	0.262808	0.589588	0.007613
	C4660	C	0.007495	0.552598	0.078032
	C4661	C	0.258431	0.615092	0.015587
	C4662	C	0.013081	0.591115	-0.029744
	C4663	C	0.263127	0.528612	0.032737
	H4664	H	0.169008	0.626153	-0.034649
	H4665	H	0.418501	0.563248	0.026358
	H4666	H	0.170389	0.515729	0.075178
	H4667	H	0.420678	0.578253	0.012902
	H4668	H	0.349024	0.562401	0.091196
	H4669	H	0.098776	0.624503	0.029569
	H4670	H	0.354674	0.583210	-0.046668
	H4671	H	0.104500	0.520817	0.015569
	H4672	H	0.352527	0.518447	0.083351
	H4673	H	0.102575	0.580843	0.020456
	H4674	H	0.350626	0.627914	-0.030035
	H4675	H	0.100427	0.565814	0.033946
	H4676	H	0.172400	0.580570	-0.040546
	H4677	H	0.422306	0.517965	0.022299
	H4678	H	0.166741	0.559651	0.096142
	H4679	H	0.417439	0.622593	0.032803
	O4680	O	0.593590	0.613307	-0.020296
	O4681	O	0.842813	0.550695	0.041865
	O4682	O	0.597501	0.530256	0.066013
	O4683	O	0.847459	0.592787	0.003671
	O4684	O	0.923050	0.549944	0.072047
	O4685	O	0.673860	0.612329	0.009753
	O4686	O	0.928389	0.594663	-0.025446
	O4687	O	0.678613	0.532189	0.036940
	O4688	O	0.928554	0.530975	0.067805
	O4689	O	0.678207	0.593398	0.005266
	O4690	O	0.924240	0.613786	-0.019183
	O4691	O	0.673663	0.551342	0.043559
	O4692	O	0.597757	0.594028	-0.024243
	O4693	O	0.847776	0.531452	0.038273
	O4694	O	0.593039	0.549261	0.073067
	O4695	O	0.842930	0.611850	0.010464
	F4696	F	0.510816	0.541362	0.044065
	F4697	F	0.760785	0.603885	-0.018369
	F4698	F	0.510438	0.602815	0.003238
	F4699	F	0.760487	0.540303	0.065665
	Al4700	Al	0.635719	0.540828	0.054831
	Al4701	Al	0.885781	0.603335	-0.007611
	Al4702	Al	0.635572	0.603333	-0.007568
	Al4703	Al	0.885633	0.540844	0.054830
	C4704	C	0.600145	0.629843	-0.036579
	C4705	C	0.849802	0.567105	0.025173
	C4706	C	0.600760	0.513027	0.079945
	C4707	C	0.851101	0.575550	0.017635
	C4708	C	0.917588	0.564553	0.097443
	C4709	C	0.667920	0.626817	0.035308
	C4710	C	0.923650	0.579615	-0.049716
	C4711	C	0.673637	0.517141	0.012601
	C4712	C	0.921260	0.514523	0.084316
	C4713	C	0.671493	0.576960	0.021827
	C4714	C	0.920233	0.630816	-0.033969
	C4715	C	0.670197	0.568515	0.029367
	C4716	C	0.603338	0.578140	-0.046315
	C4717	C	0.852848	0.515592	0.016262
	C4718	C	0.597930	0.563005	0.100152
	C4719	C	0.847499	0.625764	0.037127
	C4720	C	0.509687	0.626053	-0.031427
	C4721	C	0.759370	0.563516	0.031075
	C4722	C	0.511714	0.518070	0.078408
	C4723	C	0.761920	0.580541	0.015902
	C4724	C	0.508244	0.560157	0.092088
	C4725	C	0.757872	0.622663	0.029557
	C4726	C	0.513627	0.582849	-0.042241
	C4727	C	0.763200	0.520346	0.020214
	C4728	C	0.509058	0.617060	-0.023020
	C4729	C	0.758389	0.554535	0.039462
	C4730	C	0.512643	0.527067	0.070063
	C4731	C	0.762678	0.589553	0.007628
	C4732	C	0.508427	0.552599	0.077998
	C4733	C	0.758236	0.615092	0.015553
	C4734	C	0.513230	0.591084	-0.029689
	C4735	C	0.763133	0.528586	0.032720
	H4736	H	0.669178	0.626148	-0.034698
	H4737	H	0.918600	0.563238	0.026391
	H4738	H	0.670425	0.515692	0.075089
	H4739	H	0.920815	0.578263	0.012945
	H4740	H	0.848109	0.562445	0.091236
	H4741	H	0.598524	0.624496	0.029501
	H4742	H	0.854232	0.583238	-0.046685
	H4743	H	0.604312	0.520818	0.015485
	H4744	H	0.852410	0.518403	0.083118
	H4745	H	0.602659	0.580840	0.020603
	H4746	H	0.850343	0.627919	-0.029968
	H4747	H	0.600458	0.565802	0.034049
	H4748	H	0.672663	0.580572	-0.040496
	H4749	H	0.922246	0.517981	0.022164
	H4750	H	0.667492	0.559636	0.096212
	H4751	H	0.917187	0.622580	0.032821
	O4752	O	0.087386	0.603514	0.143694
	O4753	O	0.336893	0.540979	0.206120
	O4754	O	0.091415	0.520370	0.229724
	O4755	O	0.341896	0.582894	0.167290
	O4756	O	0.417704	0.539918	0.236297
	O4757	O	0.167855	0.602469	0.173754
	O4758	O	0.422748	0.585256	0.137708
	O4759	O	0.172353	0.522793	0.200160
	O4760	O	0.422549	0.521028	0.231396
	O4761	O	0.172627	0.583543	0.168951
	O4762	O	0.418234	0.604050	0.145070
	O4763	O	0.167749	0.541639	0.207877
	O4764	O	0.091730	0.584588	0.138789
	O4765	O	0.341486	0.522073	0.201292
	O4766	O	0.086258	0.539224	0.237411
	O4767	O	0.336915	0.601750	0.174887
	F4768	F	0.004721	0.531682	0.208063
	F4769	F	0.254880	0.594163	0.145592
	F4770	F	0.004736	0.592855	0.167038
	F4771	F	0.254492	0.530321	0.229477
	Al4772	Al	0.129564	0.530998	0.218797
	Al4773	Al	0.379807	0.593505	0.156264
	Al4774	Al	0.129778	0.593523	0.156280
	Al4775	Al	0.379664	0.531003	0.218755
	C4776	C	0.094040	0.619988	0.127376
	C4777	C	0.343842	0.557311	0.189196
	C4778	C	0.094575	0.503257	0.244116
	C4779	C	0.345155	0.565715	0.181503
	C4780	C	0.412170	0.554452	0.261819
	C4781	C	0.162491	0.617059	0.199142
	C4782	C	0.418290	0.571587	0.110492
	C4783	C	0.167664	0.509170	0.172845
	C4784	C	0.415646	0.504693	0.248287
	C4785	C	0.165564	0.567203	0.185794
	C4786	C	0.414387	0.621082	0.130332
	C4787	C	0.164243	0.558804	0.193496
	C4788	C	0.097216	0.570086	0.113169
	C4789	C	0.346872	0.507486	0.175936
	C4790	C	0.091266	0.552956	0.264495
	C4791	C	0.341853	0.615362	0.202222
	C4792	C	0.003539	0.616272	0.132750
	C4793	C	0.253377	0.553797	0.195284
	C4794	C	0.005413	0.508236	0.242261
	C4795	C	0.256060	0.570732	0.179768
	C4796	C	0.001483	0.550092	0.256481
	C4797	C	0.252178	0.612591	0.193984
	C4798	C	0.007488	0.574450	0.118518
	C4799	C	0.257257	0.511941	0.181058
	C4800	C	0.002870	0.607320	0.141232
	C4801	C	0.252455	0.544824	0.203736
	C4802	C	0.006625	0.517199	0.233821
	C4803	C	0.257097	0.579702	0.171354
	C4804	C	0.001697	0.542567	0.242324
	C4805	C	0.252268	0.605080	0.179839
	C4806	C	0.007313	0.581979	0.132672
	C4807	C	0.257018	0.519461	0.195225
	H4808	H	0.163065	0.616254	0.129165
	H4809	H	0.412577	0.553420	0.190392
	H4810	H	0.164365	0.505950	0.239406
	H4811	H	0.414895	0.568386	0.176689
	H4812	H	0.342751	0.552360	0.255582
	H4813	H	0.092946	0.615032	0.192813
	H4814	H	0.348742	0.574955	0.114453
	H4815	H	0.098235	0.512606	0.176673
	H4816	H	0.346925	0.508562	0.246991
	H4817	H	0.096738	0.571091	0.184546
	H4818	H	0.344668	0.618241	0.134565
	H4819	H	0.094498	0.556127	0.198250
	H4820	H	0.166726	0.572209	0.119350
	H4821	H	0.416247	0.509513	0.182298
	H4822	H	0.160942	0.549604	0.260532
	H4823	H	0.411395	0.611919	0.198440
	O4824	O	0.587489	0.603550	0.143831
	O4825	O	0.836840	0.540962	0.206076
	O4826	O	0.591783	0.520390	0.229760
	O4827	O	0.841741	0.582853	0.167171
	O4828	O	0.917177	0.539974	0.236248
	O4829	O	0.667811	0.602462	0.173727
	O4830	O	0.922662	0.585292	0.137602
	O4831	O	0.672532	0.522845	0.200080
	O4832	O	0.922318	0.521065	0.231488
	O4833	O	0.672517	0.583515	0.168918
	O4834	O	0.918195	0.604097	0.145256
	O4835	O	0.667606	0.541654	0.207869
	O4836	O	0.591867	0.584630	0.138719
	O4837	O	0.841554	0.522037	0.201328
	O4838	O	0.586824	0.539251	0.237357
	O4839	O	0.836841	0.601762	0.174811
	F4840	F	0.504783	0.531689	0.208062
	F4841	F	0.755053	0.594151	0.145574
	F4842	F	0.504702	0.592855	0.167007
	F4843	F	0.754439	0.530337	0.229479
	Al4844	Al	0.629661	0.531011	0.218755
	Al4845	Al	0.880035	0.593495	0.156301
	Al4846	Al	0.629886	0.593511	0.156286
	Al4847	Al	0.879657	0.531015	0.218740
	C4848	C	0.594289	0.619985	0.127371
	C4849	C	0.843888	0.557303	0.189238
	C4850	C	0.595110	0.503234	0.244146
	C4851	C	0.845281	0.565701	0.181523
	C4852	C	0.911660	0.554454	0.261821
	C4853	C	0.662264	0.617055	0.199093
	C4854	C	0.917636	0.571616	0.110495
	C4855	C	0.667490	0.509187	0.172856
	C4856	C	0.914954	0.504684	0.248216
	C4857	C	0.665757	0.567198	0.185842
	C4858	C	0.914278	0.621107	0.130307
	C4859	C	0.664389	0.558804	0.193556
	C4860	C	0.597741	0.570070	0.113219
	C4861	C	0.846861	0.507509	0.175836
	C4862	C	0.591586	0.552930	0.264537
	C4863	C	0.841596	0.615356	0.202173
	C4864	C	0.503763	0.616274	0.132799
	C4865	C	0.753525	0.553802	0.195359
	C4866	C	0.506081	0.508239	0.242315
	C4867	C	0.756199	0.570724	0.179808
	C4868	C	0.501854	0.550062	0.256522
	C4869	C	0.752016	0.612608	0.193913
	C4870	C	0.507930	0.574451	0.118508
	C4871	C	0.757203	0.511946	0.181029
	C4872	C	0.502966	0.607316	0.141227
	C4873	C	0.752425	0.544825	0.203750
	C4874	C	0.506984	0.517190	0.233813
	C4875	C	0.756989	0.579681	0.171334
	C4876	C	0.502122	0.542551	0.242356
	C4877	C	0.752226	0.605083	0.179778
	C4878	C	0.507500	0.581974	0.132692
	C4879	C	0.757066	0.519465	0.195205
	H4880	H	0.663316	0.616266	0.129184
	H4881	H	0.912520	0.553399	0.190402
	H4882	H	0.664832	0.505928	0.239398
	H4883	H	0.914940	0.568361	0.176663
	H4884	H	0.842139	0.552349	0.255624
	H4885	H	0.592748	0.615021	0.192748
	H4886	H	0.848215	0.575010	0.114455
	H4887	H	0.598101	0.512624	0.176687
	H4888	H	0.846052	0.508539	0.246903
	H4889	H	0.596900	0.571073	0.184563
	H4890	H	0.844484	0.618275	0.134514
	H4891	H	0.594592	0.556121	0.198294
	H4892	H	0.667139	0.572185	0.119448
	H4893	H	0.916281	0.509562	0.182151
	H4894	H	0.661286	0.549587	0.260586
	H4895	H	0.911179	0.611921	0.198398
	O4896	O	0.081430	0.593586	0.307268
	O4897	O	0.331362	0.531101	0.369780
	O4898	O	0.085483	0.510699	0.394083
	O4899	O	0.335683	0.573213	0.331572
	O4900	O	0.412055	0.530466	0.399352
	O4901	O	0.161603	0.593006	0.336860
	O4902	O	0.416898	0.575270	0.301896
	O4903	O	0.166447	0.512740	0.364453
	O4904	O	0.416449	0.511296	0.395557
	O4905	O	0.166471	0.573808	0.333182
	O4906	O	0.412200	0.594202	0.308844
	O4907	O	0.162054	0.531704	0.371268
	O4908	O	0.085471	0.574590	0.302991
	O4909	O	0.335452	0.512125	0.365452
	O4910	O	0.080613	0.529878	0.400444
	O4911	O	0.330833	0.592386	0.337951
	F4912	F	-0.001100	0.521703	0.371802
	F4913	F	0.248831	0.584186	0.309361
	F4914	F	-0.001320	0.583171	0.330999
	F4915	F	0.248576	0.520669	0.393420
	Al4916	Al	0.123683	0.521192	0.382667
	Al4917	Al	0.373701	0.583690	0.320156
	Al4918	Al	0.123728	0.583670	0.320181
	Al4919	Al	0.373725	0.521186	0.382631
	C4920	C	0.087968	0.610044	0.290752
	C4921	C	0.338332	0.547586	0.353355
	C4922	C	0.089049	0.493552	0.408417
	C4923	C	0.339488	0.556033	0.345830
	C4924	C	0.406591	0.546321	0.421490
	C4925	C	0.156478	0.608841	0.359020
	C4926	C	0.412019	0.561523	0.274854
	C4927	C	0.161845	0.498976	0.337407
	C4928	C	0.409820	0.494880	0.412196
	C4929	C	0.159742	0.557352	0.349642
	C4930	C	0.408997	0.611453	0.294916
	C4931	C	0.158636	0.548899	0.357155
	C4932	C	0.091190	0.560017	0.277554
	C4933	C	0.341198	0.497526	0.340044
	C4934	C	0.085150	0.545044	0.424469
	C4935	C	0.335729	0.607524	0.362054
	C4936	C	-0.002509	0.606428	0.296570
	C4937	C	0.247876	0.543957	0.359094
	C4938	C	-0.000215	0.498472	0.406382
	C4939	C	0.250269	0.561003	0.343995
	C4940	C	-0.004414	0.541686	0.417219
	C4941	C	0.246147	0.604194	0.354768
	C4942	C	0.001310	0.564367	0.282892
	C4943	C	0.251434	0.501867	0.345394
	C4944	C	-0.002985	0.597428	0.304903
	C4945	C	0.246939	0.534942	0.367373
	C4946	C	0.000781	0.507465	0.398007
	C4947	C	0.251009	0.569984	0.335588
	C4948	C	-0.003995	0.533418	0.404727
	C4949	C	0.246216	0.595944	0.342259
	C4950	C	0.001134	0.571946	0.296954
	C4951	C	0.251107	0.509440	0.359477
	H4952	H	0.156940	0.606191	0.292043
	H4953	H	0.407119	0.543735	0.354693
	H4954	H	0.158839	0.496322	0.403951
	H4955	H	0.409201	0.558783	0.341226
	H4956	H	0.337218	0.543810	0.415891
	H4957	H	0.087162	0.606337	0.353391
	H4958	H	0.342607	0.564923	0.278727
	H4959	H	0.092339	0.502324	0.341376
	H4960	H	0.340922	0.498700	0.410808
	H4961	H	0.090710	0.561163	0.348219
	H4962	H	0.339321	0.608759	0.299651
	H4963	H	0.088849	0.546133	0.361638
	H4964	H	0.160677	0.562160	0.283713
	H4965	H	0.410609	0.499670	0.346198
	H4966	H	0.154669	0.541489	0.421333
	H4967	H	0.405082	0.603937	0.358937
	O4968	O	0.581376	0.593581	0.307317
	O4969	O	0.831208	0.531077	0.369716
	O4970	O	0.585712	0.510700	0.394031
	O4971	O	0.835714	0.573183	0.331565
	O4972	O	0.911562	0.530486	0.399293
	O4973	O	0.661686	0.592990	0.336821
	O4974	O	0.916455	0.575277	0.301846
	O4975	O	0.666680	0.512792	0.364362
	O4976	O	0.916401	0.511285	0.395573
	O4977	O	0.666518	0.573791	0.333176
	O4978	O	0.912210	0.594216	0.308940
	O4979	O	0.661991	0.531714	0.371395
	O4980	O	0.585910	0.574567	0.303010
	O4981	O	0.835616	0.512069	0.365448
	O4982	O	0.581303	0.529876	0.400480
	O4983	O	0.830775	0.592420	0.337925
	F4984	F	0.499054	0.521689	0.371826
	F4985	F	0.748984	0.584196	0.309348
	F4986	F	0.498625	0.583132	0.330958
	F4987	F	0.748832	0.520661	0.393402
	Al4988	Al	0.624040	0.521182	0.382648
	Al4989	Al	0.873901	0.583687	0.320227
	Al4990	Al	0.623828	0.583664	0.320172
	Al4991	Al	0.874030	0.521167	0.382587
	C4992	C	0.588370	0.609992	0.290663
	C4993	C	0.838032	0.547573	0.353395
	C4994	C	0.589428	0.493551	0.408436
	C4995	C	0.839440	0.556015	0.345853
	C4996	C	0.905860	0.546328	0.421515
	C4997	C	0.656123	0.608827	0.358976
	C4998	C	0.911550	0.561515	0.274873
	C4999	C	0.661577	0.498975	0.337445
	C5000	C	0.909453	0.494849	0.412124
	C5001	C	0.659694	0.557355	0.349702
	C5002	C	0.908427	0.611451	0.294939
	C5003	C	0.658280	0.548908	0.357245
	C5004	C	0.591457	0.559994	0.277584
	C5005	C	0.840926	0.497532	0.339962
	C5006	C	0.585958	0.545065	0.424422
	C5007	C	0.835288	0.607516	0.362054
	C5008	C	0.497969	0.606423	0.296636
	C5009	C	0.747458	0.543934	0.359077
	C5010	C	0.500256	0.498507	0.406467
	C5011	C	0.750262	0.560974	0.343956
	C5012	C	0.496331	0.541692	0.417234
	C5013	C	0.745772	0.604194	0.354703
	C5014	C	0.501634	0.564350	0.282928
	C5015	C	0.751244	0.501870	0.345354
	C5016	C	0.496997	0.597430	0.304917
	C5017	C	0.746735	0.534933	0.367390
	C5018	C	0.500958	0.507486	0.398053
	C5019	C	0.751019	0.569958	0.335574
	C5020	C	0.496604	0.533422	0.404749
	C5021	C	0.746069	0.595953	0.342232
	C5022	C	0.501481	0.571918	0.296995
	C5023	C	0.751149	0.509433	0.359437
	H5024	H	0.657218	0.606115	0.291862
	H5025	H	0.906939	0.543729	0.354785
	H5026	H	0.659281	0.496301	0.403939
	H5027	H	0.909241	0.558772	0.341289
	H5028	H	0.836468	0.543818	0.415901
	H5029	H	0.586756	0.606339	0.353327
	H5030	H	0.842019	0.564894	0.278789
	H5031	H	0.592054	0.502311	0.341474
	H5032	H	0.840645	0.498680	0.410716
	H5033	H	0.590801	0.561190	0.348340
	H5034	H	0.838717	0.608753	0.299678
	H5035	H	0.588464	0.546179	0.361812
	H5036	H	0.660972	0.562131	0.283735
	H5037	H	0.910187	0.499688	0.346094
	H5038	H	0.655469	0.541511	0.421246
	H5039	H	0.904614	0.603946	0.358944
	O5040	O	0.075258	0.588592	0.457038
	O5041	O	0.325351	0.526046	0.519427
	O5042	O	0.079726	0.506768	0.547189
	O5043	O	0.329688	0.569266	0.484748
	O5044	O	0.405345	0.527717	0.546209
	O5045	O	0.155441	0.590195	0.483617
	O5046	O	0.411151	0.569626	0.455792
	O5047	O	0.161129	0.507150	0.518326
	O5048	O	0.410649	0.507370	0.548624
	O5049	O	0.160369	0.569812	0.486058
	O5050	O	0.406037	0.589112	0.458207
	O5051	O	0.156071	0.526643	0.520802
	O5052	O	0.080094	0.569076	0.456898
	O5053	O	0.330149	0.506578	0.519539
	O5054	O	0.074820	0.527201	0.547620
	O5055	O	0.324825	0.589675	0.485122
	F5056	F	-0.006913	0.516436	0.522894
	F5057	F	0.243164	0.578925	0.460393
	F5058	F	-0.006914	0.579458	0.482671
	F5059	F	0.242732	0.516985	0.545196
	Al5060	Al	0.118011	0.516729	0.534119
	Al5061	Al	0.367863	0.579221	0.471596
	Al5062	Al	0.117978	0.579202	0.471586
	Al5063	Al	0.367967	0.516729	0.534142
	C5064	C	0.082229	0.605530	0.441698
	C5065	C	0.332387	0.542998	0.504087
	C5066	C	0.083243	0.489224	0.560078
	C5067	C	0.333559	0.551699	0.497587
	C5068	C	0.404813	0.546815	0.548796
	C5069	C	0.154908	0.609308	0.486371
	C5070	C	0.406474	0.554150	0.432685
	C5071	C	0.156226	0.491697	0.495251
	C5072	C	0.403957	0.490440	0.563928
	C5073	C	0.153537	0.552874	0.501313
	C5074	C	0.402533	0.606719	0.445446
	C5075	C	0.152367	0.544154	0.507788
	C5076	C	0.085064	0.552883	0.435657
	C5077	C	0.335665	0.490341	0.498353
	C5078	C	0.084703	0.546135	0.552703
	C5079	C	0.334824	0.608634	0.490314
	C5080	C	-0.008447	0.601651	0.446855
	C5081	C	0.241812	0.539125	0.509290
	C5082	C	-0.005979	0.494296	0.558732
	C5083	C	0.244217	0.556752	0.496194
	C5084	C	-0.007022	0.541611	0.550332
	C5085	C	0.243184	0.604100	0.487982
	C5086	C	-0.004470	0.557554	0.439820
	C5087	C	0.246018	0.495050	0.502435
	C5088	C	-0.009168	0.592431	0.454559
	C5089	C	0.240977	0.529933	0.517044
	C5090	C	-0.005176	0.503474	0.550946
	C5091	C	0.244840	0.565943	0.488453
	C5092	C	-0.009223	0.531425	0.547928
	C5093	C	0.240904	0.593913	0.485441
	C5094	C	-0.004336	0.566032	0.451737
	C5095	C	0.245801	0.503523	0.514321
	H5096	H	0.151575	0.601675	0.442689
	H5097	H	0.401792	0.539150	0.505062
	H5098	H	0.153344	0.492091	0.555877
	H5099	H	0.403817	0.554574	0.493449
	H5100	H	0.333730	0.543408	0.546828
	H5101	H	0.083916	0.605889	0.484347
	H5102	H	0.336924	0.557699	0.435807
	H5103	H	0.086829	0.495310	0.498296
	H5104	H	0.334730	0.494307	0.563015
	H5105	H	0.084299	0.556739	0.500278
	H5106	H	0.332293	0.603862	0.449625
	H5107	H	0.082111	0.541237	0.511814
	H5108	H	0.154487	0.555406	0.441210
	H5109	H	0.405027	0.492850	0.504008
	H5110	H	0.153436	0.542196	0.553984
	H5111	H	0.403459	0.604688	0.491533
	O5112	O	0.575395	0.588551	0.456878
	O5113	O	0.825360	0.526063	0.519351
	O5114	O	0.579991	0.506802	0.547295
	O5115	O	0.829566	0.569258	0.484731
	O5116	O	0.905212	0.527683	0.546175
	O5117	O	0.655078	0.590233	0.483547
	O5118	O	0.911158	0.569649	0.455768
	O5119	O	0.660832	0.507141	0.518296
	O5120	O	0.910415	0.507377	0.548614
	O5121	O	0.660290	0.569860	0.486112
	O5122	O	0.905900	0.589131	0.458254
	O5123	O	0.656030	0.526641	0.520754
	O5124	O	0.580184	0.569050	0.457028
	O5125	O	0.829839	0.506536	0.519584
	O5126	O	0.574770	0.527200	0.547712
	O5127	O	0.824410	0.589664	0.485301
	F5128	F	0.493187	0.516451	0.522960
	F5129	F	0.743118	0.578946	0.460419
	F5130	F	0.492710	0.579497	0.482627
	F5131	F	0.742988	0.516997	0.545105
	Al5132	Al	0.617952	0.516747	0.534157
	Al5133	Al	0.867980	0.579226	0.471616
	Al5134	Al	0.617909	0.579226	0.471593
	Al5135	Al	0.868288	0.516722	0.534030
	C5136	C	0.582307	0.605487	0.441523
	C5137	C	0.832241	0.543027	0.504136
	C5138	C	0.583689	0.489223	0.560086
	C5139	C	0.833283	0.551730	0.497653
	C5140	C	0.904603	0.546816	0.548779
	C5141	C	0.654706	0.609292	0.486363
	C5142	C	0.905815	0.554160	0.432694
	C5143	C	0.655901	0.491698	0.495195
	C5144	C	0.903497	0.490453	0.563993
	C5145	C	0.653479	0.552937	0.501493
	C5146	C	0.902159	0.606718	0.445445
	C5147	C	0.652408	0.544216	0.507954
	C5148	C	0.585743	0.552894	0.435633
	C5149	C	0.835403	0.490367	0.498322
	C5150	C	0.584811	0.546155	0.552745
	C5151	C	0.834826	0.608623	0.490268
	C5152	C	0.491688	0.601621	0.446720
	C5153	C	0.741695	0.539142	0.509275
	C5154	C	0.494427	0.494294	0.558707
	C5155	C	0.743998	0.556786	0.496253
	C5156	C	0.493206	0.541622	0.550378
	C5157	C	0.743159	0.604105	0.487858
	C5158	C	0.496081	0.557546	0.439841
	C5159	C	0.745703	0.495050	0.502416
	C5160	C	0.490930	0.592419	0.454480
	C5161	C	0.740935	0.529949	0.517042
	C5162	C	0.495077	0.503485	0.550985
	C5163	C	0.744618	0.565951	0.488416
	C5164	C	0.490830	0.531437	0.547980
	C5165	C	0.740640	0.593924	0.485433
	C5166	C	0.495816	0.566000	0.451789
	C5167	C	0.745441	0.503509	0.514298
	H5168	H	0.651527	0.601617	0.442497
	H5169	H	0.901630	0.539183	0.505106
	H5170	H	0.653837	0.492105	0.555932
	H5171	H	0.903386	0.554592	0.493486
	H5172	H	0.833383	0.543420	0.546828
	H5173	H	0.583666	0.605864	0.484457
	H5174	H	0.836500	0.557743	0.435803
	H5175	H	0.586446	0.495298	0.498271
	H5176	H	0.834283	0.494326	0.563071
	H5177	H	0.584262	0.556823	0.500538
	H5178	H	0.831889	0.603827	0.449527
	H5179	H	0.582275	0.541308	0.512088
	H5180	H	0.655123	0.555414	0.441208
	H5181	H	0.904815	0.492857	0.503993
	H5182	H	0.653562	0.542227	0.554034
	H5183	H	0.903448	0.604675	0.491551
	O5184	O	0.082406	0.595081	0.550987
	O5185	O	0.332449	0.532569	0.613421
	O5186	O	0.086180	0.514131	0.643726
	O5187	O	0.336612	0.576565	0.581148
	O5188	O	0.412361	0.534977	0.639546
	O5189	O	0.162420	0.597469	0.577135
	O5190	O	0.417638	0.575220	0.554607
	O5191	O	0.167833	0.512717	0.617319
	O5192	O	0.417158	0.514587	0.644733
	O5193	O	0.167238	0.577091	0.582222
	O5194	O	0.413089	0.595557	0.551976
	O5195	O	0.163140	0.533075	0.614504
	O5196	O	0.087222	0.574757	0.556185
	O5197	O	0.337154	0.512257	0.618758
	O5198	O	0.081982	0.534599	0.640936
	O5199	O	0.331885	0.597086	0.578426
	F5200	F	0.000125	0.522746	0.617915
	F5201	F	0.249802	0.585269	0.555435
	F5202	F	-0.000291	0.586959	0.577936
	F5203	F	0.249600	0.524501	0.640430
	Al5204	Al	0.124746	0.523631	0.629194
	Al5205	Al	0.374678	0.586111	0.566650
	Al5206	Al	0.124818	0.586110	0.566677
	Al5207	Al	0.374659	0.523613	0.629182
	C5208	C	0.089068	0.612396	0.536515
	C5209	C	0.339284	0.549854	0.598901
	C5210	C	0.090282	0.496298	0.655772
	C5211	C	0.340258	0.558749	0.593243
	C5212	C	0.410722	0.554090	0.640981
	C5213	C	0.160600	0.616596	0.578474
	C5214	C	0.407864	0.556312	0.549602
	C5215	C	0.158068	0.493790	0.612216
	C5216	C	0.410392	0.497180	0.658717
	C5217	C	0.160098	0.559696	0.596238
	C5218	C	0.409054	0.613285	0.539352
	C5219	C	0.159135	0.550798	0.601884
	C5220	C	0.087932	0.555629	0.553527
	C5221	C	0.338075	0.493123	0.616071
	C5222	C	0.090924	0.553588	0.644213
	C5223	C	0.341039	0.616092	0.581866
	C5224	C	-0.001542	0.608254	0.540954
	C5225	C	0.248620	0.545745	0.603371
	C5226	C	0.000780	0.501355	0.654413
	C5227	C	0.250788	0.563819	0.591856
	C5228	C	-0.000714	0.548990	0.642597
	C5229	C	0.249475	0.611485	0.580170
	C5230	C	-0.000436	0.560826	0.552001
	C5231	C	0.249702	0.498316	0.614628
	C5232	C	-0.002038	0.598947	0.548457
	C5233	C	0.248026	0.536450	0.610916
	C5234	C	0.001254	0.510720	0.647156
	C5235	C	0.251585	0.573171	0.584586
	C5236	C	-0.002281	0.538771	0.640963
	C5237	C	0.247673	0.601269	0.578525
	C5238	C	0.001882	0.571017	0.554384
	C5239	C	0.251864	0.508506	0.617036
	H5240	H	0.158870	0.608600	0.537492
	H5241	H	0.408966	0.546041	0.599836
	H5242	H	0.160925	0.499352	0.652342
	H5243	H	0.410930	0.561799	0.589804
	H5244	H	0.339567	0.550626	0.639602
	H5245	H	0.089417	0.613135	0.577117
	H5246	H	0.339227	0.560251	0.548309
	H5247	H	0.089396	0.497729	0.610935
	H5248	H	0.340585	0.500978	0.657756
	H5249	H	0.090306	0.563509	0.595291
	H5250	H	0.338339	0.610228	0.542725
	H5251	H	0.088449	0.547744	0.605272
	H5252	H	0.159093	0.559030	0.555441
	H5253	H	0.409308	0.496522	0.617943
	H5254	H	0.160000	0.549712	0.645563
	H5255	H	0.410191	0.612230	0.583266
	O5256	O	0.582459	0.595090	0.550967
	O5257	O	0.831878	0.532587	0.613410
	O5258	O	0.586574	0.514102	0.643689
	O5259	O	0.836092	0.576565	0.581182
	O5260	O	0.912533	0.534966	0.639495
	O5261	O	0.662059	0.597464	0.577138
	O5262	O	0.917823	0.575247	0.554675
	O5263	O	0.667705	0.512739	0.617127
	O5264	O	0.916726	0.514616	0.644783
	O5265	O	0.666702	0.577054	0.582142
	O5266	O	0.913041	0.595552	0.551990
	O5267	O	0.662593	0.533074	0.614472
	O5268	O	0.587052	0.574776	0.556020
	O5269	O	0.837006	0.512241	0.618669
	O5270	O	0.581799	0.534573	0.640927
	O5271	O	0.831533	0.597100	0.578511
	F5272	F	0.499709	0.522742	0.617953
	F5273	F	0.750082	0.585282	0.555476
	F5274	F	0.499463	0.586929	0.577833
	F5275	F	0.749597	0.524475	0.640299
	Al5276	Al	0.624651	0.523616	0.629137
	Al5277	Al	0.875026	0.586130	0.566721
	Al5278	Al	0.624690	0.586104	0.566635
	Al5279	Al	0.874955	0.523611	0.629105
	C5280	C	0.589302	0.612364	0.536448
	C5281	C	0.838662	0.549878	0.598936
	C5282	C	0.590564	0.496271	0.655769
	C5283	C	0.839773	0.558768	0.593262
	C5284	C	0.910363	0.554112	0.640926
	C5285	C	0.660207	0.616608	0.578402
	C5286	C	0.907841	0.556308	0.549608
	C5287	C	0.657772	0.493819	0.612108
	C5288	C	0.910097	0.497209	0.658788
	C5289	C	0.659559	0.559696	0.596245
	C5290	C	0.908771	0.613278	0.539371
	C5291	C	0.658465	0.550804	0.601910
	C5292	C	0.587953	0.555644	0.553525
	C5293	C	0.837707	0.493124	0.616149
	C5294	C	0.591139	0.553570	0.644356
	C5295	C	0.840650	0.616075	0.581904
	C5296	C	0.498569	0.608246	0.540886
	C5297	C	0.748006	0.545760	0.603390
	C5298	C	0.501020	0.501325	0.654357
	C5299	C	0.750283	0.563816	0.591848
	C5300	C	0.499514	0.548969	0.642663
	C5301	C	0.748975	0.611492	0.580161
	C5302	C	0.499534	0.560832	0.551975
	C5303	C	0.749421	0.498324	0.614550
	C5304	C	0.497952	0.598949	0.548422
	C5305	C	0.747438	0.536461	0.610911
	C5306	C	0.501637	0.510689	0.647115
	C5307	C	0.751105	0.573161	0.584574
	C5308	C	0.497633	0.538761	0.640989
	C5309	C	0.747224	0.601273	0.578535
	C5310	C	0.501758	0.571019	0.554314
	C5311	C	0.751649	0.508511	0.616919
	H5312	H	0.659084	0.608564	0.537417
	H5313	H	0.908432	0.546078	0.599902
	H5314	H	0.661170	0.499337	0.652353
	H5315	H	0.910533	0.561815	0.589850
	H5316	H	0.839247	0.550637	0.639580
	H5317	H	0.589106	0.613141	0.577019
	H5318	H	0.839175	0.560251	0.548330
	H5319	H	0.589119	0.497760	0.610791
	H5320	H	0.840358	0.501015	0.657844
	H5321	H	0.589878	0.563512	0.595258
	H5322	H	0.838046	0.610203	0.542708
	H5323	H	0.587937	0.547743	0.605296
	H5324	H	0.658923	0.559074	0.555427
	H5325	H	0.908827	0.496527	0.618100
	H5326	H	0.660288	0.549702	0.645722
	H5327	H	0.909576	0.612194	0.583366
	O5328	O	0.086896	0.602567	0.640688
	O5329	O	0.337359	0.540063	0.703240
	O5330	O	0.090822	0.521622	0.733566
	O5331	O	0.341237	0.584082	0.670950
	O5332	O	0.417293	0.542397	0.729158
	O5333	O	0.167184	0.604899	0.666589
	O5334	O	0.422556	0.582572	0.644470
	O5335	O	0.172269	0.520074	0.707046
	O5336	O	0.421723	0.522039	0.734351
	O5337	O	0.171816	0.584499	0.671805
	O5338	O	0.417737	0.602967	0.641463
	O5339	O	0.167998	0.540488	0.704092
	O5340	O	0.092070	0.582180	0.645783
	O5341	O	0.341707	0.519667	0.708364
	O5342	O	0.086794	0.541999	0.730616
	O5343	O	0.336576	0.604483	0.668023
	F5344	F	0.005046	0.530163	0.707547
	F5345	F	0.254837	0.592657	0.645014
	F5346	F	0.004732	0.594427	0.667510
	F5347	F	0.254420	0.531899	0.730035
	Al5348	Al	0.129656	0.531046	0.718818
	Al5349	Al	0.379631	0.593531	0.656227
	Al5350	Al	0.129681	0.593530	0.656212
	Al5351	Al	0.379547	0.531033	0.718771
	C5352	C	0.093604	0.619908	0.626459
	C5353	C	0.344168	0.557375	0.688867
	C5354	C	0.094832	0.503841	0.745927
	C5355	C	0.345239	0.566279	0.683246
	C5356	C	0.415431	0.561510	0.730671
	C5357	C	0.165602	0.624011	0.668113
	C5358	C	0.413373	0.563577	0.640963
	C5359	C	0.162924	0.501062	0.703552
	C5360	C	0.415026	0.504723	0.748609
	C5361	C	0.164984	0.567165	0.686068
	C5362	C	0.413830	0.620783	0.629200
	C5363	C	0.163953	0.558266	0.691700
	C5364	C	0.093612	0.563066	0.644165
	C5365	C	0.343338	0.500568	0.706865
	C5366	C	0.095809	0.561014	0.734115
	C5367	C	0.345990	0.623481	0.671555
	C5368	C	0.002853	0.615748	0.630759
	C5369	C	0.253429	0.553234	0.693232
	C5370	C	0.005254	0.508864	0.744367
	C5371	C	0.255762	0.571314	0.681739
	C5372	C	0.004256	0.556402	0.732430
	C5373	C	0.254343	0.618881	0.669838
	C5374	C	0.004737	0.568185	0.642578
	C5375	C	0.254449	0.505672	0.705212
	C5376	C	0.002298	0.606396	0.638085
	C5377	C	0.252844	0.543912	0.700668
	C5378	C	0.005901	0.518206	0.736985
	C5379	C	0.256373	0.580646	0.674350
	C5380	C	0.002573	0.546182	0.730717
	C5381	C	0.252449	0.608678	0.668087
	C5382	C	0.006773	0.578399	0.644307
	C5383	C	0.256429	0.515882	0.706918
	H5384	H	0.163443	0.616107	0.627455
	H5385	H	0.413912	0.553571	0.689863
	H5386	H	0.165490	0.506933	0.742673
	H5387	H	0.415847	0.569353	0.679917
	H5388	H	0.344293	0.558039	0.729321
	H5389	H	0.094379	0.620553	0.666724
	H5390	H	0.344392	0.567459	0.639568
	H5391	H	0.093722	0.504918	0.702215
	H5392	H	0.345284	0.508532	0.747585
	H5393	H	0.095173	0.570963	0.685076
	H5394	H	0.343000	0.617726	0.632514
	H5395	H	0.093161	0.555199	0.695036
	H5396	H	0.164749	0.566534	0.645458
	H5397	H	0.414495	0.504035	0.708218
	H5398	H	0.164898	0.557148	0.735520
	H5399	H	0.415079	0.619602	0.672933
	O5400	O	0.587163	0.602527	0.640598
	O5401	O	0.837164	0.540069	0.703148
	O5402	O	0.591175	0.521625	0.733497
	O5403	O	0.840880	0.584073	0.671040
	O5404	O	0.917382	0.542377	0.729253
	O5405	O	0.666913	0.604914	0.666678
	O5406	O	0.922642	0.582600	0.644407
	O5407	O	0.672051	0.520063	0.707012
	O5408	O	0.921393	0.522063	0.734461
	O5409	O	0.671512	0.584559	0.671977
	O5410	O	0.917464	0.602936	0.641398
	O5411	O	0.667705	0.540472	0.703969
	O5412	O	0.592010	0.582175	0.645941
	O5413	O	0.841523	0.519656	0.708218
	O5414	O	0.586669	0.541998	0.730487
	O5415	O	0.836318	0.604527	0.668018
	F5416	F	0.504574	0.530151	0.707514
	F5417	F	0.754783	0.592647	0.645141
	F5418	F	0.504320	0.594447	0.667460
	F5419	F	0.754465	0.531907	0.729917
	Al5420	Al	0.629519	0.531038	0.718711
	Al5421	Al	0.879967	0.593543	0.656306
	Al5422	Al	0.629639	0.593552	0.656307
	Al5423	Al	0.879920	0.531036	0.718725
	C5424	C	0.594140	0.619873	0.626403
	C5425	C	0.843999	0.557374	0.688857
	C5426	C	0.595309	0.503832	0.745835
	C5427	C	0.844862	0.566281	0.683258
	C5428	C	0.915345	0.561520	0.730714
	C5429	C	0.665079	0.624042	0.668206
	C5430	C	0.913047	0.563590	0.640889
	C5431	C	0.662835	0.501068	0.703377
	C5432	C	0.914410	0.504697	0.748593
	C5433	C	0.664596	0.567179	0.686134
	C5434	C	0.913204	0.620800	0.629230
	C5435	C	0.663708	0.558270	0.691721
	C5436	C	0.593811	0.563055	0.644342
	C5437	C	0.843230	0.500562	0.706844
	C5438	C	0.595899	0.561010	0.734093
	C5439	C	0.845470	0.623516	0.671628
	C5440	C	0.503325	0.615725	0.630687
	C5441	C	0.753211	0.553234	0.693208
	C5442	C	0.505766	0.508865	0.744294
	C5443	C	0.755309	0.571329	0.681829
	C5444	C	0.504347	0.556398	0.732312
	C5445	C	0.753876	0.618914	0.669849
	C5446	C	0.504985	0.568172	0.642674
	C5447	C	0.754383	0.505666	0.705129
	C5448	C	0.502643	0.606386	0.638041
	C5449	C	0.752568	0.543903	0.700575
	C5450	C	0.506304	0.518192	0.736898
	C5451	C	0.755929	0.580675	0.674480
	C5452	C	0.502523	0.546187	0.730587
	C5453	C	0.752081	0.608706	0.668110
	C5454	C	0.506789	0.578387	0.644410
	C5455	C	0.756221	0.515877	0.706826
	H5456	H	0.663969	0.616071	0.627408
	H5457	H	0.913774	0.553560	0.689823
	H5458	H	0.665978	0.506920	0.742534
	H5459	H	0.915499	0.569352	0.679897
	H5460	H	0.844171	0.558044	0.729363
	H5461	H	0.593877	0.620581	0.666868
	H5462	H	0.844044	0.567474	0.639501
	H5463	H	0.593842	0.504942	0.701939
	H5464	H	0.844630	0.508493	0.747535
	H5465	H	0.594760	0.570968	0.685146
	H5466	H	0.842422	0.617722	0.632517
	H5467	H	0.593024	0.555195	0.695008
	H5468	H	0.664907	0.566528	0.645694
	H5469	H	0.914363	0.504029	0.708193
	H5470	H	0.664995	0.557145	0.735527
	H5471	H	0.914561	0.619641	0.673066
	O5472	O	0.092220	0.610000	0.730291
	O5473	O	0.341941	0.547472	0.792738
	O5474	O	0.095844	0.529027	0.823039
	O5475	O	0.345790	0.591512	0.760503
	O5476	O	0.421835	0.549815	0.818788
	O5477	O	0.172252	0.612323	0.756289
	O5478	O	0.427317	0.589987	0.734006
	O5479	O	0.177342	0.527489	0.796537
	O5480	O	0.426595	0.529514	0.824138
	O5481	O	0.176489	0.592002	0.761515
	O5482	O	0.422779	0.610461	0.731250
	O5483	O	0.172633	0.547994	0.793875
	O5484	O	0.096585	0.589618	0.735417
	O5485	O	0.346752	0.527075	0.798039
	O5486	O	0.091215	0.549327	0.820281
	O5487	O	0.341698	0.611892	0.757713
	F5488	F	0.009856	0.537579	0.796999
	F5489	F	0.259788	0.600109	0.734579
	F5490	F	0.009593	0.601830	0.757104
	F5491	F	0.259215	0.539332	0.819567
	Al5492	Al	0.134550	0.538440	0.808307
	Al5493	Al	0.384602	0.600955	0.745804
	Al5494	Al	0.134637	0.600987	0.745826
	Al5495	Al	0.384282	0.538457	0.808350
	C5496	C	0.098824	0.627378	0.716154
	C5497	C	0.348869	0.564897	0.778779
	C5498	C	0.099444	0.511298	0.835600
	C5499	C	0.349806	0.573786	0.773089
	C5500	C	0.421243	0.568936	0.821444
	C5501	C	0.171188	0.631473	0.758861
	C5502	C	0.418090	0.570989	0.730628
	C5503	C	0.167994	0.508489	0.793282
	C5504	C	0.419778	0.512181	0.838498
	C5505	C	0.169626	0.574696	0.776024
	C5506	C	0.418784	0.628317	0.719260
	C5507	C	0.168684	0.565808	0.781730
	C5508	C	0.098398	0.570495	0.734029
	C5509	C	0.348602	0.507976	0.796500
	C5510	C	0.101313	0.568265	0.825327
	C5511	C	0.351146	0.630799	0.762863
	C5512	C	0.008181	0.623253	0.720633
	C5513	C	0.258251	0.560753	0.783143
	C5514	C	0.010011	0.516345	0.834099
	C5515	C	0.260216	0.578820	0.771557
	C5516	C	0.009642	0.563738	0.822895
	C5517	C	0.259482	0.626279	0.760494
	C5518	C	0.009587	0.575604	0.732314
	C5519	C	0.259692	0.513082	0.794895
	C5520	C	0.007665	0.613880	0.727886
	C5521	C	0.257577	0.551391	0.790391
	C5522	C	0.010867	0.525657	0.826572
	C5523	C	0.260870	0.588125	0.764044
	C5524	C	0.007273	0.553550	0.820527
	C5525	C	0.257504	0.616087	0.758028
	C5526	C	0.011362	0.585822	0.733934
	C5527	C	0.261467	0.523295	0.796539
	H5528	H	0.168612	0.623553	0.717015
	H5529	H	0.418693	0.561095	0.779757
	H5530	H	0.170090	0.514358	0.832218
	H5531	H	0.420476	0.576859	0.769699
	H5532	H	0.350048	0.565534	0.819502
	H5533	H	0.100102	0.628057	0.756879
	H5534	H	0.349073	0.574862	0.729250
	H5535	H	0.098945	0.512370	0.791949
	H5536	H	0.349998	0.515989	0.837530
	H5537	H	0.099831	0.578490	0.775043
	H5538	H	0.348115	0.625277	0.722752
	H5539	H	0.098075	0.562748	0.785140
	H5540	H	0.169558	0.573965	0.735337
	H5541	H	0.419746	0.511443	0.797769
	H5542	H	0.169938	0.564319	0.826670
	H5543	H	0.419857	0.626857	0.764136
	O5544	O	0.592247	0.610008	0.730344
	O5545	O	0.841389	0.547509	0.792735
	O5546	O	0.595978	0.528999	0.823098
	O5547	O	0.845466	0.591471	0.760528
	O5548	O	0.921899	0.549816	0.818706
	O5549	O	0.671985	0.612292	0.756377
	O5550	O	0.927174	0.590008	0.733965
	O5551	O	0.676983	0.527480	0.796552
	O5552	O	0.926543	0.529558	0.824088
	O5553	O	0.676132	0.592006	0.761595
	O5554	O	0.922782	0.610433	0.731240
	O5555	O	0.672010	0.548002	0.793906
	O5556	O	0.596804	0.589604	0.735402
	O5557	O	0.846440	0.527059	0.797964
	O5558	O	0.591158	0.549330	0.820360
	O5559	O	0.841369	0.611857	0.757866
	F5560	F	0.509447	0.537571	0.797192
	F5561	F	0.759940	0.600100	0.734686
	F5562	F	0.509150	0.601814	0.756999
	F5563	F	0.759314	0.539326	0.819478
	Al5564	Al	0.634343	0.538447	0.808377
	Al5565	Al	0.884868	0.600965	0.745887
	Al5566	Al	0.634562	0.600968	0.745849
	Al5567	Al	0.884715	0.538468	0.808231
	C5568	C	0.599016	0.627352	0.716145
	C5569	C	0.848077	0.564876	0.778718
	C5570	C	0.599965	0.511256	0.835557
	C5571	C	0.849093	0.573762	0.773050
	C5572	C	0.921134	0.568940	0.821365
	C5573	C	0.670862	0.631448	0.758849
	C5574	C	0.917925	0.570999	0.730618
	C5575	C	0.667403	0.508486	0.793258
	C5576	C	0.919289	0.512234	0.838599
	C5577	C	0.668911	0.574715	0.776096
	C5578	C	0.918489	0.628310	0.719225
	C5579	C	0.667886	0.565824	0.781788
	C5580	C	0.598506	0.570492	0.734051
	C5581	C	0.848012	0.507957	0.796524
	C5582	C	0.601250	0.568250	0.825389
	C5583	C	0.850801	0.630777	0.762856
	C5584	C	0.508281	0.623240	0.720609
	C5585	C	0.757368	0.560758	0.783133
	C5586	C	0.510436	0.516303	0.834080
	C5587	C	0.759591	0.578812	0.771588
	C5588	C	0.509523	0.563726	0.823023
	C5589	C	0.759207	0.626255	0.760438
	C5590	C	0.509689	0.575594	0.732278
	C5591	C	0.759146	0.513071	0.794859
	C5592	C	0.507749	0.613886	0.727880
	C5593	C	0.756877	0.551407	0.790418
	C5594	C	0.511002	0.525620	0.826623
	C5595	C	0.760462	0.588108	0.764073
	C5596	C	0.507189	0.553552	0.820600
	C5597	C	0.757228	0.616056	0.758102
	C5598	C	0.511564	0.585808	0.733931
	C5599	C	0.761139	0.523283	0.796479
	H5600	H	0.668715	0.623524	0.717057
	H5601	H	0.917811	0.561068	0.779658
	H5602	H	0.670581	0.514321	0.832183
	H5603	H	0.919728	0.576812	0.769629
	H5604	H	0.850024	0.565521	0.819473
	H5605	H	0.599746	0.628029	0.756922
	H5606	H	0.848887	0.574875	0.729200
	H5607	H	0.598333	0.512373	0.791947
	H5608	H	0.849622	0.516057	0.837692
	H5609	H	0.599149	0.578537	0.775153
	H5610	H	0.847786	0.625252	0.722659
	H5611	H	0.597276	0.562779	0.785270
	H5612	H	0.669620	0.573960	0.735442
	H5613	H	0.919102	0.511425	0.797858
	H5614	H	0.669970	0.564310	0.826653
	H5615	H	0.919478	0.626839	0.764192
	O5616	O	0.099288	0.617237	0.826407
	O5617	O	0.349034	0.554703	0.888877
	O5618	O	0.103097	0.535404	0.916728
	O5619	O	0.353273	0.597891	0.854166
	O5620	O	0.429286	0.555500	0.917938
	O5621	O	0.179465	0.617996	0.855516
	O5622	O	0.434819	0.597393	0.827254
	O5623	O	0.184379	0.534854	0.889857
	O5624	O	0.433785	0.535999	0.918093
	O5625	O	0.183894	0.598492	0.855590
	O5626	O	0.429495	0.617750	0.827713
	O5627	O	0.179657	0.555300	0.890318
	O5628	O	0.103815	0.596847	0.828920
	O5629	O	0.353918	0.534361	0.891272
	O5630	O	0.097960	0.554922	0.919166
	O5631	O	0.348472	0.617411	0.856715
	F5632	F	0.016996	0.545072	0.892261
	F5633	F	0.266576	0.607550	0.829840
	F5634	F	0.016261	0.608157	0.852062
	F5635	F	0.266254	0.545623	0.914577
	Al5636	Al	0.141366	0.545322	0.903359
	Al5637	Al	0.391562	0.607825	0.840871
	Al5638	Al	0.141431	0.607842	0.840900
	Al5639	Al	0.391484	0.545334	0.903353
	C5640	C	0.105603	0.634184	0.811154
	C5641	C	0.355790	0.571623	0.873499
	C5642	C	0.106398	0.517842	0.929467
	C5643	C	0.356892	0.580319	0.866965
	C5644	C	0.423977	0.571756	0.939087
	C5645	C	0.174078	0.634231	0.876730
	C5646	C	0.424508	0.578428	0.822236
	C5647	C	0.174365	0.515934	0.884675
	C5648	C	0.426906	0.519057	0.933448
	C5649	C	0.176978	0.581546	0.870917
	C5650	C	0.425955	0.635314	0.814863
	C5651	C	0.175883	0.572852	0.877491
	C5652	C	0.104462	0.577759	0.826119
	C5653	C	0.354434	0.515253	0.888625
	C5654	C	0.102975	0.570337	0.942386
	C5655	C	0.353549	0.632893	0.879780
	C5656	C	0.015119	0.630301	0.816309
	C5657	C	0.265257	0.567780	0.878791
	C5658	C	0.017081	0.522911	0.928117
	C5659	C	0.267514	0.585389	0.865614
	C5660	C	0.013233	0.567050	0.935029
	C5661	C	0.263808	0.629547	0.872571
	C5662	C	0.016040	0.582946	0.824526
	C5663	C	0.266104	0.520447	0.887079
	C5664	C	0.014681	0.621111	0.824062
	C5665	C	0.264616	0.558604	0.886590
	C5666	C	0.018075	0.532118	0.920432
	C5667	C	0.268314	0.594589	0.857879
	C5668	C	0.013421	0.558586	0.923118
	C5669	C	0.263877	0.621057	0.860711
	C5670	C	0.018301	0.593150	0.826955
	C5671	C	0.268428	0.530629	0.889534
	H5672	H	0.174979	0.630334	0.812165
	H5673	H	0.425062	0.567749	0.874417
	H5674	H	0.176655	0.520720	0.925353
	H5675	H	0.427148	0.583190	0.862803
	H5676	H	0.354588	0.569307	0.933346
	H5677	H	0.104641	0.631701	0.871152
	H5678	H	0.355996	0.582383	0.820929
	H5679	H	0.105754	0.519887	0.883375
	H5680	H	0.357714	0.522928	0.932528
	H5681	H	0.107587	0.585419	0.869988
	H5682	H	0.355770	0.632431	0.819039
	H5683	H	0.105768	0.569989	0.881771
	H5684	H	0.175529	0.581171	0.828076
	H5685	H	0.425521	0.518658	0.890569
	H5686	H	0.172346	0.566687	0.939421
	H5687	H	0.422962	0.629267	0.876756
	O5688	O	0.599063	0.617189	0.826405
	O5689	O	0.848552	0.554699	0.888844
	O5690	O	0.603090	0.535401	0.916643
	O5691	O	0.853411	0.597878	0.854201
	O5692	O	0.928987	0.555527	0.917910
	O5693	O	0.679145	0.617999	0.855422
	O5694	O	0.934442	0.597410	0.827147
	O5695	O	0.684229	0.534892	0.889738
	O5696	O	0.933714	0.536034	0.918131
	O5697	O	0.684120	0.598497	0.855572
	O5698	O	0.929832	0.617779	0.827747
	O5699	O	0.679128	0.555275	0.890266
	O5700	O	0.604236	0.596834	0.828885
	O5701	O	0.853625	0.534345	0.891300
	O5702	O	0.598320	0.554906	0.919211
	O5703	O	0.848165	0.617425	0.856690
	F5704	F	0.516412	0.545053	0.892353
	F5705	F	0.766806	0.607566	0.829889
	F5706	F	0.516277	0.608136	0.852049
	F5707	F	0.766231	0.545628	0.914570
	Al5708	Al	0.641336	0.545314	0.903375
	Al5709	Al	0.891781	0.607840	0.840939
	Al5710	Al	0.641675	0.607825	0.840891
	Al5711	Al	0.891436	0.545348	0.903333
	C5712	C	0.605913	0.634117	0.811059
	C5713	C	0.855331	0.571574	0.873450
	C5714	C	0.606538	0.517826	0.929464
	C5715	C	0.856648	0.580282	0.866965
	C5716	C	0.923622	0.571795	0.939034
	C5717	C	0.673545	0.634218	0.876697
	C5718	C	0.924328	0.578426	0.822122
	C5719	C	0.673936	0.515949	0.884632
	C5720	C	0.926440	0.519066	0.933363
	C5721	C	0.676807	0.581557	0.870926
	C5722	C	0.925669	0.635350	0.814895
	C5723	C	0.675469	0.572852	0.877442
	C5724	C	0.604503	0.577744	0.826200
	C5725	C	0.853944	0.515246	0.888659
	C5726	C	0.603253	0.570320	0.942454
	C5727	C	0.852661	0.632901	0.879824
	C5728	C	0.515289	0.630259	0.816234
	C5729	C	0.764665	0.567768	0.878786
	C5730	C	0.517393	0.522911	0.928179
	C5731	C	0.767423	0.585388	0.865663
	C5732	C	0.513530	0.567016	0.935092
	C5733	C	0.763143	0.629539	0.872597
	C5734	C	0.516195	0.582944	0.824634
	C5735	C	0.765599	0.520450	0.887027
	C5736	C	0.514502	0.621054	0.823996
	C5737	C	0.764041	0.558588	0.886552
	C5738	C	0.518210	0.532109	0.920434
	C5739	C	0.768419	0.594591	0.857921
	C5740	C	0.513690	0.558556	0.923159
	C5741	C	0.763467	0.621054	0.860685
	C5742	C	0.518651	0.593135	0.827060
	C5743	C	0.768050	0.530639	0.889478
	H5744	H	0.675167	0.630243	0.812035
	H5745	H	0.924509	0.567673	0.874309
	H5746	H	0.676797	0.520684	0.925291
	H5747	H	0.926992	0.583134	0.862777
	H5748	H	0.854213	0.569346	0.933277
	H5749	H	0.604292	0.631697	0.871056
	H5750	H	0.855763	0.582372	0.820806
	H5751	H	0.605357	0.519900	0.883342
	H5752	H	0.857141	0.522944	0.932442
	H5753	H	0.607642	0.585446	0.869994
	H5754	H	0.855641	0.632447	0.819060
	H5755	H	0.605312	0.569994	0.881669
	H5756	H	0.675681	0.581146	0.828143
	H5757	H	0.925009	0.518660	0.890659
	H5758	H	0.672649	0.566683	0.939502
	H5759	H	0.922012	0.629290	0.876771
	O5760	O	0.087694	0.728559	0.018909
	O5761	O	0.337748	0.666056	0.081344
	O5762	O	0.091888	0.645448	0.104927
	O5763	O	0.341704	0.707931	0.042395
	O5764	O	0.418270	0.664876	0.111426
	O5765	O	0.168285	0.727404	0.048907
	O5766	O	0.422727	0.710252	0.012733
	O5767	O	0.172645	0.647697	0.075308
	O5768	O	0.422281	0.645957	0.106236
	O5769	O	0.172408	0.708470	0.043782
	O5770	O	0.418138	0.729099	0.020220
	O5771	O	0.168466	0.666544	0.082570
	O5772	O	0.091482	0.709665	0.013702
	O5773	O	0.341729	0.647174	0.076102
	O5774	O	0.087143	0.664307	0.112251
	O5775	O	0.337301	0.726769	0.049878
	F5776	F	0.005101	0.656653	0.083030
	F5777	F	0.255104	0.719191	0.020627
	F5778	F	0.004664	0.717848	0.042053
	F5779	F	0.254956	0.655379	0.104497
	Al5780	Al	0.130089	0.656004	0.093788
	Al5781	Al	0.379912	0.718509	0.031298
	Al5782	Al	0.129941	0.718521	0.031335
	Al5783	Al	0.380040	0.656013	0.093777
	C5784	C	0.094117	0.744945	0.002224
	C5785	C	0.344248	0.682502	0.064907
	C5786	C	0.095241	0.628400	0.119673
	C5787	C	0.345530	0.690904	0.057192
	C5788	C	0.412737	0.679343	0.137079
	C5789	C	0.162464	0.741989	0.074253
	C5790	C	0.418171	0.696484	-0.014281
	C5791	C	0.168032	0.633883	0.048444
	C5792	C	0.415474	0.629496	0.122637
	C5793	C	0.165736	0.692019	0.060221
	C5794	C	0.414348	0.746141	0.005520
	C5795	C	0.164519	0.683620	0.067917
	C5796	C	0.097141	0.695216	-0.011978
	C5797	C	0.347656	0.632833	0.050203
	C5798	C	0.091676	0.678090	0.139244
	C5799	C	0.341781	0.740464	0.077098
	C5800	C	0.003691	0.741269	0.007772
	C5801	C	0.253787	0.678773	0.070239
	C5802	C	0.005998	0.633223	0.117207
	C5803	C	0.256128	0.695717	0.054767
	C5804	C	0.002065	0.675092	0.131478
	C5805	C	0.252323	0.737594	0.068993
	C5806	C	0.007289	0.699487	-0.006486
	C5807	C	0.257782	0.636964	0.055985
	C5808	C	0.003110	0.732317	0.016271
	C5809	C	0.253166	0.669811	0.078708
	C5810	C	0.007096	0.642192	0.108789
	C5811	C	0.256941	0.704676	0.046301
	C5812	C	0.002382	0.667545	0.117345
	C5813	C	0.252682	0.730051	0.054918
	C5814	C	0.007084	0.706995	0.007694
	C5815	C	0.257343	0.644463	0.070198
	H5816	H	0.163066	0.741176	0.003859
	H5817	H	0.413158	0.678773	0.066739
	H5818	H	0.165097	0.631232	0.115452
	H5819	H	0.415299	0.693747	0.052939
	H5820	H	0.343336	0.677131	0.131055
	H5821	H	0.093005	0.739880	0.068025
	H5822	H	0.348614	0.699763	-0.010146
	H5823	H	0.098454	0.637062	0.052822
	H5824	H	0.346569	0.633242	0.120872
	H5825	H	0.096741	0.695753	0.058491
	H5826	H	0.344621	0.743335	0.009869
	H5827	H	0.094732	0.680816	0.072224
	H5828	H	0.166589	0.697411	-0.005915
	H5829	H	0.417023	0.635154	0.056035
	H5830	H	0.161295	0.674821	0.135111
	H5831	H	0.411492	0.737088	0.073245
	O5832	O	0.587406	0.728506	0.018756
	O5833	O	0.837734	0.666044	0.081310
	O5834	O	0.591512	0.645431	0.104930
	O5835	O	0.841327	0.707961	0.042573
	O5836	O	0.917969	0.664841	0.111435
	O5837	O	0.667517	0.727409	0.048902
	O5838	O	0.922331	0.710248	0.012782
	O5839	O	0.672200	0.647660	0.075346
	O5840	O	0.922707	0.645954	0.106114
	O5841	O	0.672105	0.708467	0.043824
	O5842	O	0.918359	0.729066	0.020211
	O5843	O	0.668483	0.666569	0.082708
	O5844	O	0.591843	0.709629	0.013706
	O5845	O	0.841305	0.647152	0.076073
	O5846	O	0.587285	0.664296	0.112287
	O5847	O	0.836635	0.726773	0.049859
	F5848	F	0.505183	0.656669	0.083096
	F5849	F	0.754886	0.719178	0.020645
	F5850	F	0.504629	0.717819	0.042026
	F5851	F	0.754948	0.655325	0.104514
	Al5852	Al	0.630021	0.655991	0.093827
	Al5853	Al	0.879837	0.718508	0.031368
	Al5854	Al	0.629627	0.718499	0.031294
	Al5855	Al	0.880090	0.655995	0.093719
	C5856	C	0.594086	0.744952	0.002195
	C5857	C	0.844237	0.682468	0.064840
	C5858	C	0.595405	0.628398	0.119663
	C5859	C	0.845287	0.690874	0.057128
	C5860	C	0.912197	0.679338	0.137035
	C5861	C	0.662139	0.741971	0.074312
	C5862	C	0.917626	0.696532	-0.014356
	C5863	C	0.667577	0.633884	0.048379
	C5864	C	0.915468	0.629516	0.122594
	C5865	C	0.665615	0.691983	0.060212
	C5866	C	0.914402	0.746147	0.005570
	C5867	C	0.664525	0.683590	0.067923
	C5868	C	0.597552	0.695173	-0.011990
	C5869	C	0.847242	0.632830	0.050203
	C5870	C	0.592264	0.678060	0.139300
	C5871	C	0.841704	0.740447	0.077048
	C5872	C	0.503664	0.741285	0.007775
	C5873	C	0.753825	0.678751	0.070224
	C5874	C	0.506028	0.633212	0.117271
	C5875	C	0.755993	0.695705	0.054798
	C5876	C	0.502502	0.675076	0.131521
	C5877	C	0.751934	0.737586	0.069002
	C5878	C	0.507826	0.699441	-0.006468
	C5879	C	0.757215	0.636938	0.055990
	C5880	C	0.502920	0.732316	0.016229
	C5881	C	0.753162	0.669819	0.078771
	C5882	C	0.506812	0.642183	0.108844
	C5883	C	0.756619	0.704673	0.046359
	C5884	C	0.502656	0.667555	0.117379
	C5885	C	0.751998	0.730075	0.054859
	C5886	C	0.507447	0.706972	0.007702
	C5887	C	0.756867	0.644439	0.070192
	H5888	H	0.663075	0.741179	0.003798
	H5889	H	0.913206	0.678747	0.066654
	H5890	H	0.665096	0.631250	0.115448
	H5891	H	0.914933	0.693706	0.052830
	H5892	H	0.842725	0.677106	0.131065
	H5893	H	0.592520	0.739883	0.068111
	H5894	H	0.848056	0.699819	-0.010264
	H5895	H	0.598154	0.637072	0.052755
	H5896	H	0.846539	0.633246	0.120801
	H5897	H	0.596616	0.695708	0.058482
	H5898	H	0.844577	0.743363	0.009977
	H5899	H	0.594840	0.680787	0.072274
	H5900	H	0.666964	0.697369	-0.005954
	H5901	H	0.916604	0.635153	0.056065
	H5902	H	0.661935	0.674799	0.135142
	H5903	H	0.911391	0.737087	0.073124
	O5904	O	0.081845	0.718610	0.182342
	O5905	O	0.331334	0.656110	0.244828
	O5906	O	0.086010	0.635655	0.268969
	O5907	O	0.335798	0.698216	0.206659
	O5908	O	0.412136	0.655477	0.274380
	O5909	O	0.162032	0.718012	0.211843
	O5910	O	0.417090	0.700212	0.177020
	O5911	O	0.167071	0.637788	0.239354
	O5912	O	0.416928	0.636307	0.270629
	O5913	O	0.166562	0.698776	0.208050
	O5914	O	0.412527	0.719175	0.183764
	O5915	O	0.162011	0.656674	0.246244
	O5916	O	0.085639	0.699625	0.177963
	O5917	O	0.336181	0.637068	0.240571
	O5918	O	0.081173	0.654876	0.275385
	O5919	O	0.331322	0.717379	0.213028
	F5920	F	-0.001050	0.646659	0.246784
	F5921	F	0.249201	0.709217	0.184365
	F5922	F	-0.000784	0.708124	0.206052
	F5923	F	0.248850	0.645662	0.268429
	Al5924	Al	0.123967	0.646163	0.257646
	Al5925	Al	0.374097	0.708692	0.195202
	Al5926	Al	0.124126	0.708681	0.195164
	Al5927	Al	0.373989	0.646180	0.257695
	C5928	C	0.088165	0.735095	0.165895
	C5929	C	0.338301	0.672556	0.228338
	C5930	C	0.089184	0.618496	0.283195
	C5931	C	0.339558	0.681007	0.220816
	C5932	C	0.406720	0.671332	0.296490
	C5933	C	0.156758	0.733931	0.233747
	C5934	C	0.412524	0.686408	0.150134
	C5935	C	0.162458	0.624120	0.212212
	C5936	C	0.410167	0.619912	0.287367
	C5937	C	0.159735	0.682342	0.224635
	C5938	C	0.409017	0.736393	0.169763
	C5939	C	0.158510	0.673890	0.232147
	C5940	C	0.091453	0.685155	0.152299
	C5941	C	0.341863	0.622424	0.215301
	C5942	C	0.085778	0.670073	0.299423
	C5943	C	0.336007	0.732476	0.237258
	C5944	C	-0.002238	0.731442	0.171603
	C5945	C	0.247718	0.668921	0.234021
	C5946	C	-0.000023	0.623474	0.281387
	C5947	C	0.250280	0.685967	0.218904
	C5948	C	-0.003735	0.666689	0.292191
	C5949	C	0.246464	0.729201	0.229790
	C5950	C	0.001607	0.689398	0.157852
	C5951	C	0.252127	0.626865	0.220435
	C5952	C	-0.002657	0.722448	0.179962
	C5953	C	0.246810	0.659927	0.242357
	C5954	C	0.001246	0.632456	0.273000
	C5955	C	0.251035	0.694960	0.210544
	C5956	C	-0.003395	0.658427	0.279716
	C5957	C	0.246638	0.720942	0.217290
	C5958	C	0.001269	0.696963	0.171947
	C5959	C	0.251779	0.634430	0.234521
	H5960	H	0.157171	0.731269	0.167259
	H5961	H	0.407273	0.668714	0.229725
	H5962	H	0.158987	0.621222	0.278570
	H5963	H	0.409332	0.683769	0.216281
	H5964	H	0.337414	0.668833	0.290868
	H5965	H	0.087512	0.731509	0.227873
	H5966	H	0.343021	0.689706	0.154272
	H5967	H	0.093002	0.627569	0.216014
	H5968	H	0.341501	0.623809	0.286165
	H5969	H	0.090790	0.686173	0.223283
	H5970	H	0.339300	0.733631	0.174287
	H5971	H	0.088633	0.671145	0.236701
	H5972	H	0.160910	0.687376	0.158306
	H5973	H	0.411196	0.624469	0.221663
	H5974	H	0.155442	0.666530	0.296291
	H5975	H	0.405495	0.728846	0.234283
	O5976	O	0.581585	0.718585	0.182295
	O5977	O	0.831448	0.656093	0.244805
	O5978	O	0.586166	0.635685	0.269057
	O5979	O	0.835822	0.698175	0.206653
	O5980	O	0.911985	0.655468	0.274377
	O5981	O	0.661522	0.718048	0.211757
	O5982	O	0.916614	0.700254	0.176929
	O5983	O	0.666718	0.637775	0.239379
	O5984	O	0.916875	0.636315	0.270633
	O5985	O	0.666547	0.698773	0.208139
	O5986	O	0.912701	0.719219	0.183988
	O5987	O	0.662128	0.656689	0.246296
	O5988	O	0.586191	0.699632	0.177932
	O5989	O	0.835778	0.637043	0.240519
	O5990	O	0.581416	0.654929	0.275398
	O5991	O	0.830707	0.717373	0.213047
	F5992	F	0.499169	0.646719	0.246869
	F5993	F	0.749634	0.709211	0.184419
	F5994	F	0.498982	0.708145	0.205946
	F5995	F	0.748902	0.645665	0.268448
	Al5996	Al	0.624174	0.646193	0.257668
	Al5997	Al	0.874317	0.708684	0.195296
	Al5998	Al	0.624173	0.708675	0.195134
	Al5999	Al	0.874127	0.646168	0.257633
	C6000	C	0.588639	0.735064	0.165868
	C6001	C	0.838117	0.672564	0.228346
	C6002	C	0.589611	0.618451	0.283103
	C6003	C	0.839430	0.681010	0.220825
	C6004	C	0.906395	0.671308	0.296481
	C6005	C	0.656176	0.733951	0.233757
	C6006	C	0.911974	0.686405	0.150077
	C6007	C	0.661975	0.624111	0.212168
	C6008	C	0.909666	0.619905	0.287388
	C6009	C	0.659620	0.682321	0.224652
	C6010	C	0.908519	0.736411	0.169752
	C6011	C	0.658383	0.673874	0.232175
	C6012	C	0.592119	0.685126	0.152363
	C6013	C	0.841353	0.622406	0.215257
	C6014	C	0.586018	0.670090	0.299388
	C6015	C	0.835543	0.732470	0.237148
	C6016	C	0.498248	0.731421	0.171664
	C6017	C	0.747656	0.668931	0.234070
	C6018	C	0.500561	0.623482	0.281458
	C6019	C	0.750178	0.685972	0.219000
	C6020	C	0.496396	0.666696	0.292219
	C6021	C	0.745884	0.729213	0.229723
	C6022	C	0.502207	0.689357	0.157936
	C6023	C	0.751586	0.626861	0.220389
	C6024	C	0.497233	0.722424	0.179886
	C6025	C	0.746940	0.659929	0.242388
	C6026	C	0.501393	0.632473	0.273063
	C6027	C	0.751025	0.694949	0.210602
	C6028	C	0.496663	0.658446	0.279749
	C6029	C	0.746063	0.720956	0.217257
	C6030	C	0.501822	0.696926	0.172007
	C6031	C	0.751303	0.634412	0.234484
	H6032	H	0.657547	0.731223	0.167170
	H6033	H	0.907032	0.668719	0.229679
	H6034	H	0.659262	0.621156	0.278392
	H6035	H	0.909107	0.683756	0.216216
	H6036	H	0.837028	0.668783	0.290892
	H6037	H	0.586874	0.731525	0.227922
	H6038	H	0.842410	0.689661	0.154252
	H6039	H	0.592477	0.627558	0.215963
	H6040	H	0.840878	0.623785	0.286201
	H6041	H	0.590593	0.686140	0.223220
	H6042	H	0.838736	0.733660	0.174312
	H6043	H	0.588550	0.671121	0.236675
	H6044	H	0.661548	0.687361	0.158332
	H6045	H	0.910675	0.624455	0.221621
	H6046	H	0.655557	0.666561	0.296169
	H6047	H	0.905029	0.728834	0.234146
	O6048	O	0.075674	0.713581	0.332004
	O6049	O	0.325477	0.651037	0.394422
	O6050	O	0.079608	0.631769	0.422245
	O6051	O	0.329994	0.694250	0.359659
	O6052	O	0.405555	0.652709	0.421131
	O6053	O	0.155649	0.715190	0.358616
	O6054	O	0.411285	0.694625	0.330798
	O6055	O	0.161257	0.632124	0.393357
	O6056	O	0.410823	0.632353	0.423588
	O6057	O	0.160594	0.694794	0.360974
	O6058	O	0.406110	0.714102	0.333109
	O6059	O	0.156177	0.651611	0.395720
	O6060	O	0.079736	0.694088	0.331944
	O6061	O	0.330228	0.631576	0.394544
	O6062	O	0.074963	0.652207	0.422625
	O6063	O	0.325030	0.714672	0.360072
	F6064	F	-0.006833	0.641416	0.397878
	F6065	F	0.243119	0.703917	0.335338
	F6066	F	-0.006666	0.704487	0.357707
	F6067	F	0.242821	0.641984	0.420179
	Al6068	Al	0.118079	0.641726	0.409120
	Al6069	Al	0.367954	0.704223	0.346534
	Al6070	Al	0.118185	0.704206	0.346572
	Al6071	Al	0.368027	0.641724	0.409136
	C6072	C	0.082347	0.730496	0.316611
	C6073	C	0.332393	0.667944	0.378890
	C6074	C	0.083263	0.614239	0.435167
	C6075	C	0.333547	0.676654	0.372356
	C6076	C	0.405209	0.671792	0.423674
	C6077	C	0.155141	0.734295	0.361248
	C6078	C	0.406601	0.679169	0.307688
	C6079	C	0.156419	0.616673	0.370236
	C6080	C	0.403891	0.615441	0.438958
	C6081	C	0.153751	0.677902	0.376422
	C6082	C	0.402885	0.731703	0.320430
	C6083	C	0.152620	0.669201	0.382909
	C6084	C	0.085449	0.677920	0.310604
	C6085	C	0.335617	0.615355	0.373270
	C6086	C	0.084630	0.671137	0.427809
	C6087	C	0.335030	0.733619	0.365309
	C6088	C	-0.008222	0.726621	0.321796
	C6089	C	0.241833	0.664120	0.384264
	C6090	C	-0.006174	0.619282	0.433717
	C6091	C	0.244360	0.681742	0.371124
	C6092	C	-0.007017	0.666610	0.425455
	C6093	C	0.243466	0.729089	0.362844
	C6094	C	-0.004322	0.682566	0.314772
	C6095	C	0.246062	0.620045	0.377397
	C6096	C	-0.008763	0.717424	0.329548
	C6097	C	0.241081	0.654920	0.392034
	C6098	C	-0.005324	0.628487	0.425986
	C6099	C	0.245084	0.690924	0.363359
	C6100	C	-0.009057	0.656423	0.422924
	C6101	C	0.241137	0.718910	0.360383
	C6102	C	-0.004530	0.691028	0.326695
	C6103	C	0.245924	0.628506	0.389334
	H6104	H	0.151741	0.726636	0.317561
	H6105	H	0.401590	0.664042	0.379766
	H6106	H	0.153362	0.617139	0.431044
	H6107	H	0.403554	0.679513	0.368058
	H6108	H	0.334196	0.668376	0.421635
	H6109	H	0.084057	0.730885	0.359259
	H6110	H	0.337203	0.682747	0.310785
	H6111	H	0.086963	0.620243	0.373343
	H6112	H	0.334770	0.619333	0.438099
	H6113	H	0.084534	0.681776	0.375530
	H6114	H	0.332591	0.728827	0.324546
	H6115	H	0.082263	0.666347	0.387061
	H6116	H	0.154813	0.680463	0.316163
	H6117	H	0.404906	0.617860	0.378914
	H6118	H	0.153380	0.667203	0.429064
	H6119	H	0.403692	0.729677	0.366637
	O6120	O	0.575496	0.713513	0.331786
	O6121	O	0.825466	0.651055	0.394297
	O6122	O	0.580183	0.631777	0.422229
	O6123	O	0.829791	0.694253	0.359698
	O6124	O	0.905438	0.652692	0.421054
	O6125	O	0.655186	0.715229	0.358551
	O6126	O	0.910801	0.694639	0.330704
	O6127	O	0.661182	0.632154	0.393228
	O6128	O	0.910353	0.632386	0.423636
	O6129	O	0.660463	0.694864	0.361115
	O6130	O	0.906288	0.714114	0.333252
	O6131	O	0.656098	0.651651	0.395712
	O6132	O	0.580312	0.694071	0.331980
	O6133	O	0.830108	0.631528	0.394514
	O6134	O	0.575020	0.652169	0.422757
	O6135	O	0.824582	0.714676	0.360294
	F6136	F	0.493376	0.641448	0.397917
	F6137	F	0.743355	0.703958	0.335439
	F6138	F	0.492904	0.704509	0.357612
	F6139	F	0.743064	0.642019	0.420039
	Al6140	Al	0.618045	0.641740	0.409106
	Al6141	Al	0.868264	0.704232	0.346642
	Al6142	Al	0.618066	0.704224	0.346559
	Al6143	Al	0.868472	0.641716	0.409005
	C6144	C	0.582692	0.730487	0.316544
	C6145	C	0.832374	0.667964	0.378862
	C6146	C	0.583709	0.614203	0.435012
	C6147	C	0.833466	0.676679	0.372353
	C6148	C	0.904701	0.671809	0.423743
	C6149	C	0.654863	0.734289	0.361179
	C6150	C	0.906083	0.679151	0.307661
	C6151	C	0.656045	0.616652	0.370214
	C6152	C	0.903224	0.615435	0.438963
	C6153	C	0.653648	0.677951	0.376565
	C6154	C	0.902412	0.731688	0.320405
	C6155	C	0.652566	0.669243	0.383016
	C6156	C	0.585961	0.677924	0.310597
	C6157	C	0.835225	0.615342	0.373296
	C6158	C	0.585204	0.671133	0.427769
	C6159	C	0.834922	0.733615	0.365205
	C6160	C	0.492097	0.726624	0.321760
	C6161	C	0.741898	0.664152	0.384266
	C6162	C	0.494481	0.619268	0.433637
	C6163	C	0.744155	0.681775	0.371193
	C6164	C	0.493505	0.666601	0.425405
	C6165	C	0.743213	0.729102	0.362812
	C6166	C	0.496219	0.682554	0.314839
	C6167	C	0.745725	0.620030	0.377354
	C6168	C	0.491098	0.717400	0.329419
	C6169	C	0.741041	0.654942	0.391962
	C6170	C	0.495276	0.628457	0.425898
	C6171	C	0.744818	0.690962	0.363442
	C6172	C	0.491107	0.656414	0.422987
	C6173	C	0.740711	0.718922	0.360428
	C6174	C	0.495964	0.691008	0.326785
	C6175	C	0.745715	0.628496	0.389258
	H6176	H	0.651970	0.726615	0.317478
	H6177	H	0.901512	0.664056	0.379663
	H6178	H	0.653754	0.617081	0.430830
	H6179	H	0.903408	0.679535	0.368014
	H6180	H	0.833668	0.668397	0.421674
	H6181	H	0.583811	0.730870	0.359166
	H6182	H	0.836495	0.682709	0.310770
	H6183	H	0.586740	0.620241	0.373324
	H6184	H	0.834022	0.619314	0.438043
	H6185	H	0.584394	0.681842	0.375765
	H6186	H	0.832105	0.728796	0.324467
	H6187	H	0.582315	0.666375	0.387202
	H6188	H	0.655342	0.680481	0.316115
	H6189	H	0.904450	0.617853	0.378954
	H6190	H	0.653910	0.667191	0.429075
	H6191	H	0.903545	0.729663	0.366505
	O6192	O	0.082545	0.720085	0.426017
	O6193	O	0.332641	0.657595	0.488518
	O6194	O	0.086288	0.639088	0.518628
	O6195	O	0.336722	0.701551	0.456053
	O6196	O	0.412659	0.659964	0.514628
	O6197	O	0.162669	0.722456	0.452105
	O6198	O	0.417973	0.700226	0.429519
	O6199	O	0.167950	0.637734	0.492106
	O6200	O	0.417134	0.639578	0.519685
	O6201	O	0.167323	0.702060	0.457193
	O6202	O	0.413268	0.720538	0.426881
	O6203	O	0.163300	0.658062	0.489455
	O6204	O	0.087353	0.699748	0.431157
	O6205	O	0.337259	0.637259	0.493709
	O6206	O	0.082074	0.659552	0.515976
	O6207	O	0.332187	0.722067	0.453320
	F6208	F	0.000191	0.647749	0.492866
	F6209	F	0.249904	0.710248	0.430404
	F6210	F	-0.000054	0.711961	0.452916
	F6211	F	0.249595	0.649465	0.515405
	Al6212	Al	0.124878	0.648607	0.504136
	Al6213	Al	0.374800	0.711100	0.441572
	Al6214	Al	0.124947	0.711093	0.441687
	Al6215	Al	0.374817	0.648606	0.504195
	C6216	C	0.089210	0.737375	0.411445
	C6217	C	0.339405	0.674843	0.473857
	C6218	C	0.090040	0.621297	0.530844
	C6219	C	0.340439	0.683732	0.468153
	C6220	C	0.410790	0.679075	0.515909
	C6221	C	0.160678	0.741582	0.453504
	C6222	C	0.408214	0.681286	0.424461
	C6223	C	0.158027	0.618809	0.487220
	C6224	C	0.410204	0.622191	0.533717
	C6225	C	0.160280	0.684682	0.471232
	C6226	C	0.409129	0.738288	0.414430
	C6227	C	0.159267	0.675791	0.476901
	C6228	C	0.087795	0.680628	0.428589
	C6229	C	0.337962	0.618132	0.491136
	C6230	C	0.091281	0.678575	0.519330
	C6231	C	0.341035	0.741069	0.456888
	C6232	C	-0.001402	0.733252	0.415926
	C6233	C	0.248814	0.670745	0.478385
	C6234	C	0.000548	0.626334	0.529397
	C6235	C	0.251004	0.688804	0.466814
	C6236	C	-0.000247	0.673963	0.517593
	C6237	C	0.249535	0.736467	0.455189
	C6238	C	-0.000524	0.685825	0.427035
	C6239	C	0.249667	0.623326	0.489626
	C6240	C	-0.001896	0.723947	0.423458
	C6241	C	0.248209	0.661452	0.485934
	C6242	C	0.001366	0.635690	0.522109
	C6243	C	0.251780	0.698152	0.459534
	C6244	C	-0.001965	0.663756	0.515960
	C6245	C	0.247946	0.726247	0.453502
	C6246	C	0.001966	0.696024	0.429375
	C6247	C	0.251945	0.633517	0.491959
	H6248	H	0.159079	0.733577	0.412391
	H6249	H	0.409281	0.671033	0.474763
	H6250	H	0.160661	0.624366	0.527462
	H6251	H	0.411125	0.686766	0.464664
	H6252	H	0.339642	0.675606	0.514567
	H6253	H	0.089584	0.738105	0.452156
	H6254	H	0.339613	0.685222	0.423061
	H6255	H	0.089469	0.622757	0.485944
	H6256	H	0.340494	0.625999	0.532752
	H6257	H	0.090599	0.688499	0.470293
	H6258	H	0.338441	0.735227	0.417817
	H6259	H	0.088621	0.672735	0.480319
	H6260	H	0.158982	0.684033	0.430494
	H6261	H	0.409011	0.621554	0.493020
	H6262	H	0.160460	0.674717	0.520742
	H6263	H	0.410106	0.737199	0.458280
	O6264	O	0.582598	0.720061	0.425866
	O6265	O	0.832191	0.657565	0.488378
	O6266	O	0.586503	0.639109	0.518713
	O6267	O	0.836295	0.701541	0.456117
	O6268	O	0.912623	0.659973	0.514455
	O6269	O	0.662130	0.722455	0.452046
	O6270	O	0.918076	0.700271	0.429525
	O6271	O	0.667484	0.637695	0.492204
	O6272	O	0.916897	0.639594	0.519726
	O6273	O	0.666902	0.702061	0.457183
	O6274	O	0.913174	0.720557	0.426979
	O6275	O	0.662906	0.658058	0.489462
	O6276	O	0.587336	0.699753	0.431056
	O6277	O	0.836835	0.637214	0.493743
	O6278	O	0.582048	0.659571	0.515924
	O6279	O	0.831575	0.722075	0.453549
	F6280	F	0.499916	0.647751	0.492944
	F6281	F	0.750126	0.710257	0.430451
	F6282	F	0.499544	0.711936	0.452777
	F6283	F	0.749802	0.649481	0.515278
	Al6284	Al	0.624802	0.648613	0.504147
	Al6285	Al	0.875201	0.711131	0.441685
	Al6286	Al	0.624921	0.711105	0.441622
	Al6287	Al	0.875201	0.648607	0.504104
	C6288	C	0.589310	0.737362	0.411366
	C6289	C	0.839020	0.674858	0.473944
	C6290	C	0.590391	0.621270	0.530809
	C6291	C	0.840082	0.683750	0.468265
	C6292	C	0.910787	0.679076	0.515934
	C6293	C	0.660384	0.741587	0.453415
	C6294	C	0.907846	0.681299	0.424558
	C6295	C	0.657678	0.618784	0.487211
	C6296	C	0.909738	0.622182	0.533716
	C6297	C	0.659884	0.684698	0.471323
	C6298	C	0.908973	0.738307	0.414488
	C6299	C	0.658858	0.675804	0.476981
	C6300	C	0.588175	0.680624	0.428509
	C6301	C	0.837873	0.618119	0.491086
	C6302	C	0.591199	0.678577	0.519354
	C6303	C	0.840837	0.741071	0.456822
	C6304	C	0.498699	0.733237	0.415886
	C6305	C	0.748330	0.670747	0.478416
	C6306	C	0.500891	0.626324	0.529365
	C6307	C	0.750609	0.688808	0.466863
	C6308	C	0.499678	0.673957	0.517586
	C6309	C	0.749167	0.736481	0.455150
	C6310	C	0.499756	0.685812	0.426946
	C6311	C	0.749372	0.623299	0.489563
	C6312	C	0.498134	0.723930	0.423354
	C6313	C	0.747745	0.661440	0.485892
	C6314	C	0.501575	0.635683	0.522101
	C6315	C	0.751306	0.698151	0.459563
	C6316	C	0.497910	0.663756	0.515980
	C6317	C	0.747322	0.726255	0.453529
	C6318	C	0.501995	0.696008	0.429299
	C6319	C	0.751485	0.633480	0.491962
	H6320	H	0.659112	0.733550	0.412243
	H6321	H	0.908744	0.671045	0.474878
	H6322	H	0.661041	0.624330	0.527434
	H6323	H	0.910702	0.686790	0.464839
	H6324	H	0.839621	0.675605	0.514599
	H6325	H	0.589277	0.738113	0.452053
	H6326	H	0.839266	0.685246	0.423184
	H6327	H	0.589089	0.622734	0.485984
	H6328	H	0.839927	0.625982	0.532724
	H6329	H	0.590148	0.688523	0.470420
	H6330	H	0.838261	0.735259	0.417907
	H6331	H	0.588122	0.672750	0.480416
	H6332	H	0.659296	0.684037	0.430405
	H6333	H	0.908856	0.621551	0.492993
	H6334	H	0.660300	0.674715	0.520783
	H6335	H	0.909874	0.737194	0.458227
	O6336	O	0.087357	0.727539	0.515603
	O6337	O	0.337698	0.665036	0.578146
	O6338	O	0.090784	0.646606	0.608471
	O6339	O	0.341168	0.709101	0.546014
	O6340	O	0.417252	0.667391	0.604237
	O6341	O	0.167232	0.729879	0.541598
	O6342	O	0.422313	0.707539	0.519519
	O6343	O	0.172372	0.645074	0.582018
	O6344	O	0.421702	0.647012	0.609345
	O6345	O	0.171669	0.709453	0.546720
	O6346	O	0.418148	0.727962	0.516539
	O6347	O	0.168337	0.665469	0.579050
	O6348	O	0.091786	0.707170	0.520770
	O6349	O	0.341759	0.644687	0.583339
	O6350	O	0.087022	0.667021	0.605502
	O6351	O	0.336693	0.729464	0.543045
	F6352	F	0.005195	0.655174	0.582508
	F6353	F	0.254882	0.717657	0.519988
	F6354	F	0.004786	0.719407	0.542472
	F6355	F	0.254385	0.656903	0.605023
	Al6356	Al	0.129794	0.656045	0.593760
	Al6357	Al	0.379573	0.718525	0.531240
	Al6358	Al	0.129717	0.718521	0.531193
	Al6359	Al	0.379669	0.656035	0.593764
	C6360	C	0.094002	0.744911	0.501495
	C6361	C	0.344470	0.682365	0.563819
	C6362	C	0.094716	0.628831	0.620884
	C6363	C	0.345569	0.691268	0.558220
	C6364	C	0.415693	0.686494	0.605552
	C6365	C	0.165548	0.749013	0.543264
	C6366	C	0.413323	0.688564	0.515882
	C6367	C	0.163193	0.626076	0.578452
	C6368	C	0.415009	0.629702	0.623601
	C6369	C	0.165324	0.692155	0.561026
	C6370	C	0.413995	0.745751	0.504111
	C6371	C	0.164269	0.683249	0.566629
	C6372	C	0.093717	0.688060	0.519304
	C6373	C	0.343695	0.625574	0.581850
	C6374	C	0.095867	0.686002	0.609029
	C6375	C	0.346124	0.748471	0.546481
	C6376	C	0.003297	0.740745	0.505772
	C6377	C	0.253814	0.678220	0.568174
	C6378	C	0.005221	0.633861	0.619346
	C6379	C	0.256020	0.696307	0.556730
	C6380	C	0.004266	0.681402	0.607350
	C6381	C	0.254455	0.743893	0.544811
	C6382	C	0.004823	0.693165	0.517603
	C6383	C	0.254789	0.630680	0.580184
	C6384	C	0.002834	0.731400	0.513130
	C6385	C	0.253204	0.668891	0.575595
	C6386	C	0.005836	0.643205	0.611962
	C6387	C	0.256349	0.705640	0.549356
	C6388	C	0.002705	0.671186	0.605656
	C6389	C	0.252548	0.733664	0.543096
	C6390	C	0.006564	0.703379	0.519302
	C6391	C	0.256553	0.640889	0.581919
	H6392	H	0.163930	0.741122	0.502511
	H6393	H	0.414285	0.678555	0.564799
	H6394	H	0.165472	0.631915	0.617612
	H6395	H	0.416353	0.694355	0.554892
	H6396	H	0.344590	0.683025	0.604105
	H6397	H	0.094386	0.745534	0.542024
	H6398	H	0.344350	0.692447	0.514512
	H6399	H	0.094159	0.629955	0.577082
	H6400	H	0.345339	0.633525	0.622643
	H6401	H	0.095538	0.695947	0.560018
	H6402	H	0.343257	0.742658	0.507348
	H6403	H	0.093580	0.680169	0.569927
	H6404	H	0.164833	0.691542	0.520695
	H6405	H	0.414787	0.629043	0.583209
	H6406	H	0.164957	0.682131	0.610417
	H6407	H	0.415160	0.744585	0.547822
	O6408	O	0.587585	0.727517	0.515577
	O6409	O	0.837174	0.665059	0.578130
	O6410	O	0.591128	0.646595	0.608473
	O6411	O	0.841031	0.709068	0.545986
	O6412	O	0.917440	0.667372	0.604246
	O6413	O	0.667047	0.729875	0.541677
	O6414	O	0.922302	0.707570	0.519439
	O6415	O	0.672339	0.645059	0.581968
	O6416	O	0.921391	0.647071	0.609463
	O6417	O	0.671612	0.709494	0.546811
	O6418	O	0.917916	0.727967	0.516552
	O6419	O	0.667761	0.665476	0.579038
	O6420	O	0.591876	0.707164	0.520797
	O6421	O	0.841798	0.644655	0.583241
	O6422	O	0.586688	0.666986	0.605548
	O6423	O	0.836514	0.729507	0.543005
	F6424	F	0.504889	0.655163	0.582554
	F6425	F	0.754967	0.717656	0.520064
	F6426	F	0.504459	0.719392	0.542430
	F6427	F	0.754468	0.656870	0.604915
	Al6428	Al	0.629646	0.656027	0.593789
	Al6429	Al	0.879946	0.718533	0.531285
	Al6430	Al	0.629709	0.718519	0.531227
	Al6431	Al	0.879970	0.656033	0.593713
	C6432	C	0.594383	0.744881	0.501411
	C6433	C	0.843985	0.682359	0.563820
	C6434	C	0.595354	0.628795	0.620805
	C6435	C	0.845095	0.691266	0.558224
	C6436	C	0.915491	0.686526	0.605546
	C6437	C	0.665183	0.749024	0.543220
	C6438	C	0.913236	0.688559	0.515916
	C6439	C	0.663007	0.626086	0.578347
	C6440	C	0.914339	0.629718	0.623666
	C6441	C	0.664835	0.692161	0.561053
	C6442	C	0.913635	0.745780	0.504205
	C6443	C	0.663714	0.683257	0.566660
	C6444	C	0.593793	0.688063	0.519334
	C6445	C	0.843347	0.625545	0.581854
	C6446	C	0.596001	0.685993	0.609069
	C6447	C	0.845658	0.748492	0.546521
	C6448	C	0.503594	0.740726	0.505701
	C6449	C	0.753239	0.678225	0.568175
	C6450	C	0.505770	0.633828	0.619252
	C6451	C	0.755546	0.696307	0.556738
	C6452	C	0.504441	0.681382	0.607374
	C6453	C	0.753984	0.743907	0.544821
	C6454	C	0.504939	0.693161	0.517582
	C6455	C	0.754629	0.630663	0.580053
	C6456	C	0.503034	0.731386	0.513092
	C6457	C	0.752586	0.668899	0.575583
	C6458	C	0.506273	0.643165	0.611887
	C6459	C	0.756136	0.705642	0.549379
	C6460	C	0.502546	0.671173	0.605677
	C6461	C	0.752224	0.733681	0.543109
	C6462	C	0.506640	0.703371	0.519353
	C6463	C	0.756527	0.640871	0.581812
	H6464	H	0.664250	0.741090	0.502444
	H6465	H	0.913769	0.678556	0.564794
	H6466	H	0.666118	0.631876	0.617529
	H6467	H	0.915853	0.694343	0.554899
	H6468	H	0.844360	0.683057	0.604128
	H6469	H	0.594015	0.745557	0.541906
	H6470	H	0.844068	0.692422	0.514531
	H6471	H	0.593975	0.629956	0.576948
	H6472	H	0.844602	0.633533	0.622679
	H6473	H	0.594976	0.695971	0.560062
	H6474	H	0.842861	0.742696	0.507479
	H6475	H	0.592978	0.680183	0.569966
	H6476	H	0.664812	0.691546	0.520736
	H6477	H	0.914468	0.629003	0.583302
	H6478	H	0.665136	0.682125	0.610473
	H6479	H	0.914639	0.744607	0.547893
	O6480	O	0.091992	0.734987	0.605255
	O6481	O	0.342142	0.672485	0.667781
	O6482	O	0.095729	0.654043	0.698101
	O6483	O	0.345897	0.716490	0.635449
	O6484	O	0.422204	0.674821	0.693711
	O6485	O	0.172224	0.737311	0.631290
	O6486	O	0.427253	0.714986	0.609051
	O6487	O	0.177509	0.652483	0.671640
	O6488	O	0.426785	0.654507	0.699066
	O6489	O	0.176566	0.716965	0.636467
	O6490	O	0.422851	0.735465	0.606260
	O6491	O	0.172762	0.672969	0.668863
	O6492	O	0.096881	0.714615	0.610237
	O6493	O	0.346929	0.652093	0.672970
	O6494	O	0.091619	0.674353	0.695362
	O6495	O	0.341642	0.736877	0.632746
	F6496	F	0.010226	0.662606	0.672116
	F6497	F	0.259658	0.725130	0.609608
	F6498	F	0.009670	0.726789	0.632038
	F6499	F	0.259470	0.664335	0.694618
	Al6500	Al	0.134835	0.663456	0.683370
	Al6501	Al	0.384568	0.725963	0.620807
	Al6502	Al	0.134622	0.725961	0.620769
	Al6503	Al	0.384640	0.663466	0.683308
	C6504	C	0.098844	0.752376	0.591207
	C6505	C	0.348984	0.689850	0.653684
	C6506	C	0.099847	0.636290	0.710559
	C6507	C	0.349962	0.698743	0.647984
	C6508	C	0.421628	0.693932	0.696344
	C6509	C	0.171240	0.756471	0.633875
	C6510	C	0.418271	0.695980	0.605531
	C6511	C	0.168231	0.633496	0.668110
	C6512	C	0.419933	0.637219	0.713588
	C6513	C	0.169880	0.699673	0.651015
	C6514	C	0.418868	0.753296	0.594134
	C6515	C	0.168826	0.690784	0.656695
	C6516	C	0.098528	0.695484	0.608969
	C6517	C	0.348683	0.632967	0.671563
	C6518	C	0.101306	0.693295	0.700306
	C6519	C	0.351257	0.755782	0.637823
	C6520	C	0.008108	0.748218	0.595537
	C6521	C	0.258325	0.685736	0.658159
	C6522	C	0.010271	0.641332	0.709098
	C6523	C	0.260507	0.703798	0.646562
	C6524	C	0.009708	0.688766	0.697896
	C6525	C	0.259505	0.751262	0.635445
	C6526	C	0.009792	0.700606	0.607252
	C6527	C	0.259894	0.638085	0.669849
	C6528	C	0.007485	0.738865	0.602822
	C6529	C	0.257647	0.676382	0.665420
	C6530	C	0.010759	0.650658	0.701629
	C6531	C	0.261043	0.713103	0.639030
	C6532	C	0.007643	0.678578	0.695543
	C6533	C	0.257450	0.741073	0.633048
	C6534	C	0.011561	0.710822	0.608877
	C6535	C	0.261712	0.648297	0.671565
	H6536	H	0.168670	0.748579	0.592211
	H6537	H	0.418661	0.686023	0.654571
	H6538	H	0.170503	0.639353	0.707156
	H6539	H	0.420603	0.701786	0.644513
	H6540	H	0.350554	0.690525	0.694390
	H6541	H	0.099990	0.753077	0.631921
	H6542	H	0.349307	0.699852	0.604054
	H6543	H	0.099200	0.637380	0.666735
	H6544	H	0.350281	0.641054	0.712711
	H6545	H	0.100097	0.703478	0.650049
	H6546	H	0.348211	0.750244	0.597556
	H6547	H	0.098127	0.687732	0.660090
	H6548	H	0.169698	0.698948	0.610307
	H6549	H	0.419778	0.636439	0.672977
	H6550	H	0.170019	0.689358	0.701630
	H6551	H	0.419933	0.751839	0.639100
	O6552	O	0.592269	0.735002	0.605339
	O6553	O	0.841707	0.672504	0.667720
	O6554	O	0.596084	0.653995	0.697939
	O6555	O	0.845489	0.716475	0.635518
	O6556	O	0.922234	0.674830	0.693779
	O6557	O	0.671897	0.737295	0.631399
	O6558	O	0.927354	0.715013	0.608959
	O6559	O	0.677181	0.652512	0.671521
	O6560	O	0.926396	0.654543	0.699129
	O6561	O	0.676118	0.716979	0.636528
	O6562	O	0.922506	0.735432	0.606250
	O6563	O	0.672285	0.673002	0.668835
	O6564	O	0.596731	0.714613	0.610333
	O6565	O	0.846642	0.652095	0.672953
	O6566	O	0.591543	0.674338	0.695342
	O6567	O	0.841339	0.736879	0.632871
	F6568	F	0.509859	0.662613	0.672109
	F6569	F	0.759797	0.725117	0.609684
	F6570	F	0.509325	0.726808	0.632043
	F6571	F	0.759508	0.664353	0.694478
	Al6572	Al	0.634581	0.663468	0.683344
	Al6573	Al	0.884853	0.725963	0.620887
	Al6574	Al	0.634505	0.725964	0.620819
	Al6575	Al	0.885025	0.663483	0.683299
	C6576	C	0.599096	0.752367	0.591209
	C6577	C	0.848633	0.689876	0.653708
	C6578	C	0.600122	0.636254	0.710493
	C6579	C	0.849535	0.698769	0.648038
	C6580	C	0.921210	0.693964	0.696375
	C6581	C	0.670748	0.756455	0.633882
	C6582	C	0.918171	0.696007	0.605490
	C6583	C	0.667797	0.633526	0.668181
	C6584	C	0.919555	0.637219	0.713624
	C6585	C	0.669344	0.699708	0.651106
	C6586	C	0.918516	0.753270	0.594115
	C6587	C	0.668413	0.690817	0.656785
	C6588	C	0.598626	0.695477	0.609047
	C6589	C	0.848176	0.632998	0.671624
	C6590	C	0.601604	0.693261	0.700305
	C6591	C	0.850810	0.755781	0.637800
	C6592	C	0.508389	0.748238	0.595582
	C6593	C	0.757877	0.685749	0.658089
	C6594	C	0.510597	0.641309	0.709029
	C6595	C	0.759983	0.703806	0.646567
	C6596	C	0.509943	0.688737	0.697961
	C6597	C	0.759126	0.751255	0.635451
	C6598	C	0.509780	0.700590	0.607322
	C6599	C	0.759477	0.638111	0.669794
	C6600	C	0.507815	0.738886	0.602877
	C6601	C	0.757184	0.676394	0.665346
	C6602	C	0.511207	0.650619	0.701539
	C6603	C	0.760550	0.713106	0.639068
	C6604	C	0.507568	0.678554	0.695533
	C6605	C	0.757126	0.741064	0.633115
	C6606	C	0.511510	0.710806	0.608972
	C6607	C	0.761336	0.648320	0.671476
	H6608	H	0.668860	0.748561	0.592178
	H6609	H	0.918399	0.686063	0.654651
	H6610	H	0.670816	0.639311	0.707084
	H6611	H	0.920215	0.701824	0.644633
	H6612	H	0.850058	0.690550	0.694477
	H6613	H	0.599560	0.753046	0.631991
	H6614	H	0.849221	0.699889	0.604019
	H6615	H	0.598710	0.637405	0.666838
	H6616	H	0.849838	0.641052	0.712754
	H6617	H	0.599595	0.703527	0.650203
	H6618	H	0.847793	0.750214	0.597517
	H6619	H	0.597800	0.687775	0.660264
	H6620	H	0.669683	0.698958	0.610447
	H6621	H	0.919279	0.636465	0.673081
	H6622	H	0.670327	0.689326	0.701563
	H6623	H	0.919603	0.751850	0.639095
	O6624	O	0.099078	0.742203	0.701370
	O6625	O	0.349369	0.679726	0.763998
	O6626	O	0.103343	0.660429	0.791740
	O6627	O	0.353270	0.722937	0.729270
	O6628	O	0.429606	0.680502	0.793003
	O6629	O	0.179335	0.743003	0.730513
	O6630	O	0.434650	0.722378	0.702299
	O6631	O	0.184583	0.659917	0.764834
	O6632	O	0.434068	0.660974	0.793065
	O6633	O	0.183870	0.723492	0.730585
	O6634	O	0.429552	0.742758	0.702717
	O6635	O	0.180038	0.680286	0.765273
	O6636	O	0.103912	0.721875	0.703913
	O6637	O	0.353954	0.659362	0.766430
	O6638	O	0.098272	0.679936	0.794203
	O6639	O	0.348222	0.742430	0.731677
	F6640	F	0.017056	0.670083	0.767282
	F6641	F	0.266564	0.732578	0.704870
	F6642	F	0.016219	0.733134	0.727092
	F6643	F	0.266342	0.670652	0.789657
	Al6644	Al	0.141669	0.670328	0.778397
	Al6645	Al	0.391700	0.732825	0.715906
	Al6646	Al	0.141539	0.732858	0.715895
	Al6647	Al	0.391532	0.670358	0.778480
	C6648	C	0.105621	0.759157	0.686087
	C6649	C	0.356058	0.696646	0.748542
	C6650	C	0.106550	0.642891	0.804630
	C6651	C	0.357045	0.705364	0.742070
	C6652	C	0.424029	0.696749	0.814193
	C6653	C	0.173778	0.759184	0.751814
	C6654	C	0.424686	0.703424	0.697149
	C6655	C	0.174363	0.640961	0.759668
	C6656	C	0.427201	0.644016	0.808326
	C6657	C	0.177051	0.706530	0.745842
	C6658	C	0.425937	0.760289	0.689801
	C6659	C	0.176126	0.697825	0.752350
	C6660	C	0.104370	0.702785	0.701096
	C6661	C	0.354252	0.640287	0.763680
	C6662	C	0.103152	0.695384	0.817398
	C6663	C	0.353104	0.757889	0.754786
	C6664	C	0.015086	0.755285	0.691296
	C6665	C	0.265601	0.692794	0.753818
	C6666	C	0.017250	0.647933	0.803155
	C6667	C	0.267632	0.710404	0.740636
	C6668	C	0.013499	0.692048	0.810099
	C6669	C	0.263462	0.754523	0.747567
	C6670	C	0.016045	0.707977	0.699512
	C6671	C	0.265962	0.645483	0.762113
	C6672	C	0.014646	0.746091	0.699047
	C6673	C	0.264956	0.683604	0.761582
	C6674	C	0.018276	0.657137	0.795421
	C6675	C	0.268367	0.719624	0.732973
	C6676	C	0.013659	0.683593	0.798175
	C6677	C	0.263692	0.746070	0.735671
	C6678	C	0.018382	0.718161	0.702007
	C6679	C	0.268384	0.655663	0.764620
	H6680	H	0.174964	0.755307	0.687059
	H6681	H	0.425310	0.692762	0.749475
	H6682	H	0.176865	0.645779	0.800582
	H6683	H	0.427253	0.708277	0.737993
	H6684	H	0.354736	0.694276	0.808487
	H6685	H	0.104243	0.756652	0.746267
	H6686	H	0.356079	0.707357	0.695844
	H6687	H	0.105699	0.644907	0.758364
	H6688	H	0.357803	0.647858	0.807346
	H6689	H	0.107695	0.710372	0.744900
	H6690	H	0.355775	0.757396	0.693921
	H6691	H	0.105970	0.694944	0.756467
	H6692	H	0.175451	0.706195	0.703062
	H6693	H	0.425413	0.643686	0.765656
	H6694	H	0.172676	0.691774	0.814404
	H6695	H	0.422479	0.754286	0.751707
	O6696	O	0.599002	0.742178	0.701374
	O6697	O	0.848804	0.679707	0.763837
	O6698	O	0.603519	0.660442	0.791842
	O6699	O	0.853141	0.722854	0.729158
	O6700	O	0.929235	0.680548	0.792953
	O6701	O	0.679324	0.742997	0.730477
	O6702	O	0.934475	0.722409	0.702190
	O6703	O	0.684114	0.659890	0.764814
	O6704	O	0.934053	0.661035	0.793020
	O6705	O	0.683857	0.723505	0.730646
	O6706	O	0.929729	0.742774	0.702763
	O6707	O	0.679530	0.680281	0.765299
	O6708	O	0.604049	0.721840	0.703893
	O6709	O	0.853568	0.659347	0.766322
	O6710	O	0.598603	0.679948	0.794231
	O6711	O	0.848298	0.742410	0.731728
	F6712	F	0.516543	0.670049	0.767407
	F6713	F	0.766781	0.732561	0.704924
	F6714	F	0.516407	0.733148	0.727104
	F6715	F	0.766398	0.670662	0.789554
	Al6716	Al	0.641427	0.670338	0.778417
	Al6717	Al	0.891926	0.732837	0.715968
	Al6718	Al	0.641646	0.732826	0.715893
	Al6719	Al	0.891600	0.670368	0.778374
	C6720	C	0.605913	0.759107	0.686008
	C6721	C	0.855513	0.696611	0.748443
	C6722	C	0.607064	0.642826	0.804566
	C6723	C	0.856665	0.705324	0.741953
	C6724	C	0.923761	0.696770	0.814136
	C6725	C	0.673775	0.759177	0.751802
	C6726	C	0.924276	0.703456	0.697131
	C6727	C	0.673997	0.640938	0.759615
	C6728	C	0.926704	0.644049	0.808330
	C6729	C	0.676902	0.706542	0.745946
	C6730	C	0.925618	0.760327	0.689860
	C6731	C	0.675795	0.697848	0.752469
	C6732	C	0.604608	0.702750	0.701127
	C6733	C	0.853851	0.640262	0.763637
	C6734	C	0.603283	0.695357	0.817429
	C6735	C	0.853065	0.757895	0.754740
	C6736	C	0.515281	0.755243	0.691209
	C6737	C	0.765017	0.692782	0.753806
	C6738	C	0.517826	0.647902	0.803174
	C6739	C	0.767334	0.710398	0.740687
	C6740	C	0.513645	0.692025	0.810141
	C6741	C	0.763430	0.754526	0.747587
	C6742	C	0.516239	0.707944	0.699598
	C6743	C	0.765598	0.645461	0.762004
	C6744	C	0.514536	0.746062	0.699007
	C6745	C	0.764355	0.683600	0.761564
	C6746	C	0.518602	0.657118	0.795503
	C6747	C	0.768139	0.719586	0.732930
	C6748	C	0.513886	0.683569	0.798231
	C6749	C	0.763676	0.746052	0.735687
	C6750	C	0.518532	0.718128	0.702086
	C6751	C	0.768008	0.655644	0.764503
	H6752	H	0.675235	0.755237	0.686941
	H6753	H	0.924648	0.692721	0.749306
	H6754	H	0.677407	0.645707	0.800482
	H6755	H	0.926719	0.708198	0.737758
	H6756	H	0.854352	0.694290	0.808440
	H6757	H	0.604552	0.756629	0.746216
	H6758	H	0.855624	0.707404	0.695842
	H6759	H	0.605313	0.644875	0.758309
	H6760	H	0.857362	0.647898	0.807307
	H6761	H	0.607537	0.710398	0.745027
	H6762	H	0.855476	0.757437	0.694013
	H6763	H	0.605649	0.694983	0.756699
	H6764	H	0.675622	0.706162	0.703084
	H6765	H	0.924991	0.643663	0.765627
	H6766	H	0.672688	0.691740	0.814420
	H6767	H	0.922350	0.754304	0.751608
	O6768	O	0.093346	0.738281	0.854549
	O6769	O	0.343373	0.675725	0.916913
	O6770	O	0.097218	0.655359	0.941314
	O6771	O	0.347738	0.717836	0.878754
	O6772	O	0.423792	0.674912	0.947127
	O6773	O	0.173951	0.737460	0.884589
	O6774	O	0.428588	0.719632	0.849679
	O6775	O	0.178637	0.657144	0.912080
	O6776	O	0.428141	0.655883	0.942574
	O6777	O	0.178453	0.718427	0.880224
	O6778	O	0.424025	0.738828	0.856071
	O6779	O	0.174143	0.676334	0.918445
	O6780	O	0.097396	0.719071	0.850744
	O6781	O	0.347880	0.656527	0.913248
	O6782	O	0.092916	0.674325	0.948057
	O6783	O	0.343176	0.736800	0.885618
	F6784	F	0.010953	0.666396	0.919061
	F6785	F	0.260873	0.728866	0.856610
	F6786	F	0.010671	0.727868	0.878299
	F6787	F	0.260464	0.665307	0.940720
	Al6788	Al	0.135698	0.665834	0.929890
	Al6789	Al	0.385856	0.728342	0.867406
	Al6790	Al	0.135817	0.728375	0.867418
	Al6791	Al	0.385747	0.665859	0.929897
	C6792	C	0.099684	0.754727	0.838047
	C6793	C	0.350126	0.692162	0.900294
	C6794	C	0.101131	0.638294	0.955916
	C6795	C	0.351252	0.700610	0.892773
	C6796	C	0.418354	0.689438	0.972645
	C6797	C	0.168298	0.752009	0.910080
	C6798	C	0.423866	0.704570	0.825428
	C6799	C	0.173933	0.642067	0.887932
	C6800	C	0.421451	0.639266	0.958431
	C6801	C	0.171829	0.701973	0.896740
	C6802	C	0.419899	0.755937	0.841549
	C6803	C	0.170685	0.693521	0.904273
	C6804	C	0.102996	0.703206	0.828637
	C6805	C	0.353364	0.640727	0.890978
	C6806	C	0.097427	0.688153	0.974965
	C6807	C	0.347759	0.750609	0.912583
	C6808	C	0.009121	0.751033	0.843582
	C6809	C	0.259774	0.688542	0.906064
	C6810	C	0.011758	0.643069	0.953377
	C6811	C	0.262123	0.705590	0.890962
	C6812	C	0.007842	0.685202	0.967109
	C6813	C	0.258135	0.747717	0.904680
	C6814	C	0.013247	0.707889	0.832767
	C6815	C	0.263718	0.645396	0.895188
	C6816	C	0.008698	0.742062	0.852025
	C6817	C	0.258925	0.679558	0.914450
	C6818	C	0.012518	0.652081	0.945126
	C6819	C	0.262946	0.714592	0.882644
	C6820	C	0.008258	0.677619	0.953072
	C6821	C	0.258450	0.740126	0.890567
	C6822	C	0.012867	0.716122	0.845300
	C6823	C	0.263389	0.653614	0.907747
	H6824	H	0.168721	0.750945	0.839591
	H6825	H	0.418940	0.688327	0.901638
	H6826	H	0.170848	0.641200	0.951912
	H6827	H	0.420909	0.703343	0.888185
	H6828	H	0.348914	0.687244	0.966627
	H6829	H	0.098943	0.749823	0.903970
	H6830	H	0.354491	0.708166	0.828470
	H6831	H	0.104368	0.645630	0.891108
	H6832	H	0.352520	0.642951	0.956542
	H6833	H	0.103042	0.705829	0.895412
	H6834	H	0.350086	0.753170	0.846023
	H6835	H	0.101142	0.690780	0.908906
	H6836	H	0.172339	0.705654	0.834397
	H6837	H	0.422703	0.643193	0.896685
	H6838	H	0.166994	0.684860	0.970884
	H6839	H	0.417123	0.747264	0.908543
	O6840	O	0.593258	0.738252	0.854546
	O6841	O	0.843384	0.675750	0.916935
	O6842	O	0.597428	0.655377	0.941308
	O6843	O	0.847625	0.717837	0.878839
	O6844	O	0.923813	0.674900	0.947140
	O6845	O	0.673826	0.737435	0.884566
	O6846	O	0.928224	0.719647	0.849636
	O6847	O	0.678010	0.657131	0.912123
	O6848	O	0.928024	0.655861	0.942513
	O6849	O	0.678274	0.718408	0.880211
	O6850	O	0.924102	0.738827	0.856055
	O6851	O	0.674106	0.676306	0.918424
	O6852	O	0.597809	0.719053	0.850683
	O6853	O	0.847253	0.656558	0.913149
	O6854	O	0.592913	0.674325	0.948031
	O6855	O	0.842792	0.736802	0.885639
	F6856	F	0.510834	0.666406	0.919123
	F6857	F	0.761084	0.728878	0.856669
	F6858	F	0.510728	0.727844	0.878256
	F6859	F	0.760750	0.665338	0.940672
	Al6860	Al	0.635753	0.665859	0.929886
	Al6861	Al	0.885961	0.728353	0.867497
	Al6862	Al	0.635836	0.728373	0.867413
	Al6863	Al	0.885856	0.665861	0.929810
	C6864	C	0.599672	0.754694	0.837989
	C6865	C	0.849577	0.692158	0.900257
	C6866	C	0.601184	0.638291	0.955871
	C6867	C	0.850847	0.700600	0.892732
	C6868	C	0.917928	0.689471	0.972583
	C6869	C	0.667893	0.751976	0.910065
	C6870	C	0.923622	0.704584	0.825381
	C6871	C	0.673510	0.642043	0.887920
	C6872	C	0.921289	0.639265	0.958470
	C6873	C	0.671356	0.701969	0.896776
	C6874	C	0.919884	0.755963	0.841573
	C6875	C	0.670125	0.693516	0.904307
	C6876	C	0.603047	0.703177	0.828663
	C6877	C	0.852599	0.640724	0.891041
	C6878	C	0.597730	0.688124	0.974940
	C6879	C	0.847085	0.750599	0.912589
	C6880	C	0.509234	0.751012	0.843581
	C6881	C	0.759314	0.688525	0.906033
	C6882	C	0.511860	0.643081	0.953378
	C6883	C	0.761706	0.705573	0.890935
	C6884	C	0.508062	0.685165	0.967127
	C6885	C	0.757679	0.747682	0.904623
	C6886	C	0.513442	0.707861	0.832801
	C6887	C	0.762948	0.645369	0.895273
	C6888	C	0.508695	0.742051	0.852043
	C6889	C	0.758813	0.679556	0.914482
	C6890	C	0.512679	0.652105	0.945149
	C6891	C	0.762748	0.714586	0.882681
	C6892	C	0.508228	0.677607	0.953046
	C6893	C	0.758138	0.740115	0.890567
	C6894	C	0.513259	0.716105	0.845312
	C6895	C	0.762690	0.653610	0.907766
	H6896	H	0.668796	0.750907	0.839495
	H6897	H	0.918422	0.688303	0.901456
	H6898	H	0.671032	0.641179	0.951860
	H6899	H	0.920451	0.703299	0.888021
	H6900	H	0.848507	0.687269	0.966542
	H6901	H	0.598553	0.749776	0.903967
	H6902	H	0.854090	0.708172	0.828462
	H6903	H	0.604029	0.645621	0.891020
	H6904	H	0.852250	0.642959	0.956574
	H6905	H	0.602583	0.705814	0.895392
	H6906	H	0.850044	0.753194	0.846050
	H6907	H	0.600522	0.690747	0.908867
	H6908	H	0.672386	0.705623	0.834394
	H6909	H	0.921936	0.643201	0.896709
	H6910	H	0.667212	0.684840	0.970809
	H6911	H	0.916633	0.747275	0.908612
	O6912	O	0.081816	0.843660	0.057487
	O6913	O	0.331684	0.781130	0.119908
	O6914	O	0.086030	0.760723	0.144202
	O6915	O	0.335656	0.823218	0.081647
	O6916	O	0.412029	0.780516	0.149356
	O6917	O	0.162026	0.842976	0.086930
	O6918	O	0.416862	0.825246	0.052003
	O6919	O	0.166607	0.762754	0.114473
	O6920	O	0.416552	0.761289	0.145577
	O6921	O	0.166320	0.823746	0.082955
	O6922	O	0.412319	0.844217	0.058878
	O6923	O	0.162376	0.781654	0.121237
	O6924	O	0.085412	0.824700	0.052828
	O6925	O	0.335718	0.762142	0.115454
	O6926	O	0.081083	0.779921	0.150411
	O6927	O	0.331295	0.842396	0.087993
	F6928	F	-0.000952	0.771689	0.121876
	F6929	F	0.249328	0.834234	0.059396
	F6930	F	-0.000996	0.833144	0.080994
	F6931	F	0.249050	0.770688	0.143505
	Al6932	Al	0.124048	0.771193	0.132720
	Al6933	Al	0.373996	0.833708	0.070225
	Al6934	Al	0.124069	0.833690	0.070177
	Al6935	Al	0.374114	0.771196	0.132680
	C6936	C	0.088255	0.860134	0.041036
	C6937	C	0.338251	0.797673	0.103690
	C6938	C	0.089313	0.743546	0.158344
	C6939	C	0.339341	0.806122	0.096146
	C6940	C	0.406828	0.796415	0.171354
	C6941	C	0.156377	0.858839	0.109026
	C6942	C	0.412197	0.811417	0.025168
	C6943	C	0.162101	0.749062	0.087306
	C6944	C	0.410036	0.744860	0.162218
	C6945	C	0.159707	0.807281	0.099461
	C6946	C	0.408605	0.861370	0.044579
	C6947	C	0.158636	0.798833	0.107012
	C6948	C	0.091371	0.810201	0.027294
	C6949	C	0.341516	0.747538	0.090147
	C6950	C	0.085732	0.795026	0.174585
	C6951	C	0.335949	0.857566	0.111966
	C6952	C	-0.002198	0.856447	0.046623
	C6953	C	0.247892	0.793966	0.109210
	C6954	C	0.000080	0.748498	0.156453
	C6955	C	0.250087	0.811001	0.094006
	C6956	C	-0.003856	0.791714	0.167244
	C6957	C	0.246272	0.854212	0.104756
	C6958	C	0.001433	0.814423	0.032869
	C6959	C	0.251587	0.751898	0.095397
	C6960	C	-0.002753	0.847442	0.054937
	C6961	C	0.247151	0.784930	0.117411
	C6962	C	0.001189	0.757480	0.148091
	C6963	C	0.250880	0.819976	0.085585
	C6964	C	-0.003617	0.783464	0.154761
	C6965	C	0.246581	0.845935	0.092310
	C6966	C	0.001055	0.821988	0.046936
	C6967	C	0.251294	0.759472	0.109446
	H6968	H	0.157298	0.856342	0.042516
	H6969	H	0.407148	0.793891	0.105228
	H6970	H	0.159022	0.746294	0.153777
	H6971	H	0.409021	0.808936	0.091792
	H6972	H	0.337543	0.793951	0.165623
	H6973	H	0.087137	0.856301	0.103394
	H6974	H	0.342630	0.814666	0.029335
	H6975	H	0.092560	0.752454	0.091182
	H6976	H	0.341305	0.748707	0.160810
	H6977	H	0.090716	0.811041	0.097849
	H6978	H	0.338903	0.858582	0.049018
	H6979	H	0.088862	0.796000	0.111268
	H6980	H	0.160798	0.812448	0.033247
	H6981	H	0.410741	0.749669	0.096386
	H6982	H	0.155229	0.791427	0.171511
	H6983	H	0.405307	0.853981	0.108766
	O6984	O	0.581539	0.843618	0.057346
	O6985	O	0.831151	0.781130	0.119879
	O6986	O	0.585782	0.760669	0.144001
	O6987	O	0.835523	0.823233	0.081760
	O6988	O	0.911776	0.780507	0.149408
	O6989	O	0.661620	0.843006	0.086876
	O6990	O	0.916305	0.825239	0.051970
	O6991	O	0.666802	0.762797	0.114359
	O6992	O	0.916799	0.761287	0.145563
	O6993	O	0.666302	0.823768	0.083031
	O6994	O	0.912525	0.844181	0.058835
	O6995	O	0.661839	0.781712	0.121368
	O6996	O	0.585927	0.824655	0.052948
	O6997	O	0.835823	0.762101	0.115491
	O6998	O	0.581252	0.779891	0.150501
	O6999	O	0.830889	0.842432	0.087946
	F7000	F	0.499135	0.771685	0.121857
	F7001	F	0.749095	0.834226	0.059426
	F7002	F	0.498899	0.833149	0.081011
	F7003	F	0.748832	0.770647	0.143439
	Al7004	Al	0.623992	0.771185	0.132679
	Al7005	Al	0.874029	0.833691	0.070253
	Al7006	Al	0.624063	0.833683	0.070203
	Al7007	Al	0.874119	0.771185	0.132654
	C7008	C	0.588327	0.860136	0.041028
	C7009	C	0.837859	0.797633	0.103645
	C7010	C	0.589765	0.743530	0.158307
	C7011	C	0.839108	0.806082	0.096116
	C7012	C	0.906324	0.796400	0.171401
	C7013	C	0.655977	0.858853	0.109044
	C7014	C	0.911815	0.811410	0.025122
	C7015	C	0.661970	0.749043	0.087352
	C7016	C	0.909625	0.744861	0.162188
	C7017	C	0.659591	0.807268	0.099382
	C7018	C	0.908634	0.861378	0.044653
	C7019	C	0.658326	0.798824	0.106917
	C7020	C	0.591506	0.810155	0.027323
	C7021	C	0.841599	0.747516	0.090094
	C7022	C	0.586079	0.795044	0.174581
	C7023	C	0.835407	0.857577	0.111970
	C7024	C	0.497855	0.856447	0.046621
	C7025	C	0.747424	0.793942	0.109103
	C7026	C	0.500506	0.748482	0.156479
	C7027	C	0.749991	0.810971	0.093946
	C7028	C	0.496483	0.791733	0.167247
	C7029	C	0.745777	0.854249	0.104698
	C7030	C	0.501880	0.814418	0.032895
	C7031	C	0.751788	0.751899	0.095359
	C7032	C	0.497084	0.847449	0.054928
	C7033	C	0.746613	0.784948	0.117438
	C7034	C	0.501031	0.757460	0.148037
	C7035	C	0.750750	0.819970	0.085610
	C7036	C	0.496602	0.783460	0.154776
	C7037	C	0.746129	0.845968	0.092258
	C7038	C	0.501573	0.821961	0.047000
	C7039	C	0.751464	0.759452	0.109457
	H7040	H	0.657387	0.856343	0.042505
	H7041	H	0.906567	0.793860	0.105267
	H7042	H	0.659345	0.746282	0.153687
	H7043	H	0.908742	0.808908	0.091823
	H7044	H	0.836915	0.793937	0.165679
	H7045	H	0.586603	0.856311	0.103459
	H7046	H	0.842096	0.814664	0.029255
	H7047	H	0.592369	0.752417	0.091290
	H7048	H	0.840671	0.748693	0.160811
	H7049	H	0.590734	0.811049	0.097808
	H7050	H	0.838986	0.858601	0.049135
	H7051	H	0.588533	0.796022	0.111225
	H7052	H	0.660976	0.812368	0.033302
	H7053	H	0.911048	0.749632	0.096316
	H7054	H	0.655452	0.791430	0.171497
	H7055	H	0.904643	0.853969	0.108803
	O7056	O	0.075807	0.838574	0.207014
	O7057	O	0.325501	0.776061	0.269488
	O7058	O	0.080020	0.756766	0.297335
	O7059	O	0.329873	0.819255	0.234748
	O7060	O	0.405578	0.777716	0.296157
	O7061	O	0.155433	0.840208	0.233713
	O7062	O	0.411215	0.819627	0.205835
	O7063	O	0.160758	0.757144	0.268294
	O7064	O	0.410762	0.757333	0.298597
	O7065	O	0.160520	0.819804	0.236026
	O7066	O	0.406348	0.839122	0.208220
	O7067	O	0.156112	0.776597	0.270709
	O7068	O	0.079962	0.819086	0.207053
	O7069	O	0.329764	0.756574	0.269568
	O7070	O	0.074939	0.777218	0.297578
	O7071	O	0.324942	0.839711	0.235082
	F7072	F	-0.006837	0.766388	0.272926
	F7073	F	0.243205	0.828935	0.210413
	F7074	F	-0.006789	0.829470	0.232770
	F7075	F	0.243117	0.766993	0.295224
	Al7076	Al	0.118186	0.766712	0.284160
	Al7077	Al	0.368002	0.829224	0.221598
	Al7078	Al	0.118145	0.829222	0.221684
	Al7079	Al	0.368086	0.766717	0.284134
	C7080	C	0.082336	0.855517	0.191659
	C7081	C	0.332484	0.792978	0.254117
	C7082	C	0.083406	0.739214	0.310101
	C7083	C	0.333659	0.801677	0.247592
	C7084	C	0.405463	0.796805	0.298626
	C7085	C	0.155065	0.859327	0.236322
	C7086	C	0.406815	0.804242	0.182560
	C7087	C	0.156592	0.741762	0.244937
	C7088	C	0.404106	0.740421	0.313961
	C7089	C	0.153602	0.802853	0.251239
	C7090	C	0.402697	0.856656	0.195300
	C7091	C	0.152400	0.794141	0.257731
	C7092	C	0.085578	0.802865	0.185792
	C7093	C	0.335819	0.740313	0.248460
	C7094	C	0.084971	0.796166	0.302669
	C7095	C	0.335154	0.858624	0.240233
	C7096	C	-0.008140	0.851644	0.196900
	C7097	C	0.241804	0.789106	0.259259
	C7098	C	-0.005931	0.744275	0.308752
	C7099	C	0.244278	0.806721	0.246117
	C7100	C	-0.006693	0.791636	0.300297
	C7101	C	0.243297	0.854112	0.237962
	C7102	C	-0.004046	0.807586	0.189829
	C7103	C	0.246017	0.745055	0.252401
	C7104	C	-0.008671	0.842445	0.204614
	C7105	C	0.241010	0.779914	0.267026
	C7106	C	-0.004952	0.753478	0.301037
	C7107	C	0.244952	0.815922	0.238407
	C7108	C	-0.008943	0.781454	0.297818
	C7109	C	0.240910	0.843935	0.235464
	C7110	C	-0.004388	0.816036	0.201768
	C7111	C	0.245422	0.753512	0.264327
	H7112	H	0.151661	0.851647	0.192578
	H7113	H	0.401861	0.789124	0.255156
	H7114	H	0.153535	0.742094	0.305921
	H7115	H	0.403891	0.804576	0.243488
	H7116	H	0.334374	0.793404	0.296645
	H7117	H	0.083848	0.855946	0.234293
	H7118	H	0.337406	0.807848	0.185566
	H7119	H	0.087139	0.745419	0.247771
	H7120	H	0.334890	0.744293	0.313064
	H7121	H	0.084327	0.806708	0.250207
	H7122	H	0.332446	0.853752	0.199352
	H7123	H	0.082121	0.791236	0.261753
	H7124	H	0.154926	0.805348	0.191464
	H7125	H	0.405115	0.742779	0.254237
	H7126	H	0.153729	0.792234	0.303913
	H7127	H	0.403955	0.854682	0.241409
	O7128	O	0.575708	0.838524	0.206903
	O7129	O	0.825469	0.776025	0.269306
	O7130	O	0.580229	0.756776	0.297212
	O7131	O	0.829729	0.819229	0.234709
	O7132	O	0.905422	0.777726	0.296027
	O7133	O	0.655494	0.840223	0.233645
	O7134	O	0.910959	0.819675	0.205701
	O7135	O	0.661297	0.757199	0.268179
	O7136	O	0.910671	0.757399	0.298740
	O7137	O	0.660302	0.819822	0.236104
	O7138	O	0.906418	0.839132	0.208312
	O7139	O	0.656158	0.776640	0.270733
	O7140	O	0.580239	0.819090	0.207020
	O7141	O	0.830164	0.756511	0.269614
	O7142	O	0.575110	0.777170	0.297700
	O7143	O	0.824856	0.839699	0.235226
	F7144	F	0.493364	0.766438	0.272959
	F7145	F	0.743440	0.828938	0.210469
	F7146	F	0.492833	0.829501	0.232660
	F7147	F	0.743285	0.767021	0.295098
	Al7148	Al	0.618330	0.766752	0.284101
	Al7149	Al	0.868172	0.829233	0.221660
	Al7150	Al	0.618098	0.829228	0.221650
	Al7151	Al	0.868503	0.766720	0.284056
	C7152	C	0.582703	0.855517	0.191667
	C7153	C	0.832582	0.793009	0.254060
	C7154	C	0.583909	0.739203	0.310042
	C7155	C	0.833593	0.801709	0.247548
	C7156	C	0.904955	0.796832	0.298774
	C7157	C	0.655016	0.859312	0.236225
	C7158	C	0.906259	0.804238	0.182593
	C7159	C	0.656069	0.741777	0.244974
	C7160	C	0.903502	0.740411	0.313950
	C7161	C	0.653608	0.802896	0.251444
	C7162	C	0.902341	0.856690	0.195442
	C7163	C	0.652652	0.794183	0.257918
	C7164	C	0.586052	0.802878	0.185788
	C7165	C	0.835403	0.740299	0.248370
	C7166	C	0.585365	0.796130	0.302611
	C7167	C	0.834914	0.858638	0.240260
	C7168	C	0.492090	0.851613	0.196734
	C7169	C	0.741992	0.789132	0.259274
	C7170	C	0.494645	0.744273	0.308712
	C7171	C	0.744147	0.806747	0.246183
	C7172	C	0.493743	0.791605	0.300254
	C7173	C	0.743260	0.854105	0.237915
	C7174	C	0.496385	0.807579	0.189845
	C7175	C	0.745766	0.745042	0.252381
	C7176	C	0.491335	0.842410	0.204505
	C7177	C	0.741088	0.779917	0.266961
	C7178	C	0.495314	0.753460	0.300954
	C7179	C	0.744762	0.815932	0.238442
	C7180	C	0.491220	0.781418	0.297903
	C7181	C	0.740970	0.843935	0.235463
	C7182	C	0.495945	0.816016	0.201809
	C7183	C	0.745766	0.753505	0.264292
	H7184	H	0.652057	0.851670	0.192721
	H7185	H	0.901893	0.789147	0.255000
	H7186	H	0.654000	0.742087	0.305851
	H7187	H	0.903672	0.804602	0.243359
	H7188	H	0.833776	0.793438	0.296799
	H7189	H	0.583855	0.855921	0.234185
	H7190	H	0.836812	0.807854	0.185612
	H7191	H	0.586671	0.745445	0.247871
	H7192	H	0.834251	0.744278	0.312996
	H7193	H	0.584389	0.806769	0.250538
	H7194	H	0.832018	0.853786	0.199478
	H7195	H	0.582515	0.791288	0.262012
	H7196	H	0.655390	0.805359	0.191471
	H7197	H	0.904726	0.742759	0.254112
	H7198	H	0.654096	0.792199	0.303919
	H7199	H	0.903675	0.854710	0.241516
	O7200	O	0.082500	0.845073	0.300974
	O7201	O	0.332827	0.782586	0.363498
	O7202	O	0.086171	0.764083	0.393567
	O7203	O	0.336873	0.826537	0.330961
	O7204	O	0.412619	0.784965	0.389635
	O7205	O	0.162697	0.847480	0.326965
	O7206	O	0.418165	0.825214	0.304565
	O7207	O	0.168026	0.762717	0.367098
	O7208	O	0.417035	0.764599	0.394780
	O7209	O	0.167536	0.827072	0.332169
	O7210	O	0.413246	0.845563	0.301905
	O7211	O	0.163490	0.783070	0.364481
	O7212	O	0.087433	0.824763	0.306172
	O7213	O	0.337347	0.762252	0.368740
	O7214	O	0.082240	0.784576	0.390925
	O7215	O	0.332021	0.847069	0.328429
	F7216	F	0.000364	0.772759	0.367855
	F7217	F	0.250170	0.835270	0.305372
	F7218	F	0.000154	0.836965	0.327919
	F7219	F	0.249650	0.774446	0.390382
	Al7220	Al	0.124982	0.773624	0.379142
	Al7221	Al	0.375019	0.836112	0.316571
	Al7222	Al	0.125212	0.836108	0.316638
	Al7223	Al	0.374811	0.773616	0.379235
	C7224	C	0.089225	0.862366	0.286448
	C7225	C	0.339765	0.799830	0.348848
	C7226	C	0.090208	0.746274	0.405762
	C7227	C	0.340756	0.808713	0.343131
	C7228	C	0.410627	0.804115	0.390925
	C7229	C	0.161036	0.866585	0.328405
	C7230	C	0.408499	0.806295	0.299454
	C7231	C	0.158260	0.743791	0.362083
	C7232	C	0.410201	0.747204	0.408821
	C7233	C	0.160635	0.809667	0.346132
	C7234	C	0.409285	0.863281	0.289318
	C7235	C	0.159611	0.800780	0.351836
	C7236	C	0.088239	0.805657	0.303523
	C7237	C	0.338191	0.743115	0.366132
	C7238	C	0.091198	0.803567	0.394216
	C7239	C	0.341404	0.866074	0.331834
	C7240	C	-0.001404	0.858253	0.290948
	C7241	C	0.249109	0.795727	0.353332
	C7242	C	0.000700	0.751326	0.404358
	C7243	C	0.251293	0.813786	0.341726
	C7244	C	-0.000348	0.798964	0.392511
	C7245	C	0.249757	0.861461	0.330145
	C7246	C	-0.000128	0.810848	0.301965
	C7247	C	0.249883	0.748309	0.364484
	C7248	C	-0.001892	0.848958	0.298462
	C7249	C	0.248404	0.786441	0.360894
	C7250	C	0.001286	0.760681	0.397040
	C7251	C	0.251940	0.823150	0.334485
	C7252	C	-0.001986	0.788757	0.390931
	C7253	C	0.247906	0.851264	0.328462
	C7254	C	0.002132	0.821032	0.304373
	C7255	C	0.252083	0.758502	0.366869
	H7256	H	0.159014	0.858554	0.287381
	H7257	H	0.409428	0.796014	0.349816
	H7258	H	0.160878	0.749320	0.402324
	H7259	H	0.411332	0.811767	0.339679
	H7260	H	0.339493	0.800655	0.389523
	H7261	H	0.089889	0.863125	0.326981
	H7262	H	0.339840	0.810226	0.298175
	H7263	H	0.089675	0.747738	0.360768
	H7264	H	0.340477	0.751021	0.407935
	H7265	H	0.090767	0.813476	0.345191
	H7266	H	0.338557	0.860226	0.292708
	H7267	H	0.088801	0.797742	0.355261
	H7268	H	0.159382	0.809057	0.305457
	H7269	H	0.409156	0.746540	0.368120
	H7270	H	0.160324	0.799700	0.395598
	H7271	H	0.410452	0.862196	0.333202
	O7272	O	0.582612	0.845045	0.300837
	O7273	O	0.832451	0.782582	0.363410
	O7274	O	0.586402	0.764113	0.393674
	O7275	O	0.836262	0.826559	0.331120
	O7276	O	0.912752	0.784951	0.389531
	O7277	O	0.662099	0.847510	0.326973
	O7278	O	0.918074	0.825268	0.304574
	O7279	O	0.667499	0.762700	0.367206
	O7280	O	0.916792	0.764600	0.394721
	O7281	O	0.666947	0.827093	0.332239
	O7282	O	0.913096	0.845596	0.302034
	O7283	O	0.663121	0.783021	0.364320
	O7284	O	0.587521	0.824753	0.306155
	O7285	O	0.836828	0.762231	0.368618
	O7286	O	0.582114	0.784623	0.390823
	O7287	O	0.831454	0.847083	0.328567
	F7288	F	0.499875	0.772771	0.367968
	F7289	F	0.750254	0.835280	0.305499
	F7290	F	0.499615	0.836966	0.327802
	F7291	F	0.749696	0.774482	0.390269
	Al7292	Al	0.624909	0.773625	0.379111
	Al7293	Al	0.875348	0.836143	0.316703
	Al7294	Al	0.624930	0.836103	0.316619
	Al7295	Al	0.875260	0.773606	0.379078
	C7296	C	0.589479	0.862354	0.286385
	C7297	C	0.839145	0.799839	0.348807
	C7298	C	0.590364	0.746273	0.405747
	C7299	C	0.840072	0.808742	0.343199
	C7300	C	0.910780	0.804089	0.390773
	C7301	C	0.660517	0.866600	0.328448
	C7302	C	0.908191	0.806323	0.299641
	C7303	C	0.657863	0.743780	0.362029
	C7304	C	0.909964	0.747205	0.408832
	C7305	C	0.659915	0.809688	0.346276
	C7306	C	0.909028	0.863307	0.289462
	C7307	C	0.658984	0.800779	0.351872
	C7308	C	0.588400	0.805617	0.303432
	C7309	C	0.837859	0.743106	0.366025
	C7310	C	0.590971	0.803593	0.394418
	C7311	C	0.840975	0.866071	0.331794
	C7312	C	0.498797	0.858226	0.290804
	C7313	C	0.748527	0.795736	0.353342
	C7314	C	0.500899	0.751329	0.404385
	C7315	C	0.750551	0.813809	0.341846
	C7316	C	0.499385	0.798988	0.392665
	C7317	C	0.749308	0.861472	0.330150
	C7318	C	0.500058	0.810820	0.301853
	C7319	C	0.749486	0.748299	0.364451
	C7320	C	0.498191	0.848922	0.298291
	C7321	C	0.747948	0.786432	0.360841
	C7322	C	0.501503	0.760692	0.397114
	C7323	C	0.751290	0.823171	0.334602
	C7324	C	0.497756	0.788781	0.390974
	C7325	C	0.747377	0.851280	0.328503
	C7326	C	0.502233	0.821005	0.304320
	C7327	C	0.751537	0.758486	0.366887
	H7328	H	0.659308	0.858546	0.287360
	H7329	H	0.908881	0.796011	0.349676
	H7330	H	0.661023	0.749320	0.402300
	H7331	H	0.910682	0.811802	0.339751
	H7332	H	0.839653	0.800617	0.389399
	H7333	H	0.589280	0.863143	0.327081
	H7334	H	0.839500	0.810263	0.298430
	H7335	H	0.589205	0.747720	0.360745
	H7336	H	0.840245	0.751020	0.407912
	H7337	H	0.590134	0.813507	0.345409
	H7338	H	0.838261	0.860256	0.292846
	H7339	H	0.588379	0.797719	0.355263
	H7340	H	0.659400	0.809026	0.305397
	H7341	H	0.908874	0.746527	0.367978
	H7342	H	0.660022	0.799716	0.395834
	H7343	H	0.910157	0.862203	0.333119
	O7344	O	0.087349	0.852528	0.390595
	O7345	O	0.337315	0.790086	0.453233
	O7346	O	0.091146	0.771572	0.483385
	O7347	O	0.341455	0.834053	0.420848
	O7348	O	0.417427	0.792380	0.479143
	O7349	O	0.167436	0.854915	0.416507
	O7350	O	0.422864	0.832602	0.394296
	O7351	O	0.172633	0.770080	0.456896
	O7352	O	0.421899	0.772025	0.484380
	O7353	O	0.172038	0.834528	0.421839
	O7354	O	0.417786	0.852984	0.391482
	O7355	O	0.167894	0.790485	0.453995
	O7356	O	0.092103	0.832163	0.395883
	O7357	O	0.342011	0.769673	0.458379
	O7358	O	0.086734	0.791986	0.480520
	O7359	O	0.336798	0.854475	0.418003
	F7360	F	0.004966	0.780144	0.457480
	F7361	F	0.254938	0.842658	0.394971
	F7362	F	0.004882	0.844418	0.417500
	F7363	F	0.254242	0.781901	0.479959
	Al7364	Al	0.129587	0.781028	0.468703
	Al7365	Al	0.379791	0.843524	0.406198
	Al7366	Al	0.129953	0.843536	0.406198
	Al7367	Al	0.379592	0.781031	0.468765
	C7368	C	0.094160	0.869874	0.376379
	C7369	C	0.344090	0.807375	0.438826
	C7370	C	0.095118	0.753821	0.495884
	C7371	C	0.345218	0.816279	0.433193
	C7372	C	0.415554	0.811491	0.480609
	C7373	C	0.165860	0.873986	0.418116
	C7374	C	0.413439	0.813599	0.390890
	C7375	C	0.163284	0.751064	0.453473
	C7376	C	0.415089	0.754665	0.498539
	C7377	C	0.164969	0.817204	0.436066
	C7378	C	0.413902	0.870767	0.379175
	C7379	C	0.163880	0.808306	0.441688
	C7380	C	0.093807	0.813051	0.394211
	C7381	C	0.343567	0.750550	0.456852
	C7382	C	0.096072	0.810992	0.484014
	C7383	C	0.346278	0.873490	0.421476
	C7384	C	0.003452	0.865724	0.380691
	C7385	C	0.253334	0.803248	0.443169
	C7386	C	0.005572	0.758850	0.494327
	C7387	C	0.255758	0.821327	0.431702
	C7388	C	0.004422	0.806393	0.482312
	C7389	C	0.254690	0.868862	0.419788
	C7390	C	0.004957	0.818166	0.392560
	C7391	C	0.254804	0.755670	0.455170
	C7392	C	0.002805	0.856380	0.388073
	C7393	C	0.252768	0.793924	0.450616
	C7394	C	0.006251	0.768178	0.486891
	C7395	C	0.256518	0.830652	0.424312
	C7396	C	0.002628	0.796176	0.480653
	C7397	C	0.252710	0.858676	0.418064
	C7398	C	0.006870	0.828379	0.394338
	C7399	C	0.256740	0.765888	0.456857
	H7400	H	0.163953	0.866069	0.377371
	H7401	H	0.413883	0.803566	0.439823
	H7402	H	0.165870	0.756897	0.492587
	H7403	H	0.415923	0.819350	0.429879
	H7404	H	0.344411	0.808025	0.479234
	H7405	H	0.094576	0.870533	0.416756
	H7406	H	0.344552	0.817485	0.389447
	H7407	H	0.094237	0.754933	0.452076
	H7408	H	0.345232	0.758452	0.497528
	H7409	H	0.095213	0.821013	0.435104
	H7410	H	0.343196	0.867693	0.382476
	H7411	H	0.093123	0.805247	0.445040
	H7412	H	0.164979	0.816518	0.395578
	H7413	H	0.414688	0.754018	0.458179
	H7414	H	0.165146	0.807117	0.485446
	H7415	H	0.415433	0.869624	0.422820
	O7416	O	0.587211	0.852518	0.390569
	O7417	O	0.837131	0.790093	0.453163
	O7418	O	0.591307	0.771565	0.483440
	O7419	O	0.841197	0.834046	0.420901
	O7420	O	0.917267	0.792376	0.479210
	O7421	O	0.667167	0.854908	0.416621
	O7422	O	0.922729	0.832584	0.394386
	O7423	O	0.672300	0.770052	0.456911
	O7424	O	0.921752	0.772063	0.484424
	O7425	O	0.671768	0.834532	0.421830
	O7426	O	0.917935	0.852973	0.391513
	O7427	O	0.667654	0.790470	0.453953
	O7428	O	0.592261	0.832176	0.395822
	O7429	O	0.841751	0.769637	0.458293
	O7430	O	0.586827	0.791977	0.480494
	O7431	O	0.836671	0.854520	0.418018
	F7432	F	0.504677	0.780142	0.457521
	F7433	F	0.755204	0.842670	0.395056
	F7434	F	0.504542	0.844394	0.417408
	F7435	F	0.754465	0.781893	0.479870
	Al7436	Al	0.629583	0.781016	0.468683
	Al7437	Al	0.880257	0.843543	0.406292
	Al7438	Al	0.629861	0.843532	0.406200
	Al7439	Al	0.879960	0.781030	0.468707
	C7440	C	0.594205	0.869851	0.376327
	C7441	C	0.843936	0.807388	0.438915
	C7442	C	0.595397	0.753800	0.495843
	C7443	C	0.844961	0.816289	0.433282
	C7444	C	0.915528	0.811519	0.480647
	C7445	C	0.665396	0.874011	0.418094
	C7446	C	0.913363	0.813567	0.390772
	C7447	C	0.663023	0.751063	0.453373
	C7448	C	0.914736	0.754692	0.498596
	C7449	C	0.664668	0.817184	0.436041
	C7450	C	0.913894	0.870778	0.379167
	C7451	C	0.663635	0.808285	0.441656
	C7452	C	0.593794	0.813073	0.394387
	C7453	C	0.843453	0.750545	0.456773
	C7454	C	0.595977	0.810985	0.484085
	C7455	C	0.845761	0.873479	0.421537
	C7456	C	0.503397	0.865705	0.380650
	C7457	C	0.753101	0.803241	0.443174
	C7458	C	0.505820	0.758815	0.494248
	C7459	C	0.755459	0.821327	0.431751
	C7460	C	0.504423	0.806372	0.482305
	C7461	C	0.754142	0.868882	0.419846
	C7462	C	0.505081	0.818190	0.392651
	C7463	C	0.754615	0.755657	0.455068
	C7464	C	0.502728	0.856379	0.388014
	C7465	C	0.752469	0.793911	0.450555
	C7466	C	0.506377	0.768148	0.486871
	C7467	C	0.756192	0.830660	0.424371
	C7468	C	0.502672	0.796167	0.480584
	C7469	C	0.752407	0.858689	0.418123
	C7470	C	0.506963	0.828401	0.394326
	C7471	C	0.756456	0.765860	0.456807
	H7472	H	0.663992	0.866040	0.377291
	H7473	H	0.913761	0.803588	0.439957
	H7474	H	0.666205	0.756885	0.492612
	H7475	H	0.915701	0.819358	0.429979
	H7476	H	0.844311	0.808052	0.479315
	H7477	H	0.594166	0.870556	0.416680
	H7478	H	0.844301	0.817443	0.389378
	H7479	H	0.593982	0.754936	0.451995
	H7480	H	0.844905	0.758484	0.497539
	H7481	H	0.594911	0.820980	0.435033
	H7482	H	0.843113	0.867704	0.382470
	H7483	H	0.592879	0.805207	0.444959
	H7484	H	0.664957	0.816536	0.395773
	H7485	H	0.914549	0.754008	0.458140
	H7486	H	0.665077	0.807115	0.485506
	H7487	H	0.914936	0.869614	0.422878
	O7488	O	0.092423	0.860007	0.480243
	O7489	O	0.342216	0.797505	0.542840
	O7490	O	0.095954	0.778988	0.572989
	O7491	O	0.345991	0.841489	0.510437
	O7492	O	0.422253	0.799786	0.568859
	O7493	O	0.172243	0.862297	0.506360
	O7494	O	0.427477	0.839998	0.483949
	O7495	O	0.177569	0.777467	0.546555
	O7496	O	0.426944	0.779474	0.574008
	O7497	O	0.176716	0.841986	0.511488
	O7498	O	0.423186	0.860494	0.481316
	O7499	O	0.172792	0.797970	0.543819
	O7500	O	0.096972	0.839600	0.485337
	O7501	O	0.346980	0.777075	0.547936
	O7502	O	0.091891	0.799361	0.570146
	O7503	O	0.341582	0.861847	0.507704
	F7504	F	0.009983	0.787589	0.547048
	F7505	F	0.259753	0.850120	0.484556
	F7506	F	0.009638	0.851798	0.507008
	F7507	F	0.259279	0.789277	0.569568
	Al7508	Al	0.134741	0.788419	0.558279
	Al7509	Al	0.384563	0.850950	0.495766
	Al7510	Al	0.134637	0.850969	0.495775
	Al7511	Al	0.384480	0.788455	0.558342
	C7512	C	0.099071	0.877405	0.466174
	C7513	C	0.348880	0.814880	0.528725
	C7514	C	0.099886	0.761285	0.585578
	C7515	C	0.349815	0.823768	0.523043
	C7516	C	0.421436	0.818924	0.571363
	C7517	C	0.170943	0.881438	0.508986
	C7518	C	0.418131	0.820977	0.480574
	C7519	C	0.168203	0.758488	0.543246
	C7520	C	0.419939	0.762194	0.588441
	C7521	C	0.169676	0.824677	0.525991
	C7522	C	0.419283	0.878319	0.469232
	C7523	C	0.168712	0.815789	0.531706
	C7524	C	0.098750	0.820477	0.483962
	C7525	C	0.348683	0.757946	0.546453
	C7526	C	0.101161	0.818284	0.575304
	C7527	C	0.351025	0.880776	0.512762
	C7528	C	0.008447	0.873245	0.470538
	C7529	C	0.258186	0.810743	0.533121
	C7530	C	0.010279	0.766305	0.584028
	C7531	C	0.260382	0.828808	0.521551
	C7532	C	0.009605	0.813742	0.572928
	C7533	C	0.259442	0.876234	0.510420
	C7534	C	0.009899	0.825591	0.482230
	C7535	C	0.259883	0.763074	0.544824
	C7536	C	0.007949	0.863884	0.477815
	C7537	C	0.257700	0.801396	0.540420
	C7538	C	0.010969	0.775623	0.576561
	C7539	C	0.261118	0.838109	0.514015
	C7540	C	0.007766	0.803551	0.570556
	C7541	C	0.257509	0.866054	0.508037
	C7542	C	0.011803	0.835809	0.483828
	C7543	C	0.261731	0.773282	0.546486
	H7544	H	0.168878	0.873602	0.467113
	H7545	H	0.418632	0.811065	0.529717
	H7546	H	0.170612	0.764355	0.582259
	H7547	H	0.420553	0.826822	0.519632
	H7548	H	0.350392	0.815508	0.569446
	H7549	H	0.099661	0.878040	0.507183
	H7550	H	0.349140	0.824853	0.479144
	H7551	H	0.099065	0.762353	0.541958
	H7552	H	0.350307	0.766012	0.587454
	H7553	H	0.099831	0.828483	0.525003
	H7554	H	0.348625	0.875264	0.472666
	H7555	H	0.098059	0.812737	0.535127
	H7556	H	0.169915	0.823942	0.485331
	H7557	H	0.419910	0.761398	0.547759
	H7558	H	0.169894	0.814353	0.576589
	H7559	H	0.419820	0.876848	0.514003
	O7560	O	0.592565	0.859987	0.480262
	O7561	O	0.841846	0.797529	0.542819
	O7562	O	0.596350	0.778967	0.572902
	O7563	O	0.845795	0.841454	0.510439
	O7564	O	0.922401	0.799768	0.568883
	O7565	O	0.672134	0.862291	0.506323
	O7566	O	0.927563	0.840008	0.483837
	O7567	O	0.677531	0.777477	0.546464
	O7568	O	0.926593	0.779536	0.574116
	O7569	O	0.676449	0.842001	0.511542
	O7570	O	0.923045	0.860454	0.481266
	O7571	O	0.672416	0.797969	0.543778
	O7572	O	0.596929	0.839575	0.485470
	O7573	O	0.847025	0.777060	0.547908
	O7574	O	0.591636	0.799335	0.570233
	O7575	O	0.841489	0.861865	0.507779
	F7576	F	0.509599	0.787596	0.547093
	F7577	F	0.759884	0.850089	0.484631
	F7578	F	0.509351	0.851799	0.506991
	F7579	F	0.759408	0.789298	0.569481
	Al7580	Al	0.634511	0.788430	0.558257
	Al7581	Al	0.884975	0.850951	0.495804
	Al7582	Al	0.634606	0.850960	0.495793
	Al7583	Al	0.884945	0.788458	0.558306
	C7584	C	0.599418	0.877398	0.466203
	C7585	C	0.848542	0.814871	0.528691
	C7586	C	0.600190	0.761267	0.585526
	C7587	C	0.849548	0.823757	0.523023
	C7588	C	0.921181	0.818939	0.571409
	C7589	C	0.670771	0.881433	0.509014
	C7590	C	0.918203	0.821001	0.480581
	C7591	C	0.667997	0.758499	0.543174
	C7592	C	0.919516	0.762179	0.588470
	C7593	C	0.669364	0.824709	0.526054
	C7594	C	0.918891	0.878312	0.469166
	C7595	C	0.668342	0.815813	0.531730
	C7596	C	0.598563	0.820473	0.484063
	C7597	C	0.848467	0.757965	0.546484
	C7598	C	0.601432	0.818247	0.575287
	C7599	C	0.850873	0.880793	0.512687
	C7600	C	0.508838	0.873262	0.470643
	C7601	C	0.757843	0.810759	0.533139
	C7602	C	0.510676	0.766302	0.584008
	C7603	C	0.760019	0.828812	0.521582
	C7604	C	0.509750	0.813715	0.572933
	C7605	C	0.759258	0.876244	0.510435
	C7606	C	0.509731	0.825579	0.482316
	C7607	C	0.759712	0.763085	0.544786
	C7608	C	0.508186	0.863902	0.477901
	C7609	C	0.757291	0.801404	0.540401
	C7610	C	0.511421	0.775600	0.576496
	C7611	C	0.760771	0.838108	0.514057
	C7612	C	0.507570	0.803538	0.570559
	C7613	C	0.757321	0.866059	0.508051
	C7614	C	0.511596	0.835795	0.483983
	C7615	C	0.761716	0.773287	0.546434
	H7616	H	0.669268	0.873593	0.467114
	H7617	H	0.918300	0.811049	0.529621
	H7618	H	0.670913	0.764326	0.582163
	H7619	H	0.920293	0.826815	0.519576
	H7620	H	0.850081	0.815523	0.569520
	H7621	H	0.599519	0.878028	0.507217
	H7622	H	0.849098	0.824875	0.479201
	H7623	H	0.598983	0.762380	0.541809
	H7624	H	0.849768	0.765992	0.587521
	H7625	H	0.599594	0.828522	0.525125
	H7626	H	0.848251	0.875257	0.472609
	H7627	H	0.597693	0.812766	0.535162
	H7628	H	0.669655	0.823940	0.485457
	H7629	H	0.919658	0.761418	0.547812
	H7630	H	0.670149	0.814308	0.576559
	H7631	H	0.919776	0.876880	0.513860
	O7632	O	0.099203	0.867242	0.576432
	O7633	O	0.349286	0.804745	0.639037
	O7634	O	0.103231	0.785411	0.666732
	O7635	O	0.353238	0.847914	0.604152
	O7636	O	0.429443	0.805473	0.668084
	O7637	O	0.179431	0.867978	0.605484
	O7638	O	0.434691	0.847354	0.577370
	O7639	O	0.184682	0.784884	0.639845
	O7640	O	0.434098	0.786005	0.668158
	O7641	O	0.183904	0.848498	0.605515
	O7642	O	0.430006	0.867738	0.577613
	O7643	O	0.179933	0.805281	0.640275
	O7644	O	0.103973	0.846866	0.578812
	O7645	O	0.354171	0.784365	0.641397
	O7646	O	0.098180	0.804948	0.669144
	O7647	O	0.348481	0.867430	0.606582
	F7648	F	0.017065	0.795091	0.642302
	F7649	F	0.266594	0.857591	0.579791
	F7650	F	0.016174	0.858127	0.602033
	F7651	F	0.266333	0.795620	0.664656
	Al7652	Al	0.141631	0.795336	0.653393
	Al7653	Al	0.391565	0.857833	0.590788
	Al7654	Al	0.141517	0.857853	0.590836
	Al7655	Al	0.391498	0.795357	0.653480
	C7656	C	0.105734	0.884199	0.561168
	C7657	C	0.355914	0.821662	0.623637
	C7658	C	0.106657	0.767874	0.679610
	C7659	C	0.356921	0.830362	0.617110
	C7660	C	0.423788	0.821703	0.689265
	C7661	C	0.173946	0.884201	0.626680
	C7662	C	0.424568	0.828420	0.572186
	C7663	C	0.174537	0.765964	0.634708
	C7664	C	0.427211	0.769002	0.683299
	C7665	C	0.176829	0.831502	0.620675
	C7666	C	0.426102	0.885288	0.564712
	C7667	C	0.175804	0.822799	0.627226
	C7668	C	0.104235	0.827775	0.576128
	C7669	C	0.354577	0.765269	0.638681
	C7670	C	0.103110	0.820433	0.692253
	C7671	C	0.353032	0.882861	0.629845
	C7672	C	0.015189	0.880303	0.566295
	C7673	C	0.265307	0.817775	0.628761
	C7674	C	0.017266	0.772922	0.678186
	C7675	C	0.267465	0.835399	0.615577
	C7676	C	0.013460	0.817032	0.685119
	C7677	C	0.263537	0.879520	0.622585
	C7678	C	0.015941	0.832964	0.574526
	C7679	C	0.266267	0.770470	0.637096
	C7680	C	0.014722	0.871115	0.574052
	C7681	C	0.264829	0.808615	0.636628
	C7682	C	0.018168	0.782125	0.670446
	C7683	C	0.268294	0.844599	0.607844
	C7684	C	0.013616	0.808566	0.673213
	C7685	C	0.263856	0.871043	0.610659
	C7686	C	0.018519	0.843147	0.576965
	C7687	C	0.268679	0.780651	0.639571
	H7688	H	0.175181	0.880366	0.562186
	H7689	H	0.425390	0.817829	0.624707
	H7690	H	0.176908	0.770773	0.675561
	H7691	H	0.427259	0.833264	0.613089
	H7692	H	0.354460	0.819176	0.683671
	H7693	H	0.104694	0.881690	0.621030
	H7694	H	0.356003	0.832375	0.570929
	H7695	H	0.105875	0.769910	0.633441
	H7696	H	0.357909	0.772856	0.682296
	H7697	H	0.107440	0.835340	0.619588
	H7698	H	0.355945	0.882371	0.568764
	H7699	H	0.105704	0.819889	0.631314
	H7700	H	0.175275	0.831182	0.578083
	H7701	H	0.425728	0.768668	0.640672
	H7702	H	0.172624	0.816866	0.689140
	H7703	H	0.422325	0.879248	0.626835
	O7704	O	0.599319	0.867211	0.576415
	O7705	O	0.848776	0.804747	0.638936
	O7706	O	0.603378	0.785410	0.666714
	O7707	O	0.853183	0.847861	0.604162
	O7708	O	0.929164	0.805502	0.668052
	O7709	O	0.679310	0.867986	0.605463
	O7710	O	0.934484	0.847398	0.577214
	O7711	O	0.684022	0.784903	0.639795
	O7712	O	0.933820	0.786010	0.668073
	O7713	O	0.683829	0.848497	0.605569
	O7714	O	0.929733	0.867785	0.577760
	O7715	O	0.679409	0.805281	0.640285
	O7716	O	0.604195	0.846839	0.578841
	O7717	O	0.853474	0.784352	0.641288
	O7718	O	0.598438	0.804951	0.669222
	O7719	O	0.848349	0.867399	0.606754
	F7720	F	0.516486	0.795088	0.642422
	F7721	F	0.766866	0.857559	0.579891
	F7722	F	0.516203	0.858136	0.602058
	F7723	F	0.766268	0.795643	0.664559
	Al7724	Al	0.641463	0.795348	0.653421
	Al7725	Al	0.891880	0.857834	0.590910
	Al7726	Al	0.641658	0.857827	0.590889
	Al7727	Al	0.891613	0.795356	0.653372
	C7728	C	0.606068	0.884164	0.561172
	C7729	C	0.855475	0.821629	0.623495
	C7730	C	0.607166	0.767825	0.679532
	C7731	C	0.856603	0.830330	0.616995
	C7732	C	0.923845	0.821714	0.689246
	C7733	C	0.673716	0.884221	0.626627
	C7734	C	0.924273	0.828436	0.572211
	C7735	C	0.673857	0.765943	0.634658
	C7736	C	0.926638	0.769040	0.683351
	C7737	C	0.676668	0.831523	0.620806
	C7738	C	0.925656	0.885330	0.564790
	C7739	C	0.675553	0.822825	0.627352
	C7740	C	0.604555	0.827741	0.576115
	C7741	C	0.853881	0.765270	0.638599
	C7742	C	0.602985	0.820423	0.692327
	C7743	C	0.852979	0.882891	0.629785
	C7744	C	0.515463	0.880261	0.566261
	C7745	C	0.764850	0.817768	0.628703
	C7746	C	0.517761	0.772886	0.678134
	C7747	C	0.767224	0.835371	0.615546
	C7748	C	0.513419	0.817020	0.685140
	C7749	C	0.763383	0.879527	0.622579
	C7750	C	0.516257	0.832933	0.574575
	C7751	C	0.765553	0.770465	0.637016
	C7752	C	0.514876	0.871078	0.574005
	C7753	C	0.764215	0.808603	0.636546
	C7754	C	0.518498	0.782104	0.670458
	C7755	C	0.768125	0.844583	0.607873
	C7756	C	0.513753	0.808549	0.673278
	C7757	C	0.763679	0.871047	0.610691
	C7758	C	0.518672	0.843120	0.577066
	C7759	C	0.767876	0.780650	0.639495
	H7760	H	0.675512	0.880331	0.562225
	H7761	H	0.924772	0.817772	0.624496
	H7762	H	0.677465	0.770711	0.675448
	H7763	H	0.926975	0.833224	0.612953
	H7764	H	0.854451	0.819206	0.683632
	H7765	H	0.604533	0.881716	0.620938
	H7766	H	0.855584	0.832370	0.570956
	H7767	H	0.605186	0.769882	0.633394
	H7768	H	0.857316	0.772899	0.682361
	H7769	H	0.607467	0.835403	0.619887
	H7770	H	0.855388	0.882426	0.568867
	H7771	H	0.605635	0.819951	0.631597
	H7772	H	0.675692	0.831147	0.578083
	H7773	H	0.925026	0.768669	0.640554
	H7774	H	0.672477	0.816839	0.689271
	H7775	H	0.922397	0.879295	0.626738
	O7776	O	0.093391	0.863284	0.729513
	O7777	O	0.343508	0.800799	0.792143
	O7778	O	0.097415	0.780328	0.816176
	O7779	O	0.347514	0.842852	0.753734
	O7780	O	0.423836	0.799868	0.822229
	O7781	O	0.173951	0.862422	0.759667
	O7782	O	0.428316	0.844655	0.724645
	O7783	O	0.178493	0.782177	0.787010
	O7784	O	0.427852	0.780925	0.817765
	O7785	O	0.178205	0.843381	0.755089
	O7786	O	0.423944	0.863820	0.730967
	O7787	O	0.174295	0.801316	0.793321
	O7788	O	0.097103	0.844098	0.725708
	O7789	O	0.347653	0.781548	0.788227
	O7790	O	0.092777	0.799352	0.822971
	O7791	O	0.343010	0.861828	0.760605
	F7792	F	0.010637	0.791422	0.794083
	F7793	F	0.260775	0.853866	0.731634
	F7794	F	0.010596	0.852871	0.753280
	F7795	F	0.260088	0.790301	0.815671
	Al7796	Al	0.135515	0.790851	0.804816
	Al7797	Al	0.385700	0.853350	0.742397
	Al7798	Al	0.135733	0.853381	0.742421
	Al7799	Al	0.385475	0.790857	0.804948
	C7800	C	0.099365	0.879692	0.712899
	C7801	C	0.350305	0.817293	0.775709
	C7802	C	0.100872	0.763174	0.830484
	C7803	C	0.351432	0.825729	0.768113
	C7804	C	0.418313	0.814345	0.847835
	C7805	C	0.168153	0.877022	0.785031
	C7806	C	0.423687	0.829543	0.700473
	C7807	C	0.173792	0.767024	0.763048
	C7808	C	0.420974	0.764392	0.834005
	C7809	C	0.171661	0.826841	0.771244
	C7810	C	0.420166	0.880972	0.716653
	C7811	C	0.170533	0.818413	0.778833
	C7812	C	0.102864	0.828262	0.703462
	C7813	C	0.353257	0.765726	0.766016
	C7814	C	0.097338	0.813256	0.849757
	C7815	C	0.347556	0.875564	0.787704
	C7816	C	0.009071	0.876047	0.718604
	C7817	C	0.259934	0.813578	0.781164
	C7818	C	0.011582	0.768081	0.828393
	C7819	C	0.262164	0.830594	0.765929
	C7820	C	0.007801	0.810180	0.842111
	C7821	C	0.257965	0.872670	0.779687
	C7822	C	0.013122	0.832892	0.707743
	C7823	C	0.263550	0.770385	0.770222
	C7824	C	0.008777	0.867066	0.727025
	C7825	C	0.259100	0.804596	0.789555
	C7826	C	0.012573	0.777090	0.820096
	C7827	C	0.262789	0.839588	0.757593
	C7828	C	0.008091	0.802597	0.828050
	C7829	C	0.258354	0.865132	0.765585
	C7830	C	0.012666	0.841128	0.720292
	C7831	C	0.263163	0.778622	0.782746
	H7832	H	0.168164	0.875870	0.714299
	H7833	H	0.419275	0.813528	0.777372
	H7834	H	0.170666	0.765963	0.826088
	H7835	H	0.421089	0.828556	0.763792
	H7836	H	0.348920	0.812060	0.841954
	H7837	H	0.098583	0.874915	0.778873
	H7838	H	0.354309	0.833128	0.703592
	H7839	H	0.104439	0.770593	0.766301
	H7840	H	0.352002	0.768202	0.832571
	H7841	H	0.102657	0.830566	0.769523
	H7842	H	0.350590	0.878207	0.721213
	H7843	H	0.100698	0.815584	0.783071
	H7844	H	0.172212	0.830772	0.709091
	H7845	H	0.422410	0.768234	0.771718
	H7846	H	0.166850	0.810058	0.845521
	H7847	H	0.417402	0.872245	0.783776
	O7848	O	0.593183	0.863236	0.729480
	O7849	O	0.843240	0.800788	0.792121
	O7850	O	0.597111	0.780327	0.816197
	O7851	O	0.847560	0.842840	0.753836
	O7852	O	0.923762	0.799851	0.822211
	O7853	O	0.673613	0.862416	0.759649
	O7854	O	0.928013	0.844653	0.724604
	O7855	O	0.678258	0.782155	0.787006
	O7856	O	0.928268	0.780931	0.817708
	O7857	O	0.678233	0.843391	0.755110
	O7858	O	0.924158	0.863806	0.731002
	O7859	O	0.674087	0.801308	0.793403
	O7860	O	0.597498	0.844064	0.725693
	O7861	O	0.847479	0.781538	0.788179
	O7862	O	0.592901	0.799330	0.822974
	O7863	O	0.842645	0.861810	0.760604
	F7864	F	0.510617	0.791395	0.794118
	F7865	F	0.760853	0.853874	0.731652
	F7866	F	0.510574	0.852851	0.753239
	F7867	F	0.760248	0.790315	0.815658
	Al7868	Al	0.635489	0.790846	0.804838
	Al7869	Al	0.885808	0.853346	0.742477
	Al7870	Al	0.635640	0.853357	0.742406
	Al7871	Al	0.885630	0.790860	0.804878
	C7872	C	0.599538	0.879657	0.712763
	C7873	C	0.849934	0.817254	0.775664
	C7874	C	0.600731	0.763145	0.830443
	C7875	C	0.851072	0.825701	0.768105
	C7876	C	0.917893	0.814348	0.847823
	C7877	C	0.667963	0.877030	0.785000
	C7878	C	0.923626	0.829548	0.700457
	C7879	C	0.673652	0.767006	0.763029
	C7880	C	0.921067	0.764413	0.834018
	C7881	C	0.671607	0.826834	0.771228
	C7882	C	0.919899	0.880986	0.716653
	C7883	C	0.670491	0.818396	0.778780
	C7884	C	0.602906	0.828261	0.703533
	C7885	C	0.852932	0.765729	0.765965
	C7886	C	0.597806	0.813252	0.849713
	C7887	C	0.847316	0.875589	0.787606
	C7888	C	0.509362	0.876031	0.718567
	C7889	C	0.759594	0.813543	0.781103
	C7890	C	0.511472	0.768064	0.828403
	C7891	C	0.761978	0.830572	0.765889
	C7892	C	0.508188	0.810169	0.842139
	C7893	C	0.757756	0.872689	0.779632
	C7894	C	0.513171	0.832869	0.707814
	C7895	C	0.763312	0.770361	0.770231
	C7896	C	0.508689	0.867048	0.726976
	C7897	C	0.758764	0.804566	0.789528
	C7898	C	0.512346	0.777086	0.820139
	C7899	C	0.762707	0.839583	0.757639
	C7900	C	0.508304	0.802591	0.828074
	C7901	C	0.758006	0.865105	0.765591
	C7902	C	0.512935	0.841123	0.720299
	C7903	C	0.762989	0.778608	0.782719
	H7904	H	0.668376	0.875826	0.714112
	H7905	H	0.918772	0.813491	0.777303
	H7906	H	0.670556	0.765938	0.826042
	H7907	H	0.920766	0.828532	0.763833
	H7908	H	0.848557	0.812036	0.841986
	H7909	H	0.598465	0.874901	0.778866
	H7910	H	0.854215	0.833117	0.703584
	H7911	H	0.604317	0.770566	0.766238
	H7912	H	0.852104	0.768226	0.832552
	H7913	H	0.602763	0.830580	0.769550
	H7914	H	0.850256	0.878215	0.721177
	H7915	H	0.600722	0.815569	0.782997
	H7916	H	0.672266	0.830764	0.709154
	H7917	H	0.922159	0.768234	0.771580
	H7918	H	0.667345	0.810069	0.845393
	H7919	H	0.917072	0.872273	0.783654
	O7920	O	0.087574	0.853584	0.893866
	O7921	O	0.337438	0.791061	0.956421
	O7922	O	0.091621	0.770433	0.979978
	O7923	O	0.341222	0.832921	0.917392
	O7924	O	0.417908	0.789882	0.986494
	O7925	O	0.167785	0.852369	0.923936
	O7926	O	0.422523	0.835197	0.887796
	O7927	O	0.172674	0.772751	0.950286
	O7928	O	0.422264	0.770970	0.981293
	O7929	O	0.171910	0.833430	0.918637
	O7930	O	0.418194	0.854090	0.895212
	O7931	O	0.168176	0.791562	0.957676
	O7932	O	0.091325	0.834689	0.888607
	O7933	O	0.341766	0.772173	0.951203
	O7934	O	0.086933	0.789320	0.987299
	O7935	O	0.337086	0.851817	0.924731
	F7936	F	0.004949	0.781654	0.958061
	F7937	F	0.254896	0.844177	0.895563
	F7938	F	0.004622	0.842856	0.917026
	F7939	F	0.254567	0.780359	0.979557
	Al7940	Al	0.129840	0.781011	0.968835
	Al7941	Al	0.379745	0.843508	0.906283
	Al7942	Al	0.129741	0.843512	0.906272
	Al7943	Al	0.379756	0.781014	0.968870
	C7944	C	0.094228	0.869950	0.877151
	C7945	C	0.344142	0.807493	0.939905
	C7946	C	0.095213	0.753354	0.994512
	C7947	C	0.345257	0.815886	0.932176
	C7948	C	0.412311	0.804358	1.012094
	C7949	C	0.162193	0.866860	0.949529
	C7950	C	0.418060	0.821397	0.860906
	C7951	C	0.168221	0.759065	0.923121
	C7952	C	0.415540	0.754548	0.997829
	C7953	C	0.165447	0.816997	0.935182
	C7954	C	0.414248	0.871194	0.880672
	C7955	C	0.164336	0.808601	0.942914
	C7956	C	0.097030	0.820322	0.862814
	C7957	C	0.347457	0.757666	0.925599
	C7958	C	0.091567	0.803127	1.014261
	C7959	C	0.341499	0.865576	0.951806
	C7960	C	0.003711	0.866310	0.882804
	C7961	C	0.253682	0.803783	0.945317
	C7962	C	0.005893	0.758223	0.992289
	C7963	C	0.255903	0.820708	0.929765
	C7964	C	0.001922	0.800104	1.006531
	C7965	C	0.251935	0.862617	0.944030
	C7966	C	0.007185	0.824472	0.868525
	C7967	C	0.257719	0.761987	0.931034
	C7968	C	0.002945	0.857345	0.891248
	C7969	C	0.252887	0.794823	0.953794
	C7970	C	0.006876	0.767192	0.983894
	C7971	C	0.256485	0.829657	0.921253
	C7972	C	0.002258	0.792559	0.992386
	C7973	C	0.252328	0.855069	0.929833
	C7974	C	0.006851	0.831997	0.882691
	C7975	C	0.257398	0.769496	0.945213
	H7976	H	0.163348	0.866167	0.878729
	H7977	H	0.413088	0.803755	0.941696
	H7978	H	0.164915	0.756149	0.990124
	H7979	H	0.415032	0.818709	0.927898
	H7980	H	0.342917	0.802141	1.006100
	H7981	H	0.093119	0.864616	0.943457
	H7982	H	0.348473	0.824588	0.865185
	H7983	H	0.098554	0.762361	0.927129
	H7984	H	0.346561	0.758294	0.996164
	H7985	H	0.096424	0.820718	0.933391
	H7986	H	0.344470	0.868429	0.885167
	H7987	H	0.094581	0.805774	0.947173
	H7988	H	0.166304	0.822609	0.868703
	H7989	H	0.416882	0.759819	0.931697
	H7990	H	0.161140	0.799888	1.010072
	H7991	H	0.410835	0.862279	0.947628
	O7992	O	0.587496	0.853540	0.893787
	O7993	O	0.837494	0.791048	0.956374
	O7994	O	0.591526	0.770443	0.979925
	O7995	O	0.841342	0.832940	0.917428
	O7996	O	0.917868	0.789852	0.986448
	O7997	O	0.667619	0.852381	0.923881
	O7998	O	0.922304	0.835232	0.887816
	O7999	O	0.672193	0.772769	0.950260
	O8000	O	0.922399	0.770973	0.981295
	O8001	O	0.672109	0.833439	0.918684
	O8002	O	0.918246	0.854080	0.895115
	O8003	O	0.668175	0.791581	0.957684
	O8004	O	0.591652	0.834675	0.888642
	O8005	O	0.841228	0.772152	0.951173
	O8006	O	0.587078	0.789295	0.987357
	O8007	O	0.836794	0.851824	0.924784
	F8008	F	0.504922	0.781697	0.958153
	F8009	F	0.754988	0.844180	0.895603
	F8010	F	0.504594	0.842825	0.917019
	F8011	F	0.754846	0.780330	0.979524
	Al8012	Al	0.629836	0.781018	0.968845
	Al8013	Al	0.879802	0.843515	0.906319
	Al8014	Al	0.629747	0.843516	0.906275
	Al8015	Al	0.879961	0.781011	0.968798
	C8016	C	0.593948	0.869924	0.877066
	C8017	C	0.843891	0.807484	0.939864
	C8018	C	0.595257	0.753364	0.994510
	C8019	C	0.845111	0.815882	0.932156
	C8020	C	0.912050	0.804339	1.012086
	C8021	C	0.661953	0.866865	0.949480
	C8022	C	0.917588	0.821407	0.860879
	C8023	C	0.667527	0.759050	0.923104
	C8024	C	0.915475	0.754559	0.997859
	C8025	C	0.665254	0.817005	0.935181
	C8026	C	0.914307	0.871197	0.880609
	C8027	C	0.664022	0.808603	0.942900
	C8028	C	0.597532	0.820304	0.862781
	C8029	C	0.846744	0.757677	0.925626
	C8030	C	0.591665	0.803099	1.014257
	C8031	C	0.841295	0.865583	0.951802
	C8032	C	0.503632	0.866311	0.882830
	C8033	C	0.753490	0.803789	0.945343
	C8034	C	0.505988	0.758235	0.992311
	C8035	C	0.755751	0.820710	0.929758
	C8036	C	0.502046	0.800103	1.006538
	C8037	C	0.751733	0.862610	0.943996
	C8038	C	0.507726	0.824451	0.868536
	C8039	C	0.756957	0.761961	0.931052
	C8040	C	0.502931	0.857340	0.891289
	C8041	C	0.752946	0.794834	0.953815
	C8042	C	0.506829	0.767196	0.983859
	C8043	C	0.756635	0.829676	0.921299
	C8044	C	0.502386	0.792568	0.992412
	C8045	C	0.752029	0.855079	0.929842
	C8046	C	0.507312	0.831966	0.882711
	C8047	C	0.756766	0.769488	0.945204
	H8048	H	0.662947	0.866121	0.878570
	H8049	H	0.912902	0.803734	0.941590
	H8050	H	0.665094	0.756139	0.990107
	H8051	H	0.914878	0.818702	0.927858
	H8052	H	0.842629	0.802105	1.006100
	H8053	H	0.592769	0.864637	0.943382
	H8054	H	0.848030	0.824592	0.865180
	H8055	H	0.598061	0.762368	0.927149
	H8056	H	0.846483	0.758328	0.996240
	H8057	H	0.596211	0.820731	0.933397
	H8058	H	0.844484	0.868422	0.885063
	H8059	H	0.594189	0.805766	0.947127
	H8060	H	0.666895	0.822608	0.868634
	H8061	H	0.915999	0.759855	0.931743
	H8062	H	0.661053	0.799840	1.010045
	H8063	H	0.910719	0.862308	0.947631
	O8064	O	0.075351	0.963571	0.082003
	O8065	O	0.325494	0.901039	0.144384
	O8066	O	0.079855	0.881806	0.172410
	O8067	O	0.329673	0.944246	0.109645
	O8068	O	0.405568	0.902735	0.171062
	O8069	O	0.155326	0.965191	0.108758
	O8070	O	0.410867	0.944640	0.080801
	O8071	O	0.160863	0.882108	0.143404
	O8072	O	0.410819	0.882377	0.173669
	O8073	O	0.160346	0.944832	0.111058
	O8074	O	0.406163	0.964129	0.083161
	O8075	O	0.156231	0.901627	0.145846
	O8076	O	0.079768	0.944096	0.081986
	O8077	O	0.329929	0.881583	0.144526
	O8078	O	0.075167	0.902212	0.172693
	O8079	O	0.324816	0.964698	0.110073
	F8080	F	-0.006766	0.891419	0.147986
	F8081	F	0.242796	0.953956	0.085384
	F8082	F	-0.007024	0.954492	0.107750
	F8083	F	0.242887	0.892010	0.170211
	Al8084	Al	0.118106	0.891730	0.159203
	Al8085	Al	0.367748	0.954244	0.096552
	Al8086	Al	0.117860	0.954228	0.096673
	Al8087	Al	0.368078	0.891723	0.159150
	C8088	C	0.082426	0.980537	0.066711
	C8089	C	0.332247	0.917994	0.129068
	C8090	C	0.083444	0.864238	0.185168
	C8091	C	0.333393	0.926687	0.122514
	C8092	C	0.405243	0.921810	0.173668
	C8093	C	0.154799	0.984308	0.111374
	C8094	C	0.406433	0.929142	0.057784
	C8095	C	0.156217	0.866680	0.120235
	C8096	C	0.403881	0.865382	0.188849
	C8097	C	0.153557	0.927895	0.126405
	C8098	C	0.402447	0.981690	0.070341
	C8099	C	0.152437	0.919189	0.132941
	C8100	C	0.085592	0.927942	0.060553
	C8101	C	0.335702	0.865404	0.123177
	C8102	C	0.084830	0.921161	0.177793
	C8103	C	0.334834	0.983634	0.115233
	C8104	C	-0.008138	0.976660	0.071877
	C8105	C	0.241766	0.914123	0.134305
	C8106	C	-0.005915	0.869297	0.183833
	C8107	C	0.244091	0.931761	0.121192
	C8108	C	-0.006750	0.916628	0.175409
	C8109	C	0.243157	0.979115	0.112870
	C8110	C	-0.004244	0.932578	0.064808
	C8111	C	0.245883	0.870060	0.127387
	C8112	C	-0.009016	0.967463	0.079605
	C8113	C	0.241093	0.904932	0.142096
	C8114	C	-0.005147	0.878490	0.176083
	C8115	C	0.244751	0.940930	0.113365
	C8116	C	-0.008857	0.906441	0.172986
	C8117	C	0.240818	0.968925	0.110441
	C8118	C	-0.004543	0.941034	0.076736
	C8119	C	0.245580	0.878508	0.139332
	H8120	H	0.151735	0.976677	0.067692
	H8121	H	0.401594	0.914141	0.130017
	H8122	H	0.153563	0.867128	0.180995
	H8123	H	0.403418	0.929544	0.118238
	H8124	H	0.334266	0.918401	0.171630
	H8125	H	0.083704	0.980894	0.109472
	H8126	H	0.336941	0.932698	0.060936
	H8127	H	0.086724	0.870256	0.123355
	H8128	H	0.334554	0.869230	0.187861
	H8129	H	0.084165	0.931751	0.125414
	H8130	H	0.332129	0.978783	0.074338
	H8131	H	0.082206	0.916303	0.137080
	H8132	H	0.155095	0.930495	0.066065
	H8133	H	0.405025	0.867952	0.128752
	H8134	H	0.153519	0.917224	0.179099
	H8135	H	0.403338	0.979673	0.116511
	O8136	O	0.575589	0.963626	0.082088
	O8137	O	0.825564	0.901104	0.144473
	O8138	O	0.580099	0.881799	0.172304
	O8139	O	0.829279	0.944262	0.109764
	O8140	O	0.905635	0.902724	0.171132
	O8141	O	0.654974	0.965210	0.108758
	O8142	O	0.910818	0.944649	0.080762
	O8143	O	0.660909	0.882142	0.143334
	O8144	O	0.910520	0.882375	0.173665
	O8145	O	0.659867	0.944809	0.111051
	O8146	O	0.906069	0.964136	0.083274
	O8147	O	0.656180	0.901651	0.145791
	O8148	O	0.579873	0.944108	0.082001
	O8149	O	0.829903	0.881576	0.144547
	O8150	O	0.574967	0.902184	0.172760
	O8151	O	0.824486	0.964707	0.110248
	F8152	F	0.493357	0.891445	0.147947
	F8153	F	0.743105	0.953961	0.085472
	F8154	F	0.492502	0.954497	0.107655
	F8155	F	0.743122	0.892009	0.170149
	Al8156	Al	0.618056	0.891740	0.159177
	Al8157	Al	0.867969	0.954226	0.096643
	Al8158	Al	0.617771	0.954235	0.096671
	Al8159	Al	0.868501	0.891729	0.159099
	C8160	C	0.582630	0.980544	0.066721
	C8161	C	0.832013	0.918011	0.129051
	C8162	C	0.583834	0.864238	0.185196
	C8163	C	0.833048	0.926696	0.122499
	C8164	C	0.904903	0.921831	0.173755
	C8165	C	0.654414	0.984303	0.111215
	C8166	C	0.906053	0.929154	0.057744
	C8167	C	0.656060	0.866682	0.120282
	C8168	C	0.903452	0.865419	0.189001
	C8169	C	0.653225	0.927922	0.126511
	C8170	C	0.902439	0.981714	0.070453
	C8171	C	0.652161	0.919219	0.133039
	C8172	C	0.585832	0.927913	0.060656
	C8173	C	0.835497	0.865407	0.123205
	C8174	C	0.585124	0.921138	0.177793
	C8175	C	0.834432	0.983625	0.115234
	C8176	C	0.491894	0.976662	0.071851
	C8177	C	0.741529	0.914152	0.134325
	C8178	C	0.494410	0.869274	0.183710
	C8179	C	0.743682	0.931764	0.121206
	C8180	C	0.493519	0.916605	0.175362
	C8181	C	0.742734	0.979114	0.112853
	C8182	C	0.496040	0.932558	0.064868
	C8183	C	0.745865	0.870076	0.127381
	C8184	C	0.491092	0.967463	0.079560
	C8185	C	0.741054	0.904963	0.142080
	C8186	C	0.495216	0.878472	0.175984
	C8187	C	0.744348	0.940936	0.113425
	C8188	C	0.491103	0.906433	0.172949
	C8189	C	0.740460	0.968930	0.110493
	C8190	C	0.495601	0.941032	0.076777
	C8191	C	0.745614	0.878536	0.139283
	H8192	H	0.651960	0.976683	0.067748
	H8193	H	0.901409	0.914151	0.129982
	H8194	H	0.654002	0.867150	0.181131
	H8195	H	0.903129	0.929561	0.118237
	H8196	H	0.833849	0.918425	0.171731
	H8197	H	0.583440	0.980877	0.109254
	H8198	H	0.836520	0.932703	0.060905
	H8199	H	0.586705	0.870261	0.123484
	H8200	H	0.834230	0.869286	0.188044
	H8201	H	0.583990	0.931798	0.125612
	H8202	H	0.832094	0.978819	0.074505
	H8203	H	0.582037	0.916342	0.137227
	H8204	H	0.655218	0.930457	0.066208
	H8205	H	0.904856	0.867927	0.128817
	H8206	H	0.653766	0.917197	0.179133
	H8207	H	0.902957	0.979665	0.116568
	O8208	O	0.082632	0.970114	0.176057
	O8209	O	0.332678	0.907565	0.238492
	O8210	O	0.086638	0.889080	0.268639
	O8211	O	0.336659	0.951576	0.206163
	O8212	O	0.412635	0.909997	0.264558
	O8213	O	0.162650	0.972479	0.202078
	O8214	O	0.417934	0.950227	0.179676
	O8215	O	0.168334	0.887742	0.242156
	O8216	O	0.417530	0.889594	0.269771
	O8217	O	0.167273	0.952039	0.207101
	O8218	O	0.413439	0.970547	0.176948
	O8219	O	0.163407	0.908068	0.239585
	O8220	O	0.087172	0.949788	0.181140
	O8221	O	0.337648	0.887243	0.243703
	O8222	O	0.082043	0.909553	0.266026
	O8223	O	0.332159	0.972080	0.203446
	F8224	F	0.000433	0.897760	0.242895
	F8225	F	0.250115	0.960280	0.180441
	F8226	F	-0.000001	0.961959	0.202951
	F8227	F	0.250002	0.899452	0.265417
	Al8228	Al	0.125265	0.898613	0.254212
	Al8229	Al	0.374890	0.961113	0.191632
	Al8230	Al	0.125075	0.961108	0.191662
	Al8231	Al	0.375053	0.898620	0.254217
	C8232	C	0.088953	0.987373	0.161468
	C8233	C	0.339394	0.924840	0.223888
	C8234	C	0.090356	0.871264	0.280766
	C8235	C	0.340603	0.933733	0.218209
	C8236	C	0.410803	0.929114	0.265903
	C8237	C	0.160797	0.991579	0.203389
	C8238	C	0.408292	0.931308	0.174507
	C8239	C	0.158371	0.868814	0.237162
	C8240	C	0.410381	0.872182	0.283643
	C8241	C	0.160379	0.934649	0.221158
	C8242	C	0.409489	0.988254	0.164401
	C8243	C	0.159193	0.925754	0.226819
	C8244	C	0.087948	0.930654	0.178569
	C8245	C	0.338488	0.868115	0.241048
	C8246	C	0.091152	0.928575	0.269270
	C8247	C	0.341242	0.991072	0.206879
	C8248	C	-0.001631	0.983237	0.165893
	C8249	C	0.248769	0.920727	0.228379
	C8250	C	0.000960	0.876330	0.279381
	C8251	C	0.251083	0.938785	0.216793
	C8252	C	-0.000312	0.923971	0.267510
	C8253	C	0.249655	0.986475	0.205153
	C8254	C	-0.000364	0.935851	0.177012
	C8255	C	0.250074	0.873318	0.239612
	C8256	C	-0.001997	0.973948	0.173463
	C8257	C	0.248264	0.911446	0.235987
	C8258	C	0.001730	0.885689	0.272118
	C8259	C	0.251722	0.948143	0.209525
	C8260	C	-0.002043	0.913759	0.265970
	C8261	C	0.247924	0.976267	0.203522
	C8262	C	0.001798	0.946050	0.179324
	C8263	C	0.252264	0.883508	0.241964
	H8264	H	0.158817	0.983580	0.162473
	H8265	H	0.409131	0.921033	0.224851
	H8266	H	0.160984	0.874312	0.277319
	H8267	H	0.411214	0.936780	0.214785
	H8268	H	0.339744	0.925644	0.264486
	H8269	H	0.089739	0.988102	0.201972
	H8270	H	0.339804	0.935260	0.173157
	H8271	H	0.089813	0.872769	0.235832
	H8272	H	0.340699	0.875997	0.282668
	H8273	H	0.090599	0.938452	0.220182
	H8274	H	0.338931	0.985181	0.167781
	H8275	H	0.088412	0.922694	0.230207
	H8276	H	0.159085	0.934062	0.180463
	H8277	H	0.409785	0.871506	0.242868
	H8278	H	0.160178	0.924710	0.270735
	H8279	H	0.410281	0.987200	0.208279
	O8280	O	0.582855	0.970064	0.175962
	O8281	O	0.832435	0.907604	0.238452
	O8282	O	0.586924	0.889078	0.268652
	O8283	O	0.836240	0.951576	0.206230
	O8284	O	0.912564	0.909970	0.264475
	O8285	O	0.662062	0.972478	0.202146
	O8286	O	0.917885	0.950283	0.179519
	O8287	O	0.667988	0.887721	0.242117
	O8288	O	0.917209	0.889604	0.269768
	O8289	O	0.666857	0.952029	0.207102
	O8290	O	0.913199	0.970543	0.177031
	O8291	O	0.662973	0.908059	0.239472
	O8292	O	0.587300	0.949770	0.181174
	O8293	O	0.837363	0.887257	0.243560
	O8294	O	0.582075	0.909586	0.266027
	O8295	O	0.831491	0.972083	0.203629
	F8296	F	0.500119	0.897764	0.242960
	F8297	F	0.750217	0.960286	0.180560
	F8298	F	0.499650	0.961958	0.202893
	F8299	F	0.749967	0.899446	0.265292
	Al8300	Al	0.625010	0.898622	0.254179
	Al8301	Al	0.875181	0.961132	0.191766
	Al8302	Al	0.624947	0.961117	0.191709
	Al8303	Al	0.875457	0.898612	0.254120
	C8304	C	0.589583	0.987336	0.161477
	C8305	C	0.838971	0.924838	0.223911
	C8306	C	0.590542	0.871248	0.280682
	C8307	C	0.840086	0.933727	0.218251
	C8308	C	0.910819	0.929098	0.265738
	C8309	C	0.660351	0.991585	0.203438
	C8310	C	0.908017	0.931324	0.174554
	C8311	C	0.658119	0.868807	0.237050
	C8312	C	0.910194	0.872211	0.283805
	C8313	C	0.659924	0.934674	0.221255
	C8314	C	0.908738	0.988281	0.164423
	C8315	C	0.658802	0.925780	0.226909
	C8316	C	0.588241	0.930638	0.178602
	C8317	C	0.838093	0.868127	0.241061
	C8318	C	0.591042	0.928608	0.269440
	C8319	C	0.840761	0.991075	0.206819
	C8320	C	0.499013	0.983223	0.165911
	C8321	C	0.748233	0.920734	0.228359
	C8322	C	0.501153	0.876320	0.279341
	C8323	C	0.750652	0.938789	0.216830
	C8324	C	0.499502	0.923999	0.267743
	C8325	C	0.749132	0.986479	0.205158
	C8326	C	0.499911	0.935824	0.176985
	C8327	C	0.749746	0.873318	0.239500
	C8328	C	0.498399	0.973919	0.173405
	C8329	C	0.747836	0.911445	0.235894
	C8330	C	0.501972	0.885686	0.272137
	C8331	C	0.751305	0.948142	0.209560
	C8332	C	0.497901	0.913780	0.266071
	C8333	C	0.747308	0.976270	0.203579
	C8334	C	0.502039	0.946019	0.179388
	C8335	C	0.752038	0.883509	0.241866
	H8336	H	0.659378	0.983535	0.162427
	H8337	H	0.908710	0.921019	0.224889
	H8338	H	0.661196	0.874296	0.277243
	H8339	H	0.910722	0.936785	0.214856
	H8340	H	0.839720	0.925628	0.264358
	H8341	H	0.589237	0.988122	0.202077
	H8342	H	0.839422	0.935265	0.173180
	H8343	H	0.589510	0.872746	0.235701
	H8344	H	0.840466	0.876032	0.282876
	H8345	H	0.590244	0.938492	0.220316
	H8346	H	0.838120	0.985220	0.167842
	H8347	H	0.588123	0.922737	0.230311
	H8348	H	0.659279	0.934058	0.180577
	H8349	H	0.909230	0.871540	0.242955
	H8350	H	0.660053	0.924735	0.270855
	H8351	H	0.909827	0.987211	0.208190
	O8352	O	0.087731	0.977563	0.265698
	O8353	O	0.337730	0.915020	0.328113
	O8354	O	0.091397	0.896579	0.358448
	O8355	O	0.341372	0.959045	0.295877
	O8356	O	0.417410	0.917391	0.354147
	O8357	O	0.167688	0.979881	0.291666
	O8358	O	0.422722	0.957610	0.269289
	O8359	O	0.173041	0.895095	0.331918
	O8360	O	0.422170	0.897021	0.359388
	O8361	O	0.171956	0.959481	0.296791
	O8362	O	0.418424	0.977976	0.266535
	O8363	O	0.168340	0.915476	0.329073
	O8364	O	0.092032	0.957174	0.270777
	O8365	O	0.342395	0.894652	0.333420
	O8366	O	0.086873	0.916990	0.355510
	O8367	O	0.337071	0.979461	0.293070
	F8368	F	0.005616	0.905142	0.332448
	F8369	F	0.254873	0.967642	0.270011
	F8370	F	0.004890	0.969400	0.292528
	F8371	F	0.254734	0.906894	0.354985
	Al8372	Al	0.130050	0.906029	0.343753
	Al8373	Al	0.379650	0.968513	0.281206
	Al8374	Al	0.129733	0.968524	0.281268
	Al8375	Al	0.380015	0.906029	0.343759
	C8376	C	0.094311	0.994906	0.251455
	C8377	C	0.344306	0.932359	0.313848
	C8378	C	0.095301	0.878790	0.370778
	C8379	C	0.345414	0.941258	0.308217
	C8380	C	0.415721	0.936505	0.355598
	C8381	C	0.165964	0.999000	0.293185
	C8382	C	0.413508	0.938595	0.265853
	C8383	C	0.163670	0.876075	0.328411
	C8384	C	0.415143	0.879686	0.373580
	C8385	C	0.165208	0.942133	0.310977
	C8386	C	0.414261	0.995754	0.254122
	C8387	C	0.164069	0.933231	0.316616
	C8388	C	0.093756	0.938059	0.269238
	C8389	C	0.344067	0.875563	0.331830
	C8390	C	0.096001	0.936009	0.359093
	C8391	C	0.346239	0.998486	0.296481
	C8392	C	0.003626	0.990739	0.255729
	C8393	C	0.253649	0.928199	0.318152
	C8394	C	0.005833	0.883839	0.369281
	C8395	C	0.255910	0.946296	0.306708
	C8396	C	0.004545	0.931399	0.357279
	C8397	C	0.254749	0.993878	0.294828
	C8398	C	0.005001	0.943176	0.267526
	C8399	C	0.255224	0.880672	0.330176
	C8400	C	0.003094	0.981403	0.263107
	C8401	C	0.253220	0.918882	0.325585
	C8402	C	0.006402	0.893180	0.361888
	C8403	C	0.256503	0.955625	0.299316
	C8404	C	0.002660	0.921182	0.355571
	C8405	C	0.252941	0.983662	0.293141
	C8406	C	0.006814	0.953385	0.269290
	C8407	C	0.257089	0.890886	0.331904
	H8408	H	0.164163	0.991118	0.252470
	H8409	H	0.414184	0.928568	0.314882
	H8410	H	0.166025	0.881863	0.367457
	H8411	H	0.416263	0.944331	0.304903
	H8412	H	0.344664	0.933031	0.354210
	H8413	H	0.094836	0.995536	0.291886
	H8414	H	0.344527	0.942456	0.264382
	H8415	H	0.094701	0.879958	0.327004
	H8416	H	0.345481	0.883505	0.372581
	H8417	H	0.095316	0.945922	0.309935
	H8418	H	0.343630	0.992669	0.257421
	H8419	H	0.093345	0.930155	0.319933
	H8420	H	0.164834	0.941521	0.270629
	H8421	H	0.415128	0.879038	0.333178
	H8422	H	0.165056	0.932148	0.360579
	H8423	H	0.415361	0.994620	0.297833
	O8424	O	0.587855	0.977537	0.265605
	O8425	O	0.837215	0.915020	0.327972
	O8426	O	0.591631	0.896579	0.358471
	O8427	O	0.840916	0.959065	0.296010
	O8428	O	0.917471	0.917390	0.354055
	O8429	O	0.667205	0.979872	0.291711
	O8430	O	0.922538	0.957582	0.269508
	O8431	O	0.672767	0.895074	0.331948
	O8432	O	0.921953	0.897045	0.359359
	O8433	O	0.671548	0.959519	0.296846
	O8434	O	0.918219	0.977955	0.266538
	O8435	O	0.667815	0.915529	0.329167
	O8436	O	0.592147	0.957203	0.270642
	O8437	O	0.842237	0.894655	0.333163
	O8438	O	0.586844	0.916961	0.355591
	O8439	O	0.836650	0.979511	0.293109
	F8440	F	0.505165	0.905155	0.332580
	F8441	F	0.755187	0.967670	0.270109
	F8442	F	0.504386	0.969366	0.292389
	F8443	F	0.755078	0.906895	0.354869
	Al8444	Al	0.629953	0.906038	0.343781
	Al8445	Al	0.880107	0.968534	0.281330
	Al8446	Al	0.629677	0.968521	0.281228
	Al8447	Al	0.880307	0.906025	0.343621
	C8448	C	0.594540	0.994880	0.251370
	C8449	C	0.843861	0.932386	0.313897
	C8450	C	0.595415	0.878773	0.370726
	C8451	C	0.844960	0.941290	0.308306
	C8452	C	0.915653	0.936525	0.355561
	C8453	C	0.665213	0.999007	0.293133
	C8454	C	0.913471	0.938581	0.265717
	C8455	C	0.663220	0.876086	0.328441
	C8456	C	0.915019	0.879689	0.373576
	C8457	C	0.664661	0.942141	0.311002
	C8458	C	0.913986	0.995767	0.254202
	C8459	C	0.663540	0.933235	0.316607
	C8460	C	0.593671	0.938088	0.269357
	C8461	C	0.843781	0.875557	0.331763
	C8462	C	0.596071	0.935985	0.359098
	C8463	C	0.845461	0.998497	0.296613
	C8464	C	0.503835	0.990722	0.255644
	C8465	C	0.753166	0.928226	0.318184
	C8466	C	0.505985	0.883822	0.369273
	C8467	C	0.755372	0.946311	0.306752
	C8468	C	0.504526	0.931384	0.357311
	C8469	C	0.753920	0.993890	0.294925
	C8470	C	0.505028	0.943202	0.267592
	C8471	C	0.754894	0.880670	0.330120
	C8472	C	0.503301	0.981385	0.263034
	C8473	C	0.752690	0.918905	0.325583
	C8474	C	0.506720	0.893163	0.361915
	C8475	C	0.755958	0.955649	0.299392
	C8476	C	0.502743	0.921166	0.355638
	C8477	C	0.752356	0.983677	0.293192
	C8478	C	0.506864	0.953419	0.269219
	C8479	C	0.756900	0.890881	0.331810
	H8480	H	0.664326	0.991086	0.252399
	H8481	H	0.913697	0.928597	0.314911
	H8482	H	0.666196	0.881836	0.367398
	H8483	H	0.915690	0.944369	0.305018
	H8484	H	0.844540	0.933057	0.354180
	H8485	H	0.594102	0.995544	0.291727
	H8486	H	0.844551	0.942456	0.264272
	H8487	H	0.594308	0.879977	0.327086
	H8488	H	0.845293	0.883505	0.372566
	H8489	H	0.594796	0.945942	0.309967
	H8490	H	0.843245	0.992684	0.257487
	H8491	H	0.592745	0.930136	0.319866
	H8492	H	0.664829	0.941542	0.270708
	H8493	H	0.914870	0.879036	0.333081
	H8494	H	0.665025	0.932108	0.360554
	H8495	H	0.914520	0.994629	0.298006
	O8496	O	0.092233	0.984993	0.355272
	O8497	O	0.342207	0.922465	0.417638
	O8498	O	0.096004	0.904063	0.448121
	O8499	O	0.346189	0.966505	0.385516
	O8500	O	0.422231	0.924828	0.443632
	O8501	O	0.172092	0.987288	0.381334
	O8502	O	0.427399	0.964964	0.359101
	O8503	O	0.177258	0.902474	0.421634
	O8504	O	0.426734	0.904468	0.448907
	O8505	O	0.176783	0.966953	0.386395
	O8506	O	0.423005	0.985469	0.356336
	O8507	O	0.172851	0.923014	0.418905
	O8508	O	0.096994	0.964608	0.360225
	O8509	O	0.346807	0.902101	0.422818
	O8510	O	0.091542	0.924336	0.445393
	O8511	O	0.341462	0.986829	0.382802
	F8512	F	0.010203	0.912617	0.422064
	F8513	F	0.259950	0.975112	0.359568
	F8514	F	0.009701	0.976785	0.382042
	F8515	F	0.259642	0.914305	0.444520
	Al8516	Al	0.134724	0.913470	0.433372
	Al8517	Al	0.384611	0.975941	0.370825
	Al8518	Al	0.134676	0.975943	0.370759
	Al8519	Al	0.384636	0.913450	0.433217
	C8520	C	0.098946	1.002381	0.341294
	C8521	C	0.349249	0.939885	0.403718
	C8522	C	0.100100	0.886322	0.460552
	C8523	C	0.350294	0.948774	0.398015
	C8524	C	0.421346	0.943934	0.446459
	C8525	C	0.171116	1.006415	0.383936
	C8526	C	0.418303	0.945983	0.355578
	C8527	C	0.168361	0.883479	0.418158
	C8528	C	0.420151	0.887222	0.463542
	C8529	C	0.170232	0.949693	0.401004
	C8530	C	0.419155	1.003290	0.344192
	C8531	C	0.169163	0.940813	0.406724
	C8532	C	0.098660	0.945492	0.359065
	C8533	C	0.348870	0.882981	0.421512
	C8534	C	0.101312	0.943280	0.450314
	C8535	C	0.351177	1.005751	0.387763
	C8536	C	0.008271	0.998240	0.345619
	C8537	C	0.258569	0.935744	0.408083
	C8538	C	0.010558	0.891357	0.459100
	C8539	C	0.260859	0.953822	0.396565
	C8540	C	0.009687	0.938748	0.447957
	C8541	C	0.259502	1.001224	0.385486
	C8542	C	0.009963	0.950602	0.357218
	C8543	C	0.259959	0.888080	0.419822
	C8544	C	0.007587	0.988870	0.352856
	C8545	C	0.257784	0.926391	0.415348
	C8546	C	0.011141	0.900673	0.451621
	C8547	C	0.261299	0.963115	0.389023
	C8548	C	0.007641	0.928557	0.445587
	C8549	C	0.257415	0.991037	0.383079
	C8550	C	0.011625	0.960814	0.358831
	C8551	C	0.261577	0.898301	0.421457
	H8552	H	0.168728	0.998581	0.342277
	H8553	H	0.419054	0.936083	0.404701
	H8554	H	0.170649	0.889399	0.457173
	H8555	H	0.421021	0.951820	0.394583
	H8556	H	0.350256	0.940521	0.444566
	H8557	H	0.100007	1.003007	0.382036
	H8558	H	0.349283	0.949850	0.354180
	H8559	H	0.099235	0.887354	0.416816
	H8560	H	0.350417	0.891035	0.462573
	H8561	H	0.100431	0.953501	0.400023
	H8562	H	0.348484	1.000247	0.347608
	H8563	H	0.098565	0.937772	0.410186
	H8564	H	0.169725	0.948957	0.360506
	H8565	H	0.419909	0.886461	0.422893
	H8566	H	0.170043	0.939349	0.451585
	H8567	H	0.419935	1.001814	0.388953
	O8568	O	0.592377	0.984980	0.355277
	O8569	O	0.842002	0.922522	0.417769
	O8570	O	0.596168	0.904014	0.447984
	O8571	O	0.845937	0.966478	0.385551
	O8572	O	0.922228	0.924812	0.443747
	O8573	O	0.672027	0.987285	0.381288
	O8574	O	0.927462	0.964994	0.358985
	O8575	O	0.677401	0.902487	0.421531
	O8576	O	0.926625	0.904545	0.449074
	O8577	O	0.676493	0.966959	0.386472
	O8578	O	0.922789	0.985441	0.356261
	O8579	O	0.672588	0.922979	0.418825
	O8580	O	0.596942	0.964580	0.360299
	O8581	O	0.846936	0.902064	0.422872
	O8582	O	0.591511	0.924329	0.445373
	O8583	O	0.841415	0.986860	0.382816
	F8584	F	0.509909	0.912599	0.422070
	F8585	F	0.760050	0.975086	0.359629
	F8586	F	0.509287	0.976785	0.381993
	F8587	F	0.759566	0.914301	0.444465
	Al8588	Al	0.634708	0.913451	0.433307
	Al8589	Al	0.885030	0.975935	0.370845
	Al8590	Al	0.634635	0.975933	0.370781
	Al8591	Al	0.884954	0.913461	0.433237
	C8592	C	0.599263	1.002360	0.341208
	C8593	C	0.848592	0.939868	0.403648
	C8594	C	0.600324	0.886302	0.460532
	C8595	C	0.849805	0.948761	0.397984
	C8596	C	0.921251	0.943944	0.446398
	C8597	C	0.670677	1.006417	0.384009
	C8598	C	0.918304	0.946000	0.355519
	C8599	C	0.668034	0.883497	0.418096
	C8600	C	0.919908	0.887222	0.463529
	C8601	C	0.669688	0.949695	0.401054
	C8602	C	0.918690	1.003294	0.344170
	C8603	C	0.668537	0.940806	0.406739
	C8604	C	0.598578	0.945469	0.359079
	C8605	C	0.848409	0.882963	0.421545
	C8606	C	0.601473	0.943268	0.450323
	C8607	C	0.850717	1.005769	0.387767
	C8608	C	0.508624	0.998237	0.345618
	C8609	C	0.757941	0.935736	0.408056
	C8610	C	0.510732	0.891338	0.459059
	C8611	C	0.760313	0.953807	0.396556
	C8612	C	0.509784	0.938740	0.447955
	C8613	C	0.759139	1.001234	0.385484
	C8614	C	0.509889	0.950577	0.357270
	C8615	C	0.759629	0.888082	0.419825
	C8616	C	0.507942	0.988877	0.352883
	C8617	C	0.757440	0.926396	0.415367
	C8618	C	0.511239	0.900619	0.451493
	C8619	C	0.760948	0.963102	0.389046
	C8620	C	0.507563	0.928555	0.445552
	C8621	C	0.757218	0.991049	0.383082
	C8622	C	0.511687	0.960790	0.358926
	C8623	C	0.761566	0.898293	0.421451
	H8624	H	0.669068	0.998560	0.342132
	H8625	H	0.918422	0.936060	0.404586
	H8626	H	0.670900	0.889376	0.457104
	H8627	H	0.920639	0.951804	0.394531
	H8628	H	0.850175	0.940529	0.444492
	H8629	H	0.599594	1.003000	0.382154
	H8630	H	0.849350	0.949879	0.354104
	H8631	H	0.599048	0.887379	0.416689
	H8632	H	0.850161	0.891036	0.462595
	H8633	H	0.600001	0.953515	0.400137
	H8634	H	0.848079	1.000226	0.347556
	H8635	H	0.597968	0.937765	0.410222
	H8636	H	0.669700	0.948918	0.360509
	H8637	H	0.919555	0.886427	0.422913
	H8638	H	0.670244	0.939337	0.451605
	H8639	H	0.919534	1.001848	0.388989
	O8640	O	0.099071	0.992243	0.451382
	O8641	O	0.349016	0.929725	0.513892
	O8642	O	0.103134	0.910448	0.541727
	O8643	O	0.352802	0.972955	0.479346
	O8644	O	0.429485	0.930475	0.543021
	O8645	O	0.179349	0.992962	0.480479
	O8646	O	0.434224	0.972368	0.452329
	O8647	O	0.184201	0.909857	0.514848
	O8648	O	0.434002	0.910969	0.542970
	O8649	O	0.183390	0.973465	0.480433
	O8650	O	0.429768	0.992759	0.452686
	O8651	O	0.179680	0.930268	0.515168
	O8652	O	0.103599	0.971878	0.453700
	O8653	O	0.353744	0.909363	0.516292
	O8654	O	0.098491	0.929971	0.544013
	O8655	O	0.348352	0.992444	0.481628
	F8656	F	0.016868	0.920070	0.517195
	F8657	F	0.266644	0.982576	0.454810
	F8658	F	0.016161	0.983120	0.477038
	F8659	F	0.266234	0.920612	0.539563
	Al8660	Al	0.141460	0.920336	0.528294
	Al8661	Al	0.391504	0.982832	0.465859
	Al8662	Al	0.141524	0.982833	0.465775
	Al8663	Al	0.391396	0.920334	0.528359
	C8664	C	0.105383	1.009180	0.436119
	C8665	C	0.355685	0.946694	0.498681
	C8666	C	0.106695	0.892910	0.554652
	C8667	C	0.356637	0.955417	0.492197
	C8668	C	0.423956	0.946652	0.564393
	C8669	C	0.173352	1.009105	0.501917
	C8670	C	0.424359	0.953425	0.447271
	C8671	C	0.174070	0.890937	0.509785
	C8672	C	0.427183	0.894006	0.558185
	C8673	C	0.176592	0.956514	0.495812
	C8674	C	0.425989	1.010279	0.439786
	C8675	C	0.175605	0.947818	0.502307
	C8676	C	0.104348	0.952772	0.451104
	C8677	C	0.354212	0.890265	0.513578
	C8678	C	0.103076	0.945423	0.567192
	C8679	C	0.352695	1.007957	0.504648
	C8680	C	0.014839	1.005296	0.441245
	C8681	C	0.265059	0.942796	0.503791
	C8682	C	0.017283	0.897943	0.553157
	C8683	C	0.267178	0.960428	0.490721
	C8684	C	0.013492	0.942004	0.560086
	C8685	C	0.263162	1.004503	0.497601
	C8686	C	0.015915	0.957960	0.449541
	C8687	C	0.265808	0.895450	0.512039
	C8688	C	0.014562	0.996101	0.449006
	C8689	C	0.264542	0.933610	0.511547
	C8690	C	0.018205	0.907136	0.545418
	C8691	C	0.267844	0.969617	0.482938
	C8692	C	0.013826	0.933566	0.548110
	C8693	C	0.263618	0.996035	0.485699
	C8694	C	0.018214	0.968147	0.451939
	C8695	C	0.268264	0.905638	0.514503
	H8696	H	0.174717	1.005342	0.437153
	H8697	H	0.424863	0.942834	0.499723
	H8698	H	0.177006	0.895807	0.550603
	H8699	H	0.426773	0.958346	0.488152
	H8700	H	0.354679	0.944119	0.558853
	H8701	H	0.103795	1.006549	0.496479
	H8702	H	0.355710	0.957366	0.446006
	H8703	H	0.105364	0.894875	0.508607
	H8704	H	0.357914	0.897849	0.557056
	H8705	H	0.106967	0.960331	0.494770
	H8706	H	0.356093	1.007348	0.443920
	H8707	H	0.105341	0.944933	0.506389
	H8708	H	0.175411	0.956182	0.453037
	H8709	H	0.425273	0.893684	0.515478
	H8710	H	0.172670	0.941887	0.564030
	H8711	H	0.422437	1.004459	0.501486
	O8712	O	0.599128	0.992200	0.451365
	O8713	O	0.848413	0.929745	0.513881
	O8714	O	0.603408	0.910421	0.541717
	O8715	O	0.852899	0.972945	0.479387
	O8716	O	0.929485	0.930484	0.542932
	O8717	O	0.679230	0.992958	0.480481
	O8718	O	0.934086	0.972382	0.452212
	O8719	O	0.683950	0.909893	0.514707
	O8720	O	0.933705	0.911001	0.542964
	O8721	O	0.683466	0.973450	0.480427
	O8722	O	0.929760	0.992775	0.452754
	O8723	O	0.678991	0.930282	0.515201
	O8724	O	0.603715	0.971863	0.453747
	O8725	O	0.853476	0.909325	0.516229
	O8726	O	0.598378	0.929924	0.544175
	O8727	O	0.848232	0.992438	0.481631
	F8728	F	0.516315	0.920063	0.517325
	F8729	F	0.766803	0.982552	0.454879
	F8730	F	0.516301	0.983105	0.477056
	F8731	F	0.766228	0.920639	0.539488
	Al8732	Al	0.641299	0.920332	0.528328
	Al8733	Al	0.891910	0.982835	0.465926
	Al8734	Al	0.641560	0.982824	0.465805
	Al8735	Al	0.891466	0.920344	0.528283
	C8736	C	0.605854	1.009147	0.436083
	C8737	C	0.855152	0.946624	0.498486
	C8738	C	0.607206	0.892881	0.554668
	C8739	C	0.856386	0.955342	0.492014
	C8740	C	0.923760	0.946647	0.564337
	C8741	C	0.673405	1.009092	0.501925
	C8742	C	0.924271	0.953435	0.447176
	C8743	C	0.673766	0.890927	0.509805
	C8744	C	0.926638	0.894038	0.558232
	C8745	C	0.676465	0.956558	0.495947
	C8746	C	0.925309	1.010319	0.439790
	C8747	C	0.675229	0.947861	0.502443
	C8748	C	0.604513	0.952758	0.451150
	C8749	C	0.853904	0.890284	0.513493
	C8750	C	0.603097	0.945420	0.567243
	C8751	C	0.852832	1.007949	0.504551
	C8752	C	0.515361	1.005254	0.441202
	C8753	C	0.764498	0.942789	0.503755
	C8754	C	0.517738	0.897914	0.553159
	C8755	C	0.767097	0.960413	0.490694
	C8756	C	0.513594	0.941995	0.560156
	C8757	C	0.763176	1.004503	0.497571
	C8758	C	0.515996	0.957947	0.449626
	C8759	C	0.765397	0.895458	0.512012
	C8760	C	0.514701	0.996082	0.449012
	C8761	C	0.763862	0.933615	0.511542
	C8762	C	0.518503	0.907106	0.545401
	C8763	C	0.767922	0.969603	0.482942
	C8764	C	0.513804	0.933546	0.548215
	C8765	C	0.763516	0.996040	0.485664
	C8766	C	0.518204	0.968135	0.452024
	C8767	C	0.767788	0.905638	0.514434
	H8768	H	0.675078	1.005288	0.437112
	H8769	H	0.924215	0.942723	0.499404
	H8770	H	0.677434	0.895794	0.550651
	H8771	H	0.926485	0.958236	0.487855
	H8772	H	0.854358	0.944125	0.558789
	H8773	H	0.603875	1.006524	0.496513
	H8774	H	0.855626	0.957368	0.445873
	H8775	H	0.605041	0.894861	0.508625
	H8776	H	0.857149	0.897862	0.557143
	H8777	H	0.607031	0.960414	0.495042
	H8778	H	0.855321	1.007394	0.443914
	H8779	H	0.604958	0.945018	0.506664
	H8780	H	0.675567	0.956173	0.453086
	H8781	H	0.924983	0.893702	0.515346
	H8782	H	0.672652	0.941878	0.564083
	H8783	H	0.922408	1.004437	0.501312
	O8784	O	0.093403	0.988310	0.604663
	O8785	O	0.343201	0.925778	0.667086
	O8786	O	0.097641	0.905291	0.691196
	O8787	O	0.346964	0.967852	0.628809
	O8788	O	0.423797	0.924871	0.697135
	O8789	O	0.173395	0.987387	0.634698
	O8790	O	0.428095	0.969605	0.599663
	O8791	O	0.178424	0.907121	0.662040
	O8792	O	0.427798	0.905895	0.692670
	O8793	O	0.177652	0.968354	0.630046
	O8794	O	0.423684	0.988784	0.605838
	O8795	O	0.173942	0.926300	0.668425
	O8796	O	0.096985	0.969089	0.600632
	O8797	O	0.347641	0.906549	0.663153
	O8798	O	0.092434	0.924278	0.698013
	O8799	O	0.342533	0.986838	0.635514
	F8800	F	0.010725	0.916382	0.669052
	F8801	F	0.260366	0.978884	0.606608
	F8802	F	0.010171	0.977820	0.628231
	F8803	F	0.260352	0.915299	0.690676
	Al8804	Al	0.135609	0.915814	0.679838
	Al8805	Al	0.385351	0.978348	0.617381
	Al8806	Al	0.135280	0.978351	0.617411
	Al8807	Al	0.385562	0.915842	0.679915
	C8808	C	0.099510	1.004802	0.588278
	C8809	C	0.349828	0.942280	0.650769
	C8810	C	0.100537	0.888136	0.705345
	C8811	C	0.350883	0.950714	0.643207
	C8812	C	0.417969	0.939439	0.722608
	C8813	C	0.167527	1.001854	0.660295
	C8814	C	0.423706	0.954480	0.575629
	C8815	C	0.173951	0.892035	0.637874
	C8816	C	0.421194	0.889427	0.709113
	C8817	C	0.171029	0.951785	0.646107
	C8818	C	0.419849	1.005877	0.591233
	C8819	C	0.169939	0.943345	0.653681
	C8820	C	0.102784	0.953247	0.578432
	C8821	C	0.352944	0.890690	0.641027
	C8822	C	0.097295	0.938139	0.724900
	C8823	C	0.347230	1.000686	0.662301
	C8824	C	0.009199	1.001057	0.593624
	C8825	C	0.259326	0.938538	0.656101
	C8826	C	0.011448	0.893077	0.703418
	C8827	C	0.261551	0.955539	0.640833
	C8828	C	0.007722	0.935161	0.717088
	C8829	C	0.257527	0.997682	0.654629
	C8830	C	0.012985	0.957850	0.582777
	C8831	C	0.263328	0.895338	0.645257
	C8832	C	0.008824	0.992080	0.602040
	C8833	C	0.258635	0.929553	0.664495
	C8834	C	0.012759	0.902072	0.695088
	C8835	C	0.262227	0.964560	0.632585
	C8836	C	0.007914	0.927592	0.703024
	C8837	C	0.257841	0.990098	0.640586
	C8838	C	0.012555	0.966106	0.595253
	C8839	C	0.263147	0.903588	0.657729
	H8840	H	0.168451	1.001080	0.590056
	H8841	H	0.418831	0.938548	0.652510
	H8842	H	0.170164	0.890894	0.700809
	H8843	H	0.420696	0.953565	0.639040
	H8844	H	0.348538	0.937224	0.716600
	H8845	H	0.098283	0.999539	0.654363
	H8846	H	0.354211	0.958014	0.578863
	H8847	H	0.104505	0.895618	0.640907
	H8848	H	0.352427	0.893259	0.707756
	H8849	H	0.102029	0.955519	0.644337
	H8850	H	0.350290	1.003018	0.595398
	H8851	H	0.100135	0.940475	0.657812
	H8852	H	0.172077	0.955771	0.584015
	H8853	H	0.422261	0.893172	0.646677
	H8854	H	0.166915	0.934862	0.720795
	H8855	H	0.416561	0.997423	0.658041
	O8856	O	0.592995	0.988315	0.604659
	O8857	O	0.843421	0.925783	0.667065
	O8858	O	0.597054	0.905342	0.691217
	O8859	O	0.846941	0.967859	0.628810
	O8860	O	0.923329	0.924897	0.697153
	O8861	O	0.673488	0.987355	0.634746
	O8862	O	0.927827	0.969632	0.599585
	O8863	O	0.678161	0.907137	0.662045
	O8864	O	0.928484	0.905915	0.692661
	O8865	O	0.677592	0.968344	0.629997
	O8866	O	0.924130	0.988800	0.605893
	O8867	O	0.674108	0.926265	0.668295
	O8868	O	0.597351	0.969116	0.600580
	O8869	O	0.847260	0.906550	0.663133
	O8870	O	0.592902	0.924292	0.698047
	O8871	O	0.842623	0.986847	0.635486
	F8872	F	0.510579	0.916371	0.669059
	F8873	F	0.760630	0.978877	0.606636
	F8874	F	0.510164	0.977834	0.628222
	F8875	F	0.760405	0.915308	0.690651
	Al8876	Al	0.635494	0.915830	0.679808
	Al8877	Al	0.885573	0.978345	0.617387
	Al8878	Al	0.635298	0.978363	0.617418
	Al8879	Al	0.885671	0.915856	0.679846
	C8880	C	0.599309	1.004792	0.588269
	C8881	C	0.849883	0.942294	0.650761
	C8882	C	0.600586	0.888111	0.705223
	C8883	C	0.850926	0.950738	0.643205
	C8884	C	0.917964	0.939446	0.722587
	C8885	C	0.667580	1.001872	0.660212
	C8886	C	0.923459	0.954475	0.575583
	C8887	C	0.673656	0.892058	0.637819
	C8888	C	0.921050	0.889436	0.709094
	C8889	C	0.671245	0.951789	0.646155
	C8890	C	0.919886	1.005885	0.591290
	C8891	C	0.670193	0.943350	0.653723
	C8892	C	0.602930	0.953252	0.578446
	C8893	C	0.852750	0.890720	0.640968
	C8894	C	0.597246	0.938102	0.724978
	C8895	C	0.847073	1.000691	0.662340
	C8896	C	0.509026	1.001048	0.593606
	C8897	C	0.759543	0.938539	0.656111
	C8898	C	0.511482	0.893071	0.703391
	C8899	C	0.761610	0.955580	0.640941
	C8900	C	0.507792	0.935172	0.717081
	C8901	C	0.757469	0.997660	0.654649
	C8902	C	0.513262	0.957869	0.582759
	C8903	C	0.763035	0.895361	0.645202
	C8904	C	0.508365	0.992063	0.601998
	C8905	C	0.758836	0.929561	0.664520
	C8906	C	0.512319	0.902084	0.695111
	C8907	C	0.762182	0.964576	0.632590
	C8908	C	0.508227	0.927583	0.703048
	C8909	C	0.757934	0.990112	0.640546
	C8910	C	0.512888	0.966110	0.595256
	C8911	C	0.762785	0.903600	0.657726
	H8912	H	0.668213	1.001056	0.589984
	H8913	H	0.918872	0.938567	0.652460
	H8914	H	0.670177	0.890881	0.700673
	H8915	H	0.920630	0.953565	0.638952
	H8916	H	0.848494	0.937246	0.716564
	H8917	H	0.598314	0.999626	0.654209
	H8918	H	0.853900	0.958011	0.578784
	H8919	H	0.604171	0.895639	0.640850
	H8920	H	0.852198	0.893254	0.707647
	H8921	H	0.602231	0.955501	0.644310
	H8922	H	0.850148	1.003042	0.595518
	H8923	H	0.600505	0.940470	0.657868
	H8924	H	0.672117	0.955776	0.584024
	H8925	H	0.922077	0.893202	0.646620
	H8926	H	0.666783	0.934786	0.720947
	H8927	H	0.916551	0.997459	0.658072
	O8928	O	0.087472	0.978549	0.768722
	O8929	O	0.337076	0.916053	0.831268
	O8930	O	0.091676	0.895439	0.854824
	O8931	O	0.341265	0.957914	0.792309
	O8932	O	0.417680	0.914962	0.861301
	O8933	O	0.167533	0.977421	0.798818
	O8934	O	0.422274	0.960231	0.762778
	O8935	O	0.172460	0.897784	0.825256
	O8936	O	0.422047	0.895999	0.856308
	O8937	O	0.171994	0.958504	0.793804
	O8938	O	0.417918	0.979112	0.770325
	O8939	O	0.167857	0.916629	0.832777
	O8940	O	0.091261	0.959662	0.763654
	O8941	O	0.341563	0.897127	0.826259
	O8942	O	0.086614	0.914264	0.862398
	O8943	O	0.336646	0.976741	0.799889
	F8944	F	0.004773	0.906711	0.833060
	F8945	F	0.254875	0.969188	0.770551
	F8946	F	0.004474	0.967849	0.792001
	F8947	F	0.254580	0.905362	0.854528
	Al8948	Al	0.129675	0.906037	0.843837
	Al8949	Al	0.379629	0.968499	0.781292
	Al8950	Al	0.129649	0.968531	0.781289
	Al8951	Al	0.379627	0.906027	0.843781
	C8952	C	0.093657	0.994945	0.752195
	C8953	C	0.343749	0.932427	0.814544
	C8954	C	0.095439	0.878351	0.869420
	C8955	C	0.344926	0.940825	0.806819
	C8956	C	0.412136	0.929560	0.886625
	C8957	C	0.161885	0.991895	0.824428
	C8958	C	0.417711	0.946510	0.735655
	C8959	C	0.167828	0.884080	0.798076
	C8960	C	0.415317	0.879595	0.872946
	C8961	C	0.165279	0.942117	0.810473
	C8962	C	0.414056	0.996160	0.755576
	C8963	C	0.164088	0.933721	0.818192
	C8964	C	0.097076	0.945207	0.737953
	C8965	C	0.347301	0.882624	0.800757
	C8966	C	0.091207	0.927888	0.889751
	C8967	C	0.341373	0.990508	0.826900
	C8968	C	0.003208	0.991313	0.757836
	C8969	C	0.253277	0.928801	0.820240
	C8970	C	0.006157	0.883256	0.867299
	C8971	C	0.255664	0.945721	0.804690
	C8972	C	0.001679	0.925139	0.881478
	C8973	C	0.251666	0.987591	0.819000
	C8974	C	0.007354	0.949464	0.743474
	C8975	C	0.257475	0.886966	0.806072
	C8976	C	0.002895	0.982344	0.766259
	C8977	C	0.252541	0.919842	0.828720
	C8978	C	0.006899	0.892203	0.858799
	C8979	C	0.256483	0.954693	0.796286
	C8980	C	0.001933	0.917591	0.867343
	C8981	C	0.251961	0.980046	0.804875
	C8982	C	0.006926	0.956972	0.757666
	C8983	C	0.257107	0.894476	0.820255
	H8984	H	0.162474	0.991161	0.753842
	H8985	H	0.412712	0.928642	0.816113
	H8986	H	0.165239	0.881110	0.864944
	H8987	H	0.414655	0.943596	0.802357
	H8988	H	0.342806	0.927516	0.880248
	H8989	H	0.092444	0.989729	0.818324
	H8990	H	0.348205	0.949792	0.739753
	H8991	H	0.098176	0.887413	0.802052
	H8992	H	0.346317	0.883373	0.871383
	H8993	H	0.096424	0.945942	0.809023
	H8994	H	0.344391	0.993410	0.760072
	H8995	H	0.094385	0.930987	0.822763
	H8996	H	0.166389	0.947410	0.744005
	H8997	H	0.416764	0.884742	0.806928
	H8998	H	0.160749	0.924439	0.885996
	H8999	H	0.410863	0.987190	0.822839
	O9000	O	0.587142	0.978532	0.768780
	O9001	O	0.837127	0.916051	0.831241
	O9002	O	0.591338	0.895433	0.854831
	O9003	O	0.841319	0.957926	0.792393
	O9004	O	0.917536	0.914957	0.861308
	O9005	O	0.667609	0.977377	0.798859
	O9006	O	0.922132	0.960221	0.762686
	O9007	O	0.672326	0.897760	0.825243
	O9008	O	0.922480	0.895988	0.856266
	O9009	O	0.671996	0.958481	0.793754
	O9010	O	0.918180	0.979100	0.770223
	O9011	O	0.667914	0.916610	0.832735
	O9012	O	0.591341	0.959643	0.763677
	O9013	O	0.841462	0.897119	0.826241
	O9014	O	0.586807	0.914284	0.862343
	O9015	O	0.836730	0.976785	0.799772
	F9016	F	0.504801	0.906712	0.833088
	F9017	F	0.754853	0.969159	0.770561
	F9018	F	0.504388	0.967843	0.792010
	F9019	F	0.754742	0.905360	0.854491
	Al9020	Al	0.629813	0.906029	0.843782
	Al9021	Al	0.879756	0.968500	0.781303
	Al9022	Al	0.629615	0.968506	0.781282
	Al9023	Al	0.879913	0.906033	0.843759
	C9024	C	0.593650	0.994913	0.752105
	C9025	C	0.843614	0.932418	0.814534
	C9026	C	0.595024	0.878323	0.869349
	C9027	C	0.844817	0.940812	0.806813
	C9028	C	0.911886	0.929605	0.886620
	C9029	C	0.661821	0.991912	0.824341
	C9030	C	0.917747	0.946510	0.735635
	C9031	C	0.667650	0.884085	0.798048
	C9032	C	0.915513	0.879593	0.872883
	C9033	C	0.665126	0.942110	0.810482
	C9034	C	0.913904	0.996185	0.755628
	C9035	C	0.663885	0.933710	0.818201
	C9036	C	0.597004	0.945171	0.738021
	C9037	C	0.847015	0.882641	0.800661
	C9038	C	0.591547	0.927858	0.889735
	C9039	C	0.841205	0.990487	0.826900
	C9040	C	0.503190	0.991270	0.757757
	C9041	C	0.753148	0.928791	0.820244
	C9042	C	0.505792	0.883246	0.867305
	C9043	C	0.755527	0.945723	0.804732
	C9044	C	0.501906	0.925102	0.881482
	C9045	C	0.751660	0.987581	0.818984
	C9046	C	0.507271	0.949463	0.743495
	C9047	C	0.757215	0.886960	0.806047
	C9048	C	0.502577	0.982331	0.766292
	C9049	C	0.752542	0.919832	0.828703
	C9050	C	0.506596	0.892201	0.858809
	C9051	C	0.756494	0.954693	0.796326
	C9052	C	0.502157	0.917591	0.867335
	C9053	C	0.752043	0.980060	0.804811
	C9054	C	0.506947	0.956980	0.757675
	C9055	C	0.757020	0.894480	0.820208
	H9056	H	0.662531	0.991138	0.753717
	H9057	H	0.912487	0.928613	0.816037
	H9058	H	0.664665	0.881076	0.864788
	H9059	H	0.914600	0.943562	0.802281
	H9060	H	0.842439	0.927573	0.880257
	H9061	H	0.592557	0.989748	0.818174
	H9062	H	0.848201	0.949783	0.739752
	H9063	H	0.597982	0.887418	0.801985
	H9064	H	0.846476	0.883373	0.871259
	H9065	H	0.596182	0.945913	0.808979
	H9066	H	0.844303	0.993417	0.760103
	H9067	H	0.594177	0.930960	0.822741
	H9068	H	0.666370	0.947355	0.744107
	H9069	H	0.916479	0.884781	0.806776
	H9070	H	0.661177	0.924420	0.885962
	H9071	H	0.910814	0.987171	0.822880
	O9072	O	0.081426	0.968599	0.932344
	O9073	O	0.331181	0.906096	0.994784
	O9074	O	0.085769	0.885735	1.019145
	O9075	O	0.335593	0.948176	0.956570
	O9076	O	0.412098	0.905498	1.024345
	O9077	O	0.161604	0.967964	0.961910
	O9078	O	0.416602	0.950298	0.926863
	O9079	O	0.166631	0.887741	0.989468
	O9080	O	0.416302	0.886300	1.020571
	O9081	O	0.166326	0.948769	0.958048
	O9082	O	0.411866	0.969217	0.933946
	O9083	O	0.161955	0.906695	0.996323
	O9084	O	0.085540	0.949618	0.927995
	O9085	O	0.335668	0.887137	0.990445
	O9086	O	0.081159	0.904945	1.025380
	O9087	O	0.330793	0.967395	0.962980
	F9088	F	-0.001020	0.896699	0.996832
	F9089	F	0.249088	0.959196	0.934364
	F9090	F	-0.001430	0.958158	0.956000
	F9091	F	0.248807	0.895691	1.018465
	Al9092	Al	0.123986	0.896210	1.007693
	Al9093	Al	0.373671	0.958686	0.945230
	Al9094	Al	0.123840	0.958666	0.945188
	Al9095	Al	0.373862	0.896180	1.007662
	C9096	C	0.088107	0.985091	0.915925
	C9097	C	0.337978	0.922583	0.978394
	C9098	C	0.089369	0.868586	1.033475
	C9099	C	0.339252	0.931024	0.970847
	C9100	C	0.406642	0.921316	1.046575
	C9101	C	0.155977	0.983748	0.984237
	C9102	C	0.411877	0.936621	0.899697
	C9103	C	0.162096	0.873920	0.962582
	C9104	C	0.409660	0.869826	1.037021
	C9105	C	0.159663	0.932340	0.974704
	C9106	C	0.408319	0.986391	0.919716
	C9107	C	0.158351	0.923895	0.982253
	C9108	C	0.090992	0.934954	0.902798
	C9109	C	0.341246	0.872631	0.964854
	C9110	C	0.085722	0.920105	1.049347
	C9111	C	0.335421	0.982633	0.986727
	C9112	C	-0.002307	0.981462	0.921679
	C9113	C	0.247511	0.918929	0.984071
	C9114	C	0.000088	0.873499	1.031440
	C9115	C	0.250004	0.935958	0.968901
	C9116	C	-0.003960	0.916717	1.042195
	C9117	C	0.245741	0.979203	0.979728
	C9118	C	0.001314	0.939430	0.907879
	C9119	C	0.251545	0.876884	0.970413
	C9120	C	-0.003019	0.972442	0.929968
	C9121	C	0.246708	0.909921	0.992355
	C9122	C	0.001048	0.882487	1.023066
	C9123	C	0.250814	0.944942	0.960509
	C9124	C	-0.003604	0.908454	1.029744
	C9125	C	0.246079	0.970934	0.967281
	C9126	C	0.001038	0.946984	0.921970
	C9127	C	0.251315	0.884442	0.984485
	H9128	H	0.156989	0.981249	0.917279
	H9129	H	0.406861	0.918759	0.979824
	H9130	H	0.159102	0.871375	1.029059
	H9131	H	0.409107	0.933793	0.966367
	H9132	H	0.337298	0.918797	1.041002
	H9133	H	0.086605	0.981158	0.978822
	H9134	H	0.342535	0.940082	0.903493
	H9135	H	0.092622	0.877190	0.966697
	H9136	H	0.340824	0.873629	1.035504
	H9137	H	0.090810	0.936189	0.973404
	H9138	H	0.338670	0.983652	0.924290
	H9139	H	0.088703	0.921160	0.986873
	H9140	H	0.160351	0.936994	0.909174
	H9141	H	0.410598	0.874849	0.970873
	H9142	H	0.155291	0.916574	1.046124
	H9143	H	0.404772	0.979123	0.983364
	O9144	O	0.581046	0.968601	0.932378
	O9145	O	0.831334	0.906109	0.994829
	O9146	O	0.585592	0.885710	1.019082
	O9147	O	0.835324	0.948210	0.956635
	O9148	O	0.911914	0.905461	1.024396
	O9149	O	0.661635	0.967982	0.961905
	O9150	O	0.916457	0.950290	0.926907
	O9151	O	0.666393	0.887751	0.989470
	O9152	O	0.916586	0.886285	1.020537
	O9153	O	0.666089	0.948769	0.958097
	O9154	O	0.912212	0.969211	0.933879
	O9155	O	0.662016	0.906703	0.996321
	O9156	O	0.585698	0.949583	0.928004
	O9157	O	0.835365	0.887145	0.990371
	O9158	O	0.581196	0.904934	1.025376
	O9159	O	0.830776	0.967429	0.962919
	F9160	F	0.499010	0.896711	0.996849
	F9161	F	0.748861	0.959204	0.934383
	F9162	F	0.498517	0.958138	0.955996
	F9163	F	0.748837	0.895655	1.018452
	Al9164	Al	0.623877	0.896195	1.007687
	Al9165	Al	0.873829	0.958703	0.945198
	Al9166	Al	0.623731	0.958670	0.945196
	Al9167	Al	0.874108	0.896179	1.007635
	C9168	C	0.587756	0.985064	0.915867
	C9169	C	0.837927	0.922580	0.978377
	C9170	C	0.589477	0.868589	1.033459
	C9171	C	0.839040	0.931024	0.970842
	C9172	C	0.906213	0.921317	1.046541
	C9173	C	0.656138	0.983761	0.984154
	C9174	C	0.911655	0.936666	0.899665
	C9175	C	0.661741	0.873928	0.962542
	C9176	C	0.909729	0.869831	1.037098
	C9177	C	0.659555	0.932346	0.974752
	C9178	C	0.908473	0.986414	0.919777
	C9179	C	0.658424	0.923904	0.982297
	C9180	C	0.591341	0.934918	0.902808
	C9181	C	0.841052	0.872648	0.964858
	C9182	C	0.585977	0.920082	1.049433
	C9183	C	0.835481	0.982623	0.986735
	C9184	C	0.497381	0.981434	0.921613
	C9185	C	0.747521	0.918935	0.984074
	C9186	C	0.500064	0.873498	1.031430
	C9187	C	0.749845	0.935966	0.968940
	C9188	C	0.496343	0.916705	1.042245
	C9189	C	0.745878	0.979195	0.979747
	C9190	C	0.501486	0.939375	0.907905
	C9191	C	0.751224	0.876891	0.970380
	C9192	C	0.496629	0.972442	0.929970
	C9193	C	0.746815	0.909933	0.992384
	C9194	C	0.500783	0.882482	1.023034
	C9195	C	0.750607	0.944954	0.960560
	C9196	C	0.496558	0.908460	1.029735
	C9197	C	0.746124	0.970952	0.967267
	C9198	C	0.501241	0.946947	0.921971
	C9199	C	0.750932	0.884457	0.984445
	H9200	H	0.656646	0.981240	0.917259
	H9201	H	0.906737	0.918751	0.979743
	H9202	H	0.659181	0.871386	1.029013
	H9203	H	0.908667	0.933783	0.966283
	H9204	H	0.836826	0.918786	1.040994
	H9205	H	0.586857	0.981182	0.978661
	H9206	H	0.842159	0.940125	0.903442
	H9207	H	0.592305	0.877222	0.966645
	H9208	H	0.840858	0.873640	1.035645
	H9209	H	0.590674	0.936189	0.973428
	H9210	H	0.838807	0.983655	0.924327
	H9211	H	0.588801	0.921162	0.986919
	H9212	H	0.660697	0.936966	0.909173
	H9213	H	0.910288	0.874890	0.970892
	H9214	H	0.655544	0.916544	1.046228
	H9215	H	0.904805	0.979110	0.983373
