data_Molecule from HDF5

_cell_length_a		13.371472
_cell_length_b		143.218723
_cell_length_c		81.979293
_cell_angle_alpha	87.181640
_cell_angle_beta	89.899601
_cell_angle_gamma	90.350583
_symmetry_space_group_name_H-M	'P 1'
_symmetry_Int_Tables_number		1

loop_
	_symmetry_equiv_pos_as_xyz
	x,y,z

loop_
	_atom_site_label
	_atom_site_type_symbol
	_atom_site_fract_x
	_atom_site_fract_y
	_atom_site_fract_z
	O0	O	0.080902	0.117698	0.078475
	O1	O	0.337604	0.047462	0.106562
	O2	O	0.084449	0.024228	0.125572
	O3	O	0.327711	0.096196	0.103036
	O4	O	0.417881	0.044792	0.130398
	O5	O	0.161751	0.116620	0.105218
	O6	O	0.408881	0.097377	0.078371
	O7	O	0.165705	0.026438	0.101302
	O8	O	0.414869	0.023982	0.124568
	O9	O	0.158407	0.095832	0.102046
	O10	O	0.412210	0.117288	0.077522
	O11	O	0.168388	0.047139	0.105643
	O12	O	0.077875	0.097807	0.077605
	O13	O	0.334908	0.026780	0.100735
	O14	O	0.086675	0.045077	0.129815
	O15	O	0.331014	0.117039	0.104321
	F16	F	0.001681	0.036807	0.105392
	F17	F	0.244793	0.107687	0.081227
	F18	F	-0.004968	0.106737	0.101678
	F19	F	0.251207	0.034655	0.125886
	Al20	Al	0.126523	0.035711	0.115666
	Al21	Al	0.369699	0.107194	0.091418
	Al22	Al	0.119851	0.107201	0.091511
	Al23	Al	0.376352	0.035746	0.115647
	C24	C	0.086325	0.134454	0.059426
	C25	C	0.339545	0.067020	0.105641
	C26	C	0.093109	0.004742	0.126719
	C27	C	0.337148	0.076715	0.105796
	C28	C	0.411591	0.062298	0.144524
	C29	C	0.155563	0.133652	0.120499
	C30	C	0.404900	0.079799	0.064923
	C31	C	0.161470	0.008667	0.088135
	C32	C	0.412855	0.004470	0.124204
	C33	C	0.156960	0.076287	0.103168
	C34	C	0.407118	0.133442	0.057067
	C35	C	0.159366	0.066590	0.103038
	C36	C	0.084270	0.080766	0.062358
	C37	C	0.341426	0.009433	0.086013
	C38	C	0.091083	0.062910	0.142714
	C39	C	0.335332	0.134586	0.117920
	C40	C	-0.003258	0.129754	0.063302
	C41	C	0.250743	0.061840	0.104242
	C42	C	0.001773	0.009543	0.125911
	C43	C	0.245819	0.081474	0.104525
	C44	C	0.001462	0.057931	0.140618
	C45	C	0.245840	0.129639	0.115835
	C46	C	-0.006144	0.084803	0.067002
	C47	C	0.251037	0.013666	0.090208
	C48	C	-0.003431	0.120968	0.073929
	C49	C	0.252438	0.051384	0.105530
	C50	C	0.000302	0.020013	0.125368
	C51	C	0.243759	0.091931	0.103140
	C52	C	0.001899	0.048536	0.133138
	C53	C	0.246202	0.120424	0.107897
	C54	C	-0.006570	0.094010	0.074891
	C55	C	0.250544	0.022988	0.097894
	H56	H	0.155702	0.131709	0.064276
	H57	H	0.410534	0.063427	0.106667
	H58	H	0.162339	0.008603	0.128131
	H59	H	0.406250	0.080642	0.106922
	H60	H	0.341608	0.058587	0.142985
	H61	H	0.086072	0.129896	0.118889
	H62	H	0.334687	0.082764	0.068644
	H63	H	0.090882	0.011795	0.091276
	H64	H	0.341945	0.008094	0.123527
	H65	H	0.086099	0.079884	0.102148
	H66	H	0.337685	0.129840	0.059933
	H67	H	0.090327	0.062665	0.101953
	H68	H	0.153941	0.084509	0.063968
	H69	H	0.411384	0.013183	0.087411
	H70	H	0.161609	0.059745	0.139632
	H71	H	0.405230	0.131592	0.114127
	O72	O	0.580989	0.117698	0.078374
	O73	O	0.837520	0.047499	0.106704
	O74	O	0.584240	0.024290	0.125653
	O75	O	0.827061	0.096201	0.103197
	O76	O	0.917571	0.044680	0.130525
	O77	O	0.661101	0.116624	0.105210
	O78	O	0.908613	0.097425	0.078358
	O79	O	0.664953	0.026414	0.101372
	O80	O	0.915009	0.023967	0.124557
	O81	O	0.657822	0.095819	0.101982
	O82	O	0.912196	0.117275	0.077561
	O83	O	0.668411	0.047135	0.105526
	O84	O	0.578064	0.097817	0.077509
	O85	O	0.834156	0.026778	0.100707
	O86	O	0.587149	0.045099	0.129806
	O87	O	0.830395	0.117032	0.104459
	F88	F	0.501527	0.036838	0.105426
	F89	F	0.745039	0.107699	0.081269
	F90	F	0.494551	0.106731	0.101545
	F91	F	0.751238	0.034615	0.125841
	Al92	Al	0.626259	0.035727	0.115686
	Al93	Al	0.869856	0.107192	0.091525
	Al94	Al	0.619770	0.107194	0.091453
	Al95	Al	0.876594	0.035723	0.115641
	C96	C	0.586331	0.134493	0.059495
	C97	C	0.839151	0.067035	0.105773
	C98	C	0.593191	0.004801	0.126784
	C99	C	0.836506	0.076732	0.105919
	C100	C	0.911081	0.062235	0.144629
	C101	C	0.654764	0.133660	0.120485
	C102	C	0.904298	0.079847	0.064830
	C103	C	0.660684	0.008659	0.088165
	C104	C	0.912741	0.004427	0.124139
	C105	C	0.656478	0.076297	0.103049
	C106	C	0.907156	0.133438	0.057061
	C107	C	0.659111	0.066604	0.102907
	C108	C	0.584647	0.080784	0.062259
	C109	C	0.840699	0.009429	0.086012
	C110	C	0.591655	0.062964	0.142601
	C111	C	0.834744	0.134512	0.118129
	C112	C	0.496677	0.129777	0.063332
	C113	C	0.750447	0.061853	0.104250
	C114	C	0.501804	0.009587	0.125982
	C115	C	0.745207	0.081479	0.104518
	C116	C	0.501999	0.057996	0.140526
	C117	C	0.745050	0.129629	0.115846
	C118	C	0.494317	0.084789	0.066997
	C119	C	0.750247	0.013647	0.090240
	C120	C	0.496651	0.120972	0.073876
	C121	C	0.752300	0.051398	0.105541
	C122	C	0.500130	0.020055	0.125425
	C123	C	0.743165	0.091933	0.103166
	C124	C	0.502400	0.048602	0.133094
	C125	C	0.745528	0.120432	0.107923
	C126	C	0.493700	0.094006	0.074833
	C127	C	0.749711	0.022971	0.097932
	H128	H	0.655730	0.131754	0.064384
	H129	H	0.910017	0.063454	0.106891
	H130	H	0.662295	0.008677	0.128217
	H131	H	0.905406	0.080652	0.107140
	H132	H	0.841071	0.058513	0.143138
	H133	H	0.585285	0.129915	0.118855
	H134	H	0.833999	0.082834	0.068481
	H135	H	0.590029	0.011786	0.091310
	H136	H	0.841744	0.008047	0.123477
	H137	H	0.585566	0.079899	0.101930
	H138	H	0.837690	0.129852	0.059945
	H139	H	0.590271	0.062669	0.101696
	H140	H	0.654236	0.084543	0.063789
	H141	H	0.910599	0.013186	0.087405
	H142	H	0.662199	0.059801	0.139489
	H143	H	0.904797	0.131480	0.114495
	O144	O	0.087709	0.109957	0.169082
	O145	O	0.342819	0.038092	0.188031
	O146	O	0.089207	0.014912	0.206847
	O147	O	0.334315	0.086745	0.188014
	O148	O	0.422902	0.035276	0.211899
	O149	O	0.167878	0.107274	0.192871
	O150	O	0.415474	0.088944	0.163808
	O151	O	0.170760	0.016973	0.182712
	O152	O	0.419952	0.014582	0.206007
	O153	O	0.165061	0.086480	0.187070
	O154	O	0.418402	0.109644	0.168051
	O155	O	0.173565	0.037824	0.187058
	O156	O	0.084325	0.089254	0.163241
	O157	O	0.339918	0.017305	0.182130
	O158	O	0.091717	0.035606	0.211215
	O159	O	0.336948	0.107596	0.192301
	F160	F	0.006822	0.027446	0.186563
	F161	F	0.251290	0.099321	0.167877
	F162	F	0.001337	0.097105	0.188370
	F163	F	0.255975	0.025216	0.207174
	Al164	Al	0.131316	0.026334	0.196844
	Al165	Al	0.376207	0.098228	0.178140
	Al166	Al	0.126345	0.098218	0.178135
	Al167	Al	0.381222	0.026320	0.196969
	C168	C	0.089396	0.129519	0.167941
	C169	C	0.345239	0.057610	0.188271
	C170	C	0.098410	-0.004529	0.209629
	C171	C	0.343011	0.067271	0.189188
	C172	C	0.416636	0.052677	0.226456
	C173	C	0.161633	0.124808	0.206905
	C174	C	0.410977	0.071233	0.150523
	C175	C	0.166499	-0.000923	0.170029
	C176	C	0.418567	-0.004985	0.206750
	C177	C	0.162721	0.066963	0.186743
	C178	C	0.409390	0.129104	0.165540
	C179	C	0.164926	0.057302	0.185828
	C180	C	0.090630	0.071863	0.148666
	C181	C	0.346459	-0.000174	0.167918
	C182	C	0.096376	0.053363	0.224459
	C183	C	0.341668	0.125437	0.205180
	C184	C	0.000571	0.124327	0.166664
	C185	C	0.256199	0.052498	0.186574
	C186	C	0.006924	0.000215	0.208254
	C187	C	0.251705	0.072074	0.188470
	C188	C	0.006717	0.048403	0.222292
	C189	C	0.252012	0.120481	0.202970
	C190	C	0.000324	0.076140	0.152728
	C191	C	0.256049	0.004097	0.172008
	C192	C	0.002553	0.113869	0.167963
	C193	C	0.257720	0.042041	0.187179
	C194	C	0.005192	0.010675	0.206933
	C195	C	0.250141	0.082533	0.187900
	C196	C	0.007011	0.039070	0.214602
	C197	C	0.252278	0.111109	0.195536
	C198	C	-0.000048	0.085487	0.160388
	C199	C	0.255546	0.013482	0.179428
	H200	H	0.160454	0.125933	0.168890
	H201	H	0.416189	0.053995	0.188900
	H202	H	0.167370	-0.000593	0.210870
	H203	H	0.412275	0.071140	0.190521
	H204	H	0.346650	0.048949	0.224998
	H205	H	0.091600	0.121110	0.205290
	H206	H	0.340484	0.074394	0.153613
	H207	H	0.095877	0.002207	0.173217
	H208	H	0.347587	-0.001407	0.205570
	H209	H	0.091803	0.070577	0.186119
	H210	H	0.340390	0.125181	0.164460
	H211	H	0.095742	0.053442	0.184485
	H212	H	0.160617	0.075583	0.150144
	H213	H	0.416442	0.003570	0.169346
	H214	H	0.166924	0.050203	0.221365
	H215	H	0.412252	0.122258	0.202166
	O216	O	0.587622	0.109964	0.169107
	O217	O	0.842314	0.038099	0.187864
	O218	O	0.589136	0.014916	0.207048
	O219	O	0.833997	0.086692	0.187972
	O220	O	0.922600	0.035276	0.211769
	O221	O	0.667657	0.107260	0.192928
	O222	O	0.915198	0.088984	0.163683
	O223	O	0.669859	0.016923	0.182814
	O224	O	0.919988	0.014611	0.205893
	O225	O	0.664640	0.086449	0.187061
	O226	O	0.918555	0.109618	0.168031
	O227	O	0.673051	0.037790	0.186999
	O228	O	0.584630	0.089283	0.163238
	O229	O	0.839055	0.017300	0.182019
	O230	O	0.592044	0.035609	0.211275
	O231	O	0.836682	0.107627	0.192231
	F232	F	0.506300	0.027420	0.186763
	F233	F	0.751498	0.099325	0.167928
	F234	F	0.501056	0.097147	0.188347
	F235	F	0.756366	0.025249	0.207064
	Al236	Al	0.631284	0.026321	0.196921
	Al237	Al	0.876572	0.098207	0.178139
	Al238	Al	0.626283	0.098239	0.178145
	Al239	Al	0.881637	0.026340	0.196795
	C240	C	0.589569	0.129523	0.168028
	C241	C	0.844404	0.057592	0.188266
	C242	C	0.598627	-0.004528	0.209794
	C243	C	0.842318	0.067251	0.189211
	C244	C	0.916350	0.052678	0.226448
	C245	C	0.661068	0.124779	0.206974
	C246	C	0.910611	0.071182	0.150548
	C247	C	0.665554	-0.000965	0.170098
	C248	C	0.918296	-0.004989	0.206699
	C249	C	0.662035	0.066931	0.186716
	C250	C	0.909094	0.129087	0.165440
	C251	C	0.664199	0.057272	0.185772
	C252	C	0.590960	0.071898	0.148603
	C253	C	0.845425	-0.000157	0.167788
	C254	C	0.596677	0.053369	0.224486
	C255	C	0.841063	0.125463	0.205095
	C256	C	0.500726	0.124344	0.166742
	C257	C	0.755464	0.052477	0.186526
	C258	C	0.507125	0.000216	0.208357
	C259	C	0.751048	0.072043	0.188477
	C260	C	0.506978	0.048400	0.222348
	C261	C	0.751474	0.120473	0.202986
	C262	C	0.500634	0.076181	0.152680
	C263	C	0.755018	0.004076	0.171986
	C264	C	0.502483	0.113887	0.168020
	C265	C	0.757106	0.042021	0.187097
	C266	C	0.505138	0.010665	0.207090
	C267	C	0.749710	0.082495	0.187875
	C268	C	0.507329	0.039077	0.214677
	C269	C	0.751962	0.111102	0.195567
	C270	C	0.500246	0.085497	0.160386
	C271	C	0.754595	0.013458	0.179431
	H272	H	0.660516	0.125933	0.168978
	H273	H	0.915354	0.053978	0.188912
	H274	H	0.667506	-0.000591	0.211108
	H275	H	0.911499	0.071110	0.190572
	H276	H	0.846382	0.048945	0.224983
	H277	H	0.591090	0.121064	0.205432
	H278	H	0.840168	0.074374	0.153616
	H279	H	0.595020	0.002139	0.173378
	H280	H	0.847287	-0.001407	0.205541
	H281	H	0.591199	0.070552	0.186056
	H282	H	0.840054	0.125155	0.164336
	H283	H	0.595011	0.053402	0.184391
	H284	H	0.660951	0.075619	0.150114
	H285	H	0.915331	0.003608	0.169157
	H286	H	0.667231	0.050201	0.221410
	H287	H	0.911604	0.122305	0.201989
	O288	O	0.092950	0.100586	0.250368
	O289	O	0.349555	0.028717	0.272966
	O290	O	0.095578	0.007252	0.297408
	O291	O	0.340001	0.077409	0.269283
	O292	O	0.429819	0.026780	0.297426
	O293	O	0.173297	0.097788	0.274254
	O294	O	0.420956	0.079537	0.245054
	O295	O	0.177341	0.007488	0.270719
	O296	O	0.427093	0.006882	0.296598
	O297	O	0.170788	0.077095	0.268404
	O298	O	0.423721	0.100316	0.249440
	O299	O	0.180180	0.028378	0.272007
	O300	O	0.089829	0.079766	0.244671
	O301	O	0.346324	0.007958	0.269778
	O302	O	0.098667	0.027143	0.296672
	O303	O	0.342336	0.098142	0.273604
	F304	F	0.013618	0.017821	0.273372
	F305	F	0.256648	0.089930	0.249071
	F306	F	0.006908	0.087742	0.269653
	F307	F	0.262919	0.016869	0.293813
	Al308	Al	0.138236	0.017363	0.283554
	Al309	Al	0.381593	0.088850	0.259294
	Al310	Al	0.131797	0.088833	0.259354
	Al311	Al	0.388074	0.017379	0.283547
	C312	C	0.095084	0.120117	0.250539
	C313	C	0.351221	0.048258	0.271942
	C314	C	0.100728	-0.008980	0.317633
	C315	C	0.348859	0.057958	0.272044
	C316	C	0.423703	0.043843	0.312618
	C317	C	0.166688	0.115191	0.288819
	C318	C	0.416129	0.061639	0.232381
	C319	C	0.173114	-0.010055	0.257179
	C320	C	0.422072	-0.009848	0.315758
	C321	C	0.168739	0.057534	0.269379
	C322	C	0.414768	0.119779	0.248409
	C323	C	0.171090	0.047842	0.269263
	C324	C	0.095700	0.062308	0.230452
	C325	C	0.352808	-0.009034	0.254325
	C326	C	0.103064	0.044672	0.310307
	C327	C	0.346755	0.115839	0.287039
	C328	C	0.006067	0.114982	0.248990
	C329	C	0.262471	0.043081	0.270499
	C330	C	0.010942	-0.005235	0.311638
	C331	C	0.257546	0.062713	0.270744
	C332	C	0.013462	0.039763	0.308053
	C333	C	0.257084	0.110905	0.284758
	C334	C	0.005362	0.066590	0.234488
	C335	C	0.262593	-0.005067	0.259227
	C336	C	0.007814	0.104527	0.249573
	C337	C	0.264281	0.032629	0.271859
	C338	C	0.011108	0.003574	0.301088
	C339	C	0.255935	0.073168	0.269441
	C340	C	0.013962	0.030556	0.300173
	C341	C	0.257606	0.101598	0.277034
	C342	C	0.005308	0.075983	0.241945
	C343	C	0.262067	0.004109	0.267166
	H344	H	0.166191	0.116521	0.251041
	H345	H	0.421964	0.044652	0.273028
	H346	H	0.170109	-0.005443	0.314561
	H347	H	0.417700	0.061882	0.273197
	H348	H	0.354191	0.040132	0.310924
	H349	H	0.096782	0.111474	0.287262
	H350	H	0.345753	0.064817	0.235486
	H351	H	0.103058	-0.007112	0.261035
	H352	H	0.352729	-0.007045	0.311078
	H353	H	0.097761	0.061115	0.268342
	H354	H	0.345498	0.115911	0.247119
	H355	H	0.101956	0.043926	0.268163
	H356	H	0.165646	0.066034	0.231959
	H357	H	0.422335	-0.005243	0.255771
	H358	H	0.173157	0.041642	0.306730
	H359	H	0.417242	0.112648	0.284020
	O360	O	0.592946	0.100601	0.250407
	O361	O	0.849185	0.028769	0.272863
	O362	O	0.595895	0.007266	0.297386
	O363	O	0.839026	0.077403	0.269505
	O364	O	0.929469	0.026765	0.297430
	O365	O	0.672721	0.097814	0.274284
	O366	O	0.920659	0.079514	0.245218
	O367	O	0.676859	0.007536	0.270583
	O368	O	0.926758	0.006877	0.296589
	O369	O	0.669886	0.077120	0.268433
	O370	O	0.923726	0.100290	0.249451
	O371	O	0.679778	0.028379	0.271910
	O372	O	0.590136	0.079815	0.244564
	O373	O	0.846005	0.007958	0.269736
	O374	O	0.599025	0.027169	0.296659
	O375	O	0.841844	0.098144	0.273791
	F376	F	0.513094	0.017830	0.273404
	F377	F	0.756873	0.089918	0.249239
	F378	F	0.506458	0.087753	0.269568
	F379	F	0.762958	0.016886	0.293714
	Al380	Al	0.638010	0.017370	0.283508
	Al381	Al	0.882058	0.088832	0.259444
	Al382	Al	0.631601	0.088832	0.259366
	Al383	Al	0.888238	0.017380	0.283497
	C384	C	0.595167	0.120131	0.250631
	C385	C	0.850586	0.048268	0.272019
	C386	C	0.601207	-0.008959	0.317661
	C387	C	0.848000	0.057963	0.272181
	C388	C	0.923189	0.043854	0.312582
	C389	C	0.666240	0.115188	0.288827
	C390	C	0.915655	0.061615	0.232449
	C391	C	0.672752	-0.009987	0.257008
	C392	C	0.921398	-0.009860	0.315751
	C393	C	0.667886	0.057542	0.269319
	C394	C	0.914608	0.119783	0.248362
	C395	C	0.670443	0.047852	0.269155
	C396	C	0.596159	0.062332	0.230409
	C397	C	0.852715	-0.009056	0.254496
	C398	C	0.603438	0.044687	0.310306
	C399	C	0.846367	0.115844	0.287045
	C400	C	0.506165	0.114980	0.249056
	C401	C	0.761801	0.043099	0.270507
	C402	C	0.511545	-0.005212	0.311658
	C403	C	0.756558	0.062719	0.270833
	C404	C	0.513942	0.039778	0.308062
	C405	C	0.756663	0.110899	0.284801
	C406	C	0.505814	0.066616	0.234420
	C407	C	0.762301	-0.005041	0.259181
	C408	C	0.507825	0.104539	0.249605
	C409	C	0.763746	0.032652	0.271793
	C410	C	0.511417	0.003597	0.301089
	C411	C	0.754859	0.073179	0.269552
	C412	C	0.514255	0.030582	0.300111
	C413	C	0.757071	0.101601	0.277140
	C414	C	0.505656	0.076010	0.241843
	C415	C	0.761639	0.004145	0.267078
	H416	H	0.666334	0.116540	0.251137
	H417	H	0.921397	0.044667	0.273134
	H418	H	0.670578	-0.005433	0.314564
	H419	H	0.916833	0.061899	0.273395
	H420	H	0.853488	0.040156	0.310903
	H421	H	0.596339	0.111465	0.287261
	H422	H	0.845204	0.064770	0.235611
	H423	H	0.602624	-0.006991	0.260708
	H424	H	0.851918	-0.007044	0.311129
	H425	H	0.596971	0.061123	0.268214
	H426	H	0.845273	0.115912	0.247093
	H427	H	0.601499	0.043936	0.267909
	H428	H	0.666086	0.066076	0.231864
	H429	H	0.922274	-0.005290	0.256059
	H430	H	0.673359	0.041660	0.306693
	H431	H	0.916939	0.112673	0.284011
	O432	O	0.099735	0.091238	0.335501
	O433	O	0.346116	0.029037	0.410167
	O434	O	0.092997	0.010403	0.441390
	O435	O	0.346415	0.069758	0.359883
	O436	O	0.426861	0.029514	0.437382
	O437	O	0.180009	0.089288	0.359916
	O438	O	0.427720	0.070070	0.333080
	O439	O	0.174460	0.009001	0.413886
	O440	O	0.424258	0.010036	0.440795
	O441	O	0.177643	0.069356	0.359040
	O442	O	0.430633	0.090868	0.334440
	O443	O	0.177120	0.028711	0.409536
	O444	O	0.096680	0.070455	0.332269
	O445	O	0.343576	0.009377	0.413074
	O446	O	0.095869	0.029806	0.436713
	O447	O	0.349093	0.089664	0.359155
	F448	F	0.010441	0.019082	0.415340
	F449	F	0.263513	0.080359	0.335922
	F450	F	0.013151	0.079352	0.356289
	F451	F	0.260171	0.019761	0.435212
	Al452	Al	0.135281	0.019414	0.425257
	Al453	Al	0.388551	0.079877	0.346005
	Al454	Al	0.138485	0.079861	0.346028
	Al455	Al	0.385259	0.019427	0.425258
	C456	C	0.101035	0.110751	0.334329
	C457	C	0.351703	0.045440	0.390276
	C458	C	0.097684	-0.004198	0.465241
	C459	C	0.351579	0.053573	0.380283
	C460	C	0.421102	0.046074	0.453610
	C461	C	0.173791	0.106318	0.375163
	C462	C	0.423207	0.052562	0.319380
	C463	C	0.169890	-0.008088	0.399033
	C464	C	0.418568	-0.004985	0.463903
	C465	C	0.172137	0.052645	0.378136
	C466	C	0.420939	0.110329	0.331812
	C467	C	0.172344	0.044517	0.388130
	C468	C	0.102578	0.053414	0.317025
	C469	C	0.349470	-0.007057	0.396451
	C470	C	0.100347	0.046910	0.451573
	C471	C	0.353570	0.107191	0.372775
	C472	C	0.012262	0.105567	0.332897
	C473	C	0.261996	0.040832	0.394346
	C474	C	0.007997	-0.000805	0.458627
	C475	C	0.261862	0.057280	0.374137
	C476	C	0.010900	0.042192	0.448666
	C477	C	0.264038	0.102258	0.370529
	C478	C	0.012388	0.057477	0.321614
	C479	C	0.259360	-0.003295	0.401694
	C480	C	0.014493	0.095119	0.334288
	C481	C	0.261757	0.032249	0.405502
	C482	C	0.008345	0.007102	0.446028
	C483	C	0.261965	0.066076	0.363541
	C484	C	0.011322	0.033188	0.440290
	C485	C	0.264375	0.093076	0.362624
	C486	C	0.012278	0.066664	0.329541
	C487	C	0.259067	0.005677	0.410179
	H488	H	0.171982	0.107171	0.335398
	H489	H	0.421134	0.042674	0.395084
	H490	H	0.167287	-0.001007	0.461248
	H491	H	0.420965	0.057150	0.377292
	H492	H	0.351990	0.042424	0.451503
	H493	H	0.104148	0.102603	0.373507
	H494	H	0.353281	0.055579	0.323014
	H495	H	0.100215	-0.005232	0.403103
	H496	H	0.349186	-0.002440	0.458810
	H497	H	0.102648	0.055420	0.373418
	H498	H	0.352036	0.106391	0.330735
	H499	H	0.102816	0.040988	0.391152
	H500	H	0.172141	0.057134	0.318687
	H501	H	0.418631	-0.003345	0.398381
	H502	H	0.169900	0.043976	0.447714
	H503	H	0.423791	0.104190	0.369143
	O504	O	0.599863	0.091255	0.335534
	O505	O	0.845944	0.029073	0.410175
	O506	O	0.593129	0.010429	0.441400
	O507	O	0.846036	0.069746	0.359874
	O508	O	0.926893	0.029494	0.437415
	O509	O	0.679852	0.089223	0.360065
	O510	O	0.927503	0.070101	0.333027
	O511	O	0.674128	0.009001	0.413950
	O512	O	0.924070	0.010063	0.440858
	O513	O	0.677204	0.069343	0.359042
	O514	O	0.930429	0.090831	0.334352
	O515	O	0.677045	0.028653	0.409501
	O516	O	0.596794	0.070460	0.332247
	O517	O	0.843208	0.009417	0.412963
	O518	O	0.595873	0.029839	0.436665
	O519	O	0.848978	0.089729	0.359078
	F520	F	0.510364	0.019062	0.415341
	F521	F	0.763588	0.080342	0.335971
	F522	F	0.513300	0.079369	0.356269
	F523	F	0.760137	0.019787	0.435180
	Al524	Al	0.635266	0.019439	0.425276
	Al525	Al	0.888742	0.079865	0.346084
	Al526	Al	0.638451	0.079875	0.346021
	Al527	Al	0.885249	0.019428	0.425219
	C528	C	0.601063	0.110791	0.334406
	C529	C	0.851031	0.045456	0.390268
	C530	C	0.597972	-0.004190	0.465253
	C531	C	0.851191	0.053592	0.380267
	C532	C	0.920795	0.046070	0.453572
	C533	C	0.673225	0.106325	0.375180
	C534	C	0.922709	0.052596	0.319319
	C535	C	0.669564	-0.008060	0.398980
	C536	C	0.918153	-0.004983	0.463938
	C537	C	0.671976	0.052616	0.378128
	C538	C	0.920795	0.110323	0.331749
	C539	C	0.671841	0.044489	0.388128
	C540	C	0.602849	0.053411	0.317056
	C541	C	0.849078	-0.007069	0.396504
	C542	C	0.600618	0.046918	0.451559
	C543	C	0.853174	0.107219	0.372679
	C544	C	0.512400	0.105579	0.333020
	C545	C	0.761432	0.040821	0.394339
	C546	C	0.508349	-0.000822	0.458577
	C547	C	0.761541	0.057287	0.374159
	C548	C	0.511110	0.042217	0.448619
	C549	C	0.763552	0.102290	0.370492
	C550	C	0.512741	0.057465	0.321653
	C551	C	0.758971	-0.003275	0.401667
	C552	C	0.514519	0.095141	0.334363
	C553	C	0.761429	0.032240	0.405494
	C554	C	0.508600	0.007097	0.445979
	C555	C	0.761539	0.066076	0.363557
	C556	C	0.511330	0.033211	0.440240
	C557	C	0.764099	0.093076	0.362649
	C558	C	0.512390	0.066644	0.329618
	C559	C	0.758683	0.005692	0.410179
	H560	H	0.672123	0.107223	0.335446
	H561	H	0.920416	0.042694	0.395058
	H562	H	0.667584	-0.000995	0.461292
	H563	H	0.920524	0.057151	0.377257
	H564	H	0.851579	0.042459	0.451376
	H565	H	0.603662	0.102582	0.373573
	H566	H	0.852736	0.055637	0.322908
	H567	H	0.599924	-0.005191	0.403041
	H568	H	0.848611	-0.002444	0.458853
	H569	H	0.602493	0.055374	0.373345
	H570	H	0.851667	0.106398	0.330712
	H571	H	0.602406	0.040941	0.391127
	H572	H	0.672356	0.057133	0.318734
	H573	H	0.918182	-0.003384	0.398509
	H574	H	0.670198	0.043955	0.447759
	H575	H	0.923371	0.104219	0.369034
	O576	O	0.096173	0.091564	0.472750
	O577	O	0.342537	0.035996	0.562699
	O578	O	0.090202	0.017994	0.595082
	O579	O	0.343422	0.072904	0.503862
	O580	O	0.423471	0.037089	0.590405
	O581	O	0.177183	0.091940	0.500050
	O582	O	0.424542	0.071531	0.476287
	O583	O	0.171551	0.016402	0.567414
	O584	O	0.421533	0.017796	0.594815
	O585	O	0.174551	0.072553	0.503396
	O586	O	0.427069	0.091126	0.471921
	O587	O	0.173480	0.035698	0.562228
	O588	O	0.093714	0.071894	0.475610
	O589	O	0.340720	0.016581	0.567077
	O590	O	0.092347	0.037328	0.589862
	O591	O	0.346262	0.092366	0.499085
	F592	F	0.006845	0.026310	0.568828
	F593	F	0.260332	0.081550	0.477866
	F594	F	0.010165	0.082266	0.497763
	F595	F	0.256806	0.027372	0.588526
	Al596	Al	0.131937	0.026848	0.578674
	Al597	Al	0.385273	0.081914	0.487727
	Al598	Al	0.135365	0.081918	0.487824
	Al599	Al	0.381953	0.026856	0.578693
	C600	C	0.101407	0.107922	0.452773
	C601	C	0.348256	0.050948	0.539493
	C602	C	0.094601	0.003584	0.619328
	C603	C	0.348546	0.058309	0.527775
	C604	C	0.417485	0.053561	0.606785
	C605	C	0.171143	0.108491	0.516301
	C606	C	0.420436	0.054501	0.461312
	C607	C	0.166875	-0.000502	0.551987
	C608	C	0.415521	0.003177	0.618680
	C609	C	0.169249	0.057538	0.526471
	C610	C	0.422211	0.106981	0.450630
	C611	C	0.168946	0.050184	0.538192
	C612	C	0.099825	0.055349	0.459264
	C613	C	0.346481	0.000047	0.550764
	C614	C	0.097031	0.054263	0.605206
	C615	C	0.350441	0.109491	0.513821
	C616	C	0.011754	0.103297	0.456856
	C617	C	0.258539	0.046805	0.544827
	C618	C	0.005088	0.007094	0.612899
	C619	C	0.258941	0.061706	0.521168
	C620	C	0.007610	0.049637	0.602042
	C621	C	0.261168	0.104687	0.511180
	C622	C	0.009772	0.059215	0.464190
	C623	C	0.256408	0.004045	0.555319
	C624	C	0.011739	0.094722	0.468016
	C625	C	0.258177	0.038943	0.557524
	C626	C	0.005624	0.014853	0.599992
	C627	C	0.258961	0.069611	0.508542
	C628	C	0.007866	0.040693	0.593482
	C629	C	0.261622	0.095692	0.502778
	C630	C	0.009336	0.068185	0.472699
	C631	C	0.256105	0.012995	0.563913
	H632	H	0.170864	0.105176	0.457575
	H633	H	0.417618	0.048404	0.544564
	H634	H	0.164175	0.006570	0.614929
	H635	H	0.417957	0.061476	0.523752
	H636	H	0.348435	0.050019	0.604319
	H637	H	0.102097	0.104808	0.514318
	H638	H	0.350886	0.057417	0.465206
	H639	H	0.097290	0.002522	0.555618
	H640	H	0.346208	0.005844	0.613784
	H641	H	0.099998	0.060086	0.521331
	H642	H	0.352746	0.103423	0.453600
	H643	H	0.099430	0.046981	0.542220
	H644	H	0.168903	0.058986	0.461388
	H645	H	0.415683	0.003525	0.553383
	H646	H	0.166662	0.051294	0.601471
	H647	H	0.419976	0.106626	0.509769
	O648	O	0.595994	0.091580	0.472785
	O649	O	0.842513	0.035979	0.562658
	O650	O	0.590398	0.018003	0.595134
	O651	O	0.842922	0.072915	0.503894
	O652	O	0.923454	0.037061	0.590469
	O653	O	0.676970	0.091935	0.500058
	O654	O	0.924741	0.071522	0.476357
	O655	O	0.671113	0.016378	0.567486
	O656	O	0.921302	0.017812	0.594867
	O657	O	0.674028	0.072533	0.503317
	O658	O	0.927330	0.091133	0.471961
	O659	O	0.673569	0.035677	0.562211
	O660	O	0.593619	0.071896	0.475573
	O661	O	0.840365	0.016635	0.566931
	O662	O	0.592399	0.037344	0.589878
	O663	O	0.845968	0.092388	0.499030
	F664	F	0.507031	0.026340	0.568860
	F665	F	0.760385	0.081559	0.477881
	F666	F	0.510047	0.082276	0.497685
	F667	F	0.756845	0.027398	0.588512
	Al668	Al	0.631941	0.026859	0.578703
	Al669	Al	0.885562	0.081928	0.487781
	Al670	Al	0.635269	0.081923	0.487786
	Al671	Al	0.881941	0.026850	0.578649
	C672	C	0.601338	0.107954	0.452831
	C673	C	0.848207	0.050951	0.539436
	C674	C	0.594832	0.003577	0.619301
	C675	C	0.848109	0.058313	0.527728
	C676	C	0.917524	0.053574	0.606783
	C677	C	0.670799	0.108489	0.516355
	C678	C	0.920254	0.054507	0.461267
	C679	C	0.666467	-0.000478	0.551922
	C680	C	0.915303	0.003183	0.618707
	C681	C	0.668694	0.057533	0.526470
	C682	C	0.922153	0.106934	0.450564
	C683	C	0.668786	0.050169	0.538186
	C684	C	0.599912	0.055349	0.459263
	C685	C	0.846026	0.000060	0.550810
	C686	C	0.596936	0.054265	0.605231
	C687	C	0.850249	0.109490	0.513831
	C688	C	0.511745	0.103308	0.456874
	C689	C	0.758506	0.046798	0.544811
	C690	C	0.505365	0.007085	0.612859
	C691	C	0.758354	0.061710	0.521147
	C692	C	0.507547	0.049641	0.602015
	C693	C	0.760865	0.104677	0.511234
	C694	C	0.509837	0.059227	0.464155
	C695	C	0.755951	0.004041	0.555343
	C696	C	0.511575	0.094724	0.468011
	C697	C	0.758197	0.038930	0.557502
	C698	C	0.505786	0.014832	0.599980
	C699	C	0.758379	0.069611	0.508516
	C700	C	0.507938	0.040713	0.593471
	C701	C	0.761334	0.095691	0.502780
	C702	C	0.509218	0.068205	0.472623
	C703	C	0.755712	0.013002	0.563912
	H704	H	0.670758	0.105205	0.457632
	H705	H	0.917784	0.048415	0.544487
	H706	H	0.664422	0.006558	0.614908
	H707	H	0.917691	0.061490	0.523695
	H708	H	0.848341	0.050028	0.604349
	H709	H	0.601573	0.104811	0.514363
	H710	H	0.850627	0.057463	0.465075
	H711	H	0.596949	0.002573	0.555456
	H712	H	0.845991	0.005846	0.613811
	H713	H	0.599367	0.060079	0.521370
	H714	H	0.852721	0.103364	0.453513
	H715	H	0.599351	0.046965	0.542231
	H716	H	0.669034	0.058969	0.461449
	H717	H	0.915206	0.003552	0.553410
	H718	H	0.666522	0.051302	0.601473
	H719	H	0.919870	0.106632	0.509736
	O720	O	0.092692	0.098483	0.625221
	O721	O	0.338634	0.044307	0.717783
	O722	O	0.086317	0.026386	0.750307
	O723	O	0.340026	0.080532	0.657728
	O724	O	0.419759	0.045392	0.745647
	O725	O	0.173587	0.099544	0.652985
	O726	O	0.421386	0.078857	0.630001
	O727	O	0.167726	0.024716	0.722643
	O728	O	0.417445	0.026032	0.749811
	O729	O	0.171087	0.080297	0.657349
	O730	O	0.423764	0.098137	0.624701
	O731	O	0.169712	0.044018	0.717388
	O732	O	0.090704	0.079146	0.629439
	O733	O	0.336748	0.024982	0.722126
	O734	O	0.088710	0.045694	0.745028
	O735	O	0.342584	0.099817	0.652396
	F736	F	0.003150	0.034694	0.723994
	F737	F	0.256894	0.088801	0.631385
	F738	F	0.006787	0.089887	0.651099
	F739	F	0.253035	0.035714	0.743698
	Al740	Al	0.128098	0.035212	0.733856
	Al741	Al	0.381850	0.089342	0.641187
	Al742	Al	0.131930	0.089345	0.641238
	Al743	Al	0.378105	0.035191	0.733867
	C744	C	0.098122	0.113503	0.602075
	C745	C	0.344423	0.058928	0.693932
	C746	C	0.090986	0.011864	0.774375
	C747	C	0.344586	0.066152	0.681965
	C748	C	0.413551	0.061897	0.761979
	C749	C	0.167348	0.116104	0.669090
	C750	C	0.416800	0.061944	0.614658
	C751	C	0.163135	0.007869	0.707074
	C752	C	0.412016	0.011067	0.773048
	C753	C	0.165191	0.065595	0.681055
	C754	C	0.418784	0.112590	0.600561
	C755	C	0.165086	0.058364	0.693029
	C756	C	0.096544	0.062646	0.613060
	C757	C	0.342790	0.008388	0.706014
	C758	C	0.092797	0.062611	0.760397
	C759	C	0.347112	0.116705	0.667890
	C760	C	0.008466	0.109252	0.607272
	C761	C	0.254600	0.054952	0.699612
	C762	C	0.001505	0.015233	0.767678
	C763	C	0.255034	0.069608	0.675460
	C764	C	0.003389	0.057981	0.757219
	C765	C	0.257651	0.112133	0.664527
	C766	C	0.006510	0.066542	0.617888
	C767	C	0.252637	0.012389	0.710557
	C768	C	0.008324	0.101416	0.620037
	C769	C	0.254260	0.047221	0.712557
	C770	C	0.001761	0.023114	0.755015
	C771	C	0.255364	0.077363	0.662564
	C772	C	0.004040	0.049044	0.748651
	C773	C	0.258114	0.103188	0.655982
	C774	C	0.006237	0.075484	0.626475
	C775	C	0.252290	0.021335	0.719100
	H776	H	0.167578	0.111030	0.607288
	H777	H	0.413766	0.056344	0.698932
	H778	H	0.160613	0.015068	0.770423
	H779	H	0.414176	0.069174	0.677675
	H780	H	0.344465	0.058337	0.759561
	H781	H	0.098195	0.112587	0.666514
	H782	H	0.347396	0.064961	0.618337
	H783	H	0.093574	0.010923	0.710589
	H784	H	0.342687	0.013604	0.767939
	H785	H	0.095828	0.068162	0.675991
	H786	H	0.349241	0.109344	0.604459
	H787	H	0.095596	0.055310	0.697296
	H788	H	0.165761	0.066200	0.615441
	H789	H	0.412079	0.011865	0.708644
	H790	H	0.162397	0.059648	0.756655
	H791	H	0.416742	0.113679	0.664321
	O792	O	0.592626	0.098500	0.625217
	O793	O	0.838629	0.044279	0.717735
	O794	O	0.586336	0.026404	0.750363
	O795	O	0.839657	0.080530	0.657666
	O796	O	0.919755	0.045390	0.745634
	O797	O	0.672821	0.099584	0.652946
	O798	O	0.921721	0.078845	0.630091
	O799	O	0.667566	0.024716	0.722720
	O800	O	0.917434	0.026069	0.749879
	O801	O	0.670771	0.080272	0.657318
	O802	O	0.923837	0.098166	0.624763
	O803	O	0.669740	0.044007	0.717349
	O804	O	0.590461	0.079146	0.629437
	O805	O	0.836601	0.024982	0.722103
	O806	O	0.588833	0.045701	0.745034
	O807	O	0.841967	0.099811	0.652481
	F808	F	0.503256	0.034682	0.724026
	F809	F	0.757131	0.088820	0.631396
	F810	F	0.506607	0.089863	0.651031
	F811	F	0.753096	0.035735	0.743668
	Al812	Al	0.628244	0.035201	0.733849
	Al813	Al	0.882034	0.089340	0.641258
	Al814	Al	0.631830	0.089356	0.641209
	Al815	Al	0.878279	0.035211	0.733829
	C816	C	0.598191	0.113521	0.602122
	C817	C	0.844136	0.058956	0.693951
	C818	C	0.591320	0.011825	0.774324
	C819	C	0.844243	0.066193	0.681998
	C820	C	0.913221	0.061914	0.761941
	C821	C	0.667013	0.116126	0.669167
	C822	C	0.916982	0.061946	0.614643
	C823	C	0.662833	0.007901	0.707051
	C824	C	0.911716	0.011074	0.773048
	C825	C	0.664947	0.065585	0.681057
	C826	C	0.918757	0.112558	0.600476
	C827	C	0.664825	0.058348	0.693007
	C828	C	0.596332	0.062646	0.613110
	C829	C	0.842505	0.008389	0.706054
	C830	C	0.593062	0.062623	0.760358
	C831	C	0.846851	0.116705	0.667863
	C832	C	0.508454	0.109274	0.607333
	C833	C	0.754396	0.054934	0.699572
	C834	C	0.501775	0.015228	0.767721
	C835	C	0.754750	0.069600	0.675424
	C836	C	0.503665	0.057989	0.757216
	C837	C	0.757091	0.112175	0.664486
	C838	C	0.506317	0.066536	0.617891
	C839	C	0.752474	0.012417	0.710520
	C840	C	0.508274	0.101410	0.620004
	C841	C	0.754295	0.047205	0.712518
	C842	C	0.501834	0.023100	0.755002
	C843	C	0.755109	0.077334	0.662487
	C844	C	0.504203	0.049056	0.748626
	C845	C	0.757363	0.103213	0.655974
	C846	C	0.505967	0.075492	0.626420
	C847	C	0.752064	0.021341	0.719112
	H848	H	0.667709	0.111045	0.607324
	H849	H	0.913581	0.056420	0.699009
	H850	H	0.660954	0.014988	0.770287
	H851	H	0.913868	0.069248	0.677775
	H852	H	0.844152	0.058376	0.759465
	H853	H	0.597796	0.112607	0.666672
	H854	H	0.847462	0.064937	0.618343
	H855	H	0.593245	0.010962	0.710574
	H856	H	0.842274	0.013635	0.767991
	H857	H	0.595645	0.068166	0.676018
	H858	H	0.849198	0.109299	0.604358
	H859	H	0.595409	0.055302	0.697313
	H860	H	0.665364	0.066220	0.615484
	H861	H	0.911729	0.011843	0.708758
	H862	H	0.662504	0.059647	0.756607
	H863	H	0.916398	0.113654	0.664289
	O864	O	0.088521	0.106781	0.780262
	O865	O	0.334965	0.052008	0.871732
	O866	O	0.082204	0.033381	0.902985
	O867	O	0.336117	0.088879	0.812774
	O868	O	0.415925	0.052668	0.899467
	O869	O	0.169423	0.107898	0.808134
	O870	O	0.417286	0.087216	0.785143
	O871	O	0.163442	0.032192	0.875933
	O872	O	0.413387	0.032990	0.902326
	O873	O	0.167175	0.088540	0.812262
	O874	O	0.419616	0.106491	0.779815
	O875	O	0.166158	0.051656	0.871122
	O876	O	0.086435	0.087515	0.784498
	O877	O	0.332427	0.032598	0.875023
	O878	O	0.085152	0.053053	0.898668
	O879	O	0.338284	0.108211	0.807468
	F880	F	-0.000629	0.042272	0.877314
	F881	F	0.252930	0.097183	0.786467
	F882	F	0.002961	0.098223	0.806215
	F883	F	0.249084	0.042999	0.897193
	Al884	Al	0.124341	0.042631	0.887266
	Al885	Al	0.377907	0.097708	0.796316
	Al886	Al	0.127971	0.097702	0.796319
	Al887	Al	0.374112	0.042633	0.887254
	C888	C	0.094306	0.121485	0.756510
	C889	C	0.340830	0.067035	0.848619
	C890	C	0.086884	0.017525	0.924280
	C891	C	0.340906	0.074394	0.836882
	C892	C	0.409826	0.069198	0.915772
	C893	C	0.163342	0.124398	0.824480
	C894	C	0.412952	0.070281	0.769823
	C895	C	0.159058	0.015112	0.861087
	C896	C	0.408011	0.016600	0.922255
	C897	C	0.161467	0.073570	0.835451
	C898	C	0.414960	0.120811	0.755463
	C899	C	0.161400	0.066216	0.847175
	C900	C	0.092141	0.070997	0.768235
	C901	C	0.338534	0.016051	0.858802
	C902	C	0.089345	0.070081	0.913737
	C903	C	0.342852	0.125121	0.822841
	C904	C	0.004555	0.117422	0.762069
	C905	C	0.251052	0.062859	0.853895
	C906	C	-0.002650	0.021237	0.918131
	C907	C	0.251335	0.077747	0.830169
	C908	C	-0.000035	0.065358	0.910827
	C909	C	0.253454	0.120486	0.819668
	C910	C	0.002037	0.074892	0.773043
	C911	C	0.248449	0.019867	0.863884
	C912	C	0.004172	0.109676	0.774999
	C913	C	0.250737	0.054954	0.866519
	C914	C	-0.002391	0.029834	0.906994
	C915	C	0.251553	0.085609	0.817461
	C916	C	0.000515	0.056384	0.902347
	C917	C	0.253845	0.111558	0.811119
	C918	C	0.001871	0.083836	0.781609
	C919	C	0.248020	0.028862	0.872257
	H920	H	0.163719	0.118959	0.761632
	H921	H	0.410183	0.064503	0.853780
	H922	H	0.156365	0.021050	0.921221
	H923	H	0.410397	0.077611	0.832897
	H924	H	0.340722	0.065550	0.913645
	H925	H	0.094043	0.120854	0.822088
	H926	H	0.343476	0.073258	0.773557
	H927	H	0.089387	0.018028	0.865008
	H928	H	0.338587	0.019362	0.917484
	H929	H	0.091980	0.076082	0.830317
	H930	H	0.345473	0.117716	0.759652
	H931	H	0.091708	0.063022	0.851119
	H932	H	0.161197	0.074569	0.770603
	H933	H	0.407603	0.019736	0.860810
	H934	H	0.159009	0.067150	0.909877
	H935	H	0.412418	0.122160	0.819098
	O936	O	0.588632	0.106768	0.780239
	O937	O	0.834859	0.052043	0.871692
	O938	O	0.582395	0.033355	0.902973
	O939	O	0.835750	0.088873	0.812834
	O940	O	0.916228	0.052668	0.899492
	O941	O	0.669426	0.107917	0.808121
	O942	O	0.917383	0.087190	0.785235
	O943	O	0.663362	0.032212	0.875880
	O944	O	0.913247	0.033017	0.902310
	O945	O	0.666831	0.088527	0.812285
	O946	O	0.919742	0.106468	0.779802
	O947	O	0.666009	0.051664	0.871152
	O948	O	0.586282	0.087514	0.784534
	O949	O	0.832391	0.032596	0.875062
	O950	O	0.584942	0.053029	0.898681
	O951	O	0.838396	0.108208	0.807484
	F952	F	0.499396	0.042290	0.877308
	F953	F	0.753239	0.097170	0.786503
	F954	F	0.502862	0.098228	0.806164
	F955	F	0.749296	0.042988	0.897151
	Al956	Al	0.624305	0.042639	0.887259
	Al957	Al	0.878127	0.097706	0.796388
	Al958	Al	0.627993	0.097705	0.796312
	Al959	Al	0.874501	0.042647	0.887226
	C960	C	0.594353	0.121472	0.756555
	C961	C	0.840327	0.067064	0.848614
	C962	C	0.587344	0.017509	0.924253
	C963	C	0.840413	0.074411	0.836873
	C964	C	0.909790	0.069211	0.915779
	C965	C	0.663431	0.124395	0.824532
	C966	C	0.912580	0.070298	0.769780
	C967	C	0.658874	0.015107	0.861107
	C968	C	0.907653	0.016609	0.922217
	C969	C	0.661159	0.073536	0.835449
	C970	C	0.914928	0.120793	0.755404
	C971	C	0.661101	0.066192	0.847179
	C972	C	0.592473	0.071006	0.768210
	C973	C	0.838404	0.016032	0.858816
	C974	C	0.589401	0.070060	0.913713
	C975	C	0.842853	0.125131	0.822829
	C976	C	0.504460	0.117440	0.762096
	C977	C	0.750650	0.062865	0.853882
	C978	C	0.497668	0.021225	0.918133
	C979	C	0.750845	0.077728	0.830163
	C980	C	0.499923	0.065342	0.910786
	C981	C	0.753520	0.120498	0.819660
	C982	C	0.502354	0.074899	0.773012
	C983	C	0.748308	0.019870	0.863867
	C984	C	0.504270	0.109677	0.775002
	C985	C	0.750480	0.054972	0.866516
	C986	C	0.497842	0.029799	0.906991
	C987	C	0.751161	0.085594	0.817474
	C988	C	0.500347	0.056371	0.902330
	C989	C	0.753889	0.111578	0.811076
	C990	C	0.501845	0.083845	0.781559
	C991	C	0.747969	0.028876	0.872241
	H992	H	0.663764	0.118920	0.761647
	H993	H	0.909673	0.064547	0.853785
	H994	H	0.656888	0.021016	0.921140
	H995	H	0.909764	0.077631	0.832882
	H996	H	0.840681	0.065574	0.913608
	H997	H	0.594247	0.120830	0.822187
	H998	H	0.843047	0.073308	0.773439
	H999	H	0.589224	0.018018	0.865061
	H1000	H	0.838230	0.019377	0.917434
	H1001	H	0.591840	0.076028	0.830289
	H1002	H	0.845363	0.117699	0.759599
	H1003	H	0.591607	0.062974	0.851134
	H1004	H	0.661519	0.074571	0.770615
	H1005	H	0.907550	0.019702	0.860854
	H1006	H	0.659025	0.067122	0.909879
	H1007	H	0.912541	0.122176	0.819082
	O1008	O	0.084891	0.114541	0.934232
	O1009	O	0.331357	0.055208	1.015950
	O1010	O	0.078072	0.033725	1.040548
	O1011	O	0.331856	0.095871	0.965463
	O1012	O	0.412203	0.054065	1.042799
	O1013	O	0.165662	0.115140	0.962038
	O1014	O	0.413274	0.094682	0.938411
	O1015	O	0.159159	0.034889	1.015931
	O1016	O	0.408529	0.033311	1.039528
	O1017	O	0.162911	0.095495	0.964770
	O1018	O	0.416058	0.114123	0.933564
	O1019	O	0.162559	0.054840	1.015187
	O1020	O	0.082301	0.095078	0.937654
	O1021	O	0.328302	0.035388	1.014944
	O1022	O	0.081091	0.054526	1.041951
	O1023	O	0.334738	0.115559	0.961113
	F1024	F	-0.004744	0.045210	1.018707
	F1025	F	0.249007	0.104791	0.939794
	F1026	F	-0.001239	0.105499	0.959724
	F1027	F	0.245151	0.044226	1.039098
	Al1028	Al	0.120177	0.044716	1.028995
	Al1029	Al	0.373922	0.105130	0.949718
	Al1030	Al	0.123911	0.105138	0.949782
	Al1031	Al	0.370141	0.044692	1.029012
	C1032	C	0.090313	0.129601	0.911235
	C1033	C	0.336819	0.071873	0.996683
	C1034	C	0.087567	0.014256	1.043345
	C1035	C	0.336767	0.079983	0.986675
	C1036	C	0.405624	0.071064	1.058187
	C1037	C	0.159151	0.131635	0.978477
	C1038	C	0.409138	0.077629	0.923487
	C1039	C	0.155182	0.017343	1.002387
	C1040	C	0.407357	0.013770	1.040471
	C1041	C	0.157541	0.079173	0.984820
	C1042	C	0.411290	0.128637	0.909544
	C1043	C	0.157589	0.071043	0.994846
	C1044	C	0.088654	0.078510	0.921458
	C1045	C	0.334977	0.018319	0.999695
	C1046	C	0.085076	0.072037	1.055601
	C1047	C	0.338821	0.132652	0.975962
	C1048	C	0.000523	0.125337	0.916392
	C1049	C	0.247175	0.067288	1.000848
	C1050	C	-0.003874	0.019001	1.041988
	C1051	C	0.247189	0.083727	0.980614
	C1052	C	-0.004441	0.067104	1.053388
	C1053	C	0.249416	0.127849	0.973311
	C1054	C	-0.001552	0.082358	0.926395
	C1055	C	0.244672	0.022316	1.004470
	C1056	C	0.000437	0.117438	0.929005
	C1057	C	0.247037	0.058492	1.011451
	C1058	C	-0.005898	0.029453	1.040643
	C1059	C	0.247310	0.092312	0.969467
	C1060	C	-0.003783	0.057925	1.045434
	C1061	C	0.250130	0.118872	0.964850
	C1062	C	-0.002124	0.091354	0.934807
	C1063	C	0.244032	0.031529	1.012364
	H1064	H	0.159753	0.127132	0.916480
	H1065	H	0.406366	0.069059	1.001291
	H1066	H	0.156585	0.018188	1.044540
	H1067	H	0.406402	0.083455	0.983530
	H1068	H	0.336207	0.067277	1.056696
	H1069	H	0.089979	0.127933	0.976542
	H1070	H	0.339646	0.080553	0.927405
	H1071	H	0.085042	0.020319	1.006144
	H1072	H	0.336386	0.017348	1.039336
	H1073	H	0.088312	0.082001	0.980110
	H1074	H	0.341883	0.125360	0.913390
	H1075	H	0.088294	0.067515	0.997976
	H1076	H	0.157659	0.082159	0.923629
	H1077	H	0.404536	0.022094	1.001238
	H1078	H	0.155227	0.069049	1.051911
	H1079	H	0.408627	0.129799	0.971909
	O1080	O	0.584853	0.114525	0.934219
	O1081	O	0.830952	0.055217	1.015931
	O1082	O	0.577803	0.033701	1.040642
	O1083	O	0.831491	0.095895	0.965543
	O1084	O	0.911899	0.054104	1.042721
	O1085	O	0.665476	0.115133	0.962056
	O1086	O	0.913239	0.094682	0.938439
	O1087	O	0.658741	0.034832	1.016001
	O1088	O	0.908667	0.033367	1.039525
	O1089	O	0.662464	0.095488	0.964830
	O1090	O	0.916100	0.114069	0.933527
	O1091	O	0.662231	0.054806	1.015153
	O1092	O	0.582359	0.095096	0.937549
	O1093	O	0.827879	0.035328	1.014927
	O1094	O	0.581286	0.054520	1.041889
	O1095	O	0.834551	0.115552	0.961119
	F1096	F	0.495259	0.045188	1.018756
	F1097	F	0.749153	0.104783	0.939846
	F1098	F	0.498710	0.105485	0.959669
	F1099	F	0.745212	0.044209	1.039037
	Al1100	Al	0.620228	0.044672	1.029024
	Al1101	Al	0.873998	0.105123	0.949786
	Al1102	Al	0.623885	0.105130	0.949745
	Al1103	Al	0.870520	0.044704	1.028887
	C1104	C	0.590516	0.129619	0.911250
	C1105	C	0.836252	0.071893	0.996726
	C1106	C	0.587406	0.014218	1.043373
	C1107	C	0.836335	0.080017	0.986739
	C1108	C	0.905100	0.071114	1.058090
	C1109	C	0.659017	0.131622	0.978518
	C1110	C	0.908995	0.077639	0.923497
	C1111	C	0.654599	0.017277	1.002519
	C1112	C	0.907406	0.013800	1.040490
	C1113	C	0.657220	0.079147	0.984815
	C1114	C	0.910836	0.128613	0.909537
	C1115	C	0.657178	0.071009	0.994813
	C1116	C	0.588730	0.078494	0.921423
	C1117	C	0.834233	0.018316	0.999593
	C1118	C	0.585342	0.072055	1.055504
	C1119	C	0.838708	0.132637	0.975921
	C1120	C	0.500830	0.125346	0.916393
	C1121	C	0.746705	0.067275	1.000827
	C1122	C	0.495992	0.018975	1.041976
	C1123	C	0.746825	0.083726	0.980632
	C1124	C	0.495932	0.067090	1.053384
	C1125	C	0.749277	0.127823	0.973365
	C1126	C	0.498526	0.082361	0.926324
	C1127	C	0.743975	0.022277	1.004499
	C1128	C	0.500587	0.117450	0.928991
	C1129	C	0.746615	0.058480	1.011442
	C1130	C	0.493900	0.029426	1.040641
	C1131	C	0.746969	0.092320	0.969522
	C1132	C	0.496509	0.057896	1.045449
	C1133	C	0.749903	0.118862	0.964844
	C1134	C	0.497963	0.091353	0.934749
	C1135	C	0.743497	0.031483	1.012366
	H1136	H	0.659855	0.127160	0.916505
	H1137	H	0.905648	0.069100	1.001385
	H1138	H	0.656337	0.018151	1.044617
	H1139	H	0.905757	0.083519	0.983664
	H1140	H	0.835604	0.067355	1.056502
	H1141	H	0.589759	0.127936	0.976550
	H1142	H	0.839385	0.080575	0.927349
	H1143	H	0.584468	0.020224	1.006340
	H1144	H	0.836446	0.017383	1.039334
	H1145	H	0.587964	0.081966	0.980099
	H1146	H	0.841251	0.125331	0.913373
	H1147	H	0.588016	0.067465	0.997915
	H1148	H	0.657817	0.082125	0.923615
	H1149	H	0.903637	0.022124	1.001031
	H1150	H	0.655398	0.069084	1.051749
	H1151	H	0.908402	0.129797	0.971788
	O1152	O	0.084530	0.239449	0.059074
	O1153	O	0.330989	0.180173	0.140896
	O1154	O	0.078054	0.158679	0.165527
	O1155	O	0.332113	0.220820	0.090397
	O1156	O	0.411812	0.179104	0.167755
	O1157	O	0.165219	0.240245	0.086739
	O1158	O	0.413602	0.219742	0.063268
	O1159	O	0.159186	0.159909	0.140859
	O1160	O	0.408762	0.158331	0.164479
	O1161	O	0.163199	0.220557	0.089911
	O1162	O	0.416066	0.239156	0.058663
	O1163	O	0.162177	0.179854	0.140256
	O1164	O	0.082745	0.219979	0.062827
	O1165	O	0.328310	0.160295	0.140056
	O1166	O	0.080672	0.179496	0.166924
	O1167	O	0.334424	0.240504	0.086160
	F1168	F	-0.004877	0.170188	0.143703
	F1169	F	0.249112	0.229763	0.064806
	F1170	F	-0.001113	0.230483	0.084700
	F1171	F	0.245069	0.169207	0.164090
	Al1172	Al	0.120155	0.169677	0.153991
	Al1173	Al	0.373900	0.230117	0.074718
	Al1174	Al	0.123997	0.230143	0.074745
	Al1175	Al	0.370074	0.169696	0.153964
	C1176	C	0.090080	0.254451	0.035954
	C1177	C	0.336745	0.196757	0.121441
	C1178	C	0.087020	0.139222	0.168096
	C1179	C	0.336945	0.204873	0.111422
	C1180	C	0.405607	0.196138	0.182963
	C1181	C	0.159610	0.256840	0.102876
	C1182	C	0.408939	0.202811	0.047962
	C1183	C	0.154860	0.142367	0.127258
	C1184	C	0.406969	0.138805	0.165641
	C1185	C	0.157469	0.204269	0.110132
	C1186	C	0.411228	0.253760	0.034849
	C1187	C	0.157294	0.196140	0.120147
	C1188	C	0.088640	0.203302	0.046971
	C1189	C	0.334502	0.143288	0.124715
	C1190	C	0.085251	0.196977	0.180647
	C1191	C	0.339162	0.257423	0.101563
	C1192	C	0.000288	0.250343	0.041367
	C1193	C	0.246928	0.192281	0.125871
	C1194	C	-0.004383	0.143971	0.166961
	C1195	C	0.247254	0.208726	0.105648
	C1196	C	-0.004359	0.192099	0.178318
	C1197	C	0.249618	0.252853	0.098295
	C1198	C	-0.001437	0.207345	0.051384
	C1199	C	0.244308	0.147295	0.129491
	C1200	C	0.000120	0.242448	0.053985
	C1201	C	0.246666	0.183490	0.136488
	C1202	C	-0.005987	0.154435	0.165644
	C1203	C	0.247525	0.217304	0.094485
	C1204	C	-0.004013	0.182906	0.170381
	C1205	C	0.249831	0.243895	0.089720
	C1206	C	-0.001790	0.216331	0.059799
	C1207	C	0.243893	0.156503	0.137365
	H1208	H	0.159502	0.251880	0.040988
	H1209	H	0.406235	0.193831	0.125837
	H1210	H	0.156097	0.143138	0.169161
	H1211	H	0.406639	0.208255	0.108010
	H1212	H	0.336095	0.192395	0.181333
	H1213	H	0.090440	0.253319	0.100391
	H1214	H	0.339296	0.205911	0.051319
	H1215	H	0.084603	0.145352	0.130882
	H1216	H	0.336101	0.142396	0.164606
	H1217	H	0.088146	0.207163	0.105627
	H1218	H	0.341664	0.250617	0.038902
	H1219	H	0.087787	0.192703	0.123467
	H1220	H	0.157857	0.206789	0.049572
	H1221	H	0.404092	0.147034	0.126256
	H1222	H	0.155194	0.193932	0.177045
	H1223	H	0.408685	0.254375	0.097992
	O1224	O	0.584868	0.239465	0.059137
	O1225	O	0.830789	0.180172	0.140812
	O1226	O	0.578107	0.158673	0.165474
	O1227	O	0.831976	0.220802	0.090380
	O1228	O	0.911598	0.179132	0.167644
	O1229	O	0.665027	0.240218	0.086822
	O1230	O	0.913608	0.219750	0.063226
	O1231	O	0.658966	0.159887	0.140881
	O1232	O	0.908733	0.158352	0.164563
	O1233	O	0.662926	0.220535	0.089888
	O1234	O	0.915586	0.239180	0.058683
	O1235	O	0.661933	0.179871	0.140193
	O1236	O	0.582495	0.220022	0.062705
	O1237	O	0.828174	0.160264	0.140086
	O1238	O	0.580960	0.179476	0.166990
	O1239	O	0.834245	0.240477	0.086281
	F1240	F	0.495184	0.170209	0.143689
	F1241	F	0.749189	0.229775	0.064825
	F1242	F	0.498750	0.230489	0.084681
	F1243	F	0.745110	0.169222	0.164001
	Al1244	Al	0.620047	0.169704	0.153990
	Al1245	Al	0.874041	0.230124	0.074764
	Al1246	Al	0.624023	0.230126	0.074738
	Al1247	Al	0.870490	0.169698	0.153900
	C1248	C	0.590348	0.254456	0.035954
	C1249	C	0.836610	0.196811	0.121536
	C1250	C	0.587149	0.139225	0.168143
	C1251	C	0.836657	0.204934	0.111552
	C1252	C	0.905381	0.196176	0.182894
	C1253	C	0.659347	0.256867	0.102780
	C1254	C	0.908981	0.202781	0.048043
	C1255	C	0.654327	0.142381	0.127231
	C1256	C	0.906742	0.138785	0.165594
	C1257	C	0.657211	0.204258	0.110049
	C1258	C	0.910692	0.253773	0.034791
	C1259	C	0.657165	0.196129	0.120049
	C1260	C	0.588562	0.203325	0.046914
	C1261	C	0.834205	0.143227	0.124894
	C1262	C	0.585543	0.196986	0.180649
	C1263	C	0.838680	0.257412	0.101609
	C1264	C	0.500767	0.250330	0.041407
	C1265	C	0.746785	0.192292	0.125830
	C1266	C	0.495772	0.143977	0.166996
	C1267	C	0.747017	0.208720	0.105621
	C1268	C	0.495861	0.192095	0.178347
	C1269	C	0.749222	0.252858	0.098294
	C1270	C	0.498500	0.207359	0.051430
	C1271	C	0.743886	0.147290	0.129471
	C1272	C	0.500591	0.242439	0.054016
	C1273	C	0.746494	0.183487	0.136405
	C1274	C	0.494024	0.154425	0.165604
	C1275	C	0.747329	0.217295	0.094464
	C1276	C	0.496239	0.182898	0.170445
	C1277	C	0.749580	0.243874	0.089796
	C1278	C	0.498115	0.216346	0.059782
	C1279	C	0.743672	0.156490	0.137384
	H1280	H	0.659834	0.251879	0.040944
	H1281	H	0.906096	0.193927	0.126031
	H1282	H	0.656161	0.143154	0.169158
	H1283	H	0.906168	0.208378	0.108285
	H1284	H	0.835809	0.192465	0.181182
	H1285	H	0.590242	0.253367	0.100236
	H1286	H	0.839366	0.205848	0.051533
	H1287	H	0.584227	0.145394	0.130844
	H1288	H	0.835799	0.142376	0.164600
	H1289	H	0.587885	0.207153	0.105524
	H1290	H	0.841065	0.250638	0.038869
	H1291	H	0.587665	0.192671	0.123335
	H1292	H	0.657899	0.206827	0.049391
	H1293	H	0.903875	0.146941	0.126561
	H1294	H	0.655594	0.193954	0.177053
	H1295	H	0.908098	0.254346	0.098089
	O1296	O	0.081244	0.242654	0.203319
	O1297	O	0.337651	0.172467	0.231694
	O1298	O	0.084472	0.149234	0.250426
	O1299	O	0.328588	0.221201	0.228019
	O1300	O	0.418062	0.169777	0.255405
	O1301	O	0.162140	0.241657	0.230128
	O1302	O	0.409461	0.222404	0.203288
	O1303	O	0.165649	0.151441	0.226332
	O1304	O	0.414810	0.148980	0.249638
	O1305	O	0.159226	0.220857	0.227061
	O1306	O	0.412525	0.242387	0.202665
	O1307	O	0.168447	0.172168	0.230623
	O1308	O	0.078656	0.222787	0.202564
	O1309	O	0.334760	0.151769	0.225753
	O1310	O	0.087083	0.170067	0.254828
	O1311	O	0.330986	0.242027	0.229377
	F1312	F	0.001761	0.161821	0.230358
	F1313	F	0.245586	0.232679	0.206164
	F1314	F	-0.004220	0.231722	0.226635
	F1315	F	0.251166	0.159633	0.250902
	Al1316	Al	0.126413	0.160726	0.240648
	Al1317	Al	0.370481	0.232202	0.216450
	Al1318	Al	0.120590	0.232194	0.216466
	Al1319	Al	0.376273	0.160720	0.240687
	C1320	C	0.086967	0.259270	0.183945
	C1321	C	0.339974	0.192027	0.230564
	C1322	C	0.092889	0.129788	0.251496
	C1323	C	0.337645	0.201734	0.230674
	C1324	C	0.411976	0.187297	0.269467
	C1325	C	0.156018	0.258703	0.245364
	C1326	C	0.404997	0.204873	0.189677
	C1327	C	0.160992	0.133755	0.212887
	C1328	C	0.412465	0.129456	0.249358
	C1329	C	0.157434	0.201320	0.228214
	C1330	C	0.407659	0.258673	0.182581
	C1331	C	0.159742	0.191634	0.228109
	C1332	C	0.084780	0.205698	0.187424
	C1333	C	0.341111	0.134393	0.211184
	C1334	C	0.091585	0.187908	0.267745
	C1335	C	0.335888	0.259500	0.243116
	C1336	C	-0.002766	0.254767	0.188319
	C1337	C	0.250995	0.186859	0.229282
	C1338	C	0.001511	0.134571	0.250923
	C1339	C	0.246296	0.206495	0.229510
	C1340	C	0.001970	0.182937	0.265616
	C1341	C	0.246154	0.254621	0.240745
	C1342	C	-0.005399	0.209776	0.191987
	C1343	C	0.250719	0.138671	0.215189
	C1344	C	-0.003007	0.245981	0.198951
	C1345	C	0.252560	0.176401	0.230566
	C1346	C	0.000173	0.145030	0.250385
	C1347	C	0.244491	0.216952	0.228155
	C1348	C	0.002231	0.173551	0.258164
	C1349	C	0.246403	0.245456	0.232834
	C1350	C	-0.005749	0.219004	0.199859
	C1351	C	0.250319	0.147973	0.222937
	H1352	H	0.156426	0.256377	0.188386
	H1353	H	0.410791	0.188390	0.231522
	H1354	H	0.162165	0.133659	0.252750
	H1355	H	0.406670	0.205680	0.231711
	H1356	H	0.341952	0.183588	0.267930
	H1357	H	0.086285	0.255021	0.243688
	H1358	H	0.334953	0.207912	0.193248
	H1359	H	0.090573	0.136961	0.215907
	H1360	H	0.341557	0.133074	0.248816
	H1361	H	0.086512	0.204889	0.227226
	H1362	H	0.338107	0.255263	0.185905
	H1363	H	0.090640	0.187745	0.227068
	H1364	H	0.154349	0.209405	0.189142
	H1365	H	0.410969	0.138117	0.212785
	H1366	H	0.162144	0.184732	0.264700
	H1367	H	0.405970	0.256467	0.239530
	O1368	O	0.581202	0.242649	0.203239
	O1369	O	0.837598	0.172495	0.231641
	O1370	O	0.584173	0.149252	0.250499
	O1371	O	0.827823	0.221161	0.228110
	O1372	O	0.917857	0.169690	0.255517
	O1373	O	0.661615	0.241670	0.230059
	O1374	O	0.909597	0.222405	0.203370
	O1375	O	0.665043	0.151448	0.226280
	O1376	O	0.915037	0.149000	0.249679
	O1377	O	0.658507	0.220826	0.227004
	O1378	O	0.912531	0.242371	0.202742
	O1379	O	0.668402	0.172140	0.230484
	O1380	O	0.578616	0.222775	0.202543
	O1381	O	0.834240	0.151726	0.225768
	O1382	O	0.587282	0.170101	0.254783
	O1383	O	0.830566	0.242002	0.229446
	F1384	F	0.501226	0.161829	0.230427
	F1385	F	0.745758	0.232654	0.206204
	F1386	F	0.495335	0.231752	0.226509
	F1387	F	0.751167	0.159656	0.250806
	Al1388	Al	0.626231	0.160740	0.240622
	Al1389	Al	0.870627	0.232183	0.216477
	Al1390	Al	0.620346	0.232186	0.216394
	Al1391	Al	0.876640	0.160734	0.240619
	C1392	C	0.587115	0.259264	0.183880
	C1393	C	0.839309	0.192019	0.230661
	C1394	C	0.592943	0.129809	0.251575
	C1395	C	0.836781	0.201720	0.230795
	C1396	C	0.911494	0.187255	0.269577
	C1397	C	0.655364	0.258721	0.245215
	C1398	C	0.904951	0.204893	0.189656
	C1399	C	0.660316	0.133732	0.212982
	C1400	C	0.912377	0.129449	0.249320
	C1401	C	0.656723	0.201288	0.228049
	C1402	C	0.907650	0.258644	0.182585
	C1403	C	0.659192	0.191605	0.227926
	C1404	C	0.584887	0.205724	0.187377
	C1405	C	0.840389	0.134402	0.211124
	C1406	C	0.591965	0.187961	0.267631
	C1407	C	0.835357	0.259412	0.243342
	C1408	C	0.497334	0.254785	0.188307
	C1409	C	0.750536	0.186845	0.229233
	C1410	C	0.501500	0.134578	0.250996
	C1411	C	0.745384	0.206469	0.229527
	C1412	C	0.502331	0.182986	0.265519
	C1413	C	0.745625	0.254581	0.240792
	C1414	C	0.494554	0.209776	0.191944
	C1415	C	0.749965	0.138654	0.215211
	C1416	C	0.497041	0.246001	0.198879
	C1417	C	0.752352	0.176395	0.230523
	C1418	C	0.499939	0.145037	0.250430
	C1419	C	0.743703	0.216916	0.228153
	C1420	C	0.502563	0.173595	0.258089
	C1421	C	0.745962	0.245425	0.232874
	C1422	C	0.494182	0.218995	0.199807
	C1423	C	0.749721	0.147968	0.222910
	H1424	H	0.656586	0.256350	0.188260
	H1425	H	0.910049	0.188409	0.231699
	H1426	H	0.662184	0.133692	0.252829
	H1427	H	0.905579	0.205673	0.231902
	H1428	H	0.841476	0.183540	0.268059
	H1429	H	0.585654	0.255061	0.243400
	H1430	H	0.834928	0.207940	0.193199
	H1431	H	0.589807	0.136917	0.216037
	H1432	H	0.841441	0.133066	0.248808
	H1433	H	0.585698	0.204856	0.226915
	H1434	H	0.838079	0.255235	0.185915
	H1435	H	0.590122	0.187698	0.226756
	H1436	H	0.654517	0.209448	0.189036
	H1437	H	0.910131	0.138152	0.212662
	H1438	H	0.662581	0.184804	0.264550
	H1439	H	0.905474	0.256345	0.239921
	O1440	O	0.088030	0.234950	0.293953
	O1441	O	0.343264	0.163101	0.313010
	O1442	O	0.089463	0.139920	0.331940
	O1443	O	0.334487	0.211748	0.312986
	O1444	O	0.423335	0.160266	0.336891
	O1445	O	0.168291	0.232314	0.317748
	O1446	O	0.415847	0.213956	0.288772
	O1447	O	0.170743	0.141986	0.307716
	O1448	O	0.420155	0.139610	0.330947
	O1449	O	0.165243	0.211462	0.311989
	O1450	O	0.418721	0.234662	0.293187
	O1451	O	0.174025	0.162817	0.312001
	O1452	O	0.084883	0.214268	0.288194
	O1453	O	0.339921	0.142283	0.307202
	O1454	O	0.092207	0.160625	0.336176
	O1455	O	0.337354	0.232553	0.317331
	F1456	F	0.007092	0.152417	0.311615
	F1457	F	0.251910	0.224321	0.292848
	F1458	F	0.001974	0.222146	0.313371
	F1459	F	0.256463	0.150249	0.332137
	Al1460	Al	0.131745	0.151344	0.321887
	Al1461	Al	0.376659	0.223224	0.303142
	Al1462	Al	0.126882	0.223228	0.303049
	Al1463	Al	0.381649	0.151343	0.321929
	C1464	C	0.090228	0.254506	0.292943
	C1465	C	0.345680	0.182623	0.313192
	C1466	C	0.098555	0.120461	0.334460
	C1467	C	0.343372	0.192282	0.314111
	C1468	C	0.417113	0.177715	0.351335
	C1469	C	0.162124	0.249823	0.331862
	C1470	C	0.411387	0.196242	0.275441
	C1471	C	0.165937	0.124141	0.294822
	C1472	C	0.418335	0.120039	0.331966
	C1473	C	0.162861	0.191950	0.311872
	C1474	C	0.410178	0.254106	0.290594
	C1475	C	0.165178	0.182289	0.310953
	C1476	C	0.090961	0.196866	0.273695
	C1477	C	0.345969	0.124784	0.293032
	C1478	C	0.096779	0.178344	0.349556
	C1479	C	0.342174	0.250409	0.330241
	C1480	C	0.001355	0.249336	0.291642
	C1481	C	0.256576	0.177503	0.311622
	C1482	C	0.007143	0.125215	0.333237
	C1483	C	0.251962	0.197065	0.313455
	C1484	C	0.007155	0.173395	0.347319
	C1485	C	0.252446	0.245493	0.327955
	C1486	C	0.000613	0.201154	0.277712
	C1487	C	0.255642	0.129084	0.296999
	C1488	C	0.002930	0.238891	0.292944
	C1489	C	0.258146	0.167043	0.312177
	C1490	C	0.005580	0.135672	0.332000
	C1491	C	0.250369	0.207520	0.312849
	C1492	C	0.007533	0.164066	0.339628
	C1493	C	0.252749	0.236108	0.320508
	C1494	C	0.000356	0.210483	0.285371
	C1495	C	0.255460	0.138466	0.304482
	H1496	H	0.161169	0.250911	0.293879
	H1497	H	0.416688	0.179011	0.313697
	H1498	H	0.167510	0.124387	0.335596
	H1499	H	0.412541	0.196169	0.315359
	H1500	H	0.347113	0.174000	0.349797
	H1501	H	0.092223	0.246109	0.330260
	H1502	H	0.340895	0.199414	0.278501
	H1503	H	0.095539	0.127321	0.297893
	H1504	H	0.347470	0.123638	0.331015
	H1505	H	0.091833	0.195557	0.311320
	H1506	H	0.340995	0.250201	0.289570
	H1507	H	0.095885	0.178422	0.309682
	H1508	H	0.160914	0.200579	0.275237
	H1509	H	0.415870	0.128496	0.294609
	H1510	H	0.167357	0.175168	0.346539
	H1511	H	0.412514	0.247175	0.327264
	O1512	O	0.587869	0.234939	0.294109
	O1513	O	0.842751	0.163103	0.312878
	O1514	O	0.589409	0.139927	0.331864
	O1515	O	0.834367	0.211725	0.312991
	O1516	O	0.923084	0.160253	0.336838
	O1517	O	0.667917	0.232269	0.317885
	O1518	O	0.915692	0.213979	0.288760
	O1519	O	0.670333	0.141988	0.307685
	O1520	O	0.920221	0.139613	0.330974
	O1521	O	0.665025	0.211473	0.312076
	O1522	O	0.918832	0.234658	0.293079
	O1523	O	0.673464	0.162820	0.312008
	O1524	O	0.585047	0.214290	0.288189
	O1525	O	0.839513	0.142260	0.307144
	O1526	O	0.592446	0.160618	0.336232
	O1527	O	0.837143	0.232624	0.317274
	F1528	F	0.506616	0.152435	0.311677
	F1529	F	0.751843	0.224322	0.292952
	F1530	F	0.501473	0.222120	0.313380
	F1531	F	0.756678	0.150243	0.332075
	Al1532	Al	0.631644	0.151339	0.321861
	Al1533	Al	0.877203	0.223232	0.303164
	Al1534	Al	0.626634	0.223230	0.303148
	Al1535	Al	0.882042	0.151325	0.321865
	C1536	C	0.590350	0.254504	0.293011
	C1537	C	0.845134	0.182611	0.313158
	C1538	C	0.598555	0.120499	0.334528
	C1539	C	0.842977	0.192273	0.314085
	C1540	C	0.916811	0.177684	0.351366
	C1541	C	0.661862	0.249796	0.331965
	C1542	C	0.910888	0.196213	0.275502
	C1543	C	0.665563	0.124137	0.294819
	C1544	C	0.918302	0.120030	0.331913
	C1545	C	0.662686	0.191955	0.311818
	C1546	C	0.909939	0.254106	0.290546
	C1547	C	0.664782	0.182297	0.310894
	C1548	C	0.591358	0.196909	0.273628
	C1549	C	0.845706	0.124797	0.293025
	C1550	C	0.597090	0.178363	0.349506
	C1551	C	0.841923	0.250412	0.330185
	C1552	C	0.501415	0.249327	0.291742
	C1553	C	0.756078	0.177499	0.311525
	C1554	C	0.507095	0.125232	0.333262
	C1555	C	0.751671	0.197063	0.313438
	C1556	C	0.507390	0.173418	0.347290
	C1557	C	0.752144	0.245490	0.328014
	C1558	C	0.501009	0.201190	0.277644
	C1559	C	0.755257	0.129080	0.296984
	C1560	C	0.502882	0.238882	0.293066
	C1561	C	0.757600	0.167044	0.312113
	C1562	C	0.505294	0.135686	0.331990
	C1563	C	0.750097	0.207521	0.312851
	C1564	C	0.507709	0.164081	0.339645
	C1565	C	0.752351	0.236099	0.320571
	C1566	C	0.500601	0.210505	0.285348
	C1567	C	0.754961	0.138461	0.304446
	H1568	H	0.661265	0.250906	0.293984
	H1569	H	0.915986	0.178982	0.313730
	H1570	H	0.667455	0.124442	0.335659
	H1571	H	0.912226	0.196140	0.315362
	H1572	H	0.846809	0.173972	0.349829
	H1573	H	0.592059	0.246065	0.330390
	H1574	H	0.840310	0.199395	0.278505
	H1575	H	0.595243	0.127338	0.297877
	H1576	H	0.847324	0.123621	0.330974
	H1577	H	0.591750	0.195563	0.311254
	H1578	H	0.840821	0.250184	0.289545
	H1579	H	0.595564	0.178422	0.309628
	H1580	H	0.661293	0.200627	0.275180
	H1581	H	0.915514	0.128532	0.294579
	H1582	H	0.667609	0.175173	0.346470
	H1583	H	0.912212	0.247199	0.327140
	O1584	O	0.093018	0.225567	0.375344
	O1585	O	0.350107	0.153730	0.398039
	O1586	O	0.096354	0.132240	0.422437
	O1587	O	0.339802	0.202418	0.394387
	O1588	O	0.430251	0.151770	0.422502
	O1589	O	0.173254	0.222822	0.399180
	O1590	O	0.421139	0.204494	0.370187
	O1591	O	0.177770	0.132542	0.395633
	O1592	O	0.427510	0.131854	0.421599
	O1593	O	0.170621	0.202087	0.393268
	O1594	O	0.423677	0.225348	0.374609
	O1595	O	0.180722	0.153386	0.397058
	O1596	O	0.090018	0.204819	0.369565
	O1597	O	0.346898	0.132928	0.394853
	O1598	O	0.099074	0.152106	0.421756
	O1599	O	0.342586	0.223091	0.398726
	F1600	F	0.014212	0.142851	0.398393
	F1601	F	0.257145	0.214950	0.374076
	F1602	F	0.007271	0.212721	0.394627
	F1603	F	0.263487	0.141849	0.418849
	Al1604	Al	0.138877	0.142356	0.408592
	Al1605	Al	0.381934	0.213837	0.384360
	Al1606	Al	0.131997	0.213829	0.384318
	Al1607	Al	0.388640	0.142364	0.408579
	C1608	C	0.095580	0.245082	0.375603
	C1609	C	0.351657	0.173278	0.396960
	C1610	C	0.101376	0.116074	0.442807
	C1611	C	0.349026	0.182974	0.397053
	C1612	C	0.423899	0.168809	0.437731
	C1613	C	0.167292	0.240213	0.413823
	C1614	C	0.416613	0.186659	0.357305
	C1615	C	0.173119	0.115044	0.381975
	C1616	C	0.422186	0.115131	0.440643
	C1617	C	0.168777	0.182522	0.394413
	C1618	C	0.415404	0.244819	0.373448
	C1619	C	0.171378	0.172830	0.394310
	C1620	C	0.096077	0.187299	0.355513
	C1621	C	0.353023	0.115914	0.379550
	C1622	C	0.103623	0.169647	0.435363
	C1623	C	0.347338	0.240822	0.412055
	C1624	C	0.006458	0.239986	0.373998
	C1625	C	0.262837	0.168088	0.395543
	C1626	C	0.011658	0.119772	0.436706
	C1627	C	0.257630	0.187717	0.395748
	C1628	C	0.013911	0.164739	0.433087
	C1629	C	0.257549	0.235919	0.409799
	C1630	C	0.005763	0.191600	0.359466
	C1631	C	0.262702	0.119945	0.384197
	C1632	C	0.007960	0.229519	0.374595
	C1633	C	0.264788	0.157637	0.396913
	C1634	C	0.011844	0.128583	0.426143
	C1635	C	0.255790	0.198170	0.394426
	C1636	C	0.014350	0.155521	0.425199
	C1637	C	0.257826	0.226579	0.402077
	C1638	C	0.005667	0.201008	0.366875
	C1639	C	0.262494	0.129123	0.392166
	H1640	H	0.166475	0.241456	0.376143
	H1641	H	0.422501	0.169684	0.398037
	H1642	H	0.170712	0.119659	0.439867
	H1643	H	0.418040	0.186903	0.398179
	H1644	H	0.354367	0.165045	0.436167
	H1645	H	0.097235	0.236511	0.412252
	H1646	H	0.346122	0.189835	0.360359
	H1647	H	0.103210	0.118057	0.385679
	H1648	H	0.352850	0.117905	0.435853
	H1649	H	0.097730	0.186115	0.393383
	H1650	H	0.346088	0.240960	0.372219
	H1651	H	0.102390	0.168897	0.393216
	H1652	H	0.165990	0.191018	0.357041
	H1653	H	0.422445	0.119668	0.381210
	H1654	H	0.173899	0.166618	0.431772
	H1655	H	0.417747	0.237621	0.409033
	O1656	O	0.593182	0.225585	0.375413
	O1657	O	0.849684	0.153746	0.397907
	O1658	O	0.596319	0.132289	0.422486
	O1659	O	0.839568	0.202414	0.394561
	O1660	O	0.929904	0.151763	0.422384
	O1661	O	0.673183	0.222790	0.399308
	O1662	O	0.920846	0.204528	0.370144
	O1663	O	0.677235	0.132528	0.395669
	O1664	O	0.927603	0.131882	0.421672
	O1665	O	0.670413	0.202100	0.393351
	O1666	O	0.923706	0.225293	0.374455
	O1667	O	0.680357	0.153360	0.396931
	O1668	O	0.590316	0.204823	0.369588
	O1669	O	0.846430	0.132921	0.394776
	O1670	O	0.599491	0.152154	0.421763
	O1671	O	0.842449	0.223110	0.398814
	F1672	F	0.513754	0.142844	0.398470
	F1673	F	0.757301	0.214935	0.374219
	F1674	F	0.506721	0.212740	0.394567
	F1675	F	0.763614	0.141867	0.418779
	Al1676	Al	0.638670	0.142380	0.408602
	Al1677	Al	0.882322	0.213825	0.384436
	Al1678	Al	0.631973	0.213838	0.384382
	Al1679	Al	0.888798	0.142363	0.408512
	C1680	C	0.595821	0.245120	0.375661
	C1681	C	0.851003	0.173263	0.396954
	C1682	C	0.601386	0.116102	0.442859
	C1683	C	0.848557	0.182960	0.397126
	C1684	C	0.923545	0.168800	0.437702
	C1685	C	0.666898	0.240216	0.413862
	C1686	C	0.916160	0.186636	0.357324
	C1687	C	0.672531	0.115047	0.381967
	C1688	C	0.922060	0.115086	0.440601
	C1689	C	0.668453	0.182534	0.394500
	C1690	C	0.915195	0.244795	0.373427
	C1691	C	0.670887	0.172841	0.394327
	C1692	C	0.596536	0.187314	0.355464
	C1693	C	0.852499	0.115942	0.379444
	C1694	C	0.603747	0.169723	0.435211
	C1695	C	0.847004	0.240836	0.412114
	C1696	C	0.506652	0.240026	0.374053
	C1697	C	0.762225	0.168086	0.395517
	C1698	C	0.511772	0.119797	0.436717
	C1699	C	0.757223	0.187719	0.395890
	C1700	C	0.514185	0.164789	0.433030
	C1701	C	0.757215	0.235920	0.409863
	C1702	C	0.506271	0.191618	0.359425
	C1703	C	0.762160	0.119954	0.384162
	C1704	C	0.508037	0.229550	0.374665
	C1705	C	0.764297	0.157631	0.396826
	C1706	C	0.511874	0.128601	0.426144
	C1707	C	0.755509	0.198176	0.394550
	C1708	C	0.514674	0.155572	0.425186
	C1709	C	0.757591	0.226579	0.402174
	C1710	C	0.505897	0.200999	0.366903
	C1711	C	0.761911	0.129131	0.392125
	H1712	H	0.666687	0.241485	0.376218
	H1713	H	0.921868	0.169672	0.397994
	H1714	H	0.670703	0.119678	0.439902
	H1715	H	0.917520	0.186881	0.398270
	H1716	H	0.853846	0.165073	0.436055
	H1717	H	0.596900	0.236508	0.412311
	H1718	H	0.845624	0.189807	0.360363
	H1719	H	0.602608	0.118062	0.385680
	H1720	H	0.852698	0.117859	0.435810
	H1721	H	0.597565	0.186130	0.393487
	H1722	H	0.845845	0.240941	0.372193
	H1723	H	0.601928	0.168914	0.393201
	H1724	H	0.666544	0.191026	0.357004
	H1725	H	0.922030	0.119693	0.381044
	H1726	H	0.673894	0.166710	0.431570
	H1727	H	0.917466	0.237635	0.409109
	O1728	O	0.100069	0.216238	0.460505
	O1729	O	0.346417	0.154077	0.535289
	O1730	O	0.093238	0.135473	0.566504
	O1731	O	0.346144	0.194786	0.485004
	O1732	O	0.427035	0.154450	0.562452
	O1733	O	0.180225	0.214244	0.484970
	O1734	O	0.427442	0.195044	0.458101
	O1735	O	0.174367	0.133957	0.538956
	O1736	O	0.424404	0.135019	0.565801
	O1737	O	0.177412	0.194364	0.484140
	O1738	O	0.430456	0.215863	0.459474
	O1739	O	0.177440	0.153598	0.534431
	O1740	O	0.096865	0.195434	0.457277
	O1741	O	0.343422	0.134419	0.537979
	O1742	O	0.095912	0.154859	0.561552
	O1743	O	0.349436	0.214626	0.484273
	F1744	F	0.010288	0.144029	0.540349
	F1745	F	0.263796	0.205348	0.460961
	F1746	F	0.013366	0.204333	0.481268
	F1747	F	0.260197	0.144782	0.560202
	Al1748	Al	0.135269	0.144400	0.550254
	Al1749	Al	0.388550	0.204861	0.471085
	Al1750	Al	0.138655	0.204867	0.471025
	Al1751	Al	0.385335	0.144420	0.550277
	C1752	C	0.101647	0.235766	0.459358
	C1753	C	0.351359	0.170435	0.515312
	C1754	C	0.098152	0.120889	0.590390
	C1755	C	0.351370	0.178578	0.505338
	C1756	C	0.420472	0.171086	0.578521
	C1757	C	0.173841	0.231360	0.500114
	C1758	C	0.423237	0.177534	0.444495
	C1759	C	0.170475	0.116918	0.524012
	C1760	C	0.418911	0.119971	0.588852
	C1761	C	0.172245	0.177608	0.503192
	C1762	C	0.421343	0.235343	0.456885
	C1763	C	0.172313	0.169467	0.513161
	C1764	C	0.103071	0.178385	0.442089
	C1765	C	0.349768	0.117921	0.521522
	C1766	C	0.100243	0.171856	0.576644
	C1767	C	0.353804	0.232147	0.497906
	C1768	C	0.012815	0.230588	0.457987
	C1769	C	0.261858	0.165799	0.519368
	C1770	C	0.008543	0.124208	0.583654
	C1771	C	0.261738	0.182289	0.499251
	C1772	C	0.010766	0.167158	0.573718
	C1773	C	0.264106	0.227276	0.495564
	C1774	C	0.012725	0.182434	0.446692
	C1775	C	0.259735	0.121713	0.526661
	C1776	C	0.014765	0.220131	0.459340
	C1777	C	0.261903	0.157210	0.530519
	C1778	C	0.008704	0.132140	0.571078
	C1779	C	0.261744	0.191101	0.488673
	C1780	C	0.011241	0.158183	0.565232
	C1781	C	0.264614	0.218030	0.487745
	C1782	C	0.012431	0.191639	0.454575
	C1783	C	0.259054	0.130674	0.535189
	H1784	H	0.172560	0.232166	0.460370
	H1785	H	0.420641	0.167673	0.520122
	H1786	H	0.167614	0.124149	0.586499
	H1787	H	0.420745	0.182159	0.502354
	H1788	H	0.351241	0.167482	0.576297
	H1789	H	0.104182	0.227640	0.498431
	H1790	H	0.353316	0.180518	0.448266
	H1791	H	0.100884	0.119781	0.528058
	H1792	H	0.349601	0.122480	0.583661
	H1793	H	0.102909	0.180379	0.498435
	H1794	H	0.352236	0.231422	0.455893
	H1795	H	0.102907	0.165919	0.516169
	H1796	H	0.172725	0.182122	0.443709
	H1797	H	0.418786	0.121605	0.523519
	H1798	H	0.169831	0.168897	0.572846
	H1799	H	0.423964	0.229076	0.494420
	O1800	O	0.599908	0.216207	0.460550
	O1801	O	0.846033	0.154053	0.535173
	O1802	O	0.593305	0.135468	0.566511
	O1803	O	0.846071	0.194765	0.484957
	O1804	O	0.926964	0.154456	0.562439
	O1805	O	0.679971	0.214269	0.484936
	O1806	O	0.927637	0.195053	0.458072
	O1807	O	0.674360	0.134000	0.538861
	O1808	O	0.924403	0.135083	0.565927
	O1809	O	0.677301	0.194338	0.484084
	O1810	O	0.930735	0.215843	0.459397
	O1811	O	0.677051	0.153647	0.534530
	O1812	O	0.596580	0.195481	0.457217
	O1813	O	0.843424	0.134401	0.537993
	O1814	O	0.595996	0.154844	0.561677
	O1815	O	0.849240	0.214619	0.484311
	F1816	F	0.510348	0.144032	0.540367
	F1817	F	0.763693	0.205338	0.461007
	F1818	F	0.513385	0.204341	0.481292
	F1819	F	0.760125	0.144780	0.560193
	Al1820	Al	0.635297	0.144416	0.550276
	Al1821	Al	0.888984	0.204856	0.471086
	Al1822	Al	0.638565	0.204852	0.471036
	Al1823	Al	0.885269	0.144405	0.550250
	C1824	C	0.601527	0.235745	0.459414
	C1825	C	0.851156	0.170445	0.515345
	C1826	C	0.598364	0.120904	0.590418
	C1827	C	0.851118	0.178590	0.505381
	C1828	C	0.920608	0.171092	0.578489
	C1829	C	0.673632	0.231285	0.500254
	C1830	C	0.923005	0.177525	0.444453
	C1831	C	0.670078	0.116926	0.524040
	C1832	C	0.918817	0.119936	0.588784
	C1833	C	0.672032	0.177626	0.503213
	C1834	C	0.921450	0.235357	0.456785
	C1835	C	0.672004	0.169481	0.513165
	C1836	C	0.603053	0.178455	0.441944
	C1837	C	0.849537	0.117922	0.521523
	C1838	C	0.600047	0.171896	0.576610
	C1839	C	0.853494	0.232187	0.497798
	C1840	C	0.512680	0.230579	0.458015
	C1841	C	0.761564	0.165809	0.519369
	C1842	C	0.508641	0.124205	0.583653
	C1843	C	0.761530	0.182274	0.499221
	C1844	C	0.510669	0.167183	0.573693
	C1845	C	0.763957	0.227256	0.495603
	C1846	C	0.512702	0.182481	0.446609
	C1847	C	0.759501	0.121708	0.526700
	C1848	C	0.514575	0.220113	0.459392
	C1849	C	0.761512	0.157223	0.530513
	C1850	C	0.508771	0.132124	0.571063
	C1851	C	0.761611	0.191077	0.488613
	C1852	C	0.511344	0.158184	0.565293
	C1853	C	0.764430	0.218037	0.487714
	C1854	C	0.512230	0.191663	0.454558
	C1855	C	0.759008	0.130677	0.535177
	H1856	H	0.672365	0.232134	0.460481
	H1857	H	0.920405	0.167681	0.520168
	H1858	H	0.667844	0.124176	0.586537
	H1859	H	0.920391	0.182186	0.502442
	H1860	H	0.851380	0.167500	0.576223
	H1861	H	0.604256	0.227521	0.498653
	H1862	H	0.852976	0.180560	0.448091
	H1863	H	0.600454	0.119806	0.528069
	H1864	H	0.849404	0.122407	0.583559
	H1865	H	0.602550	0.180409	0.498489
	H1866	H	0.852346	0.231443	0.455687
	H1867	H	0.602711	0.165930	0.516187
	H1868	H	0.672537	0.182208	0.443549
	H1869	H	0.918650	0.121615	0.523468
	H1870	H	0.669786	0.168958	0.572786
	H1871	H	0.923608	0.229173	0.494186
	O1872	O	0.096161	0.216496	0.597571
	O1873	O	0.342603	0.160936	0.687656
	O1874	O	0.089823	0.143038	0.720146
	O1875	O	0.343357	0.197924	0.628926
	O1876	O	0.423238	0.162049	0.715424
	O1877	O	0.177018	0.216973	0.624960
	O1878	O	0.424424	0.196543	0.601282
	O1879	O	0.171118	0.141359	0.692463
	O1880	O	0.421146	0.142743	0.719813
	O1881	O	0.174485	0.197574	0.628412
	O1882	O	0.427124	0.216164	0.597055
	O1883	O	0.173658	0.160664	0.687256
	O1884	O	0.093865	0.196876	0.600538
	O1885	O	0.340234	0.141622	0.691934
	O1886	O	0.092409	0.162307	0.714922
	O1887	O	0.346100	0.217326	0.624170
	F1888	F	0.006803	0.151325	0.693845
	F1889	F	0.260325	0.206553	0.602885
	F1890	F	0.010222	0.207255	0.622725
	F1891	F	0.256707	0.152345	0.713548
	Al1892	Al	0.131758	0.151841	0.703695
	Al1893	Al	0.385133	0.206920	0.612764
	Al1894	Al	0.135234	0.206918	0.612773
	Al1895	Al	0.381773	0.151824	0.703689
	C1896	C	0.101394	0.232817	0.577480
	C1897	C	0.348029	0.175847	0.664327
	C1898	C	0.094492	0.128744	0.744571
	C1899	C	0.348183	0.183231	0.652654
	C1900	C	0.417331	0.178615	0.731584
	C1901	C	0.171056	0.233586	0.641056
	C1902	C	0.419783	0.179529	0.586199
	C1903	C	0.166631	0.124485	0.676948
	C1904	C	0.415309	0.128064	0.743524
	C1905	C	0.168892	0.182590	0.651584
	C1906	C	0.422044	0.232097	0.575971
	C1907	C	0.168690	0.175212	0.663270
	C1908	C	0.099599	0.180297	0.584318
	C1909	C	0.346413	0.125086	0.675748
	C1910	C	0.097071	0.179202	0.730390
	C1911	C	0.350581	0.234413	0.639025
	C1912	C	0.011731	0.228313	0.581867
	C1913	C	0.258336	0.171759	0.669796
	C1914	C	0.004941	0.132099	0.737909
	C1915	C	0.258579	0.186714	0.646192
	C1916	C	0.007539	0.174646	0.727018
	C1917	C	0.261205	0.229694	0.636176
	C1918	C	0.009551	0.184204	0.589158
	C1919	C	0.256117	0.129045	0.680326
	C1920	C	0.011644	0.219716	0.592990
	C1921	C	0.258262	0.163900	0.682508
	C1922	C	0.005204	0.139859	0.725005
	C1923	C	0.258835	0.194632	0.633583
	C1924	C	0.007828	0.165700	0.718477
	C1925	C	0.261537	0.220691	0.627771
	C1926	C	0.009342	0.193184	0.597634
	C1927	C	0.255682	0.137988	0.688886
	H1928	H	0.170843	0.229959	0.582001
	H1929	H	0.417427	0.173236	0.669317
	H1930	H	0.163975	0.131870	0.740405
	H1931	H	0.417794	0.186361	0.648540
	H1932	H	0.348112	0.175112	0.729021
	H1933	H	0.101913	0.229955	0.638890
	H1934	H	0.350087	0.182491	0.589971
	H1935	H	0.096942	0.127511	0.680498
	H1936	H	0.345995	0.130617	0.738433
	H1937	H	0.099565	0.185187	0.646598
	H1938	H	0.352485	0.228660	0.579254
	H1939	H	0.099173	0.172078	0.667375
	H1940	H	0.168739	0.183897	0.586545
	H1941	H	0.415548	0.128600	0.678311
	H1942	H	0.166587	0.176165	0.726814
	H1943	H	0.420180	0.231467	0.635172
	O1944	O	0.596176	0.216506	0.597619
	O1945	O	0.842264	0.160954	0.687621
	O1946	O	0.590048	0.143058	0.720235
	O1947	O	0.843478	0.197864	0.628832
	O1948	O	0.923408	0.162073	0.715438
	O1949	O	0.677055	0.217004	0.624951
	O1950	O	0.924860	0.196561	0.601217
	O1951	O	0.671504	0.141382	0.692480
	O1952	O	0.920954	0.142810	0.719858
	O1953	O	0.674572	0.197602	0.628436
	O1954	O	0.927191	0.216185	0.597059
	O1955	O	0.673305	0.160663	0.687210
	O1956	O	0.593567	0.196880	0.600560
	O1957	O	0.840547	0.141629	0.691944
	O1958	O	0.592373	0.162307	0.714884
	O1959	O	0.846060	0.217330	0.624252
	F1960	F	0.506935	0.151294	0.693861
	F1961	F	0.760431	0.206560	0.602903
	F1962	F	0.510002	0.207288	0.622698
	F1963	F	0.756774	0.152376	0.713481
	Al1964	Al	0.631816	0.151825	0.703680
	Al1965	Al	0.885523	0.206911	0.612797
	Al1966	Al	0.635297	0.206927	0.612812
	Al1967	Al	0.881967	0.151862	0.703657
	C1968	C	0.601390	0.232819	0.577521
	C1969	C	0.847858	0.175887	0.664392
	C1970	C	0.594637	0.128726	0.744627
	C1971	C	0.848146	0.183265	0.652706
	C1972	C	0.917299	0.178640	0.731562
	C1973	C	0.670737	0.233570	0.641123
	C1974	C	0.919982	0.179532	0.586164
	C1975	C	0.666595	0.124509	0.677011
	C1976	C	0.915138	0.128051	0.743477
	C1977	C	0.668719	0.182608	0.651585
	C1978	C	0.922070	0.232112	0.575948
	C1979	C	0.668481	0.175239	0.663267
	C1980	C	0.599432	0.180339	0.584279
	C1981	C	0.846298	0.125086	0.675704
	C1982	C	0.597066	0.179197	0.730370
	C1983	C	0.850339	0.234441	0.639067
	C1984	C	0.511697	0.228282	0.581851
	C1985	C	0.758082	0.171791	0.669815
	C1986	C	0.505089	0.132090	0.737955
	C1987	C	0.758533	0.186712	0.646170
	C1988	C	0.507520	0.174626	0.727054
	C1989	C	0.760950	0.229704	0.636194
	C1990	C	0.509288	0.184224	0.589157
	C1991	C	0.756222	0.129073	0.680301
	C1992	C	0.511689	0.219708	0.593003
	C1993	C	0.757902	0.163902	0.682464
	C1994	C	0.505488	0.139839	0.725044
	C1995	C	0.758874	0.194625	0.633564
	C1996	C	0.507836	0.165679	0.718470
	C1997	C	0.761514	0.220706	0.627826
	C1998	C	0.509055	0.193187	0.597667
	C1999	C	0.756012	0.138008	0.688883
	H2000	H	0.670780	0.229974	0.582097
	H2001	H	0.917294	0.173276	0.669385
	H2002	H	0.664182	0.131826	0.740451
	H2003	H	0.917703	0.186411	0.648620
	H2004	H	0.847992	0.175151	0.728968
	H2005	H	0.601525	0.229932	0.638992
	H2006	H	0.850472	0.182510	0.589929
	H2007	H	0.597063	0.127535	0.680635
	H2008	H	0.845727	0.130606	0.738401
	H2009	H	0.599315	0.185204	0.646594
	H2010	H	0.852721	0.228653	0.579216
	H2011	H	0.598893	0.172093	0.667334
	H2012	H	0.668573	0.183967	0.586466
	H2013	H	0.915605	0.128576	0.678254
	H2014	H	0.666757	0.176175	0.726794
	H2015	H	0.920028	0.231510	0.635221
	O2016	O	0.092522	0.223467	0.750203
	O2017	O	0.338363	0.169252	0.842711
	O2018	O	0.085873	0.151384	0.875317
	O2019	O	0.340042	0.205538	0.782698
	O2020	O	0.419299	0.170407	0.870635
	O2021	O	0.172849	0.224553	0.777996
	O2022	O	0.421273	0.203890	0.754919
	O2023	O	0.167343	0.149702	0.847727
	O2024	O	0.416966	0.150997	0.874736
	O2025	O	0.171120	0.205282	0.782359
	O2026	O	0.423565	0.223171	0.749699
	O2027	O	0.169513	0.169009	0.842348
	O2028	O	0.090496	0.204129	0.754451
	O2029	O	0.336284	0.150022	0.847000
	O2030	O	0.088547	0.170718	0.870002
	O2031	O	0.341849	0.224832	0.777402
	F2032	F	0.003234	0.159672	0.848973
	F2033	F	0.256774	0.213825	0.756378
	F2034	F	0.006613	0.214883	0.776057
	F2035	F	0.252767	0.160735	0.868695
	Al2036	Al	0.127997	0.160203	0.858869
	Al2037	Al	0.381799	0.214338	0.766193
	Al2038	Al	0.131812	0.214345	0.766229
	Al2039	Al	0.377851	0.160194	0.858823
	C2040	C	0.097834	0.238450	0.727009
	C2041	C	0.344429	0.183871	0.818856
	C2042	C	0.090522	0.136960	0.899484
	C2043	C	0.344755	0.191121	0.806926
	C2044	C	0.413302	0.186895	0.887036
	C2045	C	0.166858	0.241073	0.794286
	C2046	C	0.416674	0.187003	0.739400
	C2047	C	0.162852	0.132780	0.832350
	C2048	C	0.411396	0.136003	0.897805
	C2049	C	0.165165	0.190667	0.806206
	C2050	C	0.418885	0.237634	0.725597
	C2051	C	0.164919	0.183418	0.818129
	C2052	C	0.096500	0.187577	0.738246
	C2053	C	0.342434	0.133508	0.830707
	C2054	C	0.092868	0.187671	0.885293
	C2055	C	0.346423	0.241800	0.792612
	C2056	C	0.008240	0.234255	0.732302
	C2057	C	0.254558	0.179935	0.824585
	C2058	C	0.000844	0.140244	0.892679
	C2059	C	0.255186	0.194594	0.800450
	C2060	C	0.003361	0.183025	0.882158
	C2061	C	0.256942	0.237154	0.789499
	C2062	C	0.006354	0.191553	0.742837
	C2063	C	0.252346	0.137398	0.835517
	C2064	C	0.008078	0.226392	0.744996
	C2065	C	0.254122	0.172186	0.837498
	C2066	C	0.001200	0.148096	0.879945
	C2067	C	0.255477	0.202346	0.787551
	C2068	C	0.003897	0.174074	0.873597
	C2069	C	0.257282	0.228202	0.780995
	C2070	C	0.005939	0.200491	0.751413
	C2071	C	0.251838	0.146348	0.844066
	H2072	H	0.167297	0.235928	0.732136
	H2073	H	0.413921	0.181240	0.823796
	H2074	H	0.160091	0.140207	0.895582
	H2075	H	0.414547	0.194141	0.802594
	H2076	H	0.344224	0.183302	0.884728
	H2077	H	0.097635	0.237517	0.791900
	H2078	H	0.346997	0.190029	0.742940
	H2079	H	0.093319	0.135767	0.836104
	H2080	H	0.342182	0.138461	0.892503
	H2081	H	0.095807	0.193308	0.801274
	H2082	H	0.349300	0.234412	0.729542
	H2083	H	0.095398	0.180410	0.822478
	H2084	H	0.165707	0.191071	0.740807
	H2085	H	0.411498	0.137073	0.833086
	H2086	H	0.162568	0.184721	0.881513
	H2087	H	0.415972	0.238840	0.788816
	O2088	O	0.592548	0.223471	0.750186
	O2089	O	0.838489	0.169272	0.842676
	O2090	O	0.586023	0.151403	0.875344
	O2091	O	0.839646	0.205524	0.782689
	O2092	O	0.919647	0.170394	0.870639
	O2093	O	0.673180	0.224528	0.778043
	O2094	O	0.921471	0.203862	0.755015
	O2095	O	0.667200	0.149706	0.847699
	O2096	O	0.916978	0.150996	0.874672
	O2097	O	0.670679	0.205262	0.782327
	O2098	O	0.923635	0.223106	0.749663
	O2099	O	0.669598	0.169017	0.842352
	O2100	O	0.590299	0.204148	0.754405
	O2101	O	0.836267	0.150032	0.846999
	O2102	O	0.588332	0.170719	0.869996
	O2103	O	0.842248	0.224852	0.777325
	F2104	F	0.503023	0.159698	0.848993
	F2105	F	0.756921	0.213809	0.756385
	F2106	F	0.506622	0.214874	0.776062
	F2107	F	0.752990	0.160736	0.868663
	Al2108	Al	0.627939	0.160221	0.858856
	Al2109	Al	0.881832	0.214342	0.766227
	Al2110	Al	0.631701	0.214341	0.766209
	Al2111	Al	0.878142	0.160201	0.858786
	C2112	C	0.598410	0.238466	0.727048
	C2113	C	0.844488	0.183894	0.818829
	C2114	C	0.590705	0.136988	0.899513
	C2115	C	0.844635	0.191136	0.806890
	C2116	C	0.913207	0.186892	0.887069
	C2117	C	0.667147	0.241035	0.794390
	C2118	C	0.916735	0.187015	0.739421
	C2119	C	0.662624	0.132779	0.832396
	C2120	C	0.911060	0.135971	0.897794
	C2121	C	0.664958	0.190636	0.806178
	C2122	C	0.918555	0.237639	0.725667
	C2123	C	0.664829	0.183394	0.818109
	C2124	C	0.596331	0.187588	0.738188
	C2125	C	0.842137	0.133517	0.830687
	C2126	C	0.592979	0.187665	0.885269
	C2127	C	0.846769	0.241796	0.792646
	C2128	C	0.508560	0.234275	0.732283
	C2129	C	0.754577	0.179952	0.824584
	C2130	C	0.501208	0.140251	0.892688
	C2131	C	0.754848	0.194587	0.800431
	C2132	C	0.503399	0.183024	0.882143
	C2133	C	0.757313	0.237165	0.789494
	C2134	C	0.506150	0.191547	0.742828
	C2135	C	0.752112	0.137411	0.835509
	C2136	C	0.508221	0.226416	0.744996
	C2137	C	0.754170	0.172212	0.837510
	C2138	C	0.501421	0.148103	0.879972
	C2139	C	0.755041	0.202327	0.787512
	C2140	C	0.503771	0.174078	0.873599
	C2141	C	0.757685	0.228206	0.780962
	C2142	C	0.505821	0.200494	0.751389
	C2143	C	0.751811	0.146355	0.844072
	H2144	H	0.667787	0.235942	0.732193
	H2145	H	0.913931	0.181278	0.823753
	H2146	H	0.660109	0.140259	0.895635
	H2147	H	0.914207	0.194153	0.802537
	H2148	H	0.844022	0.183304	0.884756
	H2149	H	0.597947	0.237441	0.792084
	H2150	H	0.847038	0.190058	0.742949
	H2151	H	0.593162	0.135750	0.836192
	H2152	H	0.841707	0.138408	0.892476
	H2153	H	0.595399	0.193254	0.801212
	H2154	H	0.849107	0.234443	0.729671
	H2155	H	0.595134	0.180358	0.822452
	H2156	H	0.665561	0.191095	0.740709
	H2157	H	0.911239	0.137088	0.833072
	H2158	H	0.662630	0.184711	0.881491
	H2159	H	0.916460	0.238837	0.788879
	O2160	O	0.088115	0.231834	0.905306
	O2161	O	0.334703	0.176988	0.996643
	O2162	O	0.081945	0.158382	1.027963
	O2163	O	0.335819	0.213869	0.937795
	O2164	O	0.415415	0.177737	1.024261
	O2165	O	0.169339	0.232927	0.933080
	O2166	O	0.416960	0.212187	0.910243
	O2167	O	0.162913	0.157178	1.000924
	O2168	O	0.413057	0.157981	1.027219
	O2169	O	0.166854	0.213543	0.937275
	O2170	O	0.419590	0.231484	0.904807
	O2171	O	0.165891	0.176657	0.996171
	O2172	O	0.086061	0.212517	0.909555
	O2173	O	0.331984	0.157586	1.000019
	O2174	O	0.084624	0.177999	1.023727
	O2175	O	0.338420	0.233235	0.932400
	F2176	F	-0.000952	0.167268	1.002230
	F2177	F	0.252692	0.222196	0.911463
	F2178	F	0.002660	0.223247	0.931193
	F2179	F	0.248945	0.167993	1.022156
	Al2180	Al	0.123953	0.167634	1.012255
	Al2181	Al	0.377734	0.222709	0.921336
	Al2182	Al	0.127662	0.222714	0.921334
	Al2183	Al	0.373803	0.167633	1.012203
	C2184	C	0.093941	0.246563	0.881665
	C2185	C	0.340458	0.191969	0.973475
	C2186	C	0.086387	0.142589	1.049409
	C2187	C	0.340523	0.199328	0.961756
	C2188	C	0.409330	0.194375	1.040226
	C2189	C	0.163362	0.249400	0.949511
	C2190	C	0.412565	0.195273	0.894903
	C2191	C	0.158499	0.140063	0.986179
	C2192	C	0.407381	0.141583	1.047054
	C2193	C	0.160980	0.198633	0.960590
	C2194	C	0.414834	0.245709	0.880273
	C2195	C	0.160886	0.191274	0.972306
	C2196	C	0.092217	0.196046	0.893159
	C2197	C	0.338220	0.141085	0.983654
	C2198	C	0.089175	0.194885	1.039213
	C2199	C	0.342890	0.250187	0.947710
	C2200	C	0.004066	0.242445	0.887090
	C2201	C	0.250585	0.187859	0.978899
	C2202	C	-0.003082	0.146237	1.043093
	C2203	C	0.250900	0.202729	0.955149
	C2204	C	-0.000377	0.190357	1.035769
	C2205	C	0.253496	0.245524	0.944645
	C2206	C	0.002020	0.199919	0.898008
	C2207	C	0.247918	0.144869	0.988796
	C2208	C	0.003706	0.234693	0.900004
	C2209	C	0.250388	0.179942	0.991489
	C2210	C	-0.002656	0.154804	1.031902
	C2211	C	0.251195	0.210600	0.942467
	C2212	C	0.000047	0.181396	1.027255
	C2213	C	0.253884	0.236583	0.936067
	C2214	C	0.001530	0.208863	0.906561
	C2215	C	0.247495	0.153854	0.997234
	H2216	H	0.163327	0.244087	0.886893
	H2217	H	0.410014	0.189385	0.978466
	H2218	H	0.155835	0.146148	1.046444
	H2219	H	0.410228	0.202477	0.957708
	H2220	H	0.340269	0.190888	1.037531
	H2221	H	0.094212	0.245831	0.947129
	H2222	H	0.343044	0.198218	0.898740
	H2223	H	0.088849	0.142920	0.990246
	H2224	H	0.338202	0.144319	1.042105
	H2225	H	0.091586	0.201226	0.955541
	H2226	H	0.345336	0.242526	0.884305
	H2227	H	0.091362	0.188096	0.976371
	H2228	H	0.161311	0.199625	0.895510
	H2229	H	0.407439	0.144781	0.985631
	H2230	H	0.158763	0.191822	1.035748
	H2231	H	0.412418	0.247253	0.943834
	O2232	O	0.588509	0.231829	0.905324
	O2233	O	0.834410	0.176987	0.996573
	O2234	O	0.582119	0.158376	1.027964
	O2235	O	0.835686	0.213864	0.937792
	O2236	O	0.915637	0.177740	1.024227
	O2237	O	0.669177	0.232909	0.933147
	O2238	O	0.917000	0.212191	0.910229
	O2239	O	0.663058	0.157185	1.000894
	O2240	O	0.912954	0.157984	1.027165
	O2241	O	0.666774	0.213553	0.937299
	O2242	O	0.919231	0.231476	0.904788
	O2243	O	0.665462	0.176694	0.996195
	O2244	O	0.586002	0.212546	0.909478
	O2245	O	0.832128	0.157582	0.999980
	O2246	O	0.584540	0.177992	1.023755
	O2247	O	0.838176	0.233233	0.932457
	F2248	F	0.498973	0.167266	1.002298
	F2249	F	0.752888	0.222176	0.911520
	F2250	F	0.502563	0.223228	0.931193
	F2251	F	0.749009	0.168002	1.022112
	Al2252	Al	0.623915	0.167622	1.012252
	Al2253	Al	0.877748	0.222705	0.921381
	Al2254	Al	0.627621	0.222710	0.921326
	Al2255	Al	0.874109	0.167639	1.012140
	C2256	C	0.594211	0.246568	0.881673
	C2257	C	0.840085	0.191960	0.973448
	C2258	C	0.586630	0.142632	1.049479
	C2259	C	0.840320	0.199317	0.961739
	C2260	C	0.909526	0.194366	1.040289
	C2261	C	0.663340	0.249398	0.949526
	C2262	C	0.912531	0.195265	0.894940
	C2263	C	0.658336	0.140054	0.986219
	C2264	C	0.907211	0.141577	1.047044
	C2265	C	0.660833	0.198619	0.960559
	C2266	C	0.914549	0.245735	0.880263
	C2267	C	0.660595	0.191261	0.972279
	C2268	C	0.592303	0.196046	0.893130
	C2269	C	0.837976	0.141061	0.983615
	C2270	C	0.589142	0.194887	1.039182
	C2271	C	0.842858	0.250156	0.947722
	C2272	C	0.504452	0.242455	0.887122
	C2273	C	0.750198	0.187853	0.978857
	C2274	C	0.497101	0.146259	1.043152
	C2275	C	0.750680	0.202732	0.955157
	C2276	C	0.499522	0.190329	1.035859
	C2277	C	0.753344	0.245511	0.944633
	C2278	C	0.502050	0.199920	0.897984
	C2279	C	0.747884	0.144842	0.988841
	C2280	C	0.504188	0.234721	0.900061
	C2281	C	0.750012	0.179965	0.991495
	C2282	C	0.497490	0.154822	1.031962
	C2283	C	0.751082	0.210598	0.942467
	C2284	C	0.499969	0.181367	1.027332
	C2285	C	0.753622	0.236582	0.936073
	C2286	C	0.501545	0.208856	0.906562
	C2287	C	0.747676	0.153835	0.997253
	H2288	H	0.663601	0.244089	0.886882
	H2289	H	0.909553	0.189383	0.978476
	H2290	H	0.656075	0.146218	1.046551
	H2291	H	0.909965	0.202459	0.957661
	H2292	H	0.840235	0.190874	1.037732
	H2293	H	0.594135	0.245827	0.947212
	H2294	H	0.842962	0.198210	0.898779
	H2295	H	0.588591	0.142918	0.990269
	H2296	H	0.837906	0.144292	1.042125
	H2297	H	0.591464	0.201197	0.955497
	H2298	H	0.845024	0.242565	0.884325
	H2299	H	0.591087	0.188100	0.976354
	H2300	H	0.661468	0.199620	0.895486
	H2301	H	0.907150	0.144771	0.985511
	H2302	H	0.658630	0.191820	1.035628
	H2303	H	0.912502	0.247211	0.943912
	O2304	O	0.088567	0.356797	0.030180
	O2305	O	0.334773	0.301961	0.121598
	O2306	O	0.082666	0.283281	0.152750
	O2307	O	0.336337	0.338868	0.062722
	O2308	O	0.415916	0.302694	0.149320
	O2309	O	0.169449	0.357940	0.058014
	O2310	O	0.417411	0.337222	0.035135
	O2311	O	0.163831	0.282276	0.125653
	O2312	O	0.413590	0.283071	0.152380
	O2313	O	0.167369	0.338592	0.062331
	O2314	O	0.419897	0.356481	0.029748
	O2315	O	0.165861	0.301741	0.121222
	O2316	O	0.086496	0.337477	0.034643
	O2317	O	0.332879	0.282498	0.125203
	O2318	O	0.084869	0.302970	0.148763
	O2319	O	0.338606	0.358192	0.057468
	F2320	F	-0.000434	0.292275	0.127233
	F2321	F	0.253052	0.347188	0.036433
	F2322	F	0.002853	0.348273	0.056166
	F2323	F	0.249323	0.292972	0.147128
	Al2324	Al	0.124393	0.292617	0.137196
	Al2325	Al	0.377957	0.347712	0.046309
	Al2326	Al	0.127970	0.347714	0.046308
	Al2327	Al	0.374375	0.292642	0.137177
	C2328	C	0.094063	0.371569	0.006591
	C2329	C	0.340765	0.316874	0.098300
	C2330	C	0.087178	0.267394	0.173891
	C2331	C	0.340934	0.324231	0.086571
	C2332	C	0.410103	0.319251	0.165634
	C2333	C	0.163685	0.374426	0.074429
	C2334	C	0.412791	0.320330	0.019692
	C2335	C	0.159228	0.265250	0.110615
	C2336	C	0.407809	0.266817	0.172570
	C2337	C	0.161469	0.323734	0.085721
	C2338	C	0.415103	0.370764	0.005315
	C2339	C	0.161284	0.316381	0.097452
	C2340	C	0.092404	0.320961	0.018326
	C2341	C	0.338625	0.265830	0.109307
	C2342	C	0.089702	0.319997	0.163797
	C2343	C	0.343330	0.375115	0.072823
	C2344	C	0.004276	0.367453	0.012032
	C2345	C	0.250847	0.312863	0.103871
	C2346	C	-0.002358	0.271223	0.168080
	C2347	C	0.251399	0.327745	0.080134
	C2348	C	0.000082	0.315355	0.160739
	C2349	C	0.253809	0.370506	0.069646
	C2350	C	0.002394	0.324893	0.023046
	C2351	C	0.248617	0.269833	0.113873
	C2352	C	0.004177	0.359708	0.024942
	C2353	C	0.250507	0.304956	0.116484
	C2354	C	-0.001972	0.279811	0.156915
	C2355	C	0.251757	0.335622	0.067458
	C2356	C	0.000325	0.306363	0.152299
	C2357	C	0.254034	0.361572	0.061053
	C2358	C	0.002004	0.333837	0.031592
	C2359	C	0.248339	0.278834	0.122262
	H2360	H	0.163564	0.369089	0.011791
	H2361	H	0.410221	0.314202	0.103202
	H2362	H	0.156655	0.270795	0.170518
	H2363	H	0.410583	0.327301	0.082349
	H2364	H	0.340934	0.315659	0.163358
	H2365	H	0.094360	0.370877	0.072029
	H2366	H	0.343221	0.323353	0.023303
	H2367	H	0.089569	0.268268	0.114185
	H2368	H	0.338665	0.269735	0.168078
	H2369	H	0.092037	0.326385	0.080827
	H2370	H	0.345674	0.367612	0.009416
	H2371	H	0.091608	0.313308	0.101646
	H2372	H	0.161439	0.324496	0.020793
	H2373	H	0.407846	0.269323	0.111801
	H2374	H	0.159288	0.316999	0.160062
	H2375	H	0.412951	0.372135	0.069091
	O2376	O	0.588851	0.356814	0.030242
	O2377	O	0.834968	0.301942	0.121493
	O2378	O	0.582582	0.283365	0.152900
	O2379	O	0.836159	0.338831	0.062662
	O2380	O	0.915813	0.302722	0.149319
	O2381	O	0.669314	0.357919	0.058103
	O2382	O	0.917478	0.337236	0.035103
	O2383	O	0.663507	0.282243	0.125738
	O2384	O	0.913681	0.283082	0.152425
	O2385	O	0.667155	0.338574	0.062311
	O2386	O	0.919666	0.356493	0.029753
	O2387	O	0.666057	0.301719	0.121164
	O2388	O	0.586427	0.337509	0.034520
	O2389	O	0.832578	0.282502	0.125196
	O2390	O	0.585119	0.303007	0.148696
	O2391	O	0.838491	0.358204	0.057510
	F2392	F	0.499404	0.292287	0.127263
	F2393	F	0.753119	0.347189	0.036492
	F2394	F	0.502945	0.348240	0.056123
	F2395	F	0.749453	0.293009	0.147116
	Al2396	Al	0.624539	0.292640	0.137204
	Al2397	Al	0.878137	0.347730	0.046315
	Al2398	Al	0.628008	0.347718	0.046302
	Al2399	Al	0.874591	0.292623	0.137190
	C2400	C	0.594425	0.371557	0.006611
	C2401	C	0.840815	0.316912	0.098287
	C2402	C	0.587367	0.267404	0.173872
	C2403	C	0.840938	0.324275	0.086574
	C2404	C	0.910017	0.319255	0.165625
	C2405	C	0.663374	0.374444	0.074369
	C2406	C	0.912910	0.320337	0.019690
	C2407	C	0.658821	0.265287	0.110486
	C2408	C	0.907816	0.266767	0.172560
	C2409	C	0.661468	0.323745	0.085762
	C2410	C	0.914514	0.370792	0.005318
	C2411	C	0.661271	0.316389	0.097474
	C2412	C	0.592404	0.320938	0.018364
	C2413	C	0.838084	0.265830	0.109311
	C2414	C	0.589786	0.319998	0.163813
	C2415	C	0.843075	0.375134	0.072820
	C2416	C	0.504624	0.367458	0.012087
	C2417	C	0.750947	0.312884	0.103869
	C2418	C	0.497666	0.271264	0.168135
	C2419	C	0.751300	0.327777	0.080183
	C2420	C	0.500140	0.315345	0.160799
	C2421	C	0.753550	0.370512	0.069673
	C2422	C	0.502341	0.324901	0.023006
	C2423	C	0.748199	0.269844	0.113845
	C2424	C	0.504482	0.359708	0.024983
	C2425	C	0.750654	0.304958	0.116440
	C2426	C	0.497977	0.279847	0.156985
	C2427	C	0.751529	0.335618	0.067450
	C2428	C	0.500427	0.306367	0.152287
	C2429	C	0.753885	0.361572	0.061092
	C2430	C	0.501958	0.333856	0.031531
	C2431	C	0.748067	0.278830	0.122280
	H2432	H	0.663823	0.369057	0.011797
	H2433	H	0.910223	0.314243	0.103169
	H2434	H	0.656838	0.270808	0.170456
	H2435	H	0.910453	0.327352	0.082331
	H2436	H	0.840841	0.315647	0.163407
	H2437	H	0.594150	0.370903	0.071918
	H2438	H	0.843320	0.323364	0.023287
	H2439	H	0.589351	0.268343	0.113956
	H2440	H	0.838504	0.269666	0.168063
	H2441	H	0.591967	0.326378	0.080868
	H2442	H	0.844908	0.367664	0.009464
	H2443	H	0.591690	0.313296	0.101668
	H2444	H	0.661573	0.324453	0.020862
	H2445	H	0.907238	0.269326	0.111800
	H2446	H	0.659331	0.317015	0.160024
	H2447	H	0.912666	0.372151	0.069081
	O2448	O	0.085188	0.364493	0.184125
	O2449	O	0.331761	0.305142	0.265803
	O2450	O	0.079063	0.283672	0.290418
	O2451	O	0.332819	0.345837	0.215337
	O2452	O	0.412616	0.304107	0.292709
	O2453	O	0.165921	0.365205	0.211877
	O2454	O	0.413984	0.344733	0.188275
	O2455	O	0.160282	0.284924	0.265812
	O2456	O	0.409830	0.283336	0.289507
	O2457	O	0.163789	0.345574	0.214970
	O2458	O	0.416722	0.364157	0.183623
	O2459	O	0.162946	0.304866	0.265205
	O2460	O	0.083171	0.345028	0.187673
	O2461	O	0.329362	0.285300	0.265047
	O2462	O	0.081885	0.304512	0.291941
	O2463	O	0.335011	0.365519	0.211167
	F2464	F	-0.003808	0.295206	0.268695
	F2465	F	0.249725	0.354768	0.189785
	F2466	F	-0.000392	0.355504	0.209680
	F2467	F	0.245967	0.294212	0.289076
	Al2468	Al	0.121035	0.294702	0.278971
	Al2469	Al	0.374620	0.355134	0.199703
	Al2470	Al	0.124619	0.355129	0.199735
	Al2471	Al	0.371107	0.294704	0.278955
	C2472	C	0.090726	0.379563	0.161103
	C2473	C	0.337470	0.321734	0.246318
	C2474	C	0.087935	0.264213	0.293081
	C2475	C	0.337623	0.329866	0.236335
	C2476	C	0.406362	0.321120	0.308023
	C2477	C	0.160157	0.381746	0.228203
	C2478	C	0.409655	0.327674	0.173340
	C2479	C	0.155546	0.267436	0.252122
	C2480	C	0.407932	0.263815	0.290700
	C2481	C	0.158120	0.329350	0.235256
	C2482	C	0.411770	0.378684	0.159645
	C2483	C	0.157967	0.321204	0.245240
	C2484	C	0.089222	0.328417	0.171532
	C2485	C	0.335546	0.268230	0.249891
	C2486	C	0.085864	0.322018	0.305584
	C2487	C	0.339606	0.382552	0.226178
	C2488	C	0.001018	0.375365	0.166385
	C2489	C	0.247772	0.317281	0.250825
	C2490	C	-0.003418	0.268976	0.291935
	C2491	C	0.247958	0.333758	0.230656
	C2492	C	-0.003634	0.317103	0.303353
	C2493	C	0.250097	0.377841	0.223326
	C2494	C	-0.000892	0.332357	0.176283
	C2495	C	0.245279	0.272308	0.254420
	C2496	C	0.000886	0.367425	0.178936
	C2497	C	0.247537	0.308479	0.261411
	C2498	C	-0.005113	0.279432	0.290576
	C2499	C	0.248262	0.342337	0.219491
	C2500	C	-0.002995	0.307909	0.295418
	C2501	C	0.250423	0.368883	0.214788
	C2502	C	-0.001264	0.341356	0.184725
	C2503	C	0.244977	0.281512	0.262327
	H2504	H	0.160236	0.377045	0.166214
	H2505	H	0.407100	0.318807	0.250590
	H2506	H	0.156925	0.268144	0.294093
	H2507	H	0.407309	0.333203	0.232896
	H2508	H	0.336766	0.317374	0.306430
	H2509	H	0.090877	0.378146	0.225981
	H2510	H	0.340065	0.330646	0.177086
	H2511	H	0.085621	0.270505	0.255693
	H2512	H	0.337153	0.267422	0.289749
	H2513	H	0.088862	0.332306	0.230872
	H2514	H	0.342173	0.375464	0.163561
	H2515	H	0.088587	0.317791	0.248684
	H2516	H	0.158405	0.331997	0.173849
	H2517	H	0.405091	0.271945	0.251634
	H2518	H	0.155974	0.319005	0.301916
	H2519	H	0.409059	0.379602	0.222284
	O2520	O	0.585527	0.364497	0.184126
	O2521	O	0.831690	0.305151	0.265736
	O2522	O	0.579153	0.283690	0.290451
	O2523	O	0.832382	0.345841	0.215425
	O2524	O	0.912773	0.304098	0.292713
	O2525	O	0.666401	0.365164	0.211933
	O2526	O	0.914217	0.344697	0.188390
	O2527	O	0.659763	0.284946	0.265769
	O2528	O	0.909655	0.283370	0.289570
	O2529	O	0.663346	0.345547	0.214893
	O2530	O	0.916453	0.364122	0.183548
	O2531	O	0.662879	0.304888	0.265235
	O2532	O	0.583006	0.345051	0.187613
	O2533	O	0.828890	0.285269	0.265058
	O2534	O	0.581778	0.304485	0.291979
	O2535	O	0.835450	0.365528	0.211176
	F2536	F	0.496128	0.295229	0.268716
	F2537	F	0.749801	0.354760	0.189834
	F2538	F	0.499480	0.355522	0.209633
	F2539	F	0.746183	0.294234	0.289011
	Al2540	Al	0.621108	0.294707	0.278944
	Al2541	Al	0.874759	0.355122	0.199757
	Al2542	Al	0.624689	0.355139	0.199725
	Al2543	Al	0.871388	0.294698	0.278859
	C2544	C	0.591150	0.379546	0.161079
	C2545	C	0.837265	0.321750	0.246334
	C2546	C	0.588162	0.264213	0.293131
	C2547	C	0.837348	0.329876	0.236359
	C2548	C	0.906008	0.321140	0.308045
	C2549	C	0.660123	0.381736	0.228194
	C2550	C	0.909566	0.327673	0.173354
	C2551	C	0.654750	0.267465	0.251955
	C2552	C	0.907555	0.263806	0.290683
	C2553	C	0.658006	0.329308	0.235152
	C2554	C	0.911332	0.378709	0.159665
	C2555	C	0.657944	0.321169	0.245149
	C2556	C	0.589237	0.328425	0.171524
	C2557	C	0.834897	0.268161	0.250091
	C2558	C	0.586263	0.322003	0.305548
	C2559	C	0.839687	0.382554	0.226259
	C2560	C	0.501413	0.375353	0.166395
	C2561	C	0.747655	0.317289	0.250820
	C2562	C	0.496888	0.268980	0.291935
	C2563	C	0.747719	0.333745	0.230640
	C2564	C	0.496636	0.317083	0.303338
	C2565	C	0.750286	0.377827	0.223388
	C2566	C	0.499110	0.332355	0.176313
	C2567	C	0.744576	0.272273	0.254487
	C2568	C	0.501211	0.367475	0.179021
	C2569	C	0.747411	0.308489	0.261398
	C2570	C	0.495129	0.279434	0.290565
	C2571	C	0.747749	0.342334	0.219513
	C2572	C	0.497013	0.307902	0.295418
	C2573	C	0.750828	0.368864	0.214843
	C2574	C	0.498574	0.341359	0.184709
	C2575	C	0.744348	0.281505	0.262320
	H2576	H	0.660654	0.377042	0.166197
	H2577	H	0.906854	0.318828	0.250645
	H2578	H	0.657130	0.268137	0.294170
	H2579	H	0.906944	0.333232	0.232968
	H2580	H	0.836546	0.317380	0.306450
	H2581	H	0.590896	0.378134	0.225916
	H2582	H	0.840031	0.330639	0.177176
	H2583	H	0.584859	0.270591	0.255338
	H2584	H	0.836702	0.267417	0.289746
	H2585	H	0.588783	0.332242	0.230713
	H2586	H	0.841820	0.375474	0.163587
	H2587	H	0.588672	0.317725	0.248514
	H2588	H	0.658534	0.332015	0.173757
	H2589	H	0.904472	0.271848	0.251905
	H2590	H	0.656275	0.318991	0.301859
	H2591	H	0.909368	0.379624	0.222379
	O2592	O	0.081571	0.367654	0.328335
	O2593	O	0.338414	0.297473	0.356652
	O2594	O	0.085375	0.274230	0.375467
	O2595	O	0.328861	0.346194	0.352972
	O2596	O	0.418662	0.294741	0.380416
	O2597	O	0.163046	0.366622	0.355155
	O2598	O	0.410094	0.347391	0.328277
	O2599	O	0.166733	0.276495	0.351220
	O2600	O	0.416103	0.274001	0.374621
	O2601	O	0.159509	0.345862	0.352128
	O2602	O	0.413062	0.367346	0.327665
	O2603	O	0.169137	0.297184	0.355750
	O2604	O	0.079294	0.347780	0.327560
	O2605	O	0.335795	0.276744	0.350814
	O2606	O	0.087622	0.295052	0.379862
	O2607	O	0.332078	0.367038	0.354279
	F2608	F	0.002556	0.286818	0.355392
	F2609	F	0.246052	0.357677	0.331144
	F2610	F	-0.003647	0.356743	0.351620
	F2611	F	0.252136	0.284641	0.375900
	Al2612	Al	0.127287	0.285737	0.365679
	Al2613	Al	0.370860	0.357177	0.341388
	Al2614	Al	0.121054	0.357187	0.341468
	Al2615	Al	0.377278	0.285728	0.365652
	C2616	C	0.087279	0.384233	0.308876
	C2617	C	0.340284	0.317060	0.355577
	C2618	C	0.093638	0.254748	0.376558
	C2619	C	0.337892	0.326747	0.355712
	C2620	C	0.412368	0.312265	0.394560
	C2621	C	0.156688	0.383635	0.370483
	C2622	C	0.405817	0.329858	0.314740
	C2623	C	0.161598	0.258785	0.337829
	C2624	C	0.413411	0.254474	0.374387
	C2625	C	0.157679	0.326317	0.353145
	C2626	C	0.408328	0.383663	0.307629
	C2627	C	0.160096	0.316618	0.353029
	C2628	C	0.085177	0.330748	0.312326
	C2629	C	0.341703	0.259371	0.336197
	C2630	C	0.092034	0.312905	0.392735
	C2631	C	0.336436	0.384537	0.367993
	C2632	C	-0.002481	0.379768	0.313330
	C2633	C	0.251478	0.311867	0.354289
	C2634	C	0.002448	0.259559	0.375998
	C2635	C	0.246488	0.331498	0.354513
	C2636	C	0.002400	0.307933	0.390626
	C2637	C	0.246952	0.379601	0.365792
	C2638	C	-0.005066	0.334798	0.316957
	C2639	C	0.251431	0.263669	0.340192
	C2640	C	-0.002735	0.370974	0.323906
	C2641	C	0.253306	0.301412	0.355629
	C2642	C	0.001235	0.270022	0.375395
	C2643	C	0.244766	0.341951	0.353141
	C2644	C	0.002849	0.298533	0.383175
	C2645	C	0.247380	0.370420	0.357862
	C2646	C	-0.005301	0.344019	0.324831
	C2647	C	0.251365	0.272984	0.347913
	H2648	H	0.156663	0.381295	0.313261
	H2649	H	0.411117	0.313463	0.356544
	H2650	H	0.163011	0.258598	0.377784
	H2651	H	0.406877	0.330681	0.356777
	H2652	H	0.342421	0.308543	0.393076
	H2653	H	0.087128	0.379888	0.368876
	H2654	H	0.335798	0.332883	0.318371
	H2655	H	0.091363	0.262020	0.340812
	H2656	H	0.342399	0.258065	0.373885
	H2657	H	0.086766	0.329908	0.352089
	H2658	H	0.338851	0.380231	0.310940
	H2659	H	0.091082	0.312704	0.351916
	H2660	H	0.154781	0.334482	0.313942
	H2661	H	0.411600	0.263086	0.337813
	H2662	H	0.162545	0.309733	0.389671
	H2663	H	0.406447	0.381536	0.364292
	O2664	O	0.581871	0.367620	0.328226
	O2665	O	0.838272	0.297462	0.356546
	O2666	O	0.585400	0.274249	0.375425
	O2667	O	0.828668	0.346149	0.353044
	O2668	O	0.918510	0.294692	0.380520
	O2669	O	0.662239	0.366661	0.355096
	O2670	O	0.910196	0.347457	0.328314
	O2671	O	0.666308	0.276458	0.351236
	O2672	O	0.916041	0.273989	0.374702
	O2673	O	0.659303	0.345871	0.352142
	O2674	O	0.912791	0.367372	0.327724
	O2675	O	0.669099	0.297132	0.355527
	O2676	O	0.579294	0.347771	0.327564
	O2677	O	0.835465	0.276706	0.350748
	O2678	O	0.587860	0.295101	0.379715
	O2679	O	0.831297	0.367000	0.354536
	F2680	F	0.502185	0.286827	0.355363
	F2681	F	0.746138	0.357694	0.331266
	F2682	F	0.495603	0.356714	0.351519
	F2683	F	0.752066	0.284627	0.375776
	Al2684	Al	0.627206	0.285721	0.365560
	Al2685	Al	0.871062	0.357209	0.341508
	Al2686	Al	0.620806	0.357183	0.341461
	Al2687	Al	0.877614	0.285709	0.365619
	C2688	C	0.587607	0.384262	0.308897
	C2689	C	0.839997	0.317024	0.355728
	C2690	C	0.593716	0.254776	0.376585
	C2691	C	0.837499	0.326716	0.355893
	C2692	C	0.911970	0.312237	0.394632
	C2693	C	0.655913	0.383676	0.370381
	C2694	C	0.905335	0.329872	0.314766
	C2695	C	0.661475	0.258738	0.337945
	C2696	C	0.913303	0.254457	0.374390
	C2697	C	0.657600	0.326293	0.352964
	C2698	C	0.907918	0.383660	0.307635
	C2699	C	0.660072	0.316595	0.352814
	C2700	C	0.585741	0.330739	0.312293
	C2701	C	0.841442	0.259359	0.336184
	C2702	C	0.592284	0.312939	0.392594
	C2703	C	0.835844	0.384481	0.368191
	C2704	C	0.497900	0.379781	0.313353
	C2705	C	0.751335	0.311837	0.354205
	C2706	C	0.502503	0.259589	0.375924
	C2707	C	0.746143	0.331474	0.354550
	C2708	C	0.502688	0.307971	0.390517
	C2709	C	0.746225	0.379586	0.365867
	C2710	C	0.495469	0.334776	0.316947
	C2711	C	0.751198	0.263647	0.340205
	C2712	C	0.497591	0.370974	0.323891
	C2713	C	0.753106	0.301379	0.355468
	C2714	C	0.501167	0.270045	0.375345
	C2715	C	0.744415	0.341933	0.353203
	C2716	C	0.503080	0.298585	0.383043
	C2717	C	0.746581	0.370426	0.357920
	C2718	C	0.494898	0.343987	0.324834
	C2719	C	0.750896	0.272962	0.347882
	H2720	H	0.657047	0.381328	0.313251
	H2721	H	0.910773	0.313429	0.356838
	H2722	H	0.663105	0.258625	0.377855
	H2723	H	0.906364	0.330647	0.357106
	H2724	H	0.842058	0.308509	0.393151
	H2725	H	0.586253	0.379970	0.368653
	H2726	H	0.835260	0.332887	0.318396
	H2727	H	0.591170	0.261958	0.340965
	H2728	H	0.842480	0.258080	0.373881
	H2729	H	0.586732	0.329877	0.351788
	H2730	H	0.838347	0.380251	0.310970
	H2731	H	0.591127	0.312677	0.351562
	H2732	H	0.655305	0.334486	0.313899
	H2733	H	0.911365	0.263066	0.337769
	H2734	H	0.662746	0.309782	0.389485
	H2735	H	0.905935	0.381448	0.364602
	O2736	O	0.088916	0.359956	0.419022
	O2737	O	0.343296	0.288073	0.437996
	O2738	O	0.090346	0.264918	0.456970
	O2739	O	0.335256	0.336726	0.437993
	O2740	O	0.423663	0.285297	0.461818
	O2741	O	0.169035	0.357260	0.442792
	O2742	O	0.416682	0.338961	0.413781
	O2743	O	0.171761	0.266961	0.432780
	O2744	O	0.421110	0.264597	0.455965
	O2745	O	0.166000	0.336467	0.436971
	O2746	O	0.419828	0.359626	0.418070
	O2747	O	0.174026	0.287807	0.437063
	O2748	O	0.085512	0.339279	0.413129
	O2749	O	0.340896	0.267273	0.432201
	O2750	O	0.092354	0.285600	0.461237
	O2751	O	0.338357	0.357593	0.442237
	F2752	F	0.007667	0.277434	0.436607
	F2753	F	0.252621	0.349303	0.417844
	F2754	F	0.002736	0.347142	0.438327
	F2755	F	0.256997	0.275229	0.457188
	Al2756	Al	0.132214	0.276331	0.446909
	Al2757	Al	0.377454	0.348212	0.428118
	Al2758	Al	0.127577	0.348226	0.428035
	Al2759	Al	0.382192	0.276323	0.446911
	C2760	C	0.090756	0.379514	0.417974
	C2761	C	0.345845	0.307595	0.438202
	C2762	C	0.099373	0.245467	0.459483
	C2763	C	0.343850	0.317253	0.439126
	C2764	C	0.417590	0.302697	0.476373
	C2765	C	0.162785	0.374790	0.456902
	C2766	C	0.411808	0.321216	0.400519
	C2767	C	0.167019	0.249133	0.419848
	C2768	C	0.419083	0.245040	0.456995
	C2769	C	0.163420	0.316941	0.436871
	C2770	C	0.410746	0.379082	0.415539
	C2771	C	0.165463	0.307275	0.435953
	C2772	C	0.091518	0.321866	0.398647
	C2773	C	0.346855	0.249754	0.418061
	C2774	C	0.096929	0.303322	0.474532
	C2775	C	0.342914	0.375408	0.455199
	C2776	C	0.001920	0.374323	0.416673
	C2777	C	0.256756	0.302485	0.436625
	C2778	C	0.008024	0.250227	0.458292
	C2779	C	0.252573	0.322051	0.438450
	C2780	C	0.007264	0.298373	0.472369
	C2781	C	0.253178	0.370476	0.452992
	C2782	C	0.001264	0.326148	0.402698
	C2783	C	0.256679	0.254086	0.422001
	C2784	C	0.003700	0.363864	0.417893
	C2785	C	0.258193	0.292024	0.437209
	C2786	C	0.006370	0.260681	0.457022
	C2787	C	0.251064	0.332511	0.437827
	C2788	C	0.007624	0.289054	0.464656
	C2789	C	0.253508	0.361084	0.445507
	C2790	C	0.001084	0.335497	0.410324
	C2791	C	0.256448	0.263462	0.429482
	H2792	H	0.161801	0.375930	0.418911
	H2793	H	0.416869	0.303983	0.438757
	H2794	H	0.168460	0.249380	0.460562
	H2795	H	0.413252	0.321111	0.440393
	H2796	H	0.347601	0.298999	0.474817
	H2797	H	0.092787	0.371090	0.455277
	H2798	H	0.341379	0.324389	0.403605
	H2799	H	0.096558	0.252302	0.422908
	H2800	H	0.348169	0.248624	0.456059
	H2801	H	0.092658	0.320584	0.436324
	H2802	H	0.341795	0.375150	0.414479
	H2803	H	0.096314	0.303393	0.434683
	H2804	H	0.161513	0.325590	0.400112
	H2805	H	0.417072	0.253425	0.419626
	H2806	H	0.167482	0.300155	0.471463
	H2807	H	0.413540	0.372228	0.452185
	O2808	O	0.589038	0.359955	0.419171
	O2809	O	0.843260	0.288112	0.437957
	O2810	O	0.590400	0.264905	0.456846
	O2811	O	0.835215	0.336732	0.438036
	O2812	O	0.923267	0.285240	0.461860
	O2813	O	0.668964	0.357220	0.442951
	O2814	O	0.916391	0.338984	0.413694
	O2815	O	0.671252	0.267025	0.432607
	O2816	O	0.921118	0.264617	0.455923
	O2817	O	0.665976	0.336463	0.437071
	O2818	O	0.919755	0.359609	0.417862
	O2819	O	0.673959	0.287822	0.437039
	O2820	O	0.585767	0.339256	0.413209
	O2821	O	0.840461	0.267239	0.432169
	O2822	O	0.592788	0.285586	0.461271
	O2823	O	0.838123	0.357638	0.442171
	F2824	F	0.507203	0.277425	0.436680
	F2825	F	0.752562	0.349303	0.417903
	F2826	F	0.502230	0.347133	0.438380
	F2827	F	0.757205	0.275227	0.457075
	Al2828	Al	0.632213	0.276338	0.446859
	Al2829	Al	0.877845	0.348231	0.428096
	Al2830	Al	0.627479	0.348218	0.428138
	Al2831	Al	0.882561	0.276323	0.446842
	C2832	C	0.590865	0.379521	0.418019
	C2833	C	0.845725	0.307602	0.438207
	C2834	C	0.599187	0.245447	0.459498
	C2835	C	0.843793	0.317256	0.439141
	C2836	C	0.916902	0.302666	0.476458
	C2837	C	0.662587	0.374752	0.457053
	C2838	C	0.911484	0.321197	0.400521
	C2839	C	0.666431	0.249159	0.419819
	C2840	C	0.919147	0.245059	0.456933
	C2841	C	0.663456	0.316956	0.436726
	C2842	C	0.910492	0.379084	0.415434
	C2843	C	0.665380	0.307291	0.435802
	C2844	C	0.591706	0.321887	0.398571
	C2845	C	0.846401	0.249775	0.418064
	C2846	C	0.597527	0.303317	0.474571
	C2847	C	0.842458	0.375445	0.455124
	C2848	C	0.502110	0.374326	0.416748
	C2849	C	0.756628	0.302500	0.436520
	C2850	C	0.507960	0.250218	0.458268
	C2851	C	0.752517	0.322055	0.438392
	C2852	C	0.507799	0.298379	0.472358
	C2853	C	0.752896	0.370468	0.453030
	C2854	C	0.501463	0.326166	0.402673
	C2855	C	0.756067	0.254098	0.421981
	C2856	C	0.503878	0.363870	0.418062
	C2857	C	0.758091	0.292046	0.437136
	C2858	C	0.506282	0.260673	0.456968
	C2859	C	0.751056	0.332515	0.437858
	C2860	C	0.508117	0.289066	0.464670
	C2861	C	0.753268	0.361090	0.445536
	C2862	C	0.501298	0.335481	0.410379
	C2863	C	0.755858	0.263479	0.429410
	H2864	H	0.661851	0.375937	0.418988
	H2865	H	0.916612	0.303983	0.438837
	H2866	H	0.668374	0.249348	0.460586
	H2867	H	0.913089	0.321100	0.440511
	H2868	H	0.846919	0.298951	0.474948
	H2869	H	0.592704	0.371023	0.455550
	H2870	H	0.841058	0.324385	0.403527
	H2871	H	0.595862	0.252337	0.422834
	H2872	H	0.848234	0.248657	0.455943
	H2873	H	0.592632	0.320595	0.436155
	H2874	H	0.841422	0.375162	0.414310
	H2875	H	0.596268	0.303406	0.434493
	H2876	H	0.661629	0.325610	0.400040
	H2877	H	0.916439	0.253467	0.419622
	H2878	H	0.668036	0.300139	0.471522
	H2879	H	0.912984	0.372292	0.452011
	O2880	O	0.093925	0.350584	0.500362
	O2881	O	0.349944	0.278737	0.523039
	O2882	O	0.096517	0.257199	0.547278
	O2883	O	0.340559	0.327413	0.519323
	O2884	O	0.430499	0.276778	0.547450
	O2885	O	0.174209	0.347814	0.524204
	O2886	O	0.421956	0.329494	0.495164
	O2887	O	0.178124	0.257559	0.520591
	O2888	O	0.427785	0.256905	0.546693
	O2889	O	0.171319	0.327118	0.518357
	O2890	O	0.424634	0.350332	0.499427
	O2891	O	0.180571	0.278386	0.522031
	O2892	O	0.090635	0.329794	0.494588
	O2893	O	0.347232	0.257909	0.519871
	O2894	O	0.099248	0.277119	0.546698
	O2895	O	0.343264	0.348136	0.523668
	F2896	F	0.013957	0.267802	0.523369
	F2897	F	0.257802	0.339929	0.499076
	F2898	F	0.007755	0.337740	0.519642
	F2899	F	0.263489	0.266872	0.543813
	Al2900	Al	0.138728	0.267352	0.533544
	Al2901	Al	0.382599	0.338862	0.509302
	Al2902	Al	0.132664	0.338849	0.509308
	Al2903	Al	0.388574	0.267368	0.533590
	C2904	C	0.096234	0.370100	0.500626
	C2905	C	0.351545	0.298266	0.521924
	C2906	C	0.101425	0.240966	0.567505
	C2907	C	0.349183	0.307959	0.521969
	C2908	C	0.424165	0.293849	0.562605
	C2909	C	0.167819	0.365190	0.538869
	C2910	C	0.417166	0.311648	0.482339
	C2911	C	0.173348	0.240088	0.506846
	C2912	C	0.422214	0.240256	0.566008
	C2913	C	0.169152	0.307554	0.519374
	C2914	C	0.416046	0.369799	0.498419
	C2915	C	0.171529	0.297850	0.519322
	C2916	C	0.096492	0.312278	0.480478
	C2917	C	0.353257	0.240882	0.504622
	C2918	C	0.103706	0.294629	0.560407
	C2919	C	0.347765	0.365885	0.536975
	C2920	C	0.007101	0.364982	0.499043
	C2921	C	0.262812	0.293091	0.520536
	C2922	C	0.011822	0.244784	0.561684
	C2923	C	0.257950	0.312729	0.520737
	C2924	C	0.014066	0.289748	0.558022
	C2925	C	0.258193	0.360912	0.534784
	C2926	C	0.006251	0.316567	0.484516
	C2927	C	0.263070	0.244969	0.509141
	C2928	C	0.008738	0.354526	0.499560
	C2929	C	0.264642	0.282637	0.521913
	C2930	C	0.012010	0.253578	0.551072
	C2931	C	0.256409	0.323183	0.519424
	C2932	C	0.014498	0.280522	0.550190
	C2933	C	0.258579	0.351602	0.527068
	C2934	C	0.006216	0.325965	0.491954
	C2935	C	0.262785	0.254150	0.517078
	H2936	H	0.167209	0.366482	0.501114
	H2937	H	0.422474	0.294675	0.522996
	H2938	H	0.170915	0.244433	0.564293
	H2939	H	0.418260	0.311872	0.523030
	H2940	H	0.354564	0.290141	0.560889
	H2941	H	0.097765	0.361483	0.537352
	H2942	H	0.346846	0.314846	0.485373
	H2943	H	0.103375	0.243137	0.510433
	H2944	H	0.352793	0.243152	0.561538
	H2945	H	0.098381	0.311156	0.518333
	H2946	H	0.346757	0.365930	0.497166
	H2947	H	0.102534	0.293919	0.518261
	H2948	H	0.166503	0.315992	0.481945
	H2949	H	0.422889	0.244585	0.506336
	H2950	H	0.173852	0.291571	0.556943
	H2951	H	0.418428	0.362739	0.533901
	O2952	O	0.593942	0.350597	0.500452
	O2953	O	0.849756	0.278753	0.522936
	O2954	O	0.596607	0.257246	0.547382
	O2955	O	0.840079	0.327379	0.519506
	O2956	O	0.930156	0.276742	0.547427
	O2957	O	0.673929	0.347768	0.524365
	O2958	O	0.921504	0.329485	0.495263
	O2959	O	0.677249	0.257562	0.520565
	O2960	O	0.927770	0.256885	0.546641
	O2961	O	0.670853	0.327108	0.518481
	O2962	O	0.924594	0.350286	0.499452
	O2963	O	0.680462	0.278362	0.521957
	O2964	O	0.591080	0.329797	0.494621
	O2965	O	0.846400	0.257918	0.519808
	O2966	O	0.599598	0.277161	0.546723
	O2967	O	0.843058	0.348143	0.523744
	F2968	F	0.513542	0.267837	0.523442
	F2969	F	0.757811	0.339905	0.499216
	F2970	F	0.507206	0.337773	0.519566
	F2971	F	0.763499	0.266889	0.543770
	Al2972	Al	0.638538	0.267372	0.533535
	Al2973	Al	0.882961	0.338821	0.509448
	Al2974	Al	0.632515	0.338835	0.509382
	Al2975	Al	0.888685	0.267347	0.533506
	C2976	C	0.596466	0.370120	0.500653
	C2977	C	0.851150	0.298271	0.521826
	C2978	C	0.601545	0.240977	0.567558
	C2979	C	0.848757	0.307955	0.521962
	C2980	C	0.923731	0.293843	0.562537
	C2981	C	0.667470	0.365181	0.538845
	C2982	C	0.916458	0.311614	0.482406
	C2983	C	0.672975	0.240021	0.506978
	C2984	C	0.922131	0.240253	0.565970
	C2985	C	0.668678	0.307545	0.519455
	C2986	C	0.915678	0.369775	0.498431
	C2987	C	0.671018	0.297841	0.519315
	C2988	C	0.597094	0.312265	0.480535
	C2989	C	0.852767	0.240931	0.504494
	C2990	C	0.603945	0.294686	0.560319
	C2991	C	0.847490	0.365844	0.537031
	C2992	C	0.507398	0.365004	0.499039
	C2993	C	0.762350	0.293090	0.520486
	C2994	C	0.511996	0.244786	0.561707
	C2995	C	0.757433	0.312707	0.520806
	C2996	C	0.514496	0.289763	0.558088
	C2997	C	0.757836	0.360895	0.534796
	C2998	C	0.506858	0.316586	0.484482
	C2999	C	0.762401	0.244948	0.509174
	C3000	C	0.508857	0.354546	0.499610
	C3001	C	0.764377	0.282637	0.521827
	C3002	C	0.512143	0.253587	0.551097
	C3003	C	0.755868	0.323163	0.519568
	C3004	C	0.514885	0.280564	0.550195
	C3005	C	0.758256	0.351586	0.527132
	C3006	C	0.506666	0.325979	0.491914
	C3007	C	0.761910	0.254133	0.517112
	H3008	H	0.667406	0.366507	0.501204
	H3009	H	0.922000	0.294683	0.522810
	H3010	H	0.670985	0.244459	0.564388
	H3011	H	0.917881	0.311866	0.523037
	H3012	H	0.854192	0.290130	0.560827
	H3013	H	0.597384	0.361473	0.537330
	H3014	H	0.846070	0.314800	0.485485
	H3015	H	0.603011	0.243024	0.510669
	H3016	H	0.852790	0.243141	0.561475
	H3017	H	0.597799	0.311146	0.518481
	H3018	H	0.846444	0.365896	0.497170
	H3019	H	0.602222	0.293902	0.518241
	H3020	H	0.667065	0.315966	0.482070
	H3021	H	0.922256	0.244687	0.506074
	H3022	H	0.674108	0.291673	0.556736
	H3023	H	0.918198	0.362684	0.534026
	O3024	O	0.100481	0.341222	0.585445
	O3025	O	0.346318	0.279065	0.660253
	O3026	O	0.093125	0.260416	0.691398
	O3027	O	0.346532	0.319765	0.609960
	O3028	O	0.426986	0.279449	0.687517
	O3029	O	0.180486	0.339271	0.609923
	O3030	O	0.428009	0.320069	0.583089
	O3031	O	0.174710	0.259027	0.663786
	O3032	O	0.424519	0.260040	0.690884
	O3033	O	0.177696	0.319348	0.609086
	O3034	O	0.431160	0.340869	0.584538
	O3035	O	0.177332	0.278639	0.659486
	O3036	O	0.097208	0.320426	0.582295
	O3037	O	0.343746	0.259394	0.663044
	O3038	O	0.096107	0.279871	0.686549
	O3039	O	0.349631	0.339640	0.609198
	F3040	F	0.010443	0.269054	0.665328
	F3041	F	0.264114	0.330323	0.585961
	F3042	F	0.013631	0.329369	0.606290
	F3043	F	0.260010	0.269748	0.685207
	Al3044	Al	0.135250	0.269412	0.675240
	Al3045	Al	0.388859	0.329866	0.596063
	Al3046	Al	0.138962	0.329857	0.596016
	Al3047	Al	0.385275	0.269412	0.675300
	C3048	C	0.101761	0.360770	0.584501
	C3049	C	0.351548	0.295440	0.640317
	C3050	C	0.097949	0.245839	0.715325
	C3051	C	0.351524	0.303590	0.630344
	C3052	C	0.420783	0.296000	0.703789
	C3053	C	0.174134	0.356335	0.625114
	C3054	C	0.423489	0.302588	0.569347
	C3055	C	0.170410	0.242023	0.648741
	C3056	C	0.419100	0.245013	0.713905
	C3057	C	0.172405	0.302587	0.628139
	C3058	C	0.421865	0.360325	0.581841
	C3059	C	0.172434	0.294452	0.638094
	C3060	C	0.103080	0.303370	0.567119
	C3061	C	0.349936	0.242851	0.646705
	C3062	C	0.100349	0.296978	0.701369
	C3063	C	0.354106	0.357155	0.622840
	C3064	C	0.013143	0.355578	0.582962
	C3065	C	0.261957	0.290804	0.644358
	C3066	C	0.008421	0.249206	0.708677
	C3067	C	0.261945	0.307271	0.624195
	C3068	C	0.010991	0.292189	0.698675
	C3069	C	0.264455	0.352277	0.620497
	C3070	C	0.012820	0.307445	0.571642
	C3071	C	0.259832	0.246729	0.651630
	C3072	C	0.015179	0.345123	0.584307
	C3073	C	0.261857	0.282221	0.655522
	C3074	C	0.008543	0.257105	0.696051
	C3075	C	0.262048	0.316078	0.613619
	C3076	C	0.011470	0.283195	0.690286
	C3077	C	0.264917	0.343054	0.612653
	C3078	C	0.012692	0.316655	0.579542
	C3079	C	0.259340	0.255691	0.660142
	H3080	H	0.172631	0.357178	0.585616
	H3081	H	0.420708	0.292698	0.645160
	H3082	H	0.167404	0.249051	0.711375
	H3083	H	0.420720	0.307195	0.627412
	H3084	H	0.351690	0.292303	0.701787
	H3085	H	0.104487	0.352607	0.623451
	H3086	H	0.353571	0.305635	0.572954
	H3087	H	0.100841	0.244958	0.652602
	H3088	H	0.349682	0.247533	0.708753
	H3089	H	0.102962	0.305348	0.623383
	H3090	H	0.352900	0.356394	0.580773
	H3091	H	0.103013	0.290900	0.641078
	H3092	H	0.172577	0.307079	0.568832
	H3093	H	0.419024	0.246478	0.648888
	H3094	H	0.170026	0.294085	0.697368
	H3095	H	0.424350	0.354112	0.619325
	O3096	O	0.600527	0.341223	0.585522
	O3097	O	0.846314	0.279110	0.660279
	O3098	O	0.593422	0.260463	0.691455
	O3099	O	0.846590	0.319752	0.609936
	O3100	O	0.927157	0.279457	0.687540
	O3101	O	0.680572	0.339213	0.610046
	O3102	O	0.928090	0.320069	0.583071
	O3103	O	0.674645	0.259038	0.663828
	O3104	O	0.924251	0.260053	0.690902
	O3105	O	0.677861	0.319336	0.609043
	O3106	O	0.931118	0.340854	0.584394
	O3107	O	0.677348	0.278634	0.659399
	O3108	O	0.597178	0.320460	0.582241
	O3109	O	0.843702	0.259423	0.663011
	O3110	O	0.596128	0.279892	0.686524
	O3111	O	0.849518	0.339691	0.609176
	F3112	F	0.510310	0.269067	0.665361
	F3113	F	0.764057	0.330335	0.586004
	F3114	F	0.513782	0.329354	0.606321
	F3115	F	0.760268	0.269789	0.685193
	Al3116	Al	0.635273	0.269444	0.675246
	Al3117	Al	0.889271	0.329863	0.596097
	Al3118	Al	0.638990	0.329858	0.596048
	Al3119	Al	0.885519	0.269427	0.675271
	C3120	C	0.602006	0.360770	0.584446
	C3121	C	0.851631	0.295449	0.640323
	C3122	C	0.598562	0.245851	0.715360
	C3123	C	0.851622	0.303583	0.630322
	C3124	C	0.920678	0.296026	0.703681
	C3125	C	0.673834	0.356257	0.625303
	C3126	C	0.923107	0.302580	0.569264
	C3127	C	0.670036	0.242006	0.648818
	C3128	C	0.918705	0.245025	0.713991
	C3129	C	0.672387	0.302615	0.628120
	C3130	C	0.921755	0.360334	0.581729
	C3131	C	0.672396	0.294494	0.638108
	C3132	C	0.603368	0.303427	0.567033
	C3133	C	0.849737	0.242886	0.646746
	C3134	C	0.600455	0.296976	0.701344
	C3135	C	0.853498	0.357244	0.622650
	C3136	C	0.513288	0.355575	0.583054
	C3137	C	0.761906	0.290825	0.644343
	C3138	C	0.508893	0.249206	0.708667
	C3139	C	0.762010	0.307274	0.624181
	C3140	C	0.510953	0.292188	0.698682
	C3141	C	0.764148	0.352252	0.620543
	C3142	C	0.513074	0.307478	0.571636
	C3143	C	0.759541	0.246743	0.651647
	C3144	C	0.515223	0.345122	0.584419
	C3145	C	0.761841	0.282245	0.655495
	C3146	C	0.508982	0.257122	0.696069
	C3147	C	0.762120	0.316069	0.613575
	C3148	C	0.511438	0.283197	0.690261
	C3149	C	0.764736	0.343059	0.612680
	C3150	C	0.512710	0.316661	0.579579
	C3151	C	0.759253	0.255711	0.660150
	H3152	H	0.672944	0.357182	0.585526
	H3153	H	0.920910	0.292682	0.645165
	H3154	H	0.668093	0.249065	0.711411
	H3155	H	0.920888	0.307166	0.627341
	H3156	H	0.851447	0.292361	0.701599
	H3157	H	0.604338	0.352494	0.623761
	H3158	H	0.853136	0.305640	0.572792
	H3159	H	0.600495	0.244944	0.652706
	H3160	H	0.849310	0.247577	0.708920
	H3161	H	0.602978	0.305370	0.623350
	H3162	H	0.852772	0.356411	0.580582
	H3163	H	0.602868	0.290961	0.641083
	H3164	H	0.672756	0.307176	0.568674
	H3165	H	0.918887	0.246526	0.648914
	H3166	H	0.670198	0.294084	0.697334
	H3167	H	0.923694	0.354276	0.618951
	O3168	O	0.096150	0.341555	0.722754
	O3169	O	0.342478	0.286036	0.812746
	O3170	O	0.089575	0.268089	0.845226
	O3171	O	0.343104	0.322932	0.753912
	O3172	O	0.423207	0.287058	0.840473
	O3173	O	0.176941	0.341943	0.749960
	O3174	O	0.424551	0.321539	0.726258
	O3175	O	0.171014	0.266348	0.817558
	O3176	O	0.420787	0.267750	0.844753
	O3177	O	0.174208	0.322505	0.753271
	O3178	O	0.427091	0.341191	0.722105
	O3179	O	0.173557	0.285642	0.812147
	O3180	O	0.093476	0.321934	0.725405
	O3181	O	0.340004	0.266680	0.816856
	O3182	O	0.092608	0.287415	0.839654
	O3183	O	0.346002	0.342329	0.749172
	F3184	F	0.006852	0.276311	0.818808
	F3185	F	0.260429	0.331552	0.727839
	F3186	F	0.010262	0.332263	0.747744
	F3187	F	0.256542	0.277367	0.838558
	Al3188	Al	0.131763	0.276846	0.828648
	Al3189	Al	0.385445	0.331914	0.737770
	Al3190	Al	0.135298	0.331904	0.737767
	Al3191	Al	0.381615	0.276869	0.828678
	C3192	C	0.101311	0.357826	0.702553
	C3193	C	0.347824	0.301074	0.789717
	C3194	C	0.094176	0.253797	0.869688
	C3195	C	0.347844	0.308444	0.777989
	C3196	C	0.417415	0.303476	0.857043
	C3197	C	0.170851	0.358597	0.765954
	C3198	C	0.420044	0.304437	0.711456
	C3199	C	0.166359	0.249457	0.802151
	C3200	C	0.415046	0.252948	0.868297
	C3201	C	0.168723	0.307435	0.776265
	C3202	C	0.422302	0.357074	0.700917
	C3203	C	0.168679	0.300083	0.787961
	C3204	C	0.099623	0.305415	0.709058
	C3205	C	0.345961	0.250189	0.800458
	C3206	C	0.096790	0.304351	0.854906
	C3207	C	0.350314	0.359381	0.764105
	C3208	C	0.011703	0.353286	0.706875
	C3209	C	0.258197	0.296820	0.794839
	C3210	C	0.004628	0.257086	0.862874
	C3211	C	0.258302	0.311723	0.771173
	C3212	C	0.007334	0.299639	0.851999
	C3213	C	0.260862	0.354709	0.761078
	C3214	C	0.009470	0.309212	0.714171
	C3215	C	0.255941	0.254066	0.805325
	C3216	C	0.011584	0.344718	0.718062
	C3217	C	0.258085	0.288953	0.807539
	C3218	C	0.004905	0.264857	0.849983
	C3219	C	0.258563	0.319609	0.758518
	C3220	C	0.007936	0.290712	0.843403
	C3221	C	0.261344	0.345686	0.752733
	C3222	C	0.008977	0.318182	0.722650
	C3223	C	0.255574	0.263005	0.813905
	H3224	H	0.170721	0.354998	0.707139
	H3225	H	0.416946	0.298599	0.794999
	H3226	H	0.163693	0.256960	0.865619
	H3227	H	0.417092	0.311721	0.774091
	H3228	H	0.348240	0.299845	0.854843
	H3229	H	0.101705	0.354977	0.763760
	H3230	H	0.350451	0.307329	0.715453
	H3231	H	0.096840	0.252445	0.805892
	H3232	H	0.345750	0.255390	0.863013
	H3233	H	0.099218	0.309856	0.770979
	H3234	H	0.352818	0.353609	0.704146
	H3235	H	0.099184	0.296803	0.791759
	H3236	H	0.168763	0.309107	0.711069
	H3237	H	0.415005	0.253778	0.802790
	H3238	H	0.166425	0.301452	0.850951
	H3239	H	0.419952	0.356398	0.760392
	O3240	O	0.596167	0.341497	0.722632
	O3241	O	0.842335	0.286045	0.812784
	O3242	O	0.589672	0.268074	0.845247
	O3243	O	0.843030	0.322947	0.754022
	O3244	O	0.923611	0.286998	0.840576
	O3245	O	0.676898	0.341991	0.749865
	O3246	O	0.924458	0.321481	0.726424
	O3247	O	0.670825	0.266345	0.817546
	O3248	O	0.920669	0.267707	0.844649
	O3249	O	0.674209	0.322523	0.753359
	O3250	O	0.927197	0.341143	0.722056
	O3251	O	0.673391	0.285650	0.812223
	O3252	O	0.593613	0.321870	0.725561
	O3253	O	0.839858	0.266671	0.816848
	O3254	O	0.592361	0.287336	0.839869
	O3255	O	0.846045	0.342358	0.749128
	F3256	F	0.506736	0.276329	0.818873
	F3257	F	0.760631	0.331519	0.727892
	F3258	F	0.510198	0.332252	0.747704
	F3259	F	0.756641	0.277357	0.838510
	Al3260	Al	0.631639	0.276840	0.828715
	Al3261	Al	0.885505	0.331907	0.737846
	Al3262	Al	0.635431	0.331881	0.737780
	Al3263	Al	0.881790	0.276846	0.828667
	C3264	C	0.601652	0.357829	0.702572
	C3265	C	0.847914	0.301030	0.789692
	C3266	C	0.594395	0.253810	0.869707
	C3267	C	0.848012	0.308410	0.777982
	C3268	C	0.917028	0.303480	0.856981
	C3269	C	0.670682	0.358588	0.766063
	C3270	C	0.919946	0.304462	0.711374
	C3271	C	0.666304	0.249421	0.802234
	C3272	C	0.914808	0.252969	0.868294
	C3273	C	0.668818	0.307404	0.776250
	C3274	C	0.922033	0.357070	0.700945
	C3275	C	0.668648	0.300044	0.787922
	C3276	C	0.599634	0.305412	0.709028
	C3277	C	0.845912	0.250180	0.800477
	C3278	C	0.597112	0.304365	0.854918
	C3279	C	0.850157	0.359378	0.764138
	C3280	C	0.511920	0.353299	0.706877
	C3281	C	0.758161	0.296768	0.794789
	C3282	C	0.504772	0.257115	0.862955
	C3283	C	0.758486	0.311671	0.771117
	C3284	C	0.507584	0.299668	0.851995
	C3285	C	0.760760	0.354685	0.761206
	C3286	C	0.509491	0.309206	0.714171
	C3287	C	0.755751	0.254071	0.805314
	C3288	C	0.511696	0.344709	0.718008
	C3289	C	0.757915	0.288928	0.807531
	C3290	C	0.505094	0.264856	0.850027
	C3291	C	0.758532	0.319598	0.758560
	C3292	C	0.507809	0.290712	0.843440
	C3293	C	0.761350	0.345696	0.752754
	C3294	C	0.509130	0.318183	0.722643
	C3295	C	0.755390	0.263013	0.813877
	H3296	H	0.671109	0.354984	0.707170
	H3297	H	0.917167	0.298564	0.795008
	H3298	H	0.663831	0.256966	0.865588
	H3299	H	0.917383	0.311728	0.774155
	H3300	H	0.847724	0.299862	0.854748
	H3301	H	0.601538	0.354979	0.763828
	H3302	H	0.850214	0.307369	0.715306
	H3303	H	0.596686	0.252367	0.806027
	H3304	H	0.845476	0.255445	0.863058
	H3305	H	0.599394	0.309860	0.771032
	H3306	H	0.852559	0.353620	0.704215
	H3307	H	0.599037	0.296792	0.791716
	H3308	H	0.668877	0.309099	0.711001
	H3309	H	0.915043	0.253760	0.802831
	H3310	H	0.666712	0.301463	0.850952
	H3311	H	0.919820	0.356422	0.760329
	O3312	O	0.092758	0.348554	0.875298
	O3313	O	0.338566	0.294352	0.967825
	O3314	O	0.086007	0.276369	1.000284
	O3315	O	0.339494	0.330596	0.907757
	O3316	O	0.419182	0.295431	0.995549
	O3317	O	0.173208	0.349476	0.903115
	O3318	O	0.421017	0.328804	0.880107
	O3319	O	0.167287	0.274703	0.972737
	O3320	O	0.417005	0.276052	0.999808
	O3321	O	0.170637	0.330173	0.907122
	O3322	O	0.423522	0.348126	0.874666
	O3323	O	0.169728	0.293962	0.967294
	O3324	O	0.090008	0.329190	0.879275
	O3325	O	0.336297	0.275020	0.972035
	O3326	O	0.088555	0.295714	0.994958
	O3327	O	0.342149	0.349878	0.902248
	F3328	F	0.002914	0.284687	0.973962
	F3329	F	0.256691	0.338813	0.881326
	F3330	F	0.006469	0.339872	0.901040
	F3331	F	0.252907	0.285740	0.993695
	Al3332	Al	0.127998	0.285207	0.983839
	Al3333	Al	0.381526	0.339344	0.891177
	Al3334	Al	0.131624	0.339342	0.891185
	Al3335	Al	0.377825	0.285213	0.983809
	C3336	C	0.098013	0.363571	0.852183
	C3337	C	0.344010	0.309132	0.944294
	C3338	C	0.090244	0.261817	1.024228
	C3339	C	0.344157	0.316358	0.932311
	C3340	C	0.413313	0.311956	1.011818
	C3341	C	0.167049	0.366007	0.919447
	C3342	C	0.416753	0.311844	0.864918
	C3343	C	0.162785	0.257764	0.957414
	C3344	C	0.411461	0.261132	1.023105
	C3345	C	0.164974	0.315422	0.930736
	C3346	C	0.418859	0.362550	0.850420
	C3347	C	0.164791	0.308202	0.942707
	C3348	C	0.096127	0.312718	0.862801
	C3349	C	0.342344	0.258553	0.955606
	C3350	C	0.093061	0.312588	1.010440
	C3351	C	0.346582	0.366848	0.917422
	C3352	C	0.008388	0.359271	0.857294
	C3353	C	0.254297	0.304969	0.949626
	C3354	C	0.000782	0.265241	1.017643
	C3355	C	0.254620	0.319603	0.925424
	C3356	C	0.003651	0.308016	1.007148
	C3357	C	0.257085	0.362170	0.914412
	C3358	C	0.005977	0.316541	0.867834
	C3359	C	0.252226	0.262401	0.960556
	C3360	C	0.008271	0.351426	0.870031
	C3361	C	0.254178	0.297225	0.962546
	C3362	C	0.001289	0.273096	1.004938
	C3363	C	0.254941	0.327336	0.912487
	C3364	C	0.003998	0.299079	0.998575
	C3365	C	0.257567	0.353205	0.905926
	C3366	C	0.005497	0.325482	0.876419
	C3367	C	0.251805	0.271338	0.969124
	H3368	H	0.167488	0.361151	0.857477
	H3369	H	0.413233	0.306687	0.949612
	H3370	H	0.159738	0.264964	1.020163
	H3371	H	0.413537	0.319563	0.928260
	H3372	H	0.344179	0.308443	1.009301
	H3373	H	0.097890	0.362387	0.917287
	H3374	H	0.347114	0.314734	0.868869
	H3375	H	0.093204	0.260722	0.961189
	H3376	H	0.342253	0.263714	1.018036
	H3377	H	0.095500	0.317819	0.925439
	H3378	H	0.349388	0.359248	0.854206
	H3379	H	0.095209	0.305012	0.946681
	H3380	H	0.165297	0.316327	0.865034
	H3381	H	0.411520	0.262146	0.957891
	H3382	H	0.162544	0.309591	1.006762
	H3383	H	0.416163	0.363915	0.913580
	O3384	O	0.592521	0.348558	0.875284
	O3385	O	0.838612	0.294366	0.967823
	O3386	O	0.585905	0.276361	1.000258
	O3387	O	0.839386	0.330606	0.907733
	O3388	O	0.919599	0.295424	0.995571
	O3389	O	0.673135	0.349532	0.903043
	O3390	O	0.920983	0.328798	0.880141
	O3391	O	0.667230	0.274669	0.972824
	O3392	O	0.917051	0.276047	0.999731
	O3393	O	0.670460	0.330216	0.907162
	O3394	O	0.923846	0.348102	0.874641
	O3395	O	0.669682	0.293988	0.967305
	O3396	O	0.590049	0.329196	0.879326
	O3397	O	0.836175	0.275020	0.972023
	O3398	O	0.588276	0.295707	0.994969
	O3399	O	0.842276	0.349901	0.902259
	F3400	F	0.502997	0.284677	0.973988
	F3401	F	0.756831	0.338848	0.881360
	F3402	F	0.506312	0.339885	0.901033
	F3403	F	0.752865	0.285743	0.993659
	Al3404	Al	0.627934	0.285197	0.983854
	Al3405	Al	0.881753	0.339353	0.891200
	Al3406	Al	0.631531	0.339369	0.891193
	Al3407	Al	0.877968	0.285214	0.983791
	C3408	C	0.597980	0.363607	0.852261
	C3409	C	0.844030	0.309134	0.944238
	C3410	C	0.590727	0.261823	1.024215
	C3411	C	0.844150	0.316370	0.932264
	C3412	C	0.913559	0.311964	1.011814
	C3413	C	0.667035	0.366008	0.919470
	C3414	C	0.916407	0.311848	0.864868
	C3415	C	0.662620	0.257767	0.957432
	C3416	C	0.910888	0.261142	1.023057
	C3417	C	0.664800	0.315407	0.930702
	C3418	C	0.918587	0.362560	0.850491
	C3419	C	0.664721	0.308184	0.942659
	C3420	C	0.596391	0.312738	0.862789
	C3421	C	0.842173	0.258522	0.955623
	C3422	C	0.592967	0.312565	1.010493
	C3423	C	0.846565	0.366836	0.917509
	C3424	C	0.508372	0.359308	0.857329
	C3425	C	0.754342	0.304950	0.949554
	C3426	C	0.501156	0.265256	1.017693
	C3427	C	0.754481	0.319585	0.925348
	C3428	C	0.503434	0.308014	1.007139
	C3429	C	0.757118	0.362177	0.914451
	C3430	C	0.506207	0.316555	0.867835
	C3431	C	0.752114	0.262390	0.960562
	C3432	C	0.508083	0.351427	0.870004
	C3433	C	0.754219	0.297230	0.962525
	C3434	C	0.501326	0.273116	1.004987
	C3435	C	0.754791	0.327336	0.912434
	C3436	C	0.503728	0.299080	0.998552
	C3437	C	0.757600	0.353222	0.905937
	C3438	C	0.505676	0.325486	0.876437
	C3439	C	0.751740	0.271325	0.969147
	H3440	H	0.667242	0.361178	0.857576
	H3441	H	0.913375	0.306715	0.949569
	H3442	H	0.660149	0.264967	1.020078
	H3443	H	0.913549	0.319597	0.928251
	H3444	H	0.844482	0.308453	1.009275
	H3445	H	0.597904	0.362407	0.917229
	H3446	H	0.846771	0.314751	0.868825
	H3447	H	0.593103	0.260718	0.961268
	H3448	H	0.841530	0.263732	1.018021
	H3449	H	0.595237	0.317820	0.925419
	H3450	H	0.849098	0.359298	0.854398
	H3451	H	0.595154	0.305000	0.946661
	H3452	H	0.665528	0.316367	0.864986
	H3453	H	0.911260	0.262097	0.957992
	H3454	H	0.662441	0.309544	1.006865
	H3455	H	0.916183	0.363913	0.913649
	O3456	O	0.092396	0.473502	0.000209
	O3457	O	0.338957	0.419350	0.092786
	O3458	O	0.086310	0.401377	0.125249
	O3459	O	0.339819	0.455618	0.032813
	O3460	O	0.419898	0.420370	0.120631
	O3461	O	0.173381	0.474522	0.027985
	O3462	O	0.421334	0.453864	0.004950
	O3463	O	0.167740	0.399715	0.097637
	O3464	O	0.417363	0.401049	0.124776
	O3465	O	0.170983	0.455208	0.032211
	O3466	O	0.423666	0.473165	-0.000250
	O3467	O	0.170016	0.418967	0.092244
	O3468	O	0.090339	0.454139	0.004470
	O3469	O	0.336794	0.400005	0.097020
	O3470	O	0.088792	0.420713	0.119939
	O3471	O	0.342508	0.474885	0.027216
	F3472	F	0.003350	0.409681	0.098928
	F3473	F	0.256845	0.463830	0.006331
	F3474	F	0.006718	0.464873	0.026076
	F3475	F	0.253085	0.410714	0.118653
	Al3476	Al	0.128343	0.410201	0.108798
	Al3477	Al	0.381801	0.464353	0.016178
	Al3478	Al	0.131813	0.464339	0.016190
	Al3479	Al	0.378236	0.410202	0.108801
	C3480	C	0.097796	0.488425	-0.023098
	C3481	C	0.344646	0.434167	0.069340
	C3482	C	0.090938	0.386939	0.149392
	C3483	C	0.344850	0.441397	0.057400
	C3484	C	0.413670	0.436811	0.137187
	C3485	C	0.167133	0.490999	0.044414
	C3486	C	0.416716	0.437055	-0.010694
	C3487	C	0.163054	0.382801	0.082291
	C3488	C	0.411819	0.386055	0.147910
	C3489	C	0.165561	0.440378	0.055659
	C3490	C	0.418758	0.487694	-0.024248
	C3491	C	0.165342	0.433138	0.067612
	C3492	C	0.096357	0.437554	-0.011668
	C3493	C	0.342731	0.383492	0.080678
	C3494	C	0.093190	0.437704	0.135098
	C3495	C	0.346629	0.491830	0.042482
	C3496	C	0.008104	0.484279	-0.017722
	C3497	C	0.254917	0.429944	0.074565
	C3498	C	0.001354	0.390265	0.142672
	C3499	C	0.255254	0.444589	0.050418
	C3500	C	0.003695	0.433004	0.132122
	C3501	C	0.257280	0.487154	0.039481
	C3502	C	0.006358	0.441570	-0.007187
	C3503	C	0.252620	0.387412	0.085469
	C3504	C	0.008025	0.476425	-0.004979
	C3505	C	0.254577	0.422208	0.087483
	C3506	C	0.001651	0.398124	0.129949
	C3507	C	0.255311	0.452348	0.037530
	C3508	C	0.004171	0.424044	0.123619
	C3509	C	0.257860	0.478210	0.030893
	C3510	C	0.005877	0.450499	0.001424
	C3511	C	0.252291	0.396347	0.094052
	H3512	H	0.167318	0.485872	-0.018034
	H3513	H	0.414065	0.431796	0.074697
	H3514	H	0.160466	0.390156	0.145448
	H3515	H	0.414395	0.444629	0.053510
	H3516	H	0.344558	0.433182	0.134966
	H3517	H	0.098054	0.487391	0.042124
	H3518	H	0.347158	0.440133	-0.007242
	H3519	H	0.093454	0.385774	0.086040
	H3520	H	0.342505	0.388546	0.142686
	H3521	H	0.096304	0.442785	0.050285
	H3522	H	0.349202	0.484533	-0.020162
	H3523	H	0.096069	0.429888	0.071573
	H3524	H	0.165540	0.441006	-0.008963
	H3525	H	0.411962	0.387037	0.083091
	H3526	H	0.162854	0.434795	0.131181
	H3527	H	0.416191	0.488913	0.038591
	O3528	O	0.592605	0.473502	0.000220
	O3529	O	0.839217	0.419377	0.092790
	O3530	O	0.586276	0.401417	0.125312
	O3531	O	0.839612	0.455604	0.032787
	O3532	O	0.919806	0.420372	0.120635
	O3533	O	0.673067	0.474524	0.027997
	O3534	O	0.921305	0.453867	0.005002
	O3535	O	0.667430	0.399678	0.097714
	O3536	O	0.917404	0.401028	0.124693
	O3537	O	0.670655	0.455191	0.032205
	O3538	O	0.923542	0.473162	-0.000292
	O3539	O	0.670222	0.418945	0.092178
	O3540	O	0.590343	0.454163	0.004334
	O3541	O	0.836516	0.400011	0.096974
	O3542	O	0.588998	0.420735	0.119836
	O3543	O	0.842200	0.474883	0.027284
	F3544	F	0.503324	0.409688	0.098943
	F3545	F	0.757047	0.463811	0.006370
	F3546	F	0.506704	0.464851	0.026038
	F3547	F	0.753252	0.410746	0.118618
	Al3548	Al	0.628216	0.410217	0.108795
	Al3549	Al	0.881850	0.464352	0.016214
	Al3550	Al	0.631801	0.464327	0.016172
	Al3551	Al	0.878348	0.410207	0.108757
	C3552	C	0.598246	0.488436	-0.023059
	C3553	C	0.844610	0.434163	0.069281
	C3554	C	0.591304	0.386913	0.149353
	C3555	C	0.844612	0.441400	0.057358
	C3556	C	0.913554	0.436838	0.137111
	C3557	C	0.666836	0.491012	0.044392
	C3558	C	0.916861	0.437076	-0.010729
	C3559	C	0.662840	0.382811	0.082238
	C3560	C	0.911546	0.386079	0.147963
	C3561	C	0.665139	0.440390	0.055693
	C3562	C	0.918343	0.487701	-0.024297
	C3563	C	0.665136	0.433142	0.067640
	C3564	C	0.596403	0.437549	-0.011658
	C3565	C	0.842526	0.383505	0.080690
	C3566	C	0.593270	0.437688	0.135125
	C3567	C	0.846417	0.491838	0.042446
	C3568	C	0.508484	0.484287	-0.017663
	C3569	C	0.754874	0.429964	0.074578
	C3570	C	0.501548	0.390287	0.142723
	C3571	C	0.754921	0.444593	0.050412
	C3572	C	0.503850	0.433003	0.132137
	C3573	C	0.757001	0.487160	0.039466
	C3574	C	0.506255	0.441556	-0.007179
	C3575	C	0.752399	0.387399	0.085508
	C3576	C	0.508203	0.476427	-0.004965
	C3577	C	0.754788	0.422225	0.087490
	C3578	C	0.501738	0.398133	0.129993
	C3579	C	0.755087	0.452337	0.037511
	C3580	C	0.504408	0.424060	0.123537
	C3581	C	0.757533	0.478213	0.030918
	C3582	C	0.505900	0.450500	0.001359
	C3583	C	0.751995	0.396329	0.094085
	H3584	H	0.667733	0.485882	-0.017990
	H3585	H	0.914200	0.431771	0.074564
	H3586	H	0.660778	0.390114	0.145333
	H3587	H	0.914249	0.444623	0.053403
	H3588	H	0.844432	0.433220	0.134860
	H3589	H	0.597737	0.487395	0.042145
	H3590	H	0.847379	0.440145	-0.007252
	H3591	H	0.593232	0.385795	0.085953
	H3592	H	0.842203	0.388596	0.142816
	H3593	H	0.595843	0.442788	0.050326
	H3594	H	0.848894	0.484544	-0.020211
	H3595	H	0.595787	0.429878	0.071580
	H3596	H	0.665584	0.441017	-0.009014
	H3597	H	0.911764	0.387047	0.083114
	H3598	H	0.662859	0.434780	0.131200
	H3599	H	0.915998	0.488909	0.038590
	O3600	O	0.088739	0.481843	0.155338
	O3601	O	0.335271	0.427020	0.246658
	O3602	O	0.082685	0.408333	0.277843
	O3603	O	0.336442	0.463866	0.187732
	O3604	O	0.416167	0.427686	0.274343
	O3605	O	0.169522	0.482861	0.183211
	O3606	O	0.417452	0.462179	0.160189
	O3607	O	0.163892	0.407204	0.250823
	O3608	O	0.413806	0.408067	0.277370
	O3609	O	0.167457	0.463503	0.187219
	O3610	O	0.420161	0.481475	0.154758
	O3611	O	0.166354	0.426631	0.246091
	O3612	O	0.086460	0.462516	0.159468
	O3613	O	0.332936	0.407599	0.250023
	O3614	O	0.085633	0.428044	0.273665
	O3615	O	0.338720	0.483264	0.182301
	F3616	F	-0.000255	0.417293	0.252250
	F3617	F	0.253028	0.472170	0.161490
	F3618	F	0.002866	0.473194	0.181216
	F3619	F	0.249403	0.417986	0.272136
	Al3620	Al	0.124586	0.417627	0.262222
	Al3621	Al	0.378096	0.472712	0.171272
	Al3622	Al	0.127936	0.472684	0.171345
	Al3623	Al	0.374512	0.417641	0.262220
	C3624	C	0.094273	0.496693	0.131849
	C3625	C	0.340797	0.442090	0.223726
	C3626	C	0.087462	0.392363	0.298842
	C3627	C	0.340990	0.449445	0.211985
	C3628	C	0.410252	0.444207	0.290707
	C3629	C	0.163705	0.499276	0.199894
	C3630	C	0.412993	0.445184	0.145046
	C3631	C	0.159637	0.390176	0.235915
	C3632	C	0.408326	0.391813	0.297649
	C3633	C	0.161720	0.448534	0.210359
	C3634	C	0.415258	0.495639	0.130095
	C3635	C	0.161522	0.441187	0.222089
	C3636	C	0.092473	0.446081	0.142960
	C3637	C	0.339096	0.390980	0.233887
	C3638	C	0.089384	0.445056	0.288691
	C3639	C	0.343319	0.500276	0.197382
	C3640	C	0.004590	0.492459	0.137105
	C3641	C	0.251044	0.437868	0.228887
	C3642	C	-0.002109	0.396221	0.293077
	C3643	C	0.251555	0.452752	0.205173
	C3644	C	-0.000067	0.440343	0.285765
	C3645	C	0.253753	0.495548	0.194577
	C3646	C	0.002283	0.449887	0.148005
	C3647	C	0.249154	0.394862	0.238823
	C3648	C	0.004396	0.484701	0.149999
	C3649	C	0.250840	0.429956	0.241486
	C3650	C	-0.001954	0.404814	0.281941
	C3651	C	0.251868	0.460592	0.192428
	C3652	C	0.000842	0.431367	0.277307
	C3653	C	0.254087	0.486582	0.186029
	C3654	C	0.001943	0.458834	0.156564
	C3655	C	0.248614	0.403850	0.247250
	H3656	H	0.163682	0.494318	0.137224
	H3657	H	0.410141	0.439595	0.228950
	H3658	H	0.156851	0.395763	0.295440
	H3659	H	0.410570	0.452676	0.208069
	H3660	H	0.341121	0.440597	0.288470
	H3661	H	0.094696	0.495573	0.197899
	H3662	H	0.343345	0.448079	0.148965
	H3663	H	0.090152	0.393135	0.239756
	H3664	H	0.339006	0.394713	0.293178
	H3665	H	0.092445	0.451007	0.205104
	H3666	H	0.345838	0.492400	0.134025
	H3667	H	0.092012	0.437942	0.225954
	H3668	H	0.161592	0.449714	0.145135
	H3669	H	0.408276	0.394601	0.236052
	H3670	H	0.159069	0.442123	0.284853
	H3671	H	0.412944	0.497400	0.193315
	O3672	O	0.589109	0.481869	0.155351
	O3673	O	0.835435	0.427036	0.246664
	O3674	O	0.582807	0.408344	0.277873
	O3675	O	0.835541	0.463905	0.187786
	O3676	O	0.916561	0.427661	0.274375
	O3677	O	0.670279	0.482862	0.183182
	O3678	O	0.917419	0.462149	0.160294
	O3679	O	0.663723	0.407220	0.250788
	O3680	O	0.913684	0.408020	0.277300
	O3681	O	0.666601	0.463506	0.187207
	O3682	O	0.919958	0.481411	0.154675
	O3683	O	0.666542	0.426634	0.246078
	O3684	O	0.586489	0.462546	0.159428
	O3685	O	0.832851	0.407571	0.250058
	O3686	O	0.585292	0.428035	0.273589
	O3687	O	0.839238	0.483270	0.182324
	F3688	F	0.499526	0.417304	0.252250
	F3689	F	0.753292	0.472180	0.161472
	F3690	F	0.503001	0.473254	0.181116
	F3691	F	0.749543	0.417998	0.272097
	Al3692	Al	0.624537	0.417629	0.262185
	Al3693	Al	0.878146	0.472693	0.171335
	Al3694	Al	0.628094	0.472707	0.171284
	Al3695	Al	0.874776	0.417642	0.262174
	C3696	C	0.594411	0.496696	0.131852
	C3697	C	0.840709	0.442099	0.223650
	C3698	C	0.587626	0.392414	0.298907
	C3699	C	0.840578	0.449463	0.211926
	C3700	C	0.909777	0.444202	0.290722
	C3701	C	0.663833	0.499249	0.199860
	C3702	C	0.912767	0.445211	0.144981
	C3703	C	0.659449	0.390172	0.235881
	C3704	C	0.908093	0.391789	0.297609
	C3705	C	0.661234	0.448527	0.210416
	C3706	C	0.914911	0.495636	0.130119
	C3707	C	0.661364	0.441174	0.222135
	C3708	C	0.592496	0.446061	0.142988
	C3709	C	0.838984	0.390988	0.233951
	C3710	C	0.589782	0.445046	0.288677
	C3711	C	0.843316	0.500275	0.197430
	C3712	C	0.504790	0.492452	0.137061
	C3713	C	0.751086	0.437874	0.228894
	C3714	C	0.497990	0.396269	0.293171
	C3715	C	0.750878	0.452761	0.205169
	C3716	C	0.500317	0.440336	0.285799
	C3717	C	0.754040	0.495510	0.194596
	C3718	C	0.502438	0.449895	0.147987
	C3719	C	0.748889	0.394853	0.238878
	C3720	C	0.504736	0.484721	0.150022
	C3721	C	0.751065	0.429964	0.241491
	C3722	C	0.498190	0.404843	0.281983
	C3723	C	0.750993	0.460615	0.192453
	C3724	C	0.500662	0.431371	0.277254
	C3725	C	0.754651	0.486578	0.186043
	C3726	C	0.502077	0.458849	0.156516
	C3727	C	0.748386	0.403851	0.247263
	H3728	H	0.663798	0.494329	0.137250
	H3729	H	0.910274	0.439622	0.228833
	H3730	H	0.657090	0.395811	0.295484
	H3731	H	0.909991	0.452709	0.208000
	H3732	H	0.840626	0.440564	0.288570
	H3733	H	0.594811	0.495559	0.197792
	H3734	H	0.843109	0.448137	0.148844
	H3735	H	0.589767	0.393145	0.239641
	H3736	H	0.838730	0.394709	0.293173
	H3737	H	0.591790	0.451012	0.205234
	H3738	H	0.845378	0.492383	0.134039
	H3739	H	0.591943	0.437919	0.226064
	H3740	H	0.661623	0.449681	0.145203
	H3741	H	0.908139	0.394624	0.236098
	H3742	H	0.659248	0.442119	0.284748
	H3743	H	0.912958	0.497424	0.193357
	O3744	O	0.085294	0.489494	0.309155
	O3745	O	0.331939	0.430231	0.390996
	O3746	O	0.078742	0.408698	0.415518
	O3747	O	0.332328	0.470885	0.340527
	O3748	O	0.412933	0.429079	0.417775
	O3749	O	0.166034	0.490173	0.336931
	O3750	O	0.413803	0.469692	0.313342
	O3751	O	0.160211	0.409904	0.390840
	O3752	O	0.409784	0.408320	0.414482
	O3753	O	0.163361	0.470490	0.339820
	O3754	O	0.416457	0.489150	0.308646
	O3755	O	0.163088	0.429820	0.390135
	O3756	O	0.082963	0.470040	0.312577
	O3757	O	0.329316	0.410315	0.390013
	O3758	O	0.081783	0.429548	0.416843
	O3759	O	0.335018	0.490530	0.336160
	F3760	F	-0.004173	0.420189	0.393692
	F3761	F	0.249566	0.479762	0.314810
	F3762	F	-0.000484	0.480508	0.334657
	F3763	F	0.245870	0.419242	0.414054
	Al3764	Al	0.120945	0.419699	0.403964
	Al3765	Al	0.374356	0.480115	0.324733
	Al3766	Al	0.124543	0.480120	0.324704
	Al3767	Al	0.371067	0.419706	0.403967
	C3768	C	0.090761	0.504565	0.286094
	C3769	C	0.337116	0.446963	0.371926
	C3770	C	0.088238	0.389215	0.418128
	C3771	C	0.337142	0.455072	0.361930
	C3772	C	0.406410	0.446049	0.433215
	C3773	C	0.159835	0.506681	0.353251
	C3774	C	0.409751	0.452618	0.298440
	C3775	C	0.155812	0.392366	0.377258
	C3776	C	0.408265	0.388787	0.415620
	C3777	C	0.157902	0.454100	0.359691
	C3778	C	0.411424	0.503684	0.284644
	C3779	C	0.157935	0.445967	0.369713
	C3780	C	0.088663	0.453472	0.296422
	C3781	C	0.335652	0.393258	0.374796
	C3782	C	0.085966	0.447096	0.430430
	C3783	C	0.339362	0.507581	0.351127
	C3784	C	0.001034	0.500354	0.291397
	C3785	C	0.247616	0.442276	0.375834
	C3786	C	-0.003193	0.393972	0.416970
	C3787	C	0.247591	0.458734	0.355677
	C3788	C	-0.003448	0.442109	0.428364
	C3789	C	0.250062	0.502818	0.348308
	C3790	C	-0.001520	0.457340	0.301351
	C3791	C	0.245384	0.397288	0.379458
	C3792	C	0.000934	0.492424	0.303967
	C3793	C	0.247574	0.433495	0.386467
	C3794	C	-0.005251	0.404433	0.415624
	C3795	C	0.247801	0.467306	0.344497
	C3796	C	-0.003000	0.432920	0.420393
	C3797	C	0.250462	0.493861	0.339857
	C3798	C	-0.001655	0.466340	0.309759
	C3799	C	0.244969	0.406513	0.387314
	H3800	H	0.160330	0.502043	0.291220
	H3801	H	0.406655	0.444238	0.376735
	H3802	H	0.157195	0.393151	0.419181
	H3803	H	0.406682	0.458608	0.358957
	H3804	H	0.337058	0.442247	0.431757
	H3805	H	0.090656	0.503052	0.351077
	H3806	H	0.340090	0.455552	0.302251
	H3807	H	0.085728	0.395389	0.380895
	H3808	H	0.337434	0.392371	0.414573
	H3809	H	0.088738	0.456873	0.354814
	H3810	H	0.341874	0.500460	0.288601
	H3811	H	0.088617	0.442382	0.372730
	H3812	H	0.157850	0.457093	0.298615
	H3813	H	0.405081	0.397016	0.376438
	H3814	H	0.156024	0.444139	0.426616
	H3815	H	0.409101	0.504687	0.347200
	O3816	O	0.585278	0.489523	0.309177
	O3817	O	0.831945	0.430231	0.390926
	O3818	O	0.579185	0.408688	0.415475
	O3819	O	0.832293	0.470934	0.340549
	O3820	O	0.912745	0.429093	0.417774
	O3821	O	0.665943	0.490159	0.336926
	O3822	O	0.913922	0.469685	0.313478
	O3823	O	0.659895	0.409922	0.390742
	O3824	O	0.909408	0.408337	0.414470
	O3825	O	0.663387	0.470490	0.339743
	O3826	O	0.916526	0.489123	0.308594
	O3827	O	0.663210	0.429796	0.389996
	O3828	O	0.582865	0.470076	0.312529
	O3829	O	0.829073	0.410261	0.390084
	O3830	O	0.581989	0.429548	0.416815
	O3831	O	0.835137	0.490566	0.336147
	F3832	F	0.496146	0.420201	0.393681
	F3833	F	0.749665	0.479800	0.314801
	F3834	F	0.499289	0.480482	0.334636
	F3835	F	0.745913	0.419207	0.414000
	Al3836	Al	0.621052	0.419693	0.403917
	Al3837	Al	0.874663	0.480146	0.324776
	Al3838	Al	0.624410	0.480135	0.324696
	Al3839	Al	0.871268	0.419705	0.403890
	C3840	C	0.590812	0.504553	0.286079
	C3841	C	0.837289	0.446977	0.371860
	C3842	C	0.588417	0.389227	0.418104
	C3843	C	0.837293	0.455096	0.361884
	C3844	C	0.906142	0.446066	0.433234
	C3845	C	0.659657	0.506697	0.353239
	C3846	C	0.909035	0.452623	0.298465
	C3847	C	0.655270	0.392415	0.377118
	C3848	C	0.907989	0.388782	0.415577
	C3849	C	0.658091	0.454115	0.359618
	C3850	C	0.911274	0.503704	0.284698
	C3851	C	0.658081	0.445974	0.369622
	C3852	C	0.589113	0.453463	0.296404
	C3853	C	0.835353	0.393219	0.374947
	C3854	C	0.586050	0.447070	0.430406
	C3855	C	0.839254	0.507563	0.351204
	C3856	C	0.501092	0.500352	0.291381
	C3857	C	0.747780	0.442296	0.375784
	C3858	C	0.497006	0.393974	0.416961
	C3859	C	0.747723	0.458751	0.355628
	C3860	C	0.496668	0.442085	0.428344
	C3861	C	0.749870	0.502840	0.348319
	C3862	C	0.499110	0.457334	0.301343
	C3863	C	0.744968	0.397291	0.379444
	C3864	C	0.500927	0.492474	0.304045
	C3865	C	0.747670	0.433497	0.386386
	C3866	C	0.495159	0.404426	0.415593
	C3867	C	0.747816	0.467337	0.344483
	C3868	C	0.497233	0.432918	0.420380
	C3869	C	0.750394	0.493866	0.339834
	C3870	C	0.498476	0.466332	0.309757
	C3871	C	0.744610	0.406498	0.387327
	H3872	H	0.660284	0.502052	0.291232
	H3873	H	0.906843	0.444241	0.376654
	H3874	H	0.657387	0.393161	0.419121
	H3875	H	0.906865	0.458641	0.358932
	H3876	H	0.836738	0.442258	0.431773
	H3877	H	0.590513	0.503050	0.351081
	H3878	H	0.839393	0.455553	0.302337
	H3879	H	0.585215	0.395486	0.380650
	H3880	H	0.837097	0.392381	0.414543
	H3881	H	0.588992	0.456882	0.354748
	H3882	H	0.841706	0.500481	0.288644
	H3883	H	0.588907	0.442370	0.372609
	H3884	H	0.658287	0.457088	0.298540
	H3885	H	0.904888	0.396945	0.376689
	H3886	H	0.656073	0.444111	0.426571
	H3887	H	0.908993	0.504634	0.347364
	O3888	O	0.081351	0.492684	0.453430
	O3889	O	0.338917	0.422471	0.481640
	O3890	O	0.085497	0.399240	0.500457
	O3891	O	0.328282	0.471201	0.478075
	O3892	O	0.419229	0.419783	0.505387
	O3893	O	0.162578	0.491580	0.480307
	O3894	O	0.409541	0.472375	0.453356
	O3895	O	0.166903	0.401445	0.476297
	O3896	O	0.416239	0.398984	0.499585
	O3897	O	0.158996	0.470818	0.477025
	O3898	O	0.412725	0.492280	0.452547
	O3899	O	0.169742	0.422142	0.480669
	O3900	O	0.078310	0.472822	0.452551
	O3901	O	0.335988	0.401748	0.475737
	O3902	O	0.088085	0.420076	0.504787
	O3903	O	0.331616	0.492066	0.479286
	F3904	F	0.002973	0.411818	0.480352
	F3905	F	0.245423	0.482675	0.456242
	F3906	F	-0.004333	0.481741	0.476666
	F3907	F	0.252538	0.409636	0.500894
	Al3908	Al	0.127736	0.410708	0.490646
	Al3909	Al	0.370370	0.482187	0.466457
	Al3910	Al	0.120437	0.482188	0.466504
	Al3911	Al	0.377702	0.410742	0.490626
	C3912	C	0.086704	0.509377	0.434226
	C3913	C	0.340685	0.442031	0.480680
	C3914	C	0.094160	0.379768	0.501586
	C3915	C	0.338025	0.451736	0.480810
	C3916	C	0.412930	0.437255	0.519564
	C3917	C	0.156002	0.508554	0.495772
	C3918	C	0.405542	0.454788	0.439945
	C3919	C	0.162216	0.383722	0.462892
	C3920	C	0.413976	0.379467	0.499379
	C3921	C	0.157849	0.451276	0.478069
	C3922	C	0.407561	0.508501	0.432242
	C3923	C	0.160472	0.441590	0.477958
	C3924	C	0.085094	0.455825	0.437192
	C3925	C	0.342173	0.384341	0.461203
	C3926	C	0.092363	0.437929	0.517635
	C3927	C	0.335685	0.509624	0.492732
	C3928	C	-0.002933	0.504764	0.438338
	C3929	C	0.251899	0.436841	0.479272
	C3930	C	0.002821	0.384558	0.500905
	C3931	C	0.246569	0.456477	0.479514
	C3932	C	0.002815	0.432942	0.515559
	C3933	C	0.246297	0.504592	0.490846
	C3934	C	-0.005270	0.459788	0.442005
	C3935	C	0.251872	0.388649	0.465190
	C3936	C	-0.003027	0.495964	0.448936
	C3937	C	0.253745	0.426389	0.480571
	C3938	C	0.001319	0.395023	0.500380
	C3939	C	0.244365	0.466929	0.478163
	C3940	C	0.003227	0.423558	0.508092
	C3941	C	0.246851	0.495421	0.482904
	C3942	C	-0.006012	0.469002	0.449891
	C3943	C	0.251543	0.397963	0.472905
	H3944	H	0.156118	0.506556	0.438892
	H3945	H	0.411652	0.438433	0.481741
	H3946	H	0.163424	0.383637	0.502888
	H3947	H	0.406948	0.455684	0.481960
	H3948	H	0.343070	0.433501	0.518117
	H3949	H	0.086526	0.504753	0.494374
	H3950	H	0.335507	0.457760	0.443711
	H3951	H	0.091569	0.386896	0.465881
	H3952	H	0.343100	0.383089	0.498866
	H3953	H	0.086833	0.454842	0.476973
	H3954	H	0.338132	0.504945	0.435215
	H3955	H	0.091415	0.437670	0.476789
	H3956	H	0.154456	0.459627	0.438693
	H3957	H	0.412309	0.388023	0.462810
	H3958	H	0.162899	0.434770	0.514541
	H3959	H	0.405612	0.506697	0.488769
	O3960	O	0.581494	0.492680	0.453404
	O3961	O	0.838708	0.422502	0.481625
	O3962	O	0.585519	0.399285	0.500517
	O3963	O	0.827606	0.471181	0.478216
	O3964	O	0.918899	0.419696	0.505492
	O3965	O	0.661718	0.491618	0.480171
	O3966	O	0.909265	0.472373	0.453415
	O3967	O	0.666460	0.401418	0.476322
	O3968	O	0.916134	0.398990	0.499629
	O3969	O	0.658346	0.470798	0.477023
	O3970	O	0.912588	0.492290	0.452589
	O3971	O	0.669519	0.422140	0.480466
	O3972	O	0.578641	0.472801	0.452501
	O3973	O	0.835571	0.401743	0.475711
	O3974	O	0.588386	0.420116	0.504694
	O3975	O	0.830743	0.492067	0.479322
	F3976	F	0.502604	0.411840	0.480366
	F3977	F	0.745525	0.482665	0.456255
	F3978	F	0.495253	0.481725	0.476563
	F3979	F	0.752603	0.409657	0.500787
	Al3980	Al	0.627614	0.410746	0.490592
	Al3981	Al	0.870465	0.482178	0.466523
	Al3982	Al	0.620331	0.482178	0.466447
	Al3983	Al	0.877919	0.410741	0.490595
	C3984	C	0.586838	0.509408	0.434282
	C3985	C	0.840037	0.442028	0.480759
	C3986	C	0.594410	0.379793	0.501595
	C3987	C	0.837230	0.451729	0.480934
	C3988	C	0.912305	0.437218	0.519583
	C3989	C	0.655203	0.508616	0.495554
	C3990	C	0.905244	0.454793	0.439953
	C3991	C	0.661854	0.383695	0.463030
	C3992	C	0.913624	0.379440	0.499405
	C3993	C	0.657222	0.451266	0.477997
	C3994	C	0.907346	0.508504	0.432264
	C3995	C	0.659967	0.441587	0.477841
	C3996	C	0.585255	0.455800	0.437171
	C3997	C	0.841674	0.384381	0.461115
	C3998	C	0.592923	0.437992	0.517514
	C3999	C	0.834944	0.509593	0.492846
	C4000	C	0.497251	0.504787	0.438360
	C4001	C	0.751397	0.436843	0.479242
	C4002	C	0.503087	0.384584	0.500955
	C4003	C	0.745802	0.456462	0.479556
	C4004	C	0.503345	0.432997	0.515463
	C4005	C	0.745457	0.504626	0.490735
	C4006	C	0.494940	0.459770	0.441975
	C4007	C	0.751427	0.388641	0.465224
	C4008	C	0.497200	0.495968	0.448914
	C4009	C	0.753447	0.426396	0.480483
	C4010	C	0.501437	0.395046	0.500376
	C4011	C	0.743668	0.466913	0.478230
	C4012	C	0.503695	0.423614	0.508013
	C4013	C	0.745953	0.495450	0.482822
	C4014	C	0.494310	0.468987	0.449842
	C4015	C	0.751155	0.397949	0.472929
	H4016	H	0.656342	0.506591	0.438954
	H4017	H	0.910897	0.438441	0.481863
	H4018	H	0.663660	0.383664	0.502879
	H4019	H	0.906001	0.455675	0.482176
	H4020	H	0.842408	0.433482	0.518080
	H4021	H	0.585678	0.504846	0.494055
	H4022	H	0.835143	0.457764	0.443724
	H4023	H	0.591261	0.386853	0.466089
	H4024	H	0.842712	0.383064	0.498936
	H4025	H	0.586160	0.454841	0.476826
	H4026	H	0.837890	0.504963	0.435295
	H4027	H	0.591127	0.437662	0.476561
	H4028	H	0.654634	0.459608	0.438652
	H4029	H	0.911596	0.388106	0.462604
	H4030	H	0.663369	0.434837	0.514368
	H4031	H	0.904977	0.506623	0.489055
	O4032	O	0.088508	0.484947	0.543933
	O4033	O	0.343716	0.413100	0.563040
	O4034	O	0.090370	0.389928	0.582033
	O4035	O	0.335211	0.461766	0.563001
	O4036	O	0.424143	0.410289	0.586806
	O4037	O	0.168620	0.482315	0.567738
	O4038	O	0.416556	0.463944	0.538760
	O4039	O	0.171492	0.391945	0.557857
	O4040	O	0.421017	0.389587	0.580886
	O4041	O	0.165928	0.461499	0.561978
	O4042	O	0.419165	0.484662	0.543034
	O4043	O	0.174528	0.412816	0.562100
	O4044	O	0.085345	0.464278	0.538147
	O4045	O	0.340570	0.392317	0.557130
	O4046	O	0.092762	0.410601	0.586292
	O4047	O	0.337879	0.482622	0.567246
	F4048	F	0.007982	0.402423	0.561651
	F4049	F	0.252455	0.474326	0.542812
	F4050	F	0.002486	0.472139	0.563335
	F4051	F	0.257421	0.400248	0.582217
	Al4052	Al	0.132578	0.401341	0.571978
	Al4053	Al	0.377208	0.473241	0.553078
	Al4054	Al	0.127451	0.473250	0.553022
	Al4055	Al	0.382321	0.401338	0.571907
	C4056	C	0.090019	0.504515	0.543057
	C4057	C	0.346199	0.432622	0.563275
	C4058	C	0.099372	0.370472	0.584661
	C4059	C	0.343986	0.442283	0.564205
	C4060	C	0.418017	0.427647	0.601433
	C4061	C	0.162205	0.499800	0.581969
	C4062	C	0.412241	0.446201	0.525537
	C4063	C	0.167149	0.374126	0.544892
	C4064	C	0.419370	0.370030	0.581941
	C4065	C	0.163543	0.441982	0.561779
	C4066	C	0.409885	0.504116	0.540322
	C4067	C	0.165779	0.432318	0.560863
	C4068	C	0.091686	0.446878	0.523604
	C4069	C	0.347102	0.374825	0.542970
	C4070	C	0.097209	0.428383	0.599374
	C4071	C	0.342269	0.500482	0.580096
	C4072	C	0.001310	0.499323	0.541599
	C4073	C	0.257109	0.427511	0.561656
	C4074	C	0.008078	0.375224	0.583331
	C4075	C	0.252597	0.447088	0.563486
	C4076	C	0.007615	0.423399	0.597315
	C4077	C	0.252616	0.495523	0.577953
	C4078	C	0.001375	0.451131	0.527709
	C4079	C	0.256672	0.379097	0.547006
	C4080	C	0.003249	0.488867	0.542846
	C4081	C	0.258626	0.417048	0.562243
	C4082	C	0.006321	0.385680	0.582051
	C4083	C	0.251025	0.457545	0.562866
	C4084	C	0.007990	0.414070	0.589655
	C4085	C	0.253069	0.486133	0.570476
	C4086	C	0.000931	0.460455	0.535395
	C4087	C	0.256205	0.388469	0.554499
	H4088	H	0.160980	0.500926	0.544092
	H4089	H	0.417121	0.429007	0.563842
	H4090	H	0.168210	0.374403	0.585854
	H4091	H	0.413266	0.446159	0.565509
	H4092	H	0.348037	0.423920	0.599953
	H4093	H	0.092361	0.496055	0.580433
	H4094	H	0.341794	0.449351	0.528653
	H4095	H	0.096607	0.377276	0.547977
	H4096	H	0.348480	0.373616	0.580936
	H4097	H	0.092600	0.445595	0.561143
	H4098	H	0.340998	0.500188	0.539103
	H4099	H	0.096672	0.428455	0.559500
	H4100	H	0.161559	0.450614	0.525115
	H4101	H	0.417020	0.378553	0.544478
	H4102	H	0.167757	0.425241	0.596217
	H4103	H	0.412700	0.497305	0.576990
	O4104	O	0.588396	0.485001	0.544215
	O4105	O	0.843598	0.413113	0.562902
	O4106	O	0.590268	0.389921	0.581879
	O4107	O	0.834922	0.461735	0.563071
	O4108	O	0.923571	0.410264	0.586847
	O4109	O	0.668344	0.482214	0.568008
	O4110	O	0.916211	0.463938	0.538757
	O4111	O	0.671345	0.391972	0.557711
	O4112	O	0.921123	0.389610	0.580946
	O4113	O	0.665650	0.461453	0.562028
	O4114	O	0.919271	0.484616	0.542944
	O4115	O	0.674326	0.412824	0.561916
	O4116	O	0.585640	0.464296	0.538185
	O4117	O	0.840474	0.392293	0.557059
	O4118	O	0.593342	0.410602	0.586188
	O4119	O	0.837586	0.482625	0.567212
	F4120	F	0.507402	0.402432	0.561639
	F4121	F	0.752315	0.474317	0.542943
	F4122	F	0.501846	0.472125	0.563348
	F4123	F	0.757460	0.400244	0.582021
	Al4124	Al	0.632537	0.401340	0.571831
	Al4125	Al	0.877577	0.473210	0.553120
	Al4126	Al	0.627126	0.473224	0.553158
	Al4127	Al	0.882856	0.401330	0.571852
	C4128	C	0.589982	0.504554	0.543256
	C4129	C	0.845991	0.432619	0.563238
	C4130	C	0.599532	0.370477	0.584530
	C4131	C	0.843771	0.442273	0.564209
	C4132	C	0.917197	0.427643	0.601525
	C4133	C	0.661823	0.499750	0.582080
	C4134	C	0.911639	0.446166	0.525517
	C4135	C	0.666754	0.374126	0.544820
	C4136	C	0.919330	0.370038	0.581899
	C4137	C	0.663357	0.441957	0.561689
	C4138	C	0.909812	0.504075	0.540309
	C4139	C	0.665589	0.432297	0.560718
	C4140	C	0.592148	0.446937	0.523502
	C4141	C	0.846743	0.374794	0.542992
	C4142	C	0.598029	0.428359	0.599485
	C4143	C	0.841828	0.500459	0.580080
	C4144	C	0.501290	0.499364	0.541717
	C4145	C	0.756911	0.427506	0.561508
	C4146	C	0.508144	0.375220	0.583268
	C4147	C	0.752411	0.447066	0.563419
	C4148	C	0.508397	0.423391	0.597313
	C4149	C	0.752167	0.495483	0.578026
	C4150	C	0.501813	0.451166	0.527678
	C4151	C	0.756344	0.379093	0.546929
	C4152	C	0.503206	0.488913	0.543042
	C4153	C	0.758446	0.417051	0.562087
	C4154	C	0.506230	0.385676	0.581968
	C4155	C	0.750810	0.457516	0.562863
	C4156	C	0.508646	0.414075	0.589603
	C4157	C	0.752688	0.486082	0.570588
	C4158	C	0.501341	0.460484	0.535379
	C4159	C	0.756010	0.388474	0.554391
	H4160	H	0.660889	0.500966	0.544422
	H4161	H	0.916854	0.429002	0.563882
	H4162	H	0.668495	0.374408	0.585636
	H4163	H	0.913000	0.446144	0.565630
	H4164	H	0.847266	0.423887	0.600122
	H4165	H	0.592003	0.495997	0.580603
	H4166	H	0.841116	0.449336	0.528594
	H4167	H	0.596248	0.377291	0.547899
	H4168	H	0.848427	0.373636	0.580872
	H4169	H	0.592399	0.445575	0.561054
	H4170	H	0.840860	0.500148	0.539111
	H4171	H	0.596442	0.428440	0.559321
	H4172	H	0.662019	0.450686	0.524941
	H4173	H	0.916752	0.378496	0.544544
	H4174	H	0.668599	0.425200	0.596380
	H4175	H	0.912194	0.497278	0.576956
	O4176	O	0.093466	0.475602	0.625382
	O4177	O	0.350236	0.403722	0.648080
	O4178	O	0.096272	0.382211	0.672283
	O4179	O	0.340123	0.452408	0.644260
	O4180	O	0.430356	0.401734	0.672550
	O4181	O	0.173961	0.472821	0.649160
	O4182	O	0.421723	0.454457	0.620173
	O4183	O	0.178000	0.382553	0.645554
	O4184	O	0.427859	0.381889	0.671716
	O4185	O	0.170896	0.452088	0.643166
	O4186	O	0.424500	0.475308	0.624410
	O4187	O	0.180928	0.403368	0.647015
	O4188	O	0.090319	0.454845	0.619501
	O4189	O	0.347118	0.382922	0.644841
	O4190	O	0.099401	0.402135	0.671676
	O4191	O	0.343077	0.473118	0.648635
	F4192	F	0.014199	0.392831	0.648323
	F4193	F	0.257654	0.464951	0.624009
	F4194	F	0.007882	0.462738	0.644655
	F4195	F	0.263463	0.391815	0.668830
	Al4196	Al	0.138818	0.392356	0.658518
	Al4197	Al	0.382420	0.463845	0.634294
	Al4198	Al	0.132588	0.463846	0.634261
	Al4199	Al	0.388752	0.392343	0.658609
	C4200	C	0.095590	0.495126	0.625608
	C4201	C	0.351691	0.423263	0.647026
	C4202	C	0.101313	0.365965	0.692547
	C4203	C	0.349091	0.432966	0.647076
	C4204	C	0.424154	0.418823	0.687726
	C4205	C	0.167639	0.490187	0.663800
	C4206	C	0.417427	0.436591	0.607408
	C4207	C	0.173407	0.365063	0.631868
	C4208	C	0.422444	0.365222	0.690942
	C4209	C	0.169025	0.432516	0.644251
	C4210	C	0.415680	0.494747	0.623383
	C4211	C	0.171632	0.422823	0.644197
	C4212	C	0.096514	0.437340	0.605321
	C4213	C	0.353372	0.365889	0.629568
	C4214	C	0.103684	0.419646	0.685352
	C4215	C	0.347678	0.490852	0.662036
	C4216	C	0.006517	0.489997	0.624039
	C4217	C	0.263014	0.418076	0.645566
	C4218	C	0.011679	0.369770	0.686678
	C4219	C	0.257686	0.437710	0.645705
	C4220	C	0.014047	0.414753	0.683028
	C4221	C	0.258066	0.485901	0.659768
	C4222	C	0.006223	0.441590	0.609477
	C4223	C	0.263071	0.369949	0.634158
	C4224	C	0.008290	0.479542	0.624620
	C4225	C	0.264944	0.407623	0.646948
	C4226	C	0.011748	0.378570	0.676066
	C4227	C	0.256007	0.448164	0.644318
	C4228	C	0.014536	0.405534	0.675155
	C4229	C	0.258413	0.476597	0.652029
	C4230	C	0.005863	0.450979	0.616922
	C4231	C	0.262714	0.379137	0.642082
	H4232	H	0.166683	0.491528	0.626110
	H4233	H	0.422410	0.419660	0.648172
	H4234	H	0.170655	0.369442	0.689348
	H4235	H	0.417856	0.436912	0.648230
	H4236	H	0.354647	0.415080	0.686134
	H4237	H	0.097767	0.486464	0.662214
	H4238	H	0.346877	0.439740	0.610511
	H4239	H	0.103352	0.368103	0.635476
	H4240	H	0.353073	0.368095	0.686422
	H4241	H	0.097933	0.436084	0.643104
	H4242	H	0.346386	0.490878	0.622119
	H4243	H	0.102580	0.418903	0.643014
	H4244	H	0.166390	0.441094	0.606716
	H4245	H	0.422910	0.369618	0.631251
	H4246	H	0.173794	0.416599	0.681820
	H4247	H	0.418277	0.487684	0.658991
	O4248	O	0.593868	0.475568	0.625386
	O4249	O	0.849615	0.403752	0.647851
	O4250	O	0.596654	0.382242	0.672411
	O4251	O	0.839742	0.452406	0.644606
	O4252	O	0.930256	0.401742	0.672422
	O4253	O	0.673644	0.472786	0.649338
	O4254	O	0.921152	0.454468	0.620292
	O4255	O	0.677381	0.382541	0.645580
	O4256	O	0.927568	0.381899	0.671648
	O4257	O	0.670501	0.452120	0.643559
	O4258	O	0.924130	0.475290	0.624531
	O4259	O	0.680240	0.403394	0.646950
	O4260	O	0.590949	0.454792	0.619664
	O4261	O	0.846608	0.382947	0.644664
	O4262	O	0.599607	0.402187	0.671620
	O4263	O	0.842905	0.473104	0.648879
	F4264	F	0.513584	0.392853	0.648489
	F4265	F	0.757725	0.464908	0.624293
	F4266	F	0.506988	0.462741	0.644567
	F4267	F	0.763757	0.391876	0.668710
	Al4268	Al	0.638571	0.392378	0.658536
	Al4269	Al	0.882830	0.463819	0.634514
	Al4270	Al	0.632379	0.463819	0.634421
	Al4271	Al	0.888855	0.392362	0.658469
	C4272	C	0.596087	0.495098	0.625652
	C4273	C	0.851226	0.423272	0.646891
	C4274	C	0.601764	0.365979	0.692597
	C4275	C	0.848548	0.432969	0.647082
	C4276	C	0.923711	0.418848	0.687547
	C4277	C	0.667026	0.490174	0.663875
	C4278	C	0.916556	0.436589	0.607487
	C4279	C	0.672993	0.364999	0.632051
	C4280	C	0.922047	0.365213	0.690954
	C4281	C	0.668423	0.432546	0.644459
	C4282	C	0.915162	0.494798	0.623427
	C4283	C	0.671020	0.422861	0.644261
	C4284	C	0.597411	0.437307	0.605463
	C4285	C	0.852865	0.365996	0.629364
	C4286	C	0.603824	0.419734	0.685140
	C4287	C	0.847070	0.490861	0.662063
	C4288	C	0.507127	0.489973	0.623988
	C4289	C	0.762391	0.418102	0.645484
	C4290	C	0.512160	0.369770	0.686704
	C4291	C	0.757136	0.437725	0.645877
	C4292	C	0.514357	0.414784	0.683063
	C4293	C	0.757460	0.485906	0.659853
	C4294	C	0.507058	0.441571	0.609502
	C4295	C	0.762505	0.369950	0.634146
	C4296	C	0.508758	0.479518	0.624554
	C4297	C	0.764275	0.407652	0.646798
	C4298	C	0.512208	0.378584	0.676147
	C4299	C	0.755546	0.448179	0.644642
	C4300	C	0.514790	0.405555	0.675181
	C4301	C	0.758022	0.476573	0.652203
	C4302	C	0.506587	0.450960	0.616949
	C4303	C	0.762104	0.379136	0.642069
	H4304	H	0.667153	0.491497	0.626238
	H4305	H	0.922119	0.419672	0.647914
	H4306	H	0.671296	0.369470	0.689460
	H4307	H	0.917450	0.436913	0.648229
	H4308	H	0.854010	0.415139	0.685832
	H4309	H	0.597154	0.486441	0.662363
	H4310	H	0.846119	0.439734	0.610671
	H4311	H	0.603129	0.368000	0.635829
	H4312	H	0.852604	0.368087	0.686424
	H4313	H	0.597415	0.436117	0.643465
	H4314	H	0.845849	0.490933	0.622159
	H4315	H	0.602010	0.418947	0.643111
	H4316	H	0.667337	0.441037	0.606939
	H4317	H	0.922061	0.369806	0.630884
	H4318	H	0.673829	0.416734	0.681443
	H4319	H	0.917638	0.487684	0.659039
	O4320	O	0.099995	0.466216	0.710466
	O4321	O	0.346055	0.403992	0.785092
	O4322	O	0.092844	0.385470	0.816459
	O4323	O	0.346850	0.444698	0.734819
	O4324	O	0.426804	0.404492	0.812396
	O4325	O	0.180292	0.464296	0.734872
	O4326	O	0.428011	0.445085	0.708043
	O4327	O	0.174495	0.384007	0.788846
	O4328	O	0.424504	0.385042	0.815809
	O4329	O	0.178003	0.444422	0.734238
	O4330	O	0.430843	0.465900	0.709526
	O4331	O	0.177130	0.403677	0.784538
	O4332	O	0.097333	0.445402	0.707380
	O4333	O	0.343475	0.384379	0.788078
	O4334	O	0.095989	0.404861	0.811619
	O4335	O	0.349385	0.464627	0.734246
	F4336	F	0.010411	0.394070	0.790298
	F4337	F	0.263885	0.455344	0.710930
	F4338	F	0.013482	0.454366	0.731298
	F4339	F	0.260195	0.394765	0.810186
	Al4340	Al	0.135192	0.394423	0.800274
	Al4341	Al	0.388894	0.454873	0.721026
	Al4342	Al	0.138816	0.454860	0.721033
	Al4343	Al	0.385096	0.394426	0.800267
	C4344	C	0.101543	0.485766	0.709417
	C4345	C	0.351544	0.420295	0.764941
	C4346	C	0.097845	0.370940	0.840465
	C4347	C	0.351621	0.428437	0.754975
	C4348	C	0.420644	0.421066	0.828592
	C4349	C	0.174246	0.481331	0.750150
	C4350	C	0.423630	0.427550	0.694460
	C4351	C	0.170235	0.367029	0.773654
	C4352	C	0.419013	0.369919	0.838703
	C4353	C	0.172301	0.427772	0.753514
	C4354	C	0.421629	0.485357	0.706986
	C4355	C	0.172268	0.419627	0.763480
	C4356	C	0.103206	0.428372	0.692116
	C4357	C	0.349717	0.367814	0.771801
	C4358	C	0.099832	0.421897	0.826530
	C4359	C	0.354092	0.482194	0.747683
	C4360	C	0.012824	0.480574	0.707970
	C4361	C	0.261868	0.415793	0.769308
	C4362	C	0.008139	0.374195	0.833607
	C4363	C	0.261950	0.432279	0.749190
	C4364	C	0.010481	0.417191	0.823615
	C4365	C	0.264488	0.477258	0.745503
	C4366	C	0.013015	0.432448	0.696656
	C4367	C	0.259574	0.371732	0.776589
	C4368	C	0.014636	0.470122	0.709315
	C4369	C	0.261678	0.407212	0.780465
	C4370	C	0.008292	0.382102	0.820978
	C4371	C	0.262269	0.441084	0.738613
	C4372	C	0.011228	0.408201	0.815212
	C4373	C	0.264716	0.468055	0.737662
	C4374	C	0.012747	0.441632	0.704614
	C4375	C	0.259092	0.380690	0.785124
	H4376	H	0.172391	0.482169	0.710507
	H4377	H	0.420743	0.417436	0.769474
	H4378	H	0.167279	0.374237	0.836633
	H4379	H	0.420939	0.431904	0.751741
	H4380	H	0.351598	0.417423	0.826467
	H4381	H	0.104546	0.477606	0.748544
	H4382	H	0.353632	0.430537	0.698157
	H4383	H	0.100709	0.369974	0.777474
	H4384	H	0.349709	0.372356	0.833410
	H4385	H	0.102804	0.430682	0.749069
	H4386	H	0.352574	0.481429	0.705970
	H4387	H	0.102841	0.416203	0.766824
	H4388	H	0.172807	0.432077	0.693851
	H4389	H	0.418810	0.371406	0.774091
	H4390	H	0.169505	0.418951	0.822717
	H4391	H	0.424292	0.479186	0.744057
	O4392	O	0.600239	0.466243	0.710452
	O4393	O	0.845800	0.404041	0.785101
	O4394	O	0.593404	0.385442	0.816412
	O4395	O	0.846301	0.444698	0.734780
	O4396	O	0.926964	0.404449	0.812442
	O4397	O	0.680347	0.464273	0.734932
	O4398	O	0.928162	0.445055	0.708098
	O4399	O	0.674417	0.384041	0.788788
	O4400	O	0.924064	0.384996	0.815718
	O4401	O	0.677475	0.444380	0.734119
	O4402	O	0.930644	0.465855	0.709413
	O4403	O	0.676792	0.403693	0.784553
	O4404	O	0.597140	0.445495	0.707211
	O4405	O	0.843528	0.384421	0.787964
	O4406	O	0.595930	0.404852	0.811643
	O4407	O	0.849434	0.464633	0.734296
	F4408	F	0.510118	0.394056	0.790344
	F4409	F	0.764193	0.455336	0.710972
	F4410	F	0.513732	0.454375	0.731264
	F4411	F	0.760118	0.394792	0.810138
	Al4412	Al	0.635228	0.394426	0.800227
	Al4413	Al	0.889131	0.454858	0.721109
	Al4414	Al	0.638969	0.454883	0.720986
	Al4415	Al	0.885337	0.394422	0.800184
	C4416	C	0.601900	0.485785	0.709407
	C4417	C	0.851048	0.420303	0.764888
	C4418	C	0.598147	0.370977	0.840551
	C4419	C	0.851179	0.428437	0.754902
	C4420	C	0.920433	0.421070	0.828540
	C4421	C	0.673734	0.481318	0.750157
	C4422	C	0.923268	0.427566	0.694321
	C4423	C	0.669969	0.367022	0.773757
	C4424	C	0.918465	0.369925	0.838769
	C4425	C	0.672027	0.427787	0.753553
	C4426	C	0.921376	0.485340	0.706772
	C4427	C	0.671893	0.419650	0.763537
	C4428	C	0.603177	0.428470	0.691849
	C4429	C	0.849427	0.367810	0.771832
	C4430	C	0.599984	0.421932	0.826484
	C4431	C	0.853582	0.482194	0.747742
	C4432	C	0.513047	0.480598	0.708099
	C4433	C	0.761396	0.415841	0.769397
	C4434	C	0.508691	0.374210	0.833623
	C4435	C	0.761569	0.432302	0.749204
	C4436	C	0.510635	0.417199	0.823665
	C4437	C	0.764061	0.477257	0.745523
	C4438	C	0.513092	0.432490	0.696609
	C4439	C	0.759392	0.371715	0.776701
	C4440	C	0.514920	0.470149	0.709419
	C4441	C	0.761292	0.407252	0.780527
	C4442	C	0.508867	0.382125	0.821023
	C4443	C	0.761755	0.441075	0.738560
	C4444	C	0.511275	0.408195	0.815274
	C4445	C	0.764695	0.468054	0.737692
	C4446	C	0.512761	0.441680	0.704549
	C4447	C	0.759049	0.380704	0.785139
	H4448	H	0.672849	0.482196	0.710394
	H4449	H	0.920478	0.417401	0.769327
	H4450	H	0.667484	0.374297	0.836787
	H4451	H	0.920578	0.431863	0.751563
	H4452	H	0.851342	0.417440	0.826386
	H4453	H	0.604107	0.477578	0.748561
	H4454	H	0.853292	0.430616	0.697919
	H4455	H	0.600329	0.369981	0.777529
	H4456	H	0.848949	0.372383	0.833526
	H4457	H	0.602779	0.430681	0.749087
	H4458	H	0.852287	0.481416	0.705702
	H4459	H	0.602498	0.416223	0.766849
	H4460	H	0.672632	0.432230	0.693360
	H4461	H	0.918618	0.371420	0.774031
	H4462	H	0.669432	0.418998	0.822612
	H4463	H	0.923858	0.479188	0.744149
	O4464	O	0.096068	0.466494	0.847559
	O4465	O	0.342435	0.411011	0.937690
	O4466	O	0.089677	0.393083	0.970187
	O4467	O	0.343647	0.447933	0.878939
	O4468	O	0.423266	0.412106	0.965353
	O4469	O	0.176533	0.467029	0.874794
	O4470	O	0.424497	0.446536	0.851293
	O4471	O	0.171163	0.391336	0.942595
	O4472	O	0.421137	0.392744	0.969730
	O4473	O	0.174711	0.447546	0.878317
	O4474	O	0.427275	0.466219	0.847090
	O4475	O	0.173392	0.410680	0.937200
	O4476	O	0.093658	0.446861	0.850553
	O4477	O	0.340258	0.391658	0.941868
	O4478	O	0.092314	0.412321	0.964926
	O4479	O	0.345682	0.467302	0.874212
	F4480	F	0.006892	0.401351	0.943778
	F4481	F	0.260418	0.456555	0.852844
	F4482	F	0.010187	0.457252	0.872698
	F4483	F	0.256671	0.402378	0.963507
	Al4484	Al	0.131689	0.401861	0.953670
	Al4485	Al	0.385182	0.456928	0.862742
	Al4486	Al	0.135272	0.456903	0.862736
	Al4487	Al	0.381775	0.401863	0.953660
	C4488	C	0.101270	0.482876	0.827643
	C4489	C	0.348080	0.426035	0.914641
	C4490	C	0.094250	0.378818	0.994635
	C4491	C	0.348291	0.433386	0.902939
	C4492	C	0.417255	0.428680	0.981433
	C4493	C	0.170633	0.483628	0.890943
	C4494	C	0.420043	0.429509	0.836270
	C4495	C	0.166409	0.374388	0.927310
	C4496	C	0.415358	0.378005	0.993352
	C4497	C	0.168927	0.432480	0.901304
	C4498	C	0.422482	0.482084	0.825829
	C4499	C	0.168693	0.425112	0.913031
	C4500	C	0.099234	0.430332	0.834221
	C4501	C	0.345988	0.375224	0.925278
	C4502	C	0.096958	0.429173	0.980473
	C4503	C	0.350208	0.484398	0.889079
	C4504	C	0.011639	0.478305	0.831860
	C4505	C	0.258253	0.421804	0.919800
	C4506	C	0.004603	0.382113	0.987862
	C4507	C	0.258760	0.436709	0.896156
	C4508	C	0.007470	0.424669	0.976983
	C4509	C	0.260725	0.479711	0.886159
	C4510	C	0.009264	0.434216	0.839120
	C4511	C	0.255915	0.379075	0.930265
	C4512	C	0.011560	0.469704	0.842971
	C4513	C	0.258021	0.413944	0.932510
	C4514	C	0.005013	0.389850	0.974940
	C4515	C	0.259097	0.444622	0.883541
	C4516	C	0.007777	0.415723	0.968438
	C4517	C	0.261099	0.470697	0.877740
	C4518	C	0.009127	0.443171	0.847663
	C4519	C	0.255713	0.388004	0.938870
	H4520	H	0.170699	0.480082	0.832339
	H4521	H	0.417484	0.423574	0.919883
	H4522	H	0.163823	0.381967	0.990531
	H4523	H	0.417889	0.436635	0.899089
	H4524	H	0.348172	0.425220	0.978731
	H4525	H	0.101504	0.480034	0.888632
	H4526	H	0.350594	0.432448	0.840129
	H4527	H	0.096826	0.377291	0.931255
	H4528	H	0.346099	0.380490	0.988138
	H4529	H	0.099690	0.434992	0.896067
	H4530	H	0.353035	0.478595	0.828976
	H4531	H	0.099334	0.421869	0.916971
	H4532	H	0.168306	0.433941	0.836430
	H4533	H	0.415111	0.378813	0.927551
	H4534	H	0.166461	0.426091	0.977038
	H4535	H	0.419642	0.481438	0.885232
	O4536	O	0.596236	0.466536	0.847637
	O4537	O	0.842370	0.411027	0.937673
	O4538	O	0.590076	0.393056	0.970168
	O4539	O	0.842920	0.447950	0.878964
	O4540	O	0.923380	0.412088	0.965411
	O4541	O	0.676907	0.466976	0.874886
	O4542	O	0.924656	0.446503	0.851387
	O4543	O	0.670876	0.391334	0.942612
	O4544	O	0.920762	0.392746	0.969650
	O4545	O	0.674032	0.447515	0.878244
	O4546	O	0.927070	0.466157	0.846998
	O4547	O	0.673400	0.410679	0.937168
	O4548	O	0.593467	0.446925	0.850446
	O4549	O	0.839936	0.391697	0.941786
	O4550	O	0.592321	0.412332	0.964892
	O4551	O	0.846136	0.467340	0.874160
	F4552	F	0.506783	0.401343	0.943833
	F4553	F	0.760407	0.456526	0.852868
	F4554	F	0.510095	0.457299	0.872669
	F4555	F	0.756687	0.402400	0.963478
	Al4556	Al	0.631705	0.401851	0.953670
	Al4557	Al	0.885443	0.456903	0.862800
	Al4558	Al	0.635268	0.456920	0.862735
	Al4559	Al	0.881874	0.401875	0.953603
	C4560	C	0.601719	0.482889	0.827584
	C4561	C	0.847600	0.426038	0.914571
	C4562	C	0.594654	0.378800	0.994658
	C4563	C	0.847590	0.433397	0.902887
	C4564	C	0.917481	0.428702	0.981413
	C4565	C	0.670611	0.483596	0.890935
	C4566	C	0.919889	0.429507	0.836237
	C4567	C	0.666416	0.374384	0.927334
	C4568	C	0.914664	0.378036	0.993360
	C4569	C	0.668352	0.432477	0.901297
	C4570	C	0.922035	0.482044	0.825792
	C4571	C	0.668369	0.425107	0.913022
	C4572	C	0.599378	0.430374	0.834147
	C4573	C	0.845881	0.375208	0.925362
	C4574	C	0.596939	0.429168	0.980483
	C4575	C	0.850230	0.484389	0.889118
	C4576	C	0.512034	0.478328	0.831867
	C4577	C	0.758047	0.421800	0.919766
	C4578	C	0.505129	0.382111	0.987916
	C4579	C	0.758048	0.436706	0.896112
	C4580	C	0.507401	0.424655	0.977024
	C4581	C	0.760858	0.479710	0.886137
	C4582	C	0.509380	0.434227	0.839132
	C4583	C	0.755817	0.379066	0.930314
	C4584	C	0.511820	0.469752	0.843023
	C4585	C	0.757985	0.413946	0.932477
	C4586	C	0.505523	0.389844	0.974981
	C4587	C	0.758361	0.444607	0.883490
	C4588	C	0.507820	0.415719	0.968449
	C4589	C	0.761386	0.470694	0.877736
	C4590	C	0.509073	0.443206	0.847606
	C4591	C	0.755425	0.388007	0.938898
	H4592	H	0.671247	0.480073	0.832194
	H4593	H	0.917057	0.423568	0.919754
	H4594	H	0.664240	0.381936	0.990537
	H4595	H	0.917047	0.436633	0.898991
	H4596	H	0.848415	0.425237	0.978740
	H4597	H	0.601545	0.479963	0.888691
	H4598	H	0.850443	0.432450	0.840105
	H4599	H	0.596792	0.377307	0.931189
	H4600	H	0.845196	0.380547	0.988193
	H4601	H	0.599042	0.434973	0.896071
	H4602	H	0.852583	0.478554	0.828952
	H4603	H	0.598974	0.421843	0.916962
	H4604	H	0.668512	0.434019	0.836261
	H4605	H	0.914936	0.378814	0.927595
	H4606	H	0.666548	0.426114	0.976993
	H4607	H	0.919802	0.481407	0.885378
	O4608	O	0.095814	0.591526	-0.027344
	O4609	O	0.342592	0.536022	0.062794
	O4610	O	0.089516	0.518113	0.095279
	O4611	O	0.342904	0.572969	0.003956
	O4612	O	0.423433	0.536978	0.090553
	O4613	O	0.176760	0.591991	-0.000161
	O4614	O	0.424333	0.571504	-0.023647
	O4615	O	0.170859	0.516310	0.067618
	O4616	O	0.420848	0.517697	0.094701
	O4617	O	0.174112	0.572519	0.003345
	O4618	O	0.426924	0.591155	-0.027996
	O4619	O	0.173693	0.535656	0.062175
	O4620	O	0.093451	0.571874	-0.024422
	O4621	O	0.339860	0.516680	0.066807
	O4622	O	0.092432	0.537398	0.089746
	O4623	O	0.345778	0.592354	-0.000866
	F4624	F	0.006872	0.526335	0.068814
	F4625	F	0.260255	0.581557	-0.022172
	F4626	F	0.010019	0.582277	-0.002285
	F4627	F	0.256539	0.527344	0.088562
	Al4628	Al	0.131736	0.526848	0.078701
	Al4629	Al	0.385157	0.581904	-0.012246
	Al4630	Al	0.135225	0.581914	-0.012249
	Al4631	Al	0.381677	0.526827	0.078707
	C4632	C	0.101213	0.607889	-0.047381
	C4633	C	0.347935	0.551021	0.039592
	C4634	C	0.094323	0.503930	0.119878
	C4635	C	0.347964	0.558381	0.027890
	C4636	C	0.417138	0.553419	0.107144
	C4637	C	0.170761	0.608664	0.015779
	C4638	C	0.419942	0.554459	-0.038651
	C4639	C	0.166448	0.499367	0.052287
	C4640	C	0.415429	0.502876	0.118129
	C4641	C	0.168665	0.557439	0.026309
	C4642	C	0.421837	0.607049	-0.049177
	C4643	C	0.168696	0.550075	0.038031
	C4644	C	0.099704	0.555372	-0.040864
	C4645	C	0.345847	0.500201	0.050339
	C4646	C	0.096813	0.554397	0.104806
	C4647	C	0.350351	0.609293	0.014317
	C4648	C	0.011581	0.603293	-0.043213
	C4649	C	0.258412	0.546770	0.044782
	C4650	C	0.004654	0.507129	0.112951
	C4651	C	0.258407	0.561680	0.021112
	C4652	C	0.007311	0.549648	0.102029
	C4653	C	0.260807	0.604676	0.011160
	C4654	C	0.009526	0.559208	-0.035836
	C4655	C	0.255818	0.504045	0.055324
	C4656	C	0.011343	0.594713	-0.032040
	C4657	C	0.258320	0.538927	0.057514
	C4658	C	0.004904	0.514853	0.099979
	C4659	C	0.258525	0.569608	0.008534
	C4660	C	0.007797	0.540713	0.093443
	C4661	C	0.261157	0.595702	0.002715
	C4662	C	0.008933	0.568188	-0.027361
	C4663	C	0.255409	0.512980	0.063921
	H4664	H	0.170532	0.605092	-0.042664
	H4665	H	0.417346	0.548562	0.044806
	H4666	H	0.163738	0.507170	0.115926
	H4667	H	0.417454	0.561636	0.024026
	H4668	H	0.348020	0.549746	0.105080
	H4669	H	0.101585	0.605133	0.013366
	H4670	H	0.350323	0.557361	-0.034704
	H4671	H	0.096771	0.502279	0.056137
	H4672	H	0.346106	0.505252	0.112758
	H4673	H	0.099171	0.559933	0.021123
	H4674	H	0.352479	0.603544	-0.046032
	H4675	H	0.099318	0.546829	0.041970
	H4676	H	0.168890	0.559020	-0.038771
	H4677	H	0.414977	0.503798	0.052591
	H4678	H	0.166437	0.551533	0.100727
	H4679	H	0.419987	0.606282	0.010700
	O4680	O	0.595916	0.591552	-0.027302
	O4681	O	0.842234	0.536049	0.062735
	O4682	O	0.589727	0.518147	0.095297
	O4683	O	0.842893	0.572891	0.003884
	O4684	O	0.923474	0.537011	0.090544
	O4685	O	0.676397	0.592012	-0.000121
	O4686	O	0.924331	0.571534	-0.023720
	O4687	O	0.670725	0.516303	0.067608
	O4688	O	0.920667	0.517693	0.094597
	O4689	O	0.673959	0.572552	0.003336
	O4690	O	0.926814	0.591180	-0.027982
	O4691	O	0.673253	0.535626	0.062157
	O4692	O	0.593379	0.571884	-0.024486
	O4693	O	0.839755	0.516677	0.066769
	O4694	O	0.592458	0.537402	0.089683
	O4695	O	0.845448	0.592310	-0.000740
	F4696	F	0.506630	0.526301	0.068843
	F4697	F	0.760258	0.581537	-0.022099
	F4698	F	0.510079	0.582275	-0.002292
	F4699	F	0.756587	0.527404	0.088478
	Al4700	Al	0.631544	0.526853	0.078678
	Al4701	Al	0.885234	0.581931	-0.012212
	Al4702	Al	0.635118	0.581916	-0.012257
	Al4703	Al	0.881733	0.526845	0.078598
	C4704	C	0.601164	0.607889	-0.047357
	C4705	C	0.847629	0.551041	0.039640
	C4706	C	0.594580	0.503933	0.119893
	C4707	C	0.847696	0.558393	0.027926
	C4708	C	0.917153	0.553437	0.107161
	C4709	C	0.670278	0.608678	0.015812
	C4710	C	0.920113	0.554441	-0.038595
	C4711	C	0.666251	0.499380	0.052267
	C4712	C	0.915019	0.502874	0.118154
	C4713	C	0.668430	0.557451	0.026282
	C4714	C	0.922034	0.607037	-0.049270
	C4715	C	0.668331	0.550079	0.037998
	C4716	C	0.599544	0.555378	-0.040891
	C4717	C	0.845786	0.500206	0.050318
	C4718	C	0.596778	0.554390	0.104771
	C4719	C	0.849836	0.609338	0.014282
	C4720	C	0.511516	0.603318	-0.043121
	C4721	C	0.757937	0.546806	0.044836
	C4722	C	0.505025	0.507099	0.112884
	C4723	C	0.758062	0.561699	0.021131
	C4724	C	0.507277	0.549653	0.101935
	C4725	C	0.760388	0.604703	0.011161
	C4726	C	0.509414	0.559205	-0.035847
	C4727	C	0.755683	0.504035	0.055339
	C4728	C	0.511430	0.594729	-0.031991
	C4729	C	0.757776	0.538942	0.057530
	C4730	C	0.505271	0.514854	0.100002
	C4731	C	0.758269	0.569606	0.008519
	C4732	C	0.507793	0.540708	0.093387
	C4733	C	0.760886	0.595693	0.002798
	C4734	C	0.508947	0.568176	-0.027354
	C4735	C	0.755265	0.512981	0.063895
	H4736	H	0.670636	0.605080	-0.042695
	H4737	H	0.917097	0.548583	0.044847
	H4738	H	0.664025	0.507193	0.115994
	H4739	H	0.917180	0.561645	0.024052
	H4740	H	0.848081	0.549783	0.105033
	H4741	H	0.601083	0.605118	0.013456
	H4742	H	0.850502	0.557339	-0.034603
	H4743	H	0.596619	0.502288	0.056156
	H4744	H	0.845601	0.505232	0.112757
	H4745	H	0.599138	0.559926	0.021056
	H4746	H	0.852535	0.603551	-0.046128
	H4747	H	0.598808	0.546808	0.041886
	H4748	H	0.668831	0.559030	-0.038806
	H4749	H	0.914869	0.503805	0.052599
	H4750	H	0.666428	0.551513	0.100746
	H4751	H	0.919506	0.606326	0.010665
	O4752	O	0.092254	0.598523	0.125233
	O4753	O	0.338698	0.544370	0.217834
	O4754	O	0.085735	0.526401	0.250263
	O4755	O	0.339638	0.580607	0.157727
	O4756	O	0.419403	0.545358	0.245711
	O4757	O	0.172931	0.599529	0.153015
	O4758	O	0.420685	0.578797	0.130122
	O4759	O	0.167445	0.524658	0.222817
	O4760	O	0.416884	0.526032	0.249752
	O4761	O	0.170755	0.580176	0.157118
	O4762	O	0.423850	0.598142	0.124631
	O4763	O	0.169830	0.543936	0.217174
	O4764	O	0.089903	0.579179	0.129289
	O4765	O	0.336488	0.525063	0.221905
	O4766	O	0.088769	0.545752	0.244884
	O4767	O	0.341892	0.599911	0.152136
	F4768	F	0.003024	0.534687	0.223912
	F4769	F	0.256652	0.588816	0.131305
	F4770	F	0.006421	0.589841	0.151047
	F4771	F	0.252762	0.535741	0.243655
	Al4772	Al	0.127833	0.535207	0.233810
	Al4773	Al	0.381508	0.589355	0.141154
	Al4774	Al	0.131514	0.589338	0.141171
	Al4775	Al	0.377785	0.535221	0.233803
	C4776	C	0.097666	0.613572	0.102225
	C4777	C	0.344105	0.559236	0.194420
	C4778	C	0.090713	0.511933	0.274370
	C4779	C	0.344289	0.566470	0.182472
	C4780	C	0.413351	0.561812	0.262183
	C4781	C	0.167175	0.616042	0.169412
	C4782	C	0.416471	0.561800	0.114995
	C4783	C	0.163156	0.507633	0.207785
	C4784	C	0.411473	0.511048	0.272908
	C4785	C	0.165091	0.565353	0.180570
	C4786	C	0.419116	0.612552	0.100445
	C4787	C	0.164994	0.558114	0.192528
	C4788	C	0.096200	0.562773	0.112665
	C4789	C	0.342687	0.508644	0.205284
	C4790	C	0.092745	0.562697	0.260130
	C4791	C	0.346752	0.616813	0.167551
	C4792	C	0.007918	0.609278	0.107292
	C4793	C	0.254476	0.554968	0.199579
	C4794	C	0.001052	0.515246	0.267636
	C4795	C	0.254818	0.569605	0.175394
	C4796	C	0.003300	0.557998	0.257165
	C4797	C	0.257231	0.612167	0.164450
	C4798	C	0.005994	0.566543	0.117833
	C4799	C	0.252567	0.512417	0.210484
	C4800	C	0.007878	0.601404	0.119988
	C4801	C	0.254362	0.547207	0.212467
	C4802	C	0.001169	0.523099	0.254910
	C4803	C	0.255128	0.577345	0.162473
	C4804	C	0.004107	0.549064	0.248562
	C4805	C	0.257396	0.603225	0.155892
	C4806	C	0.005505	0.575478	0.126415
	C4807	C	0.252007	0.521361	0.219035
	H4808	H	0.167046	0.611137	0.107530
	H4809	H	0.413398	0.556874	0.199829
	H4810	H	0.160126	0.515160	0.270402
	H4811	H	0.413784	0.569747	0.178621
	H4812	H	0.344274	0.558190	0.259952
	H4813	H	0.097916	0.612461	0.167107
	H4814	H	0.346847	0.564660	0.119062
	H4815	H	0.093598	0.510473	0.211945
	H4816	H	0.342087	0.513539	0.267707
	H4817	H	0.095715	0.567706	0.175129
	H4818	H	0.349751	0.609250	0.104266
	H4819	H	0.095649	0.554821	0.196370
	H4820	H	0.165308	0.566442	0.114744
	H4821	H	0.411869	0.512291	0.207374
	H4822	H	0.162399	0.559783	0.256219
	H4823	H	0.416370	0.613868	0.163719
	O4824	O	0.592837	0.598538	0.125254
	O4825	O	0.838695	0.544411	0.217880
	O4826	O	0.585895	0.526431	0.250336
	O4827	O	0.839128	0.580605	0.157789
	O4828	O	0.919881	0.545355	0.245670
	O4829	O	0.673437	0.599498	0.153034
	O4830	O	0.920925	0.578802	0.130094
	O4831	O	0.666892	0.524631	0.222839
	O4832	O	0.916801	0.525966	0.249654
	O4833	O	0.670195	0.580167	0.157105
	O4834	O	0.923472	0.598068	0.124566
	O4835	O	0.669795	0.543900	0.217155
	O4836	O	0.589708	0.579212	0.129197
	O4837	O	0.835987	0.525070	0.221863
	O4838	O	0.588448	0.545744	0.244823
	O4839	O	0.842491	0.599864	0.152281
	F4840	F	0.502816	0.534691	0.223981
	F4841	F	0.756748	0.588820	0.131347
	F4842	F	0.506456	0.589890	0.150968
	F4843	F	0.752825	0.535727	0.243620
	Al4844	Al	0.627868	0.535193	0.233801
	Al4845	Al	0.881639	0.589335	0.141213
	Al4846	Al	0.631572	0.589353	0.141128
	Al4847	Al	0.878017	0.535200	0.233741
	C4848	C	0.598382	0.613583	0.102176
	C4849	C	0.844016	0.559220	0.194399
	C4850	C	0.590892	0.511919	0.274339
	C4851	C	0.844003	0.566442	0.182431
	C4852	C	0.913040	0.561825	0.262170
	C4853	C	0.667183	0.615975	0.169448
	C4854	C	0.916522	0.561807	0.115026
	C4855	C	0.662783	0.507630	0.207745
	C4856	C	0.911240	0.511074	0.272972
	C4857	C	0.664687	0.565329	0.180592
	C4858	C	0.918347	0.612548	0.100412
	C4859	C	0.664676	0.558095	0.192560
	C4860	C	0.596086	0.562773	0.112619
	C4861	C	0.842315	0.508653	0.205308
	C4862	C	0.592962	0.562706	0.260034
	C4863	C	0.846642	0.616849	0.167469
	C4864	C	0.508722	0.609306	0.107312
	C4865	C	0.754295	0.554970	0.199616
	C4866	C	0.501178	0.515270	0.267678
	C4867	C	0.754322	0.569614	0.175442
	C4868	C	0.503493	0.557985	0.257162
	C4869	C	0.757345	0.612140	0.164482
	C4870	C	0.505916	0.566554	0.117773
	C4871	C	0.752078	0.512403	0.210497
	C4872	C	0.508480	0.601430	0.119996
	C4873	C	0.754250	0.547227	0.212528
	C4874	C	0.501323	0.523116	0.254953
	C4875	C	0.754513	0.577337	0.162484
	C4876	C	0.503859	0.549058	0.248556
	C4877	C	0.757865	0.603200	0.155912
	C4878	C	0.505301	0.575493	0.126359
	C4879	C	0.751539	0.521347	0.219057
	H4880	H	0.667751	0.611135	0.107453
	H4881	H	0.913502	0.556879	0.199805
	H4882	H	0.660403	0.515122	0.270340
	H4883	H	0.913576	0.569702	0.178522
	H4884	H	0.843929	0.558196	0.259940
	H4885	H	0.598007	0.612357	0.167196
	H4886	H	0.847025	0.564684	0.119073
	H4887	H	0.593167	0.510490	0.211822
	H4888	H	0.841721	0.513586	0.267855
	H4889	H	0.595354	0.567677	0.175148
	H4890	H	0.848860	0.609256	0.104207
	H4891	H	0.595338	0.554816	0.196462
	H4892	H	0.665249	0.566432	0.114713
	H4893	H	0.911257	0.512348	0.207389
	H4894	H	0.662553	0.559829	0.256024
	H4895	H	0.916233	0.613938	0.163575
	O4896	O	0.088286	0.606790	0.280231
	O4897	O	0.334923	0.552054	0.371724
	O4898	O	0.081914	0.533359	0.402903
	O4899	O	0.335889	0.588888	0.312774
	O4900	O	0.415625	0.552649	0.399451
	O4901	O	0.169175	0.607932	0.308032
	O4902	O	0.417046	0.587151	0.285252
	O4903	O	0.163222	0.532186	0.375845
	O4904	O	0.413185	0.533007	0.402303
	O4905	O	0.167032	0.588515	0.312176
	O4906	O	0.419759	0.606541	0.279888
	O4907	O	0.166051	0.551589	0.370976
	O4908	O	0.086269	0.587500	0.284484
	O4909	O	0.332303	0.532565	0.375029
	O4910	O	0.085145	0.553059	0.398551
	O4911	O	0.338271	0.608213	0.307435
	F4912	F	-0.000947	0.542287	0.377229
	F4913	F	0.253056	0.597178	0.286433
	F4914	F	0.002968	0.598242	0.306189
	F4915	F	0.248888	0.542980	0.397110
	Al4916	Al	0.124076	0.542623	0.387200
	Al4917	Al	0.377861	0.597712	0.296312
	Al4918	Al	0.127875	0.597713	0.296266
	Al4919	Al	0.374078	0.542620	0.387190
	C4920	C	0.093906	0.621443	0.256469
	C4921	C	0.340657	0.567178	0.348840
	C4922	C	0.086790	0.517518	0.424229
	C4923	C	0.340826	0.574530	0.337095
	C4924	C	0.409596	0.569164	0.415820
	C4925	C	0.163238	0.624474	0.324248
	C4926	C	0.412680	0.570182	0.270058
	C4927	C	0.158955	0.515113	0.360988
	C4928	C	0.407605	0.516653	0.422273
	C4929	C	0.161459	0.573470	0.335270
	C4930	C	0.414958	0.620849	0.255517
	C4931	C	0.161226	0.566124	0.346998
	C4932	C	0.092017	0.571067	0.267993
	C4933	C	0.338652	0.516010	0.358853
	C4934	C	0.089481	0.570109	0.413610
	C4935	C	0.342929	0.625069	0.323018
	C4936	C	0.004172	0.617441	0.262113
	C4937	C	0.250870	0.562877	0.353895
	C4938	C	-0.002811	0.521221	0.418100
	C4939	C	0.251200	0.577762	0.330178
	C4940	C	0.000036	0.565352	0.410793
	C4941	C	0.253413	0.620520	0.319623
	C4942	C	0.001826	0.574882	0.273021
	C4943	C	0.248409	0.519829	0.363862
	C4944	C	0.003917	0.609698	0.275048
	C4945	C	0.250573	0.554957	0.366468
	C4946	C	-0.002674	0.529805	0.406918
	C4947	C	0.251316	0.585609	0.317435
	C4948	C	0.000526	0.556380	0.402262
	C4949	C	0.253715	0.611584	0.311023
	C4950	C	0.001728	0.583831	0.281590
	C4951	C	0.247851	0.528838	0.372238
	H4952	H	0.163209	0.618869	0.261517
	H4953	H	0.410077	0.564730	0.354166
	H4954	H	0.156219	0.521030	0.421123
	H4955	H	0.410390	0.577817	0.333265
	H4956	H	0.340596	0.565498	0.413730
	H4957	H	0.094059	0.620964	0.321688
	H4958	H	0.343160	0.573081	0.274018
	H4959	H	0.089369	0.518062	0.364838
	H4960	H	0.338226	0.519429	0.417505
	H4961	H	0.092042	0.575876	0.329940
	H4962	H	0.345479	0.617778	0.259780
	H4963	H	0.091671	0.562827	0.350767
	H4964	H	0.161126	0.574684	0.270232
	H4965	H	0.407608	0.519702	0.360955
	H4966	H	0.159135	0.567215	0.409626
	H4967	H	0.412561	0.622039	0.319433
	O4968	O	0.588706	0.606802	0.280240
	O4969	O	0.834548	0.552061	0.371703
	O4970	O	0.582218	0.533380	0.402966
	O4971	O	0.835745	0.588911	0.312848
	O4972	O	0.916251	0.552660	0.399406
	O4973	O	0.669292	0.607919	0.307991
	O4974	O	0.917299	0.587189	0.285227
	O4975	O	0.663031	0.532214	0.375842
	O4976	O	0.912955	0.532986	0.402244
	O4977	O	0.666837	0.588482	0.312167
	O4978	O	0.919457	0.606478	0.279807
	O4979	O	0.665687	0.551639	0.371031
	O4980	O	0.586088	0.587537	0.284388
	O4981	O	0.832054	0.532566	0.375080
	O4982	O	0.584717	0.553041	0.398569
	O4983	O	0.838463	0.608195	0.307521
	F4984	F	0.499235	0.542264	0.377273
	F4985	F	0.753119	0.597173	0.286477
	F4986	F	0.502731	0.598225	0.306145
	F4987	F	0.748972	0.543001	0.397112
	Al4988	Al	0.624028	0.542631	0.387217
	Al4989	Al	0.878019	0.597701	0.296383
	Al4990	Al	0.627903	0.597699	0.296272
	Al4991	Al	0.874211	0.542647	0.387153
	C4992	C	0.594215	0.621472	0.256477
	C4993	C	0.840243	0.567167	0.348810
	C4994	C	0.586837	0.517551	0.424301
	C4995	C	0.840456	0.574521	0.337072
	C4996	C	0.909826	0.569137	0.415955
	C4997	C	0.663380	0.624450	0.324312
	C4998	C	0.912261	0.570199	0.270044
	C4999	C	0.658783	0.515130	0.360918
	C5000	C	0.907412	0.516639	0.422274
	C5001	C	0.661079	0.573474	0.335229
	C5002	C	0.914709	0.620838	0.255505
	C5003	C	0.660856	0.566130	0.346958
	C5004	C	0.592272	0.571078	0.267916
	C5005	C	0.838302	0.515995	0.358896
	C5006	C	0.589084	0.570097	0.413532
	C5007	C	0.842800	0.625095	0.322956
	C5008	C	0.504554	0.617455	0.262126
	C5009	C	0.750446	0.562867	0.353844
	C5010	C	0.497300	0.521262	0.418176
	C5011	C	0.750889	0.577748	0.330137
	C5012	C	0.499652	0.565344	0.410771
	C5013	C	0.753458	0.620512	0.319650
	C5014	C	0.502157	0.574881	0.272988
	C5015	C	0.748159	0.519841	0.363864
	C5016	C	0.504364	0.609717	0.275028
	C5017	C	0.750201	0.554969	0.366463
	C5018	C	0.497652	0.529834	0.407004
	C5019	C	0.751209	0.585593	0.317421
	C5020	C	0.500115	0.556377	0.402244
	C5021	C	0.753776	0.611565	0.311047
	C5022	C	0.501624	0.583816	0.281572
	C5023	C	0.747604	0.528860	0.372224
	H5024	H	0.663536	0.618915	0.261524
	H5025	H	0.909550	0.564741	0.354164
	H5026	H	0.656197	0.521075	0.421214
	H5027	H	0.910001	0.577818	0.333287
	H5028	H	0.840752	0.565448	0.413920
	H5029	H	0.594208	0.620933	0.321759
	H5030	H	0.842649	0.573105	0.273977
	H5031	H	0.589075	0.518067	0.364741
	H5032	H	0.837987	0.519421	0.417516
	H5033	H	0.591579	0.575902	0.329906
	H5034	H	0.845240	0.617772	0.259757
	H5035	H	0.591229	0.562849	0.350770
	H5036	H	0.661370	0.574711	0.270082
	H5037	H	0.907360	0.519642	0.361019
	H5038	H	0.658605	0.567193	0.409548
	H5039	H	0.912418	0.622104	0.319281
	O5040	O	0.084359	0.614500	0.434137
	O5041	O	0.331218	0.555209	0.515842
	O5042	O	0.078214	0.533695	0.540520
	O5043	O	0.331734	0.595897	0.465451
	O5044	O	0.411795	0.554117	0.542622
	O5045	O	0.165479	0.615203	0.461817
	O5046	O	0.413118	0.594648	0.438466
	O5047	O	0.159224	0.534904	0.515797
	O5048	O	0.408496	0.533350	0.539411
	O5049	O	0.162747	0.595522	0.464772
	O5050	O	0.415964	0.614145	0.433635
	O5051	O	0.162484	0.554817	0.515132
	O5052	O	0.082351	0.595057	0.437612
	O5053	O	0.328408	0.535332	0.514905
	O5054	O	0.081209	0.554510	0.541906
	O5055	O	0.334585	0.615554	0.461103
	F5056	F	-0.004782	0.545198	0.518741
	F5057	F	0.249121	0.604779	0.439781
	F5058	F	-0.001222	0.605507	0.459666
	F5059	F	0.245229	0.544222	0.539023
	Al5060	Al	0.120390	0.544682	0.528972
	Al5061	Al	0.373939	0.605138	0.449752
	Al5062	Al	0.123948	0.605146	0.449697
	Al5063	Al	0.370165	0.544707	0.528893
	C5064	C	0.090084	0.629490	0.410959
	C5065	C	0.336653	0.571866	0.496603
	C5066	C	0.087494	0.514215	0.543267
	C5067	C	0.336728	0.579992	0.486611
	C5068	C	0.405251	0.571152	0.557905
	C5069	C	0.159172	0.631781	0.478019
	C5070	C	0.408892	0.577580	0.423554
	C5071	C	0.155189	0.517296	0.502495
	C5072	C	0.407390	0.513816	0.540425
	C5073	C	0.157313	0.579234	0.484910
	C5074	C	0.411048	0.628746	0.409752
	C5075	C	0.157225	0.571096	0.494903
	C5076	C	0.088685	0.578531	0.421335
	C5077	C	0.334925	0.518357	0.499503
	C5078	C	0.085221	0.572042	0.555489
	C5079	C	0.338817	0.632522	0.476333
	C5080	C	0.000275	0.625349	0.416340
	C5081	C	0.246890	0.567304	0.500814
	C5082	C	-0.003854	0.518969	0.541964
	C5083	C	0.247084	0.583768	0.480642
	C5084	C	-0.004206	0.567068	0.553421
	C5085	C	0.249313	0.627869	0.473224
	C5086	C	-0.001591	0.582340	0.426389
	C5087	C	0.244604	0.522291	0.504442
	C5088	C	-0.000036	0.617421	0.428938
	C5089	C	0.246841	0.558490	0.511387
	C5090	C	-0.005905	0.529430	0.540650
	C5091	C	0.247185	0.592343	0.469466
	C5092	C	-0.003631	0.557895	0.545449
	C5093	C	0.249928	0.618897	0.464738
	C5094	C	-0.002153	0.591343	0.434791
	C5095	C	0.244015	0.531512	0.512289
	H5096	H	0.159531	0.626910	0.415999
	H5097	H	0.406255	0.569008	0.501175
	H5098	H	0.156380	0.518149	0.544479
	H5099	H	0.406335	0.583457	0.483406
	H5100	H	0.335766	0.567407	0.556238
	H5101	H	0.089914	0.628203	0.475712
	H5102	H	0.339388	0.580471	0.427534
	H5103	H	0.085169	0.520261	0.506321
	H5104	H	0.336480	0.517394	0.539245
	H5105	H	0.088013	0.582071	0.480281
	H5106	H	0.341627	0.625565	0.413776
	H5107	H	0.087783	0.567603	0.498058
	H5108	H	0.157781	0.582214	0.423390
	H5109	H	0.404255	0.522184	0.500889
	H5110	H	0.155187	0.569071	0.551680
	H5111	H	0.408532	0.629549	0.472621
	O5112	O	0.584833	0.614499	0.434149
	O5113	O	0.831164	0.555190	0.515890
	O5114	O	0.577711	0.533731	0.540632
	O5115	O	0.831715	0.595848	0.465457
	O5116	O	0.912038	0.554090	0.542763
	O5117	O	0.665153	0.615194	0.461824
	O5118	O	0.913257	0.594692	0.438378
	O5119	O	0.658785	0.534874	0.515870
	O5120	O	0.908794	0.533344	0.539552
	O5121	O	0.662743	0.595485	0.464798
	O5122	O	0.915511	0.614124	0.433577
	O5123	O	0.662341	0.554828	0.515153
	O5124	O	0.582122	0.595079	0.437514
	O5125	O	0.827959	0.535293	0.515005
	O5126	O	0.581000	0.554533	0.541900
	O5127	O	0.834237	0.615504	0.461228
	F5128	F	0.495342	0.545225	0.518655
	F5129	F	0.749088	0.604764	0.439791
	F5130	F	0.498914	0.605484	0.459664
	F5131	F	0.745160	0.544202	0.539027
	Al5132	Al	0.620214	0.544692	0.529003
	Al5133	Al	0.873959	0.605129	0.449786
	Al5134	Al	0.623911	0.605112	0.449681
	Al5135	Al	0.870578	0.544694	0.528934
	C5136	C	0.590310	0.629504	0.411034
	C5137	C	0.836673	0.571835	0.496628
	C5138	C	0.587403	0.514254	0.543377
	C5139	C	0.836728	0.579955	0.486626
	C5140	C	0.905456	0.571050	0.558224
	C5141	C	0.659067	0.631748	0.478098
	C5142	C	0.908984	0.577558	0.423673
	C5143	C	0.654626	0.517344	0.502335
	C5144	C	0.907355	0.513773	0.540507
	C5145	C	0.657262	0.579186	0.484910
	C5146	C	0.910654	0.628766	0.409753
	C5147	C	0.657213	0.571055	0.494922
	C5148	C	0.588334	0.578518	0.421265
	C5149	C	0.834437	0.518313	0.499662
	C5150	C	0.585282	0.572013	0.555618
	C5151	C	0.838690	0.632497	0.476305
	C5152	C	0.500607	0.625356	0.416401
	C5153	C	0.746934	0.567268	0.500812
	C5154	C	0.495985	0.519004	0.541958
	C5155	C	0.747043	0.583713	0.480628
	C5156	C	0.495623	0.567123	0.553286
	C5157	C	0.749216	0.627834	0.473241
	C5158	C	0.498250	0.582333	0.426333
	C5159	C	0.744082	0.522298	0.504418
	C5160	C	0.500494	0.617457	0.429016
	C5161	C	0.746831	0.558481	0.511422
	C5162	C	0.493820	0.529459	0.540602
	C5163	C	0.747172	0.592292	0.469469
	C5164	C	0.496117	0.557930	0.545344
	C5165	C	0.749620	0.618865	0.464785
	C5166	C	0.497744	0.591325	0.434767
	C5167	C	0.743538	0.531492	0.512338
	H5168	H	0.659757	0.626950	0.416106
	H5169	H	0.906015	0.568984	0.501213
	H5170	H	0.656269	0.518180	0.544628
	H5171	H	0.906131	0.583421	0.483397
	H5172	H	0.836092	0.567252	0.556715
	H5173	H	0.589796	0.628141	0.475888
	H5174	H	0.839359	0.580456	0.427664
	H5175	H	0.584638	0.520331	0.506093
	H5176	H	0.836492	0.517367	0.539431
	H5177	H	0.587857	0.582012	0.480263
	H5178	H	0.841082	0.625593	0.413791
	H5179	H	0.587666	0.567563	0.498092
	H5180	H	0.657465	0.582174	0.423346
	H5181	H	0.903902	0.522091	0.501237
	H5182	H	0.655352	0.568983	0.552007
	H5183	H	0.908432	0.629517	0.472614
	O5184	O	0.081042	0.617670	0.578368
	O5185	O	0.338362	0.547471	0.606822
	O5186	O	0.084867	0.524257	0.625565
	O5187	O	0.327928	0.596212	0.603072
	O5188	O	0.418817	0.544719	0.630520
	O5189	O	0.161663	0.616638	0.605176
	O5190	O	0.408998	0.597418	0.578297
	O5191	O	0.166099	0.526432	0.601413
	O5192	O	0.415515	0.523943	0.624588
	O5193	O	0.158664	0.595802	0.601923
	O5194	O	0.412192	0.617318	0.577630
	O5195	O	0.169202	0.547150	0.605743
	O5196	O	0.077941	0.597811	0.577532
	O5197	O	0.335118	0.526790	0.600782
	O5198	O	0.087199	0.545092	0.629837
	O5199	O	0.330795	0.617052	0.604324
	F5200	F	0.002325	0.536825	0.605388
	F5201	F	0.244976	0.607702	0.581162
	F5202	F	-0.004809	0.606685	0.601635
	F5203	F	0.251637	0.534631	0.626000
	Al5204	Al	0.126946	0.535727	0.615695
	Al5205	Al	0.369737	0.607199	0.591451
	Al5206	Al	0.119982	0.607183	0.591463
	Al5207	Al	0.376822	0.535718	0.615744
	C5208	C	0.086195	0.634353	0.559175
	C5209	C	0.340015	0.567041	0.605781
	C5210	C	0.093374	0.504795	0.626592
	C5211	C	0.337534	0.576733	0.605874
	C5212	C	0.412348	0.562201	0.644714
	C5213	C	0.155375	0.633681	0.620408
	C5214	C	0.404565	0.579878	0.564662
	C5215	C	0.161703	0.508730	0.587984
	C5216	C	0.413416	0.504410	0.624321
	C5217	C	0.157332	0.576294	0.603084
	C5218	C	0.407309	0.633514	0.557297
	C5219	C	0.159857	0.566593	0.603009
	C5220	C	0.084299	0.580765	0.562260
	C5221	C	0.341644	0.509422	0.586118
	C5222	C	0.091524	0.562955	0.642601
	C5223	C	0.335220	0.634538	0.618044
	C5224	C	-0.003354	0.629761	0.563308
	C5225	C	0.251275	0.561847	0.604367
	C5226	C	0.002011	0.509587	0.625989
	C5227	C	0.246117	0.581477	0.604530
	C5228	C	0.001868	0.557968	0.640551
	C5229	C	0.245667	0.629634	0.615785
	C5230	C	-0.005954	0.584760	0.567026
	C5231	C	0.251286	0.513683	0.590211
	C5232	C	-0.003372	0.620959	0.573923
	C5233	C	0.253237	0.551396	0.605709
	C5234	C	0.000634	0.520048	0.625440
	C5235	C	0.244102	0.591928	0.603115
	C5236	C	0.002416	0.548584	0.633110
	C5237	C	0.246048	0.620451	0.607841
	C5238	C	-0.006493	0.593986	0.574870
	C5239	C	0.250780	0.522983	0.597974
	H5240	H	0.155529	0.631515	0.563810
	H5241	H	0.411035	0.563461	0.606881
	H5242	H	0.162694	0.508659	0.627869
	H5243	H	0.406551	0.580651	0.607034
	H5244	H	0.342484	0.558441	0.643349
	H5245	H	0.085773	0.629953	0.618730
	H5246	H	0.334403	0.582901	0.568240
	H5247	H	0.091189	0.511896	0.591071
	H5248	H	0.342339	0.508000	0.623796
	H5249	H	0.086491	0.579892	0.601963
	H5250	H	0.337968	0.629992	0.560367
	H5251	H	0.091002	0.562651	0.601857
	H5252	H	0.153621	0.584557	0.563792
	H5253	H	0.411576	0.513143	0.587660
	H5254	H	0.162106	0.559817	0.639456
	H5255	H	0.405162	0.631524	0.614367
	O5256	O	0.580973	0.617660	0.578377
	O5257	O	0.837619	0.547478	0.606451
	O5258	O	0.584849	0.524230	0.625413
	O5259	O	0.827240	0.596156	0.603205
	O5260	O	0.917931	0.544734	0.630410
	O5261	O	0.661447	0.616617	0.605169
	O5262	O	0.908778	0.597370	0.578381
	O5263	O	0.665789	0.526433	0.601286
	O5264	O	0.915525	0.524030	0.624657
	O5265	O	0.657933	0.595800	0.602059
	O5266	O	0.912301	0.617279	0.577615
	O5267	O	0.668383	0.547121	0.605384
	O5268	O	0.578216	0.597747	0.577626
	O5269	O	0.834950	0.526769	0.600663
	O5270	O	0.587890	0.545088	0.629737
	O5271	O	0.830634	0.617024	0.604366
	F5272	F	0.501599	0.536824	0.605416
	F5273	F	0.745053	0.607650	0.581294
	F5274	F	0.494744	0.606714	0.601572
	F5275	F	0.751779	0.534643	0.625753
	Al5276	Al	0.626678	0.535731	0.615572
	Al5277	Al	0.870004	0.607153	0.591502
	Al5278	Al	0.619910	0.607171	0.591506
	Al5279	Al	0.877130	0.535750	0.615583
	C5280	C	0.586516	0.634365	0.559234
	C5281	C	0.839041	0.567012	0.605597
	C5282	C	0.593852	0.504763	0.626581
	C5283	C	0.836489	0.576700	0.605818
	C5284	C	0.911359	0.562231	0.644663
	C5285	C	0.655144	0.633611	0.620578
	C5286	C	0.904575	0.579782	0.564961
	C5287	C	0.661176	0.508703	0.588027
	C5288	C	0.912921	0.504466	0.624403
	C5289	C	0.656414	0.576271	0.602969
	C5290	C	0.907104	0.633543	0.557317
	C5291	C	0.658990	0.566577	0.602777
	C5292	C	0.584569	0.580733	0.562389
	C5293	C	0.841087	0.509404	0.586050
	C5294	C	0.592236	0.562969	0.642527
	C5295	C	0.834858	0.634563	0.617950
	C5296	C	0.496913	0.629767	0.563341
	C5297	C	0.750333	0.561832	0.604118
	C5298	C	0.502410	0.509544	0.625895
	C5299	C	0.745098	0.581450	0.604554
	C5300	C	0.502734	0.557947	0.640563
	C5301	C	0.745416	0.629615	0.615822
	C5302	C	0.494088	0.584789	0.566948
	C5303	C	0.750810	0.513660	0.590177
	C5304	C	0.496701	0.620969	0.573927
	C5305	C	0.752329	0.551381	0.605373
	C5306	C	0.500693	0.520002	0.625316
	C5307	C	0.743226	0.591901	0.603220
	C5308	C	0.503224	0.548567	0.633114
	C5309	C	0.745871	0.620417	0.607887
	C5310	C	0.493692	0.593994	0.574835
	C5311	C	0.750539	0.522973	0.597873
	H5312	H	0.655821	0.631544	0.563905
	H5313	H	0.910053	0.563445	0.606651
	H5314	H	0.663057	0.508641	0.627881
	H5315	H	0.905478	0.580615	0.607006
	H5316	H	0.841421	0.558487	0.643235
	H5317	H	0.585685	0.629849	0.619002
	H5318	H	0.834554	0.582765	0.568694
	H5319	H	0.590666	0.511874	0.591125
	H5320	H	0.841969	0.508070	0.623885
	H5321	H	0.585699	0.579884	0.601815
	H5322	H	0.837741	0.630035	0.560411
	H5323	H	0.590156	0.562634	0.601529
	H5324	H	0.654113	0.584462	0.564086
	H5325	H	0.911033	0.513136	0.587547
	H5326	H	0.662813	0.559840	0.639339
	H5327	H	0.904808	0.631572	0.614175
	O5328	O	0.087914	0.609959	0.669134
	O5329	O	0.343624	0.538098	0.688081
	O5330	O	0.089915	0.514958	0.706965
	O5331	O	0.334617	0.586750	0.687907
	O5332	O	0.423841	0.535255	0.711936
	O5333	O	0.168271	0.607270	0.692826
	O5334	O	0.415879	0.588949	0.663698
	O5335	O	0.171187	0.516958	0.682770
	O5336	O	0.420836	0.514596	0.705967
	O5337	O	0.165393	0.586458	0.686993
	O5338	O	0.418785	0.609621	0.667932
	O5339	O	0.174353	0.537816	0.687047
	O5340	O	0.084576	0.589275	0.663191
	O5341	O	0.340347	0.517292	0.682178
	O5342	O	0.092493	0.535623	0.711199
	O5343	O	0.337457	0.607615	0.692135
	F5344	F	0.007747	0.527451	0.686531
	F5345	F	0.251519	0.599319	0.667767
	F5346	F	0.001833	0.597124	0.688434
	F5347	F	0.256916	0.525239	0.707195
	Al5348	Al	0.132235	0.526354	0.696873
	Al5349	Al	0.376490	0.598233	0.678027
	Al5350	Al	0.126527	0.598217	0.678122
	Al5351	Al	0.382210	0.526327	0.696952
	C5352	C	0.089598	0.629527	0.668085
	C5353	C	0.345809	0.557620	0.688340
	C5354	C	0.099102	0.495470	0.709533
	C5355	C	0.343511	0.567278	0.689226
	C5356	C	0.417595	0.552647	0.726521
	C5357	C	0.161917	0.624762	0.707020
	C5358	C	0.411599	0.571167	0.650620
	C5359	C	0.166813	0.499125	0.669817
	C5360	C	0.419245	0.495060	0.707120
	C5361	C	0.163143	0.566927	0.686675
	C5362	C	0.409706	0.629093	0.665365
	C5363	C	0.165444	0.557264	0.685773
	C5364	C	0.090836	0.571905	0.648581
	C5365	C	0.346835	0.499799	0.668045
	C5366	C	0.096767	0.553376	0.724422
	C5367	C	0.341870	0.625466	0.705050
	C5368	C	0.000900	0.624335	0.666724
	C5369	C	0.256856	0.552493	0.686595
	C5370	C	0.007829	0.500233	0.708241
	C5371	C	0.252152	0.572059	0.688401
	C5372	C	0.007145	0.548395	0.722325
	C5373	C	0.252322	0.620493	0.702932
	C5374	C	0.000466	0.576141	0.652758
	C5375	C	0.256374	0.504080	0.672010
	C5376	C	0.002875	0.613884	0.668064
	C5377	C	0.258494	0.542039	0.687227
	C5378	C	0.005876	0.510693	0.706936
	C5379	C	0.250541	0.582516	0.687775
	C5380	C	0.007633	0.539075	0.714632
	C5381	C	0.252718	0.611108	0.695460
	C5382	C	0.000222	0.585459	0.660433
	C5383	C	0.255926	0.513461	0.679488
	H5384	H	0.160578	0.625942	0.669088
	H5385	H	0.416630	0.554005	0.689041
	H5386	H	0.168064	0.499402	0.710667
	H5387	H	0.412633	0.571162	0.690626
	H5388	H	0.347648	0.548897	0.725120
	H5389	H	0.091928	0.621041	0.705556
	H5390	H	0.341058	0.574315	0.653752
	H5391	H	0.096317	0.502300	0.672847
	H5392	H	0.348321	0.498656	0.706199
	H5393	H	0.092136	0.570528	0.685992
	H5394	H	0.340819	0.625163	0.664158
	H5395	H	0.096240	0.553391	0.684388
	H5396	H	0.160798	0.575652	0.649998
	H5397	H	0.416662	0.503525	0.669615
	H5398	H	0.167274	0.550229	0.721289
	H5399	H	0.412565	0.622337	0.701954
	O5400	O	0.588005	0.609960	0.669065
	O5401	O	0.843263	0.538146	0.687835
	O5402	O	0.590105	0.514954	0.706979
	O5403	O	0.834058	0.586736	0.688155
	O5404	O	0.923313	0.535260	0.711804
	O5405	O	0.667719	0.607222	0.692932
	O5406	O	0.915428	0.588922	0.663895
	O5407	O	0.670694	0.516995	0.682678
	O5408	O	0.920775	0.514616	0.705735
	O5409	O	0.664769	0.586475	0.687084
	O5410	O	0.918657	0.609630	0.668179
	O5411	O	0.673818	0.537849	0.686980
	O5412	O	0.585036	0.589304	0.663129
	O5413	O	0.839887	0.517295	0.682048
	O5414	O	0.592948	0.535614	0.711249
	O5415	O	0.836907	0.607595	0.692365
	F5416	F	0.507055	0.527430	0.686699
	F5417	F	0.751957	0.599316	0.667992
	F5418	F	0.501207	0.597124	0.688255
	F5419	F	0.757309	0.525262	0.706990
	Al5420	Al	0.632047	0.526358	0.696858
	Al5421	Al	0.876885	0.598199	0.678232
	Al5422	Al	0.626523	0.598227	0.678113
	Al5423	Al	0.882513	0.526356	0.696748
	C5424	C	0.589810	0.629522	0.668065
	C5425	C	0.845264	0.557642	0.688376
	C5426	C	0.599503	0.495494	0.709531
	C5427	C	0.842936	0.567292	0.689354
	C5428	C	0.916738	0.552648	0.726526
	C5429	C	0.661098	0.624759	0.707061
	C5430	C	0.910701	0.571177	0.650640
	C5431	C	0.666283	0.499125	0.669832
	C5432	C	0.918956	0.495046	0.706893
	C5433	C	0.662610	0.566964	0.686711
	C5434	C	0.909466	0.629089	0.665531
	C5435	C	0.664928	0.557303	0.685743
	C5436	C	0.591457	0.571930	0.648452
	C5437	C	0.846264	0.499810	0.668000
	C5438	C	0.597603	0.553381	0.724416
	C5439	C	0.841106	0.625428	0.705158
	C5440	C	0.501025	0.624339	0.666694
	C5441	C	0.756267	0.552525	0.686581
	C5442	C	0.508109	0.500241	0.708368
	C5443	C	0.751508	0.572074	0.688528
	C5444	C	0.507930	0.548392	0.722360
	C5445	C	0.751428	0.620454	0.703060
	C5446	C	0.501151	0.576160	0.652660
	C5447	C	0.755792	0.504100	0.671949
	C5448	C	0.502809	0.613873	0.667959
	C5449	C	0.757985	0.542078	0.687127
	C5450	C	0.506130	0.510695	0.707049
	C5451	C	0.749862	0.582528	0.687931
	C5452	C	0.508250	0.539065	0.714703
	C5453	C	0.752011	0.611065	0.695634
	C5454	C	0.500703	0.585492	0.660316
	C5455	C	0.755384	0.513485	0.679387
	H5456	H	0.660716	0.625924	0.669064
	H5457	H	0.916196	0.554019	0.689048
	H5458	H	0.668584	0.499416	0.710586
	H5459	H	0.912053	0.571167	0.690781
	H5460	H	0.846757	0.548898	0.725127
	H5461	H	0.591014	0.621060	0.705569
	H5462	H	0.840181	0.574321	0.653778
	H5463	H	0.595694	0.502288	0.672880
	H5464	H	0.848037	0.498638	0.705899
	H5465	H	0.591682	0.570575	0.686005
	H5466	H	0.840448	0.625159	0.664467
	H5467	H	0.595885	0.553436	0.684298
	H5468	H	0.661238	0.575698	0.649832
	H5469	H	0.916088	0.503549	0.669527
	H5470	H	0.668167	0.550237	0.721275
	H5471	H	0.911755	0.622283	0.702082
	O5472	O	0.092918	0.600586	0.750328
	O5473	O	0.350287	0.528749	0.772964
	O5474	O	0.096616	0.507207	0.797253
	O5475	O	0.339954	0.577415	0.769288
	O5476	O	0.430307	0.526761	0.797437
	O5477	O	0.173478	0.597800	0.774188
	O5478	O	0.421256	0.579494	0.745139
	O5479	O	0.178322	0.507579	0.770492
	O5480	O	0.427837	0.506894	0.796609
	O5481	O	0.170740	0.577099	0.768286
	O5482	O	0.423808	0.600328	0.749442
	O5483	O	0.180894	0.528402	0.771993
	O5484	O	0.090085	0.579806	0.744558
	O5485	O	0.347471	0.507961	0.769724
	O5486	O	0.099437	0.527104	0.796683
	O5487	O	0.342524	0.598107	0.773646
	F5488	F	0.014283	0.517829	0.773318
	F5489	F	0.256894	0.589928	0.749044
	F5490	F	0.007063	0.587750	0.769620
	F5491	F	0.263624	0.516862	0.793742
	Al5492	Al	0.139047	0.517367	0.783475
	Al5493	Al	0.381883	0.588846	0.759298
	Al5494	Al	0.131888	0.588825	0.759297
	Al5495	Al	0.388803	0.517379	0.783505
	C5496	C	0.095092	0.620105	0.750655
	C5497	C	0.351623	0.548288	0.771994
	C5498	C	0.101380	0.491013	0.817644
	C5499	C	0.349041	0.557984	0.772074
	C5500	C	0.423847	0.543776	0.812793
	C5501	C	0.167135	0.615179	0.788827
	C5502	C	0.416946	0.561605	0.732445
	C5503	C	0.173676	0.490069	0.756896
	C5504	C	0.422470	0.490234	0.815831
	C5505	C	0.168880	0.557540	0.769250
	C5506	C	0.414971	0.619804	0.748316
	C5507	C	0.171470	0.547843	0.769174
	C5508	C	0.096109	0.562327	0.730371
	C5509	C	0.353633	0.490943	0.754400
	C5510	C	0.103674	0.544672	0.810237
	C5511	C	0.347148	0.615834	0.787018
	C5512	C	0.006062	0.614983	0.748995
	C5513	C	0.262962	0.543104	0.770493
	C5514	C	0.011806	0.494781	0.811666
	C5515	C	0.257648	0.562728	0.770680
	C5516	C	0.014134	0.539744	0.808008
	C5517	C	0.257458	0.610893	0.784759
	C5518	C	0.005834	0.566590	0.734486
	C5519	C	0.263376	0.494972	0.759080
	C5520	C	0.007778	0.604524	0.749564
	C5521	C	0.264970	0.532654	0.771873
	C5522	C	0.012120	0.503567	0.801008
	C5523	C	0.255892	0.573175	0.769352
	C5524	C	0.014697	0.530526	0.800135
	C5525	C	0.257858	0.601586	0.777031
	C5526	C	0.005483	0.575974	0.741913
	C5527	C	0.263051	0.504171	0.767000
	H5528	H	0.166070	0.616486	0.751231
	H5529	H	0.422570	0.544707	0.773156
	H5530	H	0.170851	0.494520	0.814547
	H5531	H	0.417996	0.561922	0.773262
	H5532	H	0.354356	0.539993	0.811294
	H5533	H	0.097199	0.611462	0.787280
	H5534	H	0.346447	0.564761	0.735583
	H5535	H	0.103765	0.493105	0.760573
	H5536	H	0.353205	0.493086	0.811218
	H5537	H	0.097885	0.561124	0.768147
	H5538	H	0.345776	0.615934	0.746997
	H5539	H	0.102501	0.543912	0.768042
	H5540	H	0.165990	0.566074	0.731786
	H5541	H	0.423134	0.494699	0.755985
	H5542	H	0.173843	0.541659	0.806626
	H5543	H	0.417604	0.612647	0.783962
	O5544	O	0.593107	0.600595	0.750442
	O5545	O	0.849942	0.528747	0.772871
	O5546	O	0.596633	0.507279	0.797382
	O5547	O	0.839373	0.577396	0.769542
	O5548	O	0.930319	0.526748	0.797392
	O5549	O	0.673005	0.597782	0.774313
	O5550	O	0.920874	0.579481	0.745250
	O5551	O	0.677578	0.507538	0.770604
	O5552	O	0.927845	0.506869	0.796555
	O5553	O	0.670161	0.577081	0.768415
	O5554	O	0.923632	0.600280	0.749399
	O5555	O	0.680620	0.528361	0.771872
	O5556	O	0.590389	0.579835	0.744544
	O5557	O	0.846717	0.507939	0.769743
	O5558	O	0.599581	0.527199	0.796570
	O5559	O	0.842150	0.598157	0.773714
	F5560	F	0.513859	0.517856	0.773394
	F5561	F	0.757092	0.589887	0.749238
	F5562	F	0.506554	0.587740	0.769580
	F5563	F	0.763715	0.516899	0.793714
	Al5564	Al	0.638729	0.517386	0.783507
	Al5565	Al	0.882205	0.588823	0.759429
	Al5566	Al	0.631720	0.588836	0.759387
	Al5567	Al	0.889016	0.517365	0.783469
	C5568	C	0.595317	0.620127	0.750601
	C5569	C	0.851023	0.548275	0.771998
	C5570	C	0.601816	0.491039	0.817601
	C5571	C	0.848461	0.557968	0.772143
	C5572	C	0.923715	0.543790	0.812656
	C5573	C	0.666459	0.615189	0.788839
	C5574	C	0.916081	0.561598	0.732493
	C5575	C	0.672969	0.490058	0.756891
	C5576	C	0.922121	0.490179	0.815788
	C5577	C	0.668362	0.557525	0.769320
	C5578	C	0.914688	0.619777	0.748318
	C5579	C	0.670936	0.547832	0.769171
	C5580	C	0.596930	0.562343	0.730343
	C5581	C	0.852895	0.490939	0.754448
	C5582	C	0.603801	0.544735	0.810098
	C5583	C	0.846509	0.615844	0.786987
	C5584	C	0.506306	0.615008	0.749001
	C5585	C	0.762399	0.543085	0.770470
	C5586	C	0.512119	0.494804	0.811649
	C5587	C	0.757089	0.562710	0.770794
	C5588	C	0.514142	0.539796	0.807978
	C5589	C	0.756830	0.610901	0.784786
	C5590	C	0.506503	0.566606	0.734421
	C5591	C	0.762627	0.494964	0.759106
	C5592	C	0.507978	0.604545	0.749599
	C5593	C	0.764555	0.532635	0.771787
	C5594	C	0.512200	0.503608	0.801072
	C5595	C	0.755306	0.573161	0.769531
	C5596	C	0.514701	0.530583	0.800070
	C5597	C	0.757322	0.601595	0.777109
	C5598	C	0.506034	0.575999	0.741852
	C5599	C	0.762282	0.504141	0.767077
	H5600	H	0.666273	0.616512	0.751125
	H5601	H	0.921946	0.544690	0.773133
	H5602	H	0.671243	0.494544	0.814468
	H5603	H	0.917352	0.561898	0.773347
	H5604	H	0.854146	0.540041	0.811052
	H5605	H	0.596573	0.611458	0.787293
	H5606	H	0.845636	0.564741	0.735666
	H5607	H	0.603055	0.493086	0.760579
	H5608	H	0.852795	0.493009	0.811160
	H5609	H	0.597416	0.561116	0.768225
	H5610	H	0.845407	0.615908	0.746998
	H5611	H	0.602006	0.543896	0.767984
	H5612	H	0.666765	0.566102	0.731748
	H5613	H	0.922398	0.494691	0.756071
	H5614	H	0.673883	0.541740	0.806389
	H5615	H	0.916998	0.612663	0.783927
	O5616	O	0.100036	0.591241	0.835500
	O5617	O	0.346156	0.529070	0.910228
	O5618	O	0.093037	0.510405	0.941333
	O5619	O	0.346540	0.569757	0.859900
	O5620	O	0.426775	0.529483	0.937382
	O5621	O	0.180257	0.589252	0.859935
	O5622	O	0.427710	0.570013	0.833130
	O5623	O	0.174627	0.509030	0.913775
	O5624	O	0.424296	0.510066	0.940861
	O5625	O	0.177773	0.569374	0.859078
	O5626	O	0.430713	0.590877	0.834440
	O5627	O	0.177090	0.528664	0.909454
	O5628	O	0.096928	0.570430	0.832248
	O5629	O	0.343764	0.509391	0.913026
	O5630	O	0.095959	0.529855	0.936544
	O5631	O	0.349336	0.589640	0.859165
	F5632	F	0.010246	0.519053	0.915279
	F5633	F	0.263816	0.580354	0.835904
	F5634	F	0.013454	0.579311	0.856257
	F5635	F	0.260012	0.519752	0.935173
	Al5636	Al	0.135218	0.519425	0.925211
	Al5637	Al	0.388661	0.579869	0.845980
	Al5638	Al	0.138742	0.579854	0.845995
	Al5639	Al	0.385193	0.519412	0.925267
	C5640	C	0.101386	0.610773	0.834374
	C5641	C	0.351636	0.545412	0.890199
	C5642	C	0.097860	0.495793	0.965179
	C5643	C	0.351626	0.553553	0.880222
	C5644	C	0.420518	0.546036	0.953614
	C5645	C	0.173929	0.606326	0.875133
	C5646	C	0.423270	0.552495	0.819550
	C5647	C	0.170015	0.492056	0.898641
	C5648	C	0.418745	0.495056	0.964014
	C5649	C	0.172313	0.552653	0.878207
	C5650	C	0.421186	0.610345	0.831882
	C5651	C	0.172355	0.544520	0.888188
	C5652	C	0.103022	0.553415	0.816935
	C5653	C	0.349586	0.492830	0.896769
	C5654	C	0.100360	0.546950	0.951400
	C5655	C	0.353825	0.607168	0.872810
	C5656	C	0.012650	0.605587	0.832924
	C5657	C	0.261940	0.540834	0.894371
	C5658	C	0.008175	0.499211	0.958625
	C5659	C	0.261917	0.557287	0.874181
	C5660	C	0.010934	0.542188	0.948642
	C5661	C	0.264232	0.602260	0.870514
	C5662	C	0.012757	0.557441	0.821611
	C5663	C	0.259628	0.496716	0.901674
	C5664	C	0.014707	0.595127	0.834314
	C5665	C	0.261704	0.532241	0.905509
	C5666	C	0.008435	0.507124	0.945992
	C5667	C	0.262075	0.566092	0.863598
	C5668	C	0.011362	0.533202	0.940197
	C5669	C	0.264619	0.593050	0.862629
	C5670	C	0.012476	0.566633	0.829544
	C5671	C	0.259295	0.505686	0.910148
	H5672	H	0.172410	0.607195	0.835451
	H5673	H	0.420946	0.542610	0.894920
	H5674	H	0.167397	0.498948	0.961124
	H5675	H	0.420973	0.557095	0.877179
	H5676	H	0.351386	0.542378	0.951523
	H5677	H	0.104320	0.602589	0.873485
	H5678	H	0.353297	0.555462	0.823349
	H5679	H	0.100421	0.495044	0.902354
	H5680	H	0.349254	0.497617	0.958968
	H5681	H	0.102830	0.555443	0.873492
	H5682	H	0.352173	0.606417	0.830848
	H5683	H	0.102805	0.540979	0.891224
	H5684	H	0.172571	0.557167	0.818522
	H5685	H	0.418745	0.496446	0.898938
	H5686	H	0.169974	0.544051	0.947434
	H5687	H	0.423981	0.604131	0.869246
	O5688	O	0.599968	0.591253	0.835446
	O5689	O	0.845719	0.529051	0.910130
	O5690	O	0.593188	0.510389	0.941361
	O5691	O	0.846245	0.569740	0.859860
	O5692	O	0.926933	0.529503	0.937354
	O5693	O	0.680030	0.589250	0.859924
	O5694	O	0.927790	0.570060	0.833003
	O5695	O	0.674411	0.509047	0.913738
	O5696	O	0.924101	0.510080	0.940880
	O5697	O	0.677452	0.569373	0.859042
	O5698	O	0.930684	0.590856	0.834417
	O5699	O	0.676726	0.528726	0.909588
	O5700	O	0.596809	0.570480	0.832155
	O5701	O	0.843439	0.509366	0.913038
	O5702	O	0.595859	0.529860	0.936588
	O5703	O	0.849115	0.589641	0.859216
	F5704	F	0.510301	0.519055	0.915334
	F5705	F	0.763848	0.580347	0.835961
	F5706	F	0.513416	0.579339	0.856238
	F5707	F	0.760062	0.519788	0.935166
	Al5708	Al	0.635207	0.519420	0.925257
	Al5709	Al	0.889063	0.579843	0.846072
	Al5710	Al	0.638638	0.579866	0.845965
	Al5711	Al	0.885242	0.519424	0.925223
	C5712	C	0.601415	0.610799	0.834422
	C5713	C	0.851051	0.545431	0.890217
	C5714	C	0.598230	0.495802	0.965209
	C5715	C	0.851047	0.553567	0.880227
	C5716	C	0.920799	0.546023	0.953679
	C5717	C	0.673292	0.606311	0.875079
	C5718	C	0.923073	0.552527	0.819377
	C5719	C	0.669933	0.492026	0.898615
	C5720	C	0.918382	0.495068	0.963990
	C5721	C	0.671904	0.552667	0.878223
	C5722	C	0.921104	0.610341	0.831721
	C5723	C	0.671886	0.544537	0.888215
	C5724	C	0.603108	0.553461	0.816830
	C5725	C	0.849468	0.492822	0.896807
	C5726	C	0.600167	0.546958	0.951384
	C5727	C	0.853260	0.607162	0.872837
	C5728	C	0.512680	0.605595	0.833043
	C5729	C	0.761412	0.540829	0.894337
	C5730	C	0.508517	0.499207	0.958650
	C5731	C	0.761437	0.557288	0.874146
	C5732	C	0.510688	0.542202	0.948599
	C5733	C	0.763660	0.602256	0.870492
	C5734	C	0.512818	0.557451	0.821628
	C5735	C	0.759317	0.496719	0.901615
	C5736	C	0.514651	0.595148	0.834357
	C5737	C	0.761268	0.532249	0.905496
	C5738	C	0.508627	0.507117	0.946034
	C5739	C	0.761699	0.566083	0.863547
	C5740	C	0.511210	0.533200	0.940213
	C5741	C	0.764333	0.593046	0.862653
	C5742	C	0.512492	0.566638	0.829568
	C5743	C	0.758921	0.505683	0.910117
	H5744	H	0.672433	0.607222	0.835443
	H5745	H	0.920456	0.542649	0.894984
	H5746	H	0.667835	0.498972	0.961163
	H5747	H	0.920424	0.557120	0.877203
	H5748	H	0.851655	0.542362	0.951605
	H5749	H	0.603742	0.602584	0.873384
	H5750	H	0.853010	0.555543	0.823027
	H5751	H	0.600318	0.494984	0.902391
	H5752	H	0.848984	0.497640	0.958937
	H5753	H	0.602548	0.555472	0.873548
	H5754	H	0.852031	0.606410	0.830620
	H5755	H	0.602490	0.541025	0.891309
	H5756	H	0.672609	0.557227	0.818333
	H5757	H	0.918570	0.496418	0.899066
	H5758	H	0.669768	0.544040	0.947437
	H5759	H	0.923530	0.604135	0.869278
	O5760	O	0.100129	0.716242	-0.039487
	O5761	O	0.345983	0.653982	0.035006
	O5762	O	0.093373	0.635412	0.066384
	O5763	O	0.346765	0.694664	-0.015331
	O5764	O	0.426609	0.654509	0.062299
	O5765	O	0.180461	0.714250	-0.015075
	O5766	O	0.428034	0.695077	-0.041990
	O5767	O	0.174726	0.634070	0.038706
	O5768	O	0.424223	0.635046	0.065834
	O5769	O	0.177887	0.694423	-0.015792
	O5770	O	0.430807	0.715886	-0.040485
	O5771	O	0.176945	0.653739	0.034604
	O5772	O	0.097123	0.695451	-0.042758
	O5773	O	0.343723	0.634357	0.038062
	O5774	O	0.095825	0.654829	0.061770
	O5775	O	0.349522	0.714635	-0.015827
	F5776	F	0.010488	0.644062	0.040302
	F5777	F	0.263867	0.705359	-0.039076
	F5778	F	0.013453	0.704358	-0.018723
	F5779	F	0.260001	0.644775	0.060167
	Al5780	Al	0.135295	0.644427	0.050255
	Al5781	Al	0.388723	0.704871	-0.028990
	Al5782	Al	0.138774	0.704874	-0.028996
	Al5783	Al	0.385144	0.644424	0.050233
	C5784	C	0.101663	0.735780	-0.040605
	C5785	C	0.351532	0.670203	0.014643
	C5786	C	0.097862	0.620960	0.090541
	C5787	C	0.351757	0.678334	0.004636
	C5788	C	0.420704	0.671189	0.078230
	C5789	C	0.174214	0.731332	0.000066
	C5790	C	0.423421	0.677588	-0.055688
	C5791	C	0.170171	0.617095	0.023481
	C5792	C	0.419105	0.619924	0.088735
	C5793	C	0.172226	0.677875	0.003773
	C5794	C	0.421715	0.735353	-0.043166
	C5795	C	0.172007	0.669757	0.013779
	C5796	C	0.103024	0.678434	-0.058116
	C5797	C	0.349826	0.617728	0.022024
	C5798	C	0.100073	0.671827	0.076830
	C5799	C	0.354003	0.732140	-0.002196
	C5800	C	0.012912	0.730599	-0.041991
	C5801	C	0.261747	0.665824	0.019324
	C5802	C	0.008325	0.624201	0.083612
	C5803	C	0.261966	0.682291	-0.000821
	C5804	C	0.010528	0.667218	0.073651
	C5805	C	0.264364	0.727247	-0.004523
	C5806	C	0.012927	0.682479	-0.053401
	C5807	C	0.259718	0.621707	0.026639
	C5808	C	0.014874	0.720147	-0.040626
	C5809	C	0.261579	0.657243	0.030488
	C5810	C	0.008791	0.632105	0.070964
	C5811	C	0.262200	0.691076	-0.011452
	C5812	C	0.011198	0.658213	0.065241
	C5813	C	0.264821	0.718037	-0.012366
	C5814	C	0.012617	0.691668	-0.045470
	C5815	C	0.259211	0.630688	0.035108
	H5816	H	0.172523	0.732187	-0.039584
	H5817	H	0.420979	0.667238	0.018944
	H5818	H	0.167274	0.624269	0.086757
	H5819	H	0.421242	0.681687	0.001104
	H5820	H	0.351519	0.667655	0.075818
	H5821	H	0.104440	0.727640	-0.001602
	H5822	H	0.353479	0.680627	-0.052067
	H5823	H	0.100616	0.620128	0.027108
	H5824	H	0.349684	0.622367	0.083475
	H5825	H	0.102766	0.680856	-0.000469
	H5826	H	0.352724	0.731431	-0.044233
	H5827	H	0.102406	0.666433	0.017362
	H5828	H	0.172581	0.682171	-0.056527
	H5829	H	0.418967	0.621270	0.024446
	H5830	H	0.169790	0.668808	0.073224
	H5831	H	0.424126	0.729107	-0.005736
	O5832	O	0.600058	0.716237	-0.039491
	O5833	O	0.845703	0.653972	0.034987
	O5834	O	0.593096	0.635466	0.066398
	O5835	O	0.846548	0.694700	-0.015261
	O5836	O	0.926794	0.654542	0.062290
	O5837	O	0.680250	0.714274	-0.015016
	O5838	O	0.927972	0.695083	-0.041939
	O5839	O	0.674272	0.634059	0.038710
	O5840	O	0.924616	0.635067	0.065787
	O5841	O	0.677779	0.694452	-0.015762
	O5842	O	0.930840	0.715870	-0.040605
	O5843	O	0.676663	0.653731	0.034582
	O5844	O	0.597226	0.695438	-0.042670
	O5845	O	0.843355	0.634352	0.038125
	O5846	O	0.595738	0.654831	0.061656
	O5847	O	0.849436	0.714702	-0.015826
	F5848	F	0.510230	0.644057	0.040316
	F5849	F	0.763859	0.705372	-0.039044
	F5850	F	0.513441	0.704366	-0.018726
	F5851	F	0.760188	0.644796	0.060137
	Al5852	Al	0.635116	0.644427	0.050238
	Al5853	Al	0.889111	0.704884	-0.028934
	Al5854	Al	0.638822	0.704884	-0.028936
	Al5855	Al	0.885423	0.644419	0.050184
	C5856	C	0.601768	0.735772	-0.040529
	C5857	C	0.851288	0.670189	0.014659
	C5858	C	0.598306	0.620957	0.090463
	C5859	C	0.851398	0.678333	0.004676
	C5860	C	0.920398	0.671188	0.078286
	C5861	C	0.673799	0.731314	0.000210
	C5862	C	0.923282	0.677557	-0.055573
	C5863	C	0.669714	0.617110	0.023490
	C5864	C	0.918517	0.619937	0.088735
	C5865	C	0.672078	0.677896	0.003826
	C5866	C	0.921594	0.735366	-0.043236
	C5867	C	0.671957	0.669762	0.013792
	C5868	C	0.603230	0.678388	-0.057925
	C5869	C	0.849289	0.617776	0.021965
	C5870	C	0.600150	0.671813	0.076772
	C5871	C	0.853587	0.732220	-0.002297
	C5872	C	0.513058	0.730591	-0.041952
	C5873	C	0.761551	0.665799	0.019297
	C5874	C	0.508690	0.624211	0.083618
	C5875	C	0.761773	0.682301	-0.000807
	C5876	C	0.510682	0.667186	0.073662
	C5877	C	0.764069	0.727289	-0.004495
	C5878	C	0.513102	0.682477	-0.053390
	C5879	C	0.759289	0.621721	0.026676
	C5880	C	0.514829	0.720139	-0.040594
	C5881	C	0.761276	0.657219	0.030447
	C5882	C	0.508662	0.632128	0.071019
	C5883	C	0.762004	0.691097	-0.011419
	C5884	C	0.511087	0.658195	0.065230
	C5885	C	0.764606	0.718081	-0.012339
	C5886	C	0.512812	0.691652	-0.045424
	C5887	C	0.758869	0.630692	0.035152
	H5888	H	0.672657	0.732181	-0.039459
	H5889	H	0.920672	0.667217	0.018966
	H5890	H	0.667656	0.624262	0.086640
	H5891	H	0.920941	0.681696	0.001161
	H5892	H	0.851229	0.667637	0.075868
	H5893	H	0.604211	0.727571	-0.001371
	H5894	H	0.853417	0.680573	-0.051854
	H5895	H	0.600140	0.620131	0.027116
	H5896	H	0.849231	0.622399	0.083443
	H5897	H	0.602687	0.680885	-0.000364
	H5898	H	0.852647	0.731441	-0.044381
	H5899	H	0.602457	0.666457	0.017367
	H5900	H	0.672839	0.682083	-0.056195
	H5901	H	0.918453	0.621326	0.024310
	H5902	H	0.669737	0.668787	0.073144
	H5903	H	0.923774	0.729219	-0.005925
	O5904	O	0.096238	0.716571	0.097770
	O5905	O	0.342303	0.661010	0.187727
	O5906	O	0.089555	0.643052	0.220178
	O5907	O	0.343335	0.697900	0.128927
	O5908	O	0.423073	0.662011	0.215532
	O5909	O	0.177113	0.716956	0.124981
	O5910	O	0.424705	0.696537	0.101259
	O5911	O	0.170931	0.641340	0.192587
	O5912	O	0.420593	0.642753	0.219761
	O5913	O	0.174468	0.697525	0.128332
	O5914	O	0.427126	0.716157	0.097025
	O5915	O	0.173389	0.660624	0.187150
	O5916	O	0.093622	0.696867	0.100653
	O5917	O	0.339991	0.641684	0.191808
	O5918	O	0.092214	0.662384	0.214730
	O5919	O	0.346138	0.717354	0.124066
	F5920	F	0.006729	0.651321	0.193800
	F5921	F	0.260113	0.706547	0.102872
	F5922	F	0.010117	0.707296	0.122754
	F5923	F	0.256257	0.652373	0.213506
	Al5924	Al	0.131530	0.651840	0.203677
	Al5925	Al	0.385173	0.706904	0.112714
	Al5926	Al	0.135358	0.706917	0.112811
	Al5927	Al	0.381446	0.651846	0.203683
	C5928	C	0.101626	0.732931	0.077765
	C5929	C	0.347920	0.675952	0.164540
	C5930	C	0.094225	0.628681	0.244510
	C5931	C	0.348010	0.683321	0.152835
	C5932	C	0.417013	0.678469	0.232039
	C5933	C	0.170809	0.733562	0.141073
	C5934	C	0.420279	0.679618	0.085934
	C5935	C	0.166520	0.624415	0.177300
	C5936	C	0.415080	0.628090	0.243546
	C5937	C	0.168691	0.682533	0.151475
	C5938	C	0.422366	0.731951	0.075620
	C5939	C	0.168619	0.675171	0.163169
	C5940	C	0.099421	0.680252	0.084541
	C5941	C	0.346143	0.625185	0.175446
	C5942	C	0.096696	0.679361	0.229913
	C5943	C	0.350264	0.734448	0.138972
	C5944	C	0.011942	0.728304	0.081846
	C5945	C	0.258220	0.671786	0.169814
	C5946	C	0.004747	0.632104	0.237946
	C5947	C	0.258469	0.686702	0.146179
	C5948	C	0.007240	0.674655	0.226967
	C5949	C	0.260963	0.729684	0.136183
	C5950	C	0.009313	0.684238	0.089136
	C5951	C	0.256003	0.629055	0.180366
	C5952	C	0.011805	0.719722	0.093058
	C5953	C	0.257926	0.663913	0.182498
	C5954	C	0.005066	0.639843	0.224971
	C5955	C	0.258788	0.694594	0.133543
	C5956	C	0.007634	0.665715	0.218381
	C5957	C	0.261545	0.720690	0.127745
	C5958	C	0.009179	0.693200	0.097692
	C5959	C	0.255499	0.638005	0.188909
	H5960	H	0.171026	0.730167	0.082566
	H5961	H	0.417303	0.673424	0.169664
	H5962	H	0.163710	0.631724	0.240240
	H5963	H	0.417517	0.686518	0.148849
	H5964	H	0.347963	0.674818	0.229899
	H5965	H	0.101665	0.729927	0.138917
	H5966	H	0.350821	0.682645	0.089543
	H5967	H	0.096958	0.627367	0.181133
	H5968	H	0.345798	0.630668	0.238513
	H5969	H	0.099379	0.685079	0.146360
	H5970	H	0.352937	0.728384	0.078593
	H5971	H	0.099089	0.671978	0.167168
	H5972	H	0.168666	0.683785	0.086981
	H5973	H	0.415277	0.628771	0.177758
	H5974	H	0.166290	0.676455	0.225964
	H5975	H	0.419843	0.731529	0.135072
	O5976	O	0.596170	0.716539	0.097678
	O5977	O	0.842369	0.661021	0.187683
	O5978	O	0.589465	0.643057	0.220182
	O5979	O	0.843394	0.697894	0.128908
	O5980	O	0.923270	0.662030	0.215473
	O5981	O	0.676636	0.717005	0.124893
	O5982	O	0.924654	0.696568	0.101282
	O5983	O	0.670683	0.641323	0.192529
	O5984	O	0.920801	0.642729	0.219698
	O5985	O	0.674398	0.697557	0.128374
	O5986	O	0.927313	0.716150	0.097036
	O5987	O	0.673471	0.660654	0.187183
	O5988	O	0.593705	0.696860	0.100620
	O5989	O	0.839804	0.641656	0.191813
	O5990	O	0.592200	0.662388	0.214682
	O5991	O	0.845832	0.717352	0.124189
	F5992	F	0.506623	0.651342	0.193832
	F5993	F	0.760457	0.706559	0.102895
	F5994	F	0.509944	0.707249	0.122721
	F5995	F	0.756544	0.652338	0.213498
	Al5996	Al	0.631610	0.651845	0.203682
	Al5997	Al	0.885460	0.706932	0.112825
	Al5998	Al	0.635038	0.706915	0.112755
	Al5999	Al	0.881718	0.651830	0.203626
	C6000	C	0.601643	0.732926	0.077827
	C6001	C	0.847829	0.675990	0.164505
	C6002	C	0.594334	0.628713	0.244503
	C6003	C	0.848056	0.683363	0.152808
	C6004	C	0.917211	0.678450	0.232071
	C6005	C	0.670618	0.733564	0.141068
	C6006	C	0.919783	0.679610	0.086000
	C6007	C	0.666441	0.624357	0.177300
	C6008	C	0.915080	0.628076	0.243551
	C6009	C	0.668720	0.682506	0.151382
	C6010	C	0.922251	0.732013	0.075660
	C6011	C	0.668504	0.675142	0.163068
	C6012	C	0.599729	0.680243	0.084475
	C6013	C	0.845952	0.625229	0.175320
	C6014	C	0.596644	0.679361	0.229858
	C6015	C	0.850416	0.734398	0.138988
	C6016	C	0.511938	0.728296	0.081904
	C6017	C	0.758093	0.671795	0.169767
	C6018	C	0.504838	0.632086	0.237892
	C6019	C	0.758500	0.686696	0.146118
	C6020	C	0.507102	0.674673	0.226907
	C6021	C	0.760801	0.729689	0.136122
	C6022	C	0.509773	0.684201	0.089181
	C6023	C	0.755789	0.629050	0.180309
	C6024	C	0.511665	0.719724	0.093039
	C6025	C	0.757938	0.663942	0.182484
	C6026	C	0.504928	0.639838	0.224978
	C6027	C	0.758762	0.694612	0.133537
	C6028	C	0.507575	0.665700	0.218424
	C6029	C	0.761116	0.720704	0.127742
	C6030	C	0.509327	0.693172	0.097683
	C6031	C	0.755289	0.637988	0.188873
	H6032	H	0.671120	0.730173	0.082624
	H6033	H	0.917200	0.673474	0.169666
	H6034	H	0.663705	0.631799	0.240265
	H6035	H	0.917550	0.686590	0.148887
	H6036	H	0.848136	0.674801	0.229922
	H6037	H	0.601344	0.729939	0.138899
	H6038	H	0.850260	0.682632	0.089656
	H6039	H	0.596748	0.627266	0.181184
	H6040	H	0.845855	0.630630	0.238470
	H6041	H	0.599407	0.685043	0.146259
	H6042	H	0.852750	0.728478	0.078732
	H6043	H	0.599033	0.671926	0.167032
	H6044	H	0.668965	0.683782	0.086872
	H6045	H	0.914982	0.628853	0.177557
	H6046	H	0.666130	0.676435	0.225905
	H6047	H	0.920181	0.731473	0.135108
	O6048	O	0.092215	0.723545	0.250260
	O6049	O	0.338466	0.669311	0.342760
	O6050	O	0.085399	0.651367	0.375215
	O6051	O	0.339440	0.705575	0.282690
	O6052	O	0.418874	0.670373	0.370651
	O6053	O	0.173182	0.724521	0.278028
	O6054	O	0.421111	0.703790	0.255153
	O6055	O	0.166971	0.649683	0.347703
	O6056	O	0.416858	0.651059	0.374797
	O6057	O	0.170594	0.705174	0.282104
	O6058	O	0.423568	0.723181	0.249693
	O6059	O	0.169601	0.668966	0.342252
	O6060	O	0.089623	0.704179	0.254325
	O6061	O	0.336057	0.649994	0.347025
	O6062	O	0.088710	0.670761	0.369870
	O6063	O	0.342255	0.724915	0.277119
	F6064	F	0.002868	0.659715	0.348894
	F6065	F	0.256698	0.713808	0.256313
	F6066	F	0.006516	0.714872	0.276043
	F6067	F	0.252454	0.660709	0.368649
	Al6068	Al	0.127616	0.660205	0.358816
	Al6069	Al	0.381575	0.714356	0.266187
	Al6070	Al	0.131524	0.714359	0.266112
	Al6071	Al	0.377611	0.660190	0.358812
	C6072	C	0.097848	0.738498	0.226989
	C6073	C	0.344148	0.684115	0.319200
	C6074	C	0.090288	0.636853	0.399226
	C6075	C	0.344307	0.691340	0.307231
	C6076	C	0.413166	0.686881	0.386997
	C6077	C	0.167222	0.740976	0.294532
	C6078	C	0.416516	0.686838	0.239918
	C6079	C	0.162543	0.632835	0.332148
	C6080	C	0.411158	0.636116	0.398017
	C6081	C	0.164919	0.690456	0.305805
	C6082	C	0.418713	0.737645	0.225562
	C6083	C	0.164713	0.683230	0.317782
	C6084	C	0.095975	0.687734	0.237785
	C6085	C	0.342190	0.633431	0.330916
	C6086	C	0.092625	0.687695	0.385206
	C6087	C	0.346747	0.741863	0.292401
	C6088	C	0.008172	0.734310	0.232287
	C6089	C	0.254454	0.679959	0.324588
	C6090	C	0.000659	0.640226	0.392585
	C6091	C	0.254704	0.694581	0.300367
	C6092	C	0.003258	0.683028	0.382115
	C6093	C	0.257326	0.737167	0.289452
	C6094	C	0.005765	0.691540	0.242847
	C6095	C	0.251989	0.637393	0.335514
	C6096	C	0.007887	0.726456	0.245020
	C6097	C	0.254151	0.672210	0.337497
	C6098	C	0.000766	0.648107	0.379901
	C6099	C	0.254937	0.702311	0.287414
	C6100	C	0.004066	0.674093	0.373527
	C6101	C	0.257694	0.728232	0.280858
	C6102	C	0.005235	0.700495	0.251395
	C6103	C	0.251556	0.646332	0.344071
	H6104	H	0.167196	0.735986	0.232144
	H6105	H	0.413621	0.681685	0.324448
	H6106	H	0.159800	0.640017	0.395170
	H6107	H	0.413838	0.694516	0.303188
	H6108	H	0.344195	0.683301	0.384666
	H6109	H	0.098123	0.737345	0.292346
	H6110	H	0.346995	0.689741	0.243894
	H6111	H	0.092885	0.635846	0.335760
	H6112	H	0.341858	0.638667	0.392905
	H6113	H	0.095475	0.692917	0.300555
	H6114	H	0.349328	0.734410	0.229493
	H6115	H	0.095170	0.680063	0.321881
	H6116	H	0.165047	0.691369	0.239987
	H6117	H	0.411431	0.636920	0.333501
	H6118	H	0.162167	0.684765	0.381360
	H6119	H	0.416410	0.738961	0.288448
	O6120	O	0.592438	0.723517	0.250169
	O6121	O	0.838050	0.669381	0.342777
	O6122	O	0.585845	0.651343	0.375187
	O6123	O	0.839659	0.705580	0.282684
	O6124	O	0.919759	0.670412	0.370555
	O6125	O	0.673302	0.724546	0.277965
	O6126	O	0.920712	0.703827	0.255071
	O6127	O	0.667056	0.649743	0.347592
	O6128	O	0.916462	0.651037	0.374720
	O6129	O	0.670711	0.705240	0.282181
	O6130	O	0.923455	0.723148	0.249652
	O6131	O	0.668988	0.669014	0.342205
	O6132	O	0.590128	0.704189	0.254282
	O6133	O	0.836087	0.649992	0.347094
	O6134	O	0.587829	0.670718	0.369873
	O6135	O	0.842375	0.724899	0.277267
	F6136	F	0.502537	0.659658	0.348950
	F6137	F	0.756846	0.713840	0.256339
	F6138	F	0.506598	0.714883	0.276013
	F6139	F	0.752535	0.660788	0.368600
	Al6140	Al	0.627545	0.660208	0.358771
	Al6141	Al	0.881802	0.714357	0.266210
	Al6142	Al	0.631765	0.714366	0.266146
	Al6143	Al	0.877786	0.660238	0.358733
	C6144	C	0.597937	0.738498	0.226998
	C6145	C	0.844038	0.684083	0.319160
	C6146	C	0.590458	0.636867	0.399298
	C6147	C	0.844251	0.691304	0.307191
	C6148	C	0.913051	0.686857	0.387097
	C6149	C	0.667058	0.740982	0.294525
	C6150	C	0.916428	0.686822	0.239942
	C6151	C	0.662775	0.632817	0.332183
	C6152	C	0.910877	0.636124	0.398029
	C6153	C	0.664810	0.690466	0.305715
	C6154	C	0.918642	0.737673	0.225565
	C6155	C	0.664576	0.683233	0.317678
	C6156	C	0.596071	0.687734	0.237739
	C6157	C	0.842097	0.633466	0.330825
	C6158	C	0.592529	0.687642	0.385171
	C6159	C	0.846744	0.741880	0.292445
	C6160	C	0.508257	0.734312	0.232316
	C6161	C	0.754093	0.679979	0.324560
	C6162	C	0.500914	0.640258	0.392673
	C6163	C	0.754720	0.694590	0.300336
	C6164	C	0.503032	0.682996	0.382096
	C6165	C	0.757221	0.737192	0.289420
	C6166	C	0.506045	0.691543	0.242819
	C6167	C	0.752074	0.637402	0.335529
	C6168	C	0.508106	0.726460	0.245000
	C6169	C	0.753648	0.672250	0.337484
	C6170	C	0.501254	0.648102	0.379933
	C6171	C	0.755086	0.702351	0.287453
	C6172	C	0.503303	0.674070	0.373516
	C6173	C	0.757718	0.728241	0.280879
	C6174	C	0.505696	0.700489	0.251392
	C6175	C	0.751601	0.646344	0.344084
	H6176	H	0.667394	0.735973	0.232114
	H6177	H	0.913359	0.681621	0.324405
	H6178	H	0.659880	0.640031	0.395244
	H6179	H	0.914003	0.694466	0.303157
	H6180	H	0.843920	0.683241	0.384837
	H6181	H	0.597867	0.737349	0.292355
	H6182	H	0.846850	0.689713	0.243923
	H6183	H	0.593111	0.635819	0.335775
	H6184	H	0.841584	0.638706	0.392978
	H6185	H	0.595484	0.692933	0.300453
	H6186	H	0.849119	0.734462	0.229536
	H6187	H	0.595050	0.680056	0.321721
	H6188	H	0.665265	0.691360	0.239915
	H6189	H	0.911323	0.636987	0.333290
	H6190	H	0.661987	0.684694	0.381325
	H6191	H	0.916487	0.738965	0.288552
	O6192	O	0.088149	0.731799	0.405261
	O6193	O	0.334535	0.676967	0.496591
	O6194	O	0.082036	0.658366	0.527930
	O6195	O	0.335371	0.713787	0.437650
	O6196	O	0.415300	0.677667	0.524432
	O6197	O	0.168682	0.732936	0.432980
	O6198	O	0.417071	0.712156	0.410245
	O6199	O	0.163114	0.657204	0.500899
	O6200	O	0.412887	0.657997	0.527281
	O6201	O	0.166423	0.713551	0.437334
	O6202	O	0.419352	0.731487	0.404815
	O6203	O	0.165612	0.676678	0.496159
	O6204	O	0.085934	0.712488	0.409565
	O6205	O	0.332153	0.657559	0.500106
	O6206	O	0.084610	0.678012	0.523738
	O6207	O	0.337614	0.733185	0.432479
	F6208	F	-0.001128	0.667263	0.502269
	F6209	F	0.252544	0.722155	0.411476
	F6210	F	0.002213	0.723226	0.431169
	F6211	F	0.248775	0.668029	0.522162
	Al6212	Al	0.123830	0.667634	0.512238
	Al6213	Al	0.377398	0.722670	0.421326
	Al6214	Al	0.127326	0.722692	0.421313
	Al6215	Al	0.373692	0.667638	0.512197
	C6216	C	0.093968	0.746604	0.381715
	C6217	C	0.340067	0.691859	0.473238
	C6218	C	0.086340	0.642489	0.549172
	C6219	C	0.340191	0.699200	0.461524
	C6220	C	0.409133	0.694255	0.540569
	C6221	C	0.162753	0.749493	0.449182
	C6222	C	0.412626	0.695250	0.394889
	C6223	C	0.158612	0.640197	0.485775
	C6224	C	0.407434	0.641647	0.547282
	C6225	C	0.160585	0.698738	0.460803
	C6226	C	0.414842	0.745705	0.380223
	C6227	C	0.160451	0.691378	0.472546
	C6228	C	0.091833	0.696056	0.393099
	C6229	C	0.338189	0.640935	0.484078
	C6230	C	0.088848	0.695022	0.538863
	C6231	C	0.342179	0.750027	0.448037
	C6232	C	0.004149	0.742453	0.387087
	C6233	C	0.250271	0.687868	0.478906
	C6234	C	-0.003053	0.646242	0.543117
	C6235	C	0.250566	0.702741	0.455191
	C6236	C	-0.000589	0.690337	0.535869
	C6237	C	0.252693	0.745463	0.444637
	C6238	C	0.001705	0.699895	0.398029
	C6239	C	0.248021	0.644855	0.488848
	C6240	C	0.003914	0.734676	0.399947
	C6241	C	0.250191	0.679965	0.491516
	C6242	C	-0.002582	0.654818	0.531933
	C6243	C	0.250802	0.710577	0.442443
	C6244	C	-0.000030	0.681383	0.527318
	C6245	C	0.253107	0.736568	0.436037
	C6246	C	0.001390	0.708837	0.406592
	C6247	C	0.247698	0.653853	0.497262
	H6248	H	0.163375	0.744139	0.386961
	H6249	H	0.409711	0.689191	0.478050
	H6250	H	0.155791	0.645962	0.546000
	H6251	H	0.409975	0.702218	0.457244
	H6252	H	0.340014	0.690661	0.538273
	H6253	H	0.093443	0.746037	0.446556
	H6254	H	0.343363	0.698202	0.398758
	H6255	H	0.088954	0.643165	0.489493
	H6256	H	0.338186	0.644447	0.542547
	H6257	H	0.091232	0.701410	0.455889
	H6258	H	0.345320	0.742539	0.384279
	H6259	H	0.090890	0.688302	0.476806
	H6260	H	0.160893	0.699654	0.395412
	H6261	H	0.407325	0.644513	0.486396
	H6262	H	0.158421	0.692066	0.535069
	H6263	H	0.411798	0.747010	0.444492
	O6264	O	0.588311	0.731798	0.405268
	O6265	O	0.834146	0.676957	0.496543
	O6266	O	0.581941	0.658346	0.527924
	O6267	O	0.835617	0.713832	0.437714
	O6268	O	0.915588	0.677728	0.524289
	O6269	O	0.668815	0.732912	0.433052
	O6270	O	0.916930	0.712207	0.410182
	O6271	O	0.662963	0.657230	0.500774
	O6272	O	0.913175	0.658033	0.527283
	O6273	O	0.666669	0.713580	0.437370
	O6274	O	0.919323	0.731456	0.404699
	O6275	O	0.665234	0.676721	0.496247
	O6276	O	0.586075	0.712485	0.409515
	O6277	O	0.832118	0.657499	0.500176
	O6278	O	0.584331	0.678002	0.523721
	O6279	O	0.837935	0.733178	0.432511
	F6280	F	0.498822	0.667263	0.502296
	F6281	F	0.752574	0.722204	0.411445
	F6282	F	0.502204	0.723198	0.431168
	F6283	F	0.748766	0.667987	0.522096
	Al6284	Al	0.623672	0.667631	0.512242
	Al6285	Al	0.877480	0.722708	0.421310
	Al6286	Al	0.627401	0.722703	0.421328
	Al6287	Al	0.873964	0.667619	0.512167
	C6288	C	0.594054	0.746571	0.381720
	C6289	C	0.839903	0.691882	0.473272
	C6290	C	0.586601	0.642501	0.549216
	C6291	C	0.840332	0.699229	0.461565
	C6292	C	0.909294	0.694248	0.540652
	C6293	C	0.663059	0.749479	0.449179
	C6294	C	0.912314	0.695222	0.394989
	C6295	C	0.658408	0.640177	0.485822
	C6296	C	0.907258	0.641680	0.547320
	C6297	C	0.660794	0.698750	0.460764
	C6298	C	0.914482	0.745715	0.380247
	C6299	C	0.660394	0.691391	0.472502
	C6300	C	0.591988	0.696012	0.393065
	C6301	C	0.838120	0.640923	0.484031
	C6302	C	0.588590	0.695035	0.538812
	C6303	C	0.842507	0.750026	0.448092
	C6304	C	0.504322	0.742419	0.387064
	C6305	C	0.749963	0.687857	0.478847
	C6306	C	0.497105	0.646221	0.543114
	C6307	C	0.750806	0.702742	0.455164
	C6308	C	0.499279	0.690346	0.535803
	C6309	C	0.753073	0.745511	0.444600
	C6310	C	0.502009	0.699885	0.397960
	C6311	C	0.747857	0.644850	0.488797
	C6312	C	0.503969	0.734696	0.400014
	C6313	C	0.749766	0.679958	0.491478
	C6314	C	0.497340	0.654801	0.531945
	C6315	C	0.751061	0.710601	0.442467
	C6316	C	0.499772	0.681363	0.527335
	C6317	C	0.753359	0.736558	0.436062
	C6318	C	0.501619	0.708806	0.406593
	C6319	C	0.747523	0.653847	0.497215
	H6320	H	0.663348	0.744123	0.387010
	H6321	H	0.909250	0.689236	0.478164
	H6322	H	0.656030	0.646002	0.546082
	H6323	H	0.910055	0.702274	0.457378
	H6324	H	0.840178	0.690654	0.538340
	H6325	H	0.593979	0.745988	0.446568
	H6326	H	0.842823	0.698146	0.398868
	H6327	H	0.588844	0.643136	0.489636
	H6328	H	0.838047	0.644497	0.542617
	H6329	H	0.591535	0.701454	0.455850
	H6330	H	0.844940	0.742521	0.384269
	H6331	H	0.590846	0.688329	0.476770
	H6332	H	0.661070	0.699575	0.395416
	H6333	H	0.907282	0.644505	0.486359
	H6334	H	0.658166	0.692074	0.535046
	H6335	H	0.912123	0.746980	0.444594
	O6336	O	0.084121	0.739476	0.559129
	O6337	O	0.331170	0.680193	0.640933
	O6338	O	0.077830	0.658699	0.665541
	O6339	O	0.331563	0.720890	0.590479
	O6340	O	0.411749	0.679084	0.667763
	O6341	O	0.164885	0.740185	0.586908
	O6342	O	0.412884	0.719687	0.563425
	O6343	O	0.159154	0.659905	0.640875
	O6344	O	0.408580	0.658320	0.664550
	O6345	O	0.162617	0.720503	0.589807
	O6346	O	0.415911	0.739099	0.558553
	O6347	O	0.162380	0.679812	0.640169
	O6348	O	0.082246	0.720034	0.562647
	O6349	O	0.328320	0.660288	0.640089
	O6350	O	0.080732	0.679495	0.666944
	O6351	O	0.333956	0.740533	0.586091
	F6352	F	-0.005091	0.670212	0.643722
	F6353	F	0.248692	0.729795	0.564769
	F6354	F	-0.001380	0.730468	0.584696
	F6355	F	0.244893	0.669215	0.664104
	Al6356	Al	0.120076	0.669684	0.653994
	Al6357	Al	0.373521	0.730123	0.574724
	Al6358	Al	0.123577	0.730139	0.574713
	Al6359	Al	0.369971	0.669683	0.653998
	C6360	C	0.089847	0.754580	0.536191
	C6361	C	0.336519	0.696868	0.621715
	C6362	C	0.087023	0.639234	0.668219
	C6363	C	0.336608	0.705018	0.611722
	C6364	C	0.405424	0.696118	0.682985
	C6365	C	0.159047	0.756721	0.603189
	C6366	C	0.408404	0.702680	0.548294
	C6367	C	0.154670	0.642402	0.627195
	C6368	C	0.407249	0.638789	0.665537
	C6369	C	0.157384	0.704156	0.609883
	C6370	C	0.410858	0.753652	0.534618
	C6371	C	0.157234	0.696032	0.619845
	C6372	C	0.088179	0.703444	0.546587
	C6373	C	0.334568	0.643254	0.624851
	C6374	C	0.085052	0.697004	0.680609
	C6375	C	0.338525	0.757531	0.601285
	C6376	C	0.000108	0.750336	0.541341
	C6377	C	0.246888	0.692285	0.625866
	C6378	C	-0.004347	0.643986	0.667020
	C6379	C	0.246955	0.708746	0.605685
	C6380	C	-0.004424	0.692054	0.678457
	C6381	C	0.249126	0.752835	0.598305
	C6382	C	-0.001940	0.707333	0.551411
	C6383	C	0.244258	0.647294	0.629487
	C6384	C	-0.000223	0.742412	0.553944
	C6385	C	0.246818	0.683483	0.636463
	C6386	C	-0.006050	0.654445	0.665645
	C6387	C	0.247058	0.717327	0.594509
	C6388	C	-0.003918	0.682876	0.670481
	C6389	C	0.249417	0.743877	0.589784
	C6390	C	-0.002274	0.716338	0.559800
	C6391	C	0.243869	0.656499	0.637393
	H6392	H	0.159141	0.752090	0.541414
	H6393	H	0.405708	0.694001	0.626357
	H6394	H	0.155994	0.643153	0.669302
	H6395	H	0.405936	0.708540	0.608535
	H6396	H	0.335989	0.692364	0.681384
	H6397	H	0.089792	0.753122	0.600960
	H6398	H	0.338821	0.705643	0.552030
	H6399	H	0.084551	0.645423	0.630802
	H6400	H	0.336434	0.642374	0.664430
	H6401	H	0.087827	0.706935	0.605189
	H6402	H	0.341352	0.750407	0.538516
	H6403	H	0.087742	0.692521	0.622891
	H6404	H	0.157178	0.707043	0.548850
	H6405	H	0.404034	0.646989	0.626529
	H6406	H	0.155118	0.694015	0.676891
	H6407	H	0.408151	0.754595	0.597467
	O6408	O	0.584775	0.739495	0.559177
	O6409	O	0.830624	0.680193	0.640894
	O6410	O	0.577937	0.658682	0.665627
	O6411	O	0.831409	0.720811	0.590442
	O6412	O	0.911651	0.679071	0.667796
	O6413	O	0.664953	0.740155	0.586978
	O6414	O	0.913268	0.719725	0.563328
	O6415	O	0.658864	0.659884	0.640871
	O6416	O	0.908454	0.658369	0.664565
	O6417	O	0.662399	0.720512	0.589848
	O6418	O	0.915342	0.739109	0.558597
	O6419	O	0.661850	0.679821	0.640153
	O6420	O	0.581873	0.720051	0.562628
	O6421	O	0.828022	0.660302	0.639994
	O6422	O	0.580849	0.679498	0.666916
	O6423	O	0.834108	0.740491	0.586245
	F6424	F	0.495052	0.670194	0.643748
	F6425	F	0.748802	0.729760	0.564857
	F6426	F	0.498306	0.730496	0.584661
	F6427	F	0.744960	0.669221	0.664034
	Al6428	Al	0.619925	0.669686	0.654004
	Al6429	Al	0.873745	0.730109	0.574794
	Al6430	Al	0.623558	0.730126	0.574757
	Al6431	Al	0.870266	0.669702	0.653911
	C6432	C	0.590084	0.754587	0.536195
	C6433	C	0.836019	0.696853	0.621727
	C6434	C	0.587278	0.639220	0.668254
	C6435	C	0.836029	0.704996	0.611725
	C6436	C	0.905251	0.696059	0.683190
	C6437	C	0.659014	0.756725	0.603212
	C6438	C	0.908648	0.702667	0.548387
	C6439	C	0.654573	0.642338	0.627324
	C6440	C	0.906944	0.638795	0.665651
	C6441	C	0.656773	0.704170	0.609890
	C6442	C	0.910726	0.753664	0.534543
	C6443	C	0.656792	0.696047	0.619855
	C6444	C	0.587843	0.703462	0.546529
	C6445	C	0.834274	0.643283	0.624734
	C6446	C	0.585274	0.697020	0.680531
	C6447	C	0.838352	0.757559	0.601185
	C6448	C	0.500502	0.750336	0.541382
	C6449	C	0.746345	0.692283	0.625858
	C6450	C	0.495897	0.643969	0.667040
	C6451	C	0.746409	0.708722	0.605658
	C6452	C	0.495687	0.692092	0.678305
	C6453	C	0.748989	0.752846	0.598282
	C6454	C	0.497757	0.707356	0.551339
	C6455	C	0.744039	0.647277	0.629499
	C6456	C	0.500442	0.742427	0.553980
	C6457	C	0.746259	0.683481	0.636438
	C6458	C	0.493912	0.654420	0.665689
	C6459	C	0.746741	0.717296	0.594495
	C6460	C	0.496101	0.682898	0.670410
	C6461	C	0.749440	0.743860	0.589818
	C6462	C	0.497443	0.716339	0.559792
	C6463	C	0.743586	0.656499	0.637340
	H6464	H	0.659548	0.752115	0.541400
	H6465	H	0.905246	0.693983	0.626353
	H6466	H	0.656223	0.643148	0.669375
	H6467	H	0.905396	0.708509	0.608541
	H6468	H	0.835782	0.692290	0.681647
	H6469	H	0.589861	0.753095	0.601071
	H6470	H	0.839063	0.705640	0.552141
	H6471	H	0.584425	0.645341	0.630971
	H6472	H	0.835990	0.642374	0.664614
	H6473	H	0.587362	0.706966	0.605227
	H6474	H	0.841272	0.750404	0.538394
	H6475	H	0.587299	0.692544	0.622917
	H6476	H	0.656889	0.707064	0.548801
	H6477	H	0.903699	0.647055	0.626255
	H6478	H	0.655339	0.694012	0.676862
	H6479	H	0.907941	0.754613	0.597357
	O6480	O	0.080573	0.742640	0.703283
	O6481	O	0.338051	0.672448	0.731790
	O6482	O	0.084457	0.649229	0.750461
	O6483	O	0.327803	0.721177	0.727968
	O6484	O	0.418397	0.669717	0.755524
	O6485	O	0.161361	0.741668	0.730107
	O6486	O	0.409070	0.722414	0.703254
	O6487	O	0.166006	0.651442	0.726332
	O6488	O	0.415195	0.648984	0.749736
	O6489	O	0.158417	0.720819	0.726998
	O6490	O	0.411851	0.742355	0.702718
	O6491	O	0.168979	0.672119	0.730562
	O6492	O	0.077870	0.722771	0.702580
	O6493	O	0.335043	0.651723	0.725864
	O6494	O	0.087121	0.670091	0.754779
	O6495	O	0.330474	0.742017	0.729377
	F6496	F	0.002068	0.661837	0.730350
	F6497	F	0.244956	0.732706	0.706140
	F6498	F	-0.004822	0.731713	0.726614
	F6499	F	0.251295	0.659613	0.750968
	Al6500	Al	0.126667	0.660725	0.740630
	Al6501	Al	0.369826	0.732200	0.716435
	Al6502	Al	0.119947	0.732187	0.716425
	Al6503	Al	0.376511	0.660708	0.740761
	C6504	C	0.086141	0.759234	0.683863
	C6505	C	0.339640	0.692025	0.730721
	C6506	C	0.092979	0.629771	0.751627
	C6507	C	0.337014	0.701718	0.730844
	C6508	C	0.412058	0.687218	0.769638
	C6509	C	0.155153	0.758728	0.745305
	C6510	C	0.404702	0.704858	0.689709
	C6511	C	0.161197	0.633690	0.713034
	C6512	C	0.412793	0.629471	0.749295
	C6513	C	0.156897	0.701276	0.728118
	C6514	C	0.407346	0.758663	0.682645
	C6515	C	0.159581	0.691577	0.728001
	C6516	C	0.084355	0.705732	0.687387
	C6517	C	0.341056	0.634393	0.711074
	C6518	C	0.091323	0.687944	0.767643
	C6519	C	0.335218	0.759498	0.743162
	C6520	C	-0.003591	0.754769	0.688300
	C6521	C	0.251033	0.686828	0.729304
	C6522	C	0.001661	0.634555	0.750967
	C6523	C	0.245563	0.706467	0.729535
	C6524	C	0.001710	0.682966	0.765532
	C6525	C	0.245440	0.754643	0.740747
	C6526	C	-0.006043	0.709759	0.692029
	C6527	C	0.250790	0.638643	0.715236
	C6528	C	-0.003680	0.745969	0.698915
	C6529	C	0.252977	0.676369	0.730599
	C6530	C	0.000229	0.645023	0.750365
	C6531	C	0.243716	0.716920	0.728127
	C6532	C	0.002332	0.673570	0.758073
	C6533	C	0.245814	0.745459	0.732799
	C6534	C	-0.006436	0.718990	0.699864
	C6535	C	0.250617	0.647952	0.722979
	H6536	H	0.155510	0.756291	0.688233
	H6537	H	0.410637	0.688458	0.731766
	H6538	H	0.162249	0.633638	0.752932
	H6539	H	0.405910	0.705657	0.731980
	H6540	H	0.342216	0.683467	0.768181
	H6541	H	0.085526	0.755019	0.743567
	H6542	H	0.334652	0.707886	0.693328
	H6543	H	0.090514	0.636824	0.716117
	H6544	H	0.341881	0.633087	0.748757
	H6545	H	0.085898	0.704858	0.727042
	H6546	H	0.337971	0.755248	0.685983
	H6547	H	0.090720	0.687634	0.726847
	H6548	H	0.153855	0.709485	0.689004
	H6549	H	0.411046	0.638105	0.712560
	H6550	H	0.161917	0.684802	0.764520
	H6551	H	0.405310	0.756446	0.739607
	O6552	O	0.580546	0.742598	0.703264
	O6553	O	0.837466	0.672483	0.731577
	O6554	O	0.584567	0.649252	0.750484
	O6555	O	0.827292	0.721162	0.728147
	O6556	O	0.917924	0.669714	0.755436
	O6557	O	0.661095	0.741655	0.730155
	O6558	O	0.908685	0.722399	0.703319
	O6559	O	0.665406	0.651455	0.726249
	O6560	O	0.915124	0.648990	0.749612
	O6561	O	0.657945	0.720824	0.727128
	O6562	O	0.911872	0.742329	0.702672
	O6563	O	0.668270	0.672121	0.730450
	O6564	O	0.578273	0.722752	0.702600
	O6565	O	0.834534	0.651756	0.725649
	O6566	O	0.587656	0.670075	0.754814
	O6567	O	0.830289	0.742012	0.729484
	F6568	F	0.501227	0.661808	0.730468
	F6569	F	0.745065	0.732674	0.706315
	F6570	F	0.494667	0.731708	0.726568
	F6571	F	0.751549	0.659623	0.750774
	Al6572	Al	0.626451	0.660715	0.740585
	Al6573	Al	0.870082	0.732171	0.716502
	Al6574	Al	0.619791	0.732163	0.716490
	Al6575	Al	0.876923	0.660724	0.740573
	C6576	C	0.586431	0.759238	0.683870
	C6577	C	0.838970	0.692019	0.730568
	C6578	C	0.593144	0.629792	0.751572
	C6579	C	0.836436	0.701710	0.730762
	C6580	C	0.911247	0.687235	0.769600
	C6581	C	0.654934	0.758676	0.745430
	C6582	C	0.904532	0.704791	0.689931
	C6583	C	0.660642	0.633707	0.712997
	C6584	C	0.912605	0.629440	0.749288
	C6585	C	0.656414	0.701281	0.727997
	C6586	C	0.906806	0.758674	0.682621
	C6587	C	0.658941	0.691585	0.727818
	C6588	C	0.584612	0.705754	0.687288
	C6589	C	0.840590	0.634372	0.711109
	C6590	C	0.592083	0.687950	0.767628
	C6591	C	0.834866	0.759500	0.743157
	C6592	C	0.496756	0.754768	0.688345
	C6593	C	0.750274	0.686833	0.729118
	C6594	C	0.501843	0.634583	0.750944
	C6595	C	0.745089	0.706463	0.729531
	C6596	C	0.502489	0.682954	0.765582
	C6597	C	0.745186	0.754620	0.740824
	C6598	C	0.494215	0.709776	0.691945
	C6599	C	0.750321	0.638646	0.715206
	C6600	C	0.496365	0.745961	0.698908
	C6601	C	0.752198	0.676379	0.730444
	C6602	C	0.500351	0.645040	0.750410
	C6603	C	0.743200	0.716916	0.728225
	C6604	C	0.502854	0.673563	0.758138
	C6605	C	0.745513	0.745431	0.732911
	C6606	C	0.493779	0.718986	0.699830
	C6607	C	0.750045	0.647977	0.722854
	H6608	H	0.655775	0.756292	0.688217
	H6609	H	0.909888	0.688438	0.731608
	H6610	H	0.662340	0.633661	0.752869
	H6611	H	0.905453	0.705630	0.731921
	H6612	H	0.841399	0.683494	0.768113
	H6613	H	0.585440	0.754954	0.743736
	H6614	H	0.834392	0.707777	0.693636
	H6615	H	0.590010	0.636875	0.716010
	H6616	H	0.841737	0.633062	0.748708
	H6617	H	0.585514	0.704871	0.726903
	H6618	H	0.837261	0.755270	0.685968
	H6619	H	0.590009	0.687654	0.726637
	H6620	H	0.654125	0.709507	0.688918
	H6621	H	0.910642	0.638080	0.712549
	H6622	H	0.662474	0.684792	0.764473
	H6623	H	0.904776	0.756464	0.739556
	O6624	O	0.087734	0.734943	0.794123
	O6625	O	0.343183	0.663085	0.812970
	O6626	O	0.089640	0.639934	0.831942
	O6627	O	0.334737	0.711748	0.812947
	O6628	O	0.423177	0.660311	0.836837
	O6629	O	0.168381	0.732271	0.817836
	O6630	O	0.415759	0.713962	0.788685
	O6631	O	0.171119	0.641961	0.807709
	O6632	O	0.420371	0.639615	0.830978
	O6633	O	0.165494	0.711452	0.811975
	O6634	O	0.418568	0.734638	0.793031
	O6635	O	0.173852	0.662835	0.812016
	O6636	O	0.084558	0.714262	0.788208
	O6637	O	0.340297	0.642295	0.807140
	O6638	O	0.092277	0.660604	0.836195
	O6639	O	0.337467	0.732569	0.817249
	F6640	F	0.007209	0.652440	0.811575
	F6641	F	0.251560	0.724323	0.792838
	F6642	F	0.001887	0.722096	0.813419
	F6643	F	0.256714	0.650228	0.832109
	Al6644	Al	0.131894	0.651341	0.821873
	Al6645	Al	0.376579	0.723216	0.803058
	Al6646	Al	0.126696	0.723202	0.803120
	Al6647	Al	0.381767	0.651339	0.821911
	C6648	C	0.090004	0.754520	0.793027
	C6649	C	0.345680	0.682603	0.813240
	C6650	C	0.098834	0.620478	0.834512
	C6651	C	0.343525	0.692262	0.814180
	C6652	C	0.417261	0.677692	0.851451
	C6653	C	0.162164	0.749771	0.832017
	C6654	C	0.411330	0.696170	0.775570
	C6655	C	0.166599	0.624127	0.794836
	C6656	C	0.418674	0.620050	0.832051
	C6657	C	0.163185	0.691944	0.811851
	C6658	C	0.409699	0.754070	0.790501
	C6659	C	0.165309	0.682287	0.810905
	C6660	C	0.090688	0.696887	0.773645
	C6661	C	0.346619	0.624783	0.793015
	C6662	C	0.096879	0.678341	0.849488
	C6663	C	0.342043	0.750432	0.830102
	C6664	C	0.001063	0.749341	0.791726
	C6665	C	0.256603	0.677495	0.811566
	C6666	C	0.007404	0.625227	0.833234
	C6667	C	0.252266	0.697057	0.813437
	C6668	C	0.007204	0.673377	0.847361
	C6669	C	0.252428	0.745445	0.828024
	C6670	C	0.000348	0.701137	0.777751
	C6671	C	0.256269	0.629078	0.796981
	C6672	C	0.002781	0.738879	0.793002
	C6673	C	0.258105	0.667040	0.812139
	C6674	C	0.005608	0.635691	0.832000
	C6675	C	0.250677	0.707517	0.812816
	C6676	C	0.007574	0.664054	0.839641
	C6677	C	0.252797	0.736079	0.820542
	C6678	C	0.000155	0.710467	0.785424
	C6679	C	0.255927	0.638467	0.804432
	H6680	H	0.160997	0.750923	0.793970
	H6681	H	0.416517	0.678978	0.813830
	H6682	H	0.167823	0.624412	0.835659
	H6683	H	0.412747	0.696131	0.815506
	H6684	H	0.347290	0.673969	0.849975
	H6685	H	0.091917	0.746093	0.830462
	H6686	H	0.340754	0.699324	0.778642
	H6687	H	0.096221	0.627318	0.797915
	H6688	H	0.347719	0.623642	0.831125
	H6689	H	0.092248	0.695560	0.811307
	H6690	H	0.340681	0.750147	0.789425
	H6691	H	0.096085	0.678424	0.809590
	H6692	H	0.160567	0.700622	0.775124
	H6693	H	0.416457	0.628513	0.794564
	H6694	H	0.167355	0.675173	0.846380
	H6695	H	0.412570	0.747286	0.826980
	O6696	O	0.587826	0.734927	0.793977
	O6697	O	0.842936	0.663108	0.812880
	O6698	O	0.589569	0.639946	0.831924
	O6699	O	0.834187	0.711736	0.813158
	O6700	O	0.923104	0.660249	0.836873
	O6701	O	0.667703	0.732307	0.817777
	O6702	O	0.915413	0.713944	0.788811
	O6703	O	0.670519	0.641978	0.807735
	O6704	O	0.920409	0.639620	0.830953
	O6705	O	0.664889	0.711481	0.812094
	O6706	O	0.918609	0.734644	0.793124
	O6707	O	0.673656	0.662832	0.811989
	O6708	O	0.584930	0.714247	0.788178
	O6709	O	0.839624	0.642278	0.807104
	O6710	O	0.592364	0.660625	0.836211
	O6711	O	0.836893	0.732610	0.817351
	F6712	F	0.506843	0.652444	0.811667
	F6713	F	0.751909	0.724299	0.792913
	F6714	F	0.501348	0.722120	0.813288
	F6715	F	0.756755	0.650252	0.832056
	Al6716	Al	0.631872	0.651356	0.821847
	Al6717	Al	0.877044	0.723214	0.803192
	Al6718	Al	0.626574	0.723227	0.803084
	Al6719	Al	0.882179	0.651338	0.821830
	C6720	C	0.589814	0.754499	0.793053
	C6721	C	0.845244	0.682635	0.813286
	C6722	C	0.598977	0.620506	0.834576
	C6723	C	0.842964	0.692290	0.814307
	C6724	C	0.916868	0.677644	0.851488
	C6725	C	0.661537	0.749785	0.832004
	C6726	C	0.910621	0.696171	0.775592
	C6727	C	0.665795	0.624136	0.794834
	C6728	C	0.918475	0.620038	0.831884
	C6729	C	0.662634	0.691963	0.811809
	C6730	C	0.909619	0.754099	0.790553
	C6731	C	0.664957	0.682309	0.810795
	C6732	C	0.591276	0.696899	0.773587
	C6733	C	0.845870	0.624799	0.792970
	C6734	C	0.597210	0.678366	0.849449
	C6735	C	0.841603	0.750441	0.830125
	C6736	C	0.501076	0.749311	0.791663
	C6737	C	0.756260	0.677519	0.811551
	C6738	C	0.507489	0.625243	0.833343
	C6739	C	0.751589	0.697074	0.813557
	C6740	C	0.507486	0.673420	0.847306
	C6741	C	0.751861	0.745475	0.828001
	C6742	C	0.500918	0.701133	0.777722
	C6743	C	0.755504	0.629077	0.796998
	C6744	C	0.502735	0.738860	0.792932
	C6745	C	0.757819	0.667055	0.812109
	C6746	C	0.505538	0.635696	0.832029
	C6747	C	0.749966	0.707531	0.812975
	C6748	C	0.507679	0.664099	0.839613
	C6749	C	0.752079	0.736113	0.820555
	C6750	C	0.500477	0.710466	0.785370
	C6751	C	0.755136	0.638459	0.804462
	H6752	H	0.660856	0.750916	0.794036
	H6753	H	0.916167	0.679014	0.813890
	H6754	H	0.667882	0.624448	0.835682
	H6755	H	0.912135	0.696170	0.815698
	H6756	H	0.846931	0.673916	0.850009
	H6757	H	0.591368	0.746095	0.830473
	H6758	H	0.840199	0.699335	0.778713
	H6759	H	0.595426	0.627338	0.797904
	H6760	H	0.847557	0.623641	0.830896
	H6761	H	0.591673	0.695575	0.811225
	H6762	H	0.840544	0.750174	0.789475
	H6763	H	0.595793	0.678451	0.809389
	H6764	H	0.661138	0.700645	0.775033
	H6765	H	0.915677	0.628533	0.794502
	H6766	H	0.667643	0.675191	0.846337
	H6767	H	0.912282	0.747299	0.827023
	O6768	O	0.093554	0.725550	0.875373
	O6769	O	0.349755	0.653728	0.897919
	O6770	O	0.096268	0.632235	0.922278
	O6771	O	0.340108	0.702402	0.894360
	O6772	O	0.430177	0.651762	0.922465
	O6773	O	0.173559	0.722812	0.899244
	O6774	O	0.421400	0.704473	0.870222
	O6775	O	0.177526	0.632547	0.895589
	O6776	O	0.427215	0.631882	0.921610
	O6777	O	0.170853	0.702101	0.893459
	O6778	O	0.423901	0.725330	0.874513
	O6779	O	0.180475	0.653398	0.896978
	O6780	O	0.090322	0.704782	0.869613
	O6781	O	0.346710	0.632948	0.894787
	O6782	O	0.099031	0.652145	0.921632
	O6783	O	0.342725	0.723119	0.898725
	F6784	F	0.013802	0.642864	0.898332
	F6785	F	0.257315	0.714914	0.874135
	F6786	F	0.007175	0.712732	0.894637
	F6787	F	0.263244	0.641862	0.918777
	Al6788	Al	0.138496	0.642379	0.908499
	Al6789	Al	0.382040	0.713845	0.884361
	Al6790	Al	0.132236	0.713823	0.884348
	Al6791	Al	0.388405	0.642389	0.908530
	C6792	C	0.095791	0.745072	0.875623
	C6793	C	0.351522	0.673276	0.896952
	C6794	C	0.101443	0.616036	0.942637
	C6795	C	0.349128	0.682975	0.897109
	C6796	C	0.423849	0.668854	0.937560
	C6797	C	0.167356	0.740222	0.913826
	C6798	C	0.416896	0.686633	0.857446
	C6799	C	0.173191	0.615051	0.881916
	C6800	C	0.421879	0.615189	0.940819
	C6801	C	0.168924	0.682550	0.894439
	C6802	C	0.415370	0.744814	0.873434
	C6803	C	0.171330	0.672865	0.894264
	C6804	C	0.096426	0.687288	0.855462
	C6805	C	0.353115	0.615909	0.879555
	C6806	C	0.103498	0.669697	0.935155
	C6807	C	0.347301	0.740864	0.912003
	C6808	C	0.006772	0.739960	0.873963
	C6809	C	0.262683	0.668103	0.895565
	C6810	C	0.011832	0.619781	0.936622
	C6811	C	0.257735	0.687724	0.895870
	C6812	C	0.013956	0.664775	0.932989
	C6813	C	0.257637	0.735935	0.909763
	C6814	C	0.006131	0.691565	0.859519
	C6815	C	0.262792	0.619963	0.884138
	C6816	C	0.008484	0.729499	0.874500
	C6817	C	0.264521	0.657648	0.896873
	C6818	C	0.011785	0.628589	0.926069
	C6819	C	0.255958	0.698175	0.894540
	C6820	C	0.014304	0.655540	0.925165
	C6821	C	0.257996	0.726605	0.902074
	C6822	C	0.005846	0.700966	0.866949
	C6823	C	0.262303	0.629145	0.892086
	H6824	H	0.166724	0.741448	0.876164
	H6825	H	0.422325	0.669679	0.897970
	H6826	H	0.170799	0.619577	0.939593
	H6827	H	0.418035	0.686910	0.898216
	H6828	H	0.354309	0.665137	0.935875
	H6829	H	0.097322	0.736514	0.912300
	H6830	H	0.346586	0.689805	0.860588
	H6831	H	0.103294	0.618081	0.885606
	H6832	H	0.352554	0.618006	0.936150
	H6833	H	0.098013	0.686144	0.893400
	H6834	H	0.346106	0.740945	0.872180
	H6835	H	0.102349	0.668943	0.893090
	H6836	H	0.166383	0.691014	0.856938
	H6837	H	0.422632	0.619641	0.881247
	H6838	H	0.173469	0.666668	0.931545
	H6839	H	0.417831	0.737684	0.908987
	O6840	O	0.593271	0.725599	0.875483
	O6841	O	0.849403	0.653747	0.897925
	O6842	O	0.595999	0.632245	0.922347
	O6843	O	0.839650	0.702381	0.894366
	O6844	O	0.929944	0.651740	0.922483
	O6845	O	0.673517	0.722767	0.899299
	O6846	O	0.921129	0.704495	0.870191
	O6847	O	0.677012	0.632542	0.895553
	O6848	O	0.927413	0.631897	0.921687
	O6849	O	0.670455	0.702099	0.893404
	O6850	O	0.924235	0.725272	0.874328
	O6851	O	0.680135	0.653355	0.896908
	O6852	O	0.590597	0.704817	0.869589
	O6853	O	0.846174	0.632890	0.894856
	O6854	O	0.599356	0.652149	0.921688
	O6855	O	0.842533	0.723170	0.898631
	F6856	F	0.513387	0.642852	0.898441
	F6857	F	0.757265	0.714935	0.874166
	F6858	F	0.506813	0.712728	0.894594
	F6859	F	0.763306	0.641864	0.918750
	Al6860	Al	0.638429	0.642366	0.908535
	Al6861	Al	0.882379	0.713831	0.884387
	Al6862	Al	0.632106	0.713831	0.884375
	Al6863	Al	0.888504	0.642366	0.908512
	C6864	C	0.595793	0.745114	0.875699
	C6865	C	0.850737	0.673250	0.896883
	C6866	C	0.601176	0.616026	0.942637
	C6867	C	0.848395	0.682950	0.897033
	C6868	C	0.923761	0.668826	0.937681
	C6869	C	0.667007	0.740180	0.913901
	C6870	C	0.916407	0.686587	0.857460
	C6871	C	0.672474	0.615039	0.881871
	C6872	C	0.922196	0.615184	0.940751
	C6873	C	0.668311	0.682529	0.894394
	C6874	C	0.915397	0.744755	0.873296
	C6875	C	0.670631	0.672842	0.894220
	C6876	C	0.596809	0.687314	0.855437
	C6877	C	0.852504	0.615889	0.879604
	C6878	C	0.603681	0.669659	0.935332
	C6879	C	0.846965	0.740864	0.911997
	C6880	C	0.506658	0.740013	0.874072
	C6881	C	0.761919	0.668081	0.895478
	C6882	C	0.511428	0.619809	0.936729
	C6883	C	0.757103	0.687708	0.895796
	C6884	C	0.514079	0.664778	0.933005
	C6885	C	0.757269	0.735913	0.909796
	C6886	C	0.506573	0.691594	0.859503
	C6887	C	0.762072	0.619933	0.884158
	C6888	C	0.508109	0.729547	0.874649
	C6889	C	0.764016	0.657633	0.896810
	C6890	C	0.511511	0.628597	0.926099
	C6891	C	0.755494	0.698161	0.894491
	C6892	C	0.514602	0.655558	0.925149
	C6893	C	0.757713	0.726600	0.902075
	C6894	C	0.506192	0.700978	0.866947
	C6895	C	0.761724	0.629119	0.892104
	H6896	H	0.666699	0.741487	0.876255
	H6897	H	0.921510	0.669659	0.897930
	H6898	H	0.670514	0.619538	0.939484
	H6899	H	0.917316	0.686875	0.898167
	H6900	H	0.854236	0.665081	0.936105
	H6901	H	0.597023	0.736462	0.912412
	H6902	H	0.846045	0.689756	0.860592
	H6903	H	0.602477	0.618075	0.885502
	H6904	H	0.852861	0.618029	0.936131
	H6905	H	0.597475	0.686132	0.893368
	H6906	H	0.846191	0.740886	0.871942
	H6907	H	0.601672	0.668928	0.893071
	H6908	H	0.666751	0.691037	0.856922
	H6909	H	0.921852	0.619634	0.881313
	H6910	H	0.673685	0.666597	0.931801
	H6911	H	0.917480	0.737704	0.908913
	O6912	O	0.093519	0.850561	0.000466
	O6913	O	0.350572	0.778752	0.022995
	O6914	O	0.096724	0.757283	0.047400
	O6915	O	0.340073	0.827424	0.019509
	O6916	O	0.430578	0.776735	0.047501
	O6917	O	0.173877	0.847772	0.024343
	O6918	O	0.421148	0.829455	-0.004791
	O6919	O	0.178281	0.757504	0.020640
	O6920	O	0.427842	0.756881	0.046591
	O6921	O	0.170839	0.827082	0.018462
	O6922	O	0.424170	0.850287	-0.000547
	O6923	O	0.181340	0.778354	0.021810
	O6924	O	0.090654	0.829784	-0.005355
	O6925	O	0.347421	0.757944	0.019776
	O6926	O	0.100058	0.777219	0.046528
	O6927	O	0.343042	0.848122	0.023664
	F6928	F	0.014523	0.767847	0.023315
	F6929	F	0.257328	0.839908	-0.000824
	F6930	F	0.007423	0.837746	0.019642
	F6931	F	0.263724	0.766862	0.043775
	Al6932	Al	0.139000	0.767391	0.033462
	Al6933	Al	0.382343	0.838832	0.009379
	Al6934	Al	0.132317	0.838815	0.009424
	Al6935	Al	0.388884	0.767372	0.033561
	C6936	C	0.096074	0.870119	0.000717
	C6937	C	0.351844	0.798279	0.022020
	C6938	C	0.101645	0.741072	0.067757
	C6939	C	0.349150	0.807965	0.022177
	C6940	C	0.424215	0.793824	0.062695
	C6941	C	0.167553	0.865187	0.038850
	C6942	C	0.416696	0.811582	-0.017564
	C6943	C	0.173776	0.740060	0.006846
	C6944	C	0.422363	0.740110	0.065631
	C6945	C	0.169057	0.807523	0.019376
	C6946	C	0.415355	0.869759	-0.001751
	C6947	C	0.171783	0.797821	0.019184
	C6948	C	0.096916	0.812286	-0.019509
	C6949	C	0.353664	0.740875	0.004551
	C6950	C	0.103903	0.794743	0.060092
	C6951	C	0.347552	0.865855	0.036981
	C6952	C	0.007067	0.864990	-0.000905
	C6953	C	0.263213	0.793084	0.020435
	C6954	C	0.012025	0.744796	0.061673
	C6955	C	0.257751	0.812715	0.020818
	C6956	C	0.014489	0.789770	0.058003
	C6957	C	0.257929	0.860907	0.034781
	C6958	C	0.006505	0.816564	-0.015457
	C6959	C	0.263479	0.744922	0.009195
	C6960	C	0.008482	0.854532	-0.000367
	C6961	C	0.265208	0.782631	0.021788
	C6962	C	0.012331	0.753599	0.051047
	C6963	C	0.256048	0.823169	0.019533
	C6964	C	0.015178	0.780565	0.050088
	C6965	C	0.258313	0.851580	0.027091
	C6966	C	0.006185	0.825966	-0.008041
	C6967	C	0.263078	0.754121	0.017114
	H6968	H	0.167076	0.866510	0.001261
	H6969	H	0.422806	0.794703	0.023182
	H6970	H	0.171117	0.744621	0.064746
	H6971	H	0.418056	0.811896	0.023413
	H6972	H	0.354636	0.790080	0.061111
	H6973	H	0.097651	0.861463	0.037304
	H6974	H	0.346202	0.814717	-0.014389
	H6975	H	0.103889	0.743115	0.010433
	H6976	H	0.353067	0.742889	0.060819
	H6977	H	0.098033	0.811102	0.018325
	H6978	H	0.346163	0.865886	-0.003059
	H6979	H	0.102939	0.793880	0.018013
	H6980	H	0.166901	0.816022	-0.018044
	H6981	H	0.423163	0.744608	0.006197
	H6982	H	0.174009	0.791775	0.056349
	H6983	H	0.418086	0.862686	0.033903
	O6984	O	0.593477	0.850570	0.000279
	O6985	O	0.850067	0.778767	0.022935
	O6986	O	0.596584	0.757253	0.047420
	O6987	O	0.839689	0.827417	0.019465
	O6988	O	0.930875	0.776748	0.047414
	O6989	O	0.673322	0.847780	0.024297
	O6990	O	0.921480	0.829504	-0.004811
	O6991	O	0.677755	0.757563	0.020587
	O6992	O	0.927991	0.756853	0.046510
	O6993	O	0.670572	0.827101	0.018278
	O6994	O	0.924227	0.850312	-0.000541
	O6995	O	0.680636	0.778373	0.021984
	O6996	O	0.590301	0.829850	-0.005521
	O6997	O	0.846877	0.757961	0.019719
	O6998	O	0.599723	0.777146	0.046721
	O6999	O	0.842488	0.848181	0.023633
	F7000	F	0.513920	0.767866	0.023471
	F7001	F	0.757518	0.839944	-0.000868
	F7002	F	0.507142	0.837731	0.019539
	F7003	F	0.763890	0.766842	0.043720
	Al7004	Al	0.638906	0.767362	0.033553
	Al7005	Al	0.882606	0.838834	0.009405
	Al7006	Al	0.632206	0.838836	0.009269
	Al7007	Al	0.889055	0.767370	0.033456
	C7008	C	0.595727	0.870108	0.000550
	C7009	C	0.851365	0.798266	0.021949
	C7010	C	0.601702	0.741082	0.067846
	C7011	C	0.848807	0.807958	0.022073
	C7012	C	0.924203	0.793765	0.062802
	C7013	C	0.666689	0.865134	0.038985
	C7014	C	0.916739	0.811584	-0.017557
	C7015	C	0.673194	0.740043	0.006964
	C7016	C	0.922338	0.740145	0.065648
	C7017	C	0.668800	0.807524	0.019310
	C7018	C	0.915639	0.869782	-0.001520
	C7019	C	0.671317	0.797827	0.019173
	C7020	C	0.596711	0.812329	-0.019665
	C7021	C	0.852987	0.740955	0.004431
	C7022	C	0.604094	0.794691	0.060307
	C7023	C	0.846599	0.865891	0.036916
	C7024	C	0.506731	0.864979	-0.001061
	C7025	C	0.762722	0.793083	0.020427
	C7026	C	0.511950	0.744793	0.061726
	C7027	C	0.757451	0.812717	0.020731
	C7028	C	0.514485	0.789772	0.058047
	C7029	C	0.757060	0.860895	0.034833
	C7030	C	0.506266	0.816588	-0.015559
	C7031	C	0.762757	0.744962	0.009155
	C7032	C	0.508325	0.854511	-0.000463
	C7033	C	0.764637	0.782638	0.021821
	C7034	C	0.512072	0.753595	0.051117
	C7035	C	0.755655	0.823177	0.019433
	C7036	C	0.514934	0.780539	0.050205
	C7037	C	0.757618	0.851591	0.027114
	C7038	C	0.505946	0.825983	-0.008122
	C7039	C	0.762435	0.754160	0.017073
	H7040	H	0.666723	0.866494	0.001087
	H7041	H	0.922298	0.794691	0.023108
	H7042	H	0.671108	0.744663	0.064866
	H7043	H	0.917766	0.811877	0.023272
	H7044	H	0.854828	0.789980	0.061275
	H7045	H	0.596878	0.861375	0.037527
	H7046	H	0.846226	0.814746	-0.014455
	H7047	H	0.603256	0.743053	0.010665
	H7048	H	0.852970	0.742942	0.060878
	H7049	H	0.597903	0.811125	0.018253
	H7050	H	0.846422	0.865906	-0.002803
	H7051	H	0.602377	0.793883	0.018056
	H7052	H	0.666552	0.816086	-0.018252
	H7053	H	0.922473	0.744704	0.006000
	H7054	H	0.674267	0.791663	0.056729
	H7055	H	0.917139	0.862742	0.033756
	O7056	O	0.100248	0.841227	0.085512
	O7057	O	0.346295	0.779082	0.160181
	O7058	O	0.093273	0.760461	0.191379
	O7059	O	0.346758	0.819791	0.109866
	O7060	O	0.426970	0.779477	0.187437
	O7061	O	0.180532	0.839253	0.109934
	O7062	O	0.428057	0.820075	0.083043
	O7063	O	0.174561	0.759028	0.163807
	O7064	O	0.424268	0.760091	0.190872
	O7065	O	0.178100	0.819350	0.108980
	O7066	O	0.431076	0.840887	0.084287
	O7067	O	0.177257	0.778692	0.159469
	O7068	O	0.097107	0.820450	0.082211
	O7069	O	0.343591	0.759403	0.162993
	O7070	O	0.095894	0.779837	0.186646
	O7071	O	0.349562	0.839687	0.109044
	F7072	F	0.010542	0.769053	0.165259
	F7073	F	0.263876	0.830363	0.085848
	F7074	F	0.013812	0.829324	0.106316
	F7075	F	0.260164	0.769818	0.185148
	Al7076	Al	0.135376	0.769450	0.175215
	Al7077	Al	0.388787	0.829895	0.095935
	Al7078	Al	0.138958	0.829849	0.095985
	Al7079	Al	0.385167	0.769426	0.175201
	C7080	C	0.101613	0.860764	0.084354
	C7081	C	0.351799	0.795448	0.140250
	C7082	C	0.097962	0.745871	0.215265
	C7083	C	0.351939	0.803587	0.130248
	C7084	C	0.420564	0.796073	0.203516
	C7085	C	0.174211	0.856226	0.125459
	C7086	C	0.423592	0.802561	0.069430
	C7087	C	0.170127	0.741999	0.148764
	C7088	C	0.418758	0.745027	0.213857
	C7089	C	0.172696	0.802670	0.128212
	C7090	C	0.421697	0.860365	0.081774
	C7091	C	0.172580	0.794546	0.138206
	C7092	C	0.103065	0.803460	0.066868
	C7093	C	0.349638	0.742881	0.146665
	C7094	C	0.100337	0.796905	0.201577
	C7095	C	0.353791	0.857273	0.122498
	C7096	C	0.012824	0.855567	0.083001
	C7097	C	0.262088	0.790847	0.144368
	C7098	C	0.008430	0.749234	0.208590
	C7099	C	0.262325	0.807306	0.124153
	C7100	C	0.010897	0.792199	0.198637
	C7101	C	0.264391	0.852269	0.120485
	C7102	C	0.012792	0.807444	0.071664
	C7103	C	0.259507	0.746725	0.151641
	C7104	C	0.014925	0.845118	0.084397
	C7105	C	0.261817	0.782262	0.155498
	C7106	C	0.008773	0.757135	0.195964
	C7107	C	0.262400	0.816093	0.113533
	C7108	C	0.011327	0.783207	0.190222
	C7109	C	0.264872	0.843068	0.112607
	C7110	C	0.012697	0.816642	0.079587
	C7111	C	0.259146	0.755686	0.160154
	H7112	H	0.172589	0.857179	0.085441
	H7113	H	0.421141	0.792671	0.145024
	H7114	H	0.167432	0.749085	0.211285
	H7115	H	0.421265	0.807142	0.127247
	H7116	H	0.351436	0.792448	0.201300
	H7117	H	0.104788	0.852418	0.124056
	H7118	H	0.353599	0.805575	0.073091
	H7119	H	0.100516	0.744925	0.152654
	H7120	H	0.349564	0.747546	0.208667
	H7121	H	0.103268	0.805465	0.123511
	H7122	H	0.352788	0.856430	0.080590
	H7123	H	0.103012	0.791030	0.141266
	H7124	H	0.172440	0.807234	0.068392
	H7125	H	0.418749	0.746514	0.148816
	H7126	H	0.169961	0.793957	0.197751
	H7127	H	0.424018	0.854340	0.118693
	O7128	O	0.600489	0.841278	0.085488
	O7129	O	0.846134	0.779084	0.160138
	O7130	O	0.593206	0.760455	0.191390
	O7131	O	0.846384	0.819746	0.109923
	O7132	O	0.927002	0.779504	0.187332
	O7133	O	0.680502	0.839290	0.109903
	O7134	O	0.928031	0.820040	0.083163
	O7135	O	0.674593	0.759029	0.163806
	O7136	O	0.924448	0.760055	0.190770
	O7137	O	0.677506	0.819366	0.109040
	O7138	O	0.930845	0.840842	0.084508
	O7139	O	0.677106	0.778673	0.159433
	O7140	O	0.597249	0.820486	0.082163
	O7141	O	0.843676	0.759381	0.162995
	O7142	O	0.595968	0.779866	0.186598
	O7143	O	0.849726	0.839669	0.109245
	F7144	F	0.510374	0.769057	0.165310
	F7145	F	0.764266	0.830339	0.085992
	F7146	F	0.513589	0.829396	0.106179
	F7147	F	0.760222	0.769808	0.185111
	Al7148	Al	0.635396	0.769433	0.175201
	Al7149	Al	0.889291	0.829841	0.096126
	Al7150	Al	0.638915	0.829892	0.095992
	Al7151	Al	0.885497	0.769431	0.175172
	C7152	C	0.601713	0.860800	0.084626
	C7153	C	0.851252	0.795444	0.140229
	C7154	C	0.598082	0.745883	0.215290
	C7155	C	0.851252	0.803581	0.130245
	C7156	C	0.920744	0.796086	0.203513
	C7157	C	0.673976	0.856343	0.125108
	C7158	C	0.923419	0.802473	0.069615
	C7159	C	0.669839	0.741996	0.148778
	C7160	C	0.918688	0.745044	0.213842
	C7161	C	0.671859	0.802647	0.128170
	C7162	C	0.921390	0.860314	0.081712
	C7163	C	0.671908	0.794515	0.138155
	C7164	C	0.603462	0.803431	0.067012
	C7165	C	0.849607	0.742832	0.146684
	C7166	C	0.600240	0.796892	0.201616
	C7167	C	0.853922	0.857206	0.122773
	C7168	C	0.513115	0.855613	0.083034
	C7169	C	0.761644	0.790822	0.144303
	C7170	C	0.508478	0.749240	0.208639
	C7171	C	0.761549	0.807282	0.124123
	C7172	C	0.510828	0.792183	0.198666
	C7173	C	0.764298	0.852292	0.120496
	C7174	C	0.513202	0.807479	0.071627
	C7175	C	0.759421	0.746705	0.151637
	C7176	C	0.515069	0.845156	0.084300
	C7177	C	0.761623	0.782239	0.155439
	C7178	C	0.508664	0.757144	0.196016
	C7179	C	0.761766	0.816093	0.113579
	C7180	C	0.511365	0.783208	0.190244
	C7181	C	0.764865	0.843088	0.112617
	C7182	C	0.512812	0.816682	0.079509
	C7183	C	0.759168	0.755682	0.160130
	H7184	H	0.672689	0.857218	0.085767
	H7185	H	0.920610	0.792685	0.145019
	H7186	H	0.667545	0.749093	0.211292
	H7187	H	0.920592	0.807151	0.127271
	H7188	H	0.851608	0.792468	0.201269
	H7189	H	0.604364	0.852612	0.123478
	H7190	H	0.853571	0.805437	0.073462
	H7191	H	0.600193	0.744947	0.152623
	H7192	H	0.849358	0.747569	0.208690
	H7193	H	0.602305	0.805440	0.123482
	H7194	H	0.852370	0.856384	0.080601
	H7195	H	0.602361	0.790992	0.141229
	H7196	H	0.673020	0.807177	0.068633
	H7197	H	0.918829	0.746473	0.148810
	H7198	H	0.669931	0.793932	0.197821
	H7199	H	0.924147	0.854192	0.119199
	O7200	O	0.095862	0.841543	0.222739
	O7201	O	0.342309	0.786032	0.312741
	O7202	O	0.089401	0.768095	0.345251
	O7203	O	0.343240	0.822930	0.253925
	O7204	O	0.422933	0.786987	0.340570
	O7205	O	0.176619	0.841963	0.249956
	O7206	O	0.424304	0.821521	0.226301
	O7207	O	0.170783	0.766312	0.317578
	O7208	O	0.420602	0.767706	0.344691
	O7209	O	0.174356	0.822500	0.253238
	O7210	O	0.427407	0.841195	0.222006
	O7211	O	0.173401	0.785584	0.312105
	O7212	O	0.093535	0.821844	0.225617
	O7213	O	0.339809	0.766693	0.316754
	O7214	O	0.092530	0.787399	0.339727
	O7215	O	0.345840	0.842370	0.249066
	F7216	F	0.006785	0.776324	0.318806
	F7217	F	0.260413	0.831584	0.227824
	F7218	F	0.010039	0.832244	0.247720
	F7219	F	0.256430	0.777358	0.338539
	Al7220	Al	0.131657	0.776829	0.328679
	Al7221	Al	0.385288	0.831937	0.237739
	Al7222	Al	0.135260	0.831902	0.237744
	Al7223	Al	0.381423	0.776826	0.328660
	C7224	C	0.101483	0.857959	0.202890
	C7225	C	0.347845	0.801093	0.289782
	C7226	C	0.094182	0.753854	0.369753
	C7227	C	0.348072	0.808458	0.278066
	C7228	C	0.416751	0.803455	0.357125
	C7229	C	0.170497	0.858464	0.266425
	C7230	C	0.419826	0.804514	0.211224
	C7231	C	0.166465	0.749348	0.302404
	C7232	C	0.415098	0.752947	0.368257
	C7233	C	0.168819	0.807405	0.276195
	C7234	C	0.422449	0.856962	0.200529
	C7235	C	0.168590	0.800044	0.287902
	C7236	C	0.099646	0.805336	0.209291
	C7237	C	0.346057	0.750230	0.300283
	C7238	C	0.096589	0.804407	0.354843
	C7239	C	0.349938	0.859545	0.263650
	C7240	C	0.011754	0.853291	0.206847
	C7241	C	0.258068	0.796803	0.294832
	C7242	C	0.004563	0.757085	0.362876
	C7243	C	0.258488	0.811724	0.271188
	C7244	C	0.007301	0.799648	0.352029
	C7245	C	0.260562	0.854701	0.261171
	C7246	C	0.009442	0.809199	0.214196
	C7247	C	0.255853	0.754055	0.305310
	C7248	C	0.011483	0.844690	0.217961
	C7249	C	0.257858	0.788924	0.307505
	C7250	C	0.004781	0.764830	0.349956
	C7251	C	0.258677	0.819608	0.258524
	C7252	C	0.007927	0.790708	0.343457
	C7253	C	0.261104	0.845700	0.252732
	C7254	C	0.009038	0.818157	0.222708
	C7255	C	0.255361	0.762998	0.313862
	H7256	H	0.170958	0.855221	0.207745
	H7257	H	0.417095	0.798644	0.295133
	H7258	H	0.163697	0.757046	0.365732
	H7259	H	0.417494	0.811754	0.274233
	H7260	H	0.347519	0.799827	0.354940
	H7261	H	0.101438	0.854737	0.264536
	H7262	H	0.350361	0.807478	0.215058
	H7263	H	0.096885	0.752240	0.306360
	H7264	H	0.345861	0.755405	0.362989
	H7265	H	0.099385	0.809810	0.270885
	H7266	H	0.353008	0.853364	0.203429
	H7267	H	0.099087	0.796751	0.291665
	H7268	H	0.168772	0.808962	0.211503
	H7269	H	0.415156	0.753851	0.302507
	H7270	H	0.166183	0.801544	0.350801
	H7271	H	0.419484	0.856698	0.259467
	O7272	O	0.596430	0.841602	0.222742
	O7273	O	0.842517	0.786088	0.312782
	O7274	O	0.589514	0.768101	0.345257
	O7275	O	0.842654	0.822948	0.253941
	O7276	O	0.923578	0.787008	0.340548
	O7277	O	0.677235	0.841941	0.250029
	O7278	O	0.924443	0.821505	0.226348
	O7279	O	0.670578	0.766296	0.317675
	O7280	O	0.920487	0.767660	0.344578
	O7281	O	0.673821	0.822496	0.253266
	O7282	O	0.926970	0.841100	0.221877
	O7283	O	0.673585	0.785590	0.312067
	O7284	O	0.593308	0.821919	0.225442
	O7285	O	0.839667	0.766713	0.316718
	O7286	O	0.591999	0.787423	0.339604
	O7287	O	0.846184	0.842404	0.249027
	F7288	F	0.506473	0.776285	0.318836
	F7289	F	0.760333	0.831570	0.227839
	F7290	F	0.510159	0.832278	0.247664
	F7291	F	0.756530	0.777400	0.338477
	Al7292	Al	0.631492	0.776856	0.328666
	Al7293	Al	0.885383	0.831906	0.237776
	Al7294	Al	0.635337	0.831911	0.237743
	Al7295	Al	0.881767	0.776852	0.328611
	C7296	C	0.601622	0.858066	0.203001
	C7297	C	0.847684	0.801101	0.289718
	C7298	C	0.594264	0.753815	0.369756
	C7299	C	0.847647	0.808464	0.278003
	C7300	C	0.917102	0.803461	0.357067
	C7301	C	0.670999	0.858477	0.266372
	C7302	C	0.919982	0.804513	0.211231
	C7303	C	0.666370	0.749348	0.302405
	C7304	C	0.914722	0.752957	0.368290
	C7305	C	0.668398	0.807410	0.276239
	C7306	C	0.922193	0.856926	0.200473
	C7307	C	0.668440	0.800048	0.287945
	C7308	C	0.599565	0.805332	0.209314
	C7309	C	0.846086	0.750254	0.300324
	C7310	C	0.596367	0.804372	0.354861
	C7311	C	0.850361	0.859551	0.263649
	C7312	C	0.512038	0.853348	0.206903
	C7313	C	0.758067	0.796814	0.294834
	C7314	C	0.504824	0.757087	0.362899
	C7315	C	0.758043	0.811711	0.271145
	C7316	C	0.506906	0.799640	0.352038
	C7317	C	0.761057	0.854699	0.261128
	C7318	C	0.509324	0.809214	0.214143
	C7319	C	0.755856	0.754073	0.305310
	C7320	C	0.511940	0.844780	0.218049
	C7321	C	0.758064	0.788945	0.307502
	C7322	C	0.504981	0.764835	0.349981
	C7323	C	0.758179	0.819607	0.258517
	C7324	C	0.507341	0.790707	0.343415
	C7325	C	0.761553	0.845705	0.252755
	C7326	C	0.508896	0.818186	0.222633
	C7327	C	0.755171	0.763011	0.313871
	H7328	H	0.671037	0.855379	0.207955
	H7329	H	0.917048	0.798655	0.295018
	H7330	H	0.663739	0.756992	0.365715
	H7331	H	0.917065	0.811770	0.274171
	H7332	H	0.847980	0.799828	0.354869
	H7333	H	0.601973	0.854752	0.264481
	H7334	H	0.850405	0.807471	0.215033
	H7335	H	0.596709	0.752242	0.306363
	H7336	H	0.845360	0.755419	0.363038
	H7337	H	0.598923	0.809834	0.270980
	H7338	H	0.852717	0.853328	0.203345
	H7339	H	0.598968	0.796761	0.291749
	H7340	H	0.668565	0.808960	0.211567
	H7341	H	0.915325	0.753861	0.302545
	H7342	H	0.665897	0.801490	0.350811
	H7343	H	0.920009	0.856712	0.259497
	O7344	O	0.092254	0.848529	0.375261
	O7345	O	0.337894	0.794258	0.467647
	O7346	O	0.085831	0.776372	0.500291
	O7347	O	0.339768	0.830508	0.407641
	O7348	O	0.418725	0.795444	0.495487
	O7349	O	0.172886	0.849602	0.402877
	O7350	O	0.420726	0.828838	0.380063
	O7351	O	0.167102	0.774724	0.472643
	O7352	O	0.416577	0.776051	0.499786
	O7353	O	0.170847	0.830271	0.407280
	O7354	O	0.423252	0.848165	0.374737
	O7355	O	0.169072	0.794015	0.467357
	O7356	O	0.089741	0.829173	0.379391
	O7357	O	0.336026	0.774994	0.472021
	O7358	O	0.088081	0.795624	0.495149
	O7359	O	0.342039	0.849814	0.402420
	F7360	F	0.002717	0.784655	0.473952
	F7361	F	0.256525	0.838818	0.381346
	F7362	F	0.006231	0.839860	0.401090
	F7363	F	0.252506	0.785739	0.493659
	Al7364	Al	0.127646	0.785188	0.483822
	Al7365	Al	0.381393	0.839348	0.391205
	Al7366	Al	0.131388	0.839350	0.391198
	Al7367	Al	0.377495	0.785208	0.483777
	C7368	C	0.097670	0.863563	0.352168
	C7369	C	0.343767	0.808866	0.443834
	C7370	C	0.090208	0.761960	0.524481
	C7371	C	0.344185	0.816106	0.431870
	C7372	C	0.412973	0.812106	0.511352
	C7373	C	0.167120	0.866130	0.419079
	C7374	C	0.416099	0.811826	0.364992
	C7375	C	0.162169	0.757872	0.457088
	C7376	C	0.410962	0.761031	0.522906
	C7377	C	0.164789	0.815651	0.431151
	C7378	C	0.418514	0.862527	0.350401
	C7379	C	0.164370	0.808426	0.443105
	C7380	C	0.095849	0.812781	0.362717
	C7381	C	0.341789	0.758408	0.455935
	C7382	C	0.092539	0.812412	0.510908
	C7383	C	0.346598	0.866714	0.417847
	C7384	C	0.007931	0.859264	0.357270
	C7385	C	0.253791	0.804944	0.449580
	C7386	C	0.000841	0.765255	0.517661
	C7387	C	0.254699	0.819601	0.425430
	C7388	C	0.002990	0.807999	0.507119
	C7389	C	0.257185	0.862180	0.414434
	C7390	C	0.005714	0.816540	0.367902
	C7391	C	0.251754	0.762369	0.460569
	C7392	C	0.007913	0.851426	0.370013
	C7393	C	0.253540	0.797199	0.462491
	C7394	C	0.001172	0.773124	0.504978
	C7395	C	0.255147	0.827332	0.412489
	C7396	C	0.003516	0.799048	0.498592
	C7397	C	0.257501	0.853231	0.405891
	C7398	C	0.005347	0.825480	0.376493
	C7399	C	0.251538	0.771332	0.469094
	H7400	H	0.167155	0.861137	0.357478
	H7401	H	0.413011	0.806215	0.448832
	H7402	H	0.159687	0.765205	0.520621
	H7403	H	0.413777	0.819106	0.427481
	H7404	H	0.343743	0.808716	0.508462
	H7405	H	0.097966	0.862628	0.416547
	H7406	H	0.346457	0.814718	0.368960
	H7407	H	0.092815	0.760940	0.460642
	H7408	H	0.341659	0.763518	0.517702
	H7409	H	0.095445	0.818257	0.426208
	H7410	H	0.349048	0.859220	0.354181
	H7411	H	0.094665	0.805449	0.447424
	H7412	H	0.164821	0.816450	0.364818
	H7413	H	0.410888	0.761906	0.458527
	H7414	H	0.162109	0.809271	0.507646
	H7415	H	0.416208	0.863692	0.414284
	O7416	O	0.592157	0.848507	0.375185
	O7417	O	0.837899	0.794242	0.467630
	O7418	O	0.585529	0.776386	0.500306
	O7419	O	0.839331	0.830545	0.407707
	O7420	O	0.919133	0.795461	0.495391
	O7421	O	0.672871	0.849559	0.402900
	O7422	O	0.920786	0.828823	0.380133
	O7423	O	0.666992	0.774712	0.472609
	O7424	O	0.916920	0.776057	0.499782
	O7425	O	0.670456	0.830267	0.407249
	O7426	O	0.923443	0.848121	0.374626
	O7427	O	0.668956	0.794067	0.467433
	O7428	O	0.589732	0.829206	0.379212
	O7429	O	0.836087	0.774935	0.472138
	O7430	O	0.587808	0.795617	0.495161
	O7431	O	0.841949	0.849864	0.402320
	F7432	F	0.502639	0.784685	0.473978
	F7433	F	0.756686	0.838839	0.381347
	F7434	F	0.506398	0.839870	0.401009
	F7435	F	0.752598	0.785720	0.493640
	Al7436	Al	0.627512	0.785187	0.483859
	Al7437	Al	0.881557	0.839345	0.391217
	Al7438	Al	0.631430	0.839349	0.391133
	Al7439	Al	0.877703	0.785188	0.483769
	C7440	C	0.597833	0.863577	0.352232
	C7441	C	0.843668	0.808879	0.443829
	C7442	C	0.590166	0.761964	0.524484
	C7443	C	0.843815	0.816128	0.431884
	C7444	C	0.912921	0.812100	0.511343
	C7445	C	0.667040	0.866123	0.419100
	C7446	C	0.916302	0.811838	0.364932
	C7447	C	0.662473	0.757853	0.457042
	C7448	C	0.911096	0.761038	0.522842
	C7449	C	0.664473	0.815649	0.431153
	C7450	C	0.918147	0.862535	0.350436
	C7451	C	0.664281	0.808417	0.443092
	C7452	C	0.595680	0.812742	0.362735
	C7453	C	0.841875	0.758399	0.455955
	C7454	C	0.592688	0.812409	0.510956
	C7455	C	0.846566	0.866708	0.417806
	C7456	C	0.508075	0.859281	0.357329
	C7457	C	0.753858	0.804952	0.449584
	C7458	C	0.500639	0.765261	0.517702
	C7459	C	0.754238	0.819597	0.425407
	C7460	C	0.503108	0.807990	0.507179
	C7461	C	0.757056	0.862132	0.414521
	C7462	C	0.505645	0.816542	0.367864
	C7463	C	0.751858	0.762393	0.460468
	C7464	C	0.507776	0.851429	0.370016
	C7465	C	0.753551	0.797208	0.462498
	C7466	C	0.500918	0.773113	0.504980
	C7467	C	0.754688	0.827356	0.412515
	C7468	C	0.503286	0.799041	0.498625
	C7469	C	0.757326	0.853210	0.405925
	C7470	C	0.505276	0.825500	0.376380
	C7471	C	0.751516	0.771325	0.469059
	H7472	H	0.667330	0.861151	0.357537
	H7473	H	0.912932	0.806239	0.448784
	H7474	H	0.659610	0.765215	0.520586
	H7475	H	0.913272	0.819156	0.427508
	H7476	H	0.843707	0.808712	0.508452
	H7477	H	0.597764	0.862637	0.416562
	H7478	H	0.846656	0.814738	0.368877
	H7479	H	0.592911	0.760887	0.460555
	H7480	H	0.841896	0.763530	0.517600
	H7481	H	0.595039	0.818253	0.426228
	H7482	H	0.848533	0.859264	0.354297
	H7483	H	0.594640	0.805409	0.447395
	H7484	H	0.664900	0.816386	0.364842
	H7485	H	0.911029	0.761875	0.458552
	H7486	H	0.662257	0.809252	0.507730
	H7487	H	0.916088	0.863691	0.414185
	O7488	O	0.087894	0.856728	0.530159
	O7489	O	0.334023	0.801923	0.621582
	O7490	O	0.081954	0.783286	0.652824
	O7491	O	0.335875	0.838808	0.562715
	O7492	O	0.414741	0.802720	0.649312
	O7493	O	0.168589	0.857987	0.557896
	O7494	O	0.417310	0.837275	0.534967
	O7495	O	0.162835	0.782234	0.625746
	O7496	O	0.412939	0.783068	0.652442
	O7497	O	0.166922	0.838596	0.562430
	O7498	O	0.418841	0.856599	0.530005
	O7499	O	0.165177	0.801692	0.621191
	O7500	O	0.086468	0.837418	0.534724
	O7501	O	0.331955	0.782529	0.625167
	O7502	O	0.084150	0.802942	0.648846
	O7503	O	0.337629	0.858129	0.557606
	F7504	F	-0.001140	0.792276	0.627284
	F7505	F	0.252522	0.847163	0.536464
	F7506	F	0.002455	0.848210	0.556194
	F7507	F	0.248535	0.792993	0.647163
	Al7508	Al	0.123642	0.792622	0.637228
	Al7509	Al	0.377457	0.847687	0.546333
	Al7510	Al	0.127476	0.847694	0.546328
	Al7511	Al	0.373668	0.792630	0.637250
	C7512	C	0.093715	0.871210	0.506051
	C7513	C	0.340059	0.816805	0.598239
	C7514	C	0.086329	0.767371	0.673854
	C7515	C	0.340414	0.824178	0.586548
	C7516	C	0.409230	0.819416	0.665165
	C7517	C	0.163148	0.874661	0.573750
	C7518	C	0.412434	0.820490	0.519185
	C7519	C	0.158392	0.765153	0.610895
	C7520	C	0.407527	0.766816	0.672673
	C7521	C	0.161111	0.823757	0.585813
	C7522	C	0.414212	0.871068	0.505867
	C7523	C	0.160719	0.816387	0.597500
	C7524	C	0.091957	0.820787	0.518769
	C7525	C	0.337900	0.765954	0.609003
	C7526	C	0.089164	0.819862	0.664284
	C7527	C	0.342769	0.874885	0.573460
	C7528	C	0.003798	0.867429	0.512064
	C7529	C	0.250169	0.812837	0.603881
	C7530	C	-0.003224	0.771253	0.668150
	C7531	C	0.250951	0.827738	0.580203
	C7532	C	-0.000458	0.815351	0.660806
	C7533	C	0.253118	0.870511	0.569592
	C7534	C	0.001947	0.824888	0.522993
	C7535	C	0.247766	0.769846	0.613850
	C7536	C	0.003529	0.859705	0.524998
	C7537	C	0.249780	0.804933	0.616494
	C7538	C	-0.002626	0.779829	0.656975
	C7539	C	0.251266	0.835600	0.567504
	C7540	C	-0.000263	0.806369	0.652330
	C7541	C	0.253200	0.861573	0.561041
	C7542	C	0.001845	0.833836	0.531540
	C7543	C	0.247452	0.778844	0.622258
	H7544	H	0.163089	0.868463	0.510788
	H7545	H	0.409357	0.814094	0.603068
	H7546	H	0.155825	0.770745	0.670395
	H7547	H	0.410074	0.827213	0.582291
	H7548	H	0.340027	0.815961	0.662496
	H7549	H	0.093873	0.871298	0.570811
	H7550	H	0.342868	0.823637	0.522389
	H7551	H	0.088724	0.768103	0.614671
	H7552	H	0.338290	0.769743	0.668244
	H7553	H	0.091856	0.826439	0.580954
	H7554	H	0.344648	0.868182	0.510412
	H7555	H	0.091215	0.813329	0.601733
	H7556	H	0.161134	0.824190	0.521607
	H7557	H	0.406954	0.769578	0.611212
	H7558	H	0.158803	0.816762	0.660906
	H7559	H	0.412327	0.871701	0.570290
	O7560	O	0.587746	0.856662	0.530036
	O7561	O	0.834065	0.801929	0.621480
	O7562	O	0.582009	0.783335	0.652900
	O7563	O	0.835682	0.838783	0.562636
	O7564	O	0.915162	0.802750	0.649294
	O7565	O	0.668413	0.858015	0.557818
	O7566	O	0.917399	0.837276	0.534960
	O7567	O	0.662955	0.782259	0.625793
	O7568	O	0.912993	0.783104	0.652447
	O7569	O	0.666771	0.838672	0.562484
	O7570	O	0.918954	0.856575	0.529943
	O7571	O	0.665144	0.801705	0.621192
	O7572	O	0.586310	0.837422	0.534728
	O7573	O	0.831992	0.782532	0.625149
	O7574	O	0.583891	0.802941	0.648876
	O7575	O	0.837510	0.858119	0.557652
	F7576	F	0.498716	0.792266	0.627326
	F7577	F	0.752668	0.847166	0.536488
	F7578	F	0.502366	0.848218	0.556153
	F7579	F	0.748790	0.793023	0.647136
	Al7580	Al	0.623731	0.792628	0.637266
	Al7581	Al	0.877615	0.847692	0.546363
	Al7582	Al	0.627465	0.847696	0.546306
	Al7583	Al	0.873853	0.792639	0.637185
	C7584	C	0.593568	0.871213	0.506074
	C7585	C	0.839729	0.816837	0.598217
	C7586	C	0.586686	0.767394	0.673892
	C7587	C	0.840114	0.824212	0.586522
	C7588	C	0.909401	0.819407	0.665188
	C7589	C	0.663000	0.874657	0.573762
	C7590	C	0.912391	0.820479	0.519212
	C7591	C	0.658308	0.765161	0.610891
	C7592	C	0.906982	0.766815	0.672625
	C7593	C	0.661052	0.823775	0.585810
	C7594	C	0.914212	0.871064	0.505860
	C7595	C	0.660645	0.816404	0.597496
	C7596	C	0.592150	0.820791	0.518795
	C7597	C	0.837606	0.765989	0.608872
	C7598	C	0.588903	0.819828	0.664340
	C7599	C	0.842411	0.874890	0.573478
	C7600	C	0.503700	0.867443	0.512103
	C7601	C	0.750081	0.812837	0.603817
	C7602	C	0.497181	0.771254	0.668159
	C7603	C	0.750741	0.827769	0.580183
	C7604	C	0.499269	0.815341	0.660851
	C7605	C	0.752866	0.870518	0.569602
	C7606	C	0.502054	0.824886	0.523014
	C7607	C	0.747603	0.769884	0.613767
	C7608	C	0.503432	0.859692	0.524999
	C7609	C	0.749712	0.804939	0.616441
	C7610	C	0.497365	0.779831	0.656998
	C7611	C	0.751051	0.835624	0.567490
	C7612	C	0.499314	0.806344	0.652381
	C7613	C	0.753031	0.861570	0.561042
	C7614	C	0.501812	0.833836	0.531553
	C7615	C	0.747437	0.778864	0.622246
	H7616	H	0.662860	0.868451	0.510795
	H7617	H	0.908966	0.814150	0.603060
	H7618	H	0.656086	0.770789	0.670489
	H7619	H	0.909447	0.827251	0.582266
	H7620	H	0.840133	0.815934	0.662559
	H7621	H	0.593830	0.871295	0.570788
	H7622	H	0.842829	0.823632	0.522423
	H7623	H	0.588691	0.768079	0.614759
	H7624	H	0.837690	0.769728	0.668156
	H7625	H	0.591836	0.826455	0.580957
	H7626	H	0.844526	0.868195	0.510425
	H7627	H	0.591039	0.813354	0.601761
	H7628	H	0.661418	0.824184	0.521685
	H7629	H	0.906858	0.769588	0.611061
	H7630	H	0.658337	0.816690	0.660984
	H7631	H	0.911809	0.871710	0.570285
	O7632	O	0.084378	0.864392	0.683947
	O7633	O	0.331114	0.805150	0.765884
	O7634	O	0.078149	0.783694	0.790563
	O7635	O	0.332405	0.845819	0.715349
	O7636	O	0.411938	0.804083	0.792831
	O7637	O	0.165086	0.865280	0.711654
	O7638	O	0.413730	0.844788	0.688161
	O7639	O	0.159292	0.784914	0.765866
	O7640	O	0.408749	0.783314	0.789602
	O7641	O	0.163354	0.845595	0.714963
	O7642	O	0.415577	0.864231	0.683734
	O7643	O	0.162342	0.804856	0.765243
	O7644	O	0.082594	0.844981	0.687789
	O7645	O	0.328451	0.785303	0.765108
	O7646	O	0.080777	0.804531	0.791930
	O7647	O	0.334169	0.865427	0.711387
	F7648	F	-0.004636	0.795222	0.768712
	F7649	F	0.249163	0.854779	0.689751
	F7650	F	-0.000965	0.855500	0.709667
	F7651	F	0.245097	0.794221	0.789114
	Al7652	Al	0.120260	0.794714	0.779015
	Al7653	Al	0.374097	0.855136	0.699709
	Al7654	Al	0.123993	0.855131	0.699731
	Al7655	Al	0.370166	0.794677	0.779033
	C7656	C	0.090163	0.879261	0.660582
	C7657	C	0.336741	0.821699	0.746247
	C7658	C	0.087554	0.764225	0.793155
	C7659	C	0.336948	0.829830	0.736259
	C7660	C	0.405593	0.821114	0.808127
	C7661	C	0.159331	0.881944	0.727592
	C7662	C	0.408956	0.827843	0.672855
	C7663	C	0.154635	0.767449	0.752096
	C7664	C	0.407189	0.763778	0.790670
	C7665	C	0.157614	0.829365	0.735338
	C7666	C	0.410939	0.878967	0.660073
	C7667	C	0.157388	0.821229	0.745329
	C7668	C	0.088610	0.828290	0.671992
	C7669	C	0.334705	0.768216	0.749972
	C7670	C	0.084935	0.822042	0.805593
	C7671	C	0.338939	0.882314	0.726876
	C7672	C	0.000288	0.875334	0.666310
	C7673	C	0.247111	0.817263	0.750808
	C7674	C	-0.003882	0.768977	0.791990
	C7675	C	0.247385	0.833737	0.730630
	C7676	C	-0.004579	0.817101	0.803435
	C7677	C	0.249362	0.877837	0.723309
	C7678	C	-0.001572	0.832358	0.676333
	C7679	C	0.244346	0.772325	0.754424
	C7680	C	0.000096	0.867423	0.678937
	C7681	C	0.246878	0.808476	0.761457
	C7682	C	-0.005767	0.779439	0.790653
	C7683	C	0.247732	0.842319	0.719463
	C7684	C	-0.004029	0.807930	0.795420
	C7685	C	0.249652	0.868867	0.714807
	C7686	C	-0.001858	0.841348	0.684764
	C7687	C	0.244044	0.781513	0.762375
	H7688	H	0.159559	0.876514	0.665309
	H7689	H	0.406266	0.818743	0.750540
	H7690	H	0.156603	0.768153	0.794219
	H7691	H	0.406484	0.833177	0.732773
	H7692	H	0.336111	0.817340	0.806593
	H7693	H	0.089935	0.878520	0.724894
	H7694	H	0.339409	0.830952	0.676187
	H7695	H	0.084560	0.770497	0.755666
	H7696	H	0.336304	0.767375	0.789665
	H7697	H	0.088326	0.832351	0.731052
	H7698	H	0.341373	0.875966	0.664386
	H7699	H	0.087947	0.817875	0.748874
	H7700	H	0.157828	0.831762	0.674649
	H7701	H	0.404394	0.771901	0.751802
	H7702	H	0.155004	0.819050	0.801854
	H7703	H	0.408527	0.879187	0.723579
	O7704	O	0.584325	0.864402	0.683927
	O7705	O	0.830734	0.805147	0.765780
	O7706	O	0.578059	0.783684	0.790573
	O7707	O	0.831845	0.845799	0.715354
	O7708	O	0.911679	0.804109	0.792744
	O7709	O	0.665051	0.865267	0.711732
	O7710	O	0.913500	0.844758	0.688233
	O7711	O	0.659024	0.784934	0.765826
	O7712	O	0.908870	0.783355	0.789493
	O7713	O	0.662787	0.845599	0.714968
	O7714	O	0.915555	0.864225	0.683740
	O7715	O	0.661872	0.804876	0.765311
	O7716	O	0.582806	0.844988	0.687743
	O7717	O	0.828238	0.785284	0.765047
	O7718	O	0.581177	0.804485	0.792025
	O7719	O	0.834011	0.865458	0.711429
	F7720	F	0.495228	0.795204	0.768792
	F7721	F	0.749266	0.854786	0.689836
	F7722	F	0.498887	0.855506	0.709604
	F7723	F	0.745366	0.794218	0.789031
	Al7724	Al	0.620106	0.794693	0.779029
	Al7725	Al	0.874067	0.855127	0.699794
	Al7726	Al	0.624006	0.855139	0.699712
	Al7727	Al	0.870634	0.794709	0.778902
	C7728	C	0.590344	0.879278	0.660580
	C7729	C	0.836262	0.821714	0.746298
	C7730	C	0.587335	0.764203	0.793235
	C7731	C	0.836446	0.829843	0.736306
	C7732	C	0.905086	0.821143	0.808109
	C7733	C	0.659086	0.881950	0.727603
	C7734	C	0.908812	0.827836	0.672896
	C7735	C	0.654389	0.767415	0.752171
	C7736	C	0.907197	0.763796	0.790676
	C7737	C	0.657029	0.829345	0.735285
	C7738	C	0.910680	0.878971	0.660094
	C7739	C	0.656873	0.821209	0.745280
	C7740	C	0.588489	0.828257	0.672029
	C7741	C	0.834325	0.768231	0.749922
	C7742	C	0.585389	0.822038	0.805501
	C7743	C	0.838792	0.882336	0.726882
	C7744	C	0.500423	0.875347	0.666333
	C7745	C	0.746522	0.817294	0.750879
	C7746	C	0.495924	0.768961	0.792029
	C7747	C	0.746775	0.833757	0.730686
	C7748	C	0.495813	0.817100	0.803403
	C7749	C	0.749179	0.877845	0.723319
	C7750	C	0.498552	0.832352	0.676329
	C7751	C	0.744029	0.772288	0.754504
	C7752	C	0.500040	0.867448	0.678939
	C7753	C	0.746355	0.808489	0.761485
	C7754	C	0.494078	0.779418	0.790686
	C7755	C	0.747112	0.842334	0.719518
	C7756	C	0.496383	0.807885	0.795528
	C7757	C	0.749491	0.868888	0.714845
	C7758	C	0.498243	0.841356	0.684718
	C7759	C	0.743713	0.781516	0.762349
	H7760	H	0.659796	0.876527	0.665300
	H7761	H	0.905819	0.818745	0.750542
	H7762	H	0.656211	0.768146	0.794329
	H7763	H	0.906133	0.833177	0.732786
	H7764	H	0.835534	0.817403	0.806486
	H7765	H	0.589800	0.878520	0.724871
	H7766	H	0.839245	0.830938	0.676295
	H7767	H	0.584404	0.770481	0.755683
	H7768	H	0.836349	0.767402	0.789671
	H7769	H	0.587703	0.832295	0.730904
	H7770	H	0.841089	0.875967	0.664430
	H7771	H	0.587455	0.817810	0.748714
	H7772	H	0.657704	0.831713	0.674691
	H7773	H	0.903775	0.771964	0.751603
	H7774	H	0.655400	0.819045	0.801761
	H7775	H	0.908462	0.879220	0.723560
	O7776	O	0.081378	0.867628	0.828361
	O7777	O	0.338189	0.797473	0.856668
	O7778	O	0.085014	0.774213	0.875506
	O7779	O	0.328373	0.846192	0.853049
	O7780	O	0.418730	0.794742	0.880412
	O7781	O	0.162240	0.866650	0.855228
	O7782	O	0.409384	0.847401	0.828342
	O7783	O	0.166481	0.776445	0.851283
	O7784	O	0.415688	0.773999	0.874641
	O7785	O	0.158981	0.845838	0.852146
	O7786	O	0.412314	0.867359	0.827701
	O7787	O	0.168959	0.797154	0.855636
	O7788	O	0.078522	0.847766	0.827703
	O7789	O	0.335668	0.776739	0.850785
	O7790	O	0.087605	0.795023	0.879870
	O7791	O	0.331384	0.867027	0.854401
	F7792	F	0.002205	0.786785	0.855382
	F7793	F	0.245429	0.857668	0.831252
	F7794	F	-0.004304	0.856748	0.851744
	F7795	F	0.251808	0.784628	0.875870
	Al7796	Al	0.127062	0.785708	0.865660
	Al7797	Al	0.370216	0.857190	0.841481
	Al7798	Al	0.120397	0.857198	0.841560
	Al7799	Al	0.376941	0.785729	0.865680
	C7800	C	0.087027	0.884185	0.808872
	C7801	C	0.340005	0.817037	0.855612
	C7802	C	0.093639	0.754736	0.876608
	C7803	C	0.337625	0.826732	0.855723
	C7804	C	0.412192	0.812260	0.894599
	C7805	C	0.156330	0.883655	0.870538
	C7806	C	0.404928	0.829851	0.814827
	C7807	C	0.161718	0.758709	0.838051
	C7808	C	0.413249	0.754481	0.874389
	C7809	C	0.157395	0.826300	0.853049
	C7810	C	0.407721	0.883672	0.807648
	C7811	C	0.159815	0.816603	0.852947
	C7812	C	0.084463	0.830763	0.812378
	C7813	C	0.341652	0.759365	0.836144
	C7814	C	0.091885	0.812924	0.892610
	C7815	C	0.335949	0.884575	0.867939
	C7816	C	-0.002805	0.879741	0.813353
	C7817	C	0.251212	0.811854	0.854257
	C7818	C	0.002339	0.759527	0.875963
	C7819	C	0.246249	0.831484	0.854476
	C7820	C	0.002376	0.807912	0.890618
	C7821	C	0.246467	0.879633	0.865817
	C7822	C	-0.005805	0.834802	0.817032
	C7823	C	0.251454	0.763646	0.840225
	C7824	C	-0.002962	0.870946	0.823954
	C7825	C	0.253034	0.801396	0.855557
	C7826	C	0.000844	0.769991	0.875429
	C7827	C	0.244341	0.841933	0.853185
	C7828	C	0.002853	0.798527	0.883162
	C7829	C	0.246715	0.870449	0.857880
	C7830	C	-0.005981	0.843996	0.824973
	C7831	C	0.251237	0.772966	0.847917
	H7832	H	0.156509	0.881236	0.813228
	H7833	H	0.410996	0.813442	0.856638
	H7834	H	0.162896	0.758599	0.877918
	H7835	H	0.406635	0.830668	0.856855
	H7836	H	0.342244	0.808516	0.893182
	H7837	H	0.086879	0.879899	0.868986
	H7838	H	0.334855	0.832855	0.818472
	H7839	H	0.091234	0.761883	0.841116
	H7840	H	0.342355	0.758100	0.873870
	H7841	H	0.086550	0.829891	0.851976
	H7842	H	0.338092	0.880281	0.810968
	H7843	H	0.090805	0.812681	0.851808
	H7844	H	0.154061	0.834494	0.814015
	H7845	H	0.411652	0.763071	0.837691
	H7846	H	0.162482	0.809785	0.889477
	H7847	H	0.405854	0.881582	0.864189
	O7848	O	0.581155	0.867615	0.828280
	O7849	O	0.838017	0.797491	0.856657
	O7850	O	0.585027	0.774258	0.875538
	O7851	O	0.827660	0.846153	0.853224
	O7852	O	0.918429	0.794697	0.880453
	O7853	O	0.661473	0.866670	0.855114
	O7854	O	0.909334	0.847428	0.828410
	O7855	O	0.665911	0.776431	0.851318
	O7856	O	0.915632	0.773953	0.874666
	O7857	O	0.658284	0.845828	0.852088
	O7858	O	0.912595	0.867342	0.827780
	O7859	O	0.668824	0.797111	0.855489
	O7860	O	0.578503	0.847793	0.827559
	O7861	O	0.835122	0.776698	0.850791
	O7862	O	0.587856	0.795111	0.879735
	O7863	O	0.830704	0.867004	0.854534
	F7864	F	0.502108	0.786810	0.855376
	F7865	F	0.745556	0.857665	0.831301
	F7866	F	0.495051	0.856750	0.851579
	F7867	F	0.751773	0.784634	0.875830
	Al7868	Al	0.627054	0.785727	0.865620
	Al7869	Al	0.870528	0.857188	0.841606
	Al7870	Al	0.620221	0.857190	0.841469
	Al7871	Al	0.877377	0.785713	0.865643
	C7872	C	0.587126	0.884210	0.808902
	C7873	C	0.839551	0.817021	0.855782
	C7874	C	0.593642	0.754781	0.876641
	C7875	C	0.836891	0.826714	0.855930
	C7876	C	0.911877	0.812209	0.894635
	C7877	C	0.655337	0.883713	0.870345
	C7878	C	0.904597	0.829866	0.814865
	C7879	C	0.661054	0.758714	0.838040
	C7880	C	0.913274	0.754420	0.874291
	C7881	C	0.656809	0.826265	0.852963
	C7882	C	0.907510	0.883640	0.807662
	C7883	C	0.659435	0.816574	0.852808
	C7884	C	0.584692	0.830772	0.812224
	C7885	C	0.841154	0.759368	0.836177
	C7886	C	0.592118	0.812988	0.892566
	C7887	C	0.835294	0.884478	0.868265
	C7888	C	0.497312	0.879758	0.813339
	C7889	C	0.750891	0.811836	0.854178
	C7890	C	0.502377	0.759585	0.875949
	C7891	C	0.745459	0.831454	0.854496
	C7892	C	0.502578	0.807985	0.890505
	C7893	C	0.745569	0.879622	0.865851
	C7894	C	0.494406	0.834793	0.816953
	C7895	C	0.750796	0.763642	0.840224
	C7896	C	0.496915	0.870960	0.823907
	C7897	C	0.752722	0.801381	0.855470
	C7898	C	0.500816	0.770045	0.875395
	C7899	C	0.743519	0.841911	0.853228
	C7900	C	0.503065	0.798598	0.883047
	C7901	C	0.745885	0.870439	0.857902
	C7902	C	0.494101	0.844007	0.824827
	C7903	C	0.750555	0.772948	0.847930
	H7904	H	0.656500	0.881258	0.813259
	H7905	H	0.910461	0.813439	0.856956
	H7906	H	0.662908	0.758643	0.877967
	H7907	H	0.905731	0.830646	0.857228
	H7908	H	0.841890	0.808480	0.893160
	H7909	H	0.585760	0.880007	0.868587
	H7910	H	0.834583	0.832867	0.818564
	H7911	H	0.590588	0.761881	0.841141
	H7912	H	0.842386	0.758038	0.873721
	H7913	H	0.585818	0.829856	0.851836
	H7914	H	0.837974	0.880245	0.811007
	H7915	H	0.590588	0.812628	0.851584
	H7916	H	0.654287	0.834532	0.813742
	H7917	H	0.911149	0.763084	0.837719
	H7918	H	0.662699	0.809848	0.889426
	H7919	H	0.905346	0.881424	0.864733
	O7920	O	0.088177	0.859911	0.918884
	O7921	O	0.343892	0.788118	0.938065
	O7922	O	0.090469	0.764920	0.956938
	O7923	O	0.334685	0.836758	0.938113
	O7924	O	0.424267	0.785259	0.961862
	O7925	O	0.168397	0.857323	0.942702
	O7926	O	0.416036	0.838930	0.913859
	O7927	O	0.171523	0.766993	0.932766
	O7928	O	0.421119	0.764599	0.955860
	O7929	O	0.165402	0.836472	0.937053
	O7930	O	0.419160	0.859650	0.918171
	O7931	O	0.174673	0.787823	0.937039
	O7932	O	0.085179	0.839252	0.913146
	O7933	O	0.340630	0.767314	0.932152
	O7934	O	0.093014	0.785644	0.961218
	O7935	O	0.337614	0.857589	0.942318
	F7936	F	0.007872	0.777435	0.936616
	F7937	F	0.252201	0.849293	0.917860
	F7938	F	0.002065	0.847157	0.938312
	F7939	F	0.257219	0.775252	0.957176
	Al7940	Al	0.132472	0.776354	0.946896
	Al7941	Al	0.376772	0.848220	0.928176
	Al7942	Al	0.127026	0.848229	0.928040
	Al7943	Al	0.382460	0.776336	0.946891
	C7944	C	0.090140	0.879500	0.917944
	C7945	C	0.345988	0.807641	0.938263
	C7946	C	0.099254	0.745482	0.959562
	C7947	C	0.343599	0.817309	0.939192
	C7948	C	0.417552	0.802634	0.976477
	C7949	C	0.161995	0.874777	0.957004
	C7950	C	0.411425	0.821213	0.900564
	C7951	C	0.166933	0.749161	0.919804
	C7952	C	0.419201	0.745058	0.956954
	C7953	C	0.163256	0.816952	0.936661
	C7954	C	0.410268	0.879101	0.915612
	C7955	C	0.165634	0.807300	0.935739
	C7956	C	0.091108	0.821879	0.898563
	C7957	C	0.346762	0.749813	0.917962
	C7958	C	0.097578	0.803342	0.974520
	C7959	C	0.342064	0.875442	0.955167
	C7960	C	0.001370	0.874311	0.916635
	C7961	C	0.257055	0.802514	0.936535
	C7962	C	0.007954	0.750240	0.958374
	C7963	C	0.252196	0.822078	0.938413
	C7964	C	0.007875	0.798396	0.972346
	C7965	C	0.252407	0.870488	0.952989
	C7966	C	0.000793	0.826145	0.902679
	C7967	C	0.256533	0.754119	0.921953
	C7968	C	0.003109	0.863860	0.917847
	C7969	C	0.258754	0.792058	0.937191
	C7970	C	0.006287	0.760695	0.957078
	C7971	C	0.250551	0.832532	0.937898
	C7972	C	0.008201	0.789074	0.964646
	C7973	C	0.252843	0.861119	0.945495
	C7974	C	0.000611	0.835482	0.910317
	C7975	C	0.256191	0.763489	0.929466
	H7976	H	0.161090	0.875908	0.918856
	H7977	H	0.416966	0.804024	0.938940
	H7978	H	0.168222	0.749405	0.960675
	H7979	H	0.412680	0.821186	0.940593
	H7980	H	0.347710	0.798874	0.975069
	H7981	H	0.092013	0.871058	0.955446
	H7982	H	0.340905	0.824357	0.903697
	H7983	H	0.096444	0.752329	0.922875
	H7984	H	0.348345	0.748652	0.955967
	H7985	H	0.092155	0.820556	0.936010
	H7986	H	0.341235	0.875175	0.914525
	H7987	H	0.096441	0.803423	0.934377
	H7988	H	0.161044	0.825618	0.900017
	H7989	H	0.416801	0.753504	0.919500
	H7990	H	0.168113	0.800179	0.971436
	H7991	H	0.412553	0.872266	0.952092
	O7992	O	0.588356	0.859949	0.919185
	O7993	O	0.843622	0.788118	0.937910
	O7994	O	0.590336	0.764921	0.956881
	O7995	O	0.834748	0.836728	0.938020
	O7996	O	0.923918	0.785239	0.961861
	O7997	O	0.668376	0.857256	0.942954
	O7998	O	0.915925	0.838992	0.913689
	O7999	O	0.671179	0.766971	0.932707
	O8000	O	0.921152	0.764649	0.956062
	O8001	O	0.665458	0.836455	0.937122
	O8002	O	0.918927	0.859627	0.917934
	O8003	O	0.674248	0.787805	0.936871
	O8004	O	0.585218	0.839272	0.913245
	O8005	O	0.840434	0.767250	0.932150
	O8006	O	0.593350	0.785645	0.961158
	O8007	O	0.837580	0.857614	0.942294
	F8008	F	0.507316	0.777461	0.936630
	F8009	F	0.751934	0.849314	0.917969
	F8010	F	0.501612	0.847126	0.938417
	F8011	F	0.757342	0.775275	0.957046
	Al8012	Al	0.632269	0.776362	0.946820
	Al8013	Al	0.877131	0.848228	0.928115
	Al8014	Al	0.626863	0.848216	0.928201
	Al8015	Al	0.882803	0.776346	0.946851
	C8016	C	0.590447	0.879533	0.918095
	C8017	C	0.845745	0.807599	0.938338
	C8018	C	0.599364	0.745474	0.959581
	C8019	C	0.843411	0.817262	0.939300
	C8020	C	0.917438	0.802641	0.976479
	C8021	C	0.661922	0.874747	0.957086
	C8022	C	0.911130	0.821167	0.900579
	C8023	C	0.666465	0.749116	0.919913
	C8024	C	0.919178	0.745066	0.956958
	C8025	C	0.663074	0.816925	0.936862
	C8026	C	0.910042	0.879083	0.915458
	C8027	C	0.665375	0.807272	0.935887
	C8028	C	0.591377	0.821935	0.898546
	C8029	C	0.846387	0.749797	0.918001
	C8030	C	0.597527	0.803377	0.974396
	C8031	C	0.841909	0.875463	0.955111
	C8032	C	0.501594	0.874343	0.916843
	C8033	C	0.756706	0.802488	0.936635
	C8034	C	0.508037	0.750229	0.958268
	C8035	C	0.752075	0.822048	0.938579
	C8036	C	0.507961	0.798408	0.972279
	C8037	C	0.752326	0.870479	0.953035
	C8038	C	0.501040	0.826182	0.902684
	C8039	C	0.756088	0.754080	0.921999
	C8040	C	0.503287	0.863883	0.918120
	C8041	C	0.758326	0.792037	0.937119
	C8042	C	0.506261	0.760678	0.956952
	C8043	C	0.750583	0.832511	0.937946
	C8044	C	0.508590	0.789086	0.964607
	C8045	C	0.752790	0.861098	0.945601
	C8046	C	0.500794	0.835482	0.910425
	C8047	C	0.755890	0.763455	0.929449
	H8048	H	0.661440	0.875941	0.919035
	H8049	H	0.916734	0.803983	0.938920
	H8050	H	0.668200	0.749412	0.960727
	H8051	H	0.912630	0.821145	0.940647
	H8052	H	0.847527	0.798905	0.974979
	H8053	H	0.592017	0.871002	0.955617
	H8054	H	0.840549	0.824321	0.903676
	H8055	H	0.596039	0.752274	0.923025
	H8056	H	0.848360	0.748663	0.955944
	H8057	H	0.592085	0.820531	0.936213
	H8058	H	0.840923	0.875168	0.914351
	H8059	H	0.596139	0.803416	0.934495
	H8060	H	0.661263	0.825681	0.900006
	H8061	H	0.916291	0.753510	0.919511
	H8062	H	0.668130	0.800232	0.971302
	H8063	H	0.912437	0.872308	0.951991
	O8064	O	0.088419	0.984973	0.044245
	O8065	O	0.343584	0.913101	0.063054
	O8066	O	0.089862	0.889928	0.081736
	O8067	O	0.334751	0.961764	0.063029
	O8068	O	0.423368	0.910265	0.086941
	O8069	O	0.168979	0.982236	0.067933
	O8070	O	0.416068	0.963940	0.038746
	O8071	O	0.171507	0.891991	0.057654
	O8072	O	0.420669	0.889617	0.081036
	O8073	O	0.165509	0.961461	0.062042
	O8074	O	0.419264	0.984633	0.042970
	O8075	O	0.174339	0.912832	0.061853
	O8076	O	0.085130	0.964264	0.038247
	O8077	O	0.340624	0.892299	0.057208
	O8078	O	0.092606	0.910664	0.086006
	O8079	O	0.338078	0.982636	0.067154
	F8080	F	0.007494	0.902435	0.061475
	F8081	F	0.252073	0.974297	0.042851
	F8082	F	0.002270	0.972123	0.063430
	F8083	F	0.256629	0.900259	0.082124
	Al8084	Al	0.132097	0.901365	0.071758
	Al8085	Al	0.377080	0.973224	0.053103
	Al8086	Al	0.127224	0.973210	0.053161
	Al8087	Al	0.382118	0.901331	0.071980
	C8088	C	0.090089	1.004550	0.043221
	C8089	C	0.345890	0.932617	0.063342
	C8090	C	0.099154	0.870470	0.084406
	C8091	C	0.343603	0.942273	0.064270
	C8092	C	0.417306	0.927685	0.101473
	C8093	C	0.162323	0.999731	0.082143
	C8094	C	0.411593	0.946193	0.025513
	C8095	C	0.166898	0.874136	0.044818
	C8096	C	0.419055	0.870063	0.081956
	C8097	C	0.163355	0.941961	0.061824
	C8098	C	0.410007	1.004063	0.040321
	C8099	C	0.165650	0.932295	0.060876
	C8100	C	0.091309	0.946889	0.023597
	C8101	C	0.346817	0.874804	0.042964
	C8102	C	0.097041	0.928345	0.099456
	C8103	C	0.342223	1.000495	0.079999
	C8104	C	0.001391	0.999352	0.041763
	C8105	C	0.256913	0.927504	0.061614
	C8106	C	0.007713	0.875213	0.083160
	C8107	C	0.252339	0.947073	0.063512
	C8108	C	0.007409	0.923377	0.097307
	C8109	C	0.252753	0.995486	0.078002
	C8110	C	0.000982	0.951145	0.027743
	C8111	C	0.256558	0.879091	0.046998
	C8112	C	0.003255	0.988900	0.043072
	C8113	C	0.258491	0.917047	0.062147
	C8114	C	0.005968	0.885667	0.081815
	C8115	C	0.250688	0.957529	0.062879
	C8116	C	0.007871	0.914064	0.089572
	C8117	C	0.253287	0.986101	0.070539
	C8118	C	0.000697	0.960472	0.035421
	C8119	C	0.256259	0.888477	0.054457
	H8120	H	0.161076	1.000965	0.044320
	H8121	H	0.416890	0.929005	0.063973
	H8122	H	0.168175	0.874398	0.085493
	H8123	H	0.412840	0.946142	0.065618
	H8124	H	0.347353	0.923949	0.100053
	H8125	H	0.092404	0.995977	0.080725
	H8126	H	0.341055	0.949357	0.028594
	H8127	H	0.096394	0.877318	0.047866
	H8128	H	0.348132	0.873642	0.080881
	H8129	H	0.092371	0.945579	0.061209
	H8130	H	0.341132	1.000125	0.039102
	H8131	H	0.096421	0.928423	0.059530
	H8132	H	0.161247	0.950626	0.025039
	H8133	H	0.416711	0.878533	0.044473
	H8134	H	0.167587	0.925199	0.096319
	H8135	H	0.412819	0.997387	0.076801
	O8136	O	0.588517	0.984949	0.044022
	O8137	O	0.842852	0.913123	0.062931
	O8138	O	0.589870	0.889949	0.082221
	O8139	O	0.834345	0.961735	0.063128
	O8140	O	0.923530	0.910212	0.086864
	O8141	O	0.668302	0.982272	0.067859
	O8142	O	0.915989	0.963969	0.038780
	O8143	O	0.670339	0.891926	0.057885
	O8144	O	0.920655	0.889588	0.080688
	O8145	O	0.665062	0.961482	0.062142
	O8146	O	0.919200	0.984633	0.043099
	O8147	O	0.673545	0.912824	0.062117
	O8148	O	0.585266	0.964255	0.038233
	O8149	O	0.839485	0.892323	0.056960
	O8150	O	0.592592	0.910633	0.086261
	O8151	O	0.837454	0.982648	0.067253
	F8152	F	0.507169	0.902425	0.061780
	F8153	F	0.752344	0.974294	0.042910
	F8154	F	0.501766	0.972141	0.063296
	F8155	F	0.757233	0.900231	0.082083
	Al8156	Al	0.632061	0.901328	0.071993
	Al8157	Al	0.877426	0.973213	0.053183
	Al8158	Al	0.627043	0.973225	0.053122
	Al8159	Al	0.882397	0.901332	0.071750
	C8160	C	0.590133	1.004515	0.043209
	C8161	C	0.845172	0.932628	0.063196
	C8162	C	0.599092	0.870499	0.084789
	C8163	C	0.843083	0.942284	0.064111
	C8164	C	0.917012	0.927624	0.101490
	C8165	C	0.661571	0.999718	0.082195
	C8166	C	0.911222	0.946184	0.025559
	C8167	C	0.665938	0.874073	0.045004
	C8168	C	0.918929	0.870020	0.081779
	C8169	C	0.662736	0.941961	0.061728
	C8170	C	0.909935	1.004094	0.040369
	C8171	C	0.664873	0.932298	0.060799
	C8172	C	0.591651	0.946890	0.023573
	C8173	C	0.845817	0.874833	0.042918
	C8174	C	0.597161	0.928396	0.099418
	C8175	C	0.841488	1.000494	0.080044
	C8176	C	0.501498	0.999324	0.041646
	C8177	C	0.756197	0.927513	0.061488
	C8178	C	0.507716	0.875250	0.083439
	C8179	C	0.751755	0.947075	0.063388
	C8180	C	0.507541	0.923415	0.097343
	C8181	C	0.751986	0.995488	0.078039
	C8182	C	0.501254	0.951143	0.027692
	C8183	C	0.755408	0.879084	0.046993
	C8184	C	0.503374	0.988872	0.042923
	C8185	C	0.757645	0.917057	0.062153
	C8186	C	0.505823	0.885702	0.082183
	C8187	C	0.750145	0.957529	0.062904
	C8188	C	0.507785	0.914071	0.089713
	C8189	C	0.752616	0.986117	0.070551
	C8190	C	0.500841	0.960468	0.035387
	C8191	C	0.755006	0.888474	0.054418
	H8192	H	0.661074	1.000922	0.044348
	H8193	H	0.916224	0.929019	0.063852
	H8194	H	0.667982	0.874430	0.086007
	H8195	H	0.912371	0.946144	0.065475
	H8196	H	0.847087	0.923883	0.100039
	H8197	H	0.591658	0.995974	0.080795
	H8198	H	0.840663	0.949349	0.028623
	H8199	H	0.595486	0.877217	0.048188
	H8200	H	0.847988	0.873603	0.080709
	H8201	H	0.591863	0.945591	0.061155
	H8202	H	0.840980	1.000166	0.039151
	H8203	H	0.595777	0.928413	0.059521
	H8204	H	0.661591	0.950628	0.025051
	H8205	H	0.915678	0.878586	0.044365
	H8206	H	0.667707	0.925230	0.096335
	H8207	H	0.912134	0.997377	0.076860
	O8208	O	0.093213	0.975564	0.125491
	O8209	O	0.349984	0.903745	0.147954
	O8210	O	0.096335	0.882291	0.172451
	O8211	O	0.340084	0.952403	0.144331
	O8212	O	0.430268	0.901786	0.172352
	O8213	O	0.173348	0.972797	0.149315
	O8214	O	0.421163	0.954543	0.120117
	O8215	O	0.177666	0.882483	0.145780
	O8216	O	0.427676	0.881850	0.171514
	O8217	O	0.170838	0.952115	0.143562
	O8218	O	0.423769	0.975331	0.124400
	O8219	O	0.180652	0.903374	0.146971
	O8220	O	0.090120	0.954769	0.119731
	O8221	O	0.346724	0.882962	0.144746
	O8222	O	0.099322	0.902192	0.171605
	O8223	O	0.342480	0.973134	0.148646
	F8224	F	0.014243	0.892833	0.148374
	F8225	F	0.256885	0.964920	0.124167
	F8226	F	0.007014	0.962744	0.144728
	F8227	F	0.263616	0.891888	0.168797
	Al8228	Al	0.138911	0.892380	0.158577
	Al8229	Al	0.381910	0.963851	0.134313
	Al8230	Al	0.131922	0.963818	0.134449
	Al8231	Al	0.388607	0.892368	0.158491
	C8232	C	0.095376	0.995073	0.125778
	C8233	C	0.351458	0.923273	0.146986
	C8234	C	0.101529	0.866112	0.192918
	C8235	C	0.349063	0.932975	0.147086
	C8236	C	0.423783	0.918794	0.187722
	C8237	C	0.167188	0.990131	0.164024
	C8238	C	0.416753	0.936639	0.107406
	C8239	C	0.173312	0.864944	0.132256
	C8240	C	0.422530	0.865102	0.190513
	C8241	C	0.168863	0.932533	0.144437
	C8242	C	0.415069	0.994810	0.123260
	C8243	C	0.171267	0.922844	0.144308
	C8244	C	0.096430	0.937288	0.105451
	C8245	C	0.352949	0.866006	0.129256
	C8246	C	0.103456	0.919752	0.185078
	C8247	C	0.347188	0.990880	0.161912
	C8248	C	0.006436	0.989963	0.123982
	C8249	C	0.262647	0.918092	0.145569
	C8250	C	0.011907	0.869774	0.186663
	C8251	C	0.257623	0.937724	0.145835
	C8252	C	0.013923	0.914790	0.182997
	C8253	C	0.257548	0.985898	0.159832
	C8254	C	0.006177	0.941547	0.109547
	C8255	C	0.262708	0.869947	0.134176
	C8256	C	0.008135	0.979503	0.124586
	C8257	C	0.264619	0.907640	0.146896
	C8258	C	0.011957	0.878593	0.176105
	C8259	C	0.255905	0.948181	0.144530
	C8260	C	0.014546	0.905545	0.175184
	C8261	C	0.257807	0.976585	0.152111
	C8262	C	0.005831	0.950939	0.117001
	C8263	C	0.262362	0.879130	0.142130
	H8264	H	0.166354	0.991455	0.126471
	H8265	H	0.422227	0.919678	0.148055
	H8266	H	0.170992	0.869713	0.190059
	H8267	H	0.418030	0.936916	0.148191
	H8268	H	0.354163	0.915049	0.186115
	H8269	H	0.097320	0.986372	0.162588
	H8270	H	0.346299	0.939785	0.110547
	H8271	H	0.103414	0.867887	0.136175
	H8272	H	0.353272	0.867828	0.185590
	H8273	H	0.097836	0.936110	0.143394
	H8274	H	0.345821	0.990953	0.121880
	H8275	H	0.102103	0.918932	0.143186
	H8276	H	0.166364	0.941020	0.106903
	H8277	H	0.422280	0.869822	0.130667
	H8278	H	0.173606	0.916755	0.181399
	H8279	H	0.417682	0.987730	0.158745
	O8280	O	0.593111	0.975615	0.125443
	O8281	O	0.850006	0.903793	0.148078
	O8282	O	0.596417	0.882329	0.172453
	O8283	O	0.839382	0.952403	0.144487
	O8284	O	0.930277	0.901717	0.172542
	O8285	O	0.673117	0.972761	0.149322
	O8286	O	0.920974	0.954451	0.120235
	O8287	O	0.677630	0.882551	0.145579
	O8288	O	0.927575	0.881835	0.171532
	O8289	O	0.670198	0.952109	0.143340
	O8290	O	0.923938	0.975271	0.124399
	O8291	O	0.680719	0.903376	0.146829
	O8292	O	0.590323	0.954853	0.119508
	O8293	O	0.846825	0.882950	0.144756
	O8294	O	0.599449	0.902155	0.171662
	O8295	O	0.842202	0.973197	0.148564
	F8296	F	0.513775	0.892841	0.148382
	F8297	F	0.757285	0.964927	0.124165
	F8298	F	0.506602	0.962764	0.144537
	F8299	F	0.763669	0.891903	0.168757
	Al8300	Al	0.638775	0.892386	0.158507
	Al8301	Al	0.882333	0.963825	0.134413
	Al8302	Al	0.631998	0.963850	0.134328
	Al8303	Al	0.889008	0.892362	0.158530
	C8304	C	0.595227	0.995139	0.125837
	C8305	C	0.850970	0.923281	0.147045
	C8306	C	0.601650	0.866210	0.192999
	C8307	C	0.848313	0.932976	0.147149
	C8308	C	0.923603	0.918816	0.187711
	C8309	C	0.666440	0.990098	0.164073
	C8310	C	0.916502	0.936564	0.107480
	C8311	C	0.673276	0.865067	0.131868
	C8312	C	0.922238	0.865077	0.190501
	C8313	C	0.668301	0.932542	0.144179
	C8314	C	0.915024	0.994765	0.123203
	C8315	C	0.670911	0.922853	0.144058
	C8316	C	0.596551	0.937355	0.105332
	C8317	C	0.853181	0.865940	0.129508
	C8318	C	0.603735	0.919688	0.185317
	C8319	C	0.846279	0.990907	0.161778
	C8320	C	0.506365	0.990017	0.124020
	C8321	C	0.762346	0.918103	0.145470
	C8322	C	0.512113	0.869823	0.186690
	C8323	C	0.756924	0.937727	0.145736
	C8324	C	0.514183	0.914772	0.183053
	C8325	C	0.756754	0.985906	0.159760
	C8326	C	0.506234	0.941650	0.109361
	C8327	C	0.762883	0.869982	0.134093
	C8328	C	0.507942	0.979554	0.124589
	C8329	C	0.764570	0.907658	0.146840
	C8330	C	0.512080	0.878608	0.176050
	C8331	C	0.755242	0.948175	0.144479
	C8332	C	0.514694	0.905570	0.175102
	C8333	C	0.757343	0.976599	0.152053
	C8334	C	0.505845	0.951044	0.116801
	C8335	C	0.762412	0.879156	0.142064
	H8336	H	0.666254	0.991536	0.126538
	H8337	H	0.921773	0.919681	0.148261
	H8338	H	0.671018	0.869833	0.190175
	H8339	H	0.917078	0.936922	0.148416
	H8340	H	0.854030	0.915051	0.186186
	H8341	H	0.596608	0.986320	0.162708
	H8342	H	0.846027	0.939707	0.110633
	H8343	H	0.603317	0.868077	0.135549
	H8344	H	0.852870	0.867826	0.185629
	H8345	H	0.597269	0.936111	0.143031
	H8346	H	0.845873	0.990884	0.121832
	H8347	H	0.601956	0.918939	0.142828
	H8348	H	0.666459	0.941093	0.106790
	H8349	H	0.922757	0.869665	0.131175
	H8350	H	0.673942	0.916678	0.181708
	H8351	H	0.916823	0.987783	0.158556
	O8352	O	0.099917	0.966216	0.210493
	O8353	O	0.345952	0.904107	0.285294
	O8354	O	0.092932	0.885456	0.316454
	O8355	O	0.346371	0.944737	0.234831
	O8356	O	0.426756	0.904490	0.312441
	O8357	O	0.180420	0.964240	0.234933
	O8358	O	0.427515	0.945049	0.208051
	O8359	O	0.174235	0.883981	0.288951
	O8360	O	0.424013	0.885037	0.315808
	O8361	O	0.177582	0.944352	0.234032
	O8362	O	0.430948	0.965857	0.209393
	O8363	O	0.177007	0.903670	0.284493
	O8364	O	0.096551	0.945484	0.207162
	O8365	O	0.343323	0.884431	0.287997
	O8366	O	0.096033	0.904886	0.311560
	O8367	O	0.349552	0.964723	0.234016
	F8368	F	0.010247	0.894063	0.290329
	F8369	F	0.263702	0.955341	0.210886
	F8370	F	0.013277	0.954348	0.231290
	F8371	F	0.260015	0.894784	0.310237
	Al8372	Al	0.135151	0.894421	0.300288
	Al8373	Al	0.388561	0.954880	0.221006
	Al8374	Al	0.138733	0.954857	0.220970
	Al8375	Al	0.384937	0.894441	0.300277
	C8376	C	0.100987	0.985768	0.209491
	C8377	C	0.351262	0.920436	0.265277
	C8378	C	0.097830	0.870938	0.340455
	C8379	C	0.351222	0.928557	0.255253
	C8380	C	0.420753	0.921063	0.328632
	C8381	C	0.173727	0.981229	0.250360
	C8382	C	0.423162	0.927510	0.194492
	C8383	C	0.170086	0.866884	0.274161
	C8384	C	0.418587	0.869907	0.338686
	C8385	C	0.172047	0.927665	0.253220
	C8386	C	0.421389	0.985310	0.206549
	C8387	C	0.172098	0.919545	0.263230
	C8388	C	0.102752	0.928495	0.191771
	C8389	C	0.349380	0.867966	0.271383
	C8390	C	0.099982	0.921939	0.326430
	C8391	C	0.353528	0.982249	0.247534
	C8392	C	0.012395	0.980569	0.207968
	C8393	C	0.261627	0.915844	0.269390
	C8394	C	0.008121	0.874201	0.333626
	C8395	C	0.261672	0.932285	0.249176
	C8396	C	0.010619	0.917199	0.323626
	C8397	C	0.264028	0.977271	0.245502
	C8398	C	0.012491	0.932482	0.196578
	C8399	C	0.259420	0.871716	0.276703
	C8400	C	0.014612	0.970111	0.209362
	C8401	C	0.261518	0.907263	0.280554
	C8402	C	0.008460	0.882102	0.320988
	C8403	C	0.261874	0.941068	0.238541
	C8404	C	0.011374	0.908200	0.315250
	C8405	C	0.264690	0.968078	0.237574
	C8406	C	0.012166	0.941675	0.204521
	C8407	C	0.258918	0.880683	0.285199
	H8408	H	0.171987	0.982190	0.210672
	H8409	H	0.420519	0.917660	0.270060
	H8410	H	0.167315	0.874225	0.336621
	H8411	H	0.420538	0.932098	0.252218
	H8412	H	0.351764	0.917416	0.326499
	H8413	H	0.104291	0.977440	0.248854
	H8414	H	0.353112	0.930500	0.198199
	H8415	H	0.100554	0.869712	0.278333
	H8416	H	0.349287	0.872354	0.333376
	H8417	H	0.102673	0.930458	0.248495
	H8418	H	0.352723	0.981363	0.205232
	H8419	H	0.102724	0.916026	0.266327
	H8420	H	0.172162	0.932275	0.193269
	H8421	H	0.418574	0.871680	0.273251
	H8422	H	0.169575	0.919023	0.322515
	H8423	H	0.423541	0.979286	0.243718
	O8424	O	0.600255	0.966223	0.210481
	O8425	O	0.845905	0.904079	0.285211
	O8426	O	0.592854	0.885459	0.316475
	O8427	O	0.845985	0.944753	0.234919
	O8428	O	0.927022	0.904436	0.312505
	O8429	O	0.680195	0.964272	0.234973
	O8430	O	0.927424	0.945049	0.208117
	O8431	O	0.674152	0.883972	0.288959
	O8432	O	0.924067	0.885023	0.315801
	O8433	O	0.677161	0.944357	0.234141
	O8434	O	0.930554	0.965835	0.209402
	O8435	O	0.676871	0.903642	0.284472
	O8436	O	0.596673	0.945404	0.207406
	O8437	O	0.843242	0.884419	0.287966
	O8438	O	0.595856	0.904883	0.311573
	O8439	O	0.849377	0.964690	0.234200
	F8440	F	0.509933	0.894056	0.290358
	F8441	F	0.763709	0.955318	0.211015
	F8442	F	0.513382	0.954376	0.231314
	F8443	F	0.759877	0.894782	0.310165
	Al8444	Al	0.634968	0.894422	0.300250
	Al8445	Al	0.888923	0.954858	0.221112
	Al8446	Al	0.638614	0.954864	0.221073
	Al8447	Al	0.885197	0.894426	0.300239
	C8448	C	0.601459	0.985770	0.209604
	C8449	C	0.851092	0.920438	0.265291
	C8450	C	0.597910	0.870957	0.340528
	C8451	C	0.851106	0.928570	0.255294
	C8452	C	0.920510	0.921058	0.328580
	C8453	C	0.673475	0.981288	0.250249
	C8454	C	0.922916	0.927552	0.194435
	C8455	C	0.670167	0.866907	0.274106
	C8456	C	0.918317	0.869911	0.338726
	C8457	C	0.671998	0.927605	0.253161
	C8458	C	0.920899	0.985307	0.206547
	C8459	C	0.671960	0.919477	0.263155
	C8460	C	0.603071	0.928411	0.192074
	C8461	C	0.849634	0.867982	0.271381
	C8462	C	0.599994	0.921943	0.326492
	C8463	C	0.853455	0.982214	0.247765
	C8464	C	0.512872	0.980578	0.208005
	C8465	C	0.761507	0.915801	0.269333
	C8466	C	0.508262	0.874206	0.333641
	C8467	C	0.761488	0.932267	0.249181
	C8468	C	0.510728	0.917223	0.323638
	C8469	C	0.763881	0.977282	0.245559
	C8470	C	0.512739	0.932438	0.196699
	C8471	C	0.759499	0.871724	0.276665
	C8472	C	0.514937	0.970120	0.209357
	C8473	C	0.761371	0.907224	0.280489
	C8474	C	0.508341	0.882130	0.321054
	C8475	C	0.761530	0.941078	0.238607
	C8476	C	0.511221	0.908216	0.315243
	C8477	C	0.764539	0.968077	0.237676
	C8478	C	0.512276	0.941616	0.204651
	C8479	C	0.758827	0.880686	0.285176
	H8480	H	0.672421	0.982190	0.210807
	H8481	H	0.920408	0.917680	0.270115
	H8482	H	0.667363	0.874271	0.336744
	H8483	H	0.920424	0.932145	0.252313
	H8484	H	0.851392	0.917422	0.326446
	H8485	H	0.603931	0.977531	0.248650
	H8486	H	0.852955	0.930550	0.198168
	H8487	H	0.600686	0.869758	0.278277
	H8488	H	0.848924	0.872370	0.333450
	H8489	H	0.602623	0.930382	0.248403
	H8490	H	0.852062	0.981372	0.205290
	H8491	H	0.602522	0.915943	0.266191
	H8492	H	0.672613	0.932147	0.193721
	H8493	H	0.918581	0.871718	0.273302
	H8494	H	0.669465	0.919015	0.322590
	H8495	H	0.923658	0.979224	0.244110
	O8496	O	0.095867	0.966562	0.347693
	O8497	O	0.342141	0.911031	0.437707
	O8498	O	0.089759	0.892981	0.470069
	O8499	O	0.343203	0.947962	0.378933
	O8500	O	0.422792	0.912147	0.465274
	O8501	O	0.176730	0.966973	0.374959
	O8502	O	0.424268	0.946524	0.351364
	O8503	O	0.170881	0.891373	0.442424
	O8504	O	0.420828	0.892837	0.469868
	O8505	O	0.174367	0.947529	0.378273
	O8506	O	0.427156	0.966160	0.347000
	O8507	O	0.173115	0.910672	0.437175
	O8508	O	0.093389	0.946894	0.350521
	O8509	O	0.339848	0.891632	0.441973
	O8510	O	0.091931	0.912305	0.464868
	O8511	O	0.345752	0.967390	0.373985
	F8512	F	0.006401	0.901324	0.443818
	F8513	F	0.260052	0.956565	0.352804
	F8514	F	0.009784	0.957285	0.372705
	F8515	F	0.256293	0.902381	0.463516
	Al8516	Al	0.131416	0.901845	0.453670
	Al8517	Al	0.384962	0.956922	0.362724
	Al8518	Al	0.134890	0.956926	0.362768
	Al8519	Al	0.381294	0.901869	0.453677
	C8520	C	0.100981	0.982869	0.327615
	C8521	C	0.347779	0.926004	0.414535
	C8522	C	0.094081	0.878450	0.494087
	C8523	C	0.348088	0.933369	0.402834
	C8524	C	0.417308	0.928714	0.481404
	C8525	C	0.170631	0.983484	0.391310
	C8526	C	0.420000	0.929484	0.336353
	C8527	C	0.166413	0.874496	0.426942
	C8528	C	0.414649	0.878311	0.493903
	C8529	C	0.168593	0.932508	0.401338
	C8530	C	0.422133	0.982016	0.325760
	C8531	C	0.168309	0.925144	0.413047
	C8532	C	0.099361	0.930368	0.334147
	C8533	C	0.345896	0.875085	0.425718
	C8534	C	0.096664	0.929139	0.480524
	C8535	C	0.350199	0.984524	0.388726
	C8536	C	0.011294	0.978295	0.331827
	C8537	C	0.257957	0.921812	0.419787
	C8538	C	0.004589	0.882080	0.487875
	C8539	C	0.258490	0.936700	0.396098
	C8540	C	0.007147	0.924650	0.476948
	C8541	C	0.260747	0.979717	0.386098
	C8542	C	0.009297	0.934206	0.339166
	C8543	C	0.255850	0.879067	0.430277
	C8544	C	0.011387	0.969719	0.342976
	C8545	C	0.257745	0.913946	0.432479
	C8546	C	0.005061	0.889837	0.474990
	C8547	C	0.258711	0.944622	0.383503
	C8548	C	0.007442	0.915724	0.468375
	C8549	C	0.261208	0.970705	0.377731
	C8550	C	0.009013	0.943161	0.347692
	C8551	C	0.255443	0.887991	0.438889
	H8552	H	0.170468	0.980074	0.332298
	H8553	H	0.417266	0.923494	0.419721
	H8554	H	0.163650	0.881333	0.489532
	H8555	H	0.417608	0.936595	0.398931
	H8556	H	0.348119	0.925282	0.478634
	H8557	H	0.101502	0.979773	0.389385
	H8558	H	0.350480	0.932405	0.340223
	H8559	H	0.096869	0.877507	0.430560
	H8560	H	0.345420	0.881068	0.489168
	H8561	H	0.099205	0.935037	0.396179
	H8562	H	0.352810	0.978491	0.328846
	H8563	H	0.098729	0.921913	0.416984
	H8564	H	0.168508	0.934007	0.336251
	H8565	H	0.415064	0.878564	0.428310
	H8566	H	0.166201	0.926059	0.477076
	H8567	H	0.419793	0.981654	0.384655
	O8568	O	0.596105	0.966594	0.347793
	O8569	O	0.842058	0.910994	0.437630
	O8570	O	0.589758	0.892954	0.470006
	O8571	O	0.842807	0.947933	0.378932
	O8572	O	0.922927	0.912108	0.465303
	O8573	O	0.676592	0.966952	0.375019
	O8574	O	0.924385	0.946495	0.351410
	O8575	O	0.671341	0.891393	0.442399
	O8576	O	0.920824	0.892851	0.469893
	O8577	O	0.673797	0.947559	0.378354
	O8578	O	0.926863	0.966142	0.346996
	O8579	O	0.673079	0.910705	0.437226
	O8580	O	0.593278	0.946885	0.350570
	O8581	O	0.840388	0.891605	0.441919
	O8582	O	0.591827	0.912313	0.464876
	O8583	O	0.845665	0.967402	0.374054
	F8584	F	0.506389	0.901302	0.443848
	F8585	F	0.760018	0.956541	0.352892
	F8586	F	0.509680	0.957299	0.372701
	F8587	F	0.756291	0.902381	0.463469
	Al8588	Al	0.631421	0.901844	0.453642
	Al8589	Al	0.885033	0.956924	0.362800
	Al8590	Al	0.634892	0.956927	0.362783
	Al8591	Al	0.881476	0.901853	0.453613
	C8592	C	0.601274	0.982901	0.327661
	C8593	C	0.847554	0.926015	0.414523
	C8594	C	0.594018	0.878458	0.494110
	C8595	C	0.847664	0.933380	0.402818
	C8596	C	0.917122	0.928706	0.481321
	C8597	C	0.670297	0.983514	0.391275
	C8598	C	0.919836	0.929489	0.336293
	C8599	C	0.666644	0.874494	0.426975
	C8600	C	0.914599	0.878307	0.493896
	C8601	C	0.668321	0.932483	0.401286
	C8602	C	0.921590	0.981989	0.325736
	C8603	C	0.668214	0.925120	0.412997
	C8604	C	0.599226	0.930364	0.334211
	C8605	C	0.846150	0.875078	0.425686
	C8606	C	0.596787	0.929166	0.480509
	C8607	C	0.849832	0.984502	0.388798
	C8608	C	0.511752	0.978320	0.331881
	C8609	C	0.757859	0.921806	0.419773
	C8610	C	0.504594	0.882088	0.487899
	C8611	C	0.757970	0.936725	0.396127
	C8612	C	0.507346	0.924667	0.476988
	C8613	C	0.760450	0.979717	0.386122
	C8614	C	0.509275	0.934209	0.339217
	C8615	C	0.756133	0.879030	0.430363
	C8616	C	0.511641	0.969745	0.343048
	C8617	C	0.757670	0.913961	0.432504
	C8618	C	0.505120	0.889839	0.474972
	C8619	C	0.758191	0.944628	0.383527
	C8620	C	0.507417	0.915741	0.468379
	C8621	C	0.760954	0.970712	0.377748
	C8622	C	0.508806	0.943185	0.347683
	C8623	C	0.755818	0.887985	0.438884
	H8624	H	0.670701	0.980104	0.332326
	H8625	H	0.916982	0.923520	0.419701
	H8626	H	0.663680	0.881329	0.489549
	H8627	H	0.917091	0.936606	0.398872
	H8628	H	0.847901	0.925281	0.478545
	H8629	H	0.601181	0.979815	0.389313
	H8630	H	0.850208	0.932413	0.340178
	H8631	H	0.597086	0.877522	0.430571
	H8632	H	0.845207	0.881068	0.489179
	H8633	H	0.598941	0.934964	0.396065
	H8634	H	0.852246	0.978468	0.328866
	H8635	H	0.598664	0.921871	0.416914
	H8636	H	0.668214	0.934012	0.336324
	H8637	H	0.915362	0.878576	0.428213
	H8638	H	0.666262	0.926102	0.477007
	H8639	H	0.919512	0.981624	0.384800
	O8640	O	0.092200	0.973470	0.500129
	O8641	O	0.338099	0.919175	0.592549
	O8642	O	0.086144	0.901311	0.625145
	O8643	O	0.340195	0.955490	0.532587
	O8644	O	0.418659	0.920562	0.620230
	O8645	O	0.173028	0.974582	0.527855
	O8646	O	0.421316	0.953914	0.504884
	O8647	O	0.167733	0.899805	0.597419
	O8648	O	0.417560	0.901218	0.624974
	O8649	O	0.171302	0.955295	0.532321
	O8650	O	0.423362	0.973175	0.499725
	O8651	O	0.169173	0.919122	0.592492
	O8652	O	0.090444	0.954119	0.504483
	O8653	O	0.336829	0.899889	0.597315
	O8654	O	0.087991	0.920601	0.620260
	O8655	O	0.342090	0.974800	0.527426
	F8656	F	0.003013	0.909680	0.598964
	F8657	F	0.256734	0.963826	0.506308
	F8658	F	0.006585	0.964850	0.526049
	F8659	F	0.252704	0.910738	0.618670
	Al8660	Al	0.127835	0.910216	0.608807
	Al8661	Al	0.381664	0.964348	0.516174
	Al8662	Al	0.131727	0.964343	0.516179
	Al8663	Al	0.377933	0.910221	0.608799
	C8664	C	0.097543	0.988431	0.476957
	C8665	C	0.344332	0.933768	0.568617
	C8666	C	0.090458	0.886642	0.648883
	C8667	C	0.344800	0.940993	0.556687
	C8668	C	0.413092	0.937209	0.636164
	C8669	C	0.167441	0.991128	0.544119
	C8670	C	0.416732	0.937083	0.489303
	C8671	C	0.162739	0.883030	0.581653
	C8672	C	0.411330	0.886357	0.648370
	C8673	C	0.165358	0.940786	0.556355
	C8674	C	0.418405	0.987656	0.475627
	C8675	C	0.164829	0.933540	0.568328
	C8676	C	0.096186	0.937507	0.488433
	C8677	C	0.342387	0.883255	0.581367
	C8678	C	0.092936	0.937323	0.636185
	C8679	C	0.346977	0.991680	0.542894
	C8680	C	0.007714	0.984285	0.482305
	C8681	C	0.254435	0.929945	0.574580
	C8682	C	0.000936	0.890271	0.642670
	C8683	C	0.255290	0.944595	0.550414
	C8684	C	0.003272	0.933010	0.632177
	C8685	C	0.257379	0.987157	0.539455
	C8686	C	0.006198	0.941539	0.492860
	C8687	C	0.252415	0.887401	0.585492
	C8688	C	0.007723	0.976433	0.494997
	C8689	C	0.253877	0.922197	0.587493
	C8690	C	0.001582	0.898143	0.629983
	C8691	C	0.255622	0.952343	0.537501
	C8692	C	0.003510	0.924069	0.623591
	C8693	C	0.257564	0.978202	0.530930
	C8694	C	0.005926	0.950463	0.501472
	C8695	C	0.252215	0.896345	0.594055
	H8696	H	0.166940	0.985897	0.482056
	H8697	H	0.413749	0.931046	0.573324
	H8698	H	0.160069	0.889629	0.644526
	H8699	H	0.414576	0.943864	0.552185
	H8700	H	0.343926	0.933894	0.633047
	H8701	H	0.098121	0.987631	0.541635
	H8702	H	0.347192	0.940179	0.492714
	H8703	H	0.093286	0.886199	0.584885
	H8704	H	0.342144	0.889105	0.643560
	H8705	H	0.096167	0.943525	0.551521
	H8706	H	0.348853	0.984484	0.479648
	H8707	H	0.095202	0.930607	0.572849
	H8708	H	0.165316	0.940947	0.491189
	H8709	H	0.411622	0.886604	0.584367
	H8710	H	0.162439	0.934104	0.633115
	H8711	H	0.416533	0.988630	0.539370
	O8712	O	0.592271	0.973508	0.500198
	O8713	O	0.838281	0.919218	0.592554
	O8714	O	0.586500	0.901292	0.625107
	O8715	O	0.839807	0.955468	0.532563
	O8716	O	0.919006	0.920512	0.620365
	O8717	O	0.672926	0.974584	0.527938
	O8718	O	0.921384	0.953854	0.505021
	O8719	O	0.667618	0.899794	0.597477
	O8720	O	0.917260	0.901173	0.624951
	O8721	O	0.670879	0.955318	0.532326
	O8722	O	0.923224	0.973172	0.499727
	O8723	O	0.669360	0.919107	0.592463
	O8724	O	0.590352	0.954122	0.504502
	O8725	O	0.836707	0.899924	0.597214
	O8726	O	0.587785	0.920598	0.620278
	O8727	O	0.841981	0.974834	0.527374
	F8728	F	0.503065	0.909682	0.598991
	F8729	F	0.756764	0.963836	0.506359
	F8730	F	0.506486	0.964875	0.526016
	F8731	F	0.752938	0.910772	0.618631
	Al8732	Al	0.627920	0.910228	0.608806
	Al8733	Al	0.881829	0.964350	0.516205
	Al8734	Al	0.631645	0.964354	0.516213
	Al8735	Al	0.878051	0.910209	0.608770
	C8736	C	0.597807	0.988446	0.476970
	C8737	C	0.844086	0.933788	0.568586
	C8738	C	0.590847	0.886660	0.648871
	C8739	C	0.844356	0.940996	0.556637
	C8740	C	0.913215	0.937225	0.636110
	C8741	C	0.667158	0.991158	0.544069
	C8742	C	0.916651	0.937071	0.489241
	C8743	C	0.662610	0.883026	0.581659
	C8744	C	0.910992	0.886354	0.648405
	C8745	C	0.664998	0.940764	0.556301
	C8746	C	0.918021	0.987644	0.475655
	C8747	C	0.664779	0.933527	0.568293
	C8748	C	0.596230	0.937537	0.488403
	C8749	C	0.842074	0.883262	0.581370
	C8750	C	0.592733	0.937331	0.636208
	C8751	C	0.846591	0.991698	0.542938
	C8752	C	0.508017	0.984275	0.482270
	C8753	C	0.754307	0.929957	0.574555
	C8754	C	0.501271	0.890292	0.642676
	C8755	C	0.754858	0.944602	0.550396
	C8756	C	0.503075	0.933018	0.632215
	C8757	C	0.757244	0.987153	0.539523
	C8758	C	0.506212	0.941558	0.492876
	C8759	C	0.752212	0.887417	0.585477
	C8760	C	0.507912	0.976438	0.495008
	C8761	C	0.753966	0.922213	0.587474
	C8762	C	0.501754	0.898154	0.629977
	C8763	C	0.755148	0.952335	0.537466
	C8764	C	0.503268	0.924092	0.623548
	C8765	C	0.757502	0.978215	0.530957
	C8766	C	0.505835	0.950496	0.501436
	C8767	C	0.752082	0.896361	0.594026
	H8768	H	0.667262	0.985930	0.482108
	H8769	H	0.913451	0.931099	0.573341
	H8770	H	0.660492	0.889649	0.644489
	H8771	H	0.914001	0.943889	0.552135
	H8772	H	0.843924	0.933922	0.632971
	H8773	H	0.597934	0.987686	0.541471
	H8774	H	0.847054	0.940150	0.492661
	H8775	H	0.593161	0.886203	0.584860
	H8776	H	0.841791	0.889108	0.643636
	H8777	H	0.595816	0.943501	0.551487
	H8778	H	0.848500	0.984457	0.479654
	H8779	H	0.595414	0.930614	0.572872
	H8780	H	0.665325	0.941009	0.491074
	H8781	H	0.911294	0.886613	0.584331
	H8782	H	0.662138	0.934104	0.633130
	H8783	H	0.916262	0.988684	0.539403
	O8784	O	0.088366	0.981696	0.655127
	O8785	O	0.334523	0.926824	0.746403
	O8786	O	0.082877	0.908267	0.777834
	O8787	O	0.336812	0.963711	0.687584
	O8788	O	0.415898	0.927763	0.774244
	O8789	O	0.169189	0.983018	0.682879
	O8790	O	0.417905	0.962331	0.659894
	O8791	O	0.164044	0.907284	0.750680
	O8792	O	0.413857	0.908068	0.777488
	O8793	O	0.167855	0.963713	0.687600
	O8794	O	0.419547	0.981578	0.654970
	O8795	O	0.165622	0.926785	0.746417
	O8796	O	0.087191	0.962364	0.659927
	O8797	O	0.333212	0.907471	0.750317
	O8798	O	0.084657	0.927935	0.773895
	O8799	O	0.338326	0.983122	0.682688
	F8800	F	-0.000456	0.917275	0.752303
	F8801	F	0.253105	0.972181	0.661501
	F8802	F	0.002873	0.973235	0.681232
	F8803	F	0.249337	0.917966	0.772190
	Al8804	Al	0.124425	0.917617	0.762296
	Al8805	Al	0.378014	0.972706	0.671321
	Al8806	Al	0.128043	0.972707	0.671378
	Al8807	Al	0.374451	0.917627	0.762253
	C8808	C	0.094234	0.996341	0.631287
	C8809	C	0.340579	0.941579	0.722830
	C8810	C	0.087363	0.892320	0.798848
	C8811	C	0.340960	0.948958	0.711141
	C8812	C	0.409821	0.944342	0.790400
	C8813	C	0.163561	0.999502	0.699175
	C8814	C	0.412850	0.945570	0.644041
	C8815	C	0.158963	0.890376	0.735297
	C8816	C	0.408079	0.891825	0.797678
	C8817	C	0.161574	0.948992	0.711264
	C8818	C	0.415102	0.995932	0.630662
	C8819	C	0.161211	0.941619	0.722950
	C8820	C	0.092529	0.945694	0.644054
	C8821	C	0.338616	0.890745	0.734570
	C8822	C	0.089204	0.944915	0.789119
	C8823	C	0.343255	1.000014	0.698129
	C8824	C	0.004466	0.992443	0.637097
	C8825	C	0.250625	0.937852	0.728912
	C8826	C	-0.002217	0.896202	0.793126
	C8827	C	0.251529	0.952747	0.705229
	C8828	C	-0.000319	0.940340	0.785818
	C8829	C	0.253606	0.995511	0.694642
	C8830	C	0.002572	0.949899	0.648030
	C8831	C	0.248622	0.894849	0.738849
	C8832	C	0.004080	0.984695	0.650028
	C8833	C	0.250208	0.929927	0.741502
	C8834	C	-0.001860	0.904803	0.781987
	C8835	C	0.252085	0.960622	0.692549
	C8836	C	0.000094	0.931357	0.777371
	C8837	C	0.253856	0.986571	0.686089
	C8838	C	0.002655	0.958829	0.656649
	C8839	C	0.248610	0.903851	0.747248
	H8840	H	0.163516	0.993678	0.636193
	H8841	H	0.409686	0.938657	0.727284
	H8842	H	0.156917	0.895690	0.795424
	H8843	H	0.410423	0.951809	0.706508
	H8844	H	0.340631	0.940821	0.787906
	H8845	H	0.094422	0.996014	0.696549
	H8846	H	0.343330	0.948767	0.647098
	H8847	H	0.089437	0.893517	0.738591
	H8848	H	0.338863	0.894758	0.793261
	H8849	H	0.092154	0.951863	0.706760
	H8850	H	0.345630	0.992950	0.635096
	H8851	H	0.091355	0.938753	0.727494
	H8852	H	0.161873	0.949001	0.647151
	H8853	H	0.407801	0.894189	0.737277
	H8854	H	0.158798	0.941855	0.785591
	H8855	H	0.412801	0.996946	0.694617
	O8856	O	0.588472	0.981725	0.655175
	O8857	O	0.834611	0.926850	0.746384
	O8858	O	0.582874	0.908353	0.777967
	O8859	O	0.836209	0.963737	0.687584
	O8860	O	0.915658	0.927734	0.774304
	O8861	O	0.669191	0.982961	0.683018
	O8862	O	0.918170	0.962314	0.659948
	O8863	O	0.663724	0.907279	0.750739
	O8864	O	0.913879	0.908063	0.777407
	O8865	O	0.667251	0.963676	0.687531
	O8866	O	0.919459	0.981599	0.654977
	O8867	O	0.665746	0.926758	0.746334
	O8868	O	0.586865	0.962403	0.659829
	O8869	O	0.832810	0.907482	0.750257
	O8870	O	0.585051	0.927973	0.773903
	O8871	O	0.838289	0.983149	0.682686
	F8872	F	0.499551	0.917286	0.752346
	F8873	F	0.753117	0.972167	0.661537
	F8874	F	0.502765	0.973244	0.681184
	F8875	F	0.749493	0.917986	0.772140
	Al8876	Al	0.624462	0.917628	0.762296
	Al8877	Al	0.878122	0.972701	0.671392
	Al8878	Al	0.627988	0.972717	0.671381
	Al8879	Al	0.874634	0.917630	0.762197
	C8880	C	0.594477	0.996331	0.631276
	C8881	C	0.840360	0.941628	0.722837
	C8882	C	0.587502	0.892359	0.798927
	C8883	C	0.840654	0.949005	0.711137
	C8884	C	0.909599	0.944335	0.790416
	C8885	C	0.663440	0.999531	0.699162
	C8886	C	0.912871	0.945597	0.643984
	C8887	C	0.658593	0.890378	0.735333
	C8888	C	0.907916	0.891772	0.797654
	C8889	C	0.661292	0.949003	0.711306
	C8890	C	0.914995	0.995946	0.630678
	C8891	C	0.660970	0.941633	0.722993
	C8892	C	0.592357	0.945696	0.644085
	C8893	C	0.838342	0.890764	0.734604
	C8894	C	0.589438	0.944938	0.789109
	C8895	C	0.843106	1.000016	0.698169
	C8896	C	0.504644	0.992439	0.637085
	C8897	C	0.750533	0.937842	0.728859
	C8898	C	0.497996	0.896243	0.793181
	C8899	C	0.751133	0.952761	0.705218
	C8900	C	0.499988	0.940345	0.785857
	C8901	C	0.753497	0.995512	0.694692
	C8902	C	0.502426	0.949900	0.648047
	C8903	C	0.748278	0.894855	0.738867
	C8904	C	0.504201	0.984708	0.650045
	C8905	C	0.750303	0.929933	0.741468
	C8906	C	0.498321	0.904836	0.782062
	C8907	C	0.751531	0.960603	0.692485
	C8908	C	0.500426	0.931383	0.777347
	C8909	C	0.753716	0.986568	0.686133
	C8910	C	0.502297	0.958848	0.656594
	C8911	C	0.748194	0.903853	0.747271
	H8912	H	0.663771	0.993668	0.636209
	H8913	H	0.909691	0.938750	0.727335
	H8914	H	0.656979	0.895738	0.795523
	H8915	H	0.910211	0.951875	0.706510
	H8916	H	0.840343	0.940808	0.787981
	H8917	H	0.594221	0.996068	0.696503
	H8918	H	0.843389	0.948827	0.647013
	H8919	H	0.589048	0.893514	0.738650
	H8920	H	0.838559	0.894702	0.793227
	H8921	H	0.591843	0.951869	0.706836
	H8922	H	0.845474	0.992963	0.635087
	H8923	H	0.591374	0.938786	0.727606
	H8924	H	0.661719	0.948991	0.647179
	H8925	H	0.907531	0.894218	0.737312
	H8926	H	0.659007	0.941894	0.785538
	H8927	H	0.912646	0.996946	0.694678
	O8928	O	0.085288	0.989484	0.809215
	O8929	O	0.331344	0.930175	0.890949
	O8930	O	0.078490	0.908684	0.915639
	O8931	O	0.332369	0.970847	0.840450
	O8932	O	0.412349	0.929107	0.917821
	O8933	O	0.165878	0.990179	0.836983
	O8934	O	0.413836	0.969759	0.813276
	O8935	O	0.159934	0.909883	0.890960
	O8936	O	0.409363	0.908327	0.914550
	O8937	O	0.163375	0.970545	0.839914
	O8938	O	0.416389	0.989152	0.808688
	O8939	O	0.162588	0.929823	0.890221
	O8940	O	0.082985	0.970018	0.812748
	O8941	O	0.328957	0.910340	0.890040
	O8942	O	0.081500	0.929494	0.917035
	O8943	O	0.334890	0.990538	0.836166
	F8944	F	-0.004316	0.920183	0.893808
	F8945	F	0.249464	0.979754	0.814846
	F8946	F	-0.000626	0.980535	0.834729
	F8947	F	0.245544	0.919213	0.914159
	Al8948	Al	0.120672	0.919678	0.904081
	Al8949	Al	0.374303	0.980130	0.824749
	Al8950	Al	0.124432	0.980141	0.824807
	Al8951	Al	0.370516	0.919701	0.904056
	C8952	C	0.090765	1.004490	0.786079
	C8953	C	0.336928	0.946850	0.871693
	C8954	C	0.087788	0.889207	0.918133
	C8955	C	0.336974	0.954975	0.861703
	C8956	C	0.406068	0.946143	0.933042
	C8957	C	0.159737	1.006681	0.853383
	C8958	C	0.409223	0.952764	0.798128
	C8959	C	0.155762	0.892384	0.877277
	C8960	C	0.407915	0.888801	0.915697
	C8961	C	0.157805	0.954198	0.859898
	C8962	C	0.411748	1.003705	0.784767
	C8963	C	0.157687	0.946058	0.869897
	C8964	C	0.088780	0.953350	0.796817
	C8965	C	0.335337	0.893296	0.874711
	C8966	C	0.085714	0.947002	0.930668
	C8967	C	0.339218	1.007611	0.851099
	C8968	C	0.001084	1.000317	0.791383
	C8969	C	0.247254	0.942265	0.875842
	C8970	C	-0.003523	0.893966	0.917025
	C8971	C	0.247492	0.958727	0.855645
	C8972	C	-0.003850	0.942077	0.928456
	C8973	C	0.249911	1.002850	0.848360
	C8974	C	-0.001246	0.957355	0.801366
	C8975	C	0.245185	0.897315	0.879451
	C8976	C	0.000892	0.992421	0.804011
	C8977	C	0.247071	0.933475	0.886468
	C8978	C	-0.005482	0.904421	0.915725
	C8979	C	0.247775	0.967322	0.844506
	C8980	C	-0.003338	0.932881	0.920528
	C8981	C	0.250362	0.993873	0.839875
	C8982	C	-0.001520	0.966348	0.809797
	C8983	C	0.244670	0.906511	0.887395
	H8984	H	0.160094	1.001958	0.791204
	H8985	H	0.406295	0.944023	0.876321
	H8986	H	0.156811	0.893125	0.919191
	H8987	H	0.406532	0.958456	0.858573
	H8988	H	0.336600	0.942388	0.931466
	H8989	H	0.090728	1.003015	0.851263
	H8990	H	0.339660	0.955800	0.801664
	H8991	H	0.085732	0.895372	0.880965
	H8992	H	0.337069	0.892390	0.914651
	H8993	H	0.088557	0.957041	0.855263
	H8994	H	0.342219	1.000541	0.788777
	H8995	H	0.088371	0.942555	0.873043
	H8996	H	0.157955	0.956876	0.799292
	H8997	H	0.404771	0.897051	0.876304
	H8998	H	0.155748	0.943988	0.927009
	H8999	H	0.408827	1.004724	0.847101
	O9000	O	0.585323	0.989496	0.809214
	O9001	O	0.831547	0.930192	0.890902
	O9002	O	0.578748	0.908705	0.915559
	O9003	O	0.832195	0.970857	0.840516
	O9004	O	0.912396	0.929050	0.917868
	O9005	O	0.665709	0.990173	0.837031
	O9006	O	0.913989	0.969726	0.813372
	O9007	O	0.659484	0.909934	0.890838
	O9008	O	0.909049	0.908327	0.914592
	O9009	O	0.663198	0.970511	0.839888
	O9010	O	0.916458	0.989150	0.808679
	O9011	O	0.662792	0.929819	0.890125
	O9012	O	0.582900	0.970022	0.812767
	O9013	O	0.828660	0.910277	0.890076
	O9014	O	0.581458	0.929520	0.916970
	O9015	O	0.834753	0.990545	0.836174
	F9016	F	0.495706	0.920244	0.893795
	F9017	F	0.749491	0.979769	0.814867
	F9018	F	0.499039	0.980509	0.834715
	F9019	F	0.745629	0.919228	0.914051
	Al9020	Al	0.620699	0.919717	0.904007
	Al9021	Al	0.874480	0.980134	0.824821
	Al9022	Al	0.624325	0.980130	0.824820
	Al9023	Al	0.870979	0.919690	0.903983
	C9024	C	0.591022	1.004461	0.786052
	C9025	C	0.836903	0.946874	0.871692
	C9026	C	0.588073	0.889241	0.918192
	C9027	C	0.836972	0.955001	0.861713
	C9028	C	0.905812	0.946115	0.933112
	C9029	C	0.659569	1.006669	0.853411
	C9030	C	0.909218	0.952767	0.798119
	C9031	C	0.654708	0.892442	0.877083
	C9032	C	0.907678	0.888785	0.915639
	C9033	C	0.657777	0.954163	0.859864
	C9034	C	0.911446	1.003699	0.784753
	C9035	C	0.657720	0.946022	0.869843
	C9036	C	0.588815	0.953358	0.796831
	C9037	C	0.834600	0.893205	0.875014
	C9038	C	0.585784	0.947050	0.930536
	C9039	C	0.839115	1.007597	0.851125
	C9040	C	0.501246	1.000316	0.791397
	C9041	C	0.747327	0.942282	0.875840
	C9042	C	0.496697	0.893987	0.917049
	C9043	C	0.747399	0.958728	0.855663
	C9044	C	0.496282	0.942112	0.928336
	C9045	C	0.749647	1.002847	0.848358
	C9046	C	0.498780	0.957346	0.801403
	C9047	C	0.744344	0.897305	0.879471
	C9048	C	0.500946	0.992450	0.804071
	C9049	C	0.747231	0.933488	0.886442
	C9050	C	0.494743	0.904442	0.915680
	C9051	C	0.747627	0.967305	0.844514
	C9052	C	0.496729	0.932922	0.920452
	C9053	C	0.750184	0.993874	0.839881
	C9054	C	0.498429	0.966345	0.809818
	C9055	C	0.744129	0.906510	0.887369
	H9056	H	0.660408	1.001912	0.791149
	H9057	H	0.906275	0.944055	0.876313
	H9058	H	0.657177	0.893160	0.919198
	H9059	H	0.906451	0.958494	0.858576
	H9060	H	0.836281	0.942365	0.931522
	H9061	H	0.590466	1.002998	0.851354
	H9062	H	0.839719	0.955820	0.801685
	H9063	H	0.584552	0.895494	0.880578
	H9064	H	0.836791	0.892383	0.914642
	H9065	H	0.588475	0.956974	0.855159
	H9066	H	0.841832	1.000523	0.788769
	H9067	H	0.588533	0.942492	0.872933
	H9068	H	0.657969	0.956881	0.799299
	H9069	H	0.904252	0.896891	0.876777
	H9070	H	0.655760	0.944043	0.926856
	H9071	H	0.908686	1.004682	0.847163
	O9072	O	0.081383	0.992660	0.953408
	O9073	O	0.338170	0.922454	0.981616
	O9074	O	0.084769	0.899272	1.000557
	O9075	O	0.328398	0.971176	0.978006
	O9076	O	0.418604	0.919764	1.005357
	O9077	O	0.162346	0.991627	0.980218
	O9078	O	0.409596	0.972383	0.953405
	O9079	O	0.166113	0.901433	0.976393
	O9080	O	0.415420	0.898963	0.999560
	O9081	O	0.159013	0.970831	0.977110
	O9082	O	0.412969	0.992295	0.952628
	O9083	O	0.169000	0.922154	0.980650
	O9084	O	0.078887	0.972800	0.952527
	O9085	O	0.335196	0.901756	0.975783
	O9086	O	0.087676	0.920080	1.004865
	O9087	O	0.331498	0.992094	0.979291
	F9088	F	0.002378	0.911825	0.980439
	F9089	F	0.245628	0.982682	0.956214
	F9090	F	-0.004257	0.981713	0.976647
	F9091	F	0.251744	0.909623	1.000921
	Al9092	Al	0.127016	0.910727	0.990690
	Al9093	Al	0.370454	0.982197	0.966476
	Al9094	Al	0.120600	0.982181	0.966505
	Al9095	Al	0.376998	0.910724	0.990657
	C9096	C	0.086801	1.009382	0.934275
	C9097	C	0.339935	0.942034	0.980656
	C9098	C	0.093755	0.879786	1.001697
	C9099	C	0.337428	0.951727	0.980803
	C9100	C	0.412301	0.937244	1.019563
	C9101	C	0.155856	1.008617	0.995619
	C9102	C	0.405410	0.954878	0.939779
	C9103	C	0.161418	0.883715	0.963023
	C9104	C	0.413156	0.879422	0.999227
	C9105	C	0.157363	0.951291	0.978075
	C9106	C	0.407908	1.008461	0.932259
	C9107	C	0.159893	0.941597	0.977928
	C9108	C	0.085113	0.955739	0.937397
	C9109	C	0.341414	0.884381	0.961178
	C9110	C	0.091974	0.937937	1.017644
	C9111	C	0.335594	1.009603	0.992902
	C9112	C	-0.002819	1.004756	0.938323
	C9113	C	0.251264	0.936848	0.979241
	C9114	C	0.002383	0.884572	1.001014
	C9115	C	0.246121	0.956472	0.979523
	C9116	C	0.002379	0.932957	1.015583
	C9117	C	0.246090	1.004638	0.990816
	C9118	C	-0.005204	0.959792	0.941970
	C9119	C	0.251078	0.888648	0.965272
	C9120	C	-0.002944	0.995958	0.948935
	C9121	C	0.253088	0.926391	0.980543
	C9122	C	0.000680	0.895030	1.000423
	C9123	C	0.244316	0.966926	0.978177
	C9124	C	0.002835	0.923561	1.008163
	C9125	C	0.246660	0.995464	0.982837
	C9126	C	-0.005582	0.969009	0.949862
	C9127	C	0.250779	0.897960	0.972995
	H9128	H	0.156227	1.006578	0.938980
	H9129	H	0.410784	0.938451	0.981706
	H9130	H	0.162941	0.883661	1.003021
	H9131	H	0.406321	0.955644	0.981964
	H9132	H	0.342400	0.933507	1.018095
	H9133	H	0.086383	1.004844	0.994106
	H9134	H	0.335405	0.957892	0.943434
	H9135	H	0.090937	0.886892	0.966081
	H9136	H	0.342171	0.883021	0.998676
	H9137	H	0.086484	0.954891	0.976987
	H9138	H	0.338557	1.004901	0.935273
	H9139	H	0.090966	0.937666	0.976759
	H9140	H	0.154697	0.959468	0.939036
	H9141	H	0.411355	0.888105	0.962712
	H9142	H	0.162383	0.934779	1.014520
	H9143	H	0.405604	1.006635	0.989088
	O9144	O	0.581737	0.992672	0.953467
	O9145	O	0.837774	0.922491	0.981701
	O9146	O	0.584691	0.899223	1.000439
	O9147	O	0.827891	0.971157	0.978097
	O9148	O	0.918511	0.919689	1.005538
	O9149	O	0.661957	0.991590	0.980285
	O9150	O	0.909712	0.972415	0.953357
	O9151	O	0.665681	0.901438	0.976261
	O9152	O	0.915427	0.898973	0.999638
	O9153	O	0.658572	0.970822	0.977100
	O9154	O	0.912613	0.992311	0.952638
	O9155	O	0.668611	0.922135	0.980555
	O9156	O	0.578749	0.972793	0.952607
	O9157	O	0.834831	0.901767	0.975711
	O9158	O	0.587733	0.920059	1.004818
	O9159	O	0.831060	0.992049	0.979377
	F9160	F	0.501897	0.911818	0.980393
	F9161	F	0.745617	0.982681	0.956284
	F9162	F	0.495226	0.981704	0.976624
	F9163	F	0.751772	0.909611	1.000837
	Al9164	Al	0.626830	0.910713	0.990615
	Al9165	Al	0.870597	0.982181	0.966507
	Al9166	Al	0.620360	0.982168	0.966525
	Al9167	Al	0.877252	0.910726	0.990675
	C9168	C	0.587262	1.009367	0.934257
	C9169	C	0.839525	0.942010	0.980626
	C9170	C	0.593488	0.879773	1.001528
	C9171	C	0.837029	0.951704	0.980778
	C9172	C	0.911888	0.937230	1.019622
	C9173	C	0.655443	1.008544	0.995774
	C9174	C	0.905245	0.954851	0.939815
	C9175	C	0.661178	0.883698	0.963047
	C9176	C	0.913312	0.879446	0.999462
	C9177	C	0.656988	0.951289	0.978017
	C9178	C	0.907546	1.008466	0.932196
	C9179	C	0.659421	0.941593	0.977876
	C9180	C	0.585188	0.955785	0.937299
	C9181	C	0.841161	0.884409	0.961098
	C9182	C	0.592309	0.937942	1.017624
	C9183	C	0.835063	1.009599	0.992814
	C9184	C	0.497609	1.004758	0.938352
	C9185	C	0.750742	0.936839	0.979199
	C9186	C	0.502100	0.884551	1.000879
	C9187	C	0.745690	0.956459	0.979500
	C9188	C	0.502629	0.932974	1.015495
	C9189	C	0.745660	1.004610	0.990840
	C9190	C	0.494945	0.959802	0.941970
	C9191	C	0.750780	0.888664	0.965181
	C9192	C	0.497495	0.995961	0.948961
	C9193	C	0.752570	0.926391	0.980543
	C9194	C	0.500474	0.895009	1.000310
	C9195	C	0.743804	0.966911	0.978174
	C9196	C	0.503043	0.923586	1.008055
	C9197	C	0.746267	0.995421	0.982910
	C9198	C	0.494365	0.969001	0.949890
	C9199	C	0.750425	0.897980	0.972872
	H9200	H	0.656722	1.006561	0.938925
	H9201	H	0.910432	0.938425	0.981677
	H9202	H	0.662690	0.883653	1.002817
	H9203	H	0.906051	0.955624	0.981945
	H9204	H	0.842100	0.933480	1.018151
	H9205	H	0.586146	1.004725	0.994366
	H9206	H	0.835203	0.957867	0.943462
	H9207	H	0.590736	0.886868	0.966153
	H9208	H	0.842280	0.883043	0.998944
	H9209	H	0.586273	0.954879	0.976916
	H9210	H	0.838148	1.004907	0.935192
	H9211	H	0.590583	0.937663	0.976712
	H9212	H	0.654717	0.959529	0.938911
	H9213	H	0.911048	0.888152	0.962596
	H9214	H	0.662798	0.934773	1.014547
	H9215	H	0.904965	1.006650	0.988927
