data_Molecule from HDF5

_cell_length_a		13.392025
_cell_length_b		140.101648
_cell_length_c		88.756487
_cell_angle_alpha	87.756905
_cell_angle_beta	90.007957
_cell_angle_gamma	89.960745
_symmetry_space_group_name_H-M	'P 1'
_symmetry_Int_Tables_number		1

loop_
	_symmetry_equiv_pos_as_xyz
	x,y,z

loop_
	_atom_site_label
	_atom_site_type_symbol
	_atom_site_fract_x
	_atom_site_fract_y
	_atom_site_fract_z
	O0	O	0.089256	0.115014	0.065412
	O1	O	0.338606	0.043010	0.085852
	O2	O	0.088756	0.019057	0.101751
	O3	O	0.339958	0.092701	0.086664
	O4	O	0.419790	0.040178	0.107860
	O5	O	0.170665	0.113923	0.090235
	O6	O	0.420770	0.094795	0.064059
	O7	O	0.169809	0.022002	0.079761
	O8	O	0.419768	0.019080	0.101964
	O9	O	0.170746	0.092761	0.086835
	O10	O	0.420449	0.115048	0.065445
	O11	O	0.169595	0.043042	0.085881
	O12	O	0.089320	0.094760	0.064162
	O13	O	0.338588	0.021921	0.079928
	O14	O	0.088048	0.040168	0.107835
	O15	O	0.339373	0.113882	0.090272
	F16	F	0.004507	0.032344	0.084385
	F17	F	0.254943	0.104971	0.067836
	F18	F	0.005464	0.103694	0.086627
	F19	F	0.254028	0.029778	0.103246
	Al20	Al	0.129218	0.031062	0.093841
	Al21	Al	0.380011	0.104324	0.077222
	Al22	Al	0.130169	0.104317	0.077272
	Al23	Al	0.379115	0.031039	0.093911
	C24	C	0.094490	0.132091	0.048083
	C25	C	0.344536	0.062924	0.085820
	C26	C	0.093858	-0.000866	0.101642
	C27	C	0.344796	0.072793	0.086754
	C28	C	0.414333	0.057860	0.121853
	C29	C	0.165366	0.131264	0.104800
	C30	C	0.415235	0.077492	0.049252
	C31	C	0.164413	0.004339	0.065572
	C32	C	0.414036	-0.000847	0.101877
	C33	C	0.164643	0.072846	0.086928
	C34	C	0.415417	0.132187	0.048229
	C35	C	0.164395	0.062964	0.085978
	C36	C	0.094641	0.077403	0.049496
	C37	C	0.344066	0.004294	0.065719
	C38	C	0.093164	0.057855	0.121902
	C39	C	0.345078	0.131116	0.105168
	C40	C	0.004893	0.127792	0.052625
	C41	C	0.254347	0.057883	0.085456
	C42	C	0.003862	0.004212	0.102197
	C43	C	0.254893	0.077878	0.087364
	C44	C	0.003423	0.053218	0.118603
	C45	C	0.255167	0.126682	0.101458
	C46	C	0.004837	0.081931	0.053002
	C47	C	0.254212	0.008961	0.068922
	C48	C	0.004921	0.118636	0.061886
	C49	C	0.254164	0.047199	0.085722
	C50	C	0.004160	0.014903	0.101956
	C51	C	0.255220	0.088564	0.086983
	C52	C	0.003533	0.043832	0.110902
	C53	C	0.255074	0.117511	0.093401
	C54	C	0.004948	0.091172	0.061000
	C55	C	0.254172	0.018307	0.076723
	H56	H	0.163917	0.128753	0.051368
	H57	H	0.414554	0.059085	0.085371
	H58	H	0.163855	0.002959	0.101965
	H59	H	0.415041	0.076602	0.087024
	H60	H	0.344292	0.054400	0.119433
	H61	H	0.095489	0.127956	0.101922
	H62	H	0.345406	0.080926	0.051832
	H63	H	0.094001	0.007783	0.067918
	H64	H	0.344179	0.002996	0.102331
	H65	H	0.094871	0.076708	0.087321
	H66	H	0.345965	0.128920	0.051635
	H67	H	0.094442	0.059159	0.085653
	H68	H	0.164477	0.080773	0.052225
	H69	H	0.414352	0.007702	0.068190
	H70	H	0.163394	0.054402	0.119532
	H71	H	0.414881	0.127687	0.102592
	O72	O	0.589159	0.114998	0.065401
	O73	O	0.838191	0.043030	0.085616
	O74	O	0.588860	0.019063	0.101781
	O75	O	0.839546	0.092678	0.086785
	O76	O	0.919125	0.040167	0.107791
	O77	O	0.670022	0.113947	0.090153
	O78	O	0.920477	0.094769	0.064154
	O79	O	0.669200	0.022009	0.079701
	O80	O	0.919627	0.019107	0.101895
	O81	O	0.670415	0.092759	0.086892
	O82	O	0.920644	0.115061	0.065526
	O83	O	0.669134	0.043055	0.085762
	O84	O	0.589737	0.094718	0.064194
	O85	O	0.838035	0.021926	0.079780
	O86	O	0.588686	0.040161	0.107867
	O87	O	0.838923	0.113876	0.090292
	F88	F	0.503834	0.032341	0.084504
	F89	F	0.755239	0.104991	0.067879
	F90	F	0.504989	0.103691	0.086531
	F91	F	0.754158	0.029803	0.103099
	Al92	Al	0.629028	0.031075	0.093809
	Al93	Al	0.880266	0.104312	0.077303
	Al94	Al	0.630088	0.104312	0.077267
	Al95	Al	0.879484	0.031072	0.093747
	C96	C	0.594651	0.132077	0.048088
	C97	C	0.843940	0.062923	0.085760
	C98	C	0.594190	-0.000862	0.101650
	C99	C	0.844112	0.072787	0.086766
	C100	C	0.913471	0.057873	0.121836
	C101	C	0.664708	0.131279	0.104782
	C102	C	0.914948	0.077454	0.049401
	C103	C	0.663533	0.004322	0.065569
	C104	C	0.913687	-0.000843	0.101765
	C105	C	0.664014	0.072838	0.086917
	C106	C	0.915222	0.132178	0.048291
	C107	C	0.663800	0.062960	0.085907
	C108	C	0.594981	0.077361	0.049580
	C109	C	0.843182	0.004287	0.065707
	C110	C	0.594076	0.057857	0.121890
	C111	C	0.844645	0.131108	0.105168
	C112	C	0.504922	0.127810	0.052631
	C113	C	0.753760	0.057888	0.085268
	C114	C	0.504186	0.004204	0.102271
	C115	C	0.754232	0.077871	0.087333
	C116	C	0.504234	0.053210	0.118640
	C117	C	0.754600	0.126710	0.101421
	C118	C	0.505139	0.081932	0.052936
	C119	C	0.753334	0.008956	0.068889
	C120	C	0.504842	0.118634	0.061859
	C121	C	0.753701	0.047209	0.085527
	C122	C	0.504299	0.014896	0.102021
	C123	C	0.754781	0.088552	0.087015
	C124	C	0.504250	0.043828	0.110949
	C125	C	0.754497	0.117515	0.093374
	C126	C	0.505210	0.091151	0.060980
	C127	C	0.753498	0.018317	0.076633
	H128	H	0.664017	0.128720	0.051369
	H129	H	0.913981	0.059089	0.085353
	H130	H	0.664188	0.002967	0.101940
	H131	H	0.914359	0.076585	0.087128
	H132	H	0.843403	0.054427	0.119403
	H133	H	0.594870	0.127956	0.101905
	H134	H	0.845108	0.080862	0.052028
	H135	H	0.593259	0.007773	0.067894
	H136	H	0.843747	0.003000	0.102195
	H137	H	0.594187	0.076694	0.087380
	H138	H	0.845833	0.128907	0.051747
	H139	H	0.593720	0.059139	0.085603
	H140	H	0.664907	0.080680	0.052420
	H141	H	0.913473	0.007701	0.068154
	H142	H	0.664264	0.054404	0.119504
	H143	H	0.914371	0.127648	0.102634
	O144	O	0.088012	0.105494	0.148112
	O145	O	0.337655	0.031809	0.163285
	O146	O	0.087521	0.009484	0.184567
	O147	O	0.338318	0.081545	0.164157
	O148	O	0.418796	0.029778	0.185956
	O149	O	0.169211	0.102740	0.170144
	O150	O	0.419272	0.084495	0.142165
	O151	O	0.168867	0.010640	0.159817
	O152	O	0.419120	0.009538	0.184721
	O153	O	0.169257	0.081568	0.164227
	O154	O	0.419003	0.105533	0.148288
	O155	O	0.168490	0.031862	0.163403
	O156	O	0.087827	0.084460	0.142265
	O157	O	0.337829	0.010608	0.159872
	O158	O	0.087582	0.029752	0.185970
	O159	O	0.338077	0.102665	0.170262
	F160	F	0.003794	0.020885	0.163443
	F161	F	0.253731	0.094831	0.146852
	F162	F	0.004315	0.092259	0.165707
	F163	F	0.253205	0.019537	0.182238
	Al164	Al	0.128286	0.020227	0.172786
	Al165	Al	0.378715	0.093556	0.156250
	Al166	Al	0.128814	0.093562	0.156227
	Al167	Al	0.378230	0.020229	0.172800
	C168	C	0.094015	0.125406	0.148033
	C169	C	0.343444	0.051746	0.163139
	C170	C	0.092959	-0.007576	0.201897
	C171	C	0.343631	0.061620	0.164079
	C172	C	0.413215	0.047081	0.200642
	C173	C	0.163926	0.120406	0.184194
	C174	C	0.414188	0.066825	0.128123
	C175	C	0.163471	-0.006662	0.145044
	C176	C	0.413797	-0.007546	0.201978
	C177	C	0.163544	0.061652	0.164142
	C178	C	0.414182	0.125465	0.148464
	C179	C	0.163348	0.051774	0.163199
	C180	C	0.093136	0.066830	0.128180
	C181	C	0.343094	-0.006678	0.145105
	C182	C	0.092817	0.047085	0.200652
	C183	C	0.343612	0.120282	0.184473
	C184	C	0.003763	0.120366	0.147780
	C185	C	0.253271	0.046693	0.162667
	C186	C	0.003193	-0.003218	0.197485
	C187	C	0.253734	0.066700	0.164616
	C188	C	0.002998	0.042608	0.197029
	C189	C	0.253687	0.115702	0.181049
	C190	C	0.003336	0.071469	0.131397
	C191	C	0.253318	-0.002188	0.148638
	C192	C	0.003505	0.109690	0.148064
	C193	C	0.253166	0.036008	0.163113
	C194	C	0.003183	0.005912	0.188216
	C195	C	0.253786	0.077382	0.164353
	C196	C	0.003114	0.033370	0.189062
	C197	C	0.253687	0.106358	0.173297
	C198	C	0.003287	0.080838	0.139140
	C199	C	0.253368	0.007013	0.156700
	H200	H	0.163878	0.121568	0.147458
	H201	H	0.413272	0.047886	0.162794
	H202	H	0.162477	-0.004291	0.198517
	H203	H	0.413690	0.065434	0.164423
	H204	H	0.343366	0.043696	0.197989
	H205	H	0.093549	0.117041	0.181636
	H206	H	0.344001	0.070276	0.130520
	H207	H	0.093738	-0.003262	0.147727
	H208	H	0.344337	-0.004236	0.198627
	H209	H	0.093585	0.065490	0.164543
	H210	H	0.343984	0.121663	0.148232
	H211	H	0.093239	0.047971	0.162894
	H212	H	0.163282	0.070268	0.130616
	H213	H	0.412751	-0.003297	0.147826
	H214	H	0.162779	0.043680	0.198049
	H215	H	0.413890	0.116816	0.182155
	O216	O	0.588142	0.105481	0.148163
	O217	O	0.837231	0.031855	0.163228
	O218	O	0.587626	0.009515	0.184626
	O219	O	0.837978	0.081516	0.164343
	O220	O	0.918723	0.029766	0.185902
	O221	O	0.668537	0.102692	0.170238
	O222	O	0.918876	0.084517	0.142227
	O223	O	0.668362	0.010644	0.159833
	O224	O	0.918929	0.009545	0.184691
	O225	O	0.668866	0.081566	0.164353
	O226	O	0.918934	0.105517	0.148383
	O227	O	0.667994	0.031863	0.163322
	O228	O	0.588164	0.084449	0.142280
	O229	O	0.837299	0.010607	0.159863
	O230	O	0.587522	0.029777	0.185935
	O231	O	0.837402	0.102632	0.170435
	F232	F	0.503073	0.020870	0.163539
	F233	F	0.753854	0.094825	0.147027
	F234	F	0.503455	0.092258	0.165640
	F235	F	0.753332	0.019564	0.182179
	Al236	Al	0.628191	0.020240	0.172795
	Al237	Al	0.879079	0.093536	0.156402
	Al238	Al	0.628647	0.093543	0.156318
	Al239	Al	0.878410	0.020244	0.172749
	C240	C	0.594423	0.125406	0.148071
	C241	C	0.842838	0.051741	0.163160
	C242	C	0.593196	-0.007584	0.201867
	C243	C	0.843090	0.061615	0.164136
	C244	C	0.913089	0.047137	0.200514
	C245	C	0.663156	0.120399	0.184210
	C246	C	0.913479	0.066840	0.128114
	C247	C	0.663008	-0.006652	0.145041
	C248	C	0.913424	-0.007532	0.201965
	C249	C	0.662926	0.061656	0.164239
	C250	C	0.913883	0.125464	0.148513
	C251	C	0.662646	0.051782	0.163262
	C252	C	0.593874	0.066825	0.128166
	C253	C	0.842542	-0.006681	0.145131
	C254	C	0.593015	0.047091	0.200640
	C255	C	0.842880	0.120266	0.184527
	C256	C	0.504076	0.120366	0.147744
	C257	C	0.752637	0.046706	0.162661
	C258	C	0.503493	-0.003204	0.197508
	C259	C	0.753117	0.066695	0.164707
	C260	C	0.503148	0.042575	0.197076
	C261	C	0.752938	0.115691	0.181117
	C262	C	0.503937	0.071457	0.131385
	C263	C	0.752740	-0.002171	0.148610
	C264	C	0.503702	0.109677	0.148047
	C265	C	0.752608	0.036024	0.163054
	C266	C	0.503435	0.005918	0.188246
	C267	C	0.753319	0.077373	0.164484
	C268	C	0.503168	0.033376	0.189110
	C269	C	0.752942	0.106316	0.173419
	C270	C	0.503738	0.080824	0.139118
	C271	C	0.752783	0.007025	0.156680
	H272	H	0.664257	0.121553	0.147530
	H273	H	0.912677	0.047892	0.162787
	H274	H	0.662770	-0.004312	0.198436
	H275	H	0.913094	0.065422	0.164463
	H276	H	0.843252	0.043762	0.197796
	H277	H	0.592850	0.117022	0.181658
	H278	H	0.843409	0.070295	0.130513
	H279	H	0.593251	-0.003264	0.147732
	H280	H	0.843946	-0.004204	0.198632
	H281	H	0.592990	0.065493	0.164669
	H282	H	0.843730	0.121656	0.148333
	H283	H	0.592423	0.047969	0.162974
	H284	H	0.663979	0.070266	0.130602
	H285	H	0.912164	-0.003319	0.147903
	H286	H	0.663074	0.043710	0.198003
	H287	H	0.913197	0.116787	0.182259
	O288	O	0.086879	0.094330	0.225690
	O289	O	0.337670	0.029751	0.291244
	O290	O	0.087578	0.010300	0.319059
	O291	O	0.336969	0.072017	0.247024
	O292	O	0.418592	0.030144	0.316498
	O293	O	0.167790	0.092325	0.248313
	O294	O	0.418392	0.073144	0.222269
	O295	O	0.168817	0.009687	0.293325
	O296	O	0.419249	0.010283	0.319011
	O297	O	0.168343	0.072045	0.247085
	O298	O	0.417872	0.094386	0.225856
	O299	O	0.168870	0.029759	0.291286
	O300	O	0.087353	0.073156	0.222223
	O301	O	0.337789	0.009679	0.293305
	O302	O	0.087513	0.030137	0.316473
	O303	O	0.336710	0.092247	0.248451
	F304	F	0.003412	0.019669	0.295757
	F305	F	0.252610	0.083427	0.225951
	F306	F	0.002537	0.082040	0.244637
	F307	F	0.253257	0.020075	0.314117
	Al308	Al	0.128297	0.019882	0.304933
	Al309	Al	0.377609	0.082752	0.235236
	Al310	Al	0.127711	0.082750	0.235215
	Al311	Al	0.378241	0.019893	0.304927
	C312	C	0.093030	0.114252	0.225568
	C313	C	0.342559	0.046464	0.273057
	C314	C	0.093082	-0.005135	0.339949
	C315	C	0.342441	0.054922	0.264285
	C316	C	0.413306	0.047018	0.332132
	C317	C	0.162493	0.109702	0.262898
	C318	C	0.413077	0.055848	0.207565
	C319	C	0.163815	-0.007050	0.277309
	C320	C	0.414077	-0.005118	0.339921
	C321	C	0.163273	0.054946	0.264392
	C322	C	0.413112	0.114312	0.225942
	C323	C	0.163422	0.046504	0.273143
	C324	C	0.092704	0.055844	0.207555
	C325	C	0.343106	-0.007188	0.277694
	C326	C	0.092625	0.046956	0.332196
	C327	C	0.342307	0.109500	0.263336
	C328	C	0.002698	0.109216	0.225183
	C329	C	0.253040	0.042172	0.277608
	C330	C	0.003359	-0.001196	0.334636
	C331	C	0.252769	0.059279	0.259913
	C332	C	0.002924	0.042672	0.328201
	C333	C	0.252286	0.105099	0.259560
	C334	C	0.002789	0.060359	0.211024
	C335	C	0.253392	-0.002811	0.281402
	C336	C	0.002418	0.098525	0.225531
	C337	C	0.253199	0.033265	0.287461
	C338	C	0.003246	0.007045	0.323421
	C339	C	0.252643	0.068418	0.250630
	C340	C	0.003083	0.033681	0.319733
	C341	C	0.252302	0.095889	0.251531
	C342	C	0.002830	0.069561	0.219087
	C343	C	0.253299	0.006162	0.290004
	H344	H	0.162842	0.110391	0.225070
	H345	H	0.411884	0.043173	0.276500
	H346	H	0.162543	-0.002144	0.335923
	H347	H	0.411734	0.058236	0.260850
	H348	H	0.343838	0.043770	0.329072
	H349	H	0.092502	0.106406	0.260034
	H350	H	0.343547	0.059265	0.210299
	H351	H	0.094449	-0.003715	0.280204
	H352	H	0.344708	-0.002132	0.335832
	H353	H	0.093733	0.058242	0.261076
	H354	H	0.343006	0.110500	0.225724
	H355	H	0.093984	0.043274	0.276628
	H356	H	0.162446	0.059210	0.210324
	H357	H	0.412425	-0.003980	0.280910
	H358	H	0.162088	0.043667	0.329184
	H359	H	0.412269	0.106049	0.260843
	O360	O	0.587037	0.094329	0.225659
	O361	O	0.837404	0.029768	0.291247
	O362	O	0.587892	0.010306	0.319052
	O363	O	0.836826	0.072005	0.247049
	O364	O	0.918650	0.030150	0.316470
	O365	O	0.667496	0.092300	0.248369
	O366	O	0.918421	0.073204	0.222214
	O367	O	0.669000	0.009704	0.293229
	O368	O	0.918858	0.010312	0.319086
	O369	O	0.668185	0.072012	0.247034
	O370	O	0.917708	0.094356	0.225766
	O371	O	0.668631	0.029767	0.291284
	O372	O	0.587261	0.073182	0.222208
	O373	O	0.837802	0.009645	0.293331
	O374	O	0.587277	0.030164	0.316454
	O375	O	0.836416	0.092260	0.248502
	F376	F	0.503241	0.019680	0.295767
	F377	F	0.752806	0.083417	0.226006
	F378	F	0.502600	0.082035	0.244645
	F379	F	0.753389	0.020100	0.314096
	Al380	Al	0.628369	0.019911	0.304923
	Al381	Al	0.878026	0.082734	0.235280
	Al382	Al	0.627496	0.082750	0.235193
	Al383	Al	0.878439	0.019891	0.304907
	C384	C	0.593285	0.114256	0.225458
	C385	C	0.842251	0.046463	0.273044
	C386	C	0.593378	-0.005125	0.339982
	C387	C	0.842232	0.054921	0.264284
	C388	C	0.913073	0.046997	0.332116
	C389	C	0.662025	0.109704	0.262883
	C390	C	0.912958	0.055894	0.207414
	C391	C	0.663865	-0.007044	0.277291
	C392	C	0.913802	-0.005146	0.339955
	C393	C	0.663051	0.054950	0.264414
	C394	C	0.912803	0.114319	0.225838
	C395	C	0.663030	0.046507	0.273158
	C396	C	0.593097	0.055858	0.207553
	C397	C	0.843153	-0.007187	0.277671
	C398	C	0.592749	0.046959	0.332166
	C399	C	0.841888	0.109512	0.263331
	C400	C	0.502976	0.109223	0.225226
	C401	C	0.752677	0.042193	0.277650
	C402	C	0.503722	-0.001185	0.334602
	C403	C	0.752589	0.059271	0.259913
	C404	C	0.502924	0.042672	0.328194
	C405	C	0.751840	0.105107	0.259573
	C406	C	0.503066	0.060319	0.211121
	C407	C	0.753431	-0.002814	0.281429
	C408	C	0.502608	0.098532	0.225573
	C409	C	0.752942	0.033276	0.287466
	C410	C	0.503587	0.007035	0.323377
	C411	C	0.752503	0.068408	0.250633
	C412	C	0.502895	0.033691	0.319734
	C413	C	0.751879	0.095881	0.251583
	C414	C	0.502897	0.069540	0.219127
	C415	C	0.753356	0.006143	0.289987
	H416	H	0.663073	0.110397	0.224853
	H417	H	0.911464	0.043147	0.276431
	H418	H	0.662910	-0.002155	0.335946
	H419	H	0.911488	0.058216	0.260841
	H420	H	0.843562	0.043741	0.329042
	H421	H	0.592149	0.106404	0.260013
	H422	H	0.843255	0.059299	0.210081
	H423	H	0.594404	-0.003709	0.280181
	H424	H	0.844284	-0.002158	0.335921
	H425	H	0.593441	0.058253	0.261089
	H426	H	0.842671	0.110505	0.225569
	H427	H	0.593534	0.043263	0.276600
	H428	H	0.662695	0.059268	0.210255
	H429	H	0.912485	-0.003983	0.280870
	H430	H	0.662236	0.043669	0.329143
	H431	H	0.911746	0.106054	0.260842
	O432	O	0.087319	0.092157	0.353625
	O433	O	0.337807	0.034285	0.433852
	O434	O	0.088057	0.015522	0.462906
	O435	O	0.338076	0.072718	0.381484
	O436	O	0.419066	0.035353	0.459556
	O437	O	0.168726	0.092710	0.378869
	O438	O	0.419237	0.072212	0.355760
	O439	O	0.169460	0.014580	0.437066
	O440	O	0.419620	0.015598	0.462980
	O441	O	0.169389	0.072841	0.381618
	O442	O	0.418294	0.092344	0.353949
	O443	O	0.169093	0.034352	0.434002
	O444	O	0.087661	0.072142	0.355851
	O445	O	0.338337	0.014540	0.437117
	O446	O	0.088052	0.035260	0.459719
	O447	O	0.337504	0.092540	0.379190
	F448	F	0.003843	0.024537	0.439290
	F449	F	0.253488	0.082168	0.358295
	F450	F	0.003497	0.082571	0.376636
	F451	F	0.253861	0.025279	0.457525
	Al452	Al	0.128845	0.024910	0.448410
	Al453	Al	0.378367	0.082386	0.367470
	Al454	Al	0.128384	0.082387	0.367403
	Al455	Al	0.378868	0.024922	0.448375
	C456	C	0.092247	0.108770	0.335171
	C457	C	0.342944	0.049609	0.412773
	C458	C	0.093218	0.000367	0.484271
	C459	C	0.343122	0.057281	0.402347
	C460	C	0.414063	0.052174	0.475265
	C461	C	0.163851	0.109686	0.394253
	C462	C	0.413482	0.055445	0.339942
	C463	C	0.164119	-0.002059	0.420892
	C464	C	0.414409	0.000551	0.484589
	C465	C	0.163851	0.057415	0.402569
	C466	C	0.413194	0.109218	0.336126
	C467	C	0.163674	0.049741	0.412994
	C468	C	0.092611	0.055380	0.339986
	C469	C	0.343476	-0.002189	0.421176
	C470	C	0.093475	0.051850	0.475916
	C471	C	0.343275	0.109305	0.395069
	C472	C	0.002717	0.104668	0.340177
	C473	C	0.253212	0.045748	0.418212
	C474	C	0.003561	0.004311	0.478961
	C475	C	0.253506	0.061298	0.397171
	C476	C	0.003604	0.047736	0.471570
	C477	C	0.253381	0.105151	0.390790
	C478	C	0.002890	0.059684	0.343943
	C479	C	0.253846	0.002128	0.425091
	C480	C	0.002898	0.095745	0.349991
	C481	C	0.253344	0.037562	0.429551
	C482	C	0.003678	0.012389	0.467438
	C483	C	0.253645	0.069526	0.385912
	C484	C	0.003683	0.038795	0.462968
	C485	C	0.253209	0.096164	0.382300
	C486	C	0.003178	0.068638	0.352530
	C487	C	0.253882	0.011055	0.433757
	H488	H	0.161598	0.105316	0.338184
	H489	H	0.412382	0.046560	0.416739
	H490	H	0.162691	0.003222	0.480000
	H491	H	0.412635	0.060194	0.398180
	H492	H	0.344762	0.049062	0.471840
	H493	H	0.094293	0.106597	0.390824
	H494	H	0.344361	0.058768	0.342988
	H495	H	0.094777	0.001263	0.423858
	H496	H	0.344956	0.003541	0.480528
	H497	H	0.094537	0.060445	0.398582
	H498	H	0.343822	0.106128	0.339981
	H499	H	0.094264	0.046808	0.417134
	H500	H	0.162030	0.058642	0.343053
	H501	H	0.412908	0.001013	0.424378
	H502	H	0.162841	0.048471	0.473096
	H503	H	0.412715	0.105908	0.392322
	O504	O	0.587181	0.092150	0.353562
	O505	O	0.837791	0.034329	0.433912
	O506	O	0.588354	0.015488	0.462829
	O507	O	0.837608	0.072746	0.381519
	O508	O	0.919263	0.035333	0.459566
	O509	O	0.668654	0.092719	0.378871
	O510	O	0.918848	0.072194	0.355797
	O511	O	0.669603	0.014587	0.437026
	O512	O	0.919295	0.015598	0.462980
	O513	O	0.668940	0.072860	0.381647
	O514	O	0.918569	0.092301	0.353939
	O515	O	0.669017	0.034390	0.434014
	O516	O	0.588067	0.072132	0.355876
	O517	O	0.838347	0.014540	0.437114
	O518	O	0.587746	0.035235	0.459766
	O519	O	0.837448	0.092578	0.379185
	F520	F	0.503802	0.024546	0.439299
	F521	F	0.753423	0.082195	0.358326
	F522	F	0.503384	0.082610	0.376622
	F523	F	0.753837	0.025274	0.457475
	Al524	Al	0.628725	0.024913	0.448410
	Al525	Al	0.878643	0.082382	0.367504
	Al526	Al	0.628386	0.082404	0.367434
	Al527	Al	0.878870	0.024922	0.448352
	C528	C	0.592341	0.108780	0.335131
	C529	C	0.842938	0.049589	0.412718
	C530	C	0.593730	0.000401	0.484296
	C531	C	0.842847	0.057256	0.402285
	C532	C	0.913934	0.052169	0.475235
	C533	C	0.663659	0.109670	0.394263
	C534	C	0.913132	0.055421	0.339909
	C535	C	0.664357	-0.002080	0.420956
	C536	C	0.913901	0.000546	0.484564
	C537	C	0.663491	0.057421	0.402571
	C538	C	0.913186	0.109202	0.336156
	C539	C	0.663557	0.049752	0.412998
	C540	C	0.593058	0.055382	0.339982
	C541	C	0.843677	-0.002186	0.421192
	C542	C	0.593316	0.051862	0.475958
	C543	C	0.843169	0.109302	0.395130
	C544	C	0.502765	0.104691	0.340134
	C545	C	0.753287	0.045746	0.418188
	C546	C	0.504000	0.004331	0.478979
	C547	C	0.753128	0.061260	0.397090
	C548	C	0.503566	0.047731	0.471624
	C549	C	0.753279	0.105170	0.390753
	C550	C	0.503357	0.059688	0.343950
	C551	C	0.754038	0.002128	0.425122
	C552	C	0.502757	0.095752	0.349943
	C553	C	0.753372	0.037572	0.429537
	C554	C	0.503963	0.012369	0.467403
	C555	C	0.753213	0.069543	0.385929
	C556	C	0.503466	0.038805	0.462992
	C557	C	0.753063	0.096173	0.382308
	C558	C	0.503566	0.068645	0.352525
	C559	C	0.753970	0.011057	0.433743
	H560	H	0.661592	0.105309	0.338159
	H561	H	0.912426	0.046552	0.416673
	H562	H	0.663080	0.003266	0.480003
	H563	H	0.912223	0.060199	0.398140
	H564	H	0.844441	0.049050	0.471842
	H565	H	0.594088	0.106560	0.390873
	H566	H	0.843737	0.058713	0.342912
	H567	H	0.595006	0.001220	0.423962
	H568	H	0.844448	0.003554	0.480528
	H569	H	0.594085	0.060494	0.398663
	H570	H	0.843746	0.106107	0.340000
	H571	H	0.594118	0.046841	0.417200
	H572	H	0.662436	0.058648	0.343054
	H573	H	0.913088	0.001017	0.424392
	H574	H	0.662609	0.048495	0.473106
	H575	H	0.912607	0.105886	0.392447
	O576	O	0.087650	0.096741	0.496267
	O577	O	0.338551	0.040310	0.579035
	O578	O	0.088805	0.021697	0.608312
	O579	O	0.338572	0.077979	0.525248
	O580	O	0.419710	0.041439	0.604885
	O581	O	0.168988	0.097909	0.521858
	O582	O	0.419938	0.077153	0.499402
	O583	O	0.169612	0.020643	0.582498
	O584	O	0.419993	0.021686	0.608246
	O585	O	0.169879	0.078152	0.525502
	O586	O	0.419257	0.096932	0.496547
	O587	O	0.169847	0.040432	0.579230
	O588	O	0.088756	0.076984	0.499656
	O589	O	0.338465	0.020633	0.582445
	O590	O	0.088740	0.041406	0.604992
	O591	O	0.337646	0.097666	0.522419
	F592	F	0.004507	0.030659	0.584602
	F593	F	0.253910	0.087052	0.501747
	F594	F	0.004066	0.087807	0.519960
	F595	F	0.254352	0.031410	0.602813
	Al596	Al	0.129422	0.031032	0.593740
	Al597	Al	0.378930	0.087436	0.510855
	Al598	Al	0.128942	0.087425	0.510812
	Al599	Al	0.379320	0.031023	0.593703
	C600	C	0.093001	0.112047	0.475107
	C601	C	0.343865	0.055318	0.557353
	C602	C	0.094062	0.006625	0.629865
	C603	C	0.343844	0.062821	0.546654
	C604	C	0.414604	0.058165	0.620850
	C605	C	0.164034	0.114768	0.537543
	C606	C	0.414259	0.060531	0.483215
	C607	C	0.164129	0.003954	0.566460
	C608	C	0.414887	0.006592	0.629790
	C609	C	0.164540	0.063130	0.547148
	C610	C	0.414196	0.112361	0.475643
	C611	C	0.164582	0.055604	0.557874
	C612	C	0.093709	0.060203	0.483872
	C613	C	0.343679	0.003944	0.566457
	C614	C	0.094122	0.058063	0.621068
	C615	C	0.343392	0.114213	0.538739
	C616	C	0.003386	0.108277	0.480732
	C617	C	0.254258	0.051616	0.563091
	C618	C	0.004314	0.010444	0.624334
	C619	C	0.254207	0.066842	0.541462
	C620	C	0.004177	0.053861	0.616910
	C621	C	0.253553	0.110240	0.534028
	C622	C	0.004072	0.064611	0.487589
	C623	C	0.253953	0.008204	0.570518
	C624	C	0.003381	0.100048	0.492006
	C625	C	0.254195	0.043556	0.574654
	C626	C	0.004422	0.018530	0.612796
	C627	C	0.254192	0.074888	0.529875
	C628	C	0.004303	0.044929	0.608275
	C629	C	0.253303	0.101305	0.525444
	C630	C	0.004346	0.073553	0.496217
	C631	C	0.253999	0.017123	0.579159
	H632	H	0.162388	0.108920	0.478918
	H633	H	0.413493	0.052282	0.561260
	H634	H	0.163594	0.009581	0.625753
	H635	H	0.413438	0.065584	0.542274
	H636	H	0.345191	0.054952	0.617691
	H637	H	0.094489	0.111737	0.533974
	H638	H	0.345103	0.063926	0.486017
	H639	H	0.094667	0.007205	0.569569
	H640	H	0.345363	0.009498	0.625616
	H641	H	0.095325	0.066185	0.543127
	H642	H	0.344851	0.109507	0.479942
	H643	H	0.095416	0.052778	0.562271
	H644	H	0.163220	0.063325	0.487247
	H645	H	0.413151	0.007184	0.569551
	H646	H	0.163676	0.054787	0.618010
	H647	H	0.412742	0.110726	0.536177
	O648	O	0.588175	0.096748	0.496253
	O649	O	0.837976	0.040327	0.579064
	O650	O	0.588820	0.021671	0.608290
	O651	O	0.838443	0.077998	0.525341
	O652	O	0.919979	0.041454	0.604852
	O653	O	0.669125	0.097857	0.521996
	O654	O	0.920059	0.077136	0.499434
	O655	O	0.670137	0.020645	0.582492
	O656	O	0.920153	0.021692	0.608246
	O657	O	0.669726	0.078131	0.525462
	O658	O	0.919003	0.096895	0.496494
	O659	O	0.669326	0.040409	0.579229
	O660	O	0.588753	0.077001	0.499646
	O661	O	0.838965	0.020618	0.582474
	O662	O	0.588506	0.041377	0.605014
	O663	O	0.837860	0.097701	0.522342
	F664	F	0.504306	0.030616	0.584615
	F665	F	0.754131	0.087045	0.501777
	F666	F	0.503988	0.087806	0.519932
	F667	F	0.754554	0.031409	0.602795
	Al668	Al	0.629371	0.031014	0.593731
	Al669	Al	0.879105	0.087429	0.510892
	Al670	Al	0.629066	0.087423	0.510828
	Al671	Al	0.879558	0.031029	0.593663
	C672	C	0.593428	0.112031	0.475066
	C673	C	0.843326	0.055277	0.557340
	C674	C	0.594294	0.006613	0.629826
	C675	C	0.843422	0.062796	0.546669
	C676	C	0.914362	0.058165	0.620893
	C677	C	0.663973	0.114776	0.537482
	C678	C	0.914257	0.060522	0.483179
	C679	C	0.664396	0.003969	0.566456
	C680	C	0.914527	0.006578	0.629806
	C681	C	0.664043	0.063147	0.547156
	C682	C	0.913842	0.112391	0.475710
	C683	C	0.663953	0.055604	0.557864
	C684	C	0.593507	0.060218	0.483911
	C685	C	0.843822	0.003935	0.566409
	C686	C	0.594125	0.058050	0.621066
	C687	C	0.843290	0.114228	0.538775
	C688	C	0.503818	0.108274	0.480692
	C689	C	0.753607	0.051611	0.563107
	C690	C	0.504483	0.010461	0.624350
	C691	C	0.753806	0.066820	0.541435
	C692	C	0.504288	0.053857	0.616872
	C693	C	0.753567	0.110245	0.534055
	C694	C	0.503974	0.064623	0.487618
	C695	C	0.754260	0.008210	0.570481
	C696	C	0.503720	0.100058	0.491996
	C697	C	0.753595	0.043550	0.574658
	C698	C	0.504340	0.018490	0.612738
	C699	C	0.753971	0.074894	0.529911
	C700	C	0.504111	0.044934	0.608240
	C701	C	0.753522	0.101302	0.525468
	C702	C	0.504227	0.073555	0.496234
	C703	C	0.754495	0.017132	0.579135
	H704	H	0.662854	0.108909	0.478891
	H705	H	0.912910	0.052222	0.561226
	H706	H	0.663881	0.009535	0.625678
	H707	H	0.913142	0.065568	0.542333
	H708	H	0.844781	0.054964	0.617687
	H709	H	0.594565	0.111736	0.533879
	H710	H	0.845056	0.063923	0.485983
	H711	H	0.595065	0.007228	0.569597
	H712	H	0.844967	0.009503	0.625635
	H713	H	0.594767	0.066243	0.543194
	H714	H	0.844458	0.109544	0.480012
	H715	H	0.594646	0.052783	0.562241
	H716	H	0.662882	0.063351	0.487284
	H717	H	0.913334	0.007162	0.569498
	H718	H	0.663599	0.054749	0.618076
	H719	H	0.912590	0.110724	0.536237
	O720	O	0.088359	0.102728	0.641543
	O721	O	0.339020	0.046458	0.724558
	O722	O	0.089278	0.027731	0.753619
	O723	O	0.338898	0.084162	0.670832
	O724	O	0.420379	0.047511	0.750347
	O725	O	0.169478	0.103973	0.667352
	O726	O	0.420373	0.083141	0.645026
	O727	O	0.170525	0.026745	0.727860
	O728	O	0.420593	0.027737	0.753568
	O729	O	0.170185	0.084187	0.670862
	O730	O	0.420030	0.102919	0.641802
	O731	O	0.170309	0.046524	0.724656
	O732	O	0.089337	0.083091	0.645052
	O733	O	0.339356	0.026780	0.727719
	O734	O	0.088909	0.047458	0.750447
	O735	O	0.338294	0.103830	0.667634
	F736	F	0.004998	0.036752	0.729974
	F737	F	0.254632	0.093126	0.647191
	F738	F	0.004679	0.093889	0.665398
	F739	F	0.254979	0.037485	0.748217
	Al740	Al	0.129936	0.037123	0.739140
	Al741	Al	0.379549	0.093512	0.656303
	Al742	Al	0.129554	0.093503	0.656249
	Al743	Al	0.379952	0.037114	0.739067
	C744	C	0.093622	0.117682	0.619817
	C745	C	0.344052	0.061600	0.703124
	C746	C	0.094512	0.012349	0.774601
	C747	C	0.344063	0.069118	0.692418
	C748	C	0.414906	0.064281	0.766150
	C749	C	0.164455	0.120730	0.683240
	C750	C	0.414709	0.066507	0.628843
	C751	C	0.165028	0.010049	0.711854
	C752	C	0.415167	0.012398	0.774644
	C753	C	0.164883	0.069061	0.692308
	C754	C	0.414622	0.118157	0.620543
	C755	C	0.164845	0.061541	0.703013
	C756	C	0.094267	0.066402	0.629056
	C757	C	0.344560	0.010062	0.711738
	C758	C	0.094357	0.064092	0.766581
	C759	C	0.343970	0.120459	0.683799
	C760	C	0.003937	0.114054	0.625647
	C761	C	0.254515	0.057739	0.708568
	C762	C	0.004751	0.016287	0.769281
	C763	C	0.254440	0.072932	0.686885
	C764	C	0.004486	0.059926	0.762340
	C765	C	0.254109	0.116337	0.679479
	C766	C	0.004453	0.070706	0.633024
	C767	C	0.254818	0.014295	0.715881
	C768	C	0.003995	0.105990	0.637197
	C769	C	0.254670	0.049665	0.720108
	C770	C	0.004887	0.024487	0.757974
	C771	C	0.254538	0.081003	0.675349
	C772	C	0.004505	0.050994	0.753723
	C773	C	0.253939	0.107412	0.670828
	C774	C	0.004829	0.079628	0.641673
	C775	C	0.254909	0.023237	0.724492
	H776	H	0.163060	0.114554	0.623651
	H777	H	0.413299	0.058673	0.707326
	H778	H	0.164049	0.015327	0.770547
	H779	H	0.413329	0.072088	0.688292
	H780	H	0.345522	0.061121	0.762829
	H781	H	0.094982	0.117589	0.679914
	H782	H	0.345412	0.069791	0.631909
	H783	H	0.095680	0.013328	0.714938
	H784	H	0.345720	0.015402	0.770613
	H785	H	0.095420	0.071953	0.688114
	H786	H	0.345142	0.115428	0.625038
	H787	H	0.095357	0.058586	0.707099
	H788	H	0.163821	0.069620	0.632211
	H789	H	0.414019	0.013353	0.714732
	H790	H	0.163805	0.060754	0.763653
	H791	H	0.413285	0.117085	0.680932
	O792	O	0.588803	0.102748	0.641546
	O793	O	0.838756	0.046505	0.724578
	O794	O	0.589228	0.027734	0.753601
	O795	O	0.838670	0.084164	0.670862
	O796	O	0.920098	0.047542	0.750289
	O797	O	0.669817	0.103939	0.667428
	O798	O	0.920538	0.083168	0.644943
	O799	O	0.670270	0.026723	0.727886
	O800	O	0.920503	0.027693	0.753536
	O801	O	0.669881	0.084167	0.670833
	O802	O	0.919714	0.102890	0.641814
	O803	O	0.670094	0.046479	0.724549
	O804	O	0.589183	0.083118	0.644989
	O805	O	0.839174	0.026771	0.727744
	O806	O	0.589109	0.047460	0.750447
	O807	O	0.838556	0.103822	0.667692
	F808	F	0.504876	0.036758	0.730010
	F809	F	0.754737	0.093084	0.647210
	F810	F	0.504547	0.093919	0.665343
	F811	F	0.755030	0.037477	0.748170
	Al812	Al	0.629891	0.037124	0.739125
	Al813	Al	0.879760	0.093500	0.656339
	Al814	Al	0.629546	0.093507	0.656244
	Al815	Al	0.880086	0.037121	0.739046
	C816	C	0.594049	0.117690	0.619779
	C817	C	0.844004	0.061596	0.703102
	C818	C	0.594598	0.012357	0.774575
	C819	C	0.843946	0.069102	0.692375
	C820	C	0.914594	0.064282	0.766179
	C821	C	0.664386	0.120737	0.683195
	C822	C	0.914460	0.066507	0.628883
	C823	C	0.664883	0.010016	0.711886
	C824	C	0.915004	0.012389	0.774659
	C825	C	0.664592	0.069079	0.692329
	C826	C	0.914313	0.118148	0.620539
	C827	C	0.664645	0.061569	0.703042
	C828	C	0.594296	0.066395	0.629058
	C829	C	0.844475	0.010081	0.711728
	C830	C	0.594438	0.064075	0.766624
	C831	C	0.843937	0.120460	0.683828
	C832	C	0.504297	0.114050	0.625599
	C833	C	0.754305	0.057719	0.708505
	C834	C	0.504872	0.016320	0.769284
	C835	C	0.754242	0.072945	0.686905
	C836	C	0.504666	0.059898	0.762378
	C837	C	0.754157	0.116342	0.679459
	C838	C	0.504523	0.070717	0.632974
	C839	C	0.754670	0.014318	0.715811
	C840	C	0.504430	0.106000	0.637166
	C841	C	0.754378	0.049683	0.720099
	C842	C	0.504888	0.024506	0.757982
	C843	C	0.754269	0.080976	0.675316
	C844	C	0.504726	0.050987	0.753748
	C845	C	0.754194	0.107402	0.670861
	C846	C	0.504714	0.079632	0.641651
	C847	C	0.754707	0.023245	0.724472
	H848	H	0.663557	0.114566	0.623632
	H849	H	0.913374	0.058686	0.707326
	H850	H	0.664150	0.015324	0.770496
	H851	H	0.913344	0.072042	0.688190
	H852	H	0.844985	0.061099	0.762927
	H853	H	0.594988	0.117584	0.679849
	H854	H	0.845041	0.069816	0.631893
	H855	H	0.595456	0.013226	0.715110
	H856	H	0.845536	0.015398	0.770646
	H857	H	0.595019	0.071974	0.688126
	H858	H	0.844760	0.115406	0.624994
	H859	H	0.595263	0.058655	0.707203
	H860	H	0.663713	0.069590	0.632304
	H861	H	0.913826	0.013346	0.714829
	H862	H	0.663923	0.060753	0.763688
	H863	H	0.913355	0.117087	0.681008
	O864	O	0.088879	0.108924	0.786977
	O865	O	0.339133	0.051695	0.868296
	O866	O	0.089713	0.032243	0.896106
	O867	O	0.339399	0.090139	0.815950
	O868	O	0.420502	0.052445	0.893997
	O869	O	0.170115	0.110062	0.812709
	O870	O	0.420653	0.089298	0.790210
	O871	O	0.171036	0.031957	0.870894
	O872	O	0.420987	0.032377	0.896379
	O873	O	0.170640	0.090307	0.816207
	O874	O	0.420100	0.109040	0.787130
	O875	O	0.170453	0.051853	0.868526
	O876	O	0.089391	0.089209	0.790360
	O877	O	0.339762	0.031848	0.871066
	O878	O	0.089338	0.052364	0.894170
	O879	O	0.338956	0.109933	0.812973
	F880	F	0.005160	0.041965	0.873312
	F881	F	0.254865	0.099239	0.792475
	F882	F	0.004953	0.099999	0.810712
	F883	F	0.255073	0.042363	0.891690
	Al884	Al	0.130159	0.042172	0.882537
	Al885	Al	0.379848	0.099621	0.801589
	Al886	Al	0.129906	0.099621	0.801579
	Al887	Al	0.380030	0.042145	0.882543
	C888	C	0.094063	0.124010	0.765469
	C889	C	0.344697	0.067036	0.847245
	C890	C	0.094774	0.015380	0.913944
	C891	C	0.344743	0.074723	0.836813
	C892	C	0.415404	0.069250	0.909740
	C893	C	0.165026	0.126833	0.828551
	C894	C	0.414898	0.072649	0.774090
	C895	C	0.165419	0.015246	0.854905
	C896	C	0.415669	0.015737	0.914764
	C897	C	0.165364	0.075015	0.837386
	C898	C	0.414945	0.124188	0.765687
	C899	C	0.165335	0.067353	0.847785
	C900	C	0.094498	0.072450	0.774519
	C901	C	0.344956	0.014903	0.855664
	C902	C	0.094733	0.069104	0.910095
	C903	C	0.344530	0.126557	0.829134
	C904	C	0.004398	0.120227	0.771036
	C905	C	0.255019	0.063271	0.852831
	C906	C	0.005187	0.019880	0.909859
	C907	C	0.254984	0.078797	0.831782
	C908	C	0.004970	0.064893	0.905955
	C909	C	0.254694	0.122434	0.824794
	C910	C	0.004686	0.076795	0.778376
	C911	C	0.255296	0.019381	0.859247
	C912	C	0.004462	0.112147	0.782559
	C913	C	0.254858	0.055031	0.864056
	C914	C	0.005329	0.028809	0.900056
	C915	C	0.254986	0.086991	0.820474
	C916	C	0.004987	0.055923	0.897413
	C917	C	0.254552	0.113513	0.816155
	C918	C	0.004928	0.085743	0.786961
	C919	C	0.255328	0.028359	0.867730
	H920	H	0.163548	0.121009	0.769520
	H921	H	0.413983	0.063903	0.851079
	H922	H	0.164269	0.018498	0.910146
	H923	H	0.414013	0.077597	0.832492
	H924	H	0.346057	0.066049	0.906502
	H925	H	0.095626	0.123693	0.825193
	H926	H	0.345542	0.076028	0.776944
	H927	H	0.095962	0.018656	0.857617
	H928	H	0.346340	0.019171	0.911674
	H929	H	0.095795	0.078104	0.833571
	H930	H	0.345467	0.121334	0.769958
	H931	H	0.095735	0.064505	0.852031
	H932	H	0.164073	0.075634	0.777769
	H933	H	0.414428	0.018031	0.859014
	H934	H	0.164113	0.065770	0.907182
	H935	H	0.413866	0.123185	0.826250
	O936	O	0.588906	0.108919	0.786945
	O937	O	0.838859	0.051702	0.868297
	O938	O	0.589854	0.032228	0.896132
	O939	O	0.839410	0.090153	0.816032
	O940	O	0.920558	0.052444	0.894014
	O941	O	0.669924	0.110060	0.812694
	O942	O	0.920603	0.089306	0.790201
	O943	O	0.670863	0.031973	0.870844
	O944	O	0.920955	0.032392	0.896385
	O945	O	0.670627	0.090255	0.816123
	O946	O	0.920097	0.109037	0.787137
	O947	O	0.670143	0.051835	0.868533
	O948	O	0.589395	0.089198	0.790361
	O949	O	0.839646	0.031826	0.871116
	O950	O	0.589330	0.052337	0.894201
	O951	O	0.838822	0.109949	0.812977
	F952	F	0.505098	0.041945	0.873370
	F953	F	0.754913	0.099246	0.792499
	F954	F	0.504907	0.099965	0.810680
	F955	F	0.755208	0.042370	0.891677
	Al956	Al	0.630184	0.042158	0.882562
	Al957	Al	0.879989	0.099630	0.801622
	Al958	Al	0.629865	0.099613	0.801544
	Al959	Al	0.880401	0.042152	0.882511
	C960	C	0.594420	0.123990	0.765410
	C961	C	0.844346	0.067013	0.847267
	C962	C	0.594881	0.015370	0.913956
	C963	C	0.844493	0.074698	0.836837
	C964	C	0.915335	0.069257	0.909811
	C965	C	0.664812	0.126823	0.828569
	C966	C	0.914720	0.072643	0.774120
	C967	C	0.665209	0.015240	0.854921
	C968	C	0.915558	0.015751	0.914789
	C969	C	0.664994	0.075021	0.837393
	C970	C	0.914689	0.124196	0.765737
	C971	C	0.664866	0.067361	0.847807
	C972	C	0.594528	0.072440	0.774560
	C973	C	0.844716	0.014916	0.855687
	C974	C	0.594928	0.069100	0.910120
	C975	C	0.844351	0.126567	0.829117
	C976	C	0.504674	0.120242	0.771012
	C977	C	0.754480	0.063265	0.852846
	C978	C	0.505321	0.019871	0.909850
	C979	C	0.754774	0.078787	0.831805
	C980	C	0.505113	0.064876	0.905970
	C981	C	0.754473	0.122427	0.824841
	C982	C	0.504773	0.076781	0.778397
	C983	C	0.755101	0.019393	0.859227
	C984	C	0.504506	0.112165	0.782556
	C985	C	0.754462	0.055025	0.864066
	C986	C	0.505353	0.028793	0.900060
	C987	C	0.754921	0.086971	0.820483
	C988	C	0.504956	0.055898	0.897441
	C989	C	0.754337	0.113498	0.816196
	C990	C	0.504936	0.085729	0.786977
	C991	C	0.755217	0.028372	0.867705
	H992	H	0.663854	0.120968	0.769460
	H993	H	0.913680	0.063868	0.851113
	H994	H	0.664333	0.018492	0.910184
	H995	H	0.913938	0.077562	0.832511
	H996	H	0.845786	0.066037	0.906672
	H997	H	0.595437	0.123680	0.825189
	H998	H	0.845241	0.075990	0.777032
	H999	H	0.595817	0.018639	0.857671
	H1000	H	0.846140	0.019175	0.911710
	H1001	H	0.595457	0.078119	0.833571
	H1002	H	0.845156	0.121347	0.770028
	H1003	H	0.595298	0.064531	0.852058
	H1004	H	0.663920	0.075642	0.777803
	H1005	H	0.914260	0.018026	0.859063
	H1006	H	0.664468	0.065781	0.907194
	H1007	H	0.913664	0.123213	0.826201
	O1008	O	0.089144	0.114204	0.930925
	O1009	O	0.339382	0.052505	1.002867
	O1010	O	0.090020	0.030215	1.024173
	O1011	O	0.339704	0.094779	0.958747
	O1012	O	0.420442	0.051417	1.027672
	O1013	O	0.170530	0.114881	0.956661
	O1014	O	0.420628	0.094419	0.933445
	O1015	O	0.170836	0.032288	1.001573
	O1016	O	0.420786	0.030251	1.024322
	O1017	O	0.170849	0.094833	0.958843
	O1018	O	0.420644	0.114227	0.930926
	O1019	O	0.170746	0.052575	1.002997
	O1020	O	0.089961	0.094375	0.933566
	O1021	O	0.339812	0.032244	1.001600
	O1022	O	0.089248	0.051399	1.027721
	O1023	O	0.339534	0.114852	0.956696
	F1024	F	0.005114	0.042497	1.005298
	F1025	F	0.255103	0.104488	0.935914
	F1026	F	0.005143	0.104839	0.954273
	F1027	F	0.255283	0.041176	1.024005
	Al1028	Al	0.130310	0.041826	1.014732
	Al1029	Al	0.380094	0.104651	0.945089
	Al1030	Al	0.130146	0.104640	0.945072
	Al1031	Al	0.380284	0.041804	1.014746
	C1032	C	0.094387	0.129654	0.910055
	C1033	C	0.344796	0.069548	0.985524
	C1034	C	0.094924	0.010292	1.024157
	C1035	C	0.344879	0.077991	0.976766
	C1036	C	0.415121	0.068754	1.042315
	C1037	C	0.165466	0.131735	0.972334
	C1038	C	0.415327	0.077652	0.917569
	C1039	C	0.165272	0.014971	0.986844
	C1040	C	0.414963	0.010344	1.024311
	C1041	C	0.165558	0.078143	0.977049
	C1042	C	0.415107	0.129694	0.910085
	C1043	C	0.165494	0.069696	0.985811
	C1044	C	0.094951	0.077519	0.917915
	C1045	C	0.345040	0.014900	0.987002
	C1046	C	0.094671	0.068659	1.042561
	C1047	C	0.344998	0.131610	0.972602
	C1048	C	0.004694	0.125743	0.915396
	C1049	C	0.255104	0.065291	0.990099
	C1050	C	0.005072	0.015377	1.024818
	C1051	C	0.255189	0.082389	0.972437
	C1052	C	0.004848	0.064194	1.038969
	C1053	C	0.255186	0.127387	0.968524
	C1054	C	0.005311	0.081870	0.921782
	C1055	C	0.255181	0.019455	0.990399
	C1056	C	0.004781	0.117487	0.926605
	C1057	C	0.255084	0.056156	0.999381
	C1058	C	0.005435	0.026064	1.024470
	C1059	C	0.255263	0.091302	0.962609
	C1060	C	0.004815	0.054988	1.030901
	C1061	C	0.255043	0.118399	0.959957
	C1062	C	0.005585	0.090867	0.930260
	C1063	C	0.255265	0.028677	0.998410
	H1064	H	0.163851	0.126645	0.914081
	H1065	H	0.414109	0.066207	0.988812
	H1066	H	0.165035	0.014105	1.024407
	H1067	H	0.414321	0.081210	0.973213
	H1068	H	0.345298	0.065434	1.039466
	H1069	H	0.096153	0.128501	0.969155
	H1070	H	0.345958	0.081003	0.920416
	H1071	H	0.095403	0.018367	0.989500
	H1072	H	0.345148	0.014199	1.024712
	H1073	H	0.096136	0.081493	0.973717
	H1074	H	0.345643	0.126718	0.914150
	H1075	H	0.096117	0.066457	0.989345
	H1076	H	0.164393	0.080733	0.921071
	H1077	H	0.415020	0.018244	0.989777
	H1078	H	0.164413	0.065256	1.039886
	H1079	H	0.414243	0.128266	0.969661
	O1080	O	0.589388	0.114245	0.930963
	O1081	O	0.839220	0.052501	1.002877
	O1082	O	0.590015	0.030203	1.024172
	O1083	O	0.839509	0.094734	0.958706
	O1084	O	0.920350	0.051402	1.027724
	O1085	O	0.670380	0.114880	0.956628
	O1086	O	0.921208	0.094423	0.933506
	O1087	O	0.670475	0.032279	1.001532
	O1088	O	0.920832	0.030262	1.024327
	O1089	O	0.670723	0.094798	0.958824
	O1090	O	0.920421	0.114255	0.930989
	O1091	O	0.670589	0.052544	1.002969
	O1092	O	0.589501	0.094346	0.933586
	O1093	O	0.839418	0.032211	1.001629
	O1094	O	0.589350	0.051370	1.027768
	O1095	O	0.839225	0.114841	0.956721
	F1096	F	0.505025	0.042474	1.005322
	F1097	F	0.755081	0.104414	0.935940
	F1098	F	0.505156	0.104847	0.954237
	F1099	F	0.755283	0.041159	1.023999
	Al1100	Al	0.630177	0.041808	1.014753
	Al1101	Al	0.880294	0.104641	0.945105
	Al1102	Al	0.630094	0.104627	0.945082
	Al1103	Al	0.880588	0.041803	1.014696
	C1104	C	0.594624	0.129664	0.910065
	C1105	C	0.844577	0.069535	0.985550
	C1106	C	0.595035	0.010301	1.024157
	C1107	C	0.844641	0.077977	0.976787
	C1108	C	0.915014	0.068710	1.042471
	C1109	C	0.665032	0.131712	0.972356
	C1110	C	0.915514	0.077667	0.917637
	C1111	C	0.664816	0.014995	0.986786
	C1112	C	0.914795	0.010330	1.024440
	C1113	C	0.665319	0.078125	0.977051
	C1114	C	0.914952	0.129689	0.910057
	C1115	C	0.665244	0.069681	0.985821
	C1116	C	0.594811	0.077506	0.917944
	C1117	C	0.844608	0.014900	0.987001
	C1118	C	0.594831	0.068619	1.042646
	C1119	C	0.844458	0.131606	0.972580
	C1120	C	0.504860	0.125741	0.915389
	C1121	C	0.754899	0.065277	0.990110
	C1122	C	0.505073	0.015381	1.024778
	C1123	C	0.755076	0.082372	0.972456
	C1124	C	0.504920	0.064190	1.038949
	C1125	C	0.754744	0.127381	0.968506
	C1126	C	0.505016	0.081859	0.921754
	C1127	C	0.754811	0.019440	0.990421
	C1128	C	0.504975	0.117495	0.926606
	C1129	C	0.754902	0.056138	0.999386
	C1130	C	0.505297	0.026062	1.024455
	C1131	C	0.755121	0.091270	0.962605
	C1132	C	0.504880	0.055000	1.030873
	C1133	C	0.754774	0.118393	0.959950
	C1134	C	0.505043	0.090851	0.930239
	C1135	C	0.754902	0.028658	0.998413
	H1136	H	0.664111	0.126663	0.914117
	H1137	H	0.913988	0.066172	0.988813
	H1138	H	0.665069	0.014119	1.024441
	H1139	H	0.914103	0.081173	0.973192
	H1140	H	0.845333	0.065344	1.039719
	H1141	H	0.595735	0.128477	0.969180
	H1142	H	0.846215	0.081004	0.920569
	H1143	H	0.594995	0.018411	0.989398
	H1144	H	0.844967	0.014182	1.024911
	H1145	H	0.595975	0.081441	0.973667
	H1146	H	0.845349	0.126705	0.914083
	H1147	H	0.595767	0.066431	0.989314
	H1148	H	0.664286	0.080734	0.921090
	H1149	H	0.914545	0.018236	0.989770
	H1150	H	0.664615	0.065189	1.040070
	H1151	H	0.913662	0.128274	0.969601
	O1152	O	0.089394	0.239243	0.055888
	O1153	O	0.339318	0.177537	0.127961
	O1154	O	0.089977	0.155185	0.149105
	O1155	O	0.339373	0.219804	0.083765
	O1156	O	0.420506	0.176425	0.152700
	O1157	O	0.170557	0.239875	0.081640
	O1158	O	0.420721	0.219394	0.058448
	O1159	O	0.170815	0.157276	0.126562
	O1160	O	0.420853	0.155248	0.149311
	O1161	O	0.170602	0.219800	0.083745
	O1162	O	0.420405	0.239222	0.055881
	O1163	O	0.170744	0.177536	0.127969
	O1164	O	0.089374	0.219392	0.058472
	O1165	O	0.339717	0.157253	0.126605
	O1166	O	0.089332	0.176357	0.152785
	O1167	O	0.339378	0.239851	0.081622
	F1168	F	0.005043	0.167532	0.130308
	F1169	F	0.254947	0.229428	0.060857
	F1170	F	0.005197	0.229861	0.079232
	F1171	F	0.255139	0.166142	0.149012
	Al1172	Al	0.130230	0.166812	0.139746
	Al1173	Al	0.379930	0.229633	0.070042
	Al1174	Al	0.130023	0.229648	0.070049
	Al1175	Al	0.380163	0.166800	0.139762
	C1176	C	0.094377	0.254716	0.035065
	C1177	C	0.344638	0.194667	0.110779
	C1178	C	0.094445	0.135289	0.149017
	C1179	C	0.344717	0.203118	0.102000
	C1180	C	0.415218	0.193784	0.167219
	C1181	C	0.165633	0.256709	0.097372
	C1182	C	0.415490	0.202575	0.042767
	C1183	C	0.165381	0.140021	0.111721
	C1184	C	0.414656	0.135346	0.149457
	C1185	C	0.165393	0.203017	0.101792
	C1186	C	0.415256	0.254695	0.034991
	C1187	C	0.165326	0.194580	0.110553
	C1188	C	0.094723	0.202581	0.042723
	C1189	C	0.345187	0.139875	0.112089
	C1190	C	0.094643	0.193589	0.167736
	C1191	C	0.344928	0.256625	0.097464
	C1192	C	0.004736	0.250760	0.040365
	C1193	C	0.255001	0.190272	0.115069
	C1194	C	0.004627	0.140376	0.149799
	C1195	C	0.255030	0.207376	0.097378
	C1196	C	0.004843	0.189179	0.163975
	C1197	C	0.255239	0.252373	0.093459
	C1198	C	0.004897	0.206884	0.046696
	C1199	C	0.255298	0.144431	0.115443
	C1200	C	0.004999	0.242503	0.051594
	C1201	C	0.254997	0.181146	0.124377
	C1202	C	0.005139	0.151053	0.149425
	C1203	C	0.254982	0.216297	0.087563
	C1204	C	0.004841	0.179994	0.155907
	C1205	C	0.255030	0.243384	0.084939
	C1206	C	0.004978	0.215862	0.055233
	C1207	C	0.255274	0.153656	0.123440
	H1208	H	0.163880	0.251734	0.039120
	H1209	H	0.414016	0.191419	0.114299
	H1210	H	0.164616	0.139096	0.149170
	H1211	H	0.414194	0.206448	0.098662
	H1212	H	0.345415	0.190487	0.164297
	H1213	H	0.096358	0.253467	0.094244
	H1214	H	0.346037	0.205840	0.045821
	H1215	H	0.095649	0.143485	0.114255
	H1216	H	0.344857	0.139192	0.149959
	H1217	H	0.095944	0.206257	0.098275
	H1218	H	0.345777	0.251711	0.039028
	H1219	H	0.095938	0.191275	0.113885
	H1220	H	0.164180	0.205853	0.045774
	H1221	H	0.414944	0.143227	0.114924
	H1222	H	0.164305	0.190142	0.165207
	H1223	H	0.414222	0.253330	0.094426
	O1224	O	0.589089	0.239282	0.055987
	O1225	O	0.839278	0.177564	0.127964
	O1226	O	0.590088	0.155197	0.149179
	O1227	O	0.839312	0.219802	0.083805
	O1228	O	0.920412	0.176390	0.152720
	O1229	O	0.670528	0.239877	0.081653
	O1230	O	0.920600	0.219392	0.058504
	O1231	O	0.670608	0.157290	0.126538
	O1232	O	0.920716	0.155279	0.149333
	O1233	O	0.670455	0.219794	0.083709
	O1234	O	0.920769	0.239244	0.055927
	O1235	O	0.670621	0.177526	0.127917
	O1236	O	0.589581	0.219388	0.058492
	O1237	O	0.839567	0.157243	0.126578
	O1238	O	0.589383	0.176353	0.152790
	O1239	O	0.839384	0.239870	0.081692
	F1240	F	0.505081	0.167505	0.130329
	F1241	F	0.755097	0.229455	0.060921
	F1242	F	0.504938	0.229867	0.079190
	F1243	F	0.755309	0.166149	0.148965
	Al1244	Al	0.630173	0.166807	0.139743
	Al1245	Al	0.880181	0.229645	0.070098
	Al1246	Al	0.630004	0.229659	0.070050
	Al1247	Al	0.880553	0.166829	0.139688
	C1248	C	0.594550	0.254663	0.035040
	C1249	C	0.844410	0.194670	0.110777
	C1250	C	0.594879	0.135287	0.149067
	C1251	C	0.844403	0.203120	0.102010
	C1252	C	0.915105	0.193779	0.167281
	C1253	C	0.665297	0.256696	0.097388
	C1254	C	0.915101	0.202554	0.042805
	C1255	C	0.664937	0.140029	0.111704
	C1256	C	0.914303	0.135346	0.149487
	C1257	C	0.665061	0.203031	0.101799
	C1258	C	0.914933	0.254687	0.035036
	C1259	C	0.665067	0.194590	0.110559
	C1260	C	0.594980	0.202602	0.042701
	C1261	C	0.844801	0.139860	0.112080
	C1262	C	0.595001	0.193569	0.167748
	C1263	C	0.844807	0.256659	0.097483
	C1264	C	0.504810	0.250737	0.040360
	C1265	C	0.754789	0.190297	0.115115
	C1266	C	0.505062	0.140373	0.149788
	C1267	C	0.754693	0.207394	0.097418
	C1268	C	0.505056	0.189180	0.163924
	C1269	C	0.754988	0.252378	0.093503
	C1270	C	0.505268	0.206883	0.046723
	C1271	C	0.754944	0.144431	0.115437
	C1272	C	0.504713	0.242511	0.051594
	C1273	C	0.754871	0.181162	0.124390
	C1274	C	0.505383	0.151057	0.149434
	C1275	C	0.754827	0.216299	0.087573
	C1276	C	0.505011	0.179987	0.155910
	C1277	C	0.754911	0.243401	0.084952
	C1278	C	0.505185	0.215855	0.055213
	C1279	C	0.755023	0.153669	0.123406
	H1280	H	0.664137	0.251674	0.039085
	H1281	H	0.913759	0.191394	0.114242
	H1282	H	0.665080	0.139089	0.149240
	H1283	H	0.913744	0.206422	0.098631
	H1284	H	0.845306	0.190489	0.164358
	H1285	H	0.595890	0.253428	0.094327
	H1286	H	0.845554	0.205795	0.045923
	H1287	H	0.595148	0.143490	0.114204
	H1288	H	0.844465	0.139194	0.150027
	H1289	H	0.595614	0.206247	0.098255
	H1290	H	0.845404	0.251680	0.039059
	H1291	H	0.595572	0.191257	0.113844
	H1292	H	0.664507	0.205889	0.045687
	H1293	H	0.914719	0.143188	0.114904
	H1294	H	0.664802	0.190103	0.165290
	H1295	H	0.914240	0.253349	0.094501
	O1296	O	0.089467	0.239993	0.190240
	O1297	O	0.338128	0.168001	0.210676
	O1298	O	0.088660	0.144048	0.226799
	O1299	O	0.340604	0.217687	0.211522
	O1300	O	0.419133	0.165189	0.232750
	O1301	O	0.170979	0.238976	0.215107
	O1302	O	0.421240	0.219846	0.188906
	O1303	O	0.169705	0.146989	0.204741
	O1304	O	0.419611	0.144100	0.226945
	O1305	O	0.171427	0.217784	0.211820
	O1306	O	0.421063	0.240111	0.190490
	O1307	O	0.169088	0.168056	0.210924
	O1308	O	0.089958	0.219742	0.189133
	O1309	O	0.338569	0.146904	0.204868
	O1310	O	0.087606	0.165126	0.232859
	O1311	O	0.339825	0.238887	0.215261
	F1312	F	0.004294	0.157339	0.209373
	F1313	F	0.255515	0.230040	0.192778
	F1314	F	0.006063	0.228658	0.211549
	F1315	F	0.253838	0.154760	0.228207
	Al1316	Al	0.128934	0.156048	0.218816
	Al1317	Al	0.380572	0.229338	0.202157
	Al1318	Al	0.130674	0.229339	0.202190
	Al1319	Al	0.378837	0.156048	0.218799
	C1320	C	0.094783	0.257003	0.172755
	C1321	C	0.344460	0.187918	0.210583
	C1322	C	0.093531	0.124133	0.226605
	C1323	C	0.344960	0.197789	0.211563
	C1324	C	0.414090	0.182914	0.246683
	C1325	C	0.165851	0.256329	0.229719
	C1326	C	0.415312	0.202540	0.174148
	C1327	C	0.163998	0.129362	0.190519
	C1328	C	0.413537	0.124188	0.226966
	C1329	C	0.164820	0.197868	0.212023
	C1330	C	0.415852	0.257294	0.173466
	C1331	C	0.164270	0.187991	0.211044
	C1332	C	0.094798	0.202339	0.174666
	C1333	C	0.343675	0.129235	0.190799
	C1334	C	0.093183	0.182764	0.247017
	C1335	C	0.345586	0.256104	0.230246
	C1336	C	0.005128	0.252806	0.177542
	C1337	C	0.254088	0.182892	0.210358
	C1338	C	0.003616	0.129216	0.227273
	C1339	C	0.255156	0.202881	0.212372
	C1340	C	0.003231	0.178209	0.243552
	C1341	C	0.255577	0.251716	0.226433
	C1342	C	0.005167	0.206935	0.177972
	C1343	C	0.253924	0.133920	0.193955
	C1344	C	0.005091	0.243651	0.186768
	C1345	C	0.253748	0.172204	0.210643
	C1346	C	0.004046	0.139904	0.227011
	C1347	C	0.255792	0.213564	0.211947
	C1348	C	0.003183	0.168824	0.235838
	C1349	C	0.255425	0.242538	0.218345
	C1350	C	0.005335	0.216167	0.185939
	C1351	C	0.254082	0.143287	0.201708
	H1352	H	0.164158	0.253577	0.175813
	H1353	H	0.414129	0.184069	0.209987
	H1354	H	0.163757	0.127935	0.226880
	H1355	H	0.415057	0.201593	0.211675
	H1356	H	0.343808	0.179532	0.244117
	H1357	H	0.095911	0.253058	0.226764
	H1358	H	0.345679	0.206028	0.176632
	H1359	H	0.093870	0.132852	0.192808
	H1360	H	0.343766	0.128034	0.227526
	H1361	H	0.095123	0.201731	0.212528
	H1362	H	0.346338	0.254120	0.177116
	H1363	H	0.094125	0.184188	0.210817
	H1364	H	0.164662	0.205648	0.177521
	H1365	H	0.413905	0.132630	0.193322
	H1366	H	0.163289	0.179252	0.244766
	H1367	H	0.415176	0.252632	0.227743
	O1368	O	0.589705	0.239992	0.190283
	O1369	O	0.837578	0.168020	0.210512
	O1370	O	0.588668	0.144054	0.226760
	O1371	O	0.839894	0.217680	0.211705
	O1372	O	0.918743	0.165185	0.232677
	O1373	O	0.670576	0.238987	0.215072
	O1374	O	0.920959	0.219828	0.189006
	O1375	O	0.669071	0.146994	0.204663
	O1376	O	0.919545	0.144114	0.226894
	O1377	O	0.670765	0.217766	0.211811
	O1378	O	0.920864	0.240093	0.190498
	O1379	O	0.668446	0.168059	0.210776
	O1380	O	0.590120	0.219735	0.189132
	O1381	O	0.838011	0.146877	0.204765
	O1382	O	0.587956	0.165125	0.232835
	O1383	O	0.839507	0.238862	0.215315
	F1384	F	0.503583	0.157331	0.209425
	F1385	F	0.755651	0.230026	0.192826
	F1386	F	0.505469	0.228655	0.211463
	F1387	F	0.753908	0.154767	0.228037
	Al1388	Al	0.628704	0.156050	0.218755
	Al1389	Al	0.880700	0.229318	0.202265
	Al1390	Al	0.630531	0.229320	0.202202
	Al1391	Al	0.879267	0.156052	0.218687
	C1392	C	0.595219	0.256972	0.172753
	C1393	C	0.843797	0.187908	0.210540
	C1394	C	0.593680	0.124133	0.226487
	C1395	C	0.844321	0.197777	0.211567
	C1396	C	0.913436	0.182945	0.246625
	C1397	C	0.665401	0.256345	0.229670
	C1398	C	0.915226	0.202528	0.174221
	C1399	C	0.663335	0.129354	0.190490
	C1400	C	0.913289	0.124195	0.226863
	C1401	C	0.664204	0.197852	0.212065
	C1402	C	0.915547	0.257312	0.173494
	C1403	C	0.663609	0.187977	0.211047
	C1404	C	0.595134	0.202320	0.174672
	C1405	C	0.843033	0.129228	0.190809
	C1406	C	0.593829	0.182748	0.247049
	C1407	C	0.845176	0.256099	0.230226
	C1408	C	0.505502	0.252791	0.177541
	C1409	C	0.753432	0.182888	0.210226
	C1410	C	0.503845	0.129217	0.227285
	C1411	C	0.754532	0.202867	0.212344
	C1412	C	0.503825	0.178185	0.243615
	C1413	C	0.755232	0.251740	0.226375
	C1414	C	0.505342	0.206932	0.177919
	C1415	C	0.753258	0.133927	0.193886
	C1416	C	0.505457	0.243653	0.186799
	C1417	C	0.753086	0.172207	0.210465
	C1418	C	0.504054	0.139902	0.227011
	C1419	C	0.755107	0.213552	0.211988
	C1420	C	0.503601	0.168814	0.235891
	C1421	C	0.755161	0.242546	0.218305
	C1422	C	0.505635	0.216180	0.185870
	C1423	C	0.753360	0.143292	0.201608
	H1424	H	0.664627	0.253537	0.175817
	H1425	H	0.913566	0.184056	0.209953
	H1426	H	0.663779	0.127949	0.226647
	H1427	H	0.914522	0.201573	0.211727
	H1428	H	0.843206	0.179558	0.244046
	H1429	H	0.595595	0.253061	0.226711
	H1430	H	0.845452	0.205990	0.176709
	H1431	H	0.593209	0.132853	0.192761
	H1432	H	0.843461	0.128051	0.227362
	H1433	H	0.594533	0.201707	0.212649
	H1434	H	0.846116	0.254140	0.177168
	H1435	H	0.593562	0.184174	0.210868
	H1436	H	0.664931	0.205623	0.177581
	H1437	H	0.913305	0.132615	0.193326
	H1438	H	0.663899	0.179233	0.244804
	H1439	H	0.914933	0.252628	0.227757
	O1440	O	0.088512	0.230500	0.273060
	O1441	O	0.336827	0.156806	0.288196
	O1442	O	0.087313	0.134430	0.309359
	O1443	O	0.339227	0.206530	0.289072
	O1444	O	0.417826	0.154851	0.310846
	O1445	O	0.169793	0.227714	0.295145
	O1446	O	0.420105	0.209507	0.267131
	O1447	O	0.168563	0.135720	0.284624
	O1448	O	0.418676	0.134603	0.309721
	O1449	O	0.170218	0.206585	0.289206
	O1450	O	0.419558	0.230550	0.273226
	O1451	O	0.167689	0.156868	0.288333
	O1452	O	0.088773	0.209428	0.267249
	O1453	O	0.337462	0.135602	0.284873
	O1454	O	0.086660	0.154712	0.310996
	O1455	O	0.338669	0.227654	0.295232
	F1456	F	0.002925	0.145919	0.288381
	F1457	F	0.254393	0.219849	0.271799
	F1458	F	0.005050	0.217261	0.290645
	F1459	F	0.252585	0.144531	0.307168
	Al1460	Al	0.127689	0.145235	0.297718
	Al1461	Al	0.379465	0.218553	0.281214
	Al1462	Al	0.129547	0.218562	0.281188
	Al1463	Al	0.377502	0.145248	0.297764
	C1464	C	0.095031	0.250412	0.272955
	C1465	C	0.343205	0.176713	0.287837
	C1466	C	0.092308	0.117226	0.326398
	C1467	C	0.343848	0.186595	0.288819
	C1468	C	0.412815	0.172256	0.325289
	C1469	C	0.164784	0.245421	0.309103
	C1470	C	0.414326	0.191889	0.252955
	C1471	C	0.162734	0.118451	0.269809
	C1472	C	0.413383	0.117672	0.327365
	C1473	C	0.163790	0.186670	0.289400
	C1474	C	0.414930	0.250464	0.273517
	C1475	C	0.163115	0.176804	0.288425
	C1476	C	0.093421	0.191732	0.253315
	C1477	C	0.342614	0.118251	0.270275
	C1478	C	0.092541	0.171973	0.325932
	C1479	C	0.344411	0.245263	0.309488
	C1480	C	0.004610	0.245388	0.272733
	C1481	C	0.252822	0.171696	0.287656
	C1482	C	0.002845	0.121795	0.322483
	C1483	C	0.254129	0.191694	0.289622
	C1484	C	0.002603	0.167612	0.322052
	C1485	C	0.254495	0.240712	0.306044
	C1486	C	0.003748	0.196452	0.256370
	C1487	C	0.252814	0.122829	0.273604
	C1488	C	0.004175	0.234706	0.272984
	C1489	C	0.252378	0.161010	0.288051
	C1490	C	0.002985	0.130918	0.313139
	C1491	C	0.254591	0.202384	0.289319
	C1492	C	0.002340	0.158382	0.314058
	C1493	C	0.254280	0.231340	0.298288
	C1494	C	0.004187	0.205828	0.264113
	C1495	C	0.252943	0.132047	0.281617
	H1496	H	0.164791	0.246557	0.272320
	H1497	H	0.412771	0.172837	0.287224
	H1498	H	0.161807	0.120321	0.322566
	H1499	H	0.413953	0.190404	0.288950
	H1500	H	0.342874	0.168974	0.322379
	H1501	H	0.094870	0.242009	0.306470
	H1502	H	0.344306	0.195415	0.255195
	H1503	H	0.093144	0.121932	0.272310
	H1504	H	0.344085	0.121146	0.324405
	H1505	H	0.094098	0.190518	0.289996
	H1506	H	0.344767	0.246663	0.273347
	H1507	H	0.092887	0.173020	0.288299
	H1508	H	0.163636	0.195107	0.255894
	H1509	H	0.412515	0.121551	0.273152
	H1510	H	0.162327	0.168472	0.323539
	H1511	H	0.414197	0.241714	0.307174
	O1512	O	0.588668	0.230481	0.273122
	O1513	O	0.836280	0.156824	0.288040
	O1514	O	0.587338	0.134450	0.309392
	O1515	O	0.838745	0.206492	0.289198
	O1516	O	0.917765	0.154858	0.310764
	O1517	O	0.669226	0.227698	0.295239
	O1518	O	0.919863	0.209544	0.267151
	O1519	O	0.668015	0.135730	0.284650
	O1520	O	0.918839	0.134624	0.309727
	O1521	O	0.669712	0.206582	0.289434
	O1522	O	0.919440	0.230554	0.273314
	O1523	O	0.667128	0.156889	0.288376
	O1524	O	0.588994	0.209422	0.267265
	O1525	O	0.836967	0.135599	0.284811
	O1526	O	0.586752	0.154748	0.310998
	O1527	O	0.838127	0.227638	0.295377
	F1528	F	0.502378	0.145928	0.288484
	F1529	F	0.754497	0.219841	0.271979
	F1530	F	0.504154	0.217263	0.290609
	F1531	F	0.752703	0.144553	0.307107
	Al1532	Al	0.627548	0.145252	0.297723
	Al1533	Al	0.879787	0.218550	0.281309
	Al1534	Al	0.629278	0.218538	0.281280
	Al1535	Al	0.877759	0.145262	0.297711
	C1536	C	0.595126	0.250395	0.272982
	C1537	C	0.842681	0.176714	0.287864
	C1538	C	0.592462	0.117233	0.326371
	C1539	C	0.843275	0.186591	0.288893
	C1540	C	0.912864	0.172288	0.325202
	C1541	C	0.664124	0.245434	0.309107
	C1542	C	0.913640	0.191909	0.252917
	C1543	C	0.662047	0.118464	0.269790
	C1544	C	0.913205	0.117655	0.327385
	C1545	C	0.663052	0.186666	0.289500
	C1546	C	0.914881	0.250491	0.273570
	C1547	C	0.662523	0.176804	0.288486
	C1548	C	0.594054	0.191722	0.253336
	C1549	C	0.841934	0.118265	0.270240
	C1550	C	0.592667	0.172008	0.325835
	C1551	C	0.843902	0.245245	0.309541
	C1552	C	0.504754	0.245375	0.272700
	C1553	C	0.752269	0.171709	0.287669
	C1554	C	0.503022	0.121789	0.322434
	C1555	C	0.753452	0.191685	0.289735
	C1556	C	0.502553	0.167625	0.322014
	C1557	C	0.753893	0.240715	0.306072
	C1558	C	0.504321	0.196434	0.256399
	C1559	C	0.752059	0.122836	0.273584
	C1560	C	0.504281	0.234686	0.272972
	C1561	C	0.751821	0.161026	0.288008
	C1562	C	0.503018	0.130919	0.313130
	C1563	C	0.753993	0.202364	0.289480
	C1564	C	0.502365	0.158405	0.314049
	C1565	C	0.753687	0.231340	0.298356
	C1566	C	0.504461	0.205806	0.264110
	C1567	C	0.752346	0.132051	0.281608
	H1568	H	0.664850	0.246538	0.272367
	H1569	H	0.912311	0.172849	0.287219
	H1570	H	0.661848	0.120342	0.322575
	H1571	H	0.913358	0.190406	0.289021
	H1572	H	0.842824	0.169048	0.322206
	H1573	H	0.594173	0.242016	0.306477
	H1574	H	0.843604	0.195429	0.255190
	H1575	H	0.592337	0.121941	0.272273
	H1576	H	0.843838	0.121116	0.324386
	H1577	H	0.593214	0.190509	0.290133
	H1578	H	0.844661	0.246695	0.273442
	H1579	H	0.592287	0.173019	0.288370
	H1580	H	0.664271	0.195109	0.255910
	H1581	H	0.911784	0.121582	0.273107
	H1582	H	0.662477	0.168525	0.323383
	H1583	H	0.913691	0.241674	0.307269
	O1584	O	0.087640	0.219320	0.350732
	O1585	O	0.337481	0.154675	0.416073
	O1586	O	0.087934	0.135245	0.443928
	O1587	O	0.337673	0.196964	0.371916
	O1588	O	0.418524	0.155209	0.441421
	O1589	O	0.168386	0.217358	0.373298
	O1590	O	0.418977	0.198224	0.347178
	O1591	O	0.169738	0.134781	0.418109
	O1592	O	0.419578	0.135404	0.444154
	O1593	O	0.169088	0.197085	0.372182
	O1594	O	0.418212	0.219389	0.350925
	O1595	O	0.168679	0.154833	0.416350
	O1596	O	0.087820	0.198106	0.347387
	O1597	O	0.338586	0.134600	0.418500
	O1598	O	0.087556	0.155093	0.441595
	O1599	O	0.337526	0.217217	0.373530
	F1600	F	0.003614	0.144720	0.420730
	F1601	F	0.253165	0.208403	0.350970
	F1602	F	0.003037	0.207061	0.369682
	F1603	F	0.253433	0.145102	0.439104
	Al1604	Al	0.128518	0.144917	0.429908
	Al1605	Al	0.378074	0.207756	0.360244
	Al1606	Al	0.128154	0.207759	0.360259
	Al1607	Al	0.378480	0.144916	0.429936
	C1608	C	0.093718	0.239230	0.350499
	C1609	C	0.342790	0.171323	0.397679
	C1610	C	0.093082	0.119735	0.464685
	C1611	C	0.342948	0.179766	0.388932
	C1612	C	0.413562	0.172105	0.456945
	C1613	C	0.163401	0.234740	0.387810
	C1614	C	0.413067	0.181005	0.332238
	C1615	C	0.164099	0.118109	0.402048
	C1616	C	0.414178	0.120049	0.465233
	C1617	C	0.163577	0.180135	0.389775
	C1618	C	0.413620	0.239324	0.351033
	C1619	C	0.163499	0.171681	0.398534
	C1620	C	0.092798	0.180720	0.332864
	C1621	C	0.343582	0.117724	0.402864
	C1622	C	0.092597	0.171843	0.457450
	C1623	C	0.343251	0.234491	0.388421
	C1624	C	0.003424	0.234203	0.350238
	C1625	C	0.253193	0.167186	0.402591
	C1626	C	0.003512	0.123822	0.459636
	C1627	C	0.253279	0.184297	0.384934
	C1628	C	0.002946	0.167674	0.453234
	C1629	C	0.253225	0.230123	0.384601
	C1630	C	0.003134	0.185363	0.336054
	C1631	C	0.253948	0.122196	0.406463
	C1632	C	0.003144	0.223517	0.350578
	C1633	C	0.253154	0.158264	0.412409
	C1634	C	0.003654	0.132059	0.448376
	C1635	C	0.253369	0.193423	0.375640
	C1636	C	0.003170	0.158678	0.444754
	C1637	C	0.253050	0.220880	0.376584
	C1638	C	0.003298	0.194572	0.344088
	C1639	C	0.254138	0.131155	0.415040
	H1640	H	0.163507	0.235374	0.349924
	H1641	H	0.412326	0.167914	0.400760
	H1642	H	0.162444	0.122594	0.460411
	H1643	H	0.412479	0.182901	0.385206
	H1644	H	0.344208	0.168930	0.453682
	H1645	H	0.093481	0.231461	0.384865
	H1646	H	0.343474	0.184498	0.334744
	H1647	H	0.094796	0.121550	0.404711
	H1648	H	0.344765	0.123184	0.461469
	H1649	H	0.094262	0.183603	0.386730
	H1650	H	0.343432	0.235530	0.350882
	H1651	H	0.094109	0.168554	0.402353
	H1652	H	0.162667	0.183977	0.335858
	H1653	H	0.413159	0.120857	0.406226
	H1654	H	0.161834	0.168460	0.454644
	H1655	H	0.413038	0.231004	0.385970
	O1656	O	0.587504	0.219312	0.350698
	O1657	O	0.837460	0.154735	0.416152
	O1658	O	0.588245	0.135243	0.443924
	O1659	O	0.837846	0.196956	0.371904
	O1660	O	0.918776	0.155197	0.441385
	O1661	O	0.667944	0.217310	0.373384
	O1662	O	0.918943	0.198264	0.347099
	O1663	O	0.669200	0.134754	0.418207
	O1664	O	0.919289	0.135349	0.444101
	O1665	O	0.669270	0.197108	0.372207
	O1666	O	0.918321	0.219362	0.350842
	O1667	O	0.668585	0.154838	0.416309
	O1668	O	0.587901	0.198125	0.347336
	O1669	O	0.838071	0.134648	0.418375
	O1670	O	0.587340	0.155115	0.441583
	O1671	O	0.836979	0.217280	0.373456
	F1672	F	0.503403	0.144734	0.420769
	F1673	F	0.753190	0.208433	0.351007
	F1674	F	0.503048	0.207047	0.369663
	F1675	F	0.753518	0.145102	0.439062
	Al1676	Al	0.628480	0.144919	0.429910
	Al1677	Al	0.878555	0.207747	0.360287
	Al1678	Al	0.628247	0.207761	0.360268
	Al1679	Al	0.878687	0.144917	0.429863
	C1680	C	0.593732	0.239253	0.350443
	C1681	C	0.842822	0.171316	0.397671
	C1682	C	0.593320	0.119723	0.464658
	C1683	C	0.842853	0.179750	0.388908
	C1684	C	0.913409	0.172120	0.456896
	C1685	C	0.662754	0.234707	0.387901
	C1686	C	0.913090	0.181038	0.332121
	C1687	C	0.663800	0.118096	0.402049
	C1688	C	0.913934	0.120079	0.465294
	C1689	C	0.663681	0.180174	0.389812
	C1690	C	0.913529	0.239298	0.350987
	C1691	C	0.663589	0.171721	0.398582
	C1692	C	0.592939	0.180754	0.332793
	C1693	C	0.843368	0.117730	0.402918
	C1694	C	0.592822	0.171850	0.457490
	C1695	C	0.842543	0.234505	0.388370
	C1696	C	0.503379	0.234233	0.350262
	C1697	C	0.753228	0.167196	0.402594
	C1698	C	0.503710	0.123812	0.459606
	C1699	C	0.753384	0.184290	0.384911
	C1700	C	0.503048	0.167678	0.453262
	C1701	C	0.752550	0.230108	0.384643
	C1702	C	0.503151	0.185364	0.336042
	C1703	C	0.753613	0.122203	0.406450
	C1704	C	0.503037	0.223525	0.350611
	C1705	C	0.753088	0.158270	0.412389
	C1706	C	0.503855	0.132065	0.448389
	C1707	C	0.753520	0.193434	0.375654
	C1708	C	0.502953	0.158692	0.444785
	C1709	C	0.752453	0.220890	0.376572
	C1710	C	0.503363	0.194567	0.344109
	C1711	C	0.753583	0.131188	0.414959
	H1712	H	0.663490	0.235398	0.349803
	H1713	H	0.912303	0.167893	0.400743
	H1714	H	0.662733	0.122590	0.460413
	H1715	H	0.912326	0.182871	0.385182
	H1716	H	0.843992	0.168958	0.453609
	H1717	H	0.592850	0.231423	0.384969
	H1718	H	0.843375	0.184556	0.334488
	H1719	H	0.594469	0.121536	0.404707
	H1720	H	0.844586	0.123226	0.461503
	H1721	H	0.594503	0.183661	0.386829
	H1722	H	0.843390	0.235489	0.350804
	H1723	H	0.594252	0.168607	0.402448
	H1724	H	0.662820	0.184018	0.335763
	H1725	H	0.912892	0.120866	0.406292
	H1726	H	0.662048	0.168465	0.454669
	H1727	H	0.912353	0.231057	0.385823
	O1728	O	0.087881	0.217228	0.478812
	O1729	O	0.338223	0.159261	0.558935
	O1730	O	0.088751	0.140446	0.587831
	O1731	O	0.338451	0.197708	0.506513
	O1732	O	0.419489	0.160297	0.584739
	O1733	O	0.169591	0.217678	0.503973
	O1734	O	0.419551	0.197212	0.480786
	O1735	O	0.169964	0.139653	0.561926
	O1736	O	0.420095	0.140661	0.588159
	O1737	O	0.169846	0.197825	0.506705
	O1738	O	0.419174	0.217261	0.478846
	O1739	O	0.169488	0.159346	0.558996
	O1740	O	0.088336	0.197105	0.480957
	O1741	O	0.338741	0.139428	0.562361
	O1742	O	0.088221	0.160240	0.584734
	O1743	O	0.338398	0.217603	0.504081
	F1744	F	0.004010	0.149526	0.564297
	F1745	F	0.253743	0.207175	0.483355
	F1746	F	0.003918	0.207576	0.501714
	F1747	F	0.253740	0.150270	0.582552
	Al1748	Al	0.128993	0.149892	0.573384
	Al1749	Al	0.378830	0.207376	0.492477
	Al1750	Al	0.128936	0.207380	0.492513
	Al1751	Al	0.378928	0.149909	0.573481
	C1752	C	0.093152	0.233950	0.460610
	C1753	C	0.343643	0.174582	0.537838
	C1754	C	0.093733	0.125218	0.609120
	C1755	C	0.343718	0.182258	0.527431
	C1756	C	0.414546	0.177041	0.600578
	C1757	C	0.164703	0.234477	0.519721
	C1758	C	0.413890	0.180518	0.464749
	C1759	C	0.164192	0.123129	0.545513
	C1760	C	0.414655	0.125684	0.609841
	C1761	C	0.164451	0.182399	0.527591
	C1762	C	0.414012	0.234032	0.460766
	C1763	C	0.164338	0.174711	0.537997
	C1764	C	0.092978	0.180264	0.465245
	C1765	C	0.343594	0.122575	0.546697
	C1766	C	0.093866	0.176951	0.600728
	C1767	C	0.343919	0.234442	0.519779
	C1768	C	0.003500	0.229668	0.465185
	C1769	C	0.253987	0.170738	0.543277
	C1770	C	0.004144	0.129313	0.604029
	C1771	C	0.254197	0.186267	0.522201
	C1772	C	0.004090	0.172722	0.596623
	C1773	C	0.254305	0.230172	0.515763
	C1774	C	0.003515	0.184688	0.468954
	C1775	C	0.254036	0.127124	0.550111
	C1776	C	0.003460	0.220754	0.475030
	C1777	C	0.253933	0.162541	0.554582
	C1778	C	0.004346	0.137371	0.592453
	C1779	C	0.254180	0.194512	0.510972
	C1780	C	0.003850	0.163784	0.587997
	C1781	C	0.254056	0.221178	0.507282
	C1782	C	0.003889	0.193644	0.477564
	C1783	C	0.254257	0.136039	0.558783
	H1784	H	0.162655	0.230659	0.464028
	H1785	H	0.413094	0.171539	0.541809
	H1786	H	0.163225	0.127948	0.604637
	H1787	H	0.413267	0.185191	0.523335
	H1788	H	0.345160	0.173806	0.597466
	H1789	H	0.095306	0.231201	0.516671
	H1790	H	0.344707	0.183904	0.467572
	H1791	H	0.094998	0.126610	0.548144
	H1792	H	0.345245	0.128812	0.606005
	H1793	H	0.095181	0.185454	0.523603
	H1794	H	0.344642	0.230802	0.464303
	H1795	H	0.094982	0.171762	0.542112
	H1796	H	0.162448	0.183417	0.468507
	H1797	H	0.412957	0.125606	0.550328
	H1798	H	0.163198	0.173657	0.597687
	H1799	H	0.413171	0.231144	0.516779
	O1800	O	0.587966	0.217205	0.478753
	O1801	O	0.837690	0.159275	0.558919
	O1802	O	0.588757	0.140448	0.587800
	O1803	O	0.838227	0.197751	0.506622
	O1804	O	0.919434	0.160313	0.584605
	O1805	O	0.669242	0.217647	0.504001
	O1806	O	0.919608	0.197236	0.480760
	O1807	O	0.669710	0.139629	0.561890
	O1808	O	0.920111	0.140648	0.588096
	O1809	O	0.669539	0.197796	0.506624
	O1810	O	0.919008	0.217273	0.478861
	O1811	O	0.668938	0.159344	0.559002
	O1812	O	0.588292	0.197118	0.480919
	O1813	O	0.838616	0.139425	0.562344
	O1814	O	0.588314	0.160224	0.584773
	O1815	O	0.837962	0.217630	0.504067
	F1816	F	0.503780	0.149533	0.564341
	F1817	F	0.753853	0.207160	0.483359
	F1818	F	0.503861	0.207563	0.501656
	F1819	F	0.754073	0.150259	0.582494
	Al1820	Al	0.628859	0.149905	0.573411
	Al1821	Al	0.879018	0.207386	0.492520
	Al1822	Al	0.628833	0.207379	0.492471
	Al1823	Al	0.879083	0.149887	0.573402
	C1824	C	0.593190	0.233917	0.460568
	C1825	C	0.843206	0.174590	0.537836
	C1826	C	0.594082	0.125214	0.609067
	C1827	C	0.843319	0.182264	0.527439
	C1828	C	0.914549	0.177047	0.600545
	C1829	C	0.664048	0.234506	0.519658
	C1830	C	0.913760	0.180539	0.464689
	C1831	C	0.664261	0.123141	0.545420
	C1832	C	0.914436	0.125682	0.609850
	C1833	C	0.664068	0.182408	0.527595
	C1834	C	0.913843	0.234015	0.460748
	C1835	C	0.663936	0.174726	0.538021
	C1836	C	0.593115	0.180268	0.465294
	C1837	C	0.843651	0.122591	0.546718
	C1838	C	0.594024	0.176950	0.600739
	C1839	C	0.843310	0.234439	0.519755
	C1840	C	0.503565	0.229651	0.465150
	C1841	C	0.753472	0.170732	0.543254
	C1842	C	0.504417	0.129299	0.603996
	C1843	C	0.753762	0.186269	0.522196
	C1844	C	0.504231	0.172752	0.596583
	C1845	C	0.753584	0.230171	0.515721
	C1846	C	0.503682	0.184673	0.469002
	C1847	C	0.754014	0.127113	0.550121
	C1848	C	0.503581	0.220735	0.474984
	C1849	C	0.753335	0.162554	0.554593
	C1850	C	0.504436	0.137371	0.592462
	C1851	C	0.753841	0.194505	0.510957
	C1852	C	0.504016	0.163787	0.588042
	C1853	C	0.753560	0.221196	0.507246
	C1854	C	0.503831	0.193642	0.477556
	C1855	C	0.754109	0.136032	0.558771
	H1856	H	0.662624	0.230605	0.463936
	H1857	H	0.912617	0.171563	0.541824
	H1858	H	0.663589	0.127947	0.604593
	H1859	H	0.912834	0.185189	0.523331
	H1860	H	0.845115	0.173840	0.597383
	H1861	H	0.594647	0.231258	0.516594
	H1862	H	0.844582	0.183933	0.467500
	H1863	H	0.594965	0.126627	0.547982
	H1864	H	0.845041	0.128799	0.605970
	H1865	H	0.594751	0.185466	0.523586
	H1866	H	0.844404	0.230776	0.464270
	H1867	H	0.594562	0.171799	0.542172
	H1868	H	0.662632	0.183428	0.468547
	H1869	H	0.913116	0.125612	0.550355
	H1870	H	0.663362	0.173640	0.597752
	H1871	H	0.912662	0.231131	0.516763
	O1872	O	0.088519	0.221815	0.621430
	O1873	O	0.338485	0.165258	0.704021
	O1874	O	0.089089	0.146628	0.733236
	O1875	O	0.338611	0.203008	0.650323
	O1876	O	0.419690	0.166460	0.729907
	O1877	O	0.169639	0.222826	0.647168
	O1878	O	0.420078	0.202079	0.624537
	O1879	O	0.170297	0.145692	0.707340
	O1880	O	0.420444	0.146766	0.733390
	O1881	O	0.169942	0.203096	0.650465
	O1882	O	0.419697	0.221851	0.621442
	O1883	O	0.169824	0.165422	0.704242
	O1884	O	0.088755	0.202055	0.624620
	O1885	O	0.339171	0.145582	0.707591
	O1886	O	0.088661	0.166358	0.730036
	O1887	O	0.338422	0.222790	0.647174
	F1888	F	0.004574	0.155614	0.709582
	F1889	F	0.254155	0.212064	0.626803
	F1890	F	0.004247	0.212772	0.645064
	F1891	F	0.254571	0.156401	0.727793
	Al1892	Al	0.129529	0.156018	0.718701
	Al1893	Al	0.379104	0.212430	0.635872
	Al1894	Al	0.129147	0.212426	0.635912
	Al1895	Al	0.379420	0.156023	0.718718
	C1896	C	0.093433	0.237056	0.600213
	C1897	C	0.343943	0.180300	0.682396
	C1898	C	0.094088	0.131535	0.754752
	C1899	C	0.343958	0.187821	0.671702
	C1900	C	0.414686	0.183217	0.745786
	C1901	C	0.164431	0.239614	0.662931
	C1902	C	0.414628	0.185405	0.608510
	C1903	C	0.164808	0.129077	0.691195
	C1904	C	0.414985	0.131709	0.754976
	C1905	C	0.164762	0.188097	0.672125
	C1906	C	0.414438	0.237279	0.600553
	C1907	C	0.164739	0.180572	0.682837
	C1908	C	0.094157	0.185321	0.608659
	C1909	C	0.344326	0.128813	0.691758
	C1910	C	0.094019	0.183011	0.746165
	C1911	C	0.343878	0.239397	0.663434
	C1912	C	0.003786	0.233259	0.605778
	C1913	C	0.254370	0.176590	0.688098
	C1914	C	0.004455	0.135470	0.749400
	C1915	C	0.254382	0.191806	0.666431
	C1916	C	0.004240	0.178829	0.741950
	C1917	C	0.254127	0.235252	0.659116
	C1918	C	0.004510	0.189623	0.612615
	C1919	C	0.254661	0.133190	0.695550
	C1920	C	0.004075	0.225057	0.617105
	C1921	C	0.254228	0.168536	0.699663
	C1922	C	0.004667	0.143514	0.737805
	C1923	C	0.254290	0.199867	0.654875
	C1924	C	0.004278	0.169919	0.733274
	C1925	C	0.254044	0.226327	0.650473
	C1926	C	0.004420	0.198558	0.621236
	C1927	C	0.254715	0.142133	0.704135
	H1928	H	0.162866	0.233975	0.604092
	H1929	H	0.413478	0.177264	0.686349
	H1930	H	0.163623	0.134382	0.750480
	H1931	H	0.413444	0.190622	0.667375
	H1932	H	0.345143	0.180068	0.742491
	H1933	H	0.094983	0.236452	0.659608
	H1934	H	0.345290	0.188691	0.611548
	H1935	H	0.095497	0.132444	0.694063
	H1936	H	0.345504	0.134708	0.750918
	H1937	H	0.095459	0.191147	0.668123
	H1938	H	0.345034	0.234370	0.604740
	H1939	H	0.095442	0.177746	0.687185
	H1940	H	0.163515	0.188539	0.611820
	H1941	H	0.413902	0.131953	0.695075
	H1942	H	0.163459	0.179712	0.743190
	H1943	H	0.413202	0.236049	0.660520
	O1944	O	0.588437	0.221792	0.621384
	O1945	O	0.838305	0.165295	0.704052
	O1946	O	0.589199	0.146650	0.733263
	O1947	O	0.838592	0.202998	0.650352
	O1948	O	0.919881	0.166467	0.729840
	O1949	O	0.669126	0.222846	0.647047
	O1950	O	0.920042	0.202100	0.624477
	O1951	O	0.670013	0.145709	0.707386
	O1952	O	0.920410	0.146752	0.733380
	O1953	O	0.669882	0.203083	0.650496
	O1954	O	0.919875	0.221860	0.621551
	O1955	O	0.669576	0.165420	0.704206
	O1956	O	0.588931	0.202018	0.624642
	O1957	O	0.838792	0.145583	0.707587
	O1958	O	0.588533	0.166376	0.730092
	O1959	O	0.837894	0.222740	0.647279
	F1960	F	0.504403	0.155640	0.709660
	F1961	F	0.754244	0.212041	0.626812
	F1962	F	0.503984	0.212774	0.644979
	F1963	F	0.754585	0.156446	0.727787
	Al1964	Al	0.629523	0.156046	0.718732
	Al1965	Al	0.879382	0.212406	0.635922
	Al1966	Al	0.629127	0.212409	0.635891
	Al1967	Al	0.879693	0.156026	0.718696
	C1968	C	0.593788	0.237101	0.600233
	C1969	C	0.843818	0.180315	0.682406
	C1970	C	0.594440	0.131515	0.754704
	C1971	C	0.843895	0.187840	0.671736
	C1972	C	0.914490	0.183182	0.745805
	C1973	C	0.663918	0.239595	0.662986
	C1974	C	0.914825	0.185406	0.608480
	C1975	C	0.664305	0.129096	0.691150
	C1976	C	0.914743	0.131717	0.755027
	C1977	C	0.664535	0.188116	0.672172
	C1978	C	0.914153	0.237234	0.600514
	C1979	C	0.664462	0.180578	0.682853
	C1980	C	0.594122	0.185314	0.608669
	C1981	C	0.843810	0.128818	0.691773
	C1982	C	0.594154	0.183017	0.746160
	C1983	C	0.843403	0.239388	0.663383
	C1984	C	0.504123	0.233258	0.605725
	C1985	C	0.754146	0.176617	0.688127
	C1986	C	0.504700	0.135473	0.749388
	C1987	C	0.754256	0.191814	0.666481
	C1988	C	0.504281	0.178836	0.741966
	C1989	C	0.753569	0.235247	0.659108
	C1990	C	0.504401	0.189626	0.612595
	C1991	C	0.754126	0.133224	0.695467
	C1992	C	0.504074	0.225050	0.617016
	C1993	C	0.753987	0.168542	0.699648
	C1994	C	0.504744	0.143532	0.737833
	C1995	C	0.754277	0.199868	0.654924
	C1996	C	0.504112	0.169925	0.733326
	C1997	C	0.753491	0.226303	0.650495
	C1998	C	0.504490	0.198551	0.621236
	C1999	C	0.754321	0.142139	0.704134
	H2000	H	0.663312	0.234053	0.604160
	H2001	H	0.913309	0.177272	0.686350
	H2002	H	0.663917	0.134364	0.750413
	H2003	H	0.913420	0.190657	0.667436
	H2004	H	0.845056	0.180016	0.742523
	H2005	H	0.594525	0.236410	0.659749
	H2006	H	0.845582	0.188708	0.611498
	H2007	H	0.594959	0.132461	0.694019
	H2008	H	0.845307	0.134720	0.750978
	H2009	H	0.595212	0.191181	0.668188
	H2010	H	0.844743	0.234296	0.604645
	H2011	H	0.595075	0.177729	0.687195
	H2012	H	0.663545	0.188523	0.611852
	H2013	H	0.913133	0.131960	0.695150
	H2014	H	0.663430	0.179701	0.743168
	H2015	H	0.912732	0.236034	0.660475
	O2016	O	0.088573	0.227836	0.766685
	O2017	O	0.339162	0.171381	0.849467
	O2018	O	0.089294	0.152651	0.878516
	O2019	O	0.339027	0.209087	0.795652
	O2020	O	0.420369	0.172509	0.875344
	O2021	O	0.170176	0.228884	0.792533
	O2022	O	0.420434	0.208178	0.769901
	O2023	O	0.170781	0.151772	0.852778
	O2024	O	0.420776	0.152712	0.878613
	O2025	O	0.170327	0.209262	0.795985
	O2026	O	0.419822	0.227885	0.766669
	O2027	O	0.170467	0.171557	0.849720
	O2028	O	0.088962	0.208069	0.770109
	O2029	O	0.339570	0.151677	0.852946
	O2030	O	0.089125	0.172464	0.875432
	O2031	O	0.338924	0.228917	0.792450
	F2032	F	0.004952	0.161719	0.854994
	F2033	F	0.254324	0.218111	0.772140
	F2034	F	0.004461	0.218925	0.790366
	F2035	F	0.254942	0.162483	0.873235
	Al2036	Al	0.129869	0.162100	0.864109
	Al2037	Al	0.379428	0.218512	0.781211
	Al2038	Al	0.129423	0.218520	0.781290
	Al2039	Al	0.379895	0.162099	0.864116
	C2040	C	0.094068	0.242864	0.745039
	C2041	C	0.344539	0.186341	0.827666
	C2042	C	0.094497	0.137328	0.899622
	C2043	C	0.344405	0.193857	0.816966
	C2044	C	0.415015	0.189244	0.891235
	C2045	C	0.164757	0.245594	0.808539
	C2046	C	0.415043	0.191562	0.753774
	C2047	C	0.165231	0.135180	0.836544
	C2048	C	0.415219	0.137369	0.899653
	C2049	C	0.165292	0.194340	0.817802
	C2050	C	0.414543	0.243026	0.745216
	C2051	C	0.165364	0.186814	0.828510
	C2052	C	0.094010	0.191349	0.754166
	C2053	C	0.344693	0.134902	0.837114
	C2054	C	0.094556	0.189138	0.891481
	C2055	C	0.344347	0.245608	0.808473
	C2056	C	0.004409	0.239086	0.750623
	C2057	C	0.254885	0.182725	0.833561
	C2058	C	0.004823	0.141277	0.894293
	C2059	C	0.254915	0.197942	0.811897
	C2060	C	0.004775	0.184931	0.887342
	C2061	C	0.254505	0.241337	0.804444
	C2062	C	0.004296	0.195679	0.758063
	C2063	C	0.255001	0.139295	0.840873
	C2064	C	0.004238	0.231032	0.762196
	C2065	C	0.254843	0.174653	0.845101
	C2066	C	0.004928	0.149457	0.882958
	C2067	C	0.254753	0.205997	0.800324
	C2068	C	0.004791	0.176002	0.878716
	C2069	C	0.254497	0.232410	0.795827
	C2070	C	0.004490	0.204597	0.766718
	C2071	C	0.255131	0.148217	0.849529
	H2072	H	0.163527	0.239880	0.749091
	H2073	H	0.414067	0.183220	0.831482
	H2074	H	0.164064	0.140285	0.895545
	H2075	H	0.413859	0.196578	0.812489
	H2076	H	0.345703	0.186047	0.888000
	H2077	H	0.095219	0.242339	0.805490
	H2078	H	0.345815	0.194904	0.756725
	H2079	H	0.095922	0.138540	0.839426
	H2080	H	0.345788	0.140357	0.895589
	H2081	H	0.096107	0.197493	0.813999
	H2082	H	0.345054	0.240177	0.749460
	H2083	H	0.096049	0.184087	0.833043
	H2084	H	0.163378	0.194525	0.757433
	H2085	H	0.414051	0.138048	0.840474
	H2086	H	0.163893	0.185846	0.888463
	H2087	H	0.413755	0.242349	0.805358
	O2088	O	0.588535	0.227853	0.766631
	O2089	O	0.838580	0.171411	0.849497
	O2090	O	0.589665	0.152662	0.878580
	O2091	O	0.839050	0.209107	0.795729
	O2092	O	0.920377	0.172533	0.875321
	O2093	O	0.669796	0.228934	0.792453
	O2094	O	0.920141	0.208173	0.769914
	O2095	O	0.670614	0.151811	0.852674
	O2096	O	0.920549	0.152727	0.878608
	O2097	O	0.670332	0.209277	0.795975
	O2098	O	0.919807	0.227894	0.766702
	O2099	O	0.669913	0.171537	0.849707
	O2100	O	0.589259	0.208059	0.770184
	O2101	O	0.839368	0.151677	0.852933
	O2102	O	0.589094	0.172413	0.875537
	O2103	O	0.838699	0.228886	0.792547
	F2104	F	0.504917	0.161720	0.855062
	F2105	F	0.754464	0.218144	0.772185
	F2106	F	0.504315	0.218917	0.790327
	F2107	F	0.755064	0.162474	0.873222
	Al2108	Al	0.630034	0.162094	0.864142
	Al2109	Al	0.879606	0.218522	0.781270
	Al2110	Al	0.629399	0.218540	0.781265
	Al2111	Al	0.880037	0.162100	0.864077
	C2112	C	0.593669	0.242886	0.745037
	C2113	C	0.843900	0.186333	0.827717
	C2114	C	0.594660	0.137336	0.899623
	C2115	C	0.844068	0.193850	0.817016
	C2116	C	0.915121	0.189266	0.891257
	C2117	C	0.664630	0.245600	0.808540
	C2118	C	0.914536	0.191520	0.753806
	C2119	C	0.664952	0.135169	0.836533
	C2120	C	0.915052	0.137366	0.899616
	C2121	C	0.664879	0.194330	0.817771
	C2122	C	0.914754	0.243006	0.745227
	C2123	C	0.664684	0.186806	0.828482
	C2124	C	0.594542	0.191361	0.754154
	C2125	C	0.844415	0.134919	0.837081
	C2126	C	0.594427	0.189144	0.891475
	C2127	C	0.844203	0.245600	0.808474
	C2128	C	0.504108	0.239078	0.750563
	C2129	C	0.754231	0.182722	0.833567
	C2130	C	0.505031	0.141276	0.894315
	C2131	C	0.754588	0.197946	0.811920
	C2132	C	0.504746	0.184908	0.887338
	C2133	C	0.754374	0.241344	0.804473
	C2134	C	0.504883	0.195686	0.758071
	C2135	C	0.754783	0.139288	0.840882
	C2136	C	0.504173	0.231038	0.762148
	C2137	C	0.754222	0.174658	0.845120
	C2138	C	0.505178	0.149449	0.882966
	C2139	C	0.754685	0.206015	0.800365
	C2140	C	0.504758	0.175980	0.878744
	C2141	C	0.754235	0.232415	0.795832
	C2142	C	0.504866	0.204601	0.766739
	C2143	C	0.754932	0.148230	0.849478
	H2144	H	0.663024	0.239918	0.749128
	H2145	H	0.913198	0.183223	0.831546
	H2146	H	0.664175	0.140288	0.895552
	H2147	H	0.913512	0.196575	0.812559
	H2148	H	0.845747	0.186070	0.888053
	H2149	H	0.595268	0.242348	0.805423
	H2150	H	0.845158	0.194833	0.756781
	H2151	H	0.595648	0.138547	0.839384
	H2152	H	0.845505	0.140346	0.895543
	H2153	H	0.595615	0.197473	0.813919
	H2154	H	0.845174	0.240135	0.749434
	H2155	H	0.595319	0.184065	0.832989
	H2156	H	0.663936	0.194542	0.757401
	H2157	H	0.913900	0.138073	0.840369
	H2158	H	0.663891	0.185869	0.888448
	H2159	H	0.913545	0.242349	0.805313
	O2160	O	0.089041	0.233964	0.912035
	O2161	O	0.339488	0.176815	0.993480
	O2162	O	0.089550	0.157261	1.021172
	O2163	O	0.339121	0.215240	0.941057
	O2164	O	0.420667	0.177374	1.019166
	O2165	O	0.170064	0.234976	0.937928
	O2166	O	0.420224	0.214244	0.915296
	O2167	O	0.170669	0.156902	0.995962
	O2168	O	0.420855	0.157306	1.021226
	O2169	O	0.170432	0.215192	0.940994
	O2170	O	0.420571	0.233927	0.911970
	O2171	O	0.170897	0.176744	0.993366
	O2172	O	0.089448	0.214259	0.915282
	O2173	O	0.339538	0.156881	0.996019
	O2174	O	0.089324	0.177377	1.019077
	O2175	O	0.338989	0.235001	0.937811
	F2176	F	0.004960	0.166978	0.998326
	F2177	F	0.254713	0.224280	0.917468
	F2178	F	0.004774	0.224987	0.935688
	F2179	F	0.255031	0.167340	1.016692
	Al2180	Al	0.130086	0.167149	1.007504
	Al2181	Al	0.379692	0.224628	0.926570
	Al2182	Al	0.129688	0.224626	0.926582
	Al2183	Al	0.380097	0.167149	1.007546
	C2184	C	0.093908	0.249158	0.890728
	C2185	C	0.344410	0.192320	0.972679
	C2186	C	0.094405	0.140541	1.039303
	C2187	C	0.344417	0.199991	0.962249
	C2188	C	0.415432	0.194148	1.034974
	C2189	C	0.164943	0.251676	0.953964
	C2190	C	0.414879	0.197608	0.899181
	C2191	C	0.165561	0.140142	0.980129
	C2192	C	0.415582	0.140639	1.039472
	C2193	C	0.165227	0.199753	0.961897
	C2194	C	0.414991	0.248983	0.890383
	C2195	C	0.165214	0.192087	0.972328
	C2196	C	0.094607	0.197495	0.899436
	C2197	C	0.344924	0.140021	0.980403
	C2198	C	0.094790	0.194170	1.034906
	C2199	C	0.344563	0.251712	0.953786
	C2200	C	0.004331	0.245206	0.896011
	C2201	C	0.254932	0.188296	0.977862
	C2202	C	0.004827	0.144893	1.034904
	C2203	C	0.254791	0.203796	0.956743
	C2204	C	0.005004	0.189869	1.030956
	C2205	C	0.254697	0.247446	0.949834
	C2206	C	0.004930	0.201815	0.903355
	C2207	C	0.255288	0.144380	0.984225
	C2208	C	0.004576	0.237123	0.907534
	C2209	C	0.255157	0.180044	0.989074
	C2210	C	0.005064	0.153816	1.025068
	C2211	C	0.254817	0.211994	0.945443
	C2212	C	0.004965	0.180902	1.022387
	C2213	C	0.254547	0.238508	0.941177
	C2214	C	0.005115	0.210747	0.911968
	C2215	C	0.255151	0.153365	0.992713
	H2216	H	0.163440	0.246296	0.895007
	H2217	H	0.413842	0.189408	0.976855
	H2218	H	0.163776	0.143772	1.035759
	H2219	H	0.413836	0.203050	0.958338
	H2220	H	0.346107	0.190847	1.031961
	H2221	H	0.095458	0.248394	0.950974
	H2222	H	0.345653	0.200925	0.902177
	H2223	H	0.096113	0.143463	0.983051
	H2224	H	0.346185	0.143942	1.036082
	H2225	H	0.095917	0.202644	0.957653
	H2226	H	0.345603	0.245979	0.894405
	H2227	H	0.095906	0.188986	0.976201
	H2228	H	0.163951	0.200706	0.902628
	H2229	H	0.414349	0.143233	0.983546
	H2230	H	0.164317	0.190907	1.031830
	H2231	H	0.413932	0.248462	0.950648
	O2232	O	0.589416	0.234019	0.912122
	O2233	O	0.839098	0.176795	0.993502
	O2234	O	0.589665	0.157294	1.021204
	O2235	O	0.839023	0.215237	0.941118
	O2236	O	0.920556	0.177375	1.019147
	O2237	O	0.670384	0.234951	0.937906
	O2238	O	0.920696	0.214260	0.915275
	O2239	O	0.670478	0.156930	0.995876
	O2240	O	0.920694	0.157340	1.021297
	O2241	O	0.670373	0.215154	0.940962
	O2242	O	0.920310	0.233911	0.911985
	O2243	O	0.670400	0.176734	0.993357
	O2244	O	0.589083	0.214246	0.915262
	O2245	O	0.839345	0.156865	0.996024
	O2246	O	0.589435	0.177374	1.019116
	O2247	O	0.839073	0.234989	0.937842
	F2248	F	0.504862	0.166949	0.998361
	F2249	F	0.754734	0.224207	0.917495
	F2250	F	0.504680	0.224995	0.935676
	F2251	F	0.754968	0.167360	1.016657
	Al2252	Al	0.629901	0.167148	1.007498
	Al2253	Al	0.879825	0.224606	0.926607
	Al2254	Al	0.629802	0.224602	0.926611
	Al2255	Al	0.880149	0.167148	1.007509
	C2256	C	0.594361	0.249177	0.890735
	C2257	C	0.844508	0.192307	0.972777
	C2258	C	0.594788	0.140530	1.039334
	C2259	C	0.844465	0.199978	0.962360
	C2260	C	0.915197	0.194141	1.034998
	C2261	C	0.664725	0.251652	0.953944
	C2262	C	0.915167	0.197619	0.899214
	C2263	C	0.665276	0.140135	0.980133
	C2264	C	0.915158	0.140624	1.039515
	C2265	C	0.665123	0.199784	0.961933
	C2266	C	0.914643	0.248992	0.890398
	C2267	C	0.665156	0.192109	0.972355
	C2268	C	0.594352	0.197508	0.899417
	C2269	C	0.844538	0.140021	0.980363
	C2270	C	0.595012	0.194174	1.034907
	C2271	C	0.844253	0.251699	0.953857
	C2272	C	0.504722	0.245227	0.896011
	C2273	C	0.754819	0.188297	0.977917
	C2274	C	0.505216	0.144908	1.034911
	C2275	C	0.754810	0.203804	0.956815
	C2276	C	0.505261	0.189871	1.030987
	C2277	C	0.754537	0.247434	0.949799
	C2278	C	0.504584	0.201807	0.903336
	C2279	C	0.754884	0.144384	0.984188
	C2280	C	0.504934	0.237152	0.907561
	C2281	C	0.754761	0.180025	0.989082
	C2282	C	0.505283	0.153816	1.025077
	C2283	C	0.754739	0.211992	0.945487
	C2284	C	0.505086	0.180898	1.022439
	C2285	C	0.754670	0.238489	0.941204
	C2286	C	0.504647	0.210726	0.911980
	C2287	C	0.754904	0.153368	0.992679
	H2288	H	0.663861	0.246332	0.895055
	H2289	H	0.913889	0.189396	0.976964
	H2290	H	0.664313	0.143757	1.035816
	H2291	H	0.913937	0.203054	0.958489
	H2292	H	0.845732	0.190843	1.032002
	H2293	H	0.595351	0.248375	0.950911
	H2294	H	0.845880	0.200925	0.902222
	H2295	H	0.595985	0.143455	0.983054
	H2296	H	0.845759	0.143936	1.036134
	H2297	H	0.595744	0.202690	0.957692
	H2298	H	0.845205	0.245985	0.894403
	H2299	H	0.595620	0.189013	0.976210
	H2300	H	0.663560	0.200736	0.902595
	H2301	H	0.913914	0.143262	0.983486
	H2302	H	0.664368	0.190894	1.031825
	H2303	H	0.913721	0.248459	0.950743
	O2304	O	0.089302	0.358895	0.036860
	O2305	O	0.339556	0.301740	0.118355
	O2306	O	0.090020	0.282282	0.146134
	O2307	O	0.339558	0.340161	0.065923
	O2308	O	0.420706	0.302416	0.144030
	O2309	O	0.170373	0.360043	0.062734
	O2310	O	0.421078	0.339341	0.040073
	O2311	O	0.171206	0.281899	0.120966
	O2312	O	0.421327	0.282336	0.146253
	O2313	O	0.170835	0.340292	0.066115
	O2314	O	0.420182	0.359029	0.037082
	O2315	O	0.170910	0.301826	0.118484
	O2316	O	0.089502	0.339212	0.040385
	O2317	O	0.340039	0.281885	0.120961
	O2318	O	0.089434	0.302336	0.144196
	O2319	O	0.339274	0.359917	0.062941
	F2320	F	0.005523	0.291963	0.123280
	F2321	F	0.255080	0.349246	0.042434
	F2322	F	0.005184	0.350020	0.060666
	F2323	F	0.255425	0.292352	0.141651
	Al2324	Al	0.130528	0.292153	0.132503
	Al2325	Al	0.379997	0.349622	0.051540
	Al2326	Al	0.130200	0.349632	0.051534
	Al2327	Al	0.380440	0.292151	0.132514
	C2328	C	0.094421	0.373957	0.015284
	C2329	C	0.344898	0.317073	0.097228
	C2330	C	0.094882	0.265470	0.164012
	C2331	C	0.344847	0.324735	0.086795
	C2332	C	0.415475	0.319285	0.159682
	C2333	C	0.165308	0.376798	0.078588
	C2334	C	0.415430	0.322771	0.023845
	C2335	C	0.165747	0.265124	0.105173
	C2336	C	0.416015	0.265753	0.164708
	C2337	C	0.165544	0.325020	0.087326
	C2338	C	0.415107	0.374217	0.015730
	C2339	C	0.165615	0.317344	0.097762
	C2340	C	0.094581	0.322348	0.024767
	C2341	C	0.344968	0.265038	0.105263
	C2342	C	0.094952	0.319042	0.160227
	C2343	C	0.344718	0.376566	0.079089
	C2344	C	0.004816	0.370219	0.020964
	C2345	C	0.255263	0.313289	0.102837
	C2346	C	0.005330	0.269929	0.159872
	C2347	C	0.255173	0.328799	0.081726
	C2348	C	0.005097	0.314867	0.155998
	C2349	C	0.254940	0.372425	0.074826
	C2350	C	0.004957	0.326826	0.028316
	C2351	C	0.255416	0.269376	0.109180
	C2352	C	0.004956	0.362148	0.032502
	C2353	C	0.255249	0.305038	0.114058
	C2354	C	0.005451	0.278845	0.150053
	C2355	C	0.255180	0.336991	0.070407
	C2356	C	0.004961	0.305899	0.147432
	C2357	C	0.254894	0.363479	0.066187
	C2358	C	0.005138	0.335773	0.036921
	C2359	C	0.255607	0.278362	0.117681
	H2360	H	0.163899	0.370923	0.019242
	H2361	H	0.414274	0.313971	0.101088
	H2362	H	0.164340	0.268619	0.160294
	H2363	H	0.414239	0.327604	0.082536
	H2364	H	0.346163	0.316113	0.156344
	H2365	H	0.095939	0.373629	0.075273
	H2366	H	0.346081	0.326195	0.026546
	H2367	H	0.096438	0.268434	0.108134
	H2368	H	0.346652	0.269157	0.161550
	H2369	H	0.096076	0.328125	0.083503
	H2370	H	0.345638	0.371395	0.020061
	H2371	H	0.096214	0.314472	0.102042
	H2372	H	0.164018	0.325435	0.028239
	H2373	H	0.414385	0.268295	0.108308
	H2374	H	0.164316	0.315645	0.157420
	H2375	H	0.413934	0.373200	0.076188
	O2376	O	0.588889	0.358923	0.036928
	O2377	O	0.839295	0.301719	0.118269
	O2378	O	0.590146	0.282298	0.146174
	O2379	O	0.839627	0.340167	0.065934
	O2380	O	0.920616	0.302420	0.144039
	O2381	O	0.670194	0.360054	0.062730
	O2382	O	0.920874	0.339350	0.040087
	O2383	O	0.670932	0.281938	0.120924
	O2384	O	0.921204	0.282393	0.146273
	O2385	O	0.670872	0.340274	0.066078
	O2386	O	0.920637	0.359064	0.037139
	O2387	O	0.670545	0.301844	0.118478
	O2388	O	0.589646	0.339218	0.040352
	O2389	O	0.839744	0.281876	0.120949
	O2390	O	0.589636	0.302323	0.144276
	O2391	O	0.838943	0.359943	0.063011
	F2392	F	0.505446	0.291967	0.123357
	F2393	F	0.755160	0.349281	0.042477
	F2394	F	0.505009	0.349991	0.060646
	F2395	F	0.755709	0.292385	0.141631
	Al2396	Al	0.630467	0.292175	0.132562
	Al2397	Al	0.880251	0.349648	0.051587
	Al2398	Al	0.630081	0.349641	0.051531
	Al2399	Al	0.880659	0.292162	0.132436
	C2400	C	0.594337	0.373923	0.015274
	C2401	C	0.844562	0.317075	0.097263
	C2402	C	0.595342	0.265432	0.164001
	C2403	C	0.844620	0.324743	0.086846
	C2404	C	0.915451	0.319293	0.159694
	C2405	C	0.665050	0.376809	0.078664
	C2406	C	0.915200	0.322744	0.023832
	C2407	C	0.665400	0.265109	0.105175
	C2408	C	0.915661	0.265777	0.164752
	C2409	C	0.665221	0.325025	0.087274
	C2410	C	0.915114	0.374228	0.015743
	C2411	C	0.665157	0.317349	0.097699
	C2412	C	0.594829	0.322367	0.024723
	C2413	C	0.844899	0.265077	0.105271
	C2414	C	0.595025	0.319064	0.160176
	C2415	C	0.844445	0.376571	0.079141
	C2416	C	0.504615	0.370211	0.020995
	C2417	C	0.754785	0.313293	0.102817
	C2418	C	0.505778	0.269904	0.159862
	C2419	C	0.754972	0.328806	0.081733
	C2420	C	0.505128	0.314861	0.156028
	C2421	C	0.754563	0.372437	0.074851
	C2422	C	0.505258	0.326847	0.028347
	C2423	C	0.755155	0.269380	0.109198
	C2424	C	0.504531	0.362154	0.032516
	C2425	C	0.754914	0.305049	0.114044
	C2426	C	0.505764	0.278822	0.150046
	C2427	C	0.755203	0.336990	0.070394
	C2428	C	0.505117	0.305889	0.147459
	C2429	C	0.754504	0.363509	0.066206
	C2430	C	0.505376	0.335763	0.036900
	C2431	C	0.755242	0.278369	0.117671
	H2432	H	0.663805	0.370866	0.019222
	H2433	H	0.914000	0.313965	0.101106
	H2434	H	0.664803	0.268574	0.160248
	H2435	H	0.914084	0.327601	0.082584
	H2436	H	0.845925	0.316115	0.156450
	H2437	H	0.595571	0.373650	0.075383
	H2438	H	0.845845	0.326165	0.026522
	H2439	H	0.595970	0.268396	0.108184
	H2440	H	0.846302	0.269189	0.161638
	H2441	H	0.595871	0.328115	0.083366
	H2442	H	0.845675	0.371414	0.020096
	H2443	H	0.595693	0.314454	0.101913
	H2444	H	0.664415	0.325450	0.028153
	H2445	H	0.914389	0.268317	0.108356
	H2446	H	0.664340	0.315709	0.157255
	H2447	H	0.913626	0.373204	0.076240
	O2448	O	0.089890	0.364259	0.180862
	O2449	O	0.340218	0.302506	0.252850
	O2450	O	0.091164	0.280193	0.274079
	O2451	O	0.340390	0.344737	0.208591
	O2452	O	0.421582	0.301458	0.277695
	O2453	O	0.171401	0.364906	0.206599
	O2454	O	0.421258	0.344468	0.183333
	O2455	O	0.171905	0.282339	0.251540
	O2456	O	0.421751	0.280251	0.274348
	O2457	O	0.171573	0.344851	0.208790
	O2458	O	0.420968	0.364331	0.180982
	O2459	O	0.171593	0.302629	0.253118
	O2460	O	0.090295	0.344367	0.183541
	O2461	O	0.340863	0.282239	0.251687
	O2462	O	0.090202	0.301370	0.277847
	O2463	O	0.340339	0.364885	0.206638
	F2464	F	0.006150	0.292542	0.255329
	F2465	F	0.255614	0.354469	0.185833
	F2466	F	0.005841	0.354850	0.204191
	F2467	F	0.256229	0.291175	0.274064
	Al2468	Al	0.131253	0.291840	0.264770
	Al2469	Al	0.380726	0.354664	0.195006
	Al2470	Al	0.130742	0.354660	0.195021
	Al2471	Al	0.381221	0.291827	0.264770
	C2472	C	0.094937	0.379618	0.159823
	C2473	C	0.345483	0.319443	0.235223
	C2474	C	0.095693	0.260291	0.273960
	C2475	C	0.345575	0.327888	0.226439
	C2476	C	0.416127	0.318812	0.292190
	C2477	C	0.166189	0.381708	0.222417
	C2478	C	0.415613	0.327694	0.167489
	C2479	C	0.166160	0.265074	0.236687
	C2480	C	0.415475	0.260337	0.274538
	C2481	C	0.166393	0.328250	0.227298
	C2482	C	0.415972	0.379828	0.160161
	C2483	C	0.166288	0.319815	0.236076
	C2484	C	0.095151	0.327457	0.168022
	C2485	C	0.345935	0.264845	0.237206
	C2486	C	0.095634	0.318614	0.292735
	C2487	C	0.345705	0.381666	0.222464
	C2488	C	0.005328	0.375787	0.165331
	C2489	C	0.255844	0.315304	0.240107
	C2490	C	0.005918	0.265386	0.274782
	C2491	C	0.255998	0.332383	0.222374
	C2492	C	0.005660	0.314219	0.288950
	C2493	C	0.255912	0.377408	0.218457
	C2494	C	0.005567	0.331889	0.171706
	C2495	C	0.256147	0.269449	0.240482
	C2496	C	0.005430	0.367538	0.176558
	C2497	C	0.255907	0.306176	0.249410
	C2498	C	0.006384	0.276070	0.274472
	C2499	C	0.255941	0.341297	0.212534
	C2500	C	0.005691	0.305018	0.280898
	C2501	C	0.255882	0.368429	0.209908
	C2502	C	0.005764	0.340884	0.180177
	C2503	C	0.256328	0.278677	0.248483
	H2504	H	0.164376	0.376548	0.163729
	H2505	H	0.414932	0.315990	0.238274
	H2506	H	0.165835	0.264086	0.274107
	H2507	H	0.414913	0.331008	0.222635
	H2508	H	0.346315	0.315521	0.289240
	H2509	H	0.096758	0.378430	0.219372
	H2510	H	0.346315	0.331073	0.170291
	H2511	H	0.096480	0.268553	0.239165
	H2512	H	0.345753	0.264179	0.275131
	H2513	H	0.097084	0.331673	0.224202
	H2514	H	0.346475	0.376929	0.164351
	H2515	H	0.096867	0.316679	0.239826
	H2516	H	0.164584	0.330628	0.171309
	H2517	H	0.415784	0.268145	0.240117
	H2518	H	0.165437	0.315152	0.290239
	H2519	H	0.415008	0.378366	0.219454
	O2520	O	0.589700	0.364221	0.180840
	O2521	O	0.839743	0.302490	0.252825
	O2522	O	0.590868	0.280194	0.274190
	O2523	O	0.840300	0.344711	0.208561
	O2524	O	0.921238	0.301433	0.277687
	O2525	O	0.670951	0.364934	0.206506
	O2526	O	0.921461	0.344465	0.183355
	O2527	O	0.671616	0.282331	0.251511
	O2528	O	0.921937	0.280301	0.274411
	O2529	O	0.671451	0.344871	0.208849
	O2530	O	0.921149	0.364324	0.180984
	O2531	O	0.671160	0.302600	0.253067
	O2532	O	0.590145	0.344330	0.183594
	O2533	O	0.840661	0.282160	0.251759
	O2534	O	0.590411	0.301336	0.277890
	O2535	O	0.839694	0.364866	0.206662
	F2536	F	0.506121	0.292527	0.255384
	F2537	F	0.755671	0.354471	0.185850
	F2538	F	0.505641	0.354860	0.204177
	F2539	F	0.756264	0.291144	0.274020
	Al2540	Al	0.631120	0.291820	0.264800
	Al2541	Al	0.880811	0.354658	0.195023
	Al2542	Al	0.630649	0.354656	0.195018
	Al2543	Al	0.881518	0.291834	0.264703
	C2544	C	0.595318	0.379625	0.159882
	C2545	C	0.845271	0.319453	0.235280
	C2546	C	0.595629	0.260270	0.273995
	C2547	C	0.845356	0.327906	0.226511
	C2548	C	0.915809	0.318818	0.292250
	C2549	C	0.665702	0.381669	0.222432
	C2550	C	0.915688	0.327715	0.167487
	C2551	C	0.665629	0.265073	0.236646
	C2552	C	0.915524	0.260370	0.274583
	C2553	C	0.666044	0.328255	0.227293
	C2554	C	0.915562	0.379807	0.160155
	C2555	C	0.665917	0.319814	0.236048
	C2556	C	0.595074	0.327477	0.167990
	C2557	C	0.845345	0.264833	0.237202
	C2558	C	0.595997	0.318599	0.292763
	C2559	C	0.845195	0.381643	0.222469
	C2560	C	0.505548	0.375786	0.165320
	C2561	C	0.755533	0.315304	0.240121
	C2562	C	0.505850	0.265362	0.274795
	C2563	C	0.755731	0.332384	0.222390
	C2564	C	0.506079	0.314189	0.288970
	C2565	C	0.755391	0.377370	0.218462
	C2566	C	0.505380	0.331877	0.171713
	C2567	C	0.755608	0.269459	0.240420
	C2568	C	0.505389	0.367543	0.176579
	C2569	C	0.755457	0.306156	0.249373
	C2570	C	0.506196	0.276049	0.274476
	C2571	C	0.755817	0.341297	0.212550
	C2572	C	0.506095	0.305003	0.280942
	C2573	C	0.755322	0.368407	0.209925
	C2574	C	0.505618	0.340858	0.180223
	C2575	C	0.755942	0.278655	0.248474
	H2576	H	0.664729	0.376555	0.163833
	H2577	H	0.914651	0.315998	0.238320
	H2578	H	0.665798	0.264068	0.274146
	H2579	H	0.914669	0.331035	0.222729
	H2580	H	0.845976	0.315514	0.289347
	H2581	H	0.596266	0.378398	0.219379
	H2582	H	0.846366	0.331092	0.170344
	H2583	H	0.595913	0.268537	0.239167
	H2584	H	0.845812	0.264226	0.275235
	H2585	H	0.596629	0.331662	0.224168
	H2586	H	0.846191	0.376887	0.164349
	H2587	H	0.596432	0.316646	0.239729
	H2588	H	0.664606	0.330670	0.171188
	H2589	H	0.915286	0.268098	0.240168
	H2590	H	0.665794	0.315133	0.290281
	H2591	H	0.914542	0.378347	0.219440
	O2592	O	0.090419	0.365068	0.315440
	O2593	O	0.338917	0.292985	0.335688
	O2594	O	0.089685	0.269025	0.351718
	O2595	O	0.341196	0.342693	0.336571
	O2596	O	0.419992	0.290191	0.357749
	O2597	O	0.171832	0.363925	0.340227
	O2598	O	0.421878	0.344842	0.313936
	O2599	O	0.170705	0.271991	0.329703
	O2600	O	0.420610	0.269104	0.351948
	O2601	O	0.171946	0.342753	0.336742
	O2602	O	0.421736	0.365053	0.315381
	O2603	O	0.169850	0.293048	0.335939
	O2604	O	0.090707	0.344780	0.314092
	O2605	O	0.339550	0.271880	0.329840
	O2606	O	0.088572	0.290090	0.357866
	O2607	O	0.340700	0.363905	0.340215
	F2608	F	0.005162	0.282331	0.334370
	F2609	F	0.256069	0.355035	0.317805
	F2610	F	0.006704	0.353684	0.336566
	F2611	F	0.254845	0.279735	0.353192
	Al2612	Al	0.129949	0.281034	0.343807
	Al2613	Al	0.381257	0.354343	0.327175
	Al2614	Al	0.131294	0.354340	0.327240
	Al2615	Al	0.379758	0.281037	0.343777
	C2616	C	0.095608	0.382130	0.298069
	C2617	C	0.345259	0.312908	0.335573
	C2618	C	0.094193	0.249107	0.351500
	C2619	C	0.345820	0.322783	0.336515
	C2620	C	0.414914	0.307869	0.371735
	C2621	C	0.166355	0.381226	0.354899
	C2622	C	0.416114	0.327571	0.299106
	C2623	C	0.164943	0.254386	0.315435
	C2624	C	0.414260	0.249195	0.352015
	C2625	C	0.165621	0.322846	0.336974
	C2626	C	0.416432	0.382141	0.298100
	C2627	C	0.165097	0.312968	0.336025
	C2628	C	0.095755	0.327371	0.299642
	C2629	C	0.344494	0.254226	0.315822
	C2630	C	0.094099	0.307726	0.372041
	C2631	C	0.345951	0.381157	0.355110
	C2632	C	0.006010	0.377803	0.302546
	C2633	C	0.255002	0.307874	0.335371
	C2634	C	0.004425	0.254202	0.352251
	C2635	C	0.255945	0.327870	0.337332
	C2636	C	0.004153	0.303148	0.368631
	C2637	C	0.256237	0.376695	0.351454
	C2638	C	0.005955	0.331965	0.302944
	C2639	C	0.254775	0.258935	0.318895
	C2640	C	0.006036	0.368674	0.311843
	C2641	C	0.254539	0.297191	0.335665
	C2642	C	0.005008	0.264883	0.351988
	C2643	C	0.256423	0.338555	0.336912
	C2644	C	0.004038	0.293772	0.360920
	C2645	C	0.256310	0.367518	0.343379
	C2646	C	0.006159	0.341194	0.310939
	C2647	C	0.254995	0.268288	0.326655
	H2648	H	0.165098	0.378831	0.301439
	H2649	H	0.414969	0.309057	0.334987
	H2650	H	0.164399	0.252897	0.351689
	H2651	H	0.415949	0.326598	0.336634
	H2652	H	0.344698	0.304489	0.369168
	H2653	H	0.096524	0.377889	0.352085
	H2654	H	0.346416	0.331060	0.301547
	H2655	H	0.095043	0.257925	0.317718
	H2656	H	0.344475	0.253029	0.352622
	H2657	H	0.095873	0.326695	0.337450
	H2658	H	0.347146	0.378844	0.301496
	H2659	H	0.094887	0.309165	0.335800
	H2660	H	0.165662	0.330670	0.302530
	H2661	H	0.414450	0.257638	0.318443
	H2662	H	0.164245	0.304217	0.369774
	H2663	H	0.415794	0.377766	0.352483
	O2664	O	0.590512	0.365050	0.315382
	O2665	O	0.838776	0.293027	0.335637
	O2666	O	0.589649	0.269045	0.351619
	O2667	O	0.840626	0.342707	0.336742
	O2668	O	0.919615	0.290112	0.357805
	O2669	O	0.671136	0.363943	0.340156
	O2670	O	0.921767	0.344830	0.314047
	O2671	O	0.670142	0.272001	0.329632
	O2672	O	0.920555	0.269104	0.351912
	O2673	O	0.671458	0.342752	0.336764
	O2674	O	0.921731	0.365067	0.315400
	O2675	O	0.669671	0.293079	0.335809
	O2676	O	0.590801	0.344736	0.314155
	O2677	O	0.839002	0.271901	0.329740
	O2678	O	0.588900	0.290114	0.357820
	O2679	O	0.840018	0.363905	0.340260
	F2680	F	0.504561	0.282342	0.334389
	F2681	F	0.756292	0.355019	0.317827
	F2682	F	0.506096	0.353666	0.336487
	F2683	F	0.754845	0.279773	0.353036
	Al2684	Al	0.629672	0.281065	0.343707
	Al2685	Al	0.881409	0.354328	0.327247
	Al2686	Al	0.631214	0.354320	0.327222
	Al2687	Al	0.880129	0.281043	0.343728
	C2688	C	0.595538	0.382149	0.298095
	C2689	C	0.844928	0.312933	0.335551
	C2690	C	0.594311	0.249129	0.351423
	C2691	C	0.845424	0.322804	0.336548
	C2692	C	0.914366	0.307862	0.371764
	C2693	C	0.665639	0.381277	0.354798
	C2694	C	0.915950	0.327570	0.299163
	C2695	C	0.664321	0.254410	0.315384
	C2696	C	0.914042	0.249174	0.351986
	C2697	C	0.665187	0.322862	0.336951
	C2698	C	0.916215	0.382150	0.298148
	C2699	C	0.664685	0.312988	0.335948
	C2700	C	0.596041	0.327359	0.299660
	C2701	C	0.843995	0.254221	0.315825
	C2702	C	0.594626	0.307737	0.372003
	C2703	C	0.845397	0.381111	0.355226
	C2704	C	0.505996	0.377817	0.302520
	C2705	C	0.754578	0.307905	0.335274
	C2706	C	0.504575	0.254223	0.352244
	C2707	C	0.755504	0.327885	0.337288
	C2708	C	0.504686	0.303151	0.368649
	C2709	C	0.755482	0.376712	0.351436
	C2710	C	0.506168	0.331941	0.302950
	C2711	C	0.754234	0.258938	0.318856
	C2712	C	0.506098	0.368664	0.311826
	C2713	C	0.754334	0.297222	0.335556
	C2714	C	0.505005	0.264903	0.351968
	C2715	C	0.755949	0.338565	0.336959
	C2716	C	0.504540	0.293804	0.360888
	C2717	C	0.755548	0.367537	0.343346
	C2718	C	0.506304	0.341177	0.310928
	C2719	C	0.754448	0.268292	0.326609
	H2720	H	0.664897	0.378850	0.301481
	H2721	H	0.914756	0.309074	0.334991
	H2722	H	0.664572	0.252914	0.351550
	H2723	H	0.915499	0.326608	0.336750
	H2724	H	0.844064	0.304466	0.369248
	H2725	H	0.595830	0.377978	0.351903
	H2726	H	0.846178	0.331036	0.301660
	H2727	H	0.594473	0.257965	0.317641
	H2728	H	0.844254	0.253024	0.352563
	H2729	H	0.595377	0.326718	0.337479
	H2730	H	0.846824	0.378864	0.301587
	H2731	H	0.594537	0.309191	0.335707
	H2732	H	0.665896	0.330678	0.302542
	H2733	H	0.914008	0.257625	0.318453
	H2734	H	0.664761	0.304248	0.369645
	H2735	H	0.915294	0.377668	0.352694
	O2736	O	0.089388	0.355511	0.398095
	O2737	O	0.337808	0.281834	0.413274
	O2738	O	0.087809	0.259494	0.434533
	O2739	O	0.339808	0.331553	0.414240
	O2740	O	0.418655	0.279847	0.435835
	O2741	O	0.170435	0.352706	0.420197
	O2742	O	0.420819	0.334456	0.392224
	O2743	O	0.169412	0.260727	0.409678
	O2744	O	0.419435	0.259547	0.434650
	O2745	O	0.170750	0.331598	0.414331
	O2746	O	0.420233	0.355528	0.398275
	O2747	O	0.168568	0.281886	0.413385
	O2748	O	0.089394	0.334422	0.392263
	O2749	O	0.338309	0.260589	0.409921
	O2750	O	0.087610	0.279739	0.435972
	O2751	O	0.339444	0.352636	0.420301
	F2752	F	0.003940	0.270883	0.413427
	F2753	F	0.255145	0.344839	0.396856
	F2754	F	0.005503	0.342270	0.415621
	F2755	F	0.253412	0.269553	0.432208
	Al2756	Al	0.128613	0.270243	0.422756
	Al2757	Al	0.380179	0.343551	0.406270
	Al2758	Al	0.130224	0.343560	0.406233
	Al2759	Al	0.378482	0.270244	0.422807
	C2760	C	0.095158	0.375417	0.398062
	C2761	C	0.343957	0.301732	0.413051
	C2762	C	0.093263	0.242404	0.451828
	C2763	C	0.344516	0.311613	0.414036
	C2764	C	0.413581	0.297248	0.450310
	C2765	C	0.165048	0.370393	0.434159
	C2766	C	0.415107	0.316836	0.378041
	C2767	C	0.163625	0.243473	0.394746
	C2768	C	0.413919	0.242487	0.451999
	C2769	C	0.164343	0.311679	0.414441
	C2770	C	0.415282	0.375472	0.398509
	C2771	C	0.163802	0.301812	0.413459
	C2772	C	0.094278	0.316703	0.378309
	C2773	C	0.343292	0.243221	0.395355
	C2774	C	0.093023	0.297043	0.450743
	C2775	C	0.344707	0.370272	0.434499
	C2776	C	0.004930	0.370380	0.397752
	C2777	C	0.253636	0.296715	0.412706
	C2778	C	0.003615	0.246778	0.447484
	C2779	C	0.254704	0.316708	0.414736
	C2780	C	0.003111	0.292617	0.447005
	C2781	C	0.254884	0.365709	0.431068
	C2782	C	0.004562	0.321425	0.381391
	C2783	C	0.253555	0.247836	0.398625
	C2784	C	0.004773	0.359695	0.397987
	C2785	C	0.253291	0.286029	0.413090
	C2786	C	0.003611	0.255910	0.438167
	C2787	C	0.255176	0.327399	0.414446
	C2788	C	0.003179	0.283374	0.439036
	C2789	C	0.254998	0.356329	0.423334
	C2790	C	0.004784	0.330801	0.389100
	C2791	C	0.253775	0.257053	0.406647
	H2792	H	0.165055	0.371582	0.397466
	H2793	H	0.413735	0.297866	0.412542
	H2794	H	0.162659	0.245676	0.448388
	H2795	H	0.414635	0.315424	0.414261
	H2796	H	0.343649	0.293961	0.447394
	H2797	H	0.095006	0.366978	0.431566
	H2798	H	0.345120	0.320351	0.380330
	H2799	H	0.093777	0.246937	0.397152
	H2800	H	0.344545	0.245821	0.448696
	H2801	H	0.094532	0.315533	0.414994
	H2802	H	0.345267	0.371664	0.398231
	H2803	H	0.093646	0.298009	0.413283
	H2804	H	0.164468	0.320098	0.380844
	H2805	H	0.413244	0.246486	0.398271
	H2806	H	0.162877	0.293598	0.448218
	H2807	H	0.414698	0.366758	0.432190
	O2808	O	0.589371	0.355484	0.398169
	O2809	O	0.837297	0.281833	0.413147
	O2810	O	0.588006	0.259500	0.434603
	O2811	O	0.839640	0.331496	0.414249
	O2812	O	0.918763	0.279808	0.435799
	O2813	O	0.669844	0.352667	0.420307
	O2814	O	0.920410	0.334520	0.392137
	O2815	O	0.668785	0.260682	0.409740
	O2816	O	0.919238	0.259547	0.434695
	O2817	O	0.670544	0.331590	0.414476
	O2818	O	0.920228	0.355515	0.398262
	O2819	O	0.668059	0.281867	0.413387
	O2820	O	0.589712	0.334407	0.392328
	O2821	O	0.837699	0.260610	0.409793
	O2822	O	0.587611	0.279750	0.435978
	O2823	O	0.838904	0.352659	0.420344
	F2824	F	0.503383	0.270895	0.413513
	F2825	F	0.755092	0.344830	0.396989
	F2826	F	0.505011	0.342257	0.415654
	F2827	F	0.753549	0.269545	0.432167
	Al2828	Al	0.628410	0.270234	0.422791
	Al2829	Al	0.880458	0.343537	0.406295
	Al2830	Al	0.630040	0.343541	0.406319
	Al2831	Al	0.878699	0.270229	0.422747
	C2832	C	0.595467	0.375413	0.398140
	C2833	C	0.843511	0.301719	0.412977
	C2834	C	0.593132	0.242374	0.451806
	C2835	C	0.844136	0.311596	0.413998
	C2836	C	0.913296	0.297208	0.450354
	C2837	C	0.664379	0.370358	0.434241
	C2838	C	0.914536	0.316842	0.378028
	C2839	C	0.663107	0.243441	0.394823
	C2840	C	0.913963	0.242463	0.451975
	C2841	C	0.663973	0.311664	0.414494
	C2842	C	0.914996	0.375459	0.398545
	C2843	C	0.663349	0.301802	0.413473
	C2844	C	0.594815	0.316703	0.378304
	C2845	C	0.842707	0.243240	0.395299
	C2846	C	0.593363	0.297034	0.450799
	C2847	C	0.844211	0.370252	0.434552
	C2848	C	0.505163	0.370390	0.397833
	C2849	C	0.753115	0.296708	0.412654
	C2850	C	0.503560	0.246768	0.447468
	C2851	C	0.754369	0.316688	0.414731
	C2852	C	0.503357	0.292636	0.447035
	C2853	C	0.754291	0.365684	0.431168
	C2854	C	0.505100	0.321386	0.381481
	C2855	C	0.752980	0.247832	0.398611
	C2856	C	0.504892	0.359679	0.398068
	C2857	C	0.752724	0.286018	0.413025
	C2858	C	0.503653	0.255911	0.438192
	C2859	C	0.754865	0.327373	0.414507
	C2860	C	0.503204	0.283400	0.439049
	C2861	C	0.754317	0.356311	0.423418
	C2862	C	0.505255	0.330761	0.389211
	C2863	C	0.753117	0.257027	0.406653
	H2864	H	0.665203	0.371558	0.397550
	H2865	H	0.913157	0.297854	0.412430
	H2866	H	0.662566	0.245631	0.448331
	H2867	H	0.914275	0.315398	0.414220
	H2868	H	0.843340	0.293905	0.447505
	H2869	H	0.594371	0.366931	0.431662
	H2870	H	0.844479	0.320347	0.380323
	H2871	H	0.593309	0.246889	0.397311
	H2872	H	0.844577	0.245792	0.448646
	H2873	H	0.594137	0.315524	0.415107
	H2874	H	0.844929	0.371649	0.398349
	H2875	H	0.593113	0.298005	0.413313
	H2876	H	0.665030	0.320117	0.380798
	H2877	H	0.912638	0.246524	0.398181
	H2878	H	0.663233	0.293583	0.448282
	H2879	H	0.914189	0.366737	0.432212
	O2880	O	0.087956	0.344314	0.475684
	O2881	O	0.338492	0.279785	0.541317
	O2882	O	0.088522	0.260259	0.569076
	O2883	O	0.337896	0.322010	0.497047
	O2884	O	0.419263	0.280122	0.566545
	O2885	O	0.168973	0.342320	0.498406
	O2886	O	0.419236	0.323188	0.472225
	O2887	O	0.169430	0.259652	0.543367
	O2888	O	0.419512	0.260275	0.569055
	O2889	O	0.169311	0.322009	0.497060
	O2890	O	0.418731	0.344368	0.475854
	O2891	O	0.169677	0.279720	0.541243
	O2892	O	0.087969	0.323119	0.472357
	O2893	O	0.338218	0.259696	0.543302
	O2894	O	0.087886	0.280154	0.566468
	O2895	O	0.337890	0.342267	0.498472
	F2896	F	0.003995	0.269671	0.545779
	F2897	F	0.253477	0.333423	0.476003
	F2898	F	0.003623	0.332051	0.494699
	F2899	F	0.253716	0.270101	0.564135
	Al2900	Al	0.128939	0.269884	0.554942
	Al2901	Al	0.378514	0.332757	0.485262
	Al2902	Al	0.128673	0.332752	0.485262
	Al2903	Al	0.378886	0.269893	0.554970
	C2904	C	0.094247	0.364228	0.475569
	C2905	C	0.343320	0.296495	0.523131
	C2906	C	0.093415	0.244735	0.589796
	C2907	C	0.343336	0.304934	0.514349
	C2908	C	0.413801	0.297022	0.582146
	C2909	C	0.163652	0.359673	0.513044
	C2910	C	0.413696	0.305980	0.457269
	C2911	C	0.164614	0.242900	0.527511
	C2912	C	0.414369	0.244960	0.590124
	C2913	C	0.163982	0.304897	0.514306
	C2914	C	0.414045	0.364279	0.475949
	C2915	C	0.164013	0.296453	0.523077
	C2916	C	0.093033	0.305778	0.457700
	C2917	C	0.343857	0.242869	0.527564
	C2918	C	0.093207	0.296917	0.582336
	C2919	C	0.343490	0.359587	0.513208
	C2920	C	0.003851	0.359201	0.475197
	C2921	C	0.253794	0.292175	0.527641
	C2922	C	0.003831	0.248790	0.584680
	C2923	C	0.253636	0.309258	0.509906
	C2924	C	0.003535	0.292661	0.578280
	C2925	C	0.253512	0.355135	0.509580
	C2926	C	0.003244	0.310345	0.461085
	C2927	C	0.254172	0.247179	0.531494
	C2928	C	0.003477	0.348515	0.475526
	C2929	C	0.254012	0.283257	0.537462
	C2930	C	0.004104	0.257047	0.573448
	C2931	C	0.253629	0.318407	0.500646
	C2932	C	0.003472	0.283683	0.569736
	C2933	C	0.253485	0.345903	0.501581
	C2934	C	0.003516	0.319546	0.469153
	C2935	C	0.253904	0.256154	0.540021
	H2936	H	0.164124	0.360379	0.475044
	H2937	H	0.412784	0.293232	0.526578
	H2938	H	0.162853	0.247635	0.585594
	H2939	H	0.412714	0.308237	0.510963
	H2940	H	0.344458	0.293771	0.579041
	H2941	H	0.093727	0.356324	0.510281
	H2942	H	0.344053	0.309450	0.459751
	H2943	H	0.095312	0.246188	0.530534
	H2944	H	0.344915	0.248042	0.586229
	H2945	H	0.094477	0.308178	0.510881
	H2946	H	0.343921	0.360473	0.475775
	H2947	H	0.094580	0.293154	0.526476
	H2948	H	0.162783	0.309098	0.460576
	H2949	H	0.413075	0.246148	0.530640
	H2950	H	0.162557	0.293610	0.579360
	H2951	H	0.413380	0.356166	0.510589
	O2952	O	0.587965	0.344299	0.475697
	O2953	O	0.837980	0.279746	0.541238
	O2954	O	0.588259	0.260260	0.569015
	O2955	O	0.837796	0.322017	0.497078
	O2956	O	0.919164	0.280167	0.566456
	O2957	O	0.668549	0.342295	0.498469
	O2958	O	0.919095	0.323194	0.472273
	O2959	O	0.669694	0.259683	0.543300
	O2960	O	0.919907	0.260316	0.569095
	O2961	O	0.669214	0.322019	0.497111
	O2962	O	0.918668	0.344354	0.475831
	O2963	O	0.669122	0.279775	0.541271
	O2964	O	0.588162	0.323115	0.472373
	O2965	O	0.838492	0.259645	0.543345
	O2966	O	0.588033	0.280145	0.566528
	O2967	O	0.837523	0.342319	0.498475
	F2968	F	0.503855	0.269676	0.545773
	F2969	F	0.753642	0.333413	0.476069
	F2970	F	0.503393	0.332033	0.494709
	F2971	F	0.753994	0.270078	0.564082
	Al2972	Al	0.628794	0.269888	0.554947
	Al2973	Al	0.879016	0.332759	0.485330
	Al2974	Al	0.628542	0.332739	0.485305
	Al2975	Al	0.879084	0.269873	0.554923
	C2976	C	0.594199	0.364227	0.475529
	C2977	C	0.843141	0.296466	0.523096
	C2978	C	0.593772	0.244783	0.589801
	C2979	C	0.843130	0.304916	0.514348
	C2980	C	0.913940	0.297007	0.582170
	C2981	C	0.663073	0.359664	0.513115
	C2982	C	0.913336	0.305946	0.457318
	C2983	C	0.664178	0.242932	0.527455
	C2984	C	0.914124	0.244911	0.590090
	C2985	C	0.663782	0.304925	0.514320
	C2986	C	0.913865	0.364284	0.475941
	C2987	C	0.663827	0.296472	0.523067
	C2988	C	0.593455	0.305767	0.457759
	C2989	C	0.843601	0.242872	0.527552
	C2990	C	0.593158	0.296941	0.582305
	C2991	C	0.842922	0.359629	0.513124
	C2992	C	0.503862	0.359194	0.475206
	C2993	C	0.753496	0.292167	0.527594
	C2994	C	0.504020	0.248775	0.584603
	C2995	C	0.753468	0.309251	0.509895
	C2996	C	0.503457	0.292680	0.578262
	C2997	C	0.752938	0.355161	0.509557
	C2998	C	0.503604	0.310351	0.461096
	C2999	C	0.754025	0.247186	0.531455
	C3000	C	0.503485	0.348502	0.475557
	C3001	C	0.753558	0.283258	0.537429
	C3002	C	0.503915	0.257017	0.573385
	C3003	C	0.753524	0.318402	0.500651
	C3004	C	0.503585	0.283681	0.569792
	C3005	C	0.752938	0.345919	0.501584
	C3006	C	0.503661	0.319542	0.469152
	C3007	C	0.754105	0.256139	0.540033
	H3008	H	0.664057	0.360382	0.474990
	H3009	H	0.912624	0.293190	0.526560
	H3010	H	0.663166	0.247717	0.585628
	H3011	H	0.912586	0.308231	0.510994
	H3012	H	0.844563	0.293765	0.579039
	H3013	H	0.593213	0.356282	0.510431
	H3014	H	0.843660	0.309393	0.459863
	H3015	H	0.595064	0.246259	0.530501
	H3016	H	0.844764	0.247961	0.586120
	H3017	H	0.594366	0.308227	0.510954
	H3018	H	0.843710	0.360478	0.475717
	H3019	H	0.594463	0.293198	0.526514
	H3020	H	0.663301	0.309064	0.460676
	H3021	H	0.912971	0.246126	0.530651
	H3022	H	0.662543	0.293628	0.579334
	H3023	H	0.912751	0.356225	0.510480
	O3024	O	0.087991	0.342188	0.603605
	O3025	O	0.338380	0.284309	0.683844
	O3026	O	0.088831	0.265562	0.712892
	O3027	O	0.338190	0.322785	0.631511
	O3028	O	0.419849	0.285312	0.709671
	O3029	O	0.169460	0.342690	0.628934
	O3030	O	0.419511	0.322189	0.605882
	O3031	O	0.169834	0.264608	0.687032
	O3032	O	0.420044	0.265609	0.712946
	O3033	O	0.169518	0.322812	0.631515
	O3034	O	0.419307	0.342278	0.603814
	O3035	O	0.169697	0.284367	0.683947
	O3036	O	0.088077	0.322156	0.605896
	O3037	O	0.338623	0.264549	0.687162
	O3038	O	0.088801	0.285296	0.709720
	O3039	O	0.338208	0.342625	0.629078
	F3040	F	0.004299	0.274579	0.689256
	F3041	F	0.253951	0.332201	0.608289
	F3042	F	0.004040	0.332610	0.626647
	F3043	F	0.254309	0.275275	0.707485
	Al3044	Al	0.129282	0.274944	0.698376
	Al3045	Al	0.378907	0.332406	0.617472
	Al3046	Al	0.128950	0.332403	0.617402
	Al3047	Al	0.379199	0.274934	0.698361
	C3048	C	0.092932	0.358868	0.585364
	C3049	C	0.343595	0.299652	0.662754
	C3050	C	0.094076	0.250401	0.734333
	C3051	C	0.343455	0.307314	0.652331
	C3052	C	0.414639	0.302074	0.725498
	C3053	C	0.164312	0.359453	0.644848
	C3054	C	0.413858	0.305443	0.589942
	C3055	C	0.164459	0.247977	0.670874
	C3056	C	0.414680	0.250553	0.734496
	C3057	C	0.164123	0.307434	0.652528
	C3058	C	0.414315	0.359092	0.585903
	C3059	C	0.164190	0.299760	0.662978
	C3060	C	0.093257	0.305334	0.590137
	C3061	C	0.343861	0.247754	0.671391
	C3062	C	0.093795	0.301941	0.725833
	C3063	C	0.343674	0.359467	0.644725
	C3064	C	0.003405	0.354660	0.590128
	C3065	C	0.253922	0.295787	0.668221
	C3066	C	0.004493	0.254329	0.728966
	C3067	C	0.253782	0.311322	0.647132
	C3068	C	0.004105	0.297738	0.721645
	C3069	C	0.253948	0.355155	0.640806
	C3070	C	0.003652	0.309673	0.594021
	C3071	C	0.254184	0.252124	0.675172
	C3072	C	0.003518	0.345735	0.599941
	C3073	C	0.254021	0.287595	0.679539
	C3074	C	0.004483	0.262414	0.717434
	C3075	C	0.253815	0.319550	0.635868
	C3076	C	0.004284	0.288814	0.713001
	C3077	C	0.253855	0.346187	0.632282
	C3078	C	0.003723	0.318656	0.602570
	C3079	C	0.254244	0.261054	0.683802
	H3080	H	0.162284	0.355501	0.588569
	H3081	H	0.413249	0.296625	0.666700
	H3082	H	0.163596	0.253268	0.730086
	H3083	H	0.413026	0.310224	0.648168
	H3084	H	0.345277	0.298883	0.722238
	H3085	H	0.094794	0.356176	0.641868
	H3086	H	0.344605	0.308752	0.592939
	H3087	H	0.095140	0.251337	0.673739
	H3088	H	0.345469	0.253549	0.730423
	H3089	H	0.094733	0.310459	0.648519
	H3090	H	0.344905	0.355909	0.589535
	H3091	H	0.094865	0.296811	0.667131
	H3092	H	0.162675	0.308577	0.593244
	H3093	H	0.413226	0.250919	0.674697
	H3094	H	0.163192	0.298642	0.722848
	H3095	H	0.413180	0.356207	0.641651
	O3096	O	0.588048	0.342157	0.603600
	O3097	O	0.837962	0.284322	0.683870
	O3098	O	0.588784	0.265553	0.712879
	O3099	O	0.838452	0.322742	0.631522
	O3100	O	0.919947	0.285342	0.709583
	O3101	O	0.669425	0.342686	0.628926
	O3102	O	0.919419	0.322223	0.605766
	O3103	O	0.669774	0.264608	0.687002
	O3104	O	0.920138	0.265638	0.713010
	O3105	O	0.669737	0.322816	0.631584
	O3106	O	0.919234	0.342289	0.603889
	O3107	O	0.669261	0.284376	0.683946
	O3108	O	0.588377	0.322152	0.605855
	O3109	O	0.838638	0.264519	0.687147
	O3110	O	0.588632	0.285274	0.709722
	O3111	O	0.838120	0.342619	0.629108
	F3112	F	0.504110	0.274578	0.689284
	F3113	F	0.754129	0.332203	0.608321
	F3114	F	0.504004	0.332610	0.626629
	F3115	F	0.754392	0.275325	0.707448
	Al3116	Al	0.629179	0.274940	0.698383
	Al3117	Al	0.879214	0.332391	0.617497
	Al3118	Al	0.628957	0.332401	0.617428
	Al3119	Al	0.879403	0.274935	0.698355
	C3120	C	0.593439	0.358871	0.585394
	C3121	C	0.843299	0.299638	0.662791
	C3122	C	0.593827	0.250409	0.734328
	C3123	C	0.843465	0.307305	0.652381
	C3124	C	0.914417	0.302072	0.725500
	C3125	C	0.664192	0.359436	0.644859
	C3126	C	0.913940	0.305425	0.589954
	C3127	C	0.664085	0.247957	0.670923
	C3128	C	0.914793	0.250539	0.734529
	C3129	C	0.664084	0.307443	0.652556
	C3130	C	0.913864	0.359099	0.585913
	C3131	C	0.663952	0.299767	0.662984
	C3132	C	0.593241	0.305362	0.590096
	C3133	C	0.843527	0.247751	0.671313
	C3134	C	0.594056	0.301929	0.725842
	C3135	C	0.843583	0.359492	0.644691
	C3136	C	0.503884	0.354655	0.590152
	C3137	C	0.753567	0.295778	0.668204
	C3138	C	0.504326	0.254320	0.728921
	C3139	C	0.753810	0.311283	0.647123
	C3140	C	0.504358	0.297732	0.721651
	C3141	C	0.753832	0.355158	0.640819
	C3142	C	0.503614	0.309697	0.593979
	C3143	C	0.753943	0.252094	0.675194
	C3144	C	0.503726	0.345740	0.599939
	C3145	C	0.753599	0.287580	0.679511
	C3146	C	0.504393	0.262390	0.717383
	C3147	C	0.754028	0.319526	0.635898
	C3148	C	0.504274	0.288802	0.713027
	C3149	C	0.753743	0.346179	0.632311
	C3150	C	0.503848	0.318656	0.602558
	C3151	C	0.754176	0.261049	0.683759
	H3152	H	0.662925	0.355503	0.588586
	H3153	H	0.912729	0.296612	0.666770
	H3154	H	0.663162	0.253291	0.730091
	H3155	H	0.912991	0.310240	0.648279
	H3156	H	0.845117	0.298882	0.722236
	H3157	H	0.594729	0.356152	0.641878
	H3158	H	0.844694	0.308746	0.592915
	H3159	H	0.594790	0.251316	0.673823
	H3160	H	0.845430	0.253522	0.730447
	H3161	H	0.594749	0.310504	0.648578
	H3162	H	0.844579	0.355922	0.589585
	H3163	H	0.594633	0.296827	0.667146
	H3164	H	0.662658	0.308603	0.593212
	H3165	H	0.912978	0.250930	0.674551
	H3166	H	0.663448	0.298619	0.722863
	H3167	H	0.913086	0.356257	0.641555
	O3168	O	0.088364	0.346863	0.746518
	O3169	O	0.339070	0.290339	0.829129
	O3170	O	0.088784	0.271715	0.858345
	O3171	O	0.338594	0.328093	0.775464
	O3172	O	0.419996	0.291375	0.855059
	O3173	O	0.169617	0.347735	0.772328
	O3174	O	0.419633	0.327043	0.749615
	O3175	O	0.170313	0.270652	0.832490
	O3176	O	0.420285	0.271695	0.858342
	O3177	O	0.169895	0.328032	0.775407
	O3178	O	0.419736	0.346770	0.746317
	O3179	O	0.170414	0.290339	0.829111
	O3180	O	0.088723	0.327043	0.749640
	O3181	O	0.339182	0.270623	0.832521
	O3182	O	0.089000	0.291412	0.854992
	O3183	O	0.338325	0.347837	0.772099
	F3184	F	0.004518	0.280654	0.834619
	F3185	F	0.253904	0.337062	0.751803
	F3186	F	0.004107	0.337791	0.770033
	F3187	F	0.254531	0.281418	0.852834
	Al3188	Al	0.129544	0.281039	0.843705
	Al3189	Al	0.379016	0.337444	0.760863
	Al3190	Al	0.129082	0.337411	0.760937
	Al3191	Al	0.379515	0.281015	0.843758
	C3192	C	0.093304	0.362220	0.725454
	C3193	C	0.344317	0.305478	0.807690
	C3194	C	0.093849	0.256701	0.880052
	C3195	C	0.344176	0.313022	0.796989
	C3196	C	0.414661	0.308068	0.871062
	C3197	C	0.164194	0.364421	0.788378
	C3198	C	0.414589	0.310429	0.733455
	C3199	C	0.164860	0.253951	0.816512
	C3200	C	0.414985	0.256520	0.879703
	C3201	C	0.165076	0.312900	0.796833
	C3202	C	0.414183	0.362115	0.725216
	C3203	C	0.165243	0.305386	0.807506
	C3204	C	0.093797	0.310291	0.733800
	C3205	C	0.344480	0.253960	0.816446
	C3206	C	0.094210	0.308105	0.870995
	C3207	C	0.343626	0.364568	0.787991
	C3208	C	0.003846	0.358232	0.730699
	C3209	C	0.254748	0.301577	0.813062
	C3210	C	0.004254	0.260466	0.874398
	C3211	C	0.254563	0.316818	0.791471
	C3212	C	0.004547	0.303842	0.866970
	C3213	C	0.253902	0.360232	0.784125
	C3214	C	0.004126	0.314607	0.737702
	C3215	C	0.254683	0.258199	0.820539
	C3216	C	0.003979	0.350027	0.742017
	C3217	C	0.254738	0.293522	0.824626
	C3218	C	0.004470	0.268518	0.862833
	C3219	C	0.254329	0.324883	0.779926
	C3220	C	0.004516	0.294914	0.858346
	C3221	C	0.253917	0.351300	0.775533
	C3222	C	0.004308	0.323548	0.746304
	C3223	C	0.254732	0.267132	0.829169
	H3224	H	0.162740	0.359274	0.729581
	H3225	H	0.413418	0.302559	0.811955
	H3226	H	0.163273	0.259711	0.876049
	H3227	H	0.413309	0.316013	0.792865
	H3228	H	0.345290	0.304812	0.867976
	H3229	H	0.094733	0.361113	0.785466
	H3230	H	0.345262	0.313754	0.736407
	H3231	H	0.095573	0.257203	0.819660
	H3232	H	0.345473	0.259370	0.875426
	H3233	H	0.095574	0.315752	0.792632
	H3234	H	0.344754	0.359086	0.729191
	H3235	H	0.095775	0.302431	0.811552
	H3236	H	0.163136	0.313494	0.737023
	H3237	H	0.413885	0.257221	0.819537
	H3238	H	0.163558	0.304851	0.867894
	H3239	H	0.413073	0.361375	0.784750
	O3240	O	0.588523	0.346879	0.746487
	O3241	O	0.838848	0.290404	0.829206
	O3242	O	0.589041	0.271732	0.858418
	O3243	O	0.838320	0.328097	0.775487
	O3244	O	0.920201	0.291409	0.854983
	O3245	O	0.669642	0.347743	0.772296
	O3246	O	0.919979	0.327070	0.749619
	O3247	O	0.670118	0.270640	0.832476
	O3248	O	0.920091	0.271685	0.858302
	O3249	O	0.669672	0.328039	0.775415
	O3250	O	0.919659	0.346773	0.746361
	O3251	O	0.670130	0.290289	0.829048
	O3252	O	0.588446	0.327075	0.749612
	O3253	O	0.838911	0.270628	0.832483
	O3254	O	0.588793	0.291415	0.854935
	O3255	O	0.838374	0.347820	0.772136
	F3256	F	0.504445	0.280618	0.834660
	F3257	F	0.754095	0.337058	0.751822
	F3258	F	0.503979	0.337812	0.769987
	F3259	F	0.754533	0.281396	0.852792
	Al3260	Al	0.629498	0.281012	0.843687
	Al3261	Al	0.879223	0.337430	0.760913
	Al3262	Al	0.629007	0.337424	0.760919
	Al3263	Al	0.879669	0.281029	0.843717
	C3264	C	0.593477	0.362234	0.725450
	C3265	C	0.843904	0.305468	0.807695
	C3266	C	0.594307	0.256709	0.880054
	C3267	C	0.843896	0.313008	0.796986
	C3268	C	0.914869	0.308106	0.871051
	C3269	C	0.664101	0.364420	0.788382
	C3270	C	0.914455	0.310419	0.733477
	C3271	C	0.664696	0.253947	0.816503
	C3272	C	0.914610	0.256537	0.879714
	C3273	C	0.664692	0.312897	0.796842
	C3274	C	0.914213	0.362111	0.725256
	C3275	C	0.664697	0.305385	0.807516
	C3276	C	0.594078	0.310288	0.733792
	C3277	C	0.844241	0.253942	0.816441
	C3278	C	0.594098	0.308073	0.871003
	C3279	C	0.843530	0.364561	0.788014
	C3280	C	0.503823	0.358238	0.730658
	C3281	C	0.754279	0.301582	0.813070
	C3282	C	0.504621	0.260471	0.874417
	C3283	C	0.754233	0.316809	0.791461
	C3284	C	0.504337	0.303808	0.866973
	C3285	C	0.753876	0.360225	0.784169
	C3286	C	0.504335	0.314619	0.737657
	C3287	C	0.754486	0.258201	0.820510
	C3288	C	0.504050	0.350050	0.741994
	C3289	C	0.754399	0.293531	0.824647
	C3290	C	0.504662	0.268531	0.862870
	C3291	C	0.754047	0.324873	0.779922
	C3292	C	0.504383	0.294890	0.858359
	C3293	C	0.753966	0.351290	0.775542
	C3294	C	0.504141	0.323545	0.746292
	C3295	C	0.754511	0.267125	0.829153
	H3296	H	0.663005	0.359309	0.729627
	H3297	H	0.913112	0.302568	0.811961
	H3298	H	0.663764	0.259728	0.876056
	H3299	H	0.913112	0.315995	0.792865
	H3300	H	0.845546	0.304843	0.867979
	H3301	H	0.594655	0.361096	0.785478
	H3302	H	0.845181	0.313739	0.736430
	H3303	H	0.595303	0.257192	0.819622
	H3304	H	0.845159	0.259403	0.875432
	H3305	H	0.595164	0.315769	0.792642
	H3306	H	0.844815	0.359080	0.729210
	H3307	H	0.595195	0.302441	0.811585
	H3308	H	0.663388	0.313491	0.737037
	H3309	H	0.913716	0.257199	0.819507
	H3310	H	0.663492	0.304824	0.867879
	H3311	H	0.912961	0.361361	0.784795
	O3312	O	0.088682	0.352842	0.891627
	O3313	O	0.338884	0.296439	0.974443
	O3314	O	0.089172	0.277693	1.003546
	O3315	O	0.338992	0.334136	0.920727
	O3316	O	0.420140	0.297558	1.000278
	O3317	O	0.169804	0.353941	0.917457
	O3318	O	0.420155	0.333163	0.894935
	O3319	O	0.170660	0.276739	0.977846
	O3320	O	0.420676	0.277742	1.003554
	O3321	O	0.170262	0.334243	0.920877
	O3322	O	0.419857	0.352879	0.891686
	O3323	O	0.170164	0.296495	0.974554
	O3324	O	0.088957	0.333151	0.895004
	O3325	O	0.339511	0.276759	0.977781
	O3326	O	0.088914	0.297432	1.000498
	O3327	O	0.338534	0.353836	0.917619
	F3328	F	0.004892	0.286751	0.979965
	F3329	F	0.254393	0.343155	0.897154
	F3330	F	0.004530	0.343917	0.915380
	F3331	F	0.254915	0.287497	0.998185
	Al3332	Al	0.129891	0.287104	0.989091
	Al3333	Al	0.379424	0.343525	0.906225
	Al3334	Al	0.129409	0.343540	0.906254
	Al3335	Al	0.379920	0.287127	0.989068
	C3336	C	0.093626	0.367957	0.870189
	C3337	C	0.344200	0.311528	0.952936
	C3338	C	0.094336	0.262392	1.024642
	C3339	C	0.344240	0.319051	0.942236
	C3340	C	0.415134	0.314385	1.015928
	C3341	C	0.164802	0.370751	0.933162
	C3342	C	0.414616	0.316438	0.879007
	C3343	C	0.164986	0.260025	0.961910
	C3344	C	0.415250	0.262387	1.024564
	C3345	C	0.164851	0.319181	0.942424
	C3346	C	0.414574	0.367929	0.870059
	C3347	C	0.164820	0.311657	0.953116
	C3348	C	0.094154	0.316467	0.878938
	C3349	C	0.344575	0.260062	0.961725
	C3350	C	0.094507	0.313973	1.016851
	C3351	C	0.344184	0.370440	0.933878
	C3352	C	0.004039	0.364074	0.875600
	C3353	C	0.254521	0.307744	0.958504
	C3354	C	0.004633	0.266305	1.019300
	C3355	C	0.254539	0.322989	0.936907
	C3356	C	0.004727	0.309924	1.012336
	C3357	C	0.254413	0.366346	0.929432
	C3358	C	0.004522	0.320707	0.883051
	C3359	C	0.254877	0.264308	0.965861
	C3360	C	0.004206	0.356016	0.887152
	C3361	C	0.254488	0.299667	0.970039
	C3362	C	0.004816	0.274492	1.007943
	C3363	C	0.254605	0.331021	0.925311
	C3364	C	0.004557	0.300992	1.003703
	C3365	C	0.254252	0.357408	0.920845
	C3366	C	0.004608	0.329639	0.891648
	C3367	C	0.255095	0.273243	0.974487
	H3368	H	0.163125	0.365063	0.874392
	H3369	H	0.413594	0.308536	0.956988
	H3370	H	0.163783	0.265370	1.020582
	H3371	H	0.413681	0.321913	0.937951
	H3372	H	0.345850	0.311260	1.012455
	H3373	H	0.095231	0.367636	0.929798
	H3374	H	0.345310	0.319718	0.882105
	H3375	H	0.095546	0.263235	0.965107
	H3376	H	0.345964	0.265395	1.020469
	H3377	H	0.095468	0.322141	0.938304
	H3378	H	0.345198	0.364997	0.874198
	H3379	H	0.095377	0.308772	0.957332
	H3380	H	0.163475	0.319740	0.881983
	H3381	H	0.414082	0.263302	0.964780
	H3382	H	0.163786	0.310543	1.014156
	H3383	H	0.413559	0.367054	0.931095
	O3384	O	0.588651	0.352841	0.891632
	O3385	O	0.838804	0.296429	0.974494
	O3386	O	0.589478	0.277730	1.003596
	O3387	O	0.838711	0.334188	0.920888
	O3388	O	0.920158	0.297536	1.000298
	O3389	O	0.669889	0.353931	0.917405
	O3390	O	0.920170	0.333147	0.894965
	O3391	O	0.670071	0.276765	0.977769
	O3392	O	0.920592	0.277725	1.003539
	O3393	O	0.670001	0.334202	0.920868
	O3394	O	0.919988	0.352818	0.891630
	O3395	O	0.670114	0.296487	0.974596
	O3396	O	0.588931	0.333133	0.894976
	O3397	O	0.838908	0.276748	0.977752
	O3398	O	0.588945	0.297410	1.000550
	O3399	O	0.838865	0.353839	0.917597
	F3400	F	0.504926	0.286776	0.980002
	F3401	F	0.754594	0.343100	0.897190
	F3402	F	0.504362	0.343918	0.915296
	F3403	F	0.755044	0.287488	0.998159
	Al3404	Al	0.629856	0.287122	0.989128
	Al3405	Al	0.879681	0.343507	0.906306
	Al3406	Al	0.629491	0.343518	0.906215
	Al3407	Al	0.880018	0.287109	0.989040
	C3408	C	0.593786	0.367968	0.870162
	C3409	C	0.844020	0.311507	0.952957
	C3410	C	0.594590	0.262359	1.024621
	C3411	C	0.843976	0.319045	0.942277
	C3412	C	0.915096	0.314372	1.015926
	C3413	C	0.664786	0.370716	0.933213
	C3414	C	0.914765	0.316468	0.878996
	C3415	C	0.664699	0.260012	0.961886
	C3416	C	0.914911	0.262359	1.024612
	C3417	C	0.664572	0.319168	0.942511
	C3418	C	0.914440	0.367925	0.870088
	C3419	C	0.664618	0.311639	0.953188
	C3420	C	0.594129	0.316435	0.878950
	C3421	C	0.844252	0.260061	0.961794
	C3422	C	0.594748	0.313982	1.016805
	C3423	C	0.844549	0.370420	0.933862
	C3424	C	0.504219	0.364070	0.875554
	C3425	C	0.754339	0.307716	0.958528
	C3426	C	0.504939	0.266307	1.019280
	C3427	C	0.754260	0.322975	0.936958
	C3428	C	0.504886	0.309926	1.012369
	C3429	C	0.754578	0.366334	0.929484
	C3430	C	0.504432	0.320684	0.883037
	C3431	C	0.754414	0.264319	0.965805
	C3432	C	0.504231	0.356024	0.887144
	C3433	C	0.754435	0.299650	0.970068
	C3434	C	0.505034	0.274502	1.007960
	C3435	C	0.754332	0.331014	0.925365
	C3436	C	0.504635	0.300988	1.003748
	C3437	C	0.754386	0.357402	0.920814
	C3438	C	0.504534	0.329636	0.891633
	C3439	C	0.754430	0.273256	0.974428
	H3440	H	0.663280	0.365065	0.874396
	H3441	H	0.913552	0.308510	0.957014
	H3442	H	0.664055	0.265344	1.020566
	H3443	H	0.913400	0.321909	0.938007
	H3444	H	0.845752	0.311271	1.012451
	H3445	H	0.595315	0.367571	0.929856
	H3446	H	0.845441	0.319723	0.882096
	H3447	H	0.595349	0.263248	0.965023
	H3448	H	0.845479	0.265331	1.020497
	H3449	H	0.595130	0.322136	0.938441
	H3450	H	0.845015	0.364988	0.874226
	H3451	H	0.595212	0.308766	0.957434
	H3452	H	0.663453	0.319711	0.881993
	H3453	H	0.913605	0.263332	0.964859
	H3454	H	0.663896	0.310539	1.014084
	H3455	H	0.913970	0.367029	0.931054
	O3456	O	0.089080	0.477815	0.016592
	O3457	O	0.339574	0.421501	0.099537
	O3458	O	0.089772	0.402670	0.128431
	O3459	O	0.339580	0.459196	0.045784
	O3460	O	0.420817	0.422509	0.125297
	O3461	O	0.170351	0.478881	0.042471
	O3462	O	0.420400	0.458172	0.019908
	O3463	O	0.170988	0.401786	0.102676
	O3464	O	0.421423	0.402752	0.128518
	O3465	O	0.170844	0.459260	0.045888
	O3466	O	0.420147	0.477882	0.016625
	O3467	O	0.170791	0.421549	0.099606
	O3468	O	0.089413	0.458069	0.020090
	O3469	O	0.339789	0.401720	0.102826
	O3470	O	0.089667	0.422479	0.125367
	O3471	O	0.339219	0.478918	0.042415
	F3472	F	0.005373	0.411775	0.104912
	F3473	F	0.254860	0.468139	0.022114
	F3474	F	0.004978	0.468908	0.040337
	F3475	F	0.255357	0.412473	0.123151
	Al3476	Al	0.130347	0.412122	0.114036
	Al3477	Al	0.379825	0.468537	0.031207
	Al3478	Al	0.129944	0.468516	0.031215
	Al3479	Al	0.380363	0.412120	0.114035
	C3480	C	0.094335	0.492900	-0.004954
	C3481	C	0.344990	0.436537	0.077932
	C3482	C	0.094868	0.387287	0.149382
	C3483	C	0.344978	0.444053	0.067231
	C3484	C	0.415408	0.439200	0.141355
	C3485	C	0.165153	0.495484	0.058762
	C3486	C	0.415021	0.441519	0.003806
	C3487	C	0.165485	0.385155	0.086521
	C3488	C	0.416153	0.387502	0.149733
	C3489	C	0.165513	0.444176	0.067402
	C3490	C	0.415031	0.493052	-0.004775
	C3491	C	0.165572	0.436659	0.078111
	C3492	C	0.094507	0.441339	0.004167
	C3493	C	0.344808	0.384916	0.087019
	C3494	C	0.094837	0.439164	0.141403
	C3495	C	0.344668	0.495664	0.058251
	C3496	C	0.004732	0.489096	0.000599
	C3497	C	0.255219	0.432744	0.083483
	C3498	C	0.005157	0.391316	0.144235
	C3499	C	0.255300	0.447965	0.061843
	C3500	C	0.005110	0.434931	0.137308
	C3501	C	0.254881	0.491318	0.054454
	C3502	C	0.004808	0.445673	0.008073
	C3503	C	0.255200	0.389291	0.090836
	C3504	C	0.004734	0.481041	0.012177
	C3505	C	0.255170	0.424700	0.095074
	C3506	C	0.005234	0.399518	0.132906
	C3507	C	0.255220	0.456041	0.050309
	C3508	C	0.005228	0.426008	0.128654
	C3509	C	0.254748	0.482408	0.045767
	C3510	C	0.004948	0.454625	0.016660
	C3511	C	0.255386	0.398234	0.099439
	H3512	H	0.163830	0.489950	-0.000853
	H3513	H	0.414550	0.433578	0.081999
	H3514	H	0.164322	0.390181	0.145170
	H3515	H	0.414553	0.446922	0.063004
	H3516	H	0.345962	0.435952	0.138256
	H3517	H	0.095734	0.492157	0.055846
	H3518	H	0.345614	0.444807	0.006820
	H3519	H	0.096066	0.388493	0.089375
	H3520	H	0.346661	0.390556	0.145812
	H3521	H	0.096129	0.447162	0.063287
	H3522	H	0.345575	0.490212	-0.000494
	H3523	H	0.096233	0.433771	0.082373
	H3524	H	0.164041	0.444527	0.007389
	H3525	H	0.414250	0.388074	0.090294
	H3526	H	0.164257	0.435896	0.138322
	H3527	H	0.414067	0.492491	0.054919
	O3528	O	0.589016	0.477897	0.016664
	O3529	O	0.839282	0.421504	0.099446
	O3530	O	0.590138	0.402717	0.128461
	O3531	O	0.839162	0.459175	0.045762
	O3532	O	0.920910	0.422537	0.125271
	O3533	O	0.670532	0.478913	0.042536
	O3534	O	0.920607	0.458190	0.019885
	O3535	O	0.671009	0.401837	0.102627
	O3536	O	0.921051	0.402804	0.128565
	O3537	O	0.670386	0.459222	0.045819
	O3538	O	0.920380	0.477902	0.016703
	O3539	O	0.670483	0.421543	0.099529
	O3540	O	0.589141	0.458133	0.020060
	O3541	O	0.839792	0.401718	0.102851
	O3542	O	0.589666	0.422490	0.125368
	O3543	O	0.839440	0.478939	0.042434
	F3544	F	0.505247	0.411750	0.104912
	F3545	F	0.754859	0.468152	0.022140
	F3546	F	0.504716	0.468941	0.040283
	F3547	F	0.755399	0.412547	0.123091
	Al3548	Al	0.630237	0.412155	0.114024
	Al3549	Al	0.880038	0.468542	0.031256
	Al3550	Al	0.629832	0.468553	0.031232
	Al3551	Al	0.880450	0.412161	0.113999
	C3552	C	0.594397	0.492899	-0.004986
	C3553	C	0.844517	0.436578	0.077931
	C3554	C	0.595366	0.387304	0.149453
	C3555	C	0.844573	0.444094	0.067238
	C3556	C	0.915313	0.439216	0.141319
	C3557	C	0.665144	0.495514	0.058759
	C3558	C	0.914880	0.441522	0.003784
	C3559	C	0.665442	0.385170	0.086592
	C3560	C	0.915513	0.387476	0.149716
	C3561	C	0.665067	0.444190	0.067406
	C3562	C	0.915058	0.493028	-0.004781
	C3563	C	0.664979	0.436670	0.078112
	C3564	C	0.594432	0.441374	0.004120
	C3565	C	0.844814	0.384937	0.087064
	C3566	C	0.595018	0.439163	0.141404
	C3567	C	0.844820	0.495704	0.058273
	C3568	C	0.504618	0.489094	0.000541
	C3569	C	0.754779	0.432768	0.083462
	C3570	C	0.505839	0.391320	0.144227
	C3571	C	0.754802	0.447975	0.061844
	C3572	C	0.505187	0.434946	0.137284
	C3573	C	0.754991	0.491386	0.054427
	C3574	C	0.504807	0.445722	0.007999
	C3575	C	0.755271	0.389306	0.090869
	C3576	C	0.504566	0.481069	0.012162
	C3577	C	0.754859	0.424701	0.095002
	C3578	C	0.505805	0.399499	0.132887
	C3579	C	0.754753	0.456020	0.050274
	C3580	C	0.505205	0.426020	0.128639
	C3581	C	0.754986	0.482437	0.045800
	C3582	C	0.504808	0.454634	0.016668
	C3583	C	0.755361	0.398258	0.099439
	H3584	H	0.663862	0.489936	-0.000876
	H3585	H	0.914132	0.433635	0.082036
	H3586	H	0.664869	0.390204	0.145284
	H3587	H	0.914070	0.446985	0.063046
	H3588	H	0.845864	0.435989	0.138164
	H3589	H	0.595713	0.492185	0.055847
	H3590	H	0.845519	0.444864	0.006717
	H3591	H	0.596306	0.388531	0.089488
	H3592	H	0.846001	0.390531	0.145791
	H3593	H	0.595748	0.447188	0.063321
	H3594	H	0.845569	0.490175	-0.000523
	H3595	H	0.595618	0.433782	0.082403
	H3596	H	0.663882	0.444541	0.007392
	H3597	H	0.914279	0.388100	0.090332
	H3598	H	0.664523	0.435890	0.138339
	H3599	H	0.914279	0.492524	0.054966
	O3600	O	0.089514	0.484039	0.162113
	O3601	O	0.339917	0.426797	0.243434
	O3602	O	0.090019	0.407336	0.271226
	O3603	O	0.339710	0.465201	0.191013
	O3604	O	0.421200	0.427403	0.269106
	O3605	O	0.170513	0.485009	0.187816
	O3606	O	0.420871	0.464249	0.165297
	O3607	O	0.171455	0.406902	0.245985
	O3608	O	0.421307	0.407330	0.271199
	O3609	O	0.170996	0.465178	0.190974
	O3610	O	0.420938	0.483988	0.162038
	O3611	O	0.171217	0.426760	0.243415
	O3612	O	0.089684	0.464248	0.165307
	O3613	O	0.340238	0.406905	0.246004
	O3614	O	0.090019	0.427400	0.269136
	O3615	O	0.339362	0.484984	0.187893
	F3616	F	0.005677	0.416970	0.248332
	F3617	F	0.255192	0.474284	0.167456
	F3618	F	0.005258	0.474981	0.185711
	F3619	F	0.255687	0.417373	0.266693
	Al3620	Al	0.130787	0.417173	0.257531
	Al3621	Al	0.380199	0.474631	0.176554
	Al3622	Al	0.130178	0.474628	0.176553
	Al3623	Al	0.380683	0.417172	0.257540
	C3624	C	0.094339	0.499216	0.140744
	C3625	C	0.344999	0.442217	0.222571
	C3626	C	0.095384	0.390583	0.289304
	C3627	C	0.345097	0.449856	0.212105
	C3628	C	0.415737	0.444151	0.284980
	C3629	C	0.165223	0.501751	0.203757
	C3630	C	0.415435	0.447543	0.149330
	C3631	C	0.166203	0.390112	0.230226
	C3632	C	0.416382	0.390588	0.289353
	C3633	C	0.165758	0.449850	0.212024
	C3634	C	0.415414	0.498968	0.140330
	C3635	C	0.165651	0.442198	0.222501
	C3636	C	0.094930	0.447509	0.149379
	C3637	C	0.345609	0.390076	0.230268
	C3638	C	0.095037	0.444155	0.285032
	C3639	C	0.344732	0.501631	0.204000
	C3640	C	0.004711	0.495229	0.145990
	C3641	C	0.255327	0.438274	0.227844
	C3642	C	0.005659	0.394897	0.284824
	C3643	C	0.255462	0.453771	0.206728
	C3644	C	0.005366	0.439872	0.281012
	C3645	C	0.254929	0.497422	0.199864
	C3646	C	0.005244	0.451781	0.153415
	C3647	C	0.255941	0.394387	0.234211
	C3648	C	0.005010	0.487157	0.157548
	C3649	C	0.255482	0.430030	0.239062
	C3650	C	0.005561	0.403815	0.275006
	C3651	C	0.255401	0.461964	0.195404
	C3652	C	0.005538	0.430905	0.272461
	C3653	C	0.254906	0.488495	0.191213
	C3654	C	0.005272	0.460722	0.162032
	C3655	C	0.255902	0.403374	0.242711
	H3656	H	0.163911	0.496395	0.145091
	H3657	H	0.414523	0.439248	0.226673
	H3658	H	0.164774	0.393862	0.285854
	H3659	H	0.414610	0.452832	0.208066
	H3660	H	0.346437	0.440899	0.281878
	H3661	H	0.095839	0.498555	0.200518
	H3662	H	0.346064	0.450789	0.152445
	H3663	H	0.096807	0.393388	0.233262
	H3664	H	0.346855	0.393833	0.285926
	H3665	H	0.096402	0.452832	0.207907
	H3666	H	0.346022	0.495945	0.144332
	H3667	H	0.096251	0.439213	0.226560
	H3668	H	0.164364	0.450749	0.152497
	H3669	H	0.414986	0.393317	0.233351
	H3670	H	0.164418	0.440873	0.282038
	H3671	H	0.414141	0.498339	0.200976
	O3672	O	0.589749	0.484033	0.162122
	O3673	O	0.839936	0.426820	0.243482
	O3674	O	0.590112	0.407334	0.271213
	O3675	O	0.839249	0.465197	0.191025
	O3676	O	0.921292	0.427364	0.269186
	O3677	O	0.670541	0.484974	0.187877
	O3678	O	0.920977	0.464224	0.165371
	O3679	O	0.671120	0.406897	0.245986
	O3680	O	0.921189	0.407301	0.271149
	O3681	O	0.670555	0.465173	0.190983
	O3682	O	0.920798	0.483935	0.161992
	O3683	O	0.671236	0.426771	0.243420
	O3684	O	0.589685	0.464223	0.165328
	O3685	O	0.839943	0.406917	0.245909
	O3686	O	0.590047	0.427383	0.269137
	O3687	O	0.839394	0.484986	0.187869
	F3688	F	0.505637	0.416981	0.248336
	F3689	F	0.755171	0.474241	0.167481
	F3690	F	0.505053	0.474995	0.185664
	F3691	F	0.755766	0.417371	0.266656
	Al3692	Al	0.630717	0.417165	0.257505
	Al3693	Al	0.880352	0.474616	0.176610
	Al3694	Al	0.630153	0.474613	0.176600
	Al3695	Al	0.880911	0.417167	0.257486
	C3696	C	0.594763	0.499223	0.140763
	C3697	C	0.844761	0.442228	0.222571
	C3698	C	0.595390	0.390595	0.289338
	C3699	C	0.844613	0.449874	0.212113
	C3700	C	0.915683	0.444171	0.284998
	C3701	C	0.665041	0.501726	0.203758
	C3702	C	0.915412	0.447556	0.149296
	C3703	C	0.665778	0.390082	0.230250
	C3704	C	0.916043	0.390599	0.289372
	C3705	C	0.665196	0.449823	0.212037
	C3706	C	0.914892	0.498951	0.140272
	C3707	C	0.665340	0.442167	0.222497
	C3708	C	0.594901	0.447504	0.149381
	C3709	C	0.845348	0.390061	0.230278
	C3710	C	0.595103	0.444130	0.285050
	C3711	C	0.844698	0.501604	0.204029
	C3712	C	0.505127	0.495239	0.146011
	C3713	C	0.755214	0.438266	0.227842
	C3714	C	0.505810	0.394917	0.284855
	C3715	C	0.754846	0.453764	0.206723
	C3716	C	0.505483	0.439842	0.281050
	C3717	C	0.754889	0.497414	0.199846
	C3718	C	0.505192	0.451800	0.153350
	C3719	C	0.755595	0.394350	0.234250
	C3720	C	0.505318	0.487186	0.157582
	C3721	C	0.755521	0.430042	0.239092
	C3722	C	0.505738	0.403823	0.275014
	C3723	C	0.754912	0.461942	0.195377
	C3724	C	0.505622	0.430909	0.272439
	C3725	C	0.754934	0.488493	0.191183
	C3726	C	0.505271	0.460725	0.161991
	C3727	C	0.755533	0.403364	0.242693
	H3728	H	0.664271	0.496418	0.145128
	H3729	H	0.914340	0.439287	0.226687
	H3730	H	0.664794	0.393856	0.285889
	H3731	H	0.914030	0.452872	0.208083
	H3732	H	0.846306	0.440897	0.281976
	H3733	H	0.595604	0.498524	0.200526
	H3734	H	0.846057	0.450841	0.152353
	H3735	H	0.596437	0.393386	0.233267
	H3736	H	0.846588	0.393879	0.285969
	H3737	H	0.595692	0.452787	0.207928
	H3738	H	0.845402	0.495900	0.144234
	H3739	H	0.595988	0.439159	0.226571
	H3740	H	0.664240	0.450726	0.152556
	H3741	H	0.914763	0.393339	0.233313
	H3742	H	0.664493	0.440862	0.282005
	H3743	H	0.914245	0.498309	0.201037
	O3744	O	0.089568	0.489242	0.305843
	O3745	O	0.340065	0.427567	0.377982
	O3746	O	0.090718	0.405216	0.399257
	O3747	O	0.340128	0.469832	0.333739
	O3748	O	0.421507	0.426420	0.402768
	O3749	O	0.170900	0.489914	0.331597
	O3750	O	0.421047	0.469398	0.308507
	O3751	O	0.171567	0.407277	0.376609
	O3752	O	0.421588	0.405253	0.399306
	O3753	O	0.171308	0.469795	0.333631
	O3754	O	0.421081	0.489302	0.305994
	O3755	O	0.171487	0.427541	0.377960
	O3756	O	0.089976	0.469392	0.308530
	O3757	O	0.340459	0.407242	0.376715
	O3758	O	0.090410	0.426372	0.402854
	O3759	O	0.339861	0.489858	0.331710
	F3760	F	0.005985	0.417536	0.380386
	F3761	F	0.255642	0.479483	0.310853
	F3762	F	0.005740	0.479888	0.329219
	F3763	F	0.255988	0.416145	0.399070
	Al3764	Al	0.131045	0.416811	0.389798
	Al3765	Al	0.380601	0.479668	0.320043
	Al3766	Al	0.130617	0.479671	0.320000
	Al3767	Al	0.380982	0.416828	0.389780
	C3768	C	0.094531	0.504604	0.284869
	C3769	C	0.345205	0.444705	0.360816
	C3770	C	0.095478	0.385293	0.399095
	C3771	C	0.345162	0.453139	0.352049
	C3772	C	0.416172	0.443733	0.417409
	C3773	C	0.165619	0.506676	0.347485
	C3774	C	0.415666	0.452568	0.292796
	C3775	C	0.166179	0.389969	0.361844
	C3776	C	0.415700	0.385339	0.399534
	C3777	C	0.165947	0.453076	0.351791
	C3778	C	0.415601	0.504768	0.285146
	C3779	C	0.165903	0.444625	0.360580
	C3780	C	0.094985	0.452575	0.292829
	C3781	C	0.345887	0.389903	0.362067
	C3782	C	0.095652	0.443671	0.417634
	C3783	C	0.345125	0.506655	0.347537
	C3784	C	0.004928	0.500780	0.290377
	C3785	C	0.255578	0.440327	0.365137
	C3786	C	0.005671	0.390377	0.399851
	C3787	C	0.255601	0.457406	0.347378
	C3788	C	0.005910	0.439193	0.414020
	C3789	C	0.255451	0.502374	0.343583
	C3790	C	0.005321	0.456879	0.296773
	C3791	C	0.256043	0.394418	0.365532
	C3792	C	0.005097	0.492522	0.301571
	C3793	C	0.255717	0.431168	0.374391
	C3794	C	0.005967	0.401062	0.399513
	C3795	C	0.255722	0.466321	0.337530
	C3796	C	0.005961	0.429997	0.405968
	C3797	C	0.255404	0.493402	0.334980
	C3798	C	0.005481	0.465877	0.305241
	C3799	C	0.256029	0.403646	0.373532
	H3800	H	0.163909	0.501523	0.288766
	H3801	H	0.414710	0.441459	0.364292
	H3802	H	0.165535	0.389097	0.399289
	H3803	H	0.414680	0.456440	0.348731
	H3804	H	0.346421	0.440408	0.414540
	H3805	H	0.096286	0.503400	0.344410
	H3806	H	0.346334	0.455861	0.295823
	H3807	H	0.096404	0.393398	0.364436
	H3808	H	0.345840	0.389162	0.400034
	H3809	H	0.096613	0.456339	0.348222
	H3810	H	0.346182	0.501830	0.289295
	H3811	H	0.096481	0.441277	0.363883
	H3812	H	0.164331	0.455841	0.295886
	H3813	H	0.415602	0.393266	0.364836
	H3814	H	0.165422	0.440276	0.414978
	H3815	H	0.414459	0.503365	0.344517
	O3816	O	0.589833	0.489279	0.305930
	O3817	O	0.840150	0.427594	0.378016
	O3818	O	0.590755	0.405215	0.399220
	O3819	O	0.839669	0.469804	0.333763
	O3820	O	0.921560	0.426401	0.402789
	O3821	O	0.670872	0.489885	0.331645
	O3822	O	0.921180	0.469424	0.308496
	O3823	O	0.671245	0.407282	0.376614
	O3824	O	0.921503	0.405275	0.399315
	O3825	O	0.670834	0.469772	0.333645
	O3826	O	0.920855	0.489323	0.306024
	O3827	O	0.671553	0.427558	0.377976
	O3828	O	0.589906	0.469414	0.308408
	O3829	O	0.840115	0.407233	0.376678
	O3830	O	0.590365	0.426397	0.402806
	O3831	O	0.839522	0.489853	0.331717
	F3832	F	0.505805	0.417532	0.380363
	F3833	F	0.755564	0.479443	0.310860
	F3834	F	0.505586	0.479879	0.329174
	F3835	F	0.756119	0.416170	0.399005
	Al3836	Al	0.630961	0.416833	0.389759
	Al3837	Al	0.880681	0.479661	0.320082
	Al3838	Al	0.630575	0.479652	0.320007
	Al3839	Al	0.881420	0.416848	0.389747
	C3840	C	0.594860	0.504650	0.284945
	C3841	C	0.845066	0.444712	0.360820
	C3842	C	0.595732	0.385286	0.399171
	C3843	C	0.844964	0.453144	0.352057
	C3844	C	0.915930	0.443702	0.417512
	C3845	C	0.665620	0.506646	0.347523
	C3846	C	0.915589	0.452587	0.292796
	C3847	C	0.665682	0.390010	0.361768
	C3848	C	0.915359	0.385337	0.399568
	C3849	C	0.665694	0.453044	0.351797
	C3850	C	0.915354	0.504772	0.285140
	C3851	C	0.665839	0.444594	0.360585
	C3852	C	0.595018	0.452545	0.292856
	C3853	C	0.845450	0.389845	0.362190
	C3854	C	0.595767	0.443607	0.417766
	C3855	C	0.845086	0.506628	0.347515
	C3856	C	0.505215	0.500776	0.290371
	C3857	C	0.755600	0.440328	0.365155
	C3858	C	0.505912	0.390372	0.399905
	C3859	C	0.755293	0.457388	0.347393
	C3860	C	0.505928	0.439168	0.414032
	C3861	C	0.755290	0.502346	0.343518
	C3862	C	0.505349	0.456856	0.296760
	C3863	C	0.755635	0.394428	0.365490
	C3864	C	0.505407	0.492544	0.301614
	C3865	C	0.755798	0.431180	0.374411
	C3866	C	0.506115	0.401060	0.399510
	C3867	C	0.755240	0.466297	0.337549
	C3868	C	0.505921	0.430013	0.405938
	C3869	C	0.755192	0.493393	0.334990
	C3870	C	0.505422	0.465859	0.305220
	C3871	C	0.755640	0.403649	0.373513
	H3872	H	0.664287	0.501619	0.288918
	H3873	H	0.914574	0.441475	0.364290
	H3874	H	0.665897	0.389076	0.399350
	H3875	H	0.914409	0.456459	0.348738
	H3876	H	0.846233	0.440332	0.414741
	H3877	H	0.596129	0.503381	0.344516
	H3878	H	0.846206	0.455872	0.295833
	H3879	H	0.595878	0.393446	0.364332
	H3880	H	0.845618	0.389182	0.400151
	H3881	H	0.596365	0.456297	0.348237
	H3882	H	0.845938	0.501832	0.289257
	H3883	H	0.596683	0.441228	0.363886
	H3884	H	0.664294	0.455811	0.295937
	H3885	H	0.915300	0.393145	0.365087
	H3886	H	0.665552	0.440179	0.415197
	H3887	H	0.914463	0.503342	0.344493
	O3888	O	0.089902	0.490028	0.440456
	O3889	O	0.338911	0.417980	0.460762
	O3890	O	0.089411	0.394009	0.476772
	O3891	O	0.340819	0.467676	0.461642
	O3892	O	0.420068	0.415162	0.482752
	O3893	O	0.171202	0.488929	0.465231
	O3894	O	0.421550	0.469802	0.439054
	O3895	O	0.170562	0.396910	0.454814
	O3896	O	0.420560	0.394066	0.476892
	O3897	O	0.171670	0.467726	0.461795
	O3898	O	0.421187	0.490064	0.440507
	O3899	O	0.169888	0.418030	0.460953
	O3900	O	0.089948	0.469749	0.439234
	O3901	O	0.339395	0.396891	0.454892
	O3902	O	0.088546	0.415081	0.482892
	O3903	O	0.340184	0.488874	0.465287
	F3904	F	0.005081	0.407292	0.459425
	F3905	F	0.255568	0.480008	0.442828
	F3906	F	0.006205	0.478627	0.461659
	F3907	F	0.254714	0.404719	0.478226
	Al3908	Al	0.129730	0.406016	0.468832
	Al3909	Al	0.380656	0.479311	0.452229
	Al3910	Al	0.130871	0.479312	0.452300
	Al3911	Al	0.379666	0.406016	0.468830
	C3912	C	0.094948	0.507095	0.423103
	C3913	C	0.345118	0.437882	0.460701
	C3914	C	0.094493	0.374103	0.476596
	C3915	C	0.345548	0.447752	0.461672
	C3916	C	0.414733	0.432875	0.496694
	C3917	C	0.166062	0.506298	0.479814
	C3918	C	0.416173	0.452479	0.424358
	C3919	C	0.165155	0.379334	0.440516
	C3920	C	0.414476	0.374152	0.476954
	C3921	C	0.165388	0.447824	0.462043
	C3922	C	0.415852	0.507135	0.423194
	C3923	C	0.165025	0.437952	0.461086
	C3924	C	0.095516	0.452419	0.424576
	C3925	C	0.344679	0.379215	0.440856
	C3926	C	0.093807	0.432729	0.497041
	C3927	C	0.345850	0.506141	0.480141
	C3928	C	0.005304	0.502784	0.427598
	C3929	C	0.254817	0.432862	0.460339
	C3930	C	0.004490	0.379185	0.477300
	C3931	C	0.255748	0.452853	0.462313
	C3932	C	0.003969	0.428134	0.493644
	C3933	C	0.255872	0.501727	0.476454
	C3934	C	0.005652	0.456929	0.428048
	C3935	C	0.254980	0.383914	0.443937
	C3936	C	0.005548	0.493640	0.436904
	C3937	C	0.254491	0.422177	0.460647
	C3938	C	0.004840	0.389864	0.477055
	C3939	C	0.256159	0.463531	0.461941
	C3940	C	0.004049	0.418745	0.485931
	C3941	C	0.255744	0.492521	0.468378
	C3942	C	0.005514	0.466164	0.436041
	C3943	C	0.255027	0.393259	0.451731
	H3944	H	0.164415	0.503777	0.426448
	H3945	H	0.414957	0.434032	0.460208
	H3946	H	0.164664	0.377904	0.476860
	H3947	H	0.415675	0.451549	0.461903
	H3948	H	0.344554	0.429481	0.494130
	H3949	H	0.096181	0.502980	0.476943
	H3950	H	0.346475	0.455920	0.426933
	H3951	H	0.095084	0.382822	0.442848
	H3952	H	0.344685	0.377986	0.477529
	H3953	H	0.095774	0.451690	0.462592
	H3954	H	0.346299	0.503847	0.426583
	H3955	H	0.094934	0.434153	0.460902
	H3956	H	0.165270	0.455791	0.427320
	H3957	H	0.414805	0.382609	0.443438
	H3958	H	0.164029	0.429238	0.494764
	H3959	H	0.415567	0.502695	0.477556
	O3960	O	0.589875	0.490019	0.440436
	O3961	O	0.838886	0.417989	0.460618
	O3962	O	0.589601	0.394029	0.476694
	O3963	O	0.839823	0.467653	0.461753
	O3964	O	0.919639	0.415093	0.482812
	O3965	O	0.670790	0.488940	0.465208
	O3966	O	0.921158	0.469790	0.439134
	O3967	O	0.670007	0.396954	0.454731
	O3968	O	0.920330	0.394077	0.476982
	O3969	O	0.670768	0.467713	0.461815
	O3970	O	0.921356	0.490028	0.440475
	O3971	O	0.669811	0.418008	0.460765
	O3972	O	0.590400	0.469759	0.439142
	O3973	O	0.838849	0.396861	0.454822
	O3974	O	0.588930	0.415134	0.482790
	O3975	O	0.839818	0.488877	0.465351
	F3976	F	0.504468	0.407319	0.459428
	F3977	F	0.755771	0.480011	0.442928
	F3978	F	0.505715	0.478632	0.461554
	F3979	F	0.754623	0.404726	0.478106
	Al3980	Al	0.629540	0.406017	0.468763
	Al3981	Al	0.880943	0.479298	0.452328
	Al3982	Al	0.630664	0.479313	0.452277
	Al3983	Al	0.880039	0.406011	0.468766
	C3984	C	0.595268	0.507086	0.423129
	C3985	C	0.844636	0.437884	0.460649
	C3986	C	0.594539	0.374102	0.476533
	C3987	C	0.844836	0.447753	0.461681
	C3988	C	0.914105	0.432855	0.496715
	C3989	C	0.665412	0.506313	0.479759
	C3990	C	0.915793	0.452442	0.424445
	C3991	C	0.664466	0.379317	0.440541
	C3992	C	0.914132	0.374161	0.476967
	C3993	C	0.664725	0.447782	0.461977
	C3994	C	0.915617	0.507149	0.423171
	C3995	C	0.664475	0.437912	0.460948
	C3996	C	0.595785	0.452354	0.424702
	C3997	C	0.844124	0.379205	0.440855
	C3998	C	0.594380	0.432740	0.497020
	C3999	C	0.845249	0.506130	0.480189
	C4000	C	0.505565	0.502780	0.427625
	C4001	C	0.754475	0.432844	0.460253
	C4002	C	0.504680	0.379191	0.477238
	C4003	C	0.754897	0.452824	0.462352
	C4004	C	0.504486	0.428171	0.493582
	C4005	C	0.755243	0.501717	0.476494
	C4006	C	0.505983	0.456917	0.428036
	C4007	C	0.754262	0.383886	0.443978
	C4008	C	0.505550	0.493648	0.436907
	C4009	C	0.754362	0.422166	0.460512
	C4010	C	0.505022	0.389876	0.476962
	C4011	C	0.755169	0.463514	0.462003
	C4012	C	0.504494	0.418813	0.485843
	C4013	C	0.755283	0.492514	0.468428
	C4014	C	0.505992	0.466156	0.435998
	C4015	C	0.754296	0.393250	0.451708
	H4016	H	0.664709	0.503759	0.426472
	H4017	H	0.914472	0.434050	0.460131
	H4018	H	0.664701	0.377892	0.476763
	H4019	H	0.914890	0.451555	0.461946
	H4020	H	0.843894	0.429458	0.494170
	H4021	H	0.595624	0.503016	0.476825
	H4022	H	0.846034	0.455853	0.427087
	H4023	H	0.594269	0.382815	0.442811
	H4024	H	0.844263	0.378000	0.477519
	H4025	H	0.594937	0.451620	0.462491
	H4026	H	0.846244	0.503867	0.426588
	H4027	H	0.594497	0.434084	0.460679
	H4028	H	0.665517	0.455687	0.427550
	H4029	H	0.914230	0.382620	0.443389
	H4030	H	0.664543	0.429252	0.494719
	H4031	H	0.914950	0.502674	0.477625
	O4032	O	0.088573	0.480493	0.523191
	O4033	O	0.337745	0.406828	0.538322
	O4034	O	0.088023	0.384492	0.559554
	O4035	O	0.339081	0.456522	0.539141
	O4036	O	0.418702	0.404836	0.560973
	O4037	O	0.170067	0.477667	0.545181
	O4038	O	0.420383	0.459463	0.517131
	O4039	O	0.169233	0.385657	0.534810
	O4040	O	0.419555	0.384581	0.559730
	O4041	O	0.170120	0.456574	0.539266
	O4042	O	0.419831	0.480516	0.523282
	O4043	O	0.168553	0.406857	0.538406
	O4044	O	0.088916	0.459418	0.517209
	O4045	O	0.338124	0.385621	0.534952
	O4046	O	0.087405	0.404770	0.560980
	O4047	O	0.338955	0.477591	0.545303
	F4048	F	0.003896	0.395931	0.538462
	F4049	F	0.254419	0.469815	0.521822
	F4050	F	0.005053	0.467225	0.540634
	F4051	F	0.253408	0.394538	0.557286
	Al4052	Al	0.128488	0.395228	0.547822
	Al4053	Al	0.379605	0.468511	0.531233
	Al4054	Al	0.129663	0.468526	0.531211
	Al4055	Al	0.378364	0.395240	0.547859
	C4056	C	0.094900	0.500409	0.523040
	C4057	C	0.343789	0.426721	0.538038
	C4058	C	0.092973	0.367329	0.576613
	C4059	C	0.344087	0.436596	0.539017
	C4060	C	0.413349	0.422167	0.575598
	C4061	C	0.164870	0.495351	0.559217
	C4062	C	0.414790	0.441839	0.503011
	C4063	C	0.163766	0.368406	0.520010
	C4064	C	0.414237	0.367567	0.577164
	C4065	C	0.163858	0.436646	0.539353
	C4066	C	0.415023	0.500455	0.523537
	C4067	C	0.163517	0.426776	0.538369
	C4068	C	0.093857	0.441705	0.503307
	C4069	C	0.343626	0.368319	0.520171
	C4070	C	0.093032	0.422053	0.575790
	C4071	C	0.344566	0.495194	0.559608
	C4072	C	0.004524	0.495379	0.522792
	C4073	C	0.253467	0.421695	0.537674
	C4074	C	0.003517	0.371789	0.572475
	C4075	C	0.254147	0.441683	0.539629
	C4076	C	0.003083	0.417625	0.572087
	C4077	C	0.254608	0.490643	0.556120
	C4078	C	0.004117	0.446421	0.506365
	C4079	C	0.253749	0.372841	0.523657
	C4080	C	0.004125	0.484691	0.523051
	C4081	C	0.253201	0.411009	0.538100
	C4082	C	0.003646	0.380933	0.563191
	C4083	C	0.254500	0.452370	0.539350
	C4084	C	0.002937	0.408394	0.564093
	C4085	C	0.254518	0.481289	0.548331
	C4086	C	0.004385	0.455812	0.514072
	C4087	C	0.253754	0.382029	0.531736
	H4088	H	0.164644	0.496547	0.522439
	H4089	H	0.413634	0.422858	0.537549
	H4090	H	0.162183	0.370532	0.573004
	H4091	H	0.414170	0.440411	0.539279
	H4092	H	0.343525	0.418817	0.572848
	H4093	H	0.094553	0.491981	0.556640
	H4094	H	0.344781	0.445352	0.505305
	H4095	H	0.093950	0.371811	0.522661
	H4096	H	0.344979	0.370956	0.573962
	H4097	H	0.094004	0.440495	0.539894
	H4098	H	0.344986	0.496644	0.523327
	H4099	H	0.093431	0.422959	0.538160
	H4100	H	0.164008	0.445111	0.505844
	H4101	H	0.413508	0.371655	0.522979
	H4102	H	0.162832	0.418612	0.573246
	H4103	H	0.414703	0.491679	0.557365
	O4104	O	0.589008	0.480466	0.523194
	O4105	O	0.837171	0.406856	0.538197
	O4106	O	0.588122	0.384503	0.559537
	O4107	O	0.839158	0.456484	0.539250
	O4108	O	0.918488	0.404815	0.560917
	O4109	O	0.669631	0.477621	0.545317
	O4110	O	0.920061	0.459525	0.517114
	O4111	O	0.668752	0.385690	0.534812
	O4112	O	0.919487	0.384581	0.559681
	O4113	O	0.670093	0.456562	0.539467
	O4114	O	0.919419	0.480531	0.523301
	O4115	O	0.668071	0.406859	0.538296
	O4116	O	0.589299	0.459349	0.517357
	O4117	O	0.837660	0.385655	0.534837
	O4118	O	0.587681	0.404780	0.561019
	O4119	O	0.838567	0.477586	0.545411
	F4120	F	0.503251	0.395927	0.538554
	F4121	F	0.754703	0.469798	0.521973
	F4122	F	0.504398	0.467205	0.540610
	F4123	F	0.753487	0.394575	0.557162
	Al4124	Al	0.628407	0.395272	0.547797
	Al4125	Al	0.879973	0.468518	0.531284
	Al4126	Al	0.629496	0.468506	0.531296
	Al4127	Al	0.878578	0.395279	0.547759
	C4128	C	0.595109	0.500381	0.523081
	C4129	C	0.843194	0.426729	0.537973
	C4130	C	0.593486	0.367342	0.576651
	C4131	C	0.843812	0.436599	0.538999
	C4132	C	0.913194	0.422175	0.575556
	C4133	C	0.664354	0.495334	0.559236
	C4134	C	0.914153	0.441830	0.502982
	C4135	C	0.663195	0.368410	0.520034
	C4136	C	0.913981	0.367554	0.577159
	C4137	C	0.663620	0.436668	0.539515
	C4138	C	0.914720	0.500485	0.523545
	C4139	C	0.663050	0.426806	0.538474
	C4140	C	0.594488	0.441700	0.503342
	C4141	C	0.842964	0.368373	0.520042
	C4142	C	0.593184	0.422098	0.575726
	C4143	C	0.844093	0.495190	0.559605
	C4144	C	0.504815	0.495356	0.522821
	C4145	C	0.752850	0.421712	0.537697
	C4146	C	0.503901	0.371811	0.572524
	C4147	C	0.753992	0.441685	0.539771
	C4148	C	0.503270	0.417627	0.572136
	C4149	C	0.754149	0.490624	0.556183
	C4150	C	0.504693	0.446390	0.506434
	C4151	C	0.753114	0.372869	0.523609
	C4152	C	0.504518	0.484664	0.523074
	C4153	C	0.752610	0.411029	0.538048
	C4154	C	0.503866	0.380936	0.563206
	C4155	C	0.754436	0.452356	0.539511
	C4156	C	0.503255	0.408413	0.564133
	C4157	C	0.754092	0.481257	0.548453
	C4158	C	0.504793	0.455751	0.514166
	C4159	C	0.753160	0.382060	0.531686
	H4160	H	0.664841	0.496522	0.522484
	H4161	H	0.912945	0.422877	0.537393
	H4162	H	0.662797	0.370556	0.573016
	H4163	H	0.914020	0.440401	0.539193
	H4164	H	0.843384	0.418820	0.572810
	H4165	H	0.594110	0.491942	0.556688
	H4166	H	0.844086	0.445340	0.505262
	H4167	H	0.593370	0.371800	0.522729
	H4168	H	0.844682	0.370952	0.573995
	H4169	H	0.593884	0.440531	0.540122
	H4170	H	0.844517	0.496684	0.523344
	H4171	H	0.592941	0.423000	0.538286
	H4172	H	0.664610	0.445096	0.505917
	H4173	H	0.912818	0.371742	0.522747
	H4174	H	0.663100	0.418700	0.573101
	H4175	H	0.914258	0.491688	0.557357
	O4176	O	0.087834	0.469297	0.600603
	O4177	O	0.338244	0.404780	0.666241
	O4178	O	0.087924	0.385329	0.694101
	O4179	O	0.337761	0.446992	0.621985
	O4180	O	0.419217	0.405156	0.691544
	O4181	O	0.168642	0.467345	0.623352
	O4182	O	0.419040	0.448228	0.597193
	O4183	O	0.169625	0.384641	0.668449
	O4184	O	0.419326	0.385283	0.694012
	O4185	O	0.169154	0.447081	0.622155
	O4186	O	0.418534	0.469382	0.600905
	O4187	O	0.169362	0.404764	0.666314
	O4188	O	0.087858	0.448147	0.597345
	O4189	O	0.338436	0.384703	0.668316
	O4190	O	0.088029	0.405168	0.691486
	O4191	O	0.337525	0.467251	0.623525
	F4192	F	0.004056	0.394678	0.670753
	F4193	F	0.253376	0.458431	0.600997
	F4194	F	0.003341	0.457083	0.619666
	F4195	F	0.253842	0.395116	0.689142
	Al4196	Al	0.128974	0.394906	0.679961
	Al4197	Al	0.378262	0.457767	0.610295
	Al4198	Al	0.128480	0.457769	0.610246
	Al4199	Al	0.378885	0.394909	0.679955
	C4200	C	0.094182	0.489225	0.600580
	C4201	C	0.343172	0.421467	0.648018
	C4202	C	0.093183	0.369902	0.715033
	C4203	C	0.343171	0.429898	0.639255
	C4204	C	0.413918	0.421985	0.707288
	C4205	C	0.163661	0.484745	0.637857
	C4206	C	0.413345	0.430926	0.582507
	C4207	C	0.164247	0.367877	0.652650
	C4208	C	0.414125	0.369802	0.714802
	C4209	C	0.163791	0.429966	0.639401
	C4210	C	0.413904	0.489299	0.601016
	C4211	C	0.163750	0.421511	0.648187
	C4212	C	0.093072	0.430807	0.582709
	C4213	C	0.343737	0.367890	0.652518
	C4214	C	0.093312	0.421958	0.707228
	C4215	C	0.343241	0.484512	0.638420
	C4216	C	0.003906	0.484198	0.600259
	C4217	C	0.253511	0.417180	0.652608
	C4218	C	0.003590	0.373798	0.709631
	C4219	C	0.253483	0.434272	0.634896
	C4220	C	0.003535	0.417657	0.703305
	C4221	C	0.253327	0.480130	0.634600
	C4222	C	0.003260	0.435355	0.586123
	C4223	C	0.253986	0.372174	0.656543
	C4224	C	0.003464	0.473508	0.600555
	C4225	C	0.253683	0.408262	0.662438
	C4226	C	0.003600	0.382073	0.698452
	C4227	C	0.253443	0.443425	0.625651
	C4228	C	0.003576	0.408675	0.694796
	C4229	C	0.253117	0.470902	0.626582
	C4230	C	0.003340	0.444582	0.594129
	C4231	C	0.254053	0.381147	0.665081
	H4232	H	0.164018	0.485380	0.600026
	H4233	H	0.412809	0.418187	0.651369
	H4234	H	0.162516	0.372934	0.711066
	H4235	H	0.412843	0.433141	0.635821
	H4236	H	0.344537	0.418718	0.704247
	H4237	H	0.093725	0.481468	0.634920
	H4238	H	0.343714	0.434350	0.585128
	H4239	H	0.094804	0.371137	0.655754
	H4240	H	0.344742	0.372751	0.710692
	H4241	H	0.094446	0.433310	0.636048
	H4242	H	0.343811	0.485495	0.600838
	H4243	H	0.094444	0.418230	0.651715
	H4244	H	0.162774	0.434145	0.585516
	H4245	H	0.413119	0.371184	0.655520
	H4246	H	0.162716	0.418683	0.704164
	H4247	H	0.413021	0.481033	0.635955
	O4248	O	0.587710	0.469315	0.600659
	O4249	O	0.837960	0.404771	0.666217
	O4250	O	0.588008	0.385350	0.694128
	O4251	O	0.837797	0.447020	0.622045
	O4252	O	0.919267	0.405142	0.691522
	O4253	O	0.668327	0.467370	0.623349
	O4254	O	0.918940	0.448227	0.597214
	O4255	O	0.669515	0.384662	0.668400
	O4256	O	0.919267	0.385299	0.694060
	O4257	O	0.669179	0.447076	0.622131
	O4258	O	0.918636	0.469370	0.600876
	O4259	O	0.669100	0.404793	0.666296
	O4260	O	0.587909	0.448167	0.597339
	O4261	O	0.838334	0.384689	0.668286
	O4262	O	0.588050	0.405145	0.691576
	O4263	O	0.837169	0.467301	0.623498
	F4264	F	0.503913	0.394704	0.670819
	F4265	F	0.753397	0.458428	0.601021
	F4266	F	0.503296	0.457069	0.619696
	F4267	F	0.754064	0.395123	0.689111
	Al4268	Al	0.628953	0.394916	0.679969
	Al4269	Al	0.878779	0.457754	0.610317
	Al4270	Al	0.628389	0.457762	0.610239
	Al4271	Al	0.879027	0.394907	0.679901
	C4272	C	0.594028	0.489234	0.600465
	C4273	C	0.842947	0.421427	0.647966
	C4274	C	0.593355	0.369920	0.715036
	C4275	C	0.843019	0.429864	0.639224
	C4276	C	0.913945	0.421978	0.707272
	C4277	C	0.663133	0.484726	0.637896
	C4278	C	0.913255	0.430924	0.582467
	C4279	C	0.664175	0.367852	0.652654
	C4280	C	0.914041	0.369793	0.714830
	C4281	C	0.663726	0.430002	0.639422
	C4282	C	0.914010	0.489297	0.601017
	C4283	C	0.663692	0.421540	0.648192
	C4284	C	0.593191	0.430856	0.582626
	C4285	C	0.843660	0.367917	0.652490
	C4286	C	0.593306	0.421974	0.707228
	C4287	C	0.842701	0.484518	0.638424
	C4288	C	0.503690	0.484204	0.600261
	C4289	C	0.753332	0.417190	0.652607
	C4290	C	0.503725	0.373791	0.709593
	C4291	C	0.753462	0.434281	0.634908
	C4292	C	0.503584	0.417675	0.703315
	C4293	C	0.752847	0.480117	0.634618
	C4294	C	0.503339	0.435377	0.586101
	C4295	C	0.753928	0.372167	0.656542
	C4296	C	0.503286	0.473519	0.600589
	C4297	C	0.753481	0.408280	0.662439
	C4298	C	0.503695	0.382053	0.698398
	C4299	C	0.753472	0.443436	0.625655
	C4300	C	0.503589	0.408688	0.694819
	C4301	C	0.752772	0.470925	0.626593
	C4302	C	0.503484	0.444586	0.594136
	C4303	C	0.753905	0.381142	0.665064
	H4304	H	0.663763	0.485383	0.599851
	H4305	H	0.912518	0.418130	0.651292
	H4306	H	0.662846	0.372971	0.711113
	H4307	H	0.912601	0.433092	0.635777
	H4308	H	0.844510	0.418716	0.704230
	H4309	H	0.593277	0.481436	0.634969
	H4310	H	0.843610	0.434362	0.585084
	H4311	H	0.594863	0.371119	0.655749
	H4312	H	0.844587	0.372742	0.710697
	H4313	H	0.594529	0.433383	0.636103
	H4314	H	0.843911	0.485484	0.600822
	H4315	H	0.594464	0.418283	0.651757
	H4316	H	0.662943	0.434225	0.585367
	H4317	H	0.913135	0.371225	0.655424
	H4318	H	0.662588	0.418701	0.704149
	H4319	H	0.912399	0.481049	0.635941
	O4320	O	0.088093	0.467153	0.728589
	O4321	O	0.338346	0.409233	0.808744
	O4322	O	0.088540	0.390558	0.837875
	O4323	O	0.338522	0.447727	0.756482
	O4324	O	0.419573	0.410340	0.834583
	O4325	O	0.169080	0.467725	0.753887
	O4326	O	0.419521	0.447209	0.730814
	O4327	O	0.169777	0.389559	0.812137
	O4328	O	0.420097	0.390578	0.837874
	O4329	O	0.169892	0.447898	0.756674
	O4330	O	0.418990	0.467322	0.728893
	O4331	O	0.169678	0.409429	0.809053
	O4332	O	0.088417	0.447177	0.730836
	O4333	O	0.338579	0.389573	0.812043
	O4334	O	0.088728	0.410274	0.834726
	O4335	O	0.337946	0.467567	0.754217
	F4336	F	0.004418	0.399581	0.814241
	F4337	F	0.253943	0.457203	0.733309
	F4338	F	0.003922	0.457584	0.751647
	F4339	F	0.254352	0.400293	0.832453
	Al4340	Al	0.129383	0.399935	0.823398
	Al4341	Al	0.378845	0.457405	0.742482
	Al4342	Al	0.129057	0.457402	0.742422
	Al4343	Al	0.379297	0.399928	0.823342
	C4344	C	0.093156	0.483828	0.710258
	C4345	C	0.343518	0.424444	0.787409
	C4346	C	0.093582	0.375491	0.859479
	C4347	C	0.343464	0.432120	0.777013
	C4348	C	0.414466	0.427092	0.850485
	C4349	C	0.164107	0.484654	0.769386
	C4350	C	0.414054	0.430410	0.715079
	C4351	C	0.164184	0.372784	0.796317
	C4352	C	0.414600	0.375461	0.859351
	C4353	C	0.164075	0.432617	0.777903
	C4354	C	0.414107	0.484152	0.710973
	C4355	C	0.164111	0.424926	0.788315
	C4356	C	0.093339	0.430374	0.715037
	C4357	C	0.343611	0.372927	0.795934
	C4358	C	0.093940	0.426896	0.850899
	C4359	C	0.343595	0.484311	0.770117
	C4360	C	0.003632	0.479650	0.715107
	C4361	C	0.253890	0.420742	0.793156
	C4362	C	0.004048	0.379340	0.853972
	C4363	C	0.253791	0.436294	0.772121
	C4364	C	0.004226	0.422714	0.846664
	C4365	C	0.253735	0.480198	0.765775
	C4366	C	0.003703	0.434691	0.718997
	C4367	C	0.253949	0.377120	0.800135
	C4368	C	0.003703	0.470733	0.724944
	C4369	C	0.254029	0.412560	0.804500
	C4370	C	0.004172	0.387390	0.842375
	C4371	C	0.254076	0.444534	0.760894
	C4372	C	0.004229	0.413807	0.837979
	C4373	C	0.253585	0.471186	0.757317
	C4374	C	0.003985	0.443663	0.727543
	C4375	C	0.254138	0.386047	0.808780
	H4376	H	0.162627	0.480442	0.713408
	H4377	H	0.413002	0.421283	0.791111
	H4378	H	0.163034	0.378434	0.855360
	H4379	H	0.413016	0.434913	0.772614
	H4380	H	0.345080	0.423922	0.847230
	H4381	H	0.094641	0.481502	0.766066
	H4382	H	0.344816	0.433699	0.718143
	H4383	H	0.094788	0.375970	0.799595
	H4384	H	0.345234	0.378382	0.855179
	H4385	H	0.094670	0.435835	0.774241
	H4386	H	0.344685	0.481021	0.714709
	H4387	H	0.094681	0.422157	0.792787
	H4388	H	0.162774	0.433635	0.718083
	H4389	H	0.413024	0.376224	0.798886
	H4390	H	0.163348	0.423582	0.847948
	H4391	H	0.412885	0.480880	0.767417
	O4392	O	0.587955	0.467149	0.728593
	O4393	O	0.837913	0.409265	0.808767
	O4394	O	0.588837	0.390600	0.837978
	O4395	O	0.838419	0.447723	0.756489
	O4396	O	0.919948	0.410321	0.834575
	O4397	O	0.668964	0.467758	0.753816
	O4398	O	0.919666	0.447193	0.730836
	O4399	O	0.669575	0.389573	0.812111
	O4400	O	0.919918	0.390592	0.837898
	O4401	O	0.669714	0.447885	0.756715
	O4402	O	0.919276	0.467314	0.728941
	O4403	O	0.669213	0.409400	0.809008
	O4404	O	0.588378	0.447154	0.730899
	O4405	O	0.838357	0.389594	0.812021
	O4406	O	0.588369	0.410245	0.834800
	O4407	O	0.837840	0.467581	0.754186
	F4408	F	0.504279	0.399552	0.814274
	F4409	F	0.754054	0.457196	0.733343
	F4410	F	0.503985	0.457611	0.751627
	F4411	F	0.754422	0.400316	0.832442
	Al4412	Al	0.629210	0.399936	0.823412
	Al4413	Al	0.879141	0.457403	0.742490
	Al4414	Al	0.628849	0.457415	0.742426
	Al4415	Al	0.879468	0.399940	0.823295
	C4416	C	0.593352	0.483804	0.710246
	C4417	C	0.843235	0.424421	0.787368
	C4418	C	0.593768	0.375503	0.859465
	C4419	C	0.843312	0.432100	0.776979
	C4420	C	0.914616	0.427080	0.850477
	C4421	C	0.664009	0.484635	0.769418
	C4422	C	0.914016	0.430397	0.715065
	C4423	C	0.664066	0.372791	0.796292
	C4424	C	0.914473	0.375457	0.859388
	C4425	C	0.663863	0.432593	0.777845
	C4426	C	0.913988	0.484120	0.710969
	C4427	C	0.663755	0.424906	0.788255
	C4428	C	0.593467	0.430396	0.715022
	C4429	C	0.843523	0.372929	0.795926
	C4430	C	0.593834	0.426903	0.850874
	C4431	C	0.843382	0.484311	0.770127
	C4432	C	0.503610	0.479670	0.715094
	C4433	C	0.753456	0.420759	0.793168
	C4434	C	0.504255	0.379314	0.853905
	C4435	C	0.753750	0.436289	0.772139
	C4436	C	0.504074	0.422732	0.846643
	C4437	C	0.753557	0.480186	0.765811
	C4438	C	0.503860	0.434693	0.719009
	C4439	C	0.753817	0.377129	0.800128
	C4440	C	0.503541	0.470737	0.724925
	C4441	C	0.753533	0.412564	0.804485
	C4442	C	0.504420	0.387401	0.842388
	C4443	C	0.754026	0.444554	0.760964
	C4444	C	0.503967	0.413809	0.838003
	C4445	C	0.753439	0.471193	0.757291
	C4446	C	0.503912	0.443658	0.727559
	C4447	C	0.753942	0.386070	0.808728
	H4448	H	0.662732	0.480387	0.713374
	H4449	H	0.912645	0.421212	0.791025
	H4450	H	0.663222	0.378469	0.855384
	H4451	H	0.912835	0.434867	0.772554
	H4452	H	0.845267	0.423916	0.847170
	H4453	H	0.594601	0.481487	0.766091
	H4454	H	0.844724	0.433676	0.718139
	H4455	H	0.594595	0.375983	0.799539
	H4456	H	0.845069	0.378370	0.855185
	H4457	H	0.594567	0.435792	0.774133
	H4458	H	0.844649	0.480976	0.714719
	H4459	H	0.594313	0.422097	0.792646
	H4460	H	0.662879	0.433672	0.718033
	H4461	H	0.912928	0.376234	0.798875
	H4462	H	0.663211	0.423577	0.847935
	H4463	H	0.912611	0.480890	0.767398
	O4464	O	0.088555	0.471774	0.871265
	O4465	O	0.338909	0.415328	0.954069
	O4466	O	0.089230	0.396651	0.983201
	O4467	O	0.338806	0.453029	0.900274
	O4468	O	0.420020	0.416479	0.979861
	O4469	O	0.169572	0.472846	0.897032
	O4470	O	0.420190	0.452106	0.874478
	O4471	O	0.170526	0.395697	0.957364
	O4472	O	0.420579	0.396770	0.983385
	O4473	O	0.170075	0.453097	0.900400
	O4474	O	0.419728	0.471864	0.871406
	O4475	O	0.170263	0.415414	0.954170
	O4476	O	0.088969	0.452068	0.874568
	O4477	O	0.339363	0.395601	0.957580
	O4478	O	0.088745	0.416403	0.979958
	O4479	O	0.338490	0.472773	0.897174
	F4480	F	0.004763	0.405637	0.959577
	F4481	F	0.254346	0.462082	0.876714
	F4482	F	0.004470	0.462810	0.894959
	F4483	F	0.254699	0.406440	0.977766
	Al4484	Al	0.129739	0.406037	0.968706
	Al4485	Al	0.379271	0.462439	0.885827
	Al4486	Al	0.129466	0.462454	0.885822
	Al4487	Al	0.379722	0.406037	0.968702
	C4488	C	0.093526	0.487077	0.850148
	C4489	C	0.344276	0.430378	0.932449
	C4490	C	0.094356	0.381497	1.004590
	C4491	C	0.344283	0.437885	0.921711
	C4492	C	0.414885	0.433168	0.995827
	C4493	C	0.164552	0.489630	0.912886
	C4494	C	0.414695	0.435457	0.858417
	C4495	C	0.165033	0.379106	0.941120
	C4496	C	0.415218	0.381772	1.005061
	C4497	C	0.165090	0.438058	0.921982
	C4498	C	0.414516	0.487318	0.850530
	C4499	C	0.165192	0.430555	0.932701
	C4500	C	0.093987	0.435260	0.858830
	C4501	C	0.344483	0.378793	0.941838
	C4502	C	0.094270	0.432993	0.996181
	C4503	C	0.343906	0.489372	0.913434
	C4504	C	0.003923	0.483261	0.855665
	C4505	C	0.254684	0.426616	0.938042
	C4506	C	0.004698	0.385461	0.999317
	C4507	C	0.254679	0.441817	0.916374
	C4508	C	0.004381	0.428836	0.991941
	C4509	C	0.254112	0.485271	0.909068
	C4510	C	0.004392	0.439611	0.862666
	C4511	C	0.254868	0.383232	0.945452
	C4512	C	0.004085	0.475044	0.866952
	C4513	C	0.254601	0.418543	0.949601
	C4514	C	0.004843	0.393536	0.987787
	C4515	C	0.254471	0.449889	0.904840
	C4516	C	0.004338	0.419917	0.983273
	C4517	C	0.254016	0.476325	0.900427
	C4518	C	0.004544	0.448558	0.871248
	C4519	C	0.254963	0.392151	0.954114
	H4520	H	0.163006	0.483988	0.854031
	H4521	H	0.413689	0.427377	0.936521
	H4522	H	0.163717	0.384333	1.000259
	H4523	H	0.413657	0.440744	0.917422
	H4524	H	0.345515	0.429957	0.992614
	H4525	H	0.095196	0.486458	0.909593
	H4526	H	0.345503	0.438795	0.861337
	H4527	H	0.095712	0.382484	0.943955
	H4528	H	0.345931	0.384843	1.001094
	H4529	H	0.095777	0.441051	0.917925
	H4530	H	0.345130	0.484436	0.854778
	H4531	H	0.095771	0.427703	0.936972
	H4532	H	0.163343	0.438447	0.862069
	H4533	H	0.413863	0.381914	0.945251
	H4534	H	0.163613	0.429663	0.993210
	H4535	H	0.413184	0.485984	0.910578
	O4536	O	0.588561	0.471785	0.871298
	O4537	O	0.838635	0.415329	0.954107
	O4538	O	0.589368	0.396665	0.983238
	O4539	O	0.838945	0.453029	0.900350
	O4540	O	0.920008	0.416440	0.979891
	O4541	O	0.669647	0.472855	0.897017
	O4542	O	0.920223	0.452101	0.874507
	O4543	O	0.670405	0.395734	0.957231
	O4544	O	0.920517	0.396752	0.983362
	O4545	O	0.670272	0.453077	0.900393
	O4546	O	0.919843	0.471843	0.871415
	O4547	O	0.669925	0.415390	0.954167
	O4548	O	0.588987	0.452034	0.874623
	O4549	O	0.839123	0.395582	0.957525
	O4550	O	0.588897	0.416354	0.980087
	O4551	O	0.838579	0.472783	0.897179
	F4552	F	0.504679	0.405634	0.959614
	F4553	F	0.754470	0.462060	0.876767
	F4554	F	0.504329	0.462811	0.894915
	F4555	F	0.754737	0.406397	0.977760
	Al4556	Al	0.629724	0.406014	0.968698
	Al4557	Al	0.879635	0.462437	0.885888
	Al4558	Al	0.629387	0.462438	0.885834
	Al4559	Al	0.879917	0.406014	0.968670
	C4560	C	0.593727	0.487060	0.850106
	C4561	C	0.844017	0.430347	0.932459
	C4562	C	0.594472	0.381478	1.004597
	C4563	C	0.844045	0.437863	0.921744
	C4564	C	0.914665	0.433178	0.995811
	C4565	C	0.664426	0.489625	0.912897
	C4566	C	0.914684	0.435441	0.858408
	C4567	C	0.664889	0.379064	0.941138
	C4568	C	0.914988	0.381764	1.005045
	C4569	C	0.664971	0.438033	0.922015
	C4570	C	0.914281	0.487320	0.850547
	C4571	C	0.664821	0.430519	0.932723
	C4572	C	0.594066	0.435264	0.858802
	C4573	C	0.844392	0.378768	0.941797
	C4574	C	0.594389	0.433022	0.996148
	C4575	C	0.843888	0.489377	0.913453
	C4576	C	0.504082	0.483255	0.855635
	C4577	C	0.754344	0.426608	0.938094
	C4578	C	0.504895	0.385482	0.999377
	C4579	C	0.754566	0.441806	0.916426
	C4580	C	0.504561	0.428859	0.991900
	C4581	C	0.754158	0.485269	0.909110
	C4582	C	0.504441	0.439621	0.862649
	C4583	C	0.754729	0.383203	0.945442
	C4584	C	0.504152	0.475059	0.866971
	C4585	C	0.754282	0.418534	0.949632
	C4586	C	0.504972	0.393544	0.987805
	C4587	C	0.754629	0.449879	0.904881
	C4588	C	0.504515	0.419935	0.983275
	C4589	C	0.754109	0.476338	0.900413
	C4590	C	0.504585	0.448558	0.871244
	C4591	C	0.754721	0.392144	0.954050
	H4592	H	0.663105	0.483962	0.853998
	H4593	H	0.913325	0.427328	0.936526
	H4594	H	0.663974	0.384287	1.000263
	H4595	H	0.913419	0.440722	0.917456
	H4596	H	0.845220	0.430003	0.992547
	H4597	H	0.595063	0.486460	0.909552
	H4598	H	0.845412	0.438786	0.861286
	H4599	H	0.595436	0.382417	0.943984
	H4600	H	0.845577	0.384822	1.001100
	H4601	H	0.595727	0.441032	0.917953
	H4602	H	0.844852	0.484432	0.854780
	H4603	H	0.595430	0.427664	0.936963
	H4604	H	0.663446	0.438451	0.862057
	H4605	H	0.913921	0.381865	0.945187
	H4606	H	0.663634	0.429690	0.993198
	H4607	H	0.913160	0.486012	0.910571
	O4608	O	0.088552	0.596833	-0.003628
	O4609	O	0.339271	0.540397	0.079195
	O4610	O	0.088934	0.521744	0.108352
	O4611	O	0.338938	0.578092	0.025382
	O4612	O	0.420253	0.541372	0.105016
	O4613	O	0.170021	0.597788	0.022183
	O4614	O	0.420080	0.577063	-0.000467
	O4615	O	0.170440	0.520573	0.082594
	O4616	O	0.420425	0.521621	0.108186
	O4617	O	0.170213	0.578089	0.025400
	O4618	O	0.420093	0.596825	-0.003668
	O4619	O	0.170555	0.540365	0.079114
	O4620	O	0.089057	0.577078	-0.000493
	O4621	O	0.339247	0.520647	0.082409
	O4622	O	0.089299	0.541444	0.104876
	O4623	O	0.338933	0.597792	0.022128
	F4624	F	0.004953	0.530640	0.084580
	F4625	F	0.254334	0.587064	0.001719
	F4626	F	0.004500	0.587805	0.019939
	F4627	F	0.254704	0.531392	0.102787
	Al4628	Al	0.129767	0.531025	0.093697
	Al4629	Al	0.379409	0.587434	0.010820
	Al4630	Al	0.129511	0.587437	0.010841
	Al4631	Al	0.379703	0.531018	0.093698
	C4632	C	0.093709	0.612205	-0.024595
	C4633	C	0.344410	0.555440	0.057536
	C4634	C	0.094150	0.506743	0.130047
	C4635	C	0.344329	0.562958	0.046829
	C4636	C	0.414775	0.558027	0.121194
	C4637	C	0.164614	0.614455	0.038265
	C4638	C	0.414819	0.560373	-0.016420
	C4639	C	0.165233	0.503821	0.066750
	C4640	C	0.415295	0.506488	0.129615
	C4641	C	0.165048	0.563031	0.046966
	C4642	C	0.414431	0.612185	-0.024654
	C4643	C	0.165128	0.555506	0.057674
	C4644	C	0.094059	0.560309	-0.016324
	C4645	C	0.344728	0.504004	0.066240
	C4646	C	0.094155	0.558142	0.120861
	C4647	C	0.344173	0.614517	0.038088
	C4648	C	0.004007	0.608250	-0.019342
	C4649	C	0.254888	0.551612	0.063067
	C4650	C	0.004482	0.510458	0.124329
	C4651	C	0.254671	0.566840	0.041413
	C4652	C	0.004500	0.553824	0.116939
	C4653	C	0.254452	0.610240	0.034120
	C4654	C	0.004352	0.564625	-0.012369
	C4655	C	0.254963	0.508172	0.070531
	C4656	C	0.004113	0.600054	-0.008018
	C4657	C	0.254945	0.543567	0.074665
	C4658	C	0.004569	0.518530	0.112778
	C4659	C	0.254630	0.574900	0.029862
	C4660	C	0.004784	0.544905	0.108305
	C4661	C	0.254494	0.601307	0.025464
	C4662	C	0.004569	0.573579	-0.003799
	C4663	C	0.254869	0.517096	0.079189
	H4664	H	0.163177	0.609236	-0.020487
	H4665	H	0.414004	0.552505	0.061637
	H4666	H	0.163620	0.509784	0.126096
	H4667	H	0.413844	0.565845	0.042635
	H4668	H	0.345411	0.554710	0.118249
	H4669	H	0.095227	0.611168	0.035243
	H4670	H	0.345435	0.563640	-0.013354
	H4671	H	0.095804	0.506986	0.070078
	H4672	H	0.345770	0.509311	0.125288
	H4673	H	0.095745	0.566004	0.042849
	H4674	H	0.345063	0.609140	-0.020672
	H4675	H	0.095798	0.552599	0.061928
	H4676	H	0.163615	0.563544	-0.013222
	H4677	H	0.414180	0.507312	0.069143
	H4678	H	0.163651	0.554942	0.117632
	H4679	H	0.413544	0.611278	0.034900
	O4680	O	0.588891	0.596832	-0.003678
	O4681	O	0.839010	0.540414	0.079129
	O4682	O	0.589093	0.521793	0.108411
	O4683	O	0.838641	0.578069	0.025353
	O4684	O	0.920513	0.541357	0.105054
	O4685	O	0.669875	0.597780	0.022190
	O4686	O	0.920244	0.577086	-0.000455
	O4687	O	0.670223	0.520577	0.082653
	O4688	O	0.920294	0.521673	0.108233
	O4689	O	0.669896	0.578070	0.025353
	O4690	O	0.919812	0.596819	-0.003663
	O4691	O	0.670341	0.540397	0.079146
	O4692	O	0.588766	0.577083	-0.000478
	O4693	O	0.839021	0.520691	0.082386
	O4694	O	0.589085	0.541467	0.104886
	O4695	O	0.838552	0.597787	0.022180
	F4696	F	0.504814	0.530641	0.084630
	F4697	F	0.754584	0.587054	0.001758
	F4698	F	0.504486	0.587817	0.019908
	F4699	F	0.754850	0.531450	0.102782
	Al4700	Al	0.629807	0.531057	0.093724
	Al4701	Al	0.879647	0.587438	0.010874
	Al4702	Al	0.629470	0.587443	0.010820
	Al4703	Al	0.879944	0.531035	0.093653
	C4704	C	0.593904	0.612228	-0.024608
	C4705	C	0.844030	0.555457	0.057511
	C4706	C	0.594574	0.506747	0.130049
	C4707	C	0.844069	0.562963	0.046800
	C4708	C	0.914653	0.558003	0.121196
	C4709	C	0.664409	0.614478	0.038211
	C4710	C	0.914554	0.560372	-0.016416
	C4711	C	0.665067	0.503841	0.066754
	C4712	C	0.914745	0.506476	0.129572
	C4713	C	0.664650	0.563020	0.046920
	C4714	C	0.914326	0.612205	-0.024650
	C4715	C	0.664661	0.555509	0.057648
	C4716	C	0.594248	0.560317	-0.016319
	C4717	C	0.844632	0.504032	0.066264
	C4718	C	0.594275	0.558160	0.120802
	C4719	C	0.843857	0.614535	0.038051
	C4720	C	0.504257	0.608289	-0.019269
	C4721	C	0.754427	0.551639	0.063066
	C4722	C	0.504870	0.510460	0.124343
	C4723	C	0.754337	0.566834	0.041387
	C4724	C	0.504459	0.553834	0.116956
	C4725	C	0.754136	0.610218	0.034130
	C4726	C	0.504575	0.564611	-0.012316
	C4727	C	0.754878	0.508203	0.070537
	C4728	C	0.504437	0.600063	-0.008045
	C4729	C	0.754612	0.543579	0.074625
	C4730	C	0.504868	0.518517	0.112776
	C4731	C	0.754289	0.574910	0.029862
	C4732	C	0.504543	0.544920	0.108292
	C4733	C	0.754177	0.601300	0.025510
	C4734	C	0.504487	0.573564	-0.003806
	C4735	C	0.754690	0.517129	0.079171
	H4736	H	0.663441	0.609221	-0.020607
	H4737	H	0.913622	0.552519	0.061613
	H4738	H	0.664024	0.509790	0.126081
	H4739	H	0.913675	0.565853	0.042614
	H4740	H	0.845280	0.554681	0.118245
	H4741	H	0.594962	0.611196	0.035198
	H4742	H	0.845263	0.563662	-0.013378
	H4743	H	0.595576	0.507003	0.070060
	H4744	H	0.845266	0.509304	0.125220
	H4745	H	0.595292	0.565992	0.042788
	H4746	H	0.844929	0.609228	-0.020583
	H4747	H	0.595411	0.552596	0.061895
	H4748	H	0.663726	0.563529	-0.013170
	H4749	H	0.914097	0.507343	0.069175
	H4750	H	0.663681	0.554969	0.117546
	H4751	H	0.913353	0.611303	0.034901
	O4752	O	0.088510	0.602775	0.141567
	O4753	O	0.339045	0.546410	0.224412
	O4754	O	0.089644	0.527679	0.253471
	O4755	O	0.339415	0.584099	0.170715
	O4756	O	0.420209	0.547556	0.250230
	O4757	O	0.170215	0.603962	0.167408
	O4758	O	0.420340	0.583163	0.144940
	O4759	O	0.170787	0.526795	0.227713
	O4760	O	0.420987	0.527774	0.253609
	O4761	O	0.170651	0.584241	0.170877
	O4762	O	0.419921	0.602929	0.141806
	O4763	O	0.170343	0.546545	0.224615
	O4764	O	0.089013	0.583144	0.144966
	O4765	O	0.339636	0.526718	0.227854
	O4766	O	0.089177	0.547433	0.250462
	O4767	O	0.338928	0.603799	0.167718
	F4768	F	0.005102	0.536770	0.229923
	F4769	F	0.254702	0.593145	0.147158
	F4770	F	0.004982	0.593909	0.165357
	F4771	F	0.254996	0.537493	0.248157
	Al4772	Al	0.130050	0.537136	0.239060
	Al4773	Al	0.379783	0.593513	0.156265
	Al4774	Al	0.129788	0.593528	0.156240
	Al4775	Al	0.380070	0.537125	0.239071
	C4776	C	0.093644	0.617718	0.119814
	C4777	C	0.344611	0.561385	0.202733
	C4778	C	0.094595	0.512282	0.274444
	C4779	C	0.344605	0.568916	0.192009
	C4780	C	0.415261	0.564334	0.266051
	C4781	C	0.165327	0.620791	0.183108
	C4782	C	0.414824	0.566377	0.129166
	C4783	C	0.165346	0.510105	0.211708
	C4784	C	0.415594	0.512441	0.274694
	C4785	C	0.165263	0.569313	0.192709
	C4786	C	0.414694	0.618134	0.120449
	C4787	C	0.165204	0.561807	0.203396
	C4788	C	0.094089	0.566498	0.128827
	C4789	C	0.344833	0.509980	0.211958
	C4790	C	0.094927	0.564006	0.266766
	C4791	C	0.344696	0.620395	0.184013
	C4792	C	0.003980	0.614072	0.125618
	C4793	C	0.254857	0.557734	0.208511
	C4794	C	0.005094	0.516315	0.269275
	C4795	C	0.254924	0.572963	0.186895
	C4796	C	0.004979	0.559883	0.262403
	C4797	C	0.254908	0.616325	0.179526
	C4798	C	0.004351	0.570689	0.133029
	C4799	C	0.255098	0.514289	0.215901
	C4800	C	0.004046	0.605992	0.137157
	C4801	C	0.254718	0.549668	0.220045
	C4802	C	0.005205	0.524512	0.257960
	C4803	C	0.254945	0.580999	0.175304
	C4804	C	0.004811	0.550970	0.253734
	C4805	C	0.254639	0.607386	0.170908
	C4806	C	0.004526	0.579616	0.141682
	C4807	C	0.255176	0.523243	0.224469
	H4808	H	0.163080	0.614600	0.123646
	H4809	H	0.413847	0.558280	0.206658
	H4810	H	0.164008	0.515191	0.270251
	H4811	H	0.413984	0.571693	0.187541
	H4812	H	0.345651	0.561210	0.262678
	H4813	H	0.095849	0.617724	0.179623
	H4814	H	0.345556	0.569578	0.132432
	H4815	H	0.095931	0.513417	0.214658
	H4816	H	0.346243	0.515476	0.270705
	H4817	H	0.095672	0.572393	0.188869
	H4818	H	0.345378	0.615366	0.124877
	H4819	H	0.095712	0.559078	0.207837
	H4820	H	0.163452	0.569804	0.131790
	H4821	H	0.414232	0.513200	0.215122
	H4822	H	0.164402	0.560626	0.263946
	H4823	H	0.413979	0.616985	0.181279
	O4824	O	0.588534	0.602723	0.141458
	O4825	O	0.838695	0.546409	0.224403
	O4826	O	0.589735	0.527651	0.253447
	O4827	O	0.839243	0.584114	0.170786
	O4828	O	0.920405	0.547520	0.250289
	O4829	O	0.669629	0.603970	0.167350
	O4830	O	0.920202	0.583121	0.145027
	O4831	O	0.670593	0.526798	0.227686
	O4832	O	0.920967	0.527768	0.253573
	O4833	O	0.670500	0.584276	0.170943
	O4834	O	0.919806	0.602871	0.141764
	O4835	O	0.670005	0.546606	0.224734
	O4836	O	0.589249	0.583095	0.145016
	O4837	O	0.839448	0.526703	0.227834
	O4838	O	0.589057	0.547379	0.250595
	O4839	O	0.838383	0.603815	0.167709
	F4840	F	0.505087	0.536766	0.229983
	F4841	F	0.754673	0.593099	0.147200
	F4842	F	0.504698	0.593905	0.165316
	F4843	F	0.755189	0.537459	0.248144
	Al4844	Al	0.630085	0.537124	0.239084
	Al4845	Al	0.879816	0.593502	0.156348
	Al4846	Al	0.629628	0.593511	0.156228
	Al4847	Al	0.880205	0.537124	0.239004
	C4848	C	0.593678	0.617752	0.119811
	C4849	C	0.844174	0.561372	0.202740
	C4850	C	0.594845	0.512318	0.274483
	C4851	C	0.844274	0.568895	0.192008
	C4852	C	0.915261	0.564312	0.266091
	C4853	C	0.664753	0.620772	0.183103
	C4854	C	0.914629	0.566359	0.129154
	C4855	C	0.665071	0.510077	0.211709
	C4856	C	0.915433	0.512451	0.274711
	C4857	C	0.664936	0.569295	0.192670
	C4858	C	0.914452	0.618164	0.120511
	C4859	C	0.664866	0.561798	0.203368
	C4860	C	0.594374	0.566506	0.128783
	C4861	C	0.844675	0.509951	0.211992
	C4862	C	0.594920	0.564005	0.266737
	C4863	C	0.844260	0.620366	0.184011
	C4864	C	0.504149	0.614070	0.125584
	C4865	C	0.754407	0.557729	0.208500
	C4866	C	0.505213	0.516301	0.269260
	C4867	C	0.754652	0.572947	0.186883
	C4868	C	0.504901	0.559899	0.262366
	C4869	C	0.754350	0.616306	0.179513
	C4870	C	0.504600	0.570672	0.133072
	C4871	C	0.754911	0.514286	0.215857
	C4872	C	0.504198	0.606001	0.137125
	C4873	C	0.754307	0.549691	0.220087
	C4874	C	0.505314	0.524486	0.257926
	C4875	C	0.754765	0.581010	0.175337
	C4876	C	0.504672	0.550974	0.253741
	C4877	C	0.754033	0.607388	0.170882
	C4878	C	0.504736	0.579606	0.141682
	C4879	C	0.754959	0.523230	0.224452
	H4880	H	0.663044	0.614666	0.123691
	H4881	H	0.913421	0.558273	0.206691
	H4882	H	0.664349	0.515243	0.270328
	H4883	H	0.913651	0.571670	0.187558
	H4884	H	0.845671	0.561188	0.262712
	H4885	H	0.595191	0.617705	0.179606
	H4886	H	0.845236	0.569557	0.132404
	H4887	H	0.595648	0.513379	0.214697
	H4888	H	0.846159	0.515492	0.270738
	H4889	H	0.595485	0.572376	0.188800
	H4890	H	0.844913	0.615408	0.124935
	H4891	H	0.595416	0.559078	0.207806
	H4892	H	0.663783	0.569816	0.131736
	H4893	H	0.914126	0.513147	0.215208
	H4894	H	0.664305	0.560615	0.263941
	H4895	H	0.913713	0.616965	0.181274
	O4896	O	0.089062	0.608888	0.286888
	O4897	O	0.339901	0.551738	0.368385
	O4898	O	0.090077	0.532270	0.396161
	O4899	O	0.339754	0.590155	0.315946
	O4900	O	0.420717	0.552415	0.394090
	O4901	O	0.170488	0.610052	0.312756
	O4902	O	0.421148	0.589306	0.290172
	O4903	O	0.171030	0.531918	0.370956
	O4904	O	0.421267	0.532297	0.396246
	O4905	O	0.171019	0.590281	0.316125
	O4906	O	0.420387	0.609041	0.287146
	O4907	O	0.171257	0.551803	0.368492
	O4908	O	0.089790	0.589183	0.290462
	O4909	O	0.339886	0.531889	0.371008
	O4910	O	0.089711	0.552333	0.394259
	O4911	O	0.339193	0.609905	0.312999
	F4912	F	0.005603	0.541985	0.373328
	F4913	F	0.255133	0.599258	0.292455
	F4914	F	0.005184	0.599996	0.310688
	F4915	F	0.255552	0.542348	0.391701
	Al4916	Al	0.130613	0.542155	0.382547
	Al4917	Al	0.380117	0.599616	0.301581
	Al4918	Al	0.130167	0.599621	0.301559
	Al4919	Al	0.380404	0.542147	0.382553
	C4920	C	0.094290	0.623856	0.265157
	C4921	C	0.345128	0.567101	0.347323
	C4922	C	0.094963	0.515551	0.414346
	C4923	C	0.344991	0.574769	0.336880
	C4924	C	0.415778	0.569294	0.409677
	C4925	C	0.165436	0.626896	0.328420
	C4926	C	0.415471	0.572685	0.274015
	C4927	C	0.165632	0.515085	0.355274
	C4928	C	0.416012	0.515581	0.414416
	C4929	C	0.165845	0.574982	0.337301
	C4930	C	0.415159	0.624356	0.266005
	C4931	C	0.166010	0.567320	0.347731
	C4932	C	0.095022	0.572371	0.274697
	C4933	C	0.345082	0.515065	0.355314
	C4934	C	0.095065	0.569032	0.410299
	C4935	C	0.344827	0.626445	0.329435
	C4936	C	0.004595	0.620237	0.271015
	C4937	C	0.255608	0.563259	0.352813
	C4938	C	0.005354	0.519905	0.409904
	C4939	C	0.255306	0.578790	0.331739
	C4940	C	0.005282	0.564868	0.406012
	C4941	C	0.255087	0.622422	0.324819
	C4942	C	0.005285	0.576787	0.278401
	C4943	C	0.255391	0.519365	0.359277
	C4944	C	0.004691	0.612171	0.282573
	C4945	C	0.255587	0.555038	0.364093
	C4946	C	0.005558	0.528821	0.400046
	C4947	C	0.255350	0.586974	0.320407
	C4948	C	0.005297	0.555897	0.397470
	C4949	C	0.254942	0.613511	0.316155
	C4950	C	0.005323	0.585731	0.287004
	C4951	C	0.255433	0.528363	0.367731
	H4952	H	0.163715	0.620731	0.268977
	H4953	H	0.414484	0.564020	0.351222
	H4954	H	0.164476	0.518798	0.410869
	H4955	H	0.414235	0.577669	0.332613
	H4956	H	0.346320	0.566114	0.406439
	H4957	H	0.095942	0.623831	0.324910
	H4958	H	0.346140	0.576063	0.276864
	H4959	H	0.096205	0.518354	0.358280
	H4960	H	0.346574	0.518859	0.410971
	H4961	H	0.096417	0.578027	0.333401
	H4962	H	0.345782	0.621636	0.270511
	H4963	H	0.096714	0.564438	0.351946
	H4964	H	0.164452	0.575508	0.278084
	H4965	H	0.414512	0.518321	0.358360
	H4966	H	0.164493	0.565654	0.407495
	H4967	H	0.414261	0.623007	0.326782
	O4968	O	0.589133	0.608905	0.286925
	O4969	O	0.839237	0.551723	0.368357
	O4970	O	0.590104	0.532279	0.396217
	O4971	O	0.839750	0.590120	0.315938
	O4972	O	0.920968	0.552438	0.394032
	O4973	O	0.670139	0.610060	0.312721
	O4974	O	0.921001	0.589328	0.290095
	O4975	O	0.671242	0.531914	0.370960
	O4976	O	0.921295	0.532351	0.396256
	O4977	O	0.671070	0.590289	0.316179
	O4978	O	0.920390	0.609070	0.287168
	O4979	O	0.670526	0.551831	0.368537
	O4980	O	0.590019	0.589176	0.290435
	O4981	O	0.840028	0.531873	0.371024
	O4982	O	0.589465	0.552319	0.394262
	O4983	O	0.838872	0.609903	0.313027
	F4984	F	0.505420	0.541941	0.373385
	F4985	F	0.755109	0.599263	0.292503
	F4986	F	0.505172	0.599989	0.310672
	F4987	F	0.755598	0.542356	0.391688
	Al4988	Al	0.630480	0.542151	0.382567
	Al4989	Al	0.880297	0.599612	0.301609
	Al4990	Al	0.630185	0.599620	0.301584
	Al4991	Al	0.880778	0.542164	0.382498
	C4992	C	0.594465	0.623840	0.265157
	C4993	C	0.844696	0.567067	0.347361
	C4994	C	0.595328	0.515531	0.414349
	C4995	C	0.844816	0.574735	0.336921
	C4996	C	0.915617	0.569279	0.409728
	C4997	C	0.665149	0.626910	0.328400
	C4998	C	0.915390	0.572679	0.274017
	C4999	C	0.665739	0.515077	0.355309
	C5000	C	0.915661	0.515608	0.414417
	C5001	C	0.665408	0.574971	0.337280
	C5002	C	0.914965	0.624378	0.266001
	C5003	C	0.665275	0.567305	0.347704
	C5004	C	0.595160	0.572363	0.274694
	C5005	C	0.845290	0.515056	0.355297
	C5006	C	0.595184	0.569003	0.410323
	C5007	C	0.844643	0.626445	0.329427
	C5008	C	0.504721	0.620220	0.271024
	C5009	C	0.754923	0.563288	0.352892
	C5010	C	0.505728	0.519881	0.409910
	C5011	C	0.755196	0.578793	0.331802
	C5012	C	0.505394	0.564860	0.405970
	C5013	C	0.754746	0.622428	0.324854
	C5014	C	0.505416	0.576789	0.278369
	C5015	C	0.755541	0.519355	0.359250
	C5016	C	0.504741	0.612136	0.282532
	C5017	C	0.754860	0.555036	0.364089
	C5018	C	0.505722	0.528792	0.400071
	C5019	C	0.755370	0.586990	0.320491
	C5020	C	0.505143	0.555884	0.397492
	C5021	C	0.754547	0.613503	0.316200
	C5022	C	0.505560	0.585731	0.286973
	C5023	C	0.755615	0.528361	0.367723
	H5024	H	0.663992	0.620707	0.268961
	H5025	H	0.914080	0.563965	0.351264
	H5026	H	0.664817	0.518765	0.410843
	H5027	H	0.914210	0.577626	0.332687
	H5028	H	0.846150	0.566115	0.406437
	H5029	H	0.595655	0.623855	0.324864
	H5030	H	0.845998	0.576059	0.276839
	H5031	H	0.596489	0.518378	0.358353
	H5032	H	0.846318	0.518909	0.410989
	H5033	H	0.596018	0.578034	0.333366
	H5034	H	0.845470	0.621676	0.270529
	H5035	H	0.595758	0.564409	0.351873
	H5036	H	0.664761	0.575472	0.278107
	H5037	H	0.914505	0.518341	0.358336
	H5038	H	0.664565	0.565589	0.407627
	H5039	H	0.913955	0.623005	0.326737
	O5040	O	0.089813	0.614195	0.430836
	O5041	O	0.340121	0.552521	0.502937
	O5042	O	0.090908	0.530208	0.524215
	O5043	O	0.340394	0.594744	0.458666
	O5044	O	0.421526	0.551429	0.527714
	O5045	O	0.171134	0.614888	0.456644
	O5046	O	0.421438	0.594430	0.433401
	O5047	O	0.172061	0.532341	0.501534
	O5048	O	0.421906	0.530261	0.524317
	O5049	O	0.171541	0.594824	0.458790
	O5050	O	0.420911	0.614275	0.431017
	O5051	O	0.171539	0.552595	0.503080
	O5052	O	0.090222	0.594327	0.433649
	O5053	O	0.340930	0.532245	0.501672
	O5054	O	0.090385	0.551368	0.527824
	O5055	O	0.339976	0.614834	0.456711
	F5056	F	0.006081	0.542523	0.505355
	F5057	F	0.255708	0.604432	0.435872
	F5058	F	0.005850	0.604867	0.454247
	F5059	F	0.256103	0.541148	0.524051
	Al5060	Al	0.131174	0.541824	0.514783
	Al5061	Al	0.380670	0.604633	0.445057
	Al5062	Al	0.130741	0.604642	0.445063
	Al5063	Al	0.381188	0.541831	0.514790
	C5064	C	0.094993	0.629556	0.409801
	C5065	C	0.345475	0.569541	0.485475
	C5066	C	0.095566	0.510290	0.524026
	C5067	C	0.345528	0.577980	0.476695
	C5068	C	0.416240	0.568788	0.542326
	C5069	C	0.166133	0.631694	0.472415
	C5070	C	0.415872	0.577714	0.417502
	C5071	C	0.166281	0.515035	0.486753
	C5072	C	0.415461	0.510332	0.524523
	C5073	C	0.166319	0.578144	0.477079
	C5074	C	0.415959	0.629834	0.410296
	C5075	C	0.166218	0.569704	0.485860
	C5076	C	0.095160	0.577446	0.418122
	C5077	C	0.345971	0.514882	0.487082
	C5078	C	0.095734	0.568638	0.542704
	C5079	C	0.345316	0.631594	0.472579
	C5080	C	0.005393	0.625761	0.415369
	C5081	C	0.255874	0.565293	0.490109
	C5082	C	0.005787	0.515382	0.524823
	C5083	C	0.255931	0.582358	0.472349
	C5084	C	0.005916	0.564202	0.538994
	C5085	C	0.255663	0.627360	0.468543
	C5086	C	0.005497	0.581864	0.421783
	C5087	C	0.256259	0.519467	0.490440
	C5088	C	0.005431	0.617516	0.426601
	C5089	C	0.255840	0.556149	0.499388
	C5090	C	0.006207	0.526069	0.524507
	C5091	C	0.255943	0.591292	0.462570
	C5092	C	0.005951	0.555023	0.530879
	C5093	C	0.255619	0.618378	0.459998
	C5094	C	0.005717	0.590867	0.430242
	C5095	C	0.256427	0.528678	0.498482
	H5096	H	0.164406	0.626455	0.413646
	H5097	H	0.414826	0.566171	0.488714
	H5098	H	0.165780	0.514088	0.524175
	H5099	H	0.415040	0.581200	0.473127
	H5100	H	0.346523	0.565467	0.539485
	H5101	H	0.096862	0.628450	0.469295
	H5102	H	0.346663	0.581108	0.420354
	H5103	H	0.096442	0.518469	0.489322
	H5104	H	0.345703	0.514185	0.525057
	H5105	H	0.097012	0.581499	0.473826
	H5106	H	0.346483	0.626968	0.414552
	H5107	H	0.096842	0.566481	0.489411
	H5108	H	0.164558	0.580634	0.421396
	H5109	H	0.415947	0.518183	0.489920
	H5110	H	0.165533	0.565212	0.540108
	H5111	H	0.414520	0.628275	0.469605
	O5112	O	0.589709	0.614190	0.430892
	O5113	O	0.840107	0.552532	0.502939
	O5114	O	0.591080	0.530183	0.524090
	O5115	O	0.840241	0.594728	0.458645
	O5116	O	0.921499	0.551437	0.527680
	O5117	O	0.671151	0.614887	0.456615
	O5118	O	0.921452	0.594457	0.433403
	O5119	O	0.671544	0.532361	0.501457
	O5120	O	0.921609	0.530273	0.524328
	O5121	O	0.671449	0.594863	0.458865
	O5122	O	0.921125	0.614314	0.431025
	O5123	O	0.671432	0.552590	0.503056
	O5124	O	0.590342	0.594309	0.433663
	O5125	O	0.840494	0.532204	0.501684
	O5126	O	0.590354	0.551381	0.527825
	O5127	O	0.839806	0.614840	0.456732
	F5128	F	0.506009	0.542535	0.505351
	F5129	F	0.755771	0.604448	0.435913
	F5130	F	0.505631	0.604846	0.454222
	F5131	F	0.756261	0.541156	0.524012
	Al5132	Al	0.631156	0.541826	0.514767
	Al5133	Al	0.880883	0.604653	0.445087
	Al5134	Al	0.630765	0.604638	0.445091
	Al5135	Al	0.881520	0.541832	0.514716
	C5136	C	0.595271	0.629529	0.409813
	C5137	C	0.845286	0.569557	0.485523
	C5138	C	0.595472	0.510259	0.524066
	C5139	C	0.845215	0.577996	0.476732
	C5140	C	0.916031	0.568789	0.542308
	C5141	C	0.665961	0.631660	0.472453
	C5142	C	0.915699	0.577693	0.417542
	C5143	C	0.665585	0.515056	0.486690
	C5144	C	0.915389	0.510364	0.524534
	C5145	C	0.666024	0.578141	0.477086
	C5146	C	0.915741	0.629824	0.410282
	C5147	C	0.666129	0.569707	0.485863
	C5148	C	0.595415	0.577421	0.418150
	C5149	C	0.845353	0.514871	0.487115
	C5150	C	0.595808	0.568628	0.542696
	C5151	C	0.845117	0.631589	0.472613
	C5152	C	0.505525	0.625741	0.415362
	C5153	C	0.755702	0.565285	0.490095
	C5154	C	0.505729	0.515357	0.524833
	C5155	C	0.755606	0.582364	0.472380
	C5156	C	0.505954	0.564219	0.538922
	C5157	C	0.755469	0.627333	0.468549
	C5158	C	0.505739	0.581865	0.421746
	C5159	C	0.755573	0.519443	0.490476
	C5160	C	0.505308	0.617485	0.426595
	C5161	C	0.755754	0.556154	0.499403
	C5162	C	0.506308	0.526051	0.524442
	C5163	C	0.755749	0.591288	0.462571
	C5164	C	0.505929	0.555027	0.530890
	C5165	C	0.755453	0.618384	0.459974
	C5166	C	0.505865	0.590858	0.430220
	C5167	C	0.755860	0.528671	0.498463
	H5168	H	0.664668	0.626419	0.413664
	H5169	H	0.914589	0.566213	0.488795
	H5170	H	0.665588	0.514054	0.524207
	H5171	H	0.914472	0.581211	0.473161
	H5172	H	0.846187	0.565494	0.539377
	H5173	H	0.596657	0.628420	0.469349
	H5174	H	0.846451	0.581088	0.420344
	H5175	H	0.595800	0.518518	0.489183
	H5176	H	0.845682	0.514222	0.525106
	H5177	H	0.596674	0.581484	0.473795
	H5178	H	0.846325	0.626944	0.414524
	H5179	H	0.596712	0.566481	0.489429
	H5180	H	0.664700	0.580580	0.421528
	H5181	H	0.915342	0.518182	0.489949
	H5182	H	0.665518	0.565176	0.540181
	H5183	H	0.914393	0.628286	0.469630
	O5184	O	0.090369	0.615088	0.565517
	O5185	O	0.339306	0.542984	0.585718
	O5186	O	0.089612	0.519021	0.601729
	O5187	O	0.341014	0.592711	0.586615
	O5188	O	0.420330	0.540151	0.607771
	O5189	O	0.171829	0.613910	0.590305
	O5190	O	0.421730	0.594804	0.564089
	O5191	O	0.170791	0.521923	0.579762
	O5192	O	0.420690	0.519075	0.601949
	O5193	O	0.171904	0.592757	0.586845
	O5194	O	0.421983	0.615045	0.565403
	O5195	O	0.170299	0.543051	0.585995
	O5196	O	0.090593	0.594783	0.564160
	O5197	O	0.339615	0.521854	0.579876
	O5198	O	0.088697	0.540068	0.607890
	O5199	O	0.340774	0.613965	0.590144
	F5200	F	0.005370	0.532325	0.584389
	F5201	F	0.256075	0.605027	0.567835
	F5202	F	0.006520	0.603674	0.586632
	F5203	F	0.255028	0.529735	0.603186
	Al5204	Al	0.130017	0.531013	0.593818
	Al5205	Al	0.381091	0.604334	0.577234
	Al5206	Al	0.131188	0.604335	0.577297
	Al5207	Al	0.380047	0.531021	0.593787
	C5208	C	0.095492	0.632156	0.548169
	C5209	C	0.345530	0.562910	0.585685
	C5210	C	0.094512	0.499102	0.601596
	C5211	C	0.345992	0.572789	0.586639
	C5212	C	0.415147	0.557843	0.621768
	C5213	C	0.166086	0.631222	0.605007
	C5214	C	0.416295	0.577528	0.549282
	C5215	C	0.165100	0.504302	0.565533
	C5216	C	0.414455	0.499176	0.602027
	C5217	C	0.165896	0.572840	0.587062
	C5218	C	0.416399	0.632127	0.548105
	C5219	C	0.165366	0.562965	0.586106
	C5220	C	0.095770	0.577380	0.549655
	C5221	C	0.344686	0.504144	0.565923
	C5222	C	0.094450	0.557718	0.622037
	C5223	C	0.345838	0.631251	0.604949
	C5224	C	0.005870	0.627809	0.552610
	C5225	C	0.255284	0.557875	0.585395
	C5226	C	0.004667	0.504195	0.602296
	C5227	C	0.256097	0.577875	0.587365
	C5228	C	0.004472	0.553139	0.618654
	C5229	C	0.256055	0.626742	0.601446
	C5230	C	0.006030	0.581960	0.552988
	C5231	C	0.255031	0.508857	0.568990
	C5232	C	0.006026	0.618676	0.561897
	C5233	C	0.254980	0.547190	0.585672
	C5234	C	0.004953	0.514881	0.601999
	C5235	C	0.256339	0.588562	0.586968
	C5236	C	0.004330	0.543757	0.610926
	C5237	C	0.256303	0.617544	0.593387
	C5238	C	0.006137	0.591175	0.561032
	C5239	C	0.255168	0.518222	0.576747
	H5240	H	0.165017	0.628883	0.551582
	H5241	H	0.415248	0.559042	0.585132
	H5242	H	0.164669	0.502904	0.601825
	H5243	H	0.415976	0.576613	0.586808
	H5244	H	0.344985	0.554448	0.619231
	H5245	H	0.096333	0.627841	0.602305
	H5246	H	0.346637	0.580968	0.551867
	H5247	H	0.094953	0.507799	0.567806
	H5248	H	0.344744	0.503037	0.602626
	H5249	H	0.095936	0.576661	0.587586
	H5250	H	0.346881	0.628822	0.551446
	H5251	H	0.095144	0.559169	0.585908
	H5252	H	0.165651	0.580689	0.552520
	H5253	H	0.414934	0.507510	0.568521
	H5254	H	0.164472	0.554212	0.619745
	H5255	H	0.415667	0.627889	0.602194
	O5256	O	0.590500	0.615066	0.565485
	O5257	O	0.838921	0.543011	0.585600
	O5258	O	0.589743	0.519032	0.601774
	O5259	O	0.840599	0.592686	0.586815
	O5260	O	0.919891	0.540105	0.607833
	O5261	O	0.671156	0.613914	0.590239
	O5262	O	0.921720	0.594815	0.564119
	O5263	O	0.670152	0.521949	0.579712
	O5264	O	0.920558	0.519087	0.601904
	O5265	O	0.671385	0.592742	0.586870
	O5266	O	0.921795	0.615044	0.565439
	O5267	O	0.669903	0.543036	0.585809
	O5268	O	0.590648	0.594732	0.564203
	O5269	O	0.838955	0.521891	0.579751
	O5270	O	0.589165	0.540063	0.607898
	O5271	O	0.840053	0.613942	0.590253
	F5272	F	0.504833	0.532317	0.584428
	F5273	F	0.756102	0.605019	0.567901
	F5274	F	0.505919	0.603669	0.586523
	F5275	F	0.755054	0.529757	0.603070
	Al5276	Al	0.629895	0.531033	0.593760
	Al5277	Al	0.881306	0.604330	0.577309
	Al5278	Al	0.631096	0.604333	0.577302
	Al5279	Al	0.880271	0.531044	0.593723
	C5280	C	0.595630	0.632173	0.548201
	C5281	C	0.845028	0.562911	0.585609
	C5282	C	0.594553	0.499115	0.601487
	C5283	C	0.845519	0.572783	0.586625
	C5284	C	0.914595	0.557841	0.621799
	C5285	C	0.665395	0.631213	0.604977
	C5286	C	0.916137	0.577526	0.549265
	C5287	C	0.664517	0.504311	0.565471
	C5288	C	0.914305	0.499169	0.602027
	C5289	C	0.665329	0.572825	0.587073
	C5290	C	0.916138	0.632123	0.548117
	C5291	C	0.664922	0.562958	0.586054
	C5292	C	0.595922	0.577373	0.549644
	C5293	C	0.844195	0.504167	0.565841
	C5294	C	0.594951	0.557699	0.622090
	C5295	C	0.845236	0.631195	0.605028
	C5296	C	0.506125	0.627796	0.552597
	C5297	C	0.754691	0.557879	0.585320
	C5298	C	0.504794	0.504196	0.602308
	C5299	C	0.755639	0.577861	0.587399
	C5300	C	0.504950	0.553142	0.618650
	C5301	C	0.755369	0.626714	0.601459
	C5302	C	0.506156	0.581957	0.552955
	C5303	C	0.754405	0.508870	0.568936
	C5304	C	0.506246	0.618661	0.561860
	C5305	C	0.754439	0.547193	0.585546
	C5306	C	0.505142	0.514881	0.602055
	C5307	C	0.755895	0.588544	0.587064
	C5308	C	0.504833	0.543774	0.610906
	C5309	C	0.755482	0.617540	0.593381
	C5310	C	0.506130	0.591176	0.560979
	C5311	C	0.754475	0.518249	0.576665
	H5312	H	0.665149	0.628906	0.551631
	H5313	H	0.914653	0.559051	0.585015
	H5314	H	0.664637	0.502912	0.601657
	H5315	H	0.915425	0.576606	0.586818
	H5316	H	0.844428	0.554430	0.619284
	H5317	H	0.595535	0.627850	0.602243
	H5318	H	0.846274	0.580962	0.551808
	H5319	H	0.594385	0.507822	0.567694
	H5320	H	0.844454	0.503015	0.602593
	H5321	H	0.595436	0.576664	0.587625
	H5322	H	0.846756	0.628807	0.551474
	H5323	H	0.594584	0.559171	0.585827
	H5324	H	0.665688	0.580681	0.552528
	H5325	H	0.914419	0.507560	0.568369
	H5326	H	0.664990	0.554183	0.619821
	H5327	H	0.915154	0.627818	0.602329
	O5328	O	0.089743	0.605502	0.648236
	O5329	O	0.337833	0.531804	0.663289
	O5330	O	0.088127	0.509474	0.684514
	O5331	O	0.339981	0.581500	0.664088
	O5332	O	0.418800	0.529831	0.685927
	O5333	O	0.170864	0.602606	0.670258
	O5334	O	0.421137	0.584472	0.642111
	O5335	O	0.169494	0.510680	0.659813
	O5336	O	0.419772	0.509588	0.684768
	O5337	O	0.170974	0.581554	0.664250
	O5338	O	0.420730	0.605491	0.648224
	O5339	O	0.168676	0.531861	0.663365
	O5340	O	0.089639	0.584392	0.642242
	O5341	O	0.338372	0.510593	0.659978
	O5342	O	0.087732	0.529787	0.685980
	O5343	O	0.339646	0.602616	0.670243
	F5344	F	0.003902	0.520896	0.663485
	F5345	F	0.255360	0.594790	0.646811
	F5346	F	0.005537	0.592225	0.665628
	F5347	F	0.253579	0.519555	0.682295
	Al5348	Al	0.128618	0.520239	0.672819
	Al5349	Al	0.380205	0.593517	0.656189
	Al5350	Al	0.130511	0.593523	0.656221
	Al5351	Al	0.378524	0.520245	0.672874
	C5352	C	0.095167	0.625432	0.648151
	C5353	C	0.344007	0.551698	0.663010
	C5354	C	0.093138	0.492288	0.701501
	C5355	C	0.344628	0.561570	0.663956
	C5356	C	0.413776	0.547191	0.700544
	C5357	C	0.164887	0.620286	0.684264
	C5358	C	0.415397	0.566820	0.628020
	C5359	C	0.163894	0.493479	0.644812
	C5360	C	0.414250	0.492609	0.702245
	C5361	C	0.164334	0.561658	0.664349
	C5362	C	0.415240	0.625433	0.648462
	C5363	C	0.163702	0.551784	0.663401
	C5364	C	0.094609	0.566694	0.628292
	C5365	C	0.343412	0.493244	0.645383
	C5366	C	0.093338	0.547032	0.700832
	C5367	C	0.344721	0.620212	0.684586
	C5368	C	0.004963	0.620371	0.647806
	C5369	C	0.253582	0.546685	0.662713
	C5370	C	0.003541	0.496786	0.697460
	C5371	C	0.254802	0.566667	0.664640
	C5372	C	0.003319	0.542631	0.697102
	C5373	C	0.254946	0.615630	0.681118
	C5374	C	0.004897	0.571389	0.631403
	C5375	C	0.253753	0.497856	0.648640
	C5376	C	0.005225	0.609679	0.648087
	C5377	C	0.253363	0.536002	0.663095
	C5378	C	0.003738	0.505935	0.688212
	C5379	C	0.255352	0.577352	0.664356
	C5380	C	0.003241	0.533399	0.689123
	C5381	C	0.255225	0.606280	0.673335
	C5382	C	0.005106	0.580782	0.639112
	C5383	C	0.253894	0.507034	0.656731
	H5384	H	0.165172	0.621602	0.647645
	H5385	H	0.413758	0.547831	0.662484
	H5386	H	0.162620	0.495461	0.697829
	H5387	H	0.414911	0.565360	0.664157
	H5388	H	0.343828	0.543860	0.697772
	H5389	H	0.094816	0.616849	0.681725
	H5390	H	0.345455	0.570346	0.630271
	H5391	H	0.094244	0.496950	0.647303
	H5392	H	0.344781	0.496029	0.699195
	H5393	H	0.094656	0.565527	0.664866
	H5394	H	0.345256	0.621618	0.648188
	H5395	H	0.093657	0.547972	0.663199
	H5396	H	0.164792	0.570103	0.630797
	H5397	H	0.413220	0.496508	0.648368
	H5398	H	0.163095	0.543570	0.698316
	H5399	H	0.414845	0.616708	0.682316
	O5400	O	0.589690	0.605477	0.648287
	O5401	O	0.837373	0.531838	0.663137
	O5402	O	0.588363	0.509488	0.684528
	O5403	O	0.839779	0.581469	0.664175
	O5404	O	0.918749	0.529822	0.685939
	O5405	O	0.670210	0.602629	0.670297
	O5406	O	0.920795	0.584499	0.642118
	O5407	O	0.669034	0.510701	0.659772
	O5408	O	0.919499	0.509608	0.684781
	O5409	O	0.670697	0.581581	0.664546
	O5410	O	0.920705	0.605505	0.648264
	O5411	O	0.668217	0.531893	0.663417
	O5412	O	0.589955	0.584344	0.642381
	O5413	O	0.837917	0.510597	0.659928
	O5414	O	0.587770	0.529792	0.685966
	O5415	O	0.839140	0.602617	0.670329
	F5416	F	0.503466	0.520906	0.663556
	F5417	F	0.755196	0.594801	0.646992
	F5418	F	0.504822	0.592210	0.665651
	F5419	F	0.753590	0.519592	0.682190
	Al5420	Al	0.628605	0.520264	0.672801
	Al5421	Al	0.880741	0.593516	0.656259
	Al5422	Al	0.630099	0.593491	0.656354
	Al5423	Al	0.878662	0.520254	0.672787
	C5424	C	0.595444	0.625403	0.648184
	C5425	C	0.843611	0.551724	0.663021
	C5426	C	0.593400	0.492261	0.701518
	C5427	C	0.844222	0.561591	0.664011
	C5428	C	0.913510	0.547237	0.700400
	C5429	C	0.664569	0.620322	0.684228
	C5430	C	0.914801	0.566811	0.628051
	C5431	C	0.663355	0.493472	0.644852
	C5432	C	0.913934	0.492575	0.702220
	C5433	C	0.664053	0.561668	0.664450
	C5434	C	0.914849	0.625449	0.648410
	C5435	C	0.663467	0.551796	0.663460
	C5436	C	0.595154	0.566673	0.628347
	C5437	C	0.843017	0.493260	0.645394
	C5438	C	0.593622	0.547075	0.700736
	C5439	C	0.844283	0.620235	0.684537
	C5440	C	0.505234	0.620351	0.647847
	C5441	C	0.753251	0.546713	0.662680
	C5442	C	0.503927	0.496783	0.697457
	C5443	C	0.754393	0.566680	0.664723
	C5444	C	0.503539	0.542636	0.697099
	C5445	C	0.754473	0.615641	0.681149
	C5446	C	0.505365	0.571370	0.631455
	C5447	C	0.753260	0.497838	0.648670
	C5448	C	0.505218	0.609663	0.648111
	C5449	C	0.752895	0.536032	0.663039
	C5450	C	0.504085	0.505933	0.688221
	C5451	C	0.754936	0.577360	0.664494
	C5452	C	0.503297	0.533419	0.689077
	C5453	C	0.754651	0.606273	0.673409
	C5454	C	0.505480	0.580740	0.639185
	C5455	C	0.753369	0.507040	0.656715
	H5456	H	0.665392	0.621562	0.647669
	H5457	H	0.913418	0.547861	0.662508
	H5458	H	0.662933	0.495409	0.697847
	H5459	H	0.914425	0.565386	0.664253
	H5460	H	0.843632	0.543932	0.697530
	H5461	H	0.594657	0.616888	0.681651
	H5462	H	0.844831	0.570326	0.630363
	H5463	H	0.593852	0.496961	0.647349
	H5464	H	0.844548	0.496001	0.699140
	H5465	H	0.594446	0.565538	0.665038
	H5466	H	0.844729	0.621631	0.648142
	H5467	H	0.593458	0.547996	0.663299
	H5468	H	0.665320	0.570074	0.630887
	H5469	H	0.912678	0.496559	0.648346
	H5470	H	0.663463	0.543647	0.698116
	H5471	H	0.914395	0.616740	0.682229
	O5472	O	0.088318	0.594333	0.725750
	O5473	O	0.338345	0.529741	0.791193
	O5474	O	0.088515	0.510259	0.818961
	O5475	O	0.338553	0.572026	0.747041
	O5476	O	0.419478	0.530217	0.816390
	O5477	O	0.169266	0.592359	0.748329
	O5478	O	0.419580	0.573203	0.722252
	O5479	O	0.170085	0.509740	0.793252
	O5480	O	0.420107	0.510370	0.819116
	O5481	O	0.169950	0.572051	0.747077
	O5482	O	0.419054	0.594386	0.725824
	O5483	O	0.169507	0.529784	0.791241
	O5484	O	0.088501	0.573120	0.722384
	O5485	O	0.338865	0.509615	0.793499
	O5486	O	0.088423	0.530148	0.816477
	O5487	O	0.338062	0.592249	0.748497
	F5488	F	0.004166	0.519708	0.795733
	F5489	F	0.253947	0.583423	0.725981
	F5490	F	0.003816	0.582070	0.744700
	F5491	F	0.254047	0.520115	0.814116
	Al5492	Al	0.129119	0.519914	0.804925
	Al5493	Al	0.378961	0.582766	0.735261
	Al5494	Al	0.128967	0.582760	0.735257
	Al5495	Al	0.379027	0.519921	0.804931
	C5496	C	0.094132	0.614233	0.725552
	C5497	C	0.343742	0.546470	0.773035
	C5498	C	0.093422	0.494766	0.839743
	C5499	C	0.343868	0.554926	0.764301
	C5500	C	0.414334	0.547017	0.832110
	C5501	C	0.164157	0.609679	0.762962
	C5502	C	0.414001	0.555933	0.707479
	C5503	C	0.164493	0.493072	0.777169
	C5504	C	0.414574	0.495010	0.840130
	C5505	C	0.164354	0.554956	0.764342
	C5506	C	0.414316	0.614277	0.725892
	C5507	C	0.164238	0.546498	0.773083
	C5508	C	0.093545	0.555776	0.707771
	C5509	C	0.343872	0.492725	0.777909
	C5510	C	0.093713	0.546910	0.832309
	C5511	C	0.343727	0.609570	0.763235
	C5512	C	0.003897	0.609193	0.725147
	C5513	C	0.253980	0.542183	0.777584
	C5514	C	0.003858	0.498816	0.834609
	C5515	C	0.254166	0.559281	0.759897
	C5516	C	0.004018	0.542685	0.828201
	C5517	C	0.253882	0.605113	0.759553
	C5518	C	0.003764	0.560357	0.711105
	C5519	C	0.254253	0.497194	0.781499
	C5520	C	0.003771	0.598506	0.725505
	C5521	C	0.253960	0.533265	0.787400
	C5522	C	0.004062	0.507064	0.823398
	C5523	C	0.254265	0.568425	0.750625
	C5524	C	0.003957	0.533706	0.819708
	C5525	C	0.253739	0.595903	0.751569
	C5526	C	0.004018	0.569567	0.719135
	C5527	C	0.254412	0.506154	0.790066
	H5528	H	0.164037	0.610389	0.725071
	H5529	H	0.413320	0.543189	0.776426
	H5530	H	0.162898	0.497669	0.835552
	H5531	H	0.413480	0.558199	0.760916
	H5532	H	0.344926	0.543785	0.828992
	H5533	H	0.094196	0.606364	0.760186
	H5534	H	0.344311	0.559361	0.710109
	H5535	H	0.095153	0.496476	0.779912
	H5536	H	0.345183	0.498117	0.836284
	H5537	H	0.095009	0.558289	0.760960
	H5538	H	0.344252	0.610465	0.725699
	H5539	H	0.094810	0.543219	0.776529
	H5540	H	0.163358	0.559086	0.710650
	H5541	H	0.413282	0.495850	0.781266
	H5542	H	0.162981	0.543593	0.829348
	H5543	H	0.413595	0.606151	0.760677
	O5544	O	0.588210	0.594314	0.725671
	O5545	O	0.838152	0.529774	0.791197
	O5546	O	0.588858	0.510278	0.818977
	O5547	O	0.838230	0.571996	0.747040
	O5548	O	0.919558	0.530201	0.816411
	O5549	O	0.669010	0.592331	0.748368
	O5550	O	0.919643	0.573223	0.722218
	O5551	O	0.669824	0.509746	0.793227
	O5552	O	0.919830	0.510360	0.819100
	O5553	O	0.669638	0.572054	0.747082
	O5554	O	0.919094	0.594334	0.725710
	O5555	O	0.669369	0.529801	0.791286
	O5556	O	0.588526	0.573144	0.722297
	O5557	O	0.838585	0.509656	0.793413
	O5558	O	0.588315	0.530140	0.816529
	O5559	O	0.837857	0.592314	0.748426
	F5560	F	0.504017	0.519723	0.795780
	F5561	F	0.754089	0.583407	0.726021
	F5562	F	0.503909	0.582076	0.744661
	F5563	F	0.754190	0.520120	0.814079
	Al5564	Al	0.629102	0.519918	0.804926
	Al5565	Al	0.879326	0.582749	0.735294
	Al5566	Al	0.628952	0.582751	0.735257
	Al5567	Al	0.879272	0.519921	0.804900
	C5568	C	0.594531	0.614236	0.725539
	C5569	C	0.843210	0.546460	0.773034
	C5570	C	0.593785	0.494753	0.839702
	C5571	C	0.843334	0.554898	0.764272
	C5572	C	0.914423	0.547024	0.832109
	C5573	C	0.663575	0.609650	0.763037
	C5574	C	0.913712	0.555980	0.707330
	C5575	C	0.664234	0.493056	0.777197
	C5576	C	0.914198	0.495014	0.840143
	C5577	C	0.664031	0.554977	0.764379
	C5578	C	0.914019	0.614290	0.725877
	C5579	C	0.663898	0.546532	0.773150
	C5580	C	0.593810	0.555820	0.707672
	C5581	C	0.843535	0.492729	0.777904
	C5582	C	0.593672	0.546920	0.832300
	C5583	C	0.843240	0.609591	0.763163
	C5584	C	0.504231	0.609192	0.725171
	C5585	C	0.753628	0.542190	0.777583
	C5586	C	0.504206	0.498802	0.834575
	C5587	C	0.753723	0.559264	0.759888
	C5588	C	0.503998	0.542677	0.828229
	C5589	C	0.753390	0.605108	0.759567
	C5590	C	0.503965	0.560361	0.711113
	C5591	C	0.754034	0.497175	0.781552
	C5592	C	0.503796	0.598517	0.725518
	C5593	C	0.753721	0.533284	0.787423
	C5594	C	0.504477	0.507059	0.823376
	C5595	C	0.753857	0.568405	0.750616
	C5596	C	0.503929	0.533708	0.819723
	C5597	C	0.753399	0.595914	0.751555
	C5598	C	0.503976	0.569564	0.719151
	C5599	C	0.754204	0.506162	0.790046
	H5600	H	0.664478	0.610402	0.725059
	H5601	H	0.912653	0.543169	0.776426
	H5602	H	0.663357	0.497639	0.835513
	H5603	H	0.912846	0.558155	0.760844
	H5604	H	0.845063	0.543796	0.828971
	H5605	H	0.593693	0.606316	0.760279
	H5606	H	0.844129	0.559453	0.709836
	H5607	H	0.594947	0.496466	0.779926
	H5608	H	0.844769	0.498116	0.836286
	H5609	H	0.594762	0.558311	0.761024
	H5610	H	0.843904	0.610485	0.725644
	H5611	H	0.594623	0.543273	0.776659
	H5612	H	0.663716	0.559151	0.710469
	H5613	H	0.913035	0.495873	0.781218
	H5614	H	0.662998	0.543602	0.829347
	H5615	H	0.913184	0.606205	0.760524
	O5616	O	0.088338	0.592235	0.853742
	O5617	O	0.338614	0.534302	0.933842
	O5618	O	0.089091	0.515517	0.962800
	O5619	O	0.338620	0.572765	0.881538
	O5620	O	0.420022	0.535337	0.959606
	O5621	O	0.169647	0.592636	0.878985
	O5622	O	0.419850	0.572164	0.855813
	O5623	O	0.170410	0.514608	0.937024
	O5624	O	0.420506	0.515605	0.962900
	O5625	O	0.169951	0.572852	0.881623
	O5626	O	0.419630	0.592261	0.853798
	O5627	O	0.169925	0.534393	0.933997
	O5628	O	0.088690	0.572142	0.855903
	O5629	O	0.339155	0.514506	0.937226
	O5630	O	0.088723	0.535294	0.959687
	O5631	O	0.338532	0.592587	0.879045
	F5632	F	0.004647	0.524571	0.939234
	F5633	F	0.254091	0.582155	0.858283
	F5634	F	0.004255	0.582597	0.876629
	F5635	F	0.254564	0.525304	0.957463
	Al5636	Al	0.129534	0.524945	0.948371
	Al5637	Al	0.379180	0.582387	0.867432
	Al5638	Al	0.129203	0.582394	0.867446
	Al5639	Al	0.379598	0.524936	0.948365
	C5640	C	0.093384	0.608971	0.835584
	C5641	C	0.343993	0.549550	0.912617
	C5642	C	0.094324	0.500419	0.984317
	C5643	C	0.343969	0.557238	0.902214
	C5644	C	0.414742	0.552003	0.975633
	C5645	C	0.164513	0.609412	0.894807
	C5646	C	0.414424	0.555433	0.839930
	C5647	C	0.164936	0.497966	0.920871
	C5648	C	0.415185	0.500563	0.984497
	C5649	C	0.164720	0.557487	0.902642
	C5650	C	0.414359	0.609004	0.835663
	C5651	C	0.164797	0.549808	0.913047
	C5652	C	0.093846	0.555324	0.840131
	C5653	C	0.344141	0.497708	0.921419
	C5654	C	0.093951	0.551941	0.975755
	C5655	C	0.343871	0.609460	0.894667
	C5656	C	0.003827	0.604689	0.840151
	C5657	C	0.254342	0.545761	0.918176
	C5658	C	0.004740	0.504326	0.978920
	C5659	C	0.254330	0.561290	0.897105
	C5660	C	0.004169	0.547745	0.971598
	C5661	C	0.254207	0.605146	0.890795
	C5662	C	0.004229	0.559687	0.843970
	C5663	C	0.254590	0.502118	0.925150
	C5664	C	0.003835	0.595753	0.849966
	C5665	C	0.254251	0.537572	0.929503
	C5666	C	0.004778	0.512385	0.967345
	C5667	C	0.254248	0.569550	0.885921
	C5668	C	0.004273	0.538807	0.962985
	C5669	C	0.254124	0.596149	0.882279
	C5670	C	0.004215	0.568656	0.852527
	C5671	C	0.254743	0.511048	0.933792
	H5672	H	0.162801	0.605675	0.838978
	H5673	H	0.413430	0.546447	0.916485
	H5674	H	0.163800	0.503293	0.980087
	H5675	H	0.413257	0.560138	0.898000
	H5676	H	0.345530	0.548735	0.972526
	H5677	H	0.095163	0.606110	0.891826
	H5678	H	0.345267	0.558754	0.842913
	H5679	H	0.095682	0.501293	0.923794
	H5680	H	0.345805	0.503545	0.980421
	H5681	H	0.095267	0.560582	0.898791
	H5682	H	0.344974	0.605735	0.839116
	H5683	H	0.095343	0.546925	0.917277
	H5684	H	0.163174	0.558544	0.843273
	H5685	H	0.413660	0.500814	0.924794
	H5686	H	0.163379	0.548658	0.972717
	H5687	H	0.413262	0.606193	0.891554
	O5688	O	0.588533	0.592229	0.853724
	O5689	O	0.838487	0.534297	0.933830
	O5690	O	0.589264	0.515552	0.962877
	O5691	O	0.838608	0.572748	0.881563
	O5692	O	0.919941	0.535321	0.959607
	O5693	O	0.669397	0.592613	0.879027
	O5694	O	0.919932	0.572197	0.855808
	O5695	O	0.670048	0.514613	0.937024
	O5696	O	0.920456	0.515605	0.962931
	O5697	O	0.669896	0.572807	0.881612
	O5698	O	0.919518	0.592262	0.853819
	O5699	O	0.669726	0.534384	0.933970
	O5700	O	0.588689	0.572140	0.855850
	O5701	O	0.838814	0.514511	0.937189
	O5702	O	0.588901	0.535275	0.959723
	O5703	O	0.838286	0.592619	0.879046
	F5704	F	0.504511	0.524574	0.939257
	F5705	F	0.754272	0.582156	0.858326
	F5706	F	0.504106	0.582577	0.876599
	F5707	F	0.754657	0.525304	0.957452
	Al5708	Al	0.629583	0.524936	0.948378
	Al5709	Al	0.879385	0.582377	0.867485
	Al5710	Al	0.629164	0.582375	0.867442
	Al5711	Al	0.879731	0.524935	0.948328
	C5712	C	0.593702	0.608964	0.835559
	C5713	C	0.843875	0.549539	0.912629
	C5714	C	0.594428	0.500410	0.984277
	C5715	C	0.843849	0.557218	0.902223
	C5716	C	0.914439	0.552009	0.975657
	C5717	C	0.664101	0.609434	0.894765
	C5718	C	0.914562	0.555437	0.839922
	C5719	C	0.664490	0.497958	0.920883
	C5720	C	0.915102	0.500544	0.984498
	C5721	C	0.664533	0.557477	0.902663
	C5722	C	0.914196	0.609036	0.835683
	C5723	C	0.664515	0.549805	0.913079
	C5724	C	0.593829	0.555328	0.840121
	C5725	C	0.843834	0.497707	0.921437
	C5726	C	0.594259	0.551948	0.975744
	C5727	C	0.843518	0.609485	0.894599
	C5728	C	0.504065	0.604698	0.840174
	C5729	C	0.754115	0.545746	0.918165
	C5730	C	0.504816	0.504316	0.978889
	C5731	C	0.754178	0.561282	0.897151
	C5732	C	0.504527	0.547725	0.971654
	C5733	C	0.753781	0.605157	0.890782
	C5734	C	0.504199	0.559668	0.843983
	C5735	C	0.754191	0.502121	0.925150
	C5736	C	0.504069	0.595762	0.849981
	C5737	C	0.754075	0.537574	0.929512
	C5738	C	0.504840	0.512367	0.967320
	C5739	C	0.754208	0.569523	0.885930
	C5740	C	0.504497	0.538802	0.963015
	C5741	C	0.753801	0.596149	0.882312
	C5742	C	0.504269	0.568638	0.852516
	C5743	C	0.754373	0.511047	0.933789
	H5744	H	0.663127	0.605651	0.838912
	H5745	H	0.913197	0.546434	0.916538
	H5746	H	0.663947	0.503264	0.980030
	H5747	H	0.913223	0.560106	0.897967
	H5748	H	0.845034	0.548769	0.972544
	H5749	H	0.594882	0.606128	0.891768
	H5750	H	0.845372	0.558763	0.842889
	H5751	H	0.595034	0.501281	0.923789
	H5752	H	0.845728	0.503525	0.980419
	H5753	H	0.595144	0.560561	0.898810
	H5754	H	0.844856	0.605784	0.839187
	H5755	H	0.595027	0.546941	0.917332
	H5756	H	0.663142	0.558570	0.843266
	H5757	H	0.913313	0.500820	0.924811
	H5758	H	0.663499	0.548636	0.972735
	H5759	H	0.912857	0.606225	0.891473
	O5760	O	0.087898	0.717185	-0.021266
	O5761	O	0.338564	0.659273	0.058885
	O5762	O	0.088889	0.640515	0.087900
	O5763	O	0.338237	0.697784	0.006669
	O5764	O	0.419653	0.660286	0.084734
	O5765	O	0.169164	0.717660	0.003931
	O5766	O	0.419456	0.697123	-0.019096
	O5767	O	0.169906	0.639554	0.062084
	O5768	O	0.420035	0.640628	0.088022
	O5769	O	0.169547	0.697769	0.006644
	O5770	O	0.419480	0.717250	-0.021146
	O5771	O	0.169775	0.659301	0.058949
	O5772	O	0.088527	0.697146	-0.019184
	O5773	O	0.338725	0.639549	0.062127
	O5774	O	0.088439	0.660189	0.084900
	O5775	O	0.338191	0.717594	0.004082
	F5776	F	0.004392	0.649554	0.064293
	F5777	F	0.253966	0.707146	-0.016659
	F5778	F	0.004051	0.707549	0.001667
	F5779	F	0.254192	0.650279	0.082517
	Al5780	Al	0.129216	0.649906	0.073427
	Al5781	Al	0.378963	0.707363	-0.007499
	Al5782	Al	0.128818	0.707354	-0.007540
	Al5783	Al	0.379237	0.649908	0.073415
	C5784	C	0.092721	0.733871	-0.039549
	C5785	C	0.343707	0.674663	0.037938
	C5786	C	0.093763	0.625263	0.109133
	C5787	C	0.343759	0.682357	0.027561
	C5788	C	0.414619	0.677101	0.100416
	C5789	C	0.164014	0.734526	0.019567
	C5790	C	0.414236	0.680341	-0.034868
	C5791	C	0.164673	0.622808	0.046207
	C5792	C	0.414635	0.625685	0.109773
	C5793	C	0.164353	0.682330	0.027537
	C5794	C	0.414237	0.734095	-0.039021
	C5795	C	0.164294	0.674636	0.037927
	C5796	C	0.093761	0.680386	-0.035101
	C5797	C	0.344107	0.622872	0.046033
	C5798	C	0.093688	0.676858	0.100940
	C5799	C	0.343510	0.734349	0.019928
	C5800	C	0.003249	0.729660	-0.034790
	C5801	C	0.254052	0.670707	0.043232
	C5802	C	0.004289	0.629321	0.103985
	C5803	C	0.254032	0.686278	0.022229
	C5804	C	0.003957	0.672689	0.096687
	C5805	C	0.253724	0.730165	0.015771
	C5806	C	0.004110	0.684671	-0.031066
	C5807	C	0.254368	0.627115	0.050132
	C5808	C	0.003451	0.720730	-0.024996
	C5809	C	0.254151	0.662509	0.054514
	C5810	C	0.004449	0.637382	0.092446
	C5811	C	0.253925	0.694534	0.011034
	C5812	C	0.004021	0.663760	0.088089
	C5813	C	0.253681	0.721159	0.007277
	C5814	C	0.004107	0.693639	-0.022501
	C5815	C	0.254375	0.636044	0.058768
	H5816	H	0.162166	0.730496	-0.036362
	H5817	H	0.413342	0.671682	0.041992
	H5818	H	0.163226	0.628008	0.104692
	H5819	H	0.413291	0.685363	0.023548
	H5820	H	0.345136	0.673939	0.097106
	H5821	H	0.094570	0.731309	0.016379
	H5822	H	0.344920	0.683605	-0.031767
	H5823	H	0.095203	0.626026	0.049380
	H5824	H	0.345371	0.628795	0.105905
	H5825	H	0.094900	0.685330	0.023511
	H5826	H	0.344820	0.730917	-0.035365
	H5827	H	0.094887	0.671639	0.041964
	H5828	H	0.163224	0.683681	-0.032146
	H5829	H	0.413622	0.626146	0.049034
	H5830	H	0.163072	0.673510	0.098077
	H5831	H	0.412791	0.730993	0.017051
	O5832	O	0.588228	0.717172	-0.021298
	O5833	O	0.838106	0.659278	0.058863
	O5834	O	0.588759	0.640517	0.087875
	O5835	O	0.838191	0.697771	0.006656
	O5836	O	0.919672	0.660331	0.084571
	O5837	O	0.669163	0.717638	0.003990
	O5838	O	0.919722	0.697171	-0.019205
	O5839	O	0.669739	0.639552	0.062105
	O5840	O	0.920195	0.640623	0.088041
	O5841	O	0.669441	0.697781	0.006607
	O5842	O	0.919123	0.717241	-0.021147
	O5843	O	0.669398	0.659272	0.058899
	O5844	O	0.588258	0.697172	-0.019232
	O5845	O	0.838620	0.639519	0.062154
	O5846	O	0.588399	0.660221	0.084795
	O5847	O	0.837913	0.717571	0.004151
	F5848	F	0.504101	0.649537	0.064315
	F5849	F	0.754053	0.707165	-0.016627
	F5850	F	0.503917	0.707549	0.001641
	F5851	F	0.754383	0.650291	0.082466
	Al5852	Al	0.629190	0.649898	0.073381
	Al5853	Al	0.879116	0.707367	-0.007450
	Al5854	Al	0.628920	0.707370	-0.007549
	Al5855	Al	0.879446	0.649922	0.073340
	C5856	C	0.593377	0.733865	-0.039552
	C5857	C	0.843249	0.674676	0.037954
	C5858	C	0.593752	0.625304	0.109141
	C5859	C	0.843317	0.682363	0.027569
	C5860	C	0.914252	0.677081	0.100432
	C5861	C	0.664008	0.734552	0.019514
	C5862	C	0.914369	0.680302	-0.034832
	C5863	C	0.664262	0.622839	0.046173
	C5864	C	0.914571	0.625706	0.109827
	C5865	C	0.663989	0.682360	0.027520
	C5866	C	0.913683	0.734102	-0.039002
	C5867	C	0.663908	0.674672	0.037922
	C5868	C	0.593681	0.680408	-0.035120
	C5869	C	0.843825	0.622892	0.046019
	C5870	C	0.594250	0.676859	0.100922
	C5871	C	0.843391	0.734379	0.019895
	C5872	C	0.503856	0.729650	-0.034794
	C5873	C	0.753581	0.670723	0.043223
	C5874	C	0.504178	0.629325	0.103961
	C5875	C	0.753660	0.686306	0.022250
	C5876	C	0.504291	0.672691	0.096678
	C5877	C	0.753627	0.730162	0.015760
	C5878	C	0.503980	0.684658	-0.030968
	C5879	C	0.754078	0.627112	0.050141
	C5880	C	0.503866	0.720721	-0.025022
	C5881	C	0.753682	0.662514	0.054507
	C5882	C	0.504336	0.637384	0.092414
	C5883	C	0.753766	0.694536	0.011011
	C5884	C	0.504087	0.663769	0.088069
	C5885	C	0.753510	0.721154	0.007314
	C5886	C	0.503859	0.693629	-0.022474
	C5887	C	0.754164	0.636036	0.058784
	H5888	H	0.662831	0.730498	-0.036359
	H5889	H	0.912714	0.671703	0.042032
	H5890	H	0.663112	0.628104	0.104738
	H5891	H	0.912767	0.685350	0.023550
	H5892	H	0.844762	0.673916	0.097138
	H5893	H	0.594559	0.731347	0.016330
	H5894	H	0.844976	0.683539	-0.031666
	H5895	H	0.594973	0.626069	0.049392
	H5896	H	0.845300	0.628828	0.105977
	H5897	H	0.594596	0.685356	0.023449
	H5898	H	0.844287	0.730927	-0.035361
	H5899	H	0.594413	0.671682	0.041987
	H5900	H	0.663180	0.683730	-0.032214
	H5901	H	0.912993	0.626169	0.049095
	H5902	H	0.663692	0.673502	0.098045
	H5903	H	0.912710	0.731024	0.017018
	O5904	O	0.088237	0.721762	0.121438
	O5905	O	0.338585	0.665193	0.203958
	O5906	O	0.089492	0.646598	0.233179
	O5907	O	0.339347	0.702913	0.150245
	O5908	O	0.419918	0.666483	0.229821
	O5909	O	0.169744	0.722822	0.147094
	O5910	O	0.420322	0.702118	0.124429
	O5911	O	0.171014	0.645749	0.207273
	O5912	O	0.420825	0.646824	0.233518
	O5913	O	0.170637	0.703161	0.150644
	O5914	O	0.419640	0.721916	0.121597
	O5915	O	0.169912	0.665441	0.204277
	O5916	O	0.088925	0.701976	0.124713
	O5917	O	0.339786	0.645537	0.207742
	O5918	O	0.088700	0.666306	0.230155
	O5919	O	0.338594	0.722726	0.147220
	F5920	F	0.004723	0.655614	0.209630
	F5921	F	0.254260	0.712033	0.126796
	F5922	F	0.004400	0.712746	0.145030
	F5923	F	0.254735	0.656419	0.227836
	Al5924	Al	0.129748	0.656017	0.218713
	Al5925	Al	0.379344	0.712404	0.135873
	Al5926	Al	0.129349	0.712399	0.135944
	Al5927	Al	0.379762	0.656032	0.218748
	C5928	C	0.093589	0.736928	0.100070
	C5929	C	0.344274	0.680113	0.182148
	C5930	C	0.094379	0.631385	0.254453
	C5931	C	0.344384	0.687649	0.171466
	C5932	C	0.415103	0.683242	0.245690
	C5933	C	0.164805	0.739543	0.163042
	C5934	C	0.414803	0.685482	0.108313
	C5935	C	0.165502	0.629149	0.191045
	C5936	C	0.415257	0.631887	0.255292
	C5937	C	0.165049	0.688300	0.172532
	C5938	C	0.414538	0.737389	0.100818
	C5939	C	0.164953	0.680770	0.183201
	C5940	C	0.093830	0.685234	0.108832
	C5941	C	0.344876	0.628752	0.191960
	C5942	C	0.094583	0.682915	0.246398
	C5943	C	0.344364	0.739411	0.163270
	C5944	C	0.003827	0.733202	0.105738
	C5945	C	0.254508	0.676584	0.188125
	C5946	C	0.004824	0.635486	0.249399
	C5947	C	0.254887	0.691822	0.166533
	C5948	C	0.004758	0.678821	0.241977
	C5949	C	0.254493	0.735212	0.159136
	C5950	C	0.004165	0.689603	0.112614
	C5951	C	0.255269	0.633198	0.195564
	C5952	C	0.003797	0.725010	0.117043
	C5953	C	0.254363	0.668514	0.199656
	C5954	C	0.005035	0.643506	0.237779
	C5955	C	0.254996	0.699854	0.154937
	C5956	C	0.004392	0.669907	0.233316
	C5957	C	0.254265	0.726285	0.150483
	C5958	C	0.004431	0.698534	0.121227
	C5959	C	0.255386	0.642139	0.204171
	H5960	H	0.163094	0.733770	0.103840
	H5961	H	0.413600	0.676908	0.185850
	H5962	H	0.163870	0.634087	0.249924
	H5963	H	0.413903	0.690291	0.166858
	H5964	H	0.345674	0.680122	0.242309
	H5965	H	0.095357	0.736344	0.159809
	H5966	H	0.345537	0.688851	0.111197
	H5967	H	0.096199	0.632573	0.193725
	H5968	H	0.345935	0.635044	0.251484
	H5969	H	0.095671	0.691510	0.168803
	H5970	H	0.345172	0.734598	0.105222
	H5971	H	0.095450	0.678104	0.187813
	H5972	H	0.163289	0.688402	0.112112
	H5973	H	0.414279	0.631844	0.195404
	H5974	H	0.163865	0.679518	0.243603
	H5975	H	0.413632	0.736108	0.160225
	O5976	O	0.588523	0.721704	0.121282
	O5977	O	0.838661	0.665250	0.203975
	O5978	O	0.589516	0.646533	0.233082
	O5979	O	0.838972	0.702949	0.150333
	O5980	O	0.919852	0.666465	0.229904
	O5981	O	0.669709	0.722808	0.147112
	O5982	O	0.920115	0.702126	0.124355
	O5983	O	0.670504	0.645736	0.207281
	O5984	O	0.920753	0.646789	0.233466
	O5985	O	0.670287	0.703187	0.150669
	O5986	O	0.919417	0.721827	0.121497
	O5987	O	0.669952	0.665436	0.204251
	O5988	O	0.589145	0.701993	0.124716
	O5989	O	0.839304	0.645538	0.207658
	O5990	O	0.588744	0.666322	0.230124
	O5991	O	0.838626	0.722732	0.147245
	F5992	F	0.504691	0.655641	0.209619
	F5993	F	0.754300	0.711998	0.126824
	F5994	F	0.504262	0.712777	0.145002
	F5995	F	0.754636	0.656404	0.227782
	Al5996	Al	0.629665	0.656018	0.218709
	Al5997	Al	0.879467	0.712391	0.135918
	Al5998	Al	0.629329	0.712405	0.135914
	Al5999	Al	0.879844	0.656017	0.218701
	C6000	C	0.593718	0.736952	0.100022
	C6001	C	0.844215	0.680132	0.182123
	C6002	C	0.594612	0.631366	0.254436
	C6003	C	0.844290	0.687670	0.171455
	C6004	C	0.915134	0.683228	0.245705
	C6005	C	0.664480	0.739544	0.163051
	C6006	C	0.914365	0.685462	0.108321
	C6007	C	0.664807	0.629123	0.191058
	C6008	C	0.915042	0.631909	0.255306
	C6009	C	0.664943	0.688290	0.172501
	C6010	C	0.914196	0.737384	0.100802
	C6011	C	0.664851	0.680755	0.183163
	C6012	C	0.594396	0.685240	0.108829
	C6013	C	0.844388	0.628718	0.191973
	C6014	C	0.594530	0.682908	0.246418
	C6015	C	0.844116	0.739400	0.163309
	C6016	C	0.504125	0.733239	0.105713
	C6017	C	0.754430	0.676580	0.188064
	C6018	C	0.504949	0.635451	0.249359
	C6019	C	0.754682	0.691816	0.166509
	C6020	C	0.504691	0.678829	0.241972
	C6021	C	0.754209	0.735229	0.159134
	C6022	C	0.504689	0.689617	0.112600
	C6023	C	0.754699	0.633178	0.195551
	C6024	C	0.504130	0.725034	0.117044
	C6025	C	0.754319	0.668520	0.199609
	C6026	C	0.505095	0.643512	0.237813
	C6027	C	0.754574	0.699884	0.154983
	C6028	C	0.504408	0.669899	0.233324
	C6029	C	0.754200	0.726283	0.150503
	C6030	C	0.504736	0.698539	0.121253
	C6031	C	0.754818	0.642132	0.204130
	H6032	H	0.663093	0.733784	0.103783
	H6033	H	0.913552	0.676943	0.185858
	H6034	H	0.664039	0.634092	0.249933
	H6035	H	0.913794	0.690354	0.166890
	H6036	H	0.845647	0.680098	0.242344
	H6037	H	0.595077	0.736325	0.159859
	H6038	H	0.845032	0.688817	0.111176
	H6039	H	0.595464	0.632558	0.193744
	H6040	H	0.845701	0.635053	0.251480
	H6041	H	0.595658	0.691505	0.168802
	H6042	H	0.844644	0.734598	0.105181
	H6043	H	0.595433	0.678086	0.187778
	H6044	H	0.663883	0.688399	0.112127
	H6045	H	0.913843	0.631819	0.195422
	H6046	H	0.663852	0.679513	0.243641
	H6047	H	0.913404	0.736069	0.160328
	O6048	O	0.088924	0.727820	0.266644
	O6049	O	0.339327	0.671463	0.349545
	O6050	O	0.089849	0.652641	0.378434
	O6051	O	0.339664	0.709139	0.295740
	O6052	O	0.420689	0.672509	0.375320
	O6053	O	0.170530	0.728940	0.292393
	O6054	O	0.420714	0.708170	0.269913
	O6055	O	0.171044	0.651802	0.352696
	O6056	O	0.421236	0.652741	0.378626
	O6057	O	0.171002	0.709230	0.295878
	O6058	O	0.420520	0.727855	0.266697
	O6059	O	0.170599	0.671537	0.349618
	O6060	O	0.089530	0.708045	0.270203
	O6061	O	0.339897	0.651650	0.353047
	O6062	O	0.089386	0.672449	0.375454
	O6063	O	0.339230	0.728895	0.292501
	F6064	F	0.005168	0.661752	0.354982
	F6065	F	0.254889	0.718116	0.272133
	F6066	F	0.004845	0.718921	0.290371
	F6067	F	0.255125	0.662482	0.373218
	Al6068	Al	0.130257	0.662123	0.364086
	Al6069	Al	0.379973	0.718518	0.281210
	Al6070	Al	0.129934	0.718510	0.281279
	Al6071	Al	0.380195	0.662096	0.364121
	C6072	C	0.093997	0.742867	0.245045
	C6073	C	0.344958	0.686462	0.327866
	C6074	C	0.094953	0.637231	0.399365
	C6075	C	0.344985	0.693976	0.317164
	C6076	C	0.415444	0.689196	0.391286
	C6077	C	0.165088	0.745657	0.308366
	C6078	C	0.415239	0.691588	0.253660
	C6079	C	0.165543	0.635249	0.336387
	C6080	C	0.416025	0.637508	0.399875
	C6081	C	0.165613	0.694214	0.317509
	C6082	C	0.415246	0.743003	0.245248
	C6083	C	0.165529	0.686696	0.328227
	C6084	C	0.094874	0.691267	0.254369
	C6085	C	0.344973	0.634799	0.337406
	C6086	C	0.094639	0.689170	0.391374
	C6087	C	0.344442	0.745530	0.308676
	C6088	C	0.004320	0.739074	0.250629
	C6089	C	0.255205	0.682752	0.333552
	C6090	C	0.005403	0.641302	0.394297
	C6091	C	0.255314	0.697954	0.311884
	C6092	C	0.004835	0.684914	0.387327
	C6093	C	0.254750	0.741339	0.304440
	C6094	C	0.005200	0.695675	0.258066
	C6095	C	0.255372	0.639301	0.340880
	C6096	C	0.004500	0.731028	0.262196
	C6097	C	0.255008	0.674685	0.345095
	C6098	C	0.005462	0.649488	0.382955
	C6099	C	0.255335	0.706010	0.300315
	C6100	C	0.004923	0.675977	0.378722
	C6101	C	0.254853	0.732420	0.295800
	C6102	C	0.005167	0.704594	0.266737
	C6103	C	0.255455	0.648212	0.349555
	H6104	H	0.163516	0.739890	0.249117
	H6105	H	0.414465	0.683445	0.331828
	H6106	H	0.164280	0.640088	0.395086
	H6107	H	0.414543	0.696777	0.312856
	H6108	H	0.345889	0.685981	0.388119
	H6109	H	0.095733	0.742452	0.305137
	H6110	H	0.345910	0.694975	0.256448
	H6111	H	0.096268	0.638677	0.339104
	H6112	H	0.346533	0.640601	0.396037
	H6113	H	0.096224	0.697243	0.313455
	H6114	H	0.345784	0.740124	0.249489
	H6115	H	0.096091	0.683836	0.332538
	H6116	H	0.164321	0.694378	0.257802
	H6117	H	0.414355	0.637846	0.340986
	H6118	H	0.164074	0.685911	0.388273
	H6119	H	0.413822	0.742218	0.305701
	O6120	O	0.589253	0.727831	0.266663
	O6121	O	0.839329	0.671443	0.349546
	O6122	O	0.589992	0.652648	0.378515
	O6123	O	0.839110	0.709133	0.295795
	O6124	O	0.920589	0.672483	0.375372
	O6125	O	0.670213	0.728911	0.292434
	O6126	O	0.920782	0.708165	0.269915
	O6127	O	0.671030	0.651790	0.352705
	O6128	O	0.921175	0.652772	0.378664
	O6129	O	0.670419	0.709204	0.295879
	O6130	O	0.920154	0.727866	0.266713
	O6131	O	0.670708	0.671521	0.349667
	O6132	O	0.589546	0.708067	0.270090
	O6133	O	0.839843	0.651645	0.352999
	O6134	O	0.589494	0.672458	0.375383
	O6135	O	0.838903	0.728904	0.292473
	F6136	F	0.505114	0.661738	0.354998
	F6137	F	0.754948	0.718099	0.272179
	F6138	F	0.504900	0.718898	0.290334
	F6139	F	0.755280	0.662471	0.373201
	Al6140	Al	0.630180	0.662113	0.364092
	Al6141	Al	0.879970	0.718502	0.281271
	Al6142	Al	0.629899	0.718498	0.281254
	Al6143	Al	0.880373	0.662104	0.364090
	C6144	C	0.594621	0.742871	0.245037
	C6145	C	0.844504	0.686476	0.327898
	C6146	C	0.595279	0.637204	0.399385
	C6147	C	0.844339	0.693990	0.317198
	C6148	C	0.915056	0.689191	0.391352
	C6149	C	0.664869	0.745642	0.308392
	C6150	C	0.915394	0.691576	0.253673
	C6151	C	0.665426	0.635252	0.336370
	C6152	C	0.915788	0.637496	0.399846
	C6153	C	0.665118	0.694187	0.317544
	C6154	C	0.914581	0.743000	0.245267
	C6155	C	0.665293	0.686665	0.328264
	C6156	C	0.594660	0.691256	0.254384
	C6157	C	0.844871	0.634791	0.337399
	C6158	C	0.595117	0.689143	0.391397
	C6159	C	0.844528	0.745530	0.308580
	C6160	C	0.504951	0.739085	0.250623
	C6161	C	0.754923	0.682733	0.333571
	C6162	C	0.505658	0.641274	0.394276
	C6163	C	0.754730	0.697937	0.311904
	C6164	C	0.505271	0.684884	0.387351
	C6165	C	0.754612	0.741321	0.304440
	C6166	C	0.504963	0.695667	0.258099
	C6167	C	0.755291	0.639276	0.340912
	C6168	C	0.504864	0.731021	0.262189
	C6169	C	0.755010	0.674668	0.345121
	C6170	C	0.505580	0.649450	0.382937
	C6171	C	0.754726	0.705998	0.300345
	C6172	C	0.505166	0.675976	0.378707
	C6173	C	0.754521	0.732422	0.295781
	C6174	C	0.505060	0.704609	0.266676
	C6175	C	0.755420	0.648210	0.349528
	H6176	H	0.664175	0.739887	0.249100
	H6177	H	0.913990	0.683472	0.331892
	H6178	H	0.664785	0.640054	0.395131
	H6179	H	0.913842	0.696825	0.312909
	H6180	H	0.845550	0.685950	0.388240
	H6181	H	0.595380	0.742441	0.305183
	H6182	H	0.846102	0.694936	0.256534
	H6183	H	0.596148	0.638699	0.339039
	H6184	H	0.846478	0.640582	0.395954
	H6185	H	0.595833	0.697207	0.313507
	H6186	H	0.845101	0.740122	0.249517
	H6187	H	0.596141	0.683800	0.332583
	H6188	H	0.664117	0.694374	0.257775
	H6189	H	0.914307	0.637844	0.340930
	H6190	H	0.664647	0.685888	0.388316
	H6191	H	0.913954	0.742239	0.305537
	O6192	O	0.089680	0.734026	0.412102
	O6193	O	0.339680	0.676821	0.493442
	O6194	O	0.090007	0.657290	0.521163
	O6195	O	0.339766	0.715226	0.441052
	O6196	O	0.421268	0.677407	0.519072
	O6197	O	0.171114	0.734965	0.437873
	O6198	O	0.420886	0.714247	0.415224
	O6199	O	0.171690	0.656887	0.495967
	O6200	O	0.421370	0.657288	0.521145
	O6201	O	0.171024	0.715192	0.440975
	O6202	O	0.420618	0.733975	0.412015
	O6203	O	0.171010	0.676772	0.493398
	O6204	O	0.089587	0.714221	0.415305
	O6205	O	0.340503	0.656902	0.495954
	O6206	O	0.090091	0.677384	0.519085
	O6207	O	0.339795	0.734986	0.437827
	F6208	F	0.005720	0.666950	0.498276
	F6209	F	0.255143	0.724238	0.417436
	F6210	F	0.005449	0.724981	0.435693
	F6211	F	0.255742	0.667361	0.516657
	Al6212	Al	0.130784	0.667150	0.507493
	Al6213	Al	0.380351	0.724603	0.426546
	Al6214	Al	0.130335	0.724614	0.426560
	Al6215	Al	0.380715	0.667174	0.507473
	C6216	C	0.094905	0.749129	0.390583
	C6217	C	0.344951	0.692205	0.472524
	C6218	C	0.095328	0.640604	0.539384
	C6219	C	0.344985	0.699858	0.462071
	C6220	C	0.415714	0.694172	0.534928
	C6221	C	0.165402	0.751600	0.454038
	C6222	C	0.415485	0.697552	0.399259
	C6223	C	0.166318	0.640115	0.480182
	C6224	C	0.416361	0.640590	0.539329
	C6225	C	0.165753	0.699867	0.462030
	C6226	C	0.415289	0.749056	0.390470
	C6227	C	0.165741	0.692211	0.472484
	C6228	C	0.094660	0.697528	0.399316
	C6229	C	0.345388	0.640017	0.480349
	C6230	C	0.095277	0.694116	0.535066
	C6231	C	0.344868	0.751760	0.453700
	C6232	C	0.005260	0.745232	0.396003
	C6233	C	0.255254	0.688285	0.477821
	C6234	C	0.005595	0.644889	0.534846
	C6235	C	0.255395	0.703795	0.456742
	C6236	C	0.005524	0.689858	0.530988
	C6237	C	0.255253	0.747415	0.449817
	C6238	C	0.004883	0.701783	0.403383
	C6239	C	0.255937	0.644350	0.484252
	C6240	C	0.005247	0.737187	0.407579
	C6241	C	0.255266	0.680054	0.489071
	C6242	C	0.005555	0.653809	0.525009
	C6243	C	0.255387	0.711980	0.445407
	C6244	C	0.005670	0.680886	0.522417
	C6245	C	0.255454	0.738496	0.441166
	C6246	C	0.005073	0.710711	0.412009
	C6247	C	0.256123	0.653351	0.492708
	H6248	H	0.164399	0.746238	0.394810
	H6249	H	0.414374	0.689218	0.476608
	H6250	H	0.164754	0.643896	0.535976
	H6251	H	0.414306	0.702834	0.457991
	H6252	H	0.346343	0.690916	0.531805
	H6253	H	0.096059	0.748279	0.451084
	H6254	H	0.346119	0.700843	0.402307
	H6255	H	0.097204	0.643441	0.483112
	H6256	H	0.347027	0.643866	0.535862
	H6257	H	0.096418	0.702832	0.457921
	H6258	H	0.345880	0.746089	0.394559
	H6259	H	0.096333	0.689225	0.476530
	H6260	H	0.164036	0.700787	0.402402
	H6261	H	0.414755	0.643258	0.483417
	H6262	H	0.164760	0.690804	0.532107
	H6263	H	0.414315	0.748576	0.450463
	O6264	O	0.589437	0.733973	0.412024
	O6265	O	0.840068	0.676816	0.493401
	O6266	O	0.590229	0.657352	0.521222
	O6267	O	0.839216	0.715234	0.441053
	O6268	O	0.921294	0.677357	0.519112
	O6269	O	0.670620	0.734986	0.437847
	O6270	O	0.920775	0.714221	0.415360
	O6271	O	0.671288	0.656912	0.495975
	O6272	O	0.921181	0.657312	0.521156
	O6273	O	0.670550	0.715235	0.441030
	O6274	O	0.920954	0.733990	0.412046
	O6275	O	0.671310	0.676812	0.493421
	O6276	O	0.589754	0.714222	0.415298
	O6277	O	0.840082	0.656892	0.495920
	O6278	O	0.590113	0.677389	0.519114
	O6279	O	0.839332	0.735019	0.437796
	F6280	F	0.505748	0.666994	0.498310
	F6281	F	0.755378	0.724241	0.417451
	F6282	F	0.505283	0.724995	0.435639
	F6283	F	0.755919	0.667380	0.516607
	Al6284	Al	0.630787	0.667183	0.507503
	Al6285	Al	0.880406	0.724622	0.426620
	Al6286	Al	0.630266	0.724612	0.426511
	Al6287	Al	0.880958	0.667175	0.507432
	C6288	C	0.594616	0.749119	0.390638
	C6289	C	0.845015	0.692226	0.472479
	C6290	C	0.595692	0.640632	0.539434
	C6291	C	0.844736	0.699897	0.462061
	C6292	C	0.915780	0.694168	0.534939
	C6293	C	0.665167	0.751616	0.454040
	C6294	C	0.915057	0.697551	0.399299
	C6295	C	0.665975	0.640084	0.480250
	C6296	C	0.915984	0.640571	0.539332
	C6297	C	0.665414	0.699883	0.462082
	C6298	C	0.915483	0.749043	0.390468
	C6299	C	0.665666	0.692210	0.472506
	C6300	C	0.595194	0.697499	0.399364
	C6301	C	0.845193	0.640014	0.480397
	C6302	C	0.595214	0.694119	0.535091
	C6303	C	0.844636	0.751733	0.453734
	C6304	C	0.504936	0.745255	0.396051
	C6305	C	0.755403	0.688304	0.477832
	C6306	C	0.506027	0.644899	0.534826
	C6307	C	0.754972	0.703802	0.456726
	C6308	C	0.505534	0.689869	0.530994
	C6309	C	0.754852	0.747402	0.449844
	C6310	C	0.505357	0.701768	0.403383
	C6311	C	0.755561	0.644343	0.484265
	C6312	C	0.504998	0.737177	0.407579
	C6313	C	0.755616	0.680072	0.489074
	C6314	C	0.505888	0.653820	0.525006
	C6315	C	0.754882	0.711995	0.445415
	C6316	C	0.505676	0.680912	0.522417
	C6317	C	0.754841	0.738507	0.441174
	C6318	C	0.505347	0.710709	0.411983
	C6319	C	0.755625	0.653352	0.492711
	H6320	H	0.664013	0.746212	0.394864
	H6321	H	0.914459	0.689242	0.476516
	H6322	H	0.665022	0.643953	0.536055
	H6323	H	0.914014	0.702894	0.457990
	H6324	H	0.846327	0.690902	0.531876
	H6325	H	0.595667	0.748340	0.451048
	H6326	H	0.845714	0.700823	0.402378
	H6327	H	0.596815	0.643408	0.483218
	H6328	H	0.846525	0.643831	0.535875
	H6329	H	0.595915	0.702872	0.458019
	H6330	H	0.846034	0.746080	0.394590
	H6331	H	0.596248	0.689210	0.476560
	H6332	H	0.664643	0.700751	0.402501
	H6333	H	0.914515	0.643273	0.483497
	H6334	H	0.664672	0.690817	0.532115
	H6335	H	0.914089	0.748545	0.450475
	O6336	O	0.089571	0.739291	0.555953
	O6337	O	0.339792	0.677529	0.627956
	O6338	O	0.090382	0.655201	0.649125
	O6339	O	0.339940	0.719813	0.583749
	O6340	O	0.421429	0.676415	0.652717
	O6341	O	0.171025	0.739900	0.581619
	O6342	O	0.420890	0.719378	0.558504
	O6343	O	0.171451	0.657282	0.626614
	O6344	O	0.421315	0.655233	0.649242
	O6345	O	0.171140	0.719776	0.583656
	O6346	O	0.421193	0.739232	0.555880
	O6347	O	0.171117	0.677568	0.628031
	O6348	O	0.089947	0.719402	0.558470
	O6349	O	0.340362	0.657290	0.626595
	O6350	O	0.090155	0.676390	0.652782
	O6351	O	0.339914	0.739882	0.581639
	F6352	F	0.005702	0.667517	0.630308
	F6353	F	0.255564	0.729470	0.560865
	F6354	F	0.005707	0.729870	0.579238
	F6355	F	0.255775	0.666145	0.649081
	Al6356	Al	0.130743	0.666826	0.639762
	Al6357	Al	0.380469	0.729669	0.570024
	Al6358	Al	0.130518	0.729662	0.570029
	Al6359	Al	0.380841	0.666816	0.639782
	C6360	C	0.094569	0.754781	0.535157
	C6361	C	0.345002	0.694568	0.610530
	C6362	C	0.095345	0.635310	0.649129
	C6363	C	0.345048	0.703006	0.601753
	C6364	C	0.416109	0.693726	0.667410
	C6365	C	0.165630	0.756654	0.597513
	C6366	C	0.415671	0.702583	0.542746
	C6367	C	0.166085	0.639960	0.611947
	C6368	C	0.415459	0.635314	0.649453
	C6369	C	0.165869	0.703115	0.601983
	C6370	C	0.415748	0.754614	0.534869
	C6371	C	0.165791	0.694676	0.610774
	C6372	C	0.095288	0.702533	0.542869
	C6373	C	0.345783	0.639982	0.611903
	C6374	C	0.095356	0.693647	0.667658
	C6375	C	0.344971	0.756692	0.597435
	C6376	C	0.004833	0.750766	0.540338
	C6377	C	0.255383	0.690297	0.615131
	C6378	C	0.005317	0.640375	0.649789
	C6379	C	0.255471	0.707377	0.597370
	C6380	C	0.005504	0.689207	0.663976
	C6381	C	0.255373	0.752380	0.593509
	C6382	C	0.005515	0.706856	0.546776
	C6383	C	0.255872	0.644453	0.615487
	C6384	C	0.005177	0.742508	0.551559
	C6385	C	0.255445	0.681158	0.624416
	C6386	C	0.005697	0.651064	0.649432
	C6387	C	0.255563	0.716297	0.587534
	C6388	C	0.005628	0.680001	0.655906
	C6389	C	0.255465	0.743406	0.584958
	C6390	C	0.005560	0.715860	0.555246
	C6391	C	0.255901	0.653678	0.623481
	H6392	H	0.164209	0.751864	0.539316
	H6393	H	0.414420	0.691219	0.613787
	H6394	H	0.165379	0.639126	0.649362
	H6395	H	0.414565	0.706220	0.598196
	H6396	H	0.346369	0.690376	0.664616
	H6397	H	0.096301	0.753371	0.594468
	H6398	H	0.346247	0.705888	0.545706
	H6399	H	0.096212	0.643333	0.614640
	H6400	H	0.345596	0.639154	0.649936
	H6401	H	0.096507	0.706427	0.598607
	H6402	H	0.346352	0.751553	0.538786
	H6403	H	0.096418	0.691407	0.614258
	H6404	H	0.164733	0.705785	0.545981
	H6405	H	0.415576	0.643365	0.614574
	H6406	H	0.165205	0.690221	0.665075
	H6407	H	0.414369	0.753449	0.594345
	O6408	O	0.589968	0.739254	0.555899
	O6409	O	0.839857	0.677549	0.627861
	O6410	O	0.590490	0.655195	0.649186
	O6411	O	0.839840	0.719802	0.583746
	O6412	O	0.921244	0.676393	0.652710
	O6413	O	0.670904	0.739878	0.581635
	O6414	O	0.921133	0.719376	0.558570
	O6415	O	0.670935	0.657318	0.626521
	O6416	O	0.921128	0.655264	0.649298
	O6417	O	0.671033	0.719814	0.583686
	O6418	O	0.920929	0.739226	0.555878
	O6419	O	0.671224	0.677567	0.627963
	O6420	O	0.589794	0.719411	0.558461
	O6421	O	0.839861	0.657241	0.626575
	O6422	O	0.590362	0.676366	0.652810
	O6423	O	0.839726	0.739894	0.581671
	F6424	F	0.505648	0.667531	0.630361
	F6425	F	0.755628	0.729470	0.560880
	F6426	F	0.505510	0.729867	0.579158
	F6427	F	0.755946	0.666152	0.648945
	Al6428	Al	0.630759	0.666834	0.639737
	Al6429	Al	0.880714	0.729652	0.570079
	Al6430	Al	0.630631	0.729645	0.570026
	Al6431	Al	0.881167	0.666848	0.639675
	C6432	C	0.594948	0.754797	0.535183
	C6433	C	0.845059	0.694596	0.610549
	C6434	C	0.595661	0.635284	0.649189
	C6435	C	0.844888	0.703038	0.601785
	C6436	C	0.915507	0.693764	0.667348
	C6437	C	0.665302	0.756650	0.597528
	C6438	C	0.915737	0.702584	0.542748
	C6439	C	0.665255	0.639959	0.611902
	C6440	C	0.915032	0.635330	0.649384
	C6441	C	0.665643	0.703139	0.601987
	C6442	C	0.915124	0.754607	0.534834
	C6443	C	0.665788	0.694691	0.610759
	C6444	C	0.595154	0.702533	0.542907
	C6445	C	0.845080	0.639933	0.611962
	C6446	C	0.595845	0.693669	0.667596
	C6447	C	0.844762	0.756706	0.597430
	C6448	C	0.505441	0.750769	0.540345
	C6449	C	0.755432	0.690293	0.615051
	C6450	C	0.505673	0.640356	0.649830
	C6451	C	0.755270	0.707382	0.597337
	C6452	C	0.506001	0.689203	0.663963
	C6453	C	0.754993	0.752381	0.593508
	C6454	C	0.505394	0.706857	0.546773
	C6455	C	0.755172	0.644441	0.615450
	C6456	C	0.505540	0.742511	0.551559
	C6457	C	0.755478	0.681161	0.624345
	C6458	C	0.505812	0.651042	0.649439
	C6459	C	0.755366	0.716293	0.587502
	C6460	C	0.505887	0.680006	0.655899
	C6461	C	0.755181	0.743412	0.584951
	C6462	C	0.505382	0.715860	0.555227
	C6463	C	0.755296	0.653665	0.623446
	H6464	H	0.664407	0.751884	0.539360
	H6465	H	0.914615	0.691287	0.613865
	H6466	H	0.665708	0.639099	0.649459
	H6467	H	0.914328	0.706282	0.598274
	H6468	H	0.845833	0.690419	0.664509
	H6469	H	0.595813	0.753356	0.594569
	H6470	H	0.846322	0.705881	0.545759
	H6471	H	0.595339	0.643347	0.614584
	H6472	H	0.845160	0.639177	0.649835
	H6473	H	0.596318	0.706465	0.598637
	H6474	H	0.845634	0.751540	0.538739
	H6475	H	0.596463	0.691432	0.614282
	H6476	H	0.664541	0.705790	0.546004
	H6477	H	0.914900	0.643299	0.614681
	H6478	H	0.665596	0.690258	0.664943
	H6479	H	0.914240	0.753432	0.594373
	O6480	O	0.089359	0.740072	0.690442
	O6481	O	0.339025	0.667983	0.710677
	O6482	O	0.089706	0.644049	0.726829
	O6483	O	0.340160	0.717738	0.711643
	O6484	O	0.420035	0.665115	0.732797
	O6485	O	0.171054	0.738967	0.715149
	O6486	O	0.421137	0.719788	0.689030
	O6487	O	0.170377	0.646933	0.704707
	O6488	O	0.420462	0.644080	0.726873
	O6489	O	0.171056	0.717749	0.711735
	O6490	O	0.420871	0.740057	0.690355
	O6491	O	0.170077	0.668035	0.710815
	O6492	O	0.089865	0.719770	0.689137
	O6493	O	0.339174	0.646865	0.704822
	O6494	O	0.088584	0.665113	0.732822
	O6495	O	0.339829	0.738961	0.715112
	F6496	F	0.004925	0.657292	0.709364
	F6497	F	0.255296	0.730010	0.692735
	F6498	F	0.005802	0.728712	0.711585
	F6499	F	0.254926	0.654761	0.728151
	Al6500	Al	0.129865	0.656025	0.718780
	Al6501	Al	0.380364	0.729340	0.702166
	Al6502	Al	0.130445	0.729348	0.702255
	Al6503	Al	0.379733	0.656021	0.718786
	C6504	C	0.094701	0.757101	0.673031
	C6505	C	0.345078	0.687919	0.710731
	C6506	C	0.094542	0.624117	0.726569
	C6507	C	0.345378	0.697800	0.711716
	C6508	C	0.414702	0.682818	0.746826
	C6509	C	0.165510	0.756268	0.729875
	C6510	C	0.416102	0.702469	0.674328
	C6511	C	0.164833	0.629269	0.690526
	C6512	C	0.414507	0.624161	0.726879
	C6513	C	0.165230	0.697836	0.711912
	C6514	C	0.415505	0.757174	0.673144
	C6515	C	0.165020	0.687969	0.710937
	C6516	C	0.095249	0.702401	0.674570
	C6517	C	0.344620	0.629192	0.690845
	C6518	C	0.094006	0.682764	0.746919
	C6519	C	0.345244	0.756243	0.729966
	C6520	C	0.005047	0.752803	0.677534
	C6521	C	0.254959	0.682879	0.710361
	C6522	C	0.004724	0.629207	0.727274
	C6523	C	0.255402	0.702879	0.712329
	C6524	C	0.004058	0.678147	0.743631
	C6525	C	0.255419	0.751762	0.726359
	C6526	C	0.005379	0.706946	0.677975
	C6527	C	0.254641	0.633852	0.693964
	C6528	C	0.005065	0.743678	0.686828
	C6529	C	0.254688	0.672188	0.710608
	C6530	C	0.005131	0.639896	0.727037
	C6531	C	0.255592	0.713567	0.711916
	C6532	C	0.004108	0.668761	0.735912
	C6533	C	0.255464	0.742573	0.718293
	C6534	C	0.005378	0.716190	0.685954
	C6535	C	0.254718	0.643222	0.701701
	H6536	H	0.164072	0.753779	0.676375
	H6537	H	0.414961	0.684069	0.710239
	H6538	H	0.164671	0.627927	0.726830
	H6539	H	0.415302	0.701628	0.711970
	H6540	H	0.344487	0.679392	0.744368
	H6541	H	0.095730	0.752904	0.727115
	H6542	H	0.346191	0.705871	0.676920
	H6543	H	0.094759	0.632775	0.692820
	H6544	H	0.344691	0.628008	0.727440
	H6545	H	0.095368	0.701671	0.712337
	H6546	H	0.346087	0.753909	0.676595
	H6547	H	0.094904	0.684159	0.710618
	H6548	H	0.165072	0.705746	0.677357
	H6549	H	0.414593	0.632628	0.693391
	H6550	H	0.164123	0.679286	0.744525
	H6551	H	0.415036	0.752853	0.727286
	O6552	O	0.589517	0.740053	0.690379
	O6553	O	0.838788	0.668030	0.710715
	O6554	O	0.589513	0.644050	0.726666
	O6555	O	0.839758	0.717708	0.711765
	O6556	O	0.919706	0.665105	0.732821
	O6557	O	0.670445	0.738955	0.715168
	O6558	O	0.920988	0.719828	0.689049
	O6559	O	0.669966	0.646951	0.704643
	O6560	O	0.920592	0.644089	0.726906
	O6561	O	0.670562	0.717758	0.711724
	O6562	O	0.920815	0.740064	0.690378
	O6563	O	0.669845	0.668034	0.710746
	O6564	O	0.589969	0.719766	0.689145
	O6565	O	0.838777	0.646837	0.704825
	O6566	O	0.588856	0.665116	0.732757
	O6567	O	0.839353	0.738946	0.715225
	F6568	F	0.504445	0.657315	0.709359
	F6569	F	0.755462	0.730031	0.692844
	F6570	F	0.505209	0.728708	0.711461
	F6571	F	0.754690	0.654738	0.728040
	Al6572	Al	0.629734	0.656050	0.718677
	Al6573	Al	0.880529	0.729350	0.702250
	Al6574	Al	0.630320	0.729344	0.702227
	Al6575	Al	0.880053	0.656029	0.718752
	C6576	C	0.594779	0.757103	0.673007
	C6577	C	0.844680	0.687935	0.710827
	C6578	C	0.594703	0.624125	0.726514
	C6579	C	0.844893	0.697816	0.711809
	C6580	C	0.914111	0.682812	0.746866
	C6581	C	0.664902	0.756277	0.729922
	C6582	C	0.915510	0.702512	0.674260
	C6583	C	0.664394	0.629290	0.690513
	C6584	C	0.914401	0.624171	0.726895
	C6585	C	0.664651	0.697847	0.711886
	C6586	C	0.915415	0.757178	0.673138
	C6587	C	0.664455	0.687982	0.710908
	C6588	C	0.595750	0.702418	0.674514
	C6589	C	0.844055	0.629203	0.690839
	C6590	C	0.594465	0.682742	0.746932
	C6591	C	0.844650	0.756207	0.730034
	C6592	C	0.505121	0.752795	0.677498
	C6593	C	0.754478	0.682896	0.710408
	C6594	C	0.504723	0.629200	0.727179
	C6595	C	0.754839	0.702882	0.712386
	C6596	C	0.504510	0.678137	0.743626
	C6597	C	0.754754	0.751746	0.726439
	C6598	C	0.505893	0.706939	0.677966
	C6599	C	0.754190	0.633875	0.693917
	C6600	C	0.505198	0.743651	0.686770
	C6601	C	0.754312	0.672207	0.710613
	C6602	C	0.504929	0.639890	0.726928
	C6603	C	0.755037	0.713565	0.711982
	C6604	C	0.504437	0.668777	0.735866
	C6605	C	0.754842	0.742561	0.718348
	C6606	C	0.505632	0.716162	0.685973
	C6607	C	0.754260	0.643239	0.701650
	H6608	H	0.664160	0.753779	0.676332
	H6609	H	0.914606	0.684089	0.710362
	H6610	H	0.664775	0.627935	0.726765
	H6611	H	0.914931	0.701649	0.712101
	H6612	H	0.843959	0.679364	0.744443
	H6613	H	0.595100	0.752925	0.727137
	H6614	H	0.845728	0.705952	0.676806
	H6615	H	0.594359	0.632793	0.692814
	H6616	H	0.844583	0.628026	0.727413
	H6617	H	0.594812	0.701686	0.712253
	H6618	H	0.845961	0.753906	0.676573
	H6619	H	0.594512	0.684177	0.710524
	H6620	H	0.665561	0.705780	0.677244
	H6621	H	0.914080	0.632626	0.693398
	H6622	H	0.664473	0.679255	0.744548
	H6623	H	0.914475	0.752804	0.727353
	O6624	O	0.088926	0.730497	0.773109
	O6625	O	0.338209	0.656833	0.788232
	O6626	O	0.088303	0.634527	0.809550
	O6627	O	0.339447	0.706518	0.789132
	O6628	O	0.419207	0.654805	0.810920
	O6629	O	0.169993	0.727667	0.795169
	O6630	O	0.420450	0.709440	0.767200
	O6631	O	0.169554	0.635680	0.784726
	O6632	O	0.419507	0.634553	0.809637
	O6633	O	0.170411	0.706572	0.789220
	O6634	O	0.419825	0.730526	0.773247
	O6635	O	0.169069	0.656843	0.788216
	O6636	O	0.088899	0.709408	0.767227
	O6637	O	0.338404	0.635630	0.784872
	O6638	O	0.087762	0.654757	0.810957
	O6639	O	0.338701	0.727619	0.795271
	F6640	F	0.004144	0.645901	0.788392
	F6641	F	0.254700	0.719801	0.771825
	F6642	F	0.004899	0.717258	0.790606
	F6643	F	0.253761	0.644583	0.807178
	Al6644	Al	0.128715	0.645263	0.797724
	Al6645	Al	0.379694	0.718536	0.781219
	Al6646	Al	0.129785	0.718528	0.781200
	Al6647	Al	0.378728	0.645251	0.797753
	C6648	C	0.094802	0.750419	0.773179
	C6649	C	0.343985	0.676727	0.788093
	C6650	C	0.093272	0.617427	0.826817
	C6651	C	0.344219	0.686605	0.789053
	C6652	C	0.413713	0.672160	0.825518
	C6653	C	0.164423	0.745357	0.809196
	C6654	C	0.414788	0.691800	0.753080
	C6655	C	0.164075	0.618432	0.769901
	C6656	C	0.414303	0.617453	0.826896
	C6657	C	0.164112	0.686643	0.789188
	C6658	C	0.414645	0.750459	0.773443
	C6659	C	0.163824	0.676772	0.788238
	C6660	C	0.094081	0.691741	0.753184
	C6661	C	0.343799	0.618318	0.770175
	C6662	C	0.093216	0.672039	0.825802
	C6663	C	0.344173	0.745242	0.809532
	C6664	C	0.004556	0.745367	0.772768
	C6665	C	0.253793	0.671690	0.787642
	C6666	C	0.003801	0.621792	0.822428
	C6667	C	0.254264	0.691684	0.789590
	C6668	C	0.003329	0.667615	0.822053
	C6669	C	0.254340	0.740652	0.806080
	C6670	C	0.004294	0.696398	0.756390
	C6671	C	0.253977	0.622842	0.773609
	C6672	C	0.004458	0.734683	0.772996
	C6673	C	0.253644	0.661008	0.788009
	C6674	C	0.003912	0.630938	0.813158
	C6675	C	0.254758	0.702374	0.789317
	C6676	C	0.003231	0.658390	0.814054
	C6677	C	0.254389	0.731301	0.798330
	C6678	C	0.004419	0.705788	0.764106
	C6679	C	0.254052	0.632044	0.781661
	H6680	H	0.164775	0.746585	0.772701
	H6681	H	0.413783	0.672868	0.787714
	H6682	H	0.162631	0.620700	0.823401
	H6683	H	0.414176	0.690429	0.789390
	H6684	H	0.343924	0.668813	0.822719
	H6685	H	0.094223	0.741958	0.806641
	H6686	H	0.344758	0.695293	0.755429
	H6687	H	0.094416	0.621867	0.772502
	H6688	H	0.344832	0.620746	0.823528
	H6689	H	0.094085	0.690467	0.789631
	H6690	H	0.344603	0.746649	0.773138
	H6691	H	0.093703	0.672963	0.787974
	H6692	H	0.164229	0.695181	0.755607
	H6693	H	0.413413	0.621673	0.773008
	H6694	H	0.163154	0.668598	0.823293
	H6695	H	0.414376	0.741767	0.807264
	O6696	O	0.588814	0.730490	0.773178
	O6697	O	0.837629	0.656831	0.788060
	O6698	O	0.588158	0.634529	0.809581
	O6699	O	0.839062	0.706492	0.789199
	O6700	O	0.918851	0.654801	0.810865
	O6701	O	0.669712	0.727661	0.795220
	O6702	O	0.920030	0.709475	0.767150
	O6703	O	0.669013	0.635661	0.784812
	O6704	O	0.919678	0.634550	0.809593
	O6705	O	0.669998	0.706568	0.789381
	O6706	O	0.919823	0.730517	0.773182
	O6707	O	0.668485	0.656853	0.788247
	O6708	O	0.589288	0.709405	0.767250
	O6709	O	0.837900	0.635630	0.784805
	O6710	O	0.588122	0.654790	0.810955
	O6711	O	0.838434	0.727662	0.795249
	F6712	F	0.503545	0.645891	0.788529
	F6713	F	0.754700	0.719791	0.771918
	F6714	F	0.504511	0.717246	0.790637
	F6715	F	0.753826	0.644585	0.807125
	Al6716	Al	0.628690	0.645254	0.797757
	Al6717	Al	0.880000	0.718526	0.781236
	Al6718	Al	0.629608	0.718517	0.781262
	Al6719	Al	0.878879	0.645254	0.797697
	C6720	C	0.594842	0.750423	0.773158
	C6721	C	0.843547	0.676714	0.788012
	C6722	C	0.593553	0.617415	0.826786
	C6723	C	0.843893	0.686584	0.789018
	C6724	C	0.913370	0.672179	0.825474
	C6725	C	0.663984	0.745369	0.809162
	C6726	C	0.914252	0.691781	0.753123
	C6727	C	0.663484	0.618391	0.770003
	C6728	C	0.914176	0.617485	0.826919
	C6729	C	0.663710	0.686642	0.789308
	C6730	C	0.914542	0.750455	0.773448
	C6731	C	0.663379	0.676773	0.788307
	C6732	C	0.594529	0.691723	0.753191
	C6733	C	0.843277	0.618332	0.770131
	C6734	C	0.593378	0.672085	0.825750
	C6735	C	0.843753	0.745248	0.809529
	C6736	C	0.504615	0.745362	0.772849
	C6737	C	0.753265	0.671690	0.787607
	C6738	C	0.503902	0.621795	0.822465
	C6739	C	0.753909	0.691674	0.789667
	C6740	C	0.503622	0.667607	0.822116
	C6741	C	0.753875	0.740665	0.806071
	C6742	C	0.504781	0.696376	0.756438
	C6743	C	0.753356	0.622842	0.773597
	C6744	C	0.504383	0.734685	0.773087
	C6745	C	0.753094	0.661009	0.787944
	C6746	C	0.503865	0.630936	0.813193
	C6747	C	0.754330	0.702359	0.789435
	C6748	C	0.503660	0.658399	0.814096
	C6749	C	0.754007	0.731319	0.798328
	C6750	C	0.504874	0.705750	0.764169
	C6751	C	0.753405	0.632037	0.781669
	H6752	H	0.664822	0.746594	0.772616
	H6753	H	0.913294	0.672854	0.787546
	H6754	H	0.663004	0.620674	0.823320
	H6755	H	0.913893	0.690409	0.789310
	H6756	H	0.843374	0.668838	0.822685
	H6757	H	0.593765	0.741981	0.806605
	H6758	H	0.844262	0.695271	0.755519
	H6759	H	0.593871	0.621805	0.772679
	H6760	H	0.844845	0.620824	0.823595
	H6761	H	0.593841	0.690479	0.789842
	H6762	H	0.844402	0.746640	0.773196
	H6763	H	0.593230	0.672977	0.788080
	H6764	H	0.664654	0.695173	0.755617
	H6765	H	0.912932	0.621693	0.772924
	H6766	H	0.663173	0.668664	0.823155
	H6767	H	0.913991	0.741750	0.807295
	O6768	O	0.087962	0.719324	0.850734
	O6769	O	0.338425	0.654741	0.916185
	O6770	O	0.088447	0.635329	0.944065
	O6771	O	0.337915	0.697026	0.872086
	O6772	O	0.419556	0.655123	0.941491
	O6773	O	0.168913	0.717287	0.873420
	O6774	O	0.419095	0.698202	0.847222
	O6775	O	0.169551	0.634665	0.918267
	O6776	O	0.419562	0.635301	0.944034
	O6777	O	0.169339	0.697048	0.872132
	O6778	O	0.418770	0.719374	0.850890
	O6779	O	0.169538	0.654732	0.916174
	O6780	O	0.087949	0.698123	0.847363
	O6781	O	0.338375	0.634678	0.918233
	O6782	O	0.088478	0.655127	0.941455
	O6783	O	0.337728	0.717226	0.873516
	F6784	F	0.004171	0.644700	0.920684
	F6785	F	0.253479	0.708394	0.850988
	F6786	F	0.003451	0.707078	0.869695
	F6787	F	0.254154	0.645073	0.939037
	Al6788	Al	0.129100	0.644883	0.929880
	Al6789	Al	0.378541	0.707751	0.860281
	Al6790	Al	0.128553	0.707740	0.860265
	Al6791	Al	0.379070	0.644877	0.929874
	C6792	C	0.093735	0.739255	0.850600
	C6793	C	0.343504	0.671510	0.898158
	C6794	C	0.093705	0.619897	0.965000
	C6795	C	0.343417	0.679966	0.889436
	C6796	C	0.414272	0.671921	0.957318
	C6797	C	0.163603	0.734656	0.887965
	C6798	C	0.413652	0.680918	0.832424
	C6799	C	0.164493	0.617837	0.902577
	C6800	C	0.414181	0.619887	0.964950
	C6801	C	0.164154	0.679975	0.889440
	C6802	C	0.413731	0.739279	0.850927
	C6803	C	0.164255	0.671513	0.898172
	C6804	C	0.093187	0.680792	0.832721
	C6805	C	0.343769	0.617883	0.902426
	C6806	C	0.093649	0.671967	0.957105
	C6807	C	0.343365	0.734511	0.888352
	C6808	C	0.003618	0.734201	0.850219
	C6809	C	0.253888	0.667183	0.902606
	C6810	C	0.004118	0.623840	0.959673
	C6811	C	0.253730	0.684305	0.885000
	C6812	C	0.003946	0.667635	0.953251
	C6813	C	0.253480	0.730069	0.884647
	C6814	C	0.003337	0.685362	0.836059
	C6815	C	0.254078	0.622171	0.906445
	C6816	C	0.003434	0.723523	0.850580
	C6817	C	0.253934	0.658242	0.912373
	C6818	C	0.004161	0.632068	0.948401
	C6819	C	0.253671	0.693428	0.875684
	C6820	C	0.004007	0.658661	0.944708
	C6821	C	0.253357	0.720852	0.876641
	C6822	C	0.003355	0.694559	0.844134
	C6823	C	0.253996	0.631134	0.914988
	H6824	H	0.163573	0.735412	0.850147
	H6825	H	0.413045	0.668242	0.901601
	H6826	H	0.163235	0.622889	0.960977
	H6827	H	0.412800	0.683260	0.886087
	H6828	H	0.345013	0.668604	0.954358
	H6829	H	0.093592	0.731349	0.885120
	H6830	H	0.343925	0.684346	0.835026
	H6831	H	0.094908	0.621079	0.905661
	H6832	H	0.344751	0.622866	0.960855
	H6833	H	0.094874	0.683296	0.886070
	H6834	H	0.343668	0.735466	0.850699
	H6835	H	0.094968	0.668232	0.901641
	H6836	H	0.162983	0.684111	0.835597
	H6837	H	0.413095	0.621177	0.905404
	H6838	H	0.163045	0.668734	0.953944
	H6839	H	0.413199	0.731072	0.885811
	O6840	O	0.587951	0.719332	0.850742
	O6841	O	0.837995	0.654733	0.916156
	O6842	O	0.588266	0.635313	0.944064
	O6843	O	0.837895	0.697021	0.872092
	O6844	O	0.919651	0.655124	0.941446
	O6845	O	0.668723	0.717275	0.873440
	O6846	O	0.919100	0.698207	0.847241
	O6847	O	0.669557	0.634666	0.918317
	O6848	O	0.919833	0.635319	0.944068
	O6849	O	0.669276	0.697053	0.872129
	O6850	O	0.918786	0.719359	0.850842
	O6851	O	0.669220	0.654746	0.916192
	O6852	O	0.587986	0.698157	0.847297
	O6853	O	0.838324	0.634648	0.918276
	O6854	O	0.588428	0.655147	0.941456
	O6855	O	0.837410	0.717297	0.873448
	F6856	F	0.504039	0.644706	0.920757
	F6857	F	0.753669	0.708396	0.851033
	F6858	F	0.503549	0.707063	0.869681
	F6859	F	0.754126	0.645072	0.939045
	Al6860	Al	0.629079	0.644893	0.929882
	Al6861	Al	0.878955	0.707748	0.860333
	Al6862	Al	0.628497	0.707754	0.860258
	Al6863	Al	0.879202	0.644889	0.929836
	C6864	C	0.593979	0.739240	0.850575
	C6865	C	0.843173	0.671488	0.898113
	C6866	C	0.593688	0.619932	0.965003
	C6867	C	0.843289	0.679943	0.889390
	C6868	C	0.914296	0.671887	0.957364
	C6869	C	0.663089	0.734630	0.888087
	C6870	C	0.913340	0.680932	0.832377
	C6871	C	0.664078	0.617856	0.902524
	C6872	C	0.914366	0.619895	0.964949
	C6873	C	0.663944	0.679999	0.889427
	C6874	C	0.913622	0.739282	0.850932
	C6875	C	0.663857	0.671536	0.898161
	C6876	C	0.593317	0.680842	0.832665
	C6877	C	0.843417	0.617912	0.902370
	C6878	C	0.593710	0.671982	0.957077
	C6879	C	0.842835	0.734548	0.888273
	C6880	C	0.503712	0.734202	0.850286
	C6881	C	0.753487	0.667198	0.902626
	C6882	C	0.503891	0.623845	0.959694
	C6883	C	0.753679	0.684308	0.884989
	C6884	C	0.503967	0.667648	0.953272
	C6885	C	0.752922	0.730084	0.884640
	C6886	C	0.503553	0.685362	0.836078
	C6887	C	0.753772	0.622156	0.906464
	C6888	C	0.503478	0.723521	0.850633
	C6889	C	0.753575	0.658244	0.912354
	C6890	C	0.503924	0.632084	0.948459
	C6891	C	0.753596	0.693450	0.875731
	C6892	C	0.503957	0.658646	0.944800
	C6893	C	0.752971	0.720890	0.876594
	C6894	C	0.503546	0.694567	0.844125
	C6895	C	0.753866	0.631129	0.915005
	H6896	H	0.663883	0.735408	0.850067
	H6897	H	0.912612	0.668188	0.901492
	H6898	H	0.663127	0.622934	0.960952
	H6899	H	0.912739	0.683210	0.885998
	H6900	H	0.844849	0.668579	0.954424
	H6901	H	0.593237	0.731284	0.885324
	H6902	H	0.843582	0.684373	0.834963
	H6903	H	0.594756	0.621131	0.905596
	H6904	H	0.844985	0.622895	0.960882
	H6905	H	0.594600	0.683335	0.886056
	H6906	H	0.843643	0.735456	0.850725
	H6907	H	0.594536	0.668250	0.901606
	H6908	H	0.663013	0.684195	0.835473
	H6909	H	0.912798	0.621213	0.905298
	H6910	H	0.663063	0.668738	0.953911
	H6911	H	0.912712	0.731136	0.885667
	O6912	O	0.088173	0.844277	-0.024268
	O6913	O	0.338247	0.779644	0.041167
	O6914	O	0.088876	0.760213	0.069024
	O6915	O	0.338664	0.821919	-0.003042
	O6916	O	0.419348	0.780177	0.066434
	O6917	O	0.169026	0.842283	-0.001614
	O6918	O	0.419543	0.823192	-0.027757
	O6919	O	0.169687	0.759728	0.043169
	O6920	O	0.419884	0.760391	0.069302
	O6921	O	0.170051	0.822054	-0.002755
	O6922	O	0.418970	0.844348	-0.024151
	O6923	O	0.169430	0.779781	0.041424
	O6924	O	0.088449	0.823071	-0.027620
	O6925	O	0.338499	0.759592	0.043426
	O6926	O	0.088369	0.780063	0.066648
	O6927	O	0.337948	0.842231	-0.001515
	F6928	F	0.004113	0.769644	0.045796
	F6929	F	0.253731	0.833375	-0.023979
	F6930	F	0.003746	0.831996	-0.005306
	F6931	F	0.253965	0.770052	0.064134
	Al6932	Al	0.129041	0.769861	0.054977
	Al6933	Al	0.378857	0.832727	-0.014731
	Al6934	Al	0.128852	0.832709	-0.014709
	Al6935	Al	0.378948	0.769861	0.054979
	C6936	C	0.094159	0.864215	-0.024480
	C6937	C	0.343641	0.796271	0.022743
	C6938	C	0.093798	0.744625	0.089656
	C6939	C	0.343786	0.804711	0.013992
	C6940	C	0.414717	0.797121	0.081892
	C6941	C	0.163893	0.859655	0.013006
	C6942	C	0.413647	0.805943	-0.042647
	C6943	C	0.164174	0.742940	0.027342
	C6944	C	0.414668	0.745068	0.090413
	C6945	C	0.164511	0.805095	0.014836
	C6946	C	0.414054	0.864274	-0.024055
	C6947	C	0.164372	0.796640	0.023601
	C6948	C	0.093284	0.805709	-0.042167
	C6949	C	0.343484	0.742763	0.027704
	C6950	C	0.093830	0.796824	0.082526
	C6951	C	0.343490	0.859508	0.013326
	C6952	C	0.003912	0.859168	-0.024840
	C6953	C	0.253978	0.792149	0.027688
	C6954	C	0.004170	0.748783	0.084691
	C6955	C	0.254277	0.809250	0.009997
	C6956	C	0.004087	0.792652	0.078256
	C6957	C	0.253586	0.855085	0.009604
	C6958	C	0.003593	0.810325	-0.038890
	C6959	C	0.253909	0.747159	0.031463
	C6960	C	0.003725	0.848487	-0.024451
	C6961	C	0.253865	0.783216	0.037477
	C6962	C	0.004364	0.757041	0.073494
	C6963	C	0.254345	0.818381	0.000699
	C6964	C	0.003956	0.783665	0.069769
	C6965	C	0.253468	0.845871	0.001565
	C6966	C	0.003805	0.819512	-0.030858
	C6967	C	0.254044	0.756138	0.039981
	H6968	H	0.164026	0.860369	-0.024974
	H6969	H	0.413125	0.792842	0.025786
	H6970	H	0.163443	0.747441	0.085334
	H6971	H	0.413281	0.807824	0.010240
	H6972	H	0.345240	0.793990	0.078554
	H6973	H	0.093980	0.856338	0.010192
	H6974	H	0.343959	0.809419	-0.040156
	H6975	H	0.094739	0.746273	0.030214
	H6976	H	0.345231	0.748240	0.086736
	H6977	H	0.095315	0.808560	0.011758
	H6978	H	0.343836	0.860475	-0.024254
	H6979	H	0.095007	0.793498	0.027382
	H6980	H	0.163167	0.808984	-0.039216
	H6981	H	0.413015	0.745954	0.030883
	H6982	H	0.163227	0.793449	0.079726
	H6983	H	0.413177	0.856058	0.010768
	O6984	O	0.588161	0.844305	-0.024288
	O6985	O	0.837656	0.779665	0.041158
	O6986	O	0.588590	0.760187	0.068967
	O6987	O	0.838292	0.821919	-0.003021
	O6988	O	0.919524	0.780215	0.066328
	O6989	O	0.668844	0.842307	-0.001620
	O6990	O	0.919453	0.823185	-0.027791
	O6991	O	0.669812	0.759694	0.043223
	O6992	O	0.920151	0.760393	0.069257
	O6993	O	0.669636	0.822060	-0.002782
	O6994	O	0.918914	0.844328	-0.024117
	O6995	O	0.668877	0.779796	0.041409
	O6996	O	0.588463	0.823091	-0.027618
	O6997	O	0.838616	0.759573	0.043471
	O6998	O	0.588174	0.780075	0.066570
	O6999	O	0.837676	0.842242	-0.001498
	F7000	F	0.503900	0.769643	0.045802
	F7001	F	0.753894	0.833391	-0.023945
	F7002	F	0.503744	0.832012	-0.005306
	F7003	F	0.754064	0.770069	0.064096
	Al7004	Al	0.628895	0.769852	0.054952
	Al7005	Al	0.879204	0.832706	-0.014676
	Al7006	Al	0.628784	0.832727	-0.014737
	Al7007	Al	0.879163	0.769874	0.054935
	C7008	C	0.594236	0.864219	-0.024450
	C7009	C	0.843096	0.796287	0.022760
	C7010	C	0.593702	0.744632	0.089619
	C7011	C	0.843325	0.804725	0.014005
	C7012	C	0.914360	0.797082	0.081910
	C7013	C	0.663453	0.859695	0.012907
	C7014	C	0.913622	0.805948	-0.042710
	C7015	C	0.664212	0.742973	0.027294
	C7016	C	0.914375	0.745077	0.090392
	C7017	C	0.663975	0.805142	0.014860
	C7018	C	0.914017	0.864263	-0.024138
	C7019	C	0.663812	0.796690	0.023628
	C7020	C	0.593366	0.805725	-0.042164
	C7021	C	0.843607	0.742803	0.027678
	C7022	C	0.594053	0.796821	0.082516
	C7023	C	0.843312	0.859504	0.013342
	C7024	C	0.503911	0.859183	-0.024791
	C7025	C	0.753393	0.792182	0.027702
	C7026	C	0.504153	0.748789	0.084701
	C7027	C	0.753754	0.809267	0.010004
	C7028	C	0.504249	0.792650	0.078282
	C7029	C	0.753316	0.855089	0.009587
	C7030	C	0.503679	0.810333	-0.038859
	C7031	C	0.754027	0.747172	0.031445
	C7032	C	0.503651	0.848499	-0.024447
	C7033	C	0.753295	0.783242	0.037478
	C7034	C	0.504203	0.757031	0.073487
	C7035	C	0.753885	0.818391	0.000703
	C7036	C	0.503870	0.783650	0.069810
	C7037	C	0.753289	0.845880	0.001579
	C7038	C	0.503908	0.819531	-0.030829
	C7039	C	0.754180	0.756124	0.040024
	H7040	H	0.664130	0.860378	-0.024974
	H7041	H	0.912530	0.792854	0.025807
	H7042	H	0.663179	0.747442	0.085278
	H7043	H	0.912972	0.807834	0.010267
	H7044	H	0.844956	0.793917	0.078609
	H7045	H	0.593454	0.856405	0.010012
	H7046	H	0.843944	0.809419	-0.040204
	H7047	H	0.594934	0.746327	0.030179
	H7048	H	0.844850	0.748267	0.086693
	H7049	H	0.594829	0.808624	0.011804
	H7050	H	0.843857	0.860464	-0.024353
	H7051	H	0.594512	0.793554	0.027434
	H7052	H	0.663221	0.809023	-0.039265
	H7053	H	0.913074	0.746004	0.030871
	H7054	H	0.663358	0.793445	0.079690
	H7055	H	0.913178	0.856059	0.010798
	O7056	O	0.088573	0.842235	0.103818
	O7057	O	0.338951	0.784265	0.183865
	O7058	O	0.089048	0.765587	0.212999
	O7059	O	0.338806	0.822745	0.131499
	O7060	O	0.419762	0.785328	0.209570
	O7061	O	0.169655	0.842646	0.129012
	O7062	O	0.420435	0.822206	0.105794
	O7063	O	0.170448	0.764551	0.187061
	O7064	O	0.420543	0.765617	0.212991
	O7065	O	0.170151	0.822784	0.131626
	O7066	O	0.419621	0.842281	0.103852
	O7067	O	0.170265	0.784318	0.183930
	O7068	O	0.088891	0.822137	0.105887
	O7069	O	0.339277	0.764518	0.187129
	O7070	O	0.089019	0.785276	0.209693
	O7071	O	0.338499	0.842624	0.129031
	F7072	F	0.004708	0.774538	0.189287
	F7073	F	0.254227	0.832182	0.108301
	F7074	F	0.004378	0.832578	0.126676
	F7075	F	0.254610	0.775265	0.207479
	Al7076	Al	0.129697	0.774904	0.198376
	Al7077	Al	0.379213	0.832401	0.117460
	Al7078	Al	0.129376	0.832381	0.117483
	Al7079	Al	0.379738	0.774903	0.198380
	C7080	C	0.093546	0.858901	0.085524
	C7081	C	0.344114	0.799587	0.162745
	C7082	C	0.093938	0.750406	0.234357
	C7083	C	0.344149	0.807254	0.152313
	C7084	C	0.414316	0.802068	0.225492
	C7085	C	0.164403	0.859501	0.144639
	C7086	C	0.414984	0.805530	0.089713
	C7087	C	0.164957	0.747893	0.171008
	C7088	C	0.415208	0.750537	0.234554
	C7089	C	0.164966	0.807468	0.152696
	C7090	C	0.414284	0.859060	0.085816
	C7091	C	0.164982	0.799801	0.163130
	C7092	C	0.093865	0.805235	0.090338
	C7093	C	0.344500	0.747762	0.171238
	C7094	C	0.094176	0.801932	0.225813
	C7095	C	0.343803	0.859431	0.144798
	C7096	C	0.003885	0.854657	0.090172
	C7097	C	0.254629	0.795754	0.168250
	C7098	C	0.004318	0.754332	0.229012
	C7099	C	0.254570	0.811297	0.147198
	C7100	C	0.004455	0.797743	0.221589
	C7101	C	0.254167	0.855183	0.140741
	C7102	C	0.004186	0.809669	0.093982
	C7103	C	0.254817	0.752086	0.175168
	C7104	C	0.004082	0.845730	0.099984
	C7105	C	0.254621	0.787534	0.179519
	C7106	C	0.004635	0.762403	0.217478
	C7107	C	0.254556	0.819516	0.135935
	C7108	C	0.004602	0.788813	0.212974
	C7109	C	0.254093	0.846173	0.132287
	C7110	C	0.004412	0.818646	0.102518
	C7111	C	0.254877	0.761013	0.183800
	H7112	H	0.163016	0.855561	0.088830
	H7113	H	0.413487	0.796513	0.166637
	H7114	H	0.163400	0.753286	0.230115
	H7115	H	0.413526	0.810140	0.148077
	H7116	H	0.344846	0.798866	0.222300
	H7117	H	0.095027	0.856238	0.141540
	H7118	H	0.345772	0.808941	0.092451
	H7119	H	0.095587	0.751205	0.174009
	H7120	H	0.345628	0.753521	0.230506
	H7121	H	0.095609	0.810533	0.148786
	H7122	H	0.344916	0.855830	0.089375
	H7123	H	0.095622	0.796905	0.167349
	H7124	H	0.163357	0.808401	0.093632
	H7125	H	0.413944	0.750970	0.174427
	H7126	H	0.163619	0.798627	0.222858
	H7127	H	0.413123	0.856113	0.141833
	O7128	O	0.588563	0.842218	0.103754
	O7129	O	0.838801	0.784314	0.183865
	O7130	O	0.589318	0.765531	0.212894
	O7131	O	0.838571	0.822770	0.131596
	O7132	O	0.920212	0.785312	0.209631
	O7133	O	0.669460	0.842657	0.128988
	O7134	O	0.920100	0.822198	0.105803
	O7135	O	0.670408	0.764573	0.187033
	O7136	O	0.920322	0.765588	0.212976
	O7137	O	0.669907	0.822823	0.131673
	O7138	O	0.919720	0.842233	0.103793
	O7139	O	0.669991	0.784383	0.184007
	O7140	O	0.589269	0.822114	0.105959
	O7141	O	0.839157	0.764526	0.187136
	O7142	O	0.588556	0.785258	0.209752
	O7143	O	0.838333	0.842654	0.129040
	F7144	F	0.504726	0.774525	0.189281
	F7145	F	0.754368	0.832195	0.108355
	F7146	F	0.504269	0.832587	0.126656
	F7147	F	0.754721	0.775297	0.207460
	Al7148	Al	0.629617	0.774923	0.198396
	Al7149	Al	0.879520	0.832395	0.117506
	Al7150	Al	0.629302	0.832391	0.117487
	Al7151	Al	0.879828	0.774917	0.198357
	C7152	C	0.593670	0.858950	0.085580
	C7153	C	0.844026	0.799596	0.162735
	C7154	C	0.594526	0.750405	0.234336
	C7155	C	0.843978	0.807262	0.152312
	C7156	C	0.914641	0.802061	0.225495
	C7157	C	0.664025	0.859509	0.144660
	C7158	C	0.914422	0.805491	0.089727
	C7159	C	0.664799	0.747893	0.171003
	C7160	C	0.914536	0.750541	0.234574
	C7161	C	0.664687	0.807478	0.152668
	C7162	C	0.914153	0.859056	0.085822
	C7163	C	0.664673	0.799807	0.163092
	C7164	C	0.594327	0.805235	0.090334
	C7165	C	0.844265	0.747750	0.171256
	C7166	C	0.593817	0.801917	0.225787
	C7167	C	0.843426	0.859433	0.144832
	C7168	C	0.503972	0.854684	0.090164
	C7169	C	0.754349	0.795777	0.168232
	C7170	C	0.504841	0.754327	0.228975
	C7171	C	0.754323	0.811301	0.147195
	C7172	C	0.504048	0.797742	0.221549
	C7173	C	0.753695	0.855183	0.140794
	C7174	C	0.504771	0.809663	0.094031
	C7175	C	0.754614	0.752101	0.175128
	C7176	C	0.504111	0.845744	0.099973
	C7177	C	0.754371	0.787583	0.179535
	C7178	C	0.504893	0.762399	0.217443
	C7179	C	0.754243	0.819546	0.135986
	C7180	C	0.504109	0.788817	0.212953
	C7181	C	0.753814	0.846187	0.132294
	C7182	C	0.504827	0.818638	0.102569
	C7183	C	0.754784	0.761038	0.183749
	H7184	H	0.663131	0.855627	0.088944
	H7185	H	0.913426	0.796526	0.166663
	H7186	H	0.664036	0.753284	0.230108
	H7187	H	0.913380	0.810165	0.148110
	H7188	H	0.845206	0.798859	0.222274
	H7189	H	0.594656	0.856249	0.141564
	H7190	H	0.845013	0.808867	0.092511
	H7191	H	0.595430	0.751186	0.174025
	H7192	H	0.845066	0.753524	0.230512
	H7193	H	0.595380	0.810559	0.148773
	H7194	H	0.844632	0.855833	0.089383
	H7195	H	0.595329	0.796918	0.167323
	H7196	H	0.663738	0.808408	0.093608
	H7197	H	0.913785	0.750932	0.174483
	H7198	H	0.663258	0.798598	0.222849
	H7199	H	0.912702	0.856103	0.141871
	O7200	O	0.088405	0.846771	0.246341
	O7201	O	0.339199	0.790345	0.329117
	O7202	O	0.089164	0.771723	0.358350
	O7203	O	0.338843	0.828045	0.275431
	O7204	O	0.420410	0.791443	0.354908
	O7205	O	0.170278	0.847819	0.272120
	O7206	O	0.420199	0.827051	0.249627
	O7207	O	0.170387	0.770640	0.332517
	O7208	O	0.420701	0.771651	0.358255
	O7209	O	0.170136	0.828062	0.275421
	O7210	O	0.420058	0.846833	0.246470
	O7211	O	0.170483	0.790324	0.329106
	O7212	O	0.088860	0.827013	0.249706
	O7213	O	0.339179	0.770629	0.332517
	O7214	O	0.089159	0.791387	0.355059
	O7215	O	0.339052	0.847778	0.272216
	F7216	F	0.004893	0.780640	0.334617
	F7217	F	0.254566	0.837051	0.251799
	F7218	F	0.004537	0.837806	0.270017
	F7219	F	0.254954	0.781427	0.352823
	Al7220	Al	0.129887	0.781025	0.343736
	Al7221	Al	0.379560	0.837418	0.260930
	Al7222	Al	0.129475	0.837425	0.260888
	Al7223	Al	0.379947	0.781026	0.343722
	C7224	C	0.093570	0.862111	0.225284
	C7225	C	0.344283	0.805414	0.307575
	C7226	C	0.094780	0.756652	0.379866
	C7227	C	0.344186	0.812934	0.296897
	C7228	C	0.415162	0.808220	0.370740
	C7229	C	0.164826	0.864525	0.288122
	C7230	C	0.414430	0.810428	0.233467
	C7231	C	0.164961	0.754001	0.316371
	C7232	C	0.415292	0.756577	0.379757
	C7233	C	0.164902	0.812993	0.296959
	C7234	C	0.414789	0.862214	0.225492
	C7235	C	0.164995	0.805459	0.307657
	C7236	C	0.094110	0.810285	0.233769
	C7237	C	0.344308	0.753875	0.316667
	C7238	C	0.094115	0.807985	0.371297
	C7239	C	0.344231	0.864495	0.288228
	C7240	C	0.003948	0.858250	0.230728
	C7241	C	0.254701	0.801577	0.313071
	C7242	C	0.004960	0.760446	0.374328
	C7243	C	0.254496	0.816815	0.291468
	C7244	C	0.004485	0.803845	0.366928
	C7245	C	0.254558	0.860243	0.284123
	C7246	C	0.004329	0.814604	0.237669
	C7247	C	0.254634	0.758191	0.320558
	C7248	C	0.003996	0.850049	0.242023
	C7249	C	0.254788	0.793515	0.324621
	C7250	C	0.004808	0.768532	0.362817
	C7251	C	0.254472	0.824867	0.279909
	C7252	C	0.004675	0.794918	0.358307
	C7253	C	0.254644	0.851310	0.275497
	C7254	C	0.004448	0.823535	0.246300
	C7255	C	0.254761	0.767121	0.329194
	H7256	H	0.163049	0.859084	0.229239
	H7257	H	0.413887	0.802474	0.311681
	H7258	H	0.164176	0.759630	0.375767
	H7259	H	0.413757	0.815827	0.292720
	H7260	H	0.345809	0.805064	0.367401
	H7261	H	0.095447	0.861291	0.284998
	H7262	H	0.345199	0.813748	0.236503
	H7263	H	0.095658	0.757301	0.319375
	H7264	H	0.345839	0.759464	0.375510
	H7265	H	0.095556	0.815943	0.292809
	H7266	H	0.345270	0.859274	0.229623
	H7267	H	0.095708	0.802532	0.311868
	H7268	H	0.163577	0.813492	0.236991
	H7269	H	0.413607	0.757077	0.319932
	H7270	H	0.163549	0.804633	0.368463
	H7271	H	0.413720	0.861239	0.285182
	O7272	O	0.588785	0.846760	0.246390
	O7273	O	0.838843	0.790307	0.329062
	O7274	O	0.589493	0.771691	0.358327
	O7275	O	0.838947	0.828020	0.275440
	O7276	O	0.920352	0.791444	0.354877
	O7277	O	0.669801	0.847810	0.272151
	O7278	O	0.920072	0.827071	0.249578
	O7279	O	0.670775	0.770648	0.332469
	O7280	O	0.920509	0.771716	0.358340
	O7281	O	0.670232	0.828089	0.275516
	O7282	O	0.919671	0.846853	0.246478
	O7283	O	0.670118	0.790386	0.329234
	O7284	O	0.589061	0.827015	0.249656
	O7285	O	0.839474	0.770593	0.332520
	O7286	O	0.589129	0.791368	0.355060
	O7287	O	0.838516	0.847780	0.272244
	F7288	F	0.504982	0.780607	0.334650
	F7289	F	0.754503	0.837037	0.251847
	F7290	F	0.504470	0.837766	0.270023
	F7291	F	0.755082	0.781415	0.352802
	Al7292	Al	0.629931	0.781014	0.343768
	Al7293	Al	0.879548	0.837417	0.260959
	Al7294	Al	0.629428	0.837414	0.260921
	Al7295	Al	0.880056	0.781023	0.343676
	C7296	C	0.594191	0.862119	0.225310
	C7297	C	0.844058	0.805399	0.307602
	C7298	C	0.594595	0.756642	0.379929
	C7299	C	0.844102	0.812924	0.296931
	C7300	C	0.914691	0.808193	0.370723
	C7301	C	0.664565	0.864522	0.288103
	C7302	C	0.914501	0.810418	0.233456
	C7303	C	0.665068	0.753987	0.316382
	C7304	C	0.915353	0.756566	0.379752
	C7305	C	0.664757	0.812982	0.296973
	C7306	C	0.914249	0.862240	0.225484
	C7307	C	0.664699	0.805447	0.307666
	C7308	C	0.594078	0.810271	0.233752
	C7309	C	0.844773	0.753877	0.316584
	C7310	C	0.594471	0.807977	0.371282
	C7311	C	0.843942	0.864451	0.288224
	C7312	C	0.504518	0.858231	0.230727
	C7313	C	0.754337	0.801570	0.313087
	C7314	C	0.505030	0.760468	0.374394
	C7315	C	0.754496	0.816799	0.291488
	C7316	C	0.504795	0.803850	0.366915
	C7317	C	0.754146	0.860224	0.284115
	C7318	C	0.504344	0.814612	0.237632
	C7319	C	0.754960	0.758170	0.320545
	C7320	C	0.504478	0.850036	0.242044
	C7321	C	0.754423	0.793525	0.324660
	C7322	C	0.505129	0.768500	0.362787
	C7323	C	0.754565	0.824863	0.279946
	C7324	C	0.504783	0.794920	0.358307
	C7325	C	0.754108	0.851312	0.275504
	C7326	C	0.504588	0.823530	0.246298
	C7327	C	0.755065	0.767102	0.329179
	H7328	H	0.663800	0.859107	0.229290
	H7329	H	0.913535	0.802467	0.311736
	H7330	H	0.664094	0.759585	0.375820
	H7331	H	0.913613	0.815829	0.292780
	H7332	H	0.845361	0.805016	0.367399
	H7333	H	0.595150	0.861303	0.284986
	H7334	H	0.845039	0.813726	0.236412
	H7335	H	0.595857	0.757305	0.319422
	H7336	H	0.845849	0.759465	0.375552
	H7337	H	0.595354	0.815957	0.292818
	H7338	H	0.844768	0.859298	0.229596
	H7339	H	0.595376	0.802528	0.311871
	H7340	H	0.663469	0.813461	0.237028
	H7341	H	0.914164	0.757094	0.319786
	H7342	H	0.663861	0.804632	0.368418
	H7343	H	0.913354	0.861170	0.285190
	O7344	O	0.088859	0.852841	0.391630
	O7345	O	0.339295	0.796470	0.474509
	O7346	O	0.089314	0.777772	0.503660
	O7347	O	0.339216	0.834196	0.420825
	O7348	O	0.420591	0.797464	0.500453
	O7349	O	0.170070	0.853930	0.417433
	O7350	O	0.420630	0.833167	0.394954
	O7351	O	0.170468	0.776689	0.477916
	O7352	O	0.420566	0.777679	0.503482
	O7353	O	0.170424	0.834162	0.420798
	O7354	O	0.420119	0.852837	0.391631
	O7355	O	0.170559	0.796451	0.474478
	O7356	O	0.088930	0.833086	0.395086
	O7357	O	0.339318	0.776753	0.477808
	O7358	O	0.089698	0.797527	0.500311
	O7359	O	0.338843	0.853878	0.417545
	F7360	F	0.005312	0.786761	0.479965
	F7361	F	0.254644	0.843111	0.397149
	F7362	F	0.004650	0.843912	0.415357
	F7363	F	0.255141	0.787499	0.498181
	Al7364	Al	0.130158	0.787122	0.489106
	Al7365	Al	0.379672	0.843518	0.406234
	Al7366	Al	0.129617	0.843504	0.406232
	Al7367	Al	0.380052	0.787122	0.489091
	C7368	C	0.093951	0.867936	0.370111
	C7369	C	0.344502	0.811558	0.453015
	C7370	C	0.094451	0.762453	0.524732
	C7371	C	0.344563	0.819087	0.442325
	C7372	C	0.415025	0.814028	0.516782
	C7373	C	0.164715	0.870644	0.433399
	C7374	C	0.415092	0.816565	0.378740
	C7375	C	0.165272	0.759942	0.462023
	C7376	C	0.415612	0.762287	0.524439
	C7377	C	0.165181	0.819151	0.442396
	C7378	C	0.414765	0.867910	0.370073
	C7379	C	0.165119	0.811627	0.453083
	C7380	C	0.094035	0.816334	0.379269
	C7381	C	0.344833	0.760111	0.461691
	C7382	C	0.094761	0.814327	0.516016
	C7383	C	0.344286	0.870552	0.433584
	C7384	C	0.004348	0.864076	0.375570
	C7385	C	0.254778	0.807731	0.458492
	C7386	C	0.004734	0.766311	0.519266
	C7387	C	0.254898	0.822964	0.436900
	C7388	C	0.005009	0.809914	0.512333
	C7389	C	0.254455	0.866332	0.429433
	C7390	C	0.004315	0.820679	0.383066
	C7391	C	0.255045	0.764288	0.465874
	C7392	C	0.004538	0.856029	0.387155
	C7393	C	0.254891	0.799647	0.470009
	C7394	C	0.004916	0.774502	0.507941
	C7395	C	0.254894	0.831009	0.425315
	C7396	C	0.005221	0.800995	0.503700
	C7397	C	0.254428	0.857417	0.420817
	C7398	C	0.004487	0.829615	0.391697
	C7399	C	0.254933	0.773211	0.474533
	H7400	H	0.163419	0.865011	0.374274
	H7401	H	0.413831	0.808597	0.457132
	H7402	H	0.163947	0.765495	0.520789
	H7403	H	0.414003	0.821992	0.438122
	H7404	H	0.345635	0.810637	0.514022
	H7405	H	0.095186	0.867430	0.430242
	H7406	H	0.345877	0.819921	0.381631
	H7407	H	0.095903	0.763125	0.465318
	H7408	H	0.346149	0.765178	0.520249
	H7409	H	0.095664	0.822106	0.438243
	H7410	H	0.345375	0.864970	0.374197
	H7411	H	0.095625	0.808712	0.457272
	H7412	H	0.163377	0.819498	0.382610
	H7413	H	0.414138	0.763412	0.464695
	H7414	H	0.164282	0.811199	0.512606
	H7415	H	0.413789	0.867261	0.430578
	O7416	O	0.588802	0.852818	0.391600
	O7417	O	0.839270	0.796485	0.474534
	O7418	O	0.589348	0.777736	0.503540
	O7419	O	0.838917	0.834170	0.420768
	O7420	O	0.920938	0.797434	0.500465
	O7421	O	0.669805	0.853941	0.417445
	O7422	O	0.920171	0.833147	0.395001
	O7423	O	0.670639	0.776719	0.477907
	O7424	O	0.920592	0.777670	0.503419
	O7425	O	0.670184	0.834229	0.420871
	O7426	O	0.920257	0.852860	0.391657
	O7427	O	0.670558	0.796485	0.474555
	O7428	O	0.589420	0.833078	0.395143
	O7429	O	0.839459	0.776756	0.477757
	O7430	O	0.589316	0.797509	0.500371
	O7431	O	0.838646	0.853881	0.417557
	F7432	F	0.504999	0.786779	0.479980
	F7433	F	0.754635	0.843152	0.397183
	F7434	F	0.504591	0.843954	0.415325
	F7435	F	0.755301	0.787503	0.498167
	Al7436	Al	0.630201	0.787142	0.489077
	Al7437	Al	0.879750	0.843533	0.406272
	Al7438	Al	0.629635	0.843532	0.406254
	Al7439	Al	0.880345	0.787124	0.489022
	C7440	C	0.593803	0.867938	0.370152
	C7441	C	0.844377	0.811558	0.452999
	C7442	C	0.594847	0.762472	0.524746
	C7443	C	0.844321	0.819087	0.442310
	C7444	C	0.915218	0.814046	0.516726
	C7445	C	0.664421	0.870654	0.433383
	C7446	C	0.914619	0.816539	0.378701
	C7447	C	0.665155	0.759974	0.462032
	C7448	C	0.915047	0.762279	0.524392
	C7449	C	0.665006	0.819121	0.442350
	C7450	C	0.914647	0.867909	0.370054
	C7451	C	0.665029	0.811590	0.453035
	C7452	C	0.594443	0.816318	0.379279
	C7453	C	0.844743	0.760078	0.461710
	C7454	C	0.594632	0.814329	0.516030
	C7455	C	0.843844	0.870556	0.433648
	C7456	C	0.504315	0.864053	0.375578
	C7457	C	0.754750	0.807741	0.458517
	C7458	C	0.505184	0.766306	0.519260
	C7459	C	0.754631	0.822956	0.436868
	C7460	C	0.504875	0.809919	0.512337
	C7461	C	0.754219	0.866348	0.429475
	C7462	C	0.504828	0.820697	0.383052
	C7463	C	0.754937	0.764263	0.465946
	C7464	C	0.504434	0.856014	0.387137
	C7465	C	0.754850	0.799661	0.470045
	C7466	C	0.505028	0.774485	0.507915
	C7467	C	0.754564	0.831029	0.425323
	C7468	C	0.504939	0.801008	0.503710
	C7469	C	0.754252	0.857423	0.420814
	C7470	C	0.505015	0.829622	0.391700
	C7471	C	0.755048	0.773213	0.474537
	H7472	H	0.663164	0.865028	0.374332
	H7473	H	0.913885	0.808604	0.457136
	H7474	H	0.664237	0.765516	0.520812
	H7475	H	0.913798	0.822021	0.438143
	H7476	H	0.845763	0.810682	0.513920
	H7477	H	0.595064	0.867441	0.430163
	H7478	H	0.845208	0.819882	0.381585
	H7479	H	0.595882	0.763188	0.465250
	H7480	H	0.845526	0.765173	0.520180
	H7481	H	0.595574	0.822073	0.438222
	H7482	H	0.845167	0.864958	0.374172
	H7483	H	0.595653	0.808657	0.457191
	H7484	H	0.663757	0.819484	0.382631
	H7485	H	0.913971	0.763404	0.464697
	H7486	H	0.664193	0.811202	0.512641
	H7487	H	0.913301	0.867267	0.430648
	O7488	O	0.088726	0.858992	0.537017
	O7489	O	0.339494	0.801784	0.618363
	O7490	O	0.089657	0.782323	0.646155
	O7491	O	0.339220	0.840254	0.566044
	O7492	O	0.420788	0.802405	0.644084
	O7493	O	0.170360	0.860004	0.562790
	O7494	O	0.420140	0.839218	0.540342
	O7495	O	0.170613	0.781932	0.620932
	O7496	O	0.420974	0.782344	0.646203
	O7497	O	0.170467	0.840208	0.565962
	O7498	O	0.420559	0.858973	0.536971
	O7499	O	0.170753	0.801780	0.618387
	O7500	O	0.089278	0.839282	0.540204
	O7501	O	0.339445	0.781925	0.620950
	O7502	O	0.089578	0.802380	0.644189
	O7503	O	0.339286	0.859991	0.562832
	F7504	F	0.005282	0.792015	0.623319
	F7505	F	0.254844	0.849264	0.542432
	F7506	F	0.004963	0.850004	0.560666
	F7507	F	0.255220	0.792379	0.641653
	Al7508	Al	0.130281	0.792194	0.632493
	Al7509	Al	0.379788	0.849631	0.551554
	Al7510	Al	0.129861	0.849626	0.551537
	Al7511	Al	0.380373	0.792181	0.632492
	C7512	C	0.093807	0.874056	0.515481
	C7513	C	0.344486	0.817246	0.597533
	C7514	C	0.094763	0.765551	0.664250
	C7515	C	0.344575	0.824915	0.587121
	C7516	C	0.415519	0.819218	0.659876
	C7517	C	0.165102	0.876688	0.578881
	C7518	C	0.414869	0.822392	0.524722
	C7519	C	0.165439	0.765067	0.605303
	C7520	C	0.415591	0.765625	0.664376
	C7521	C	0.165251	0.824850	0.586979
	C7522	C	0.414974	0.874077	0.515494
	C7523	C	0.165208	0.817167	0.597410
	C7524	C	0.094610	0.822689	0.523954
	C7525	C	0.344699	0.765112	0.605223
	C7526	C	0.094853	0.819116	0.660103
	C7527	C	0.344516	0.876683	0.578844
	C7528	C	0.004066	0.870221	0.520953
	C7529	C	0.254931	0.813263	0.602775
	C7530	C	0.005192	0.769892	0.659788
	C7531	C	0.254857	0.828805	0.581708
	C7532	C	0.005067	0.814879	0.656013
	C7533	C	0.254789	0.872417	0.574863
	C7534	C	0.004797	0.826811	0.528342
	C7535	C	0.255040	0.769383	0.609237
	C7536	C	0.004295	0.862168	0.532525
	C7537	C	0.255081	0.805037	0.614031
	C7538	C	0.005254	0.778827	0.649996
	C7539	C	0.254845	0.836986	0.570375
	C7540	C	0.005125	0.805931	0.647424
	C7541	C	0.254801	0.863484	0.566193
	C7542	C	0.004907	0.835736	0.536973
	C7543	C	0.255025	0.778383	0.617703
	H7544	H	0.163352	0.871113	0.519629
	H7545	H	0.414083	0.814309	0.601612
	H7546	H	0.164154	0.768797	0.660769
	H7547	H	0.414129	0.827898	0.583122
	H7548	H	0.346083	0.815972	0.656778
	H7549	H	0.095820	0.873427	0.575780
	H7550	H	0.345518	0.825532	0.528153
	H7551	H	0.096050	0.768339	0.608329
	H7552	H	0.346269	0.768935	0.661024
	H7553	H	0.095802	0.827812	0.582817
	H7554	H	0.345588	0.871142	0.519653
	H7555	H	0.096041	0.814132	0.601442
	H7556	H	0.164032	0.826069	0.526755
	H7557	H	0.414115	0.768408	0.608182
	H7558	H	0.164307	0.815806	0.657123
	H7559	H	0.413834	0.873427	0.575708
	O7560	O	0.589347	0.858978	0.536999
	O7561	O	0.839326	0.801779	0.618325
	O7562	O	0.589772	0.782299	0.646112
	O7563	O	0.839074	0.840213	0.566001
	O7564	O	0.920766	0.802434	0.644080
	O7565	O	0.670400	0.859968	0.562855
	O7566	O	0.920474	0.839232	0.540328
	O7567	O	0.670846	0.781933	0.620975
	O7568	O	0.920928	0.782343	0.646199
	O7569	O	0.670348	0.840214	0.565990
	O7570	O	0.919973	0.858962	0.536984
	O7571	O	0.670563	0.801795	0.618348
	O7572	O	0.589043	0.839295	0.540150
	O7573	O	0.839664	0.781904	0.620994
	O7574	O	0.589602	0.802363	0.644193
	O7575	O	0.839188	0.859995	0.562855
	F7576	F	0.505206	0.791990	0.623327
	F7577	F	0.754900	0.849236	0.542464
	F7578	F	0.504888	0.850006	0.560625
	F7579	F	0.755456	0.792393	0.641633
	Al7580	Al	0.630199	0.792191	0.632522
	Al7581	Al	0.880024	0.849617	0.551570
	Al7582	Al	0.629876	0.849627	0.551546
	Al7583	Al	0.880470	0.792191	0.632457
	C7584	C	0.594525	0.874048	0.515451
	C7585	C	0.844457	0.817240	0.597518
	C7586	C	0.594797	0.765555	0.664239
	C7587	C	0.844375	0.824909	0.587114
	C7588	C	0.915336	0.819235	0.659869
	C7589	C	0.664903	0.876707	0.578814
	C7590	C	0.915049	0.822409	0.524666
	C7591	C	0.665505	0.765064	0.605338
	C7592	C	0.915428	0.765627	0.664364
	C7593	C	0.664953	0.824873	0.586986
	C7594	C	0.914393	0.874085	0.515479
	C7595	C	0.664971	0.817188	0.597408
	C7596	C	0.594598	0.822697	0.523964
	C7597	C	0.844968	0.765116	0.605237
	C7598	C	0.594966	0.819109	0.660080
	C7599	C	0.844485	0.876673	0.578867
	C7600	C	0.504826	0.870230	0.520967
	C7601	C	0.754777	0.813276	0.602761
	C7602	C	0.505245	0.769883	0.659759
	C7603	C	0.754658	0.828801	0.581703
	C7604	C	0.505161	0.814864	0.656001
	C7605	C	0.754661	0.872422	0.574823
	C7606	C	0.504719	0.826804	0.528344
	C7607	C	0.755225	0.769389	0.609240
	C7608	C	0.504942	0.862157	0.532504
	C7609	C	0.754929	0.805029	0.613964
	C7610	C	0.505375	0.778814	0.649969
	C7611	C	0.754709	0.836987	0.570391
	C7612	C	0.505181	0.805902	0.647448
	C7613	C	0.754713	0.863479	0.566220
	C7614	C	0.504608	0.835746	0.536931
	C7615	C	0.755231	0.778384	0.617713
	H7616	H	0.664090	0.871080	0.519563
	H7617	H	0.914134	0.814293	0.601592
	H7618	H	0.664202	0.768806	0.660765
	H7619	H	0.913964	0.827916	0.583150
	H7620	H	0.845833	0.816017	0.656694
	H7621	H	0.595533	0.873468	0.575681
	H7622	H	0.845563	0.825538	0.528057
	H7623	H	0.596125	0.768308	0.608460
	H7624	H	0.846009	0.768938	0.660977
	H7625	H	0.595620	0.827867	0.582880
	H7626	H	0.844863	0.871164	0.519633
	H7627	H	0.595689	0.814161	0.601446
	H7628	H	0.663967	0.826087	0.526759
	H7629	H	0.914338	0.768386	0.608277
	H7630	H	0.664401	0.815780	0.657152
	H7631	H	0.913878	0.873396	0.575768
	O7632	O	0.089229	0.864288	0.680895
	O7633	O	0.339356	0.802528	0.752900
	O7634	O	0.090035	0.780227	0.774214
	O7635	O	0.339723	0.844752	0.708574
	O7636	O	0.420618	0.801452	0.777709
	O7637	O	0.170593	0.864953	0.706534
	O7638	O	0.420969	0.844450	0.683392
	O7639	O	0.170939	0.782330	0.751572
	O7640	O	0.420905	0.780258	0.774306
	O7641	O	0.170893	0.844863	0.708787
	O7642	O	0.420618	0.864311	0.680960
	O7643	O	0.170695	0.802608	0.753059
	O7644	O	0.089756	0.844396	0.683530
	O7645	O	0.339780	0.782274	0.751681
	O7646	O	0.089430	0.801390	0.777842
	O7647	O	0.339244	0.864848	0.706712
	F7648	F	0.005287	0.792537	0.755351
	F7649	F	0.255112	0.854474	0.685821
	F7650	F	0.005196	0.854886	0.704197
	F7651	F	0.255283	0.791203	0.774099
	Al7652	Al	0.130338	0.791843	0.764806
	Al7653	Al	0.380155	0.854673	0.694995
	Al7654	Al	0.130090	0.854687	0.695017
	Al7655	Al	0.380304	0.791842	0.764801
	C7656	C	0.094351	0.879642	0.659840
	C7657	C	0.344622	0.819488	0.735280
	C7658	C	0.094962	0.760304	0.774179
	C7659	C	0.344742	0.827930	0.726498
	C7660	C	0.415569	0.818807	0.792288
	C7661	C	0.165578	0.881793	0.722208
	C7662	C	0.415587	0.827641	0.667682
	C7663	C	0.165438	0.765011	0.736840
	C7664	C	0.414861	0.760349	0.774416
	C7665	C	0.165601	0.828207	0.727156
	C7666	C	0.415259	0.879741	0.660023
	C7667	C	0.165617	0.819768	0.735941
	C7668	C	0.094861	0.827528	0.667915
	C7669	C	0.345188	0.764975	0.736933
	C7670	C	0.094784	0.818632	0.792727
	C7671	C	0.344769	0.881567	0.722678
	C7672	C	0.004758	0.875763	0.665256
	C7673	C	0.255027	0.815296	0.740046
	C7674	C	0.005029	0.765382	0.774831
	C7675	C	0.255195	0.832374	0.722308
	C7676	C	0.004807	0.814241	0.788949
	C7677	C	0.255088	0.877369	0.718471
	C7678	C	0.005208	0.831898	0.671728
	C7679	C	0.255294	0.769477	0.740448
	C7680	C	0.004868	0.867534	0.676513
	C7681	C	0.255040	0.806174	0.749391
	C7682	C	0.005415	0.776077	0.774479
	C7683	C	0.255274	0.841296	0.712477
	C7684	C	0.004990	0.805026	0.780921
	C7685	C	0.254969	0.868424	0.709929
	C7686	C	0.005299	0.840886	0.680229
	C7687	C	0.255358	0.778698	0.748470
	H7688	H	0.163828	0.876617	0.663826
	H7689	H	0.413958	0.816077	0.738392
	H7690	H	0.164967	0.764117	0.774454
	H7691	H	0.414160	0.831086	0.722766
	H7692	H	0.345812	0.815493	0.789408
	H7693	H	0.096109	0.878615	0.718973
	H7694	H	0.346258	0.830959	0.670667
	H7695	H	0.095624	0.768410	0.739495
	H7696	H	0.345131	0.764206	0.774820
	H7697	H	0.096364	0.831593	0.723959
	H7698	H	0.345806	0.876798	0.664124
	H7699	H	0.096396	0.816596	0.739602
	H7700	H	0.164277	0.830758	0.671058
	H7701	H	0.414864	0.768358	0.739675
	H7702	H	0.164568	0.815160	0.790236
	H7703	H	0.414075	0.878204	0.719857
	O7704	O	0.589234	0.864226	0.680825
	O7705	O	0.839168	0.802517	0.752810
	O7706	O	0.590069	0.780222	0.774172
	O7707	O	0.839624	0.844758	0.708582
	O7708	O	0.920520	0.801461	0.777679
	O7709	O	0.670430	0.864925	0.706541
	O7710	O	0.920952	0.844463	0.683403
	O7711	O	0.670677	0.782343	0.751565
	O7712	O	0.920874	0.780280	0.774352
	O7713	O	0.670824	0.844871	0.708771
	O7714	O	0.920550	0.864297	0.680857
	O7715	O	0.670585	0.802633	0.753081
	O7716	O	0.589852	0.844379	0.683550
	O7717	O	0.839559	0.782250	0.751666
	O7718	O	0.589629	0.801362	0.777858
	O7719	O	0.839233	0.864896	0.706636
	F7720	F	0.505218	0.792516	0.755377
	F7721	F	0.755187	0.854502	0.685848
	F7722	F	0.505065	0.854868	0.704152
	F7723	F	0.755462	0.791191	0.773997
	Al7724	Al	0.630295	0.791860	0.764773
	Al7725	Al	0.880229	0.854688	0.695045
	Al7726	Al	0.630223	0.854675	0.695020
	Al7727	Al	0.880704	0.791854	0.764711
	C7728	C	0.594401	0.879626	0.659856
	C7729	C	0.844558	0.819513	0.735303
	C7730	C	0.595109	0.760310	0.774130
	C7731	C	0.844735	0.827954	0.726511
	C7732	C	0.914981	0.818827	0.792280
	C7733	C	0.665213	0.881783	0.722237
	C7734	C	0.915378	0.827647	0.667684
	C7735	C	0.664967	0.765020	0.736868
	C7736	C	0.914763	0.760337	0.774446
	C7737	C	0.665491	0.828199	0.727085
	C7738	C	0.915026	0.879772	0.660052
	C7739	C	0.665359	0.819769	0.735863
	C7740	C	0.595067	0.827528	0.667888
	C7741	C	0.844698	0.764949	0.736976
	C7742	C	0.595272	0.818623	0.792688
	C7743	C	0.844460	0.881581	0.722714
	C7744	C	0.504834	0.875753	0.665261
	C7745	C	0.754908	0.815304	0.740027
	C7746	C	0.505145	0.765381	0.774837
	C7747	C	0.755138	0.832381	0.722276
	C7748	C	0.505366	0.814224	0.788976
	C7749	C	0.754754	0.877397	0.718472
	C7750	C	0.505341	0.831883	0.671736
	C7751	C	0.754870	0.769483	0.740445
	C7752	C	0.504918	0.867512	0.676517
	C7753	C	0.754878	0.806170	0.749334
	C7754	C	0.505409	0.776071	0.774473
	C7755	C	0.755133	0.841309	0.712482
	C7756	C	0.505196	0.805010	0.780936
	C7757	C	0.754785	0.868429	0.709918
	C7758	C	0.505406	0.840887	0.680188
	C7759	C	0.755013	0.778694	0.748480
	H7760	H	0.663787	0.876581	0.663820
	H7761	H	0.913981	0.816122	0.738471
	H7762	H	0.665126	0.764134	0.774334
	H7763	H	0.914181	0.831130	0.722846
	H7764	H	0.845068	0.815519	0.789418
	H7765	H	0.595834	0.878596	0.719012
	H7766	H	0.845986	0.830974	0.670644
	H7767	H	0.595216	0.768431	0.739524
	H7768	H	0.844917	0.764177	0.774940
	H7769	H	0.596182	0.831593	0.723881
	H7770	H	0.845541	0.876855	0.664209
	H7771	H	0.595891	0.816585	0.739511
	H7772	H	0.664501	0.830760	0.671041
	H7773	H	0.914634	0.768296	0.739725
	H7774	H	0.664846	0.815161	0.790133
	H7775	H	0.913733	0.878211	0.719875
	O7776	O	0.089618	0.865044	0.815342
	O7777	O	0.338543	0.793018	0.835716
	O7778	O	0.088872	0.769058	0.851716
	O7779	O	0.340220	0.842726	0.836615
	O7780	O	0.419749	0.790140	0.857787
	O7781	O	0.171054	0.863940	0.840188
	O7782	O	0.421157	0.844811	0.814032
	O7783	O	0.169809	0.771932	0.829753
	O7784	O	0.419851	0.769073	0.851827
	O7785	O	0.171073	0.842769	0.836726
	O7786	O	0.421038	0.865079	0.815410
	O7787	O	0.169503	0.793056	0.835867
	O7788	O	0.089904	0.844759	0.814142
	O7789	O	0.338660	0.771900	0.829816
	O7790	O	0.088344	0.790066	0.857901
	O7791	O	0.339897	0.863916	0.840213
	F7792	F	0.004536	0.782339	0.834356
	F7793	F	0.255445	0.855032	0.817773
	F7794	F	0.006010	0.853685	0.836567
	F7795	F	0.254188	0.779766	0.853151
	Al7796	Al	0.129358	0.781048	0.843779
	Al7797	Al	0.380478	0.854343	0.827200
	Al7798	Al	0.130597	0.854347	0.827219
	Al7799	Al	0.379142	0.781044	0.843767
	C7800	C	0.094826	0.882043	0.797898
	C7801	C	0.344667	0.812941	0.835615
	C7802	C	0.093958	0.749134	0.851589
	C7803	C	0.345165	0.822805	0.836557
	C7804	C	0.414544	0.807847	0.871747
	C7805	C	0.165652	0.881260	0.854871
	C7806	C	0.415650	0.827551	0.799202
	C7807	C	0.164358	0.754327	0.815500
	C7808	C	0.413938	0.749164	0.851880
	C7809	C	0.165023	0.822868	0.836984
	C7810	C	0.415761	0.882206	0.798208
	C7811	C	0.164548	0.812985	0.836028
	C7812	C	0.095029	0.827385	0.799628
	C7813	C	0.344182	0.754215	0.815839
	C7814	C	0.093933	0.807730	0.872045
	C7815	C	0.345464	0.881169	0.855102
	C7816	C	0.005098	0.877783	0.802505
	C7817	C	0.254364	0.807897	0.835389
	C7818	C	0.004104	0.754208	0.852190
	C7819	C	0.255370	0.827894	0.837314
	C7820	C	0.003986	0.803142	0.868656
	C7821	C	0.255522	0.876731	0.851422
	C7822	C	0.005218	0.831981	0.802933
	C7823	C	0.254245	0.758895	0.818930
	C7824	C	0.005238	0.868654	0.811825
	C7825	C	0.254093	0.797213	0.835659
	C7826	C	0.004244	0.764893	0.851948
	C7827	C	0.255580	0.838577	0.836905
	C7828	C	0.003957	0.793765	0.860934
	C7829	C	0.255481	0.867541	0.843339
	C7830	C	0.005390	0.841222	0.810903
	C7831	C	0.254212	0.768258	0.826685
	H7832	H	0.164267	0.878688	0.801139
	H7833	H	0.414506	0.809103	0.835027
	H7834	H	0.163951	0.752954	0.851872
	H7835	H	0.415420	0.826602	0.836690
	H7836	H	0.344349	0.804451	0.869202
	H7837	H	0.095849	0.877925	0.852049
	H7838	H	0.345843	0.830993	0.801713
	H7839	H	0.094323	0.757835	0.817783
	H7840	H	0.344117	0.753013	0.852383
	H7841	H	0.095279	0.826747	0.837473
	H7842	H	0.346325	0.878985	0.801749
	H7843	H	0.094358	0.809184	0.835796
	H7844	H	0.164955	0.830692	0.802477
	H7845	H	0.414258	0.757633	0.818404
	H7846	H	0.164071	0.804230	0.869758
	H7847	H	0.415128	0.877747	0.852479
	O7848	O	0.589665	0.865001	0.815304
	O7849	O	0.838469	0.793035	0.835702
	O7850	O	0.588942	0.769047	0.851660
	O7851	O	0.840111	0.842680	0.836665
	O7852	O	0.919481	0.790099	0.857838
	O7853	O	0.670518	0.863947	0.840157
	O7854	O	0.921006	0.844868	0.813978
	O7855	O	0.669498	0.771965	0.829662
	O7856	O	0.919826	0.769092	0.851904
	O7857	O	0.670910	0.842759	0.836793
	O7858	O	0.920990	0.865062	0.815443
	O7859	O	0.669433	0.793053	0.835805
	O7860	O	0.590126	0.844758	0.814111
	O7861	O	0.838334	0.771886	0.829795
	O7862	O	0.588565	0.790091	0.857841
	O7863	O	0.839443	0.863909	0.840271
	F7864	F	0.504113	0.782342	0.834384
	F7865	F	0.755608	0.855023	0.817840
	F7866	F	0.505427	0.853691	0.836473
	F7867	F	0.754239	0.779769	0.853067
	Al7868	Al	0.629243	0.781049	0.843739
	Al7869	Al	0.880599	0.854344	0.827265
	Al7870	Al	0.630487	0.854349	0.827212
	Al7871	Al	0.879683	0.781050	0.843732
	C7872	C	0.594943	0.882051	0.797899
	C7873	C	0.844423	0.812934	0.835700
	C7874	C	0.594259	0.749122	0.851518
	C7875	C	0.844795	0.822796	0.836661
	C7876	C	0.914078	0.807832	0.871850
	C7877	C	0.665055	0.881284	0.854840
	C7878	C	0.915182	0.827579	0.799186
	C7879	C	0.663887	0.754348	0.815449
	C7880	C	0.913840	0.749161	0.851924
	C7881	C	0.664649	0.822860	0.836978
	C7882	C	0.915509	0.882204	0.798252
	C7883	C	0.664314	0.812981	0.836005
	C7884	C	0.595275	0.827372	0.799592
	C7885	C	0.843751	0.754215	0.815824
	C7886	C	0.594229	0.807726	0.872022
	C7887	C	0.844926	0.881153	0.855130
	C7888	C	0.505374	0.877773	0.802457
	C7889	C	0.754125	0.807896	0.835368
	C7890	C	0.504193	0.754202	0.852207
	C7891	C	0.754980	0.827879	0.837343
	C7892	C	0.504283	0.803137	0.868639
	C7893	C	0.754952	0.876746	0.851398
	C7894	C	0.505556	0.831961	0.802927
	C7895	C	0.753839	0.758903	0.818890
	C7896	C	0.505411	0.868652	0.811788
	C7897	C	0.753965	0.797217	0.835623
	C7898	C	0.504343	0.764885	0.851918
	C7899	C	0.755351	0.838555	0.836953
	C7900	C	0.504208	0.793775	0.860906
	C7901	C	0.754945	0.867548	0.843332
	C7902	C	0.505603	0.841191	0.810920
	C7903	C	0.753889	0.768265	0.826641
	H7904	H	0.664364	0.878705	0.801173
	H7905	H	0.914286	0.809102	0.835189
	H7906	H	0.664243	0.752957	0.851735
	H7907	H	0.914956	0.826587	0.836871
	H7908	H	0.843833	0.804404	0.869400
	H7909	H	0.595194	0.877942	0.852017
	H7910	H	0.845496	0.831063	0.801686
	H7911	H	0.593896	0.757864	0.817720
	H7912	H	0.843989	0.752991	0.852490
	H7913	H	0.594985	0.826737	0.837442
	H7914	H	0.846015	0.878973	0.801781
	H7915	H	0.594287	0.809151	0.835748
	H7916	H	0.665066	0.830687	0.802444
	H7917	H	0.913744	0.757627	0.818407
	H7918	H	0.664321	0.804232	0.869703
	H7919	H	0.914643	0.877705	0.852566
	O7920	O	0.089033	0.855520	0.898240
	O7921	O	0.337828	0.781800	0.913192
	O7922	O	0.087854	0.759487	0.934543
	O7923	O	0.339208	0.831533	0.914177
	O7924	O	0.418481	0.779805	0.935929
	O7925	O	0.170316	0.852686	0.920220
	O7926	O	0.420362	0.834449	0.892200
	O7927	O	0.169316	0.760670	0.909751
	O7928	O	0.419379	0.759581	0.934776
	O7929	O	0.170241	0.831583	0.914274
	O7930	O	0.420236	0.855523	0.898277
	O7931	O	0.168651	0.781857	0.913378
	O7932	O	0.089003	0.834419	0.892269
	O7933	O	0.338139	0.760608	0.909926
	O7934	O	0.087297	0.779744	0.935933
	O7935	O	0.339187	0.852642	0.920308
	F7936	F	0.003918	0.770871	0.913437
	F7937	F	0.254644	0.844841	0.896892
	F7938	F	0.005104	0.842259	0.915681
	F7939	F	0.253234	0.769567	0.932246
	Al7940	Al	0.128550	0.770234	0.922754
	Al7941	Al	0.379703	0.843547	0.906255
	Al7942	Al	0.129865	0.843557	0.906250
	Al7943	Al	0.378292	0.770236	0.922808
	C7944	C	0.094879	0.875426	0.898224
	C7945	C	0.343900	0.801723	0.913026
	C7946	C	0.092761	0.742332	0.951695
	C7947	C	0.344193	0.811597	0.914015
	C7948	C	0.413401	0.797194	0.950410
	C7949	C	0.164996	0.870390	0.934220
	C7950	C	0.414728	0.816823	0.878019
	C7951	C	0.163764	0.743415	0.894872
	C7952	C	0.414132	0.742566	0.952234
	C7953	C	0.164098	0.811658	0.914408
	C7954	C	0.414855	0.875457	0.898470
	C7955	C	0.163817	0.801782	0.913430
	C7956	C	0.094049	0.816725	0.878260
	C7957	C	0.343559	0.743268	0.895260
	C7958	C	0.092979	0.796969	0.950860
	C7959	C	0.344675	0.870296	0.934443
	C7960	C	0.004628	0.870385	0.897837
	C7961	C	0.253643	0.796690	0.912700
	C7962	C	0.003324	0.746801	0.947549
	C7963	C	0.254283	0.816693	0.914731
	C7964	C	0.002956	0.792591	0.947062
	C7965	C	0.254827	0.865697	0.931083
	C7966	C	0.004307	0.821406	0.881428
	C7967	C	0.253746	0.747815	0.898645
	C7968	C	0.004593	0.859700	0.898076
	C7969	C	0.253359	0.786003	0.913074
	C7970	C	0.003490	0.755920	0.938209
	C7971	C	0.254581	0.827381	0.914405
	C7972	C	0.002859	0.783382	0.939049
	C7973	C	0.254781	0.856322	0.923364
	C7974	C	0.004416	0.830786	0.889153
	C7975	C	0.253760	0.757015	0.906703
	H7976	H	0.164745	0.871584	0.897712
	H7977	H	0.413579	0.797873	0.912490
	H7978	H	0.162133	0.745517	0.948066
	H7979	H	0.414296	0.815411	0.914207
	H7980	H	0.343540	0.793900	0.947498
	H7981	H	0.094759	0.866986	0.931682
	H7982	H	0.344749	0.820347	0.880284
	H7983	H	0.094019	0.746877	0.897396
	H7984	H	0.344777	0.745968	0.949080
	H7985	H	0.094207	0.815504	0.914930
	H7986	H	0.344769	0.871637	0.898238
	H7987	H	0.093574	0.797978	0.913247
	H7988	H	0.164258	0.820146	0.880724
	H7989	H	0.413326	0.746607	0.898100
	H7990	H	0.162627	0.793486	0.948359
	H7991	H	0.414730	0.866816	0.932084
	O7992	O	0.589340	0.855508	0.898219
	O7993	O	0.837106	0.781821	0.913087
	O7994	O	0.588018	0.759475	0.934556
	O7995	O	0.839023	0.831511	0.914283
	O7996	O	0.918357	0.779805	0.935849
	O7997	O	0.669841	0.852678	0.920285
	O7998	O	0.920109	0.834514	0.892169
	O7999	O	0.668783	0.760656	0.909799
	O8000	O	0.919326	0.759572	0.934681
	O8001	O	0.669976	0.831575	0.914391
	O8002	O	0.919946	0.855521	0.898278
	O8003	O	0.667922	0.781866	0.913371
	O8004	O	0.589226	0.834393	0.892311
	O8005	O	0.837638	0.760613	0.909823
	O8006	O	0.587469	0.779735	0.936024
	O8007	O	0.838726	0.852649	0.920354
	F8008	F	0.503291	0.770882	0.913556
	F8009	F	0.754856	0.844838	0.896988
	F8010	F	0.504652	0.842245	0.915651
	F8011	F	0.753520	0.769556	0.932161
	Al8012	Al	0.628378	0.770233	0.922812
	Al8013	Al	0.880158	0.843533	0.906335
	Al8014	Al	0.629718	0.843539	0.906291
	Al8015	Al	0.878485	0.770247	0.922738
	C8016	C	0.595169	0.875419	0.898180
	C8017	C	0.843237	0.801730	0.912984
	C8018	C	0.593279	0.742330	0.951699
	C8019	C	0.843732	0.811597	0.914014
	C8020	C	0.913269	0.797206	0.950325
	C8021	C	0.664313	0.870377	0.934242
	C8022	C	0.914263	0.816822	0.878059
	C8023	C	0.663080	0.743384	0.895013
	C8024	C	0.913762	0.742563	0.952245
	C8025	C	0.663600	0.811654	0.914455
	C8026	C	0.914691	0.875470	0.898518
	C8027	C	0.663130	0.801783	0.913438
	C8028	C	0.594439	0.816703	0.878286
	C8029	C	0.842917	0.743303	0.895200
	C8030	C	0.593225	0.796980	0.950895
	C8031	C	0.844024	0.870314	0.934419
	C8032	C	0.504875	0.870382	0.897771
	C8033	C	0.752862	0.796695	0.912677
	C8034	C	0.503700	0.746786	0.947537
	C8035	C	0.753996	0.816686	0.914754
	C8036	C	0.503223	0.792587	0.947133
	C8037	C	0.754136	0.865703	0.931088
	C8038	C	0.504687	0.821384	0.881441
	C8039	C	0.753115	0.747822	0.898633
	C8040	C	0.504801	0.859692	0.898057
	C8041	C	0.752579	0.786015	0.913009
	C8042	C	0.503695	0.755922	0.938249
	C8043	C	0.754376	0.827371	0.914498
	C8044	C	0.503019	0.783364	0.939134
	C8045	C	0.754249	0.856323	0.923393
	C8046	C	0.504780	0.830753	0.889177
	C8047	C	0.753174	0.757015	0.906686
	H8048	H	0.665051	0.871571	0.897697
	H8049	H	0.912985	0.797861	0.912422
	H8050	H	0.662615	0.745537	0.948084
	H8051	H	0.913966	0.815390	0.914239
	H8052	H	0.843350	0.793930	0.947400
	H8053	H	0.594150	0.866960	0.931746
	H8054	H	0.844229	0.820321	0.880367
	H8055	H	0.593524	0.746815	0.897666
	H8056	H	0.844446	0.745952	0.949069
	H8057	H	0.593863	0.815512	0.915022
	H8058	H	0.844587	0.871664	0.898258
	H8059	H	0.592967	0.797995	0.913252
	H8060	H	0.664601	0.820120	0.880783
	H8061	H	0.912600	0.746655	0.897997
	H8062	H	0.662800	0.793503	0.948363
	H8063	H	0.914107	0.866827	0.932071
	O8064	O	0.088814	0.980509	0.023208
	O8065	O	0.338645	0.906811	0.038292
	O8066	O	0.088649	0.884493	0.059572
	O8067	O	0.339401	0.956555	0.039258
	O8068	O	0.419606	0.904783	0.060974
	O8069	O	0.169858	0.977712	0.045217
	O8070	O	0.420449	0.959500	0.017197
	O8071	O	0.169846	0.885649	0.034817
	O8072	O	0.419828	0.884549	0.059724
	O8073	O	0.170423	0.956558	0.039201
	O8074	O	0.419843	0.980540	0.023339
	O8075	O	0.169470	0.906851	0.038351
	O8076	O	0.088879	0.959443	0.017265
	O8077	O	0.338786	0.885573	0.034935
	O8078	O	0.088337	0.904748	0.060998
	O8079	O	0.338693	0.977638	0.045363
	F8080	F	0.004527	0.895878	0.038460
	F8081	F	0.254599	0.969829	0.021894
	F8082	F	0.005146	0.967245	0.040716
	F8083	F	0.254069	0.894551	0.057246
	Al8084	Al	0.129209	0.895239	0.047792
	Al8085	Al	0.379614	0.968547	0.031302
	Al8086	Al	0.129761	0.968548	0.031271
	Al8087	Al	0.379049	0.895234	0.047838
	C8088	C	0.094554	1.000407	0.023190
	C8089	C	0.344422	0.926722	0.038222
	C8090	C	0.093621	0.867362	0.076779
	C8091	C	0.344760	0.936604	0.039209
	C8092	C	0.414390	0.922098	0.075680
	C8093	C	0.164513	0.995378	0.059283
	C8094	C	0.415097	0.941833	0.003085
	C8095	C	0.164173	0.868395	0.019977
	C8096	C	0.414345	0.867511	0.077057
	C8097	C	0.164521	0.936645	0.039245
	C8098	C	0.414777	1.000464	0.023341
	C8099	C	0.164181	0.926780	0.038262
	C8100	C	0.094394	0.941815	0.003152
	C8101	C	0.343749	0.868244	0.020291
	C8102	C	0.093753	0.922070	0.075693
	C8103	C	0.344160	0.995332	0.059425
	C8104	C	0.004347	0.995370	0.022799
	C8105	C	0.254174	0.921695	0.037715
	C8106	C	0.004008	0.871779	0.072481
	C8107	C	0.254808	0.941689	0.039659
	C8108	C	0.003909	0.917586	0.072130
	C8109	C	0.254356	0.990717	0.056098
	C8110	C	0.004482	0.946459	0.006390
	C8111	C	0.254040	0.872811	0.023659
	C8112	C	0.004300	0.984680	0.023078
	C8113	C	0.254121	0.911004	0.038081
	C8114	C	0.004239	0.880928	0.063217
	C8115	C	0.254948	0.952378	0.039388
	C8116	C	0.003880	0.908362	0.064119
	C8117	C	0.254288	0.981347	0.048365
	C8118	C	0.004388	0.955814	0.014154
	C8119	C	0.254266	0.881995	0.031744
	H8120	H	0.164415	0.996563	0.022716
	H8121	H	0.414182	0.922861	0.037876
	H8122	H	0.163147	0.870597	0.073284
	H8123	H	0.414733	0.940414	0.039626
	H8124	H	0.344514	0.918738	0.072949
	H8125	H	0.094324	0.991958	0.056824
	H8126	H	0.344963	0.945292	0.005487
	H8127	H	0.094609	0.871830	0.022605
	H8128	H	0.344914	0.870852	0.073797
	H8129	H	0.094588	0.940490	0.039697
	H8130	H	0.344797	0.996646	0.023007
	H8131	H	0.093980	0.922973	0.037950
	H8132	H	0.164555	0.945259	0.005588
	H8133	H	0.413475	0.871554	0.023189
	H8134	H	0.163595	0.918670	0.073049
	H8135	H	0.414367	0.991874	0.057063
	O8136	O	0.588955	0.980510	0.023238
	O8137	O	0.837998	0.906836	0.038221
	O8138	O	0.588505	0.884506	0.059578
	O8139	O	0.838798	0.956515	0.039369
	O8140	O	0.919457	0.904768	0.060944
	O8141	O	0.669388	0.977664	0.045306
	O8142	O	0.919975	0.959503	0.017215
	O8143	O	0.669382	0.885660	0.034806
	O8144	O	0.919993	0.884562	0.059678
	O8145	O	0.669738	0.956561	0.039316
	O8146	O	0.919713	0.980500	0.023320
	O8147	O	0.668889	0.906855	0.038381
	O8148	O	0.589273	0.959463	0.017237
	O8149	O	0.838302	0.885583	0.034899
	O8150	O	0.588566	0.904723	0.061049
	O8151	O	0.838282	0.977641	0.045421
	F8152	F	0.503962	0.895901	0.038537
	F8153	F	0.754852	0.969817	0.022029
	F8154	F	0.504516	0.967244	0.040663
	F8155	F	0.754160	0.894543	0.057171
	Al8156	Al	0.628996	0.895250	0.047798
	Al8157	Al	0.880019	0.968525	0.031374
	Al8158	Al	0.629573	0.968540	0.031305
	Al8159	Al	0.879205	0.895234	0.047770
	C8160	C	0.594810	1.000417	0.023202
	C8161	C	0.843697	0.926739	0.038132
	C8162	C	0.593684	0.867403	0.076821
	C8163	C	0.843983	0.936617	0.039150
	C8164	C	0.914115	0.922108	0.075642
	C8165	C	0.663609	0.995349	0.059311
	C8166	C	0.914559	0.941814	0.003133
	C8167	C	0.663537	0.868442	0.019865
	C8168	C	0.914267	0.867519	0.077070
	C8169	C	0.663810	0.936642	0.039198
	C8170	C	0.914446	1.000449	0.023466
	C8171	C	0.663574	0.926779	0.038198
	C8172	C	0.594878	0.941821	0.003113
	C8173	C	0.843489	0.868247	0.020310
	C8174	C	0.594131	0.922033	0.075809
	C8175	C	0.843292	0.995311	0.059456
	C8176	C	0.504623	0.995383	0.022791
	C8177	C	0.753516	0.921700	0.037677
	C8178	C	0.504016	0.871791	0.072499
	C8179	C	0.753997	0.941685	0.039671
	C8180	C	0.504202	0.917567	0.072216
	C8181	C	0.753507	0.990687	0.056159
	C8182	C	0.504950	0.946465	0.006385
	C8183	C	0.753618	0.872822	0.023638
	C8184	C	0.504439	0.984698	0.023086
	C8185	C	0.753457	0.911015	0.038085
	C8186	C	0.504200	0.880923	0.063229
	C8187	C	0.754154	0.952367	0.039475
	C8188	C	0.504133	0.908353	0.064167
	C8189	C	0.753758	0.981309	0.048450
	C8190	C	0.504850	0.955817	0.014144
	C8191	C	0.753761	0.882009	0.031719
	H8192	H	0.664705	0.996572	0.022761
	H8193	H	0.913637	0.922887	0.037729
	H8194	H	0.663179	0.870660	0.073353
	H8195	H	0.913975	0.940435	0.039535
	H8196	H	0.844272	0.918739	0.072946
	H8197	H	0.593465	0.991921	0.056834
	H8198	H	0.844326	0.945266	0.005539
	H8199	H	0.593921	0.871918	0.022406
	H8200	H	0.844829	0.870887	0.073821
	H8201	H	0.593998	0.940483	0.039619
	H8202	H	0.844337	0.996637	0.023213
	H8203	H	0.593539	0.922966	0.037850
	H8204	H	0.665049	0.945280	0.005515
	H8205	H	0.913296	0.871565	0.023213
	H8206	H	0.664054	0.918623	0.073196
	H8207	H	0.913548	0.991860	0.057128
	O8208	O	0.088118	0.969323	0.100749
	O8209	O	0.338405	0.904713	0.166236
	O8210	O	0.088482	0.885276	0.194072
	O8211	O	0.338218	0.947036	0.122077
	O8212	O	0.419608	0.905123	0.191545
	O8213	O	0.169066	0.967259	0.123411
	O8214	O	0.419581	0.948156	0.097288
	O8215	O	0.169751	0.884687	0.168322
	O8216	O	0.420050	0.885326	0.194162
	O8217	O	0.169590	0.947009	0.122049
	O8218	O	0.419131	0.969361	0.100790
	O8219	O	0.169640	0.904765	0.166277
	O8220	O	0.088216	0.948169	0.097210
	O8221	O	0.338545	0.884642	0.168388
	O8222	O	0.088546	0.905136	0.191556
	O8223	O	0.337915	0.967297	0.123379
	F8224	F	0.004330	0.894681	0.170787
	F8225	F	0.253753	0.958394	0.100954
	F8226	F	0.003801	0.957038	0.119673
	F8227	F	0.254082	0.895098	0.189125
	Al8228	Al	0.129175	0.894897	0.179961
	Al8229	Al	0.378855	0.957755	0.110238
	Al8230	Al	0.128854	0.957742	0.110237
	Al8231	Al	0.379181	0.894879	0.179965
	C8232	C	0.093770	0.989249	0.100665
	C8233	C	0.343859	0.921493	0.148135
	C8234	C	0.093627	0.869805	0.214869
	C8235	C	0.343841	0.929931	0.139362
	C8236	C	0.414310	0.921951	0.207256
	C8237	C	0.163473	0.984599	0.138097
	C8238	C	0.414401	0.930859	0.082555
	C8239	C	0.164418	0.867917	0.152439
	C8240	C	0.414724	0.869907	0.215087
	C8241	C	0.164492	0.929946	0.139396
	C8242	C	0.413948	0.989277	0.100888
	C8243	C	0.164602	0.921498	0.148174
	C8244	C	0.093710	0.930822	0.082603
	C8245	C	0.343671	0.867844	0.152594
	C8246	C	0.093538	0.921996	0.207175
	C8247	C	0.343064	0.984584	0.138157
	C8248	C	0.003692	0.984199	0.100233
	C8249	C	0.254261	0.917160	0.152607
	C8250	C	0.004016	0.873800	0.209665
	C8251	C	0.254075	0.934273	0.134929
	C8252	C	0.003946	0.917666	0.203294
	C8253	C	0.253286	0.980094	0.134589
	C8254	C	0.003902	0.935342	0.086077
	C8255	C	0.254034	0.872184	0.156467
	C8256	C	0.003647	0.973511	0.100585
	C8257	C	0.254086	0.908243	0.162439
	C8258	C	0.004072	0.882046	0.198456
	C8259	C	0.253967	0.943407	0.125634
	C8260	C	0.004095	0.908672	0.194818
	C8261	C	0.253392	0.970875	0.126566
	C8262	C	0.003772	0.944549	0.094103
	C8263	C	0.254101	0.881142	0.165038
	H8264	H	0.163640	0.985404	0.100248
	H8265	H	0.413250	0.918222	0.151608
	H8266	H	0.163070	0.872739	0.210752
	H8267	H	0.413222	0.933233	0.135949
	H8268	H	0.344920	0.918657	0.204262
	H8269	H	0.093704	0.981231	0.135362
	H8270	H	0.344587	0.934266	0.085180
	H8271	H	0.094955	0.871202	0.155427
	H8272	H	0.345198	0.872942	0.211135
	H8273	H	0.094952	0.933234	0.136036
	H8274	H	0.343987	0.985458	0.100595
	H8275	H	0.095141	0.918246	0.151667
	H8276	H	0.163395	0.934190	0.085350
	H8277	H	0.413010	0.871081	0.155715
	H8278	H	0.162899	0.918738	0.204096
	H8279	H	0.412893	0.981208	0.135467
	O8280	O	0.588328	0.969340	0.100708
	O8281	O	0.838220	0.904745	0.166213
	O8282	O	0.588780	0.885255	0.194028
	O8283	O	0.838016	0.947012	0.122095
	O8284	O	0.919757	0.905143	0.191510
	O8285	O	0.668910	0.967274	0.123419
	O8286	O	0.919367	0.948171	0.097266
	O8287	O	0.669495	0.884689	0.168326
	O8288	O	0.919765	0.885318	0.194110
	O8289	O	0.669455	0.947015	0.122033
	O8290	O	0.918952	0.969338	0.100842
	O8291	O	0.669388	0.904758	0.166259
	O8292	O	0.588485	0.948180	0.097249
	O8293	O	0.838293	0.884648	0.168361
	O8294	O	0.588446	0.905123	0.191548
	O8295	O	0.837760	0.967305	0.123444
	F8296	F	0.504052	0.894669	0.170804
	F8297	F	0.754160	0.958399	0.101016
	F8298	F	0.503850	0.957082	0.119643
	F8299	F	0.754171	0.895115	0.189100
	Al8300	Al	0.629074	0.894905	0.179957
	Al8301	Al	0.879252	0.957731	0.110336
	Al8302	Al	0.628977	0.957746	0.110233
	Al8303	Al	0.879275	0.894893	0.179900
	C8304	C	0.594018	0.989257	0.100661
	C8305	C	0.843489	0.921478	0.148113
	C8306	C	0.594104	0.869813	0.214906
	C8307	C	0.843509	0.929924	0.139357
	C8308	C	0.914290	0.921967	0.207253
	C8309	C	0.663145	0.984614	0.138076
	C8310	C	0.914097	0.930859	0.082545
	C8311	C	0.664145	0.867928	0.152445
	C8312	C	0.914292	0.869925	0.215066
	C8313	C	0.664161	0.929942	0.139364
	C8314	C	0.913590	0.989274	0.100780
	C8315	C	0.664164	0.921494	0.148127
	C8316	C	0.594059	0.930795	0.082690
	C8317	C	0.843451	0.867851	0.152619
	C8318	C	0.593706	0.921974	0.207200
	C8319	C	0.842629	0.984587	0.138172
	C8320	C	0.503894	0.984207	0.100258
	C8321	C	0.753850	0.917188	0.152647
	C8322	C	0.504407	0.873791	0.209666
	C8323	C	0.753765	0.934277	0.134949
	C8324	C	0.503999	0.917671	0.203260
	C8325	C	0.752927	0.980111	0.134579
	C8326	C	0.504168	0.935326	0.086155
	C8327	C	0.753846	0.872168	0.156523
	C8328	C	0.503754	0.973518	0.100562
	C8329	C	0.753787	0.908262	0.162443
	C8330	C	0.504437	0.882029	0.198435
	C8331	C	0.753692	0.943411	0.125654
	C8332	C	0.504006	0.908670	0.194794
	C8333	C	0.753192	0.970887	0.126592
	C8334	C	0.504098	0.944543	0.094167
	C8335	C	0.753850	0.881149	0.165032
	H8336	H	0.663924	0.985424	0.100204
	H8337	H	0.913002	0.918185	0.151559
	H8338	H	0.663535	0.872772	0.210790
	H8339	H	0.912871	0.933221	0.135952
	H8340	H	0.845011	0.918684	0.204238
	H8341	H	0.593430	0.981238	0.135353
	H8342	H	0.844340	0.934255	0.085235
	H8343	H	0.594875	0.871240	0.155417
	H8344	H	0.844932	0.872968	0.211111
	H8345	H	0.594698	0.933233	0.135984
	H8346	H	0.843626	0.985441	0.100473
	H8347	H	0.594728	0.918220	0.151560
	H8348	H	0.663898	0.934152	0.085451
	H8349	H	0.912734	0.871095	0.155723
	H8350	H	0.663062	0.918697	0.204145
	H8351	H	0.912427	0.981195	0.135531
	O8352	O	0.087771	0.967215	0.228743
	O8353	O	0.338524	0.909362	0.308980
	O8354	O	0.088525	0.890582	0.337943
	O8355	O	0.338203	0.947787	0.256586
	O8356	O	0.419981	0.910260	0.334754
	O8357	O	0.169334	0.967657	0.253986
	O8358	O	0.419477	0.947162	0.230851
	O8359	O	0.169940	0.889580	0.312068
	O8360	O	0.419916	0.890552	0.337892
	O8361	O	0.169488	0.947827	0.256634
	O8362	O	0.419233	0.967235	0.228797
	O8363	O	0.169752	0.909321	0.308900
	O8364	O	0.088522	0.947159	0.230879
	O8365	O	0.338720	0.889582	0.312092
	O8366	O	0.088244	0.910299	0.334663
	O8367	O	0.338134	0.967602	0.254104
	F8368	F	0.004252	0.899540	0.314287
	F8369	F	0.253855	0.957206	0.233291
	F8370	F	0.003833	0.957567	0.251656
	F8371	F	0.254202	0.900310	0.332497
	Al8372	Al	0.129172	0.899936	0.323378
	Al8373	Al	0.378843	0.957379	0.242491
	Al8374	Al	0.128850	0.957399	0.242470
	Al8375	Al	0.379276	0.899923	0.323399
	C8376	C	0.092953	0.983953	0.210640
	C8377	C	0.343625	0.924673	0.287863
	C8378	C	0.093904	0.875486	0.359443
	C8379	C	0.343534	0.932355	0.277473
	C8380	C	0.414325	0.926966	0.350734
	C8381	C	0.164141	0.984537	0.269546
	C8382	C	0.414330	0.930371	0.215039
	C8383	C	0.164743	0.872886	0.296060
	C8384	C	0.414767	0.875461	0.359389
	C8385	C	0.164229	0.932385	0.277503
	C8386	C	0.413853	0.983980	0.210740
	C8387	C	0.164249	0.924687	0.287895
	C8388	C	0.093511	0.930422	0.214955
	C8389	C	0.344108	0.872855	0.296158
	C8390	C	0.093448	0.927047	0.350519
	C8391	C	0.343195	0.984397	0.269919
	C8392	C	0.003174	0.979666	0.215166
	C8393	C	0.253999	0.920741	0.293196
	C8394	C	0.004296	0.879334	0.353980
	C8395	C	0.253856	0.936292	0.272148
	C8396	C	0.003653	0.922726	0.346637
	C8397	C	0.253710	0.980164	0.265761
	C8398	C	0.003917	0.934688	0.218991
	C8399	C	0.254332	0.877129	0.300149
	C8400	C	0.003298	0.970731	0.224951
	C8401	C	0.254112	0.912552	0.304514
	C8402	C	0.004234	0.887413	0.342453
	C8403	C	0.253852	0.944551	0.260959
	C8404	C	0.003848	0.913777	0.338046
	C8405	C	0.253718	0.971179	0.257272
	C8406	C	0.004104	0.943653	0.227535
	C8407	C	0.254358	0.886066	0.308764
	H8408	H	0.162386	0.980653	0.214052
	H8409	H	0.413095	0.921681	0.291912
	H8410	H	0.163274	0.878435	0.355311
	H8411	H	0.412986	0.935352	0.273457
	H8412	H	0.344950	0.923664	0.347748
	H8413	H	0.094767	0.981338	0.266372
	H8414	H	0.344981	0.933622	0.218118
	H8415	H	0.095317	0.876143	0.299105
	H8416	H	0.345446	0.878393	0.355198
	H8417	H	0.094725	0.935410	0.273519
	H8418	H	0.344592	0.980692	0.214236
	H8419	H	0.094844	0.921716	0.291979
	H8420	H	0.162767	0.933720	0.217943
	H8421	H	0.413441	0.876098	0.299285
	H8422	H	0.162923	0.923835	0.347315
	H8423	H	0.412654	0.981082	0.267055
	O8424	O	0.588073	0.967217	0.228778
	O8425	O	0.838341	0.909324	0.308906
	O8426	O	0.588569	0.890614	0.338000
	O8427	O	0.838030	0.947775	0.256593
	O8428	O	0.919512	0.910250	0.334742
	O8429	O	0.669188	0.967639	0.253987
	O8430	O	0.919725	0.947179	0.230822
	O8431	O	0.669904	0.889559	0.312083
	O8432	O	0.919862	0.890604	0.338017
	O8433	O	0.669338	0.947776	0.256581
	O8434	O	0.918933	0.967231	0.228781
	O8435	O	0.669587	0.909318	0.308911
	O8436	O	0.588284	0.947172	0.230796
	O8437	O	0.838670	0.889545	0.312059
	O8438	O	0.588727	0.910319	0.334654
	O8439	O	0.837964	0.967600	0.254096
	F8440	F	0.504164	0.899542	0.314307
	F8441	F	0.753868	0.957171	0.233338
	F8442	F	0.503876	0.957552	0.251626
	F8443	F	0.754254	0.900281	0.332467
	Al8444	Al	0.629172	0.899923	0.323391
	Al8445	Al	0.878980	0.957367	0.242503
	Al8446	Al	0.628816	0.957384	0.242453
	Al8447	Al	0.879268	0.899913	0.323345
	C8448	C	0.593286	0.983948	0.210627
	C8449	C	0.843456	0.924658	0.287880
	C8450	C	0.593840	0.875494	0.359474
	C8451	C	0.843402	0.932337	0.277484
	C8452	C	0.913824	0.926964	0.350746
	C8453	C	0.663835	0.984529	0.269527
	C8454	C	0.914251	0.930394	0.215034
	C8455	C	0.664665	0.872888	0.296047
	C8456	C	0.914665	0.875455	0.359384
	C8457	C	0.664069	0.932383	0.277515
	C8458	C	0.913399	0.983998	0.210700
	C8459	C	0.664119	0.924700	0.287923
	C8460	C	0.593679	0.930398	0.214981
	C8461	C	0.844113	0.872807	0.296168
	C8462	C	0.593926	0.927047	0.350549
	C8463	C	0.843067	0.984389	0.269912
	C8464	C	0.503602	0.979655	0.215159
	C8465	C	0.753849	0.920747	0.293216
	C8466	C	0.504359	0.879326	0.353972
	C8467	C	0.753679	0.936287	0.272173
	C8468	C	0.504138	0.922746	0.346598
	C8469	C	0.753503	0.980159	0.265777
	C8470	C	0.503961	0.934693	0.218935
	C8471	C	0.754336	0.877099	0.300131
	C8472	C	0.503651	0.970729	0.224965
	C8473	C	0.753908	0.912549	0.304516
	C8474	C	0.504273	0.887392	0.342417
	C8475	C	0.753694	0.944532	0.260960
	C8476	C	0.504297	0.913805	0.338020
	C8477	C	0.753589	0.971169	0.257280
	C8478	C	0.503891	0.943650	0.227516
	C8479	C	0.754264	0.886037	0.308752
	H8480	H	0.662642	0.980637	0.214028
	H8481	H	0.912904	0.921647	0.291892
	H8482	H	0.663200	0.878446	0.355371
	H8483	H	0.912920	0.935306	0.273413
	H8484	H	0.844338	0.923679	0.347722
	H8485	H	0.594538	0.981321	0.266342
	H8486	H	0.844930	0.933669	0.218078
	H8487	H	0.595382	0.876168	0.299103
	H8488	H	0.845262	0.878376	0.355199
	H8489	H	0.594613	0.935389	0.273484
	H8490	H	0.843941	0.980736	0.214170
	H8491	H	0.594753	0.921708	0.291989
	H8492	H	0.663088	0.933670	0.218018
	H8493	H	0.913376	0.876032	0.299342
	H8494	H	0.663478	0.923820	0.347408
	H8495	H	0.912471	0.981061	0.267042
	O8496	O	0.088329	0.971820	0.371410
	O8497	O	0.338269	0.915320	0.454064
	O8498	O	0.088774	0.896703	0.483297
	O8499	O	0.338537	0.953057	0.400408
	O8500	O	0.419910	0.916443	0.479923
	O8501	O	0.169430	0.972813	0.397092
	O8502	O	0.419434	0.952089	0.374483
	O8503	O	0.170141	0.895693	0.457342
	O8504	O	0.420082	0.896740	0.483357
	O8505	O	0.169854	0.953096	0.400477
	O8506	O	0.419439	0.971830	0.371376
	O8507	O	0.169510	0.915378	0.454097
	O8508	O	0.088269	0.952060	0.374538
	O8509	O	0.338917	0.895620	0.457518
	O8510	O	0.088703	0.916389	0.479971
	O8511	O	0.338302	0.972774	0.397175
	F8512	F	0.004353	0.905612	0.459576
	F8513	F	0.253993	0.962039	0.376775
	F8514	F	0.004010	0.962768	0.395005
	F8515	F	0.254301	0.906438	0.477786
	Al8516	Al	0.129328	0.906030	0.468685
	Al8517	Al	0.378887	0.962419	0.385876
	Al8518	Al	0.128908	0.962415	0.385870
	Al8519	Al	0.379297	0.906039	0.468712
	C8520	C	0.093149	0.987176	0.350364
	C8521	C	0.343530	0.930359	0.432484
	C8522	C	0.093807	0.881595	0.504794
	C8523	C	0.343703	0.937898	0.421817
	C8524	C	0.414598	0.933153	0.495862
	C8525	C	0.164263	0.989590	0.412940
	C8526	C	0.414210	0.935340	0.358635
	C8527	C	0.164660	0.879004	0.441353
	C8528	C	0.414858	0.881623	0.504823
	C8529	C	0.164370	0.938040	0.422010
	C8530	C	0.414069	0.987194	0.350347
	C8531	C	0.164218	0.930501	0.432668
	C8532	C	0.093453	0.935420	0.358431
	C8533	C	0.344347	0.878905	0.441553
	C8534	C	0.093939	0.933052	0.496035
	C8535	C	0.343538	0.989456	0.413221
	C8536	C	0.003633	0.983245	0.355704
	C8537	C	0.253883	0.926589	0.438048
	C8538	C	0.004164	0.885487	0.499367
	C8539	C	0.254085	0.941828	0.416470
	C8540	C	0.004155	0.928849	0.491892
	C8541	C	0.253875	0.985255	0.409046
	C8542	C	0.003702	0.939615	0.362621
	C8543	C	0.254500	0.883207	0.445483
	C8544	C	0.003931	0.975056	0.367011
	C8545	C	0.253907	0.918520	0.449580
	C8546	C	0.004399	0.893547	0.487811
	C8547	C	0.254220	0.949903	0.404945
	C8548	C	0.004318	0.919914	0.483256
	C8549	C	0.253853	0.976310	0.400447
	C8550	C	0.003834	0.948552	0.371227
	C8551	C	0.254553	0.892143	0.454108
	H8552	H	0.162602	0.984193	0.354426
	H8553	H	0.412946	0.927348	0.436536
	H8554	H	0.163355	0.884499	0.500630
	H8555	H	0.413147	0.940773	0.417574
	H8556	H	0.345335	0.929939	0.492639
	H8557	H	0.094900	0.986402	0.409709
	H8558	H	0.344799	0.938574	0.361797
	H8559	H	0.095240	0.882295	0.444388
	H8560	H	0.345329	0.884565	0.500705
	H8561	H	0.094987	0.941035	0.417940
	H8562	H	0.344795	0.984193	0.354398
	H8563	H	0.094854	0.927615	0.436882
	H8564	H	0.162877	0.938733	0.361378
	H8565	H	0.413774	0.882120	0.444763
	H8566	H	0.163288	0.929754	0.493004
	H8567	H	0.412944	0.986160	0.410231
	O8568	O	0.588170	0.971812	0.371365
	O8569	O	0.838468	0.915313	0.454018
	O8570	O	0.588811	0.896706	0.483271
	O8571	O	0.838016	0.953037	0.400369
	O8572	O	0.919951	0.916422	0.479875
	O8573	O	0.669201	0.972825	0.397107
	O8574	O	0.919452	0.952057	0.374575
	O8575	O	0.669863	0.895663	0.457425
	O8576	O	0.920049	0.896751	0.483339
	O8577	O	0.669360	0.953110	0.400465
	O8578	O	0.919585	0.971824	0.371411
	O8579	O	0.669733	0.915389	0.454133
	O8580	O	0.588262	0.952074	0.374546
	O8581	O	0.838666	0.895645	0.457424
	O8582	O	0.588715	0.916394	0.479977
	O8583	O	0.838063	0.972790	0.397176
	F8584	F	0.504247	0.905641	0.459631
	F8585	F	0.753892	0.962088	0.376792
	F8586	F	0.503830	0.962798	0.394947
	F8587	F	0.754497	0.906415	0.477756
	Al8588	Al	0.629433	0.906041	0.468692
	Al8589	Al	0.879046	0.962425	0.385903
	Al8590	Al	0.628862	0.962439	0.385869
	Al8591	Al	0.879511	0.906020	0.468636
	C8592	C	0.593435	0.987183	0.350408
	C8593	C	0.843542	0.930371	0.432471
	C8594	C	0.594313	0.881588	0.504767
	C8595	C	0.843415	0.937896	0.421780
	C8596	C	0.914483	0.933153	0.495888
	C8597	C	0.664130	0.989562	0.413003
	C8598	C	0.913834	0.935337	0.358651
	C8599	C	0.664481	0.879010	0.441319
	C8600	C	0.914426	0.881626	0.504791
	C8601	C	0.664112	0.938010	0.421983
	C8602	C	0.913885	0.987163	0.350375
	C8603	C	0.664206	0.930481	0.432661
	C8604	C	0.593804	0.935414	0.358464
	C8605	C	0.843853	0.878914	0.441579
	C8606	C	0.594046	0.933071	0.496088
	C8607	C	0.843474	0.989461	0.413239
	C8608	C	0.503775	0.983247	0.355657
	C8609	C	0.753899	0.926574	0.438019
	C8610	C	0.504575	0.885464	0.499340
	C8611	C	0.753707	0.941811	0.416435
	C8612	C	0.504375	0.928847	0.491938
	C8613	C	0.753759	0.985251	0.409092
	C8614	C	0.503943	0.939634	0.362583
	C8615	C	0.754112	0.883218	0.445495
	C8616	C	0.503807	0.975049	0.366973
	C8617	C	0.754089	0.918534	0.449598
	C8618	C	0.504494	0.893548	0.487818
	C8619	C	0.753652	0.949879	0.404888
	C8620	C	0.504340	0.919920	0.483303
	C8621	C	0.753645	0.976321	0.400458
	C8622	C	0.503881	0.948570	0.371188
	C8623	C	0.754197	0.892137	0.454127
	H8624	H	0.662813	0.984186	0.354491
	H8625	H	0.913012	0.927390	0.436560
	H8626	H	0.663770	0.884508	0.500602
	H8627	H	0.912775	0.940780	0.417518
	H8628	H	0.845002	0.929930	0.492739
	H8629	H	0.594720	0.986356	0.409808
	H8630	H	0.844445	0.938586	0.361783
	H8631	H	0.595064	0.882302	0.444298
	H8632	H	0.844963	0.884558	0.500625
	H8633	H	0.594697	0.940984	0.417907
	H8634	H	0.844495	0.984179	0.354433
	H8635	H	0.594785	0.927599	0.436905
	H8636	H	0.663172	0.938707	0.361476
	H8637	H	0.913219	0.882122	0.444778
	H8638	H	0.663406	0.929787	0.493047
	H8639	H	0.912764	0.986157	0.410233
	O8640	O	0.087983	0.977841	0.516636
	O8641	O	0.338978	0.921464	0.599478
	O8642	O	0.089088	0.902725	0.628481
	O8643	O	0.338576	0.959204	0.545776
	O8644	O	0.420260	0.922494	0.625342
	O8645	O	0.169813	0.978917	0.542465
	O8646	O	0.419706	0.958155	0.519926
	O8647	O	0.170266	0.901792	0.602680
	O8648	O	0.420530	0.902781	0.628591
	O8649	O	0.169905	0.959224	0.545837
	O8650	O	0.420004	0.977855	0.516596
	O8651	O	0.170299	0.921515	0.599570
	O8652	O	0.089149	0.958113	0.520016
	O8653	O	0.339117	0.901749	0.602762
	O8654	O	0.089079	0.922472	0.625379
	O8655	O	0.338650	0.978930	0.542437
	F8656	F	0.004739	0.911761	0.604918
	F8657	F	0.254113	0.968182	0.522119
	F8658	F	0.004258	0.968910	0.540349
	F8659	F	0.254632	0.912484	0.623144
	Al8660	Al	0.129771	0.912139	0.614034
	Al8661	Al	0.379134	0.968536	0.531178
	Al8662	Al	0.129155	0.968536	0.531216
	Al8663	Al	0.379752	0.912126	0.614055
	C8664	C	0.093215	0.992839	0.494975
	C8665	C	0.344078	0.936528	0.577875
	C8666	C	0.094314	0.887317	0.649407
	C8667	C	0.344118	0.944050	0.567191
	C8668	C	0.414887	0.939255	0.641250
	C8669	C	0.164265	0.995607	0.558493
	C8670	C	0.414511	0.941505	0.503829
	C8671	C	0.165074	0.885047	0.586823
	C8672	C	0.415392	0.887434	0.649620
	C8673	C	0.164714	0.944176	0.567435
	C8674	C	0.414504	0.993021	0.495287
	C8675	C	0.164718	0.936647	0.578134
	C8676	C	0.094107	0.941399	0.504017
	C8677	C	0.344400	0.885039	0.586780
	C8678	C	0.094229	0.939133	0.641456
	C8679	C	0.343772	0.995593	0.558490
	C8680	C	0.003587	0.989087	0.500594
	C8681	C	0.254476	0.932748	0.583497
	C8682	C	0.004667	0.891324	0.644210
	C8683	C	0.254424	0.947977	0.561866
	C8684	C	0.004489	0.934941	0.637277
	C8685	C	0.254051	0.991352	0.554441
	C8686	C	0.004487	0.945714	0.507979
	C8687	C	0.254746	0.889292	0.590870
	C8688	C	0.003688	0.981024	0.512141
	C8689	C	0.254604	0.924676	0.595039
	C8690	C	0.004705	0.899532	0.632913
	C8691	C	0.254294	0.956027	0.550293
	C8692	C	0.004681	0.926006	0.628644
	C8693	C	0.254184	0.982427	0.545791
	C8694	C	0.004774	0.954633	0.516642
	C8695	C	0.254693	0.898247	0.599426
	H8696	H	0.162629	0.989829	0.498995
	H8697	H	0.413652	0.933542	0.581892
	H8698	H	0.163700	0.890251	0.645264
	H8699	H	0.413515	0.946901	0.562920
	H8700	H	0.345475	0.936059	0.638040
	H8701	H	0.094917	0.992360	0.555395
	H8702	H	0.345192	0.944805	0.506803
	H8703	H	0.095664	0.888305	0.589906
	H8704	H	0.345993	0.890469	0.645655
	H8705	H	0.095354	0.947162	0.563331
	H8706	H	0.345193	0.990159	0.499575
	H8707	H	0.095292	0.933750	0.582388
	H8708	H	0.163529	0.944605	0.507204
	H8709	H	0.413728	0.888303	0.589830
	H8710	H	0.163662	0.935833	0.638453
	H8711	H	0.413147	0.992339	0.555391
	O8712	O	0.588829	0.977817	0.516552
	O8713	O	0.838824	0.921488	0.599473
	O8714	O	0.589282	0.902744	0.628538
	O8715	O	0.838568	0.959155	0.545748
	O8716	O	0.920348	0.922521	0.625272
	O8717	O	0.669372	0.978900	0.542461
	O8718	O	0.920427	0.958156	0.519963
	O8719	O	0.670465	0.901767	0.602766
	O8720	O	0.920403	0.902785	0.628559
	O8721	O	0.669902	0.959233	0.545847
	O8722	O	0.919322	0.977867	0.516648
	O8723	O	0.670079	0.921506	0.599499
	O8724	O	0.588533	0.958139	0.519974
	O8725	O	0.839248	0.901750	0.602752
	O8726	O	0.588922	0.922500	0.625366
	O8727	O	0.838137	0.978894	0.542481
	F8728	F	0.504713	0.911737	0.604974
	F8729	F	0.754342	0.968088	0.522138
	F8730	F	0.504146	0.968923	0.540278
	F8731	F	0.754913	0.912524	0.623122
	Al8732	Al	0.629714	0.912139	0.614061
	Al8733	Al	0.879358	0.968517	0.531234
	Al8734	Al	0.629260	0.968515	0.531191
	Al8735	Al	0.879901	0.912149	0.613997
	C8736	C	0.593792	0.992875	0.495004
	C8737	C	0.844083	0.936518	0.577898
	C8738	C	0.594466	0.887315	0.649460
	C8739	C	0.844015	0.944038	0.567225
	C8740	C	0.914785	0.939260	0.641246
	C8741	C	0.664031	0.995615	0.558501
	C8742	C	0.914644	0.941501	0.503872
	C8743	C	0.665100	0.885070	0.586749
	C8744	C	0.914980	0.887450	0.649623
	C8745	C	0.664583	0.944217	0.567470
	C8746	C	0.913962	0.993016	0.495262
	C8747	C	0.664727	0.936686	0.578168
	C8748	C	0.593955	0.941422	0.504051
	C8749	C	0.844679	0.885040	0.586815
	C8750	C	0.594375	0.939155	0.641435
	C8751	C	0.843480	0.995583	0.558452
	C8752	C	0.504261	0.989086	0.500571
	C8753	C	0.754394	0.932749	0.583484
	C8754	C	0.504921	0.891311	0.644215
	C8755	C	0.754287	0.947972	0.561872
	C8756	C	0.504552	0.934928	0.637309
	C8757	C	0.753660	0.991355	0.554395
	C8758	C	0.504236	0.945705	0.508019
	C8759	C	0.754878	0.889294	0.590860
	C8760	C	0.504408	0.981021	0.512109
	C8761	C	0.754432	0.924691	0.595029
	C8762	C	0.504913	0.899528	0.632957
	C8763	C	0.754231	0.956009	0.550278
	C8764	C	0.504519	0.926013	0.628669
	C8765	C	0.753715	0.982418	0.545777
	C8766	C	0.504160	0.954644	0.516623
	C8767	C	0.754796	0.898245	0.599441
	H8768	H	0.663238	0.989896	0.499059
	H8769	H	0.913566	0.933534	0.581934
	H8770	H	0.663781	0.890260	0.645346
	H8771	H	0.913611	0.946882	0.562974
	H8772	H	0.845381	0.936054	0.638069
	H8773	H	0.594558	0.992366	0.555460
	H8774	H	0.845340	0.944786	0.506944
	H8775	H	0.595803	0.888378	0.589788
	H8776	H	0.845554	0.890494	0.645657
	H8777	H	0.595195	0.947232	0.563409
	H8778	H	0.844562	0.990151	0.499527
	H8779	H	0.595411	0.933814	0.582466
	H8780	H	0.663241	0.944655	0.507214
	H8781	H	0.914097	0.888294	0.589895
	H8782	H	0.663734	0.935881	0.638383
	H8783	H	0.912806	0.992314	0.555357
	O8784	O	0.088848	0.984000	0.662088
	O8785	O	0.339350	0.926707	0.743307
	O8786	O	0.089772	0.907286	0.771207
	O8787	O	0.339236	0.965183	0.691025
	O8788	O	0.420739	0.927454	0.769063
	O8789	O	0.170134	0.984981	0.687912
	O8790	O	0.420479	0.964274	0.665281
	O8791	O	0.171063	0.906953	0.745914
	O8792	O	0.421041	0.907380	0.771310
	O8793	O	0.170478	0.965218	0.691062
	O8794	O	0.420192	0.983985	0.662046
	O8795	O	0.170600	0.926782	0.743435
	O8796	O	0.089310	0.964224	0.665337
	O8797	O	0.339896	0.906904	0.746009
	O8798	O	0.089442	0.927386	0.769191
	O8799	O	0.338937	0.984997	0.687841
	F8800	F	0.005234	0.916978	0.748351
	F8801	F	0.254668	0.974257	0.667492
	F8802	F	0.004796	0.974984	0.685742
	F8803	F	0.255175	0.917408	0.766680
	Al8804	Al	0.130223	0.917164	0.757548
	Al8805	Al	0.379754	0.974629	0.676577
	Al8806	Al	0.129710	0.974621	0.676597
	Al8807	Al	0.380323	0.917180	0.757535
	C8808	C	0.093972	0.999098	0.640566
	C8809	C	0.344717	0.942136	0.722453
	C8810	C	0.094891	0.890494	0.789131
	C8811	C	0.344649	0.949825	0.712023
	C8812	C	0.415475	0.944295	0.784764
	C8813	C	0.164868	1.001691	0.703913
	C8814	C	0.415009	0.947616	0.649207
	C8815	C	0.165659	0.890216	0.730016
	C8816	C	0.415751	0.890664	0.789455
	C8817	C	0.165250	0.949873	0.712136
	C8818	C	0.414912	0.999070	0.640514
	C8819	C	0.165290	0.942206	0.722531
	C8820	C	0.094289	0.947484	0.649425
	C8821	C	0.344959	0.889995	0.730486
	C8822	C	0.094687	0.944057	0.785265
	C8823	C	0.344414	1.001701	0.703796
	C8824	C	0.004266	0.995232	0.646024
	C8825	C	0.254975	0.938243	0.727808
	C8826	C	0.005221	0.894883	0.784810
	C8827	C	0.254920	0.953788	0.706776
	C8828	C	0.004865	0.939888	0.781017
	C8829	C	0.254629	0.997427	0.699844
	C8830	C	0.004635	0.951804	0.653367
	C8831	C	0.255404	0.894403	0.734182
	C8832	C	0.004454	0.987145	0.657543
	C8833	C	0.254957	0.929994	0.739011
	C8834	C	0.005266	0.903809	0.774999
	C8835	C	0.254850	0.961967	0.695439
	C8836	C	0.005013	0.930928	0.772441
	C8837	C	0.254528	0.988487	0.691235
	C8838	C	0.004870	0.960730	0.662002
	C8839	C	0.255491	0.903392	0.742693
	H8840	H	0.163527	0.996173	0.644711
	H8841	H	0.413930	0.939098	0.726490
	H8842	H	0.164253	0.893696	0.785537
	H8843	H	0.413870	0.952798	0.707883
	H8844	H	0.346041	0.941108	0.781513
	H8845	H	0.095448	0.998436	0.700824
	H8846	H	0.345692	0.950933	0.652212
	H8847	H	0.096452	0.893582	0.732899
	H8848	H	0.346402	0.894002	0.786165
	H8849	H	0.095600	0.952854	0.708149
	H8850	H	0.345476	0.996156	0.644685
	H8851	H	0.095675	0.939256	0.726589
	H8852	H	0.163743	0.950683	0.652623
	H8853	H	0.414241	0.893183	0.733758
	H8854	H	0.164154	0.940687	0.782432
	H8855	H	0.413782	0.998470	0.700619
	O8856	O	0.588975	0.983984	0.662034
	O8857	O	0.839285	0.926751	0.743366
	O8858	O	0.589886	0.907282	0.771135
	O8859	O	0.838962	0.965210	0.691059
	O8860	O	0.920705	0.927432	0.769065
	O8861	O	0.670336	0.984989	0.687899
	O8862	O	0.920532	0.964242	0.665353
	O8863	O	0.670818	0.906979	0.745874
	O8864	O	0.920913	0.907347	0.771218
	O8865	O	0.670206	0.965209	0.691023
	O8866	O	0.920210	0.983958	0.662036
	O8867	O	0.670591	0.926772	0.743423
	O8868	O	0.589342	0.964233	0.665345
	O8869	O	0.839641	0.906883	0.746024
	O8870	O	0.589553	0.927344	0.769268
	O8871	O	0.839156	0.984995	0.687900
	F8872	F	0.505272	0.916990	0.748361
	F8873	F	0.754864	0.974261	0.667514
	F8874	F	0.504664	0.975017	0.685666
	F8875	F	0.755372	0.917382	0.766641
	Al8876	Al	0.630221	0.917177	0.757557
	Al8877	Al	0.879904	0.974619	0.676658
	Al8878	Al	0.629762	0.974626	0.676585
	Al8879	Al	0.880486	0.917168	0.757474
	C8880	C	0.594317	0.999093	0.640545
	C8881	C	0.844440	0.942166	0.722459
	C8882	C	0.594953	0.890502	0.789133
	C8883	C	0.844348	0.949851	0.712019
	C8884	C	0.915147	0.944288	0.784769
	C8885	C	0.664886	1.001669	0.703917
	C8886	C	0.914776	0.947610	0.649213
	C8887	C	0.665545	0.890202	0.730029
	C8888	C	0.915549	0.890650	0.789485
	C8889	C	0.665195	0.949875	0.712136
	C8890	C	0.914513	0.999048	0.640510
	C8891	C	0.665272	0.942217	0.722549
	C8892	C	0.594548	0.947512	0.649395
	C8893	C	0.844750	0.889999	0.730515
	C8894	C	0.595018	0.944056	0.785285
	C8895	C	0.844424	1.001730	0.703775
	C8896	C	0.504558	0.995231	0.646005
	C8897	C	0.754859	0.938234	0.727786
	C8898	C	0.505375	0.894892	0.784794
	C8899	C	0.754689	0.953771	0.706722
	C8900	C	0.505206	0.939887	0.781025
	C8901	C	0.754704	0.997449	0.699798
	C8902	C	0.504829	0.951810	0.653359
	C8903	C	0.755200	0.894397	0.734223
	C8904	C	0.504541	0.987178	0.657576
	C8905	C	0.754884	0.930002	0.739015
	C8906	C	0.505442	0.903811	0.774988
	C8907	C	0.754579	0.961974	0.695417
	C8908	C	0.505172	0.930926	0.772463
	C8909	C	0.754729	0.988516	0.691191
	C8910	C	0.504909	0.960732	0.662005
	C8911	C	0.755191	0.903399	0.742689
	H8912	H	0.663789	0.996190	0.644753
	H8913	H	0.913687	0.939141	0.726522
	H8914	H	0.664383	0.893714	0.785576
	H8915	H	0.913473	0.952836	0.707889
	H8916	H	0.845681	0.941099	0.781518
	H8917	H	0.595481	0.998376	0.700901
	H8918	H	0.845444	0.950915	0.652242
	H8919	H	0.596226	0.893565	0.732868
	H8920	H	0.846176	0.893986	0.786169
	H8921	H	0.595688	0.952855	0.708164
	H8922	H	0.845022	0.996089	0.644609
	H8923	H	0.595788	0.939275	0.726623
	H8924	H	0.663943	0.950739	0.652554
	H8925	H	0.914155	0.893175	0.733739
	H8926	H	0.664517	0.940677	0.782463
	H8927	H	0.913856	0.998490	0.700642
	O8928	O	0.089293	0.989236	0.805880
	O8929	O	0.339592	0.927515	0.877901
	O8930	O	0.090286	0.905216	0.899200
	O8931	O	0.339704	0.969754	0.833650
	O8932	O	0.420956	0.926410	0.902749
	O8933	O	0.170375	0.989937	0.831551
	O8934	O	0.421080	0.969452	0.808465
	O8935	O	0.171049	0.907286	0.876617
	O8936	O	0.421094	0.905256	0.899376
	O8937	O	0.170875	0.969838	0.833777
	O8938	O	0.420641	0.989302	0.805989
	O8939	O	0.171062	0.927571	0.878000
	O8940	O	0.089764	0.969379	0.808566
	O8941	O	0.339994	0.907247	0.876663
	O8942	O	0.089794	0.926410	0.902792
	O8943	O	0.339242	0.989837	0.831776
	F8944	F	0.005463	0.917551	0.880367
	F8945	F	0.255185	0.979470	0.810875
	F8946	F	0.005232	0.979886	0.829225
	F8947	F	0.255529	0.916164	0.899081
	Al8948	Al	0.130580	0.916837	0.889787
	Al8949	Al	0.380220	0.979672	0.820066
	Al8950	Al	0.130201	0.979665	0.820040
	Al8951	Al	0.380497	0.916812	0.889792
	C8952	C	0.094497	1.004653	0.785008
	C8953	C	0.344854	0.944564	0.860517
	C8954	C	0.095271	0.885307	0.899240
	C8955	C	0.344747	0.953014	0.851741
	C8956	C	0.415478	0.943711	0.917438
	C8957	C	0.165271	1.006823	0.847103
	C8958	C	0.415528	0.952717	0.792564
	C8959	C	0.165738	0.890005	0.861813
	C8960	C	0.415150	0.885331	0.899476
	C8961	C	0.165556	0.953136	0.852020
	C8962	C	0.415152	1.004703	0.785064
	C8963	C	0.165748	0.944697	0.860780
	C8964	C	0.094868	0.952476	0.793073
	C8965	C	0.345541	0.889909	0.862052
	C8966	C	0.094988	0.943700	0.917537
	C8967	C	0.344875	1.006482	0.847865
	C8968	C	0.004753	1.000735	0.790329
	C8969	C	0.255315	0.940293	0.865088
	C8970	C	0.005323	0.890385	0.899875
	C8971	C	0.255153	0.957383	0.847368
	C8972	C	0.005157	0.939207	0.913998
	C8973	C	0.254916	1.002361	0.843542
	C8974	C	0.005167	0.956883	0.796775
	C8975	C	0.255621	0.894446	0.865471
	C8976	C	0.004870	0.992494	0.801551
	C8977	C	0.255310	0.931148	0.874351
	C8978	C	0.005666	0.901074	0.899507
	C8979	C	0.255229	0.966303	0.837549
	C8980	C	0.005365	0.930019	0.905921
	C8981	C	0.254789	0.993408	0.834967
	C8982	C	0.005321	0.965882	0.805242
	C8983	C	0.255502	0.903661	0.873494
	H8984	H	0.163944	1.001644	0.789044
	H8985	H	0.414264	0.941201	0.863775
	H8986	H	0.165359	0.889114	0.899507
	H8987	H	0.414079	0.956241	0.848163
	H8988	H	0.345701	0.940345	0.914680
	H8989	H	0.095766	1.003695	0.843712
	H8990	H	0.346202	0.956092	0.795400
	H8991	H	0.095991	0.893429	0.864407
	H8992	H	0.345285	0.889168	0.900009
	H8993	H	0.096137	0.956448	0.848684
	H8994	H	0.345843	1.001710	0.789147
	H8995	H	0.096338	0.941451	0.864254
	H8996	H	0.164321	0.955659	0.796323
	H8997	H	0.415327	0.893258	0.864850
	H8998	H	0.164782	0.940323	0.914824
	H8999	H	0.414024	1.003063	0.845114
	O9000	O	0.589377	0.989234	0.805867
	O9001	O	0.839495	0.927550	0.877916
	O9002	O	0.590172	0.905213	0.899196
	O9003	O	0.839655	0.969775	0.833701
	O9004	O	0.920869	0.926402	0.902793
	O9005	O	0.670371	0.989942	0.831541
	O9006	O	0.920945	0.969453	0.808440
	O9007	O	0.670970	0.907282	0.876627
	O9008	O	0.921097	0.905283	0.899367
	O9009	O	0.670906	0.969818	0.833724
	O9010	O	0.920512	0.989275	0.805928
	O9011	O	0.670883	0.927570	0.877966
	O9012	O	0.589952	0.969388	0.808567
	O9013	O	0.839892	0.907233	0.876677
	O9014	O	0.589914	0.926418	0.902787
	O9015	O	0.839184	0.989852	0.831774
	F9016	F	0.505405	0.917528	0.880384
	F9017	F	0.755237	0.979460	0.810872
	F9018	F	0.505243	0.979890	0.829200
	F9019	F	0.755610	0.916190	0.899013
	Al9020	Al	0.630576	0.916834	0.889773
	Al9021	Al	0.880277	0.979681	0.820102
	Al9022	Al	0.630245	0.979666	0.820015
	Al9023	Al	0.880865	0.916842	0.889736
	C9024	C	0.594681	1.004662	0.784990
	C9025	C	0.844792	0.944585	0.860548
	C9026	C	0.595411	0.885295	0.899188
	C9027	C	0.844735	0.953032	0.851780
	C9028	C	0.915258	0.943720	0.917511
	C9029	C	0.665063	1.006823	0.847119
	C9030	C	0.915334	0.952701	0.792570
	C9031	C	0.665299	0.890022	0.861789
	C9032	C	0.915084	0.885348	0.899547
	C9033	C	0.665614	0.953153	0.852058
	C9034	C	0.914993	1.004696	0.785069
	C9035	C	0.665588	0.944711	0.860817
	C9036	C	0.595033	0.952477	0.793079
	C9037	C	0.845131	0.889891	0.862080
	C9038	C	0.595317	0.943689	0.917527
	C9039	C	0.844618	1.006498	0.847881
	C9040	C	0.504891	1.000759	0.790345
	C9041	C	0.755169	0.940308	0.865094
	C9042	C	0.505400	0.890374	0.899802
	C9043	C	0.755157	0.957382	0.847378
	C9044	C	0.505467	0.939205	0.913943
	C9045	C	0.754803	1.002383	0.843519
	C9046	C	0.505345	0.956898	0.796761
	C9047	C	0.755269	0.894446	0.865471
	C9048	C	0.504986	0.992523	0.801577
	C9049	C	0.755152	0.931159	0.874338
	C9050	C	0.505542	0.901061	0.899476
	C9051	C	0.755239	0.966303	0.837550
	C9052	C	0.505387	0.930018	0.905909
	C9053	C	0.754722	0.993424	0.834953
	C9054	C	0.505494	0.965892	0.805233
	C9055	C	0.755366	0.903657	0.873507
	H9056	H	0.664122	1.001640	0.789006
	H9057	H	0.914062	0.941226	0.863835
	H9058	H	0.665569	0.889100	0.899466
	H9059	H	0.914005	0.956277	0.848245
	H9060	H	0.845441	0.940347	0.914769
	H9061	H	0.595659	1.003665	0.843771
	H9062	H	0.845940	0.956078	0.795402
	H9063	H	0.595519	0.893443	0.864387
	H9064	H	0.845281	0.889203	0.900072
	H9065	H	0.596204	0.956478	0.848761
	H9066	H	0.845620	1.001720	0.789143
	H9067	H	0.596138	0.941475	0.864317
	H9068	H	0.664486	0.955658	0.796348
	H9069	H	0.915015	0.893207	0.864914
	H9070	H	0.665148	0.940306	0.914841
	H9071	H	0.913845	1.003072	0.845171
	O9072	O	0.089239	0.989986	0.940356
	O9073	O	0.339451	0.917988	0.960763
	O9074	O	0.089610	0.894028	0.976716
	O9075	O	0.340162	0.967707	0.961692
	O9076	O	0.420466	0.915168	0.982829
	O9077	O	0.170800	0.988897	0.965225
	O9078	O	0.420715	0.969764	0.939113
	O9079	O	0.170681	0.896959	0.954798
	O9080	O	0.420609	0.894067	0.976910
	O9081	O	0.170930	0.967720	0.961795
	O9082	O	0.420657	0.990100	0.940561
	O9083	O	0.170456	0.918027	0.960853
	O9084	O	0.089660	0.969755	0.939145
	O9085	O	0.339514	0.896868	0.954936
	O9086	O	0.089074	0.915139	0.982867
	O9087	O	0.339669	0.988891	0.965254
	F9088	F	0.005197	0.907338	0.959428
	F9089	F	0.255359	0.980001	0.942822
	F9090	F	0.005758	0.978664	0.961625
	F9091	F	0.254944	0.904754	0.978229
	Al9092	Al	0.130140	0.906043	0.968832
	Al9093	Al	0.380252	0.979311	0.952266
	Al9094	Al	0.130456	0.979313	0.952242
	Al9095	Al	0.379898	0.906046	0.968857
	C9096	C	0.094641	1.006927	0.922718
	C9097	C	0.345342	0.937922	0.960784
	C9098	C	0.094435	0.874097	0.976524
	C9099	C	0.345441	0.947793	0.961765
	C9100	C	0.415149	0.932850	0.996833
	C9101	C	0.165242	1.006231	0.979904
	C9102	C	0.415379	0.952457	0.924376
	C9103	C	0.165117	0.879334	0.940574
	C9104	C	0.414456	0.874159	0.976938
	C9105	C	0.165238	0.947814	0.961864
	C9106	C	0.415552	1.007291	0.923542
	C9107	C	0.165103	0.937942	0.960868
	C9108	C	0.094906	0.952437	0.924484
	C9109	C	0.344764	0.879241	0.940813
	C9110	C	0.094531	0.932838	0.996871
	C9111	C	0.344967	1.006156	0.980070
	C9112	C	0.004990	1.002769	0.927565
	C9113	C	0.255178	0.932869	0.960384
	C9114	C	0.004587	0.879190	0.977192
	C9115	C	0.255401	0.952861	0.962399
	C9116	C	0.004669	0.928211	0.993599
	C9117	C	0.255066	1.001709	0.976439
	C9118	C	0.005036	0.956941	0.928012
	C9119	C	0.254955	0.883915	0.943966
	C9120	C	0.004982	0.993639	0.936870
	C9121	C	0.255061	0.922181	0.960648
	C9122	C	0.004940	0.889872	0.976976
	C9123	C	0.255537	0.963545	0.962007
	C9124	C	0.004615	0.918824	0.985895
	C9125	C	0.255169	0.992511	0.968380
	C9126	C	0.005250	0.966149	0.936054
	C9127	C	0.254976	0.893264	0.951746
	H9128	H	0.163931	1.003471	0.925768
	H9129	H	0.415156	0.934077	0.960323
	H9130	H	0.164506	0.877904	0.976805
	H9131	H	0.415448	0.951630	0.962044
	H9132	H	0.345054	0.929389	0.994425
	H9133	H	0.095446	1.002872	0.977156
	H9134	H	0.345539	0.955856	0.927014
	H9135	H	0.095082	0.882818	0.942935
	H9136	H	0.344709	0.878013	0.977478
	H9137	H	0.095298	0.951650	0.962234
	H9138	H	0.346179	1.004150	0.927292
	H9139	H	0.095084	0.934135	0.960481
	H9140	H	0.164756	0.955803	0.927222
	H9141	H	0.414898	0.882638	0.943355
	H9142	H	0.164717	0.929382	0.994471
	H9143	H	0.414762	1.002749	0.977455
	O9144	O	0.589273	0.989980	0.940312
	O9145	O	0.839015	0.918016	0.960660
	O9146	O	0.589673	0.894019	0.976789
	O9147	O	0.839592	0.967681	0.961797
	O9148	O	0.920135	0.915157	0.982806
	O9149	O	0.670185	0.988935	0.965156
	O9150	O	0.920784	0.969762	0.939200
	O9151	O	0.670015	0.896965	0.954718
	O9152	O	0.920457	0.894088	0.976895
	O9153	O	0.670385	0.967713	0.961773
	O9154	O	0.920627	0.990077	0.940553
	O9155	O	0.669965	0.918028	0.960807
	O9156	O	0.589658	0.969769	0.939068
	O9157	O	0.838923	0.896870	0.954877
	O9158	O	0.589402	0.915135	0.982869
	O9159	O	0.839104	0.988904	0.965282
	F9160	F	0.504780	0.907334	0.959480
	F9161	F	0.755368	0.979981	0.942888
	F9162	F	0.505378	0.978647	0.961536
	F9163	F	0.755014	0.904748	0.978149
	Al9164	Al	0.629869	0.906040	0.968851
	Al9165	Al	0.880469	0.979308	0.952328
	Al9166	Al	0.630347	0.979304	0.952231
	Al9167	Al	0.880280	0.906056	0.968788
	C9168	C	0.594803	1.006918	0.922729
	C9169	C	0.844861	0.937917	0.960796
	C9170	C	0.594689	0.874100	0.976547
	C9171	C	0.844892	0.947788	0.961818
	C9172	C	0.914728	0.932849	0.996848
	C9173	C	0.664633	1.006256	0.979838
	C9174	C	0.915175	0.952459	0.924462
	C9175	C	0.664396	0.879337	0.940560
	C9176	C	0.914345	0.874153	0.976858
	C9177	C	0.664536	0.947809	0.961841
	C9178	C	0.915411	1.007295	0.923569
	C9179	C	0.664478	0.937943	0.960815
	C9180	C	0.595259	0.952438	0.924447
	C9181	C	0.844083	0.879268	0.940734
	C9182	C	0.594919	0.932836	0.996868
	C9183	C	0.844444	1.006162	0.980056
	C9184	C	0.505101	1.002771	0.927557
	C9185	C	0.754561	0.932876	0.960331
	C9186	C	0.504759	0.879185	0.977280
	C9187	C	0.754723	0.952847	0.962402
	C9188	C	0.505041	0.928208	0.993604
	C9189	C	0.754489	1.001729	0.976408
	C9190	C	0.505312	0.956928	0.927974
	C9191	C	0.754258	0.883930	0.943897
	C9192	C	0.505003	0.993639	0.936846
	C9193	C	0.754491	0.922191	0.960584
	C9194	C	0.505049	0.889868	0.977030
	C9195	C	0.754932	0.963530	0.962032
	C9196	C	0.504980	0.918826	0.985897
	C9197	C	0.754568	0.992526	0.968367
	C9198	C	0.505185	0.966159	0.935971
	C9199	C	0.754405	0.893273	0.951683
	H9200	H	0.664157	1.003483	0.925785
	H9201	H	0.914778	0.934078	0.960341
	H9202	H	0.664750	0.877917	0.976757
	H9203	H	0.914878	0.951614	0.962146
	H9204	H	0.844642	0.929390	0.994430
	H9205	H	0.594917	1.002909	0.977038
	H9206	H	0.845330	0.955842	0.927150
	H9207	H	0.594390	0.882816	0.942935
	H9208	H	0.844478	0.877986	0.977406
	H9209	H	0.594537	0.951649	0.962193
	H9210	H	0.845999	1.004154	0.927318
	H9211	H	0.594510	0.934125	0.960388
	H9212	H	0.664992	0.955827	0.927160
	H9213	H	0.914195	0.882683	0.943243
	H9214	H	0.665044	0.929366	0.994471
	H9215	H	0.914143	1.002743	0.977423
