data_Molecule from HDF5

_cell_length_a		13.333346
_cell_length_b		148.909597
_cell_length_c		71.000549
_cell_angle_alpha	87.324890
_cell_angle_beta	90.159969
_cell_angle_gamma	89.202278
_symmetry_space_group_name_H-M	'P 1'
_symmetry_Int_Tables_number		1

loop_
	_symmetry_equiv_pos_as_xyz
	x,y,z

loop_
	_atom_site_label
	_atom_site_type_symbol
	_atom_site_fract_x
	_atom_site_fract_y
	_atom_site_fract_z
	O0	O	0.089706	0.107471	0.035163
	O1	O	0.347183	0.053988	0.138152
	O2	O	0.104073	0.034429	0.169454
	O3	O	0.345900	0.090694	0.073441
	O4	O	0.428591	0.055076	0.169056
	O5	O	0.170952	0.110173	0.066295
	O6	O	0.426532	0.089665	0.042016
	O7	O	0.184164	0.035611	0.140987
	O8	O	0.434713	0.035078	0.171384
	O9	O	0.176618	0.091426	0.074767
	O10	O	0.420674	0.108312	0.036483
	O11	O	0.178197	0.054749	0.139689
	O12	O	0.095878	0.088968	0.043980
	O13	O	0.353547	0.034914	0.142743
	O14	O	0.098186	0.054413	0.170898
	O15	O	0.340244	0.109441	0.068397
	F16	F	0.015813	0.045120	0.144051
	F17	F	0.258297	0.098839	0.043725
	F18	F	0.008434	0.100331	0.066562
	F19	F	0.266109	0.044965	0.167639
	Al20	Al	0.141096	0.045034	0.155948
	Al21	Al	0.383293	0.099583	0.055149
	Al22	Al	0.133337	0.099566	0.055112
	Al23	Al	0.391140	0.045020	0.155930
	C24	C	0.094115	0.120391	0.005333
	C25	C	0.351656	0.068415	0.111607
	C26	C	0.104328	0.015713	0.174944
	C27	C	0.351541	0.075753	0.098733
	C28	C	0.425281	0.072557	0.181739
	C29	C	0.167722	0.127381	0.080079
	C30	C	0.419414	0.073297	0.025331
	C31	C	0.176507	0.018721	0.125778
	C32	C	0.424793	0.016587	0.179619
	C33	C	0.172329	0.077380	0.102323
	C34	C	0.415083	0.122359	0.008902
	C35	C	0.172504	0.070050	0.115202
	C36	C	0.098765	0.071788	0.030078
	C37	C	0.356213	0.017355	0.130576
	C38	C	0.104964	0.071199	0.186651
	C39	C	0.347130	0.125773	0.085362
	C40	C	0.004632	0.117931	0.014418
	C41	C	0.262112	0.065475	0.119961
	C42	C	0.016142	0.020938	0.176131
	C43	C	0.261799	0.080304	0.093914
	C44	C	0.014330	0.067449	0.180914
	C45	C	0.256717	0.122302	0.078899
	C46	C	0.009698	0.076809	0.031544
	C47	C	0.267266	0.022491	0.131391
	C48	C	0.004915	0.110717	0.029785
	C49	C	0.262496	0.057524	0.133623
	C50	C	0.018493	0.030872	0.172052
	C51	C	0.261419	0.088020	0.079650
	C52	C	0.013649	0.058329	0.173050
	C53	C	0.255808	0.113329	0.070537
	C54	C	0.010979	0.085801	0.039806
	C55	C	0.268470	0.031667	0.138934
	H56	H	0.163526	0.116955	0.009368
	H57	H	0.421039	0.064872	0.115062
	H58	H	0.175328	0.018951	0.172036
	H59	H	0.420747	0.077905	0.092199
	H60	H	0.355254	0.069766	0.177094
	H61	H	0.098022	0.124739	0.074944
	H62	H	0.350642	0.077194	0.026321
	H63	H	0.107335	0.022613	0.126358
	H64	H	0.356196	0.020543	0.180673
	H65	H	0.102730	0.080884	0.098746
	H66	H	0.345850	0.120550	0.015943
	H67	H	0.103105	0.067858	0.121632
	H68	H	0.168744	0.074472	0.034972
	H69	H	0.426510	0.020134	0.135110
	H70	H	0.174112	0.067293	0.186093
	H71	H	0.415885	0.121837	0.084612
	O72	O	0.589864	0.107438	0.035043
	O73	O	0.847320	0.054032	0.138138
	O74	O	0.604115	0.034428	0.169509
	O75	O	0.845633	0.090671	0.073413
	O76	O	0.928701	0.055085	0.169016
	O77	O	0.670865	0.110192	0.066256
	O78	O	0.926660	0.089678	0.042004
	O79	O	0.683957	0.035582	0.141001
	O80	O	0.934551	0.035091	0.171341
	O81	O	0.676452	0.091488	0.074783
	O82	O	0.920476	0.108312	0.036464
	O83	O	0.678275	0.054734	0.139652
	O84	O	0.595988	0.088985	0.043981
	O85	O	0.853441	0.034916	0.142698
	O86	O	0.598027	0.054432	0.170816
	O87	O	0.840141	0.109446	0.068442
	F88	F	0.515940	0.045091	0.144060
	F89	F	0.758174	0.098859	0.043733
	F90	F	0.508506	0.100328	0.066522
	F91	F	0.766384	0.044975	0.167559
	Al92	Al	0.641102	0.045012	0.155931
	Al93	Al	0.883376	0.099585	0.055184
	Al94	Al	0.633359	0.099583	0.055115
	Al95	Al	0.891436	0.045041	0.155841
	C96	C	0.594298	0.120416	0.005338
	C97	C	0.851469	0.068429	0.111617
	C98	C	0.604494	0.015701	0.174828
	C99	C	0.851063	0.075765	0.098755
	C100	C	0.925221	0.072572	0.181698
	C101	C	0.667705	0.127383	0.080056
	C102	C	0.918967	0.073261	0.025448
	C103	C	0.676279	0.018710	0.125781
	C104	C	0.924582	0.016613	0.179718
	C105	C	0.672015	0.077402	0.102327
	C106	C	0.914973	0.122359	0.008901
	C107	C	0.672381	0.070070	0.115189
	C108	C	0.599071	0.071797	0.030096
	C109	C	0.856292	0.017356	0.130523
	C110	C	0.604971	0.071176	0.186640
	C111	C	0.847195	0.125808	0.085341
	C112	C	0.504731	0.117926	0.014393
	C113	C	0.762046	0.065492	0.119963
	C114	C	0.516329	0.020930	0.176093
	C115	C	0.761329	0.080324	0.093926
	C116	C	0.514366	0.067438	0.180874
	C117	C	0.756696	0.122309	0.078927
	C118	C	0.510094	0.076831	0.031490
	C119	C	0.767186	0.022476	0.131351
	C120	C	0.505120	0.110737	0.029809
	C121	C	0.762501	0.057534	0.133599
	C122	C	0.518611	0.030865	0.172074
	C123	C	0.761037	0.088042	0.079665
	C124	C	0.513504	0.058326	0.173016
	C125	C	0.755693	0.113338	0.070559
	C126	C	0.511119	0.085809	0.039821
	C127	C	0.768384	0.031664	0.138887
	H128	H	0.663878	0.117010	0.009406
	H129	H	0.920798	0.064887	0.115079
	H130	H	0.675536	0.018936	0.171904
	H131	H	0.920256	0.077933	0.092223
	H132	H	0.855152	0.069792	0.176992
	H133	H	0.597889	0.124748	0.074932
	H134	H	0.850164	0.077147	0.026497
	H135	H	0.607121	0.022611	0.126362
	H136	H	0.855977	0.020575	0.180760
	H137	H	0.602503	0.080901	0.098774
	H138	H	0.845609	0.120543	0.015895
	H139	H	0.603158	0.067864	0.121631
	H140	H	0.668969	0.074476	0.035033
	H141	H	0.926654	0.020148	0.135015
	H142	H	0.674080	0.067266	0.186107
	H143	H	0.915994	0.121878	0.084545
	O144	O	0.097386	0.116534	0.200754
	O145	O	0.342421	0.050443	0.247933
	O146	O	0.098652	0.028899	0.272987
	O147	O	0.354218	0.096916	0.232018
	O148	O	0.423367	0.049588	0.276082
	O149	O	0.178503	0.117585	0.231681
	O150	O	0.434063	0.098126	0.203479
	O151	O	0.178032	0.030943	0.245125
	O152	O	0.428841	0.029369	0.274615
	O153	O	0.184753	0.097568	0.233920
	O154	O	0.428499	0.117276	0.202289
	O155	O	0.172945	0.050978	0.249543
	O156	O	0.103638	0.097417	0.205399
	O157	O	0.347570	0.030394	0.246433
	O158	O	0.092794	0.049092	0.277224
	O159	O	0.348056	0.116871	0.233460
	F160	F	0.010612	0.040618	0.249366
	F161	F	0.265657	0.107594	0.206615
	F162	F	0.016437	0.107478	0.230311
	F163	F	0.260800	0.039293	0.273312
	Al164	Al	0.135631	0.039957	0.261339
	Al165	Al	0.390948	0.107519	0.218452
	Al166	Al	0.141047	0.107514	0.218565
	Al167	Al	0.385660	0.039942	0.261376
	C168	C	0.101814	0.130917	0.173997
	C169	C	0.351701	0.068886	0.239800
	C170	C	0.099994	0.010079	0.275838
	C171	C	0.354682	0.078203	0.237471
	C172	C	0.419862	0.067425	0.287422
	C173	C	0.175402	0.135054	0.244254
	C174	C	0.426669	0.081220	0.188257
	C175	C	0.170989	0.013770	0.230507
	C176	C	0.419503	0.010730	0.279976
	C177	C	0.174916	0.079082	0.242218
	C178	C	0.422800	0.132583	0.177754
	C179	C	0.171938	0.069777	0.244501
	C180	C	0.106374	0.079861	0.193164
	C181	C	0.351231	0.012707	0.234295
	C182	C	0.099747	0.066382	0.291219
	C183	C	0.355254	0.133650	0.249296
	C184	C	0.012260	0.127992	0.182471
	C185	C	0.260171	0.064560	0.243309
	C186	C	0.011401	0.015198	0.277528
	C187	C	0.266452	0.083413	0.238696
	C188	C	0.008909	0.062346	0.286502
	C189	C	0.264615	0.129947	0.243438
	C190	C	0.017281	0.084974	0.194006
	C191	C	0.261803	0.017772	0.235330
	C192	C	0.012646	0.120059	0.196184
	C193	C	0.258219	0.054602	0.247170
	C194	C	0.013313	0.025224	0.274958
	C195	C	0.268708	0.093358	0.234643
	C196	C	0.008237	0.052998	0.279443
	C197	C	0.263671	0.120811	0.235593
	C198	C	0.018451	0.094165	0.201563
	C199	C	0.262569	0.027048	0.242782
	H200	H	0.171441	0.127362	0.177386
	H201	H	0.420279	0.064903	0.238796
	H202	H	0.171209	0.013424	0.273830
	H203	H	0.425510	0.081469	0.234560
	H204	H	0.349167	0.064451	0.283678
	H205	H	0.105401	0.132239	0.239623
	H206	H	0.357804	0.085158	0.188768
	H207	H	0.101605	0.017636	0.231112
	H208	H	0.350610	0.014610	0.281403
	H209	H	0.106255	0.083025	0.243225
	H210	H	0.353392	0.130431	0.184270
	H211	H	0.100825	0.066535	0.247326
	H212	H	0.176568	0.082665	0.197681
	H213	H	0.421734	0.015720	0.238031
	H214	H	0.169362	0.062536	0.290651
	H215	H	0.424118	0.129691	0.248876
	O216	O	0.597469	0.116503	0.200704
	O217	O	0.841806	0.050463	0.247830
	O218	O	0.598494	0.028896	0.273028
	O219	O	0.853925	0.096893	0.232123
	O220	O	0.923160	0.049593	0.276017
	O221	O	0.678158	0.117553	0.231638
	O222	O	0.934114	0.098125	0.203551
	O223	O	0.677706	0.030929	0.245163
	O224	O	0.929046	0.029383	0.274644
	O225	O	0.684380	0.097577	0.233996
	O226	O	0.928281	0.117257	0.202232
	O227	O	0.672398	0.050980	0.249592
	O228	O	0.603542	0.097392	0.205328
	O229	O	0.847327	0.030357	0.246394
	O230	O	0.592975	0.049064	0.277343
	O231	O	0.847521	0.116871	0.233511
	F232	F	0.510308	0.040605	0.249450
	F233	F	0.765879	0.107567	0.206679
	F234	F	0.516086	0.107458	0.230175
	F235	F	0.760982	0.039277	0.273230
	Al236	Al	0.635549	0.039957	0.261398
	Al237	Al	0.891158	0.107525	0.218523
	Al238	Al	0.640988	0.107503	0.218526
	Al239	Al	0.885933	0.039952	0.261292
	C240	C	0.602026	0.130875	0.174012
	C241	C	0.850964	0.068903	0.239818
	C242	C	0.599820	0.010054	0.275776
	C243	C	0.854067	0.078218	0.237508
	C244	C	0.919584	0.067461	0.287340
	C245	C	0.674999	0.135063	0.244202
	C246	C	0.926631	0.081232	0.188252
	C247	C	0.670473	0.013770	0.230509
	C248	C	0.919621	0.010739	0.279936
	C249	C	0.674251	0.079092	0.242296
	C250	C	0.922441	0.132617	0.177838
	C251	C	0.671190	0.069787	0.244576
	C252	C	0.606410	0.079845	0.193134
	C253	C	0.850713	0.012681	0.234350
	C254	C	0.600065	0.066367	0.291243
	C255	C	0.854645	0.133630	0.249307
	C256	C	0.512510	0.127963	0.182448
	C257	C	0.759428	0.064577	0.243309
	C258	C	0.511172	0.015178	0.277446
	C259	C	0.765801	0.083418	0.238770
	C260	C	0.509172	0.062325	0.286569
	C261	C	0.764021	0.129935	0.243401
	C262	C	0.517306	0.084949	0.193993
	C263	C	0.761334	0.017759	0.235337
	C264	C	0.512782	0.120026	0.196152
	C265	C	0.757559	0.054615	0.247156
	C266	C	0.513134	0.025214	0.274916
	C267	C	0.768250	0.093356	0.234709
	C268	C	0.508381	0.052976	0.279531
	C269	C	0.763075	0.120798	0.235605
	C270	C	0.518367	0.094159	0.201488
	C271	C	0.762198	0.027035	0.242755
	H272	H	0.671595	0.127321	0.177399
	H273	H	0.919518	0.064934	0.238806
	H274	H	0.671030	0.013400	0.273787
	H275	H	0.924878	0.081490	0.234599
	H276	H	0.848904	0.064494	0.283544
	H277	H	0.604920	0.132268	0.239560
	H278	H	0.857540	0.085149	0.188750
	H279	H	0.601164	0.017656	0.231112
	H280	H	0.850604	0.014617	0.281260
	H281	H	0.605609	0.083045	0.243331
	H282	H	0.853027	0.130474	0.184417
	H283	H	0.600104	0.066545	0.247441
	H284	H	0.676546	0.082657	0.197634
	H285	H	0.921214	0.015690	0.238082
	H286	H	0.669690	0.062519	0.290690
	H287	H	0.923445	0.129662	0.248917
	O288	O	0.092291	0.112925	0.310196
	O289	O	0.338052	0.044589	0.344561
	O290	O	0.094168	0.022954	0.369377
	O291	O	0.348807	0.091361	0.335342
	O292	O	0.419118	0.043555	0.372783
	O293	O	0.173421	0.112091	0.338525
	O294	O	0.428243	0.093445	0.307569
	O295	O	0.173603	0.024939	0.341668
	O296	O	0.424443	0.023394	0.370880
	O297	O	0.179260	0.091876	0.337032
	O298	O	0.422638	0.113498	0.312161
	O299	O	0.168508	0.045073	0.346189
	O300	O	0.097556	0.092916	0.308850
	O301	O	0.343257	0.024458	0.342766
	O302	O	0.088427	0.043067	0.373861
	O303	O	0.343026	0.111527	0.339889
	F304	F	0.006169	0.034699	0.345821
	F305	F	0.260685	0.103121	0.311860
	F306	F	0.011376	0.101787	0.335814
	F307	F	0.256408	0.033315	0.369726
	Al308	Al	0.131225	0.034011	0.357750
	Al309	Al	0.385840	0.102458	0.323859
	Al310	Al	0.135921	0.102460	0.323812
	Al311	Al	0.381304	0.034000	0.357734
	C312	C	0.101886	0.131380	0.302071
	C313	C	0.347338	0.063209	0.339086
	C314	C	0.095860	0.004131	0.372512
	C315	C	0.350142	0.072553	0.338245
	C316	C	0.415477	0.061306	0.384623
	C317	C	0.169970	0.129929	0.349861
	C318	C	0.421254	0.076273	0.292967
	C319	C	0.166667	0.007657	0.327593
	C320	C	0.415627	0.004756	0.376478
	C321	C	0.169823	0.073225	0.342308
	C322	C	0.421748	0.132275	0.307009
	C323	C	0.167025	0.063893	0.343134
	C324	C	0.101191	0.075230	0.296786
	C325	C	0.347069	0.006687	0.331010
	C326	C	0.095490	0.060337	0.388015
	C327	C	0.350088	0.128836	0.353842
	C328	C	0.010346	0.127069	0.305735
	C329	C	0.255696	0.058766	0.341560
	C330	C	0.007079	0.009244	0.374047
	C331	C	0.261492	0.077676	0.339890
	C332	C	0.004527	0.056257	0.383504
	C333	C	0.259246	0.124814	0.349081
	C334	C	0.011883	0.080314	0.297727
	C335	C	0.257589	0.011741	0.332085
	C336	C	0.008289	0.117103	0.309600
	C337	C	0.253806	0.048741	0.344219
	C338	C	0.008894	0.019267	0.371375
	C339	C	0.263404	0.087701	0.337313
	C340	C	0.003825	0.046940	0.376261
	C341	C	0.258515	0.115468	0.342002
	C342	C	0.012549	0.089587	0.305167
	C343	C	0.258281	0.021058	0.339323
	H344	H	0.170397	0.127417	0.300918
	H345	H	0.416170	0.059319	0.337755
	H346	H	0.167013	0.007494	0.370530
	H347	H	0.421178	0.075916	0.336233
	H348	H	0.344624	0.058297	0.381130
	H349	H	0.099226	0.126979	0.346061
	H350	H	0.351687	0.080115	0.293537
	H351	H	0.097024	0.011491	0.328295
	H352	H	0.346633	0.008634	0.377737
	H353	H	0.100809	0.077098	0.343622
	H354	H	0.350825	0.129019	0.309920
	H355	H	0.095742	0.060548	0.345088
	H356	H	0.171939	0.078196	0.300527
	H357	H	0.417798	0.009729	0.334530
	H358	H	0.165216	0.056517	0.387336
	H359	H	0.419777	0.124993	0.353361
	O360	O	0.591997	0.112904	0.310136
	O361	O	0.837774	0.044602	0.344568
	O362	O	0.594068	0.022941	0.369371
	O363	O	0.848608	0.091355	0.335488
	O364	O	0.918737	0.043539	0.372794
	O365	O	0.672962	0.112123	0.338388
	O366	O	0.928006	0.093484	0.307527
	O367	O	0.673507	0.024969	0.341572
	O368	O	0.924612	0.023424	0.371072
	O369	O	0.679016	0.091860	0.336967
	O370	O	0.922913	0.113490	0.312181
	O371	O	0.668222	0.045061	0.346171
	O372	O	0.597867	0.092907	0.308763
	O373	O	0.843144	0.024417	0.342801
	O374	O	0.588680	0.043026	0.373922
	O375	O	0.842524	0.111559	0.339917
	F376	F	0.506079	0.034683	0.345848
	F377	F	0.760787	0.103120	0.311903
	F378	F	0.510979	0.101776	0.335703
	F379	F	0.756594	0.033299	0.369651
	Al380	Al	0.631284	0.033997	0.357751
	Al381	Al	0.886102	0.102463	0.323896
	Al382	Al	0.635759	0.102448	0.323766
	Al383	Al	0.881509	0.034002	0.357730
	C384	C	0.601435	0.131385	0.302091
	C385	C	0.847060	0.063204	0.339010
	C386	C	0.596130	0.004121	0.372548
	C387	C	0.849908	0.072544	0.338192
	C388	C	0.914948	0.061311	0.384641
	C389	C	0.669572	0.129951	0.349747
	C390	C	0.921021	0.076303	0.292916
	C391	C	0.666359	0.007699	0.327446
	C392	C	0.915428	0.004781	0.376576
	C393	C	0.669528	0.073224	0.342257
	C394	C	0.922221	0.132302	0.307072
	C395	C	0.666720	0.063892	0.343066
	C396	C	0.601459	0.075219	0.296754
	C397	C	0.846763	0.006697	0.330946
	C398	C	0.595793	0.060301	0.388114
	C399	C	0.849691	0.128823	0.353853
	C400	C	0.509976	0.127056	0.305751
	C401	C	0.755334	0.058764	0.341462
	C402	C	0.507207	0.009222	0.373989
	C403	C	0.761232	0.077668	0.339815
	C404	C	0.504907	0.056234	0.383553
	C405	C	0.758771	0.124825	0.349017
	C406	C	0.512064	0.080295	0.297734
	C407	C	0.757286	0.011763	0.331956
	C408	C	0.507941	0.117095	0.309601
	C409	C	0.753462	0.048743	0.344185
	C410	C	0.508807	0.019252	0.371278
	C411	C	0.763187	0.087692	0.337303
	C412	C	0.504163	0.046925	0.376285
	C413	C	0.757904	0.115492	0.341959
	C414	C	0.512809	0.089567	0.305141
	C415	C	0.758041	0.021069	0.339241
	H416	H	0.670025	0.127426	0.300966
	H417	H	0.916012	0.059314	0.337705
	H418	H	0.667237	0.007490	0.370600
	H419	H	0.921079	0.075904	0.336237
	H420	H	0.844093	0.058281	0.381174
	H421	H	0.598762	0.127021	0.345901
	H422	H	0.851472	0.080154	0.293479
	H423	H	0.596745	0.011540	0.328113
	H424	H	0.846439	0.008660	0.377917
	H425	H	0.600568	0.077098	0.343601
	H426	H	0.851186	0.129062	0.310034
	H427	H	0.595526	0.060552	0.345051
	H428	H	0.672192	0.078202	0.300435
	H429	H	0.917370	0.009733	0.334509
	H430	H	0.665540	0.056471	0.387486
	H431	H	0.919291	0.124966	0.353394
	O432	O	0.087885	0.107088	0.406909
	O433	O	0.334344	0.038664	0.441719
	O434	O	0.090595	0.017012	0.466401
	O435	O	0.344383	0.085441	0.431787
	O436	O	0.415570	0.037637	0.469683
	O437	O	0.169406	0.106093	0.435077
	O438	O	0.424326	0.087476	0.404012
	O439	O	0.170279	0.019009	0.438614
	O440	O	0.421032	0.017464	0.467958
	O441	O	0.174796	0.085901	0.433231
	O442	O	0.418646	0.107576	0.408646
	O443	O	0.164765	0.039119	0.443216
	O444	O	0.093279	0.086974	0.405163
	O445	O	0.339779	0.018470	0.439872
	O446	O	0.084696	0.037116	0.470876
	O447	O	0.338931	0.105527	0.436450
	F448	F	0.002751	0.028738	0.442705
	F449	F	0.256498	0.097201	0.408228
	F450	F	0.007207	0.095841	0.432213
	F451	F	0.252880	0.027379	0.466773
	Al452	Al	0.127824	0.028055	0.454767
	Al453	Al	0.381553	0.096511	0.420215
	Al454	Al	0.131774	0.096521	0.420125
	Al455	Al	0.377630	0.028063	0.454807
	C456	C	0.096972	0.125744	0.401548
	C457	C	0.343374	0.057267	0.436071
	C458	C	0.091917	-0.001814	0.469433
	C459	C	0.346011	0.066603	0.435063
	C460	C	0.412134	0.055390	0.481466
	C461	C	0.165669	0.123814	0.447009
	C462	C	0.417020	0.070190	0.389988
	C463	C	0.162993	0.001737	0.424458
	C464	C	0.412006	-0.001163	0.473395
	C465	C	0.165579	0.067291	0.438901
	C466	C	0.417060	0.126391	0.405658
	C467	C	0.162920	0.057955	0.439912
	C468	C	0.096864	0.069214	0.393404
	C469	C	0.343387	0.000732	0.427926
	C470	C	0.091683	0.054398	0.484938
	C471	C	0.346001	0.122789	0.450627
	C472	C	0.005400	0.121289	0.404144
	C473	C	0.251654	0.052828	0.438525
	C474	C	0.003178	0.003312	0.470927
	C475	C	0.257300	0.071731	0.436465
	C476	C	0.000737	0.050335	0.480391
	C477	C	0.255088	0.118738	0.445996
	C478	C	0.007375	0.074264	0.394524
	C479	C	0.253952	0.005806	0.429033
	C480	C	0.003767	0.111254	0.406684
	C481	C	0.249978	0.042805	0.441299
	C482	C	0.005302	0.013340	0.468280
	C483	C	0.259129	0.081755	0.433695
	C484	C	0.000095	0.041016	0.473166
	C485	C	0.254370	0.109437	0.438728
	C486	C	0.008225	0.083590	0.401739
	C487	C	0.254797	0.015105	0.436305
	H488	H	0.165824	0.121860	0.400056
	H489	H	0.412320	0.053379	0.434879
	H490	H	0.163064	0.001552	0.467545
	H491	H	0.417166	0.069959	0.433087
	H492	H	0.341305	0.052383	0.477929
	H493	H	0.094807	0.120818	0.443427
	H494	H	0.347406	0.074030	0.390614
	H495	H	0.093029	0.005532	0.425108
	H496	H	0.343198	0.002734	0.474775
	H497	H	0.096579	0.071179	0.440061
	H498	H	0.345930	0.123037	0.407656
	H499	H	0.091723	0.054601	0.441843
	H500	H	0.167735	0.072238	0.396853
	H501	H	0.414487	0.003715	0.431424
	H502	H	0.161438	0.050568	0.484301
	H503	H	0.415629	0.118948	0.450002
	O504	O	0.588285	0.107090	0.407098
	O505	O	0.833976	0.038655	0.441253
	O506	O	0.590729	0.017022	0.466351
	O507	O	0.844205	0.085434	0.431991
	O508	O	0.915038	0.037645	0.469586
	O509	O	0.668913	0.106068	0.435259
	O510	O	0.923667	0.087478	0.404162
	O511	O	0.669874	0.019025	0.438507
	O512	O	0.921039	0.017518	0.467910
	O513	O	0.674643	0.085923	0.433552
	O514	O	0.918271	0.107573	0.408676
	O515	O	0.664387	0.039140	0.443094
	O516	O	0.593835	0.086939	0.405340
	O517	O	0.839459	0.018472	0.439699
	O518	O	0.585319	0.037096	0.470907
	O519	O	0.838665	0.105561	0.436471
	F520	F	0.502344	0.028744	0.442812
	F521	F	0.756362	0.097193	0.408464
	F522	F	0.506674	0.095816	0.432210
	F523	F	0.753185	0.027395	0.466502
	Al524	Al	0.627731	0.028059	0.454688
	Al525	Al	0.881885	0.096507	0.420361
	Al526	Al	0.631506	0.096495	0.420328
	Al527	Al	0.878076	0.028077	0.454591
	C528	C	0.597259	0.125729	0.401463
	C529	C	0.843044	0.057274	0.435905
	C530	C	0.592322	-0.001828	0.469309
	C531	C	0.845736	0.066611	0.435006
	C532	C	0.911253	0.055416	0.481431
	C533	C	0.665056	0.123833	0.446989
	C534	C	0.916356	0.070183	0.390031
	C535	C	0.662694	0.001726	0.424390
	C536	C	0.911538	-0.001150	0.473398
	C537	C	0.665413	0.067281	0.439009
	C538	C	0.916733	0.126417	0.405910
	C539	C	0.662708	0.057942	0.439912
	C540	C	0.597353	0.069180	0.393479
	C541	C	0.843090	0.000728	0.427927
	C542	C	0.592503	0.054386	0.484935
	C543	C	0.845403	0.122831	0.450567
	C544	C	0.505743	0.121277	0.404026
	C545	C	0.751372	0.052825	0.438331
	C546	C	0.503647	0.003289	0.470878
	C547	C	0.757042	0.071734	0.436549
	C548	C	0.501540	0.050317	0.480456
	C549	C	0.754559	0.118763	0.446011
	C550	C	0.507953	0.074249	0.394557
	C551	C	0.753553	0.005802	0.428965
	C552	C	0.504014	0.111246	0.406710
	C553	C	0.749664	0.042802	0.441007
	C554	C	0.505462	0.013329	0.468280
	C555	C	0.758867	0.081762	0.433891
	C556	C	0.500702	0.040992	0.473238
	C557	C	0.753969	0.109439	0.438795
	C558	C	0.508883	0.083567	0.401773
	C559	C	0.754331	0.015115	0.436184
	H560	H	0.666180	0.121850	0.400061
	H561	H	0.912064	0.053393	0.434639
	H562	H	0.663359	0.001551	0.467375
	H563	H	0.916900	0.069966	0.433032
	H564	H	0.840382	0.052410	0.477891
	H565	H	0.594318	0.120813	0.443421
	H566	H	0.846638	0.074008	0.390715
	H567	H	0.592757	0.005528	0.424972
	H568	H	0.842621	0.002734	0.474736
	H569	H	0.596409	0.071163	0.440273
	H570	H	0.845614	0.123059	0.407966
	H571	H	0.591594	0.054583	0.441897
	H572	H	0.668105	0.072204	0.396972
	H573	H	0.914135	0.003716	0.431412
	H574	H	0.662227	0.050565	0.484243
	H575	H	0.915145	0.119004	0.449943
	O576	O	0.084450	0.101168	0.504072
	O577	O	0.329976	0.032667	0.537877
	O578	O	0.086543	0.011075	0.563020
	O579	O	0.340718	0.079489	0.528797
	O580	O	0.411200	0.031670	0.566128
	O581	O	0.165636	0.100133	0.532160
	O582	O	0.420338	0.081515	0.501045
	O583	O	0.166042	0.013007	0.535235
	O584	O	0.417073	0.011633	0.564820
	O585	O	0.171180	0.079963	0.530360
	O586	O	0.414827	0.101626	0.505609
	O587	O	0.160478	0.033168	0.539673
	O588	O	0.089665	0.081032	0.502215
	O589	O	0.335578	0.012417	0.536615
	O590	O	0.080432	0.031113	0.567439
	O591	O	0.335238	0.099593	0.533388
	F592	F	-0.001342	0.022763	0.539174
	F593	F	0.252416	0.091248	0.505258
	F594	F	0.003466	0.089861	0.529248
	F595	F	0.248558	0.021455	0.563183
	Al596	Al	0.123460	0.022098	0.551201
	Al597	Al	0.377854	0.090559	0.517200
	Al598	Al	0.127789	0.090564	0.517228
	Al599	Al	0.373421	0.022101	0.551233
	C600	C	0.093193	0.119787	0.498460
	C601	C	0.339457	0.051321	0.532539
	C602	C	0.087262	-0.007702	0.568087
	C603	C	0.342316	0.060655	0.531724
	C604	C	0.407688	0.049354	0.578263
	C605	C	0.161948	0.117891	0.543927
	C606	C	0.413544	0.064254	0.486890
	C607	C	0.158895	-0.004306	0.521329
	C608	C	0.407582	-0.006823	0.572750
	C609	C	0.162025	0.061336	0.535913
	C610	C	0.413214	0.120440	0.502498
	C611	C	0.159188	0.051994	0.536743
	C612	C	0.093165	0.063267	0.490359
	C613	C	0.339231	-0.005364	0.525077
	C614	C	0.087554	0.048310	0.582003
	C615	C	0.342259	0.116876	0.547546
	C616	C	0.001643	0.115326	0.500956
	C617	C	0.247793	0.046870	0.535075
	C618	C	-0.000991	-0.002482	0.569278
	C619	C	0.253676	0.065783	0.533382
	C620	C	-0.003267	0.044293	0.577190
	C621	C	0.251369	0.112815	0.542940
	C622	C	0.003810	0.068343	0.491417
	C623	C	0.249805	-0.000258	0.525991
	C624	C	0.000081	0.105297	0.503695
	C625	C	0.245803	0.036836	0.537669
	C626	C	0.001289	0.007472	0.565426
	C627	C	0.255432	0.075809	0.530724
	C628	C	-0.003992	0.035023	0.569761
	C629	C	0.250669	0.103498	0.535693
	C630	C	0.004751	0.077660	0.498668
	C631	C	0.250497	0.009063	0.533086
	H632	H	0.162270	0.115919	0.497194
	H633	H	0.408358	0.047436	0.531125
	H634	H	0.158305	-0.004446	0.565284
	H635	H	0.413522	0.064003	0.529683
	H636	H	0.336874	0.046396	0.574537
	H637	H	0.091207	0.114877	0.540349
	H638	H	0.343842	0.068075	0.487516
	H639	H	0.089002	-0.000501	0.521932
	H640	H	0.339049	-0.002854	0.573771
	H641	H	0.093098	0.065225	0.537273
	H642	H	0.342075	0.117095	0.504548
	H643	H	0.088044	0.048644	0.538766
	H644	H	0.164032	0.066279	0.493857
	H645	H	0.410247	-0.002432	0.528805
	H646	H	0.157208	0.044461	0.581436
	H647	H	0.411835	0.113024	0.546945
	O648	O	0.584324	0.101136	0.503922
	O649	O	0.829501	0.032695	0.537832
	O650	O	0.586475	0.011080	0.563046
	O651	O	0.840307	0.079451	0.528910
	O652	O	0.910947	0.031696	0.566047
	O653	O	0.665233	0.100132	0.532138
	O654	O	0.920131	0.081553	0.501021
	O655	O	0.665787	0.013002	0.535172
	O656	O	0.917023	0.011642	0.564645
	O657	O	0.670749	0.079952	0.530438
	O658	O	0.914831	0.101607	0.505681
	O659	O	0.659980	0.033154	0.539540
	O660	O	0.589943	0.081027	0.502168
	O661	O	0.835344	0.012421	0.536519
	O662	O	0.580666	0.031108	0.567439
	O663	O	0.834711	0.099584	0.533507
	F664	F	0.498047	0.022737	0.539322
	F665	F	0.752761	0.091229	0.505412
	F666	F	0.502951	0.089867	0.529118
	F667	F	0.748938	0.021461	0.563062
	Al668	Al	0.623424	0.022086	0.551221
	Al669	Al	0.878061	0.090547	0.517357
	Al670	Al	0.627729	0.090561	0.517213
	Al671	Al	0.873730	0.022131	0.551083
	C672	C	0.593498	0.119768	0.498333
	C673	C	0.838600	0.051307	0.532542
	C674	C	0.587425	-0.007711	0.567995
	C675	C	0.841444	0.060635	0.531758
	C676	C	0.907310	0.049382	0.578242
	C677	C	0.661457	0.117892	0.543901
	C678	C	0.912780	0.064285	0.486843
	C679	C	0.658344	-0.004284	0.521250
	C680	C	0.907512	-0.006816	0.572787
	C681	C	0.661184	0.061335	0.536035
	C682	C	0.912809	0.120449	0.502492
	C683	C	0.658346	0.051993	0.536838
	C684	C	0.593868	0.063251	0.490357
	C685	C	0.838626	-0.005356	0.525049
	C686	C	0.587850	0.048263	0.582124
	C687	C	0.841670	0.116839	0.547671
	C688	C	0.501876	0.115307	0.500860
	C689	C	0.746901	0.046869	0.535080
	C690	C	0.499192	-0.002486	0.569256
	C691	C	0.752871	0.065766	0.533462
	C692	C	0.496987	0.044254	0.577275
	C693	C	0.750848	0.112801	0.542964
	C694	C	0.504403	0.068328	0.491423
	C695	C	0.749296	-0.000254	0.525965
	C696	C	0.500101	0.105295	0.503579
	C697	C	0.745200	0.036842	0.537616
	C698	C	0.501202	0.007464	0.565485
	C699	C	0.754927	0.075785	0.530796
	C700	C	0.496147	0.035000	0.569809
	C701	C	0.750170	0.103490	0.535736
	C702	C	0.504967	0.077641	0.498655
	C703	C	0.750252	0.009063	0.533043
	H704	H	0.662467	0.115889	0.497011
	H705	H	0.907516	0.047426	0.531114
	H706	H	0.658422	-0.004454	0.565133
	H707	H	0.912605	0.063988	0.529701
	H708	H	0.836428	0.046412	0.574570
	H709	H	0.590738	0.114887	0.540266
	H710	H	0.843150	0.068125	0.487464
	H711	H	0.588622	-0.000457	0.521792
	H712	H	0.838906	-0.002856	0.573825
	H713	H	0.592394	0.065229	0.537454
	H714	H	0.841705	0.117090	0.504503
	H715	H	0.587245	0.048642	0.538911
	H716	H	0.664661	0.066267	0.493877
	H717	H	0.909639	-0.002417	0.528739
	H718	H	0.657429	0.044411	0.581595
	H719	H	0.911261	0.112983	0.547143
	O720	O	0.080166	0.095186	0.600487
	O721	O	0.324199	0.026992	0.641244
	O722	O	0.080601	0.007367	0.672980
	O723	O	0.336484	0.073523	0.625314
	O724	O	0.405464	0.027116	0.669794
	O725	O	0.161334	0.094147	0.628671
	O726	O	0.416538	0.075511	0.597616
	O727	O	0.160811	0.007622	0.641633
	O728	O	0.411624	0.008048	0.674362
	O729	O	0.167150	0.074139	0.627263
	O730	O	0.410510	0.095663	0.602151
	O731	O	0.154643	0.027623	0.643029
	O732	O	0.085659	0.074955	0.599023
	O733	O	0.330380	0.006956	0.643419
	O734	O	0.074950	0.026463	0.671445
	O735	O	0.330818	0.093571	0.629971
	F736	F	-0.006989	0.017056	0.644818
	F737	F	0.248186	0.085265	0.601740
	F738	F	-0.001208	0.083937	0.625701
	F739	F	0.243086	0.016953	0.668433
	Al740	Al	0.117783	0.017016	0.656557
	Al741	Al	0.373504	0.084585	0.613646
	Al742	Al	0.123551	0.084606	0.613706
	Al743	Al	0.367769	0.017032	0.656596
	C744	C	0.089050	0.113835	0.595101
	C745	C	0.333905	0.045439	0.632833
	C746	C	0.086499	-0.007959	0.697352
	C747	C	0.336920	0.054750	0.630496
	C748	C	0.402734	0.044718	0.681855
	C749	C	0.157743	0.111809	0.640758
	C750	C	0.409245	0.058207	0.583787
	C751	C	0.154036	-0.009154	0.625838
	C752	C	0.407251	-0.006363	0.700934
	C753	C	0.157140	0.055660	0.635297
	C754	C	0.409140	0.114468	0.599394
	C755	C	0.154115	0.046353	0.637645
	C756	C	0.089013	0.057164	0.587548
	C757	C	0.333878	-0.010516	0.630793
	C758	C	0.082259	0.043349	0.686654
	C759	C	0.337844	0.110722	0.644780
	C760	C	-0.002424	0.109372	0.597704
	C761	C	0.242310	0.041127	0.636377
	C762	C	-0.003304	-0.003370	0.692660
	C763	C	0.248680	0.059974	0.631699
	C764	C	-0.008515	0.039595	0.680996
	C765	C	0.247125	0.106727	0.639819
	C766	C	-0.000318	0.062264	0.588415
	C767	C	0.244638	-0.005428	0.631651
	C768	C	-0.004023	0.099342	0.600286
	C769	C	0.240155	0.031188	0.640469
	C770	C	-0.003858	0.004564	0.678993
	C771	C	0.251081	0.069933	0.627819
	C772	C	-0.009587	0.030399	0.673516
	C773	C	0.246346	0.097473	0.632334
	C774	C	0.000646	0.071613	0.595459
	C775	C	0.245351	0.003708	0.639480
	H776	H	0.158105	0.109972	0.593654
	H777	H	0.402416	0.041459	0.631819
	H778	H	0.155791	-0.005752	0.690876
	H779	H	0.407905	0.058017	0.627615
	H780	H	0.332434	0.041924	0.677348
	H781	H	0.087309	0.108802	0.636965
	H782	H	0.339801	0.062074	0.584321
	H783	H	0.084990	-0.005229	0.626327
	H784	H	0.337750	-0.002821	0.697467
	H785	H	0.088533	0.059618	0.636368
	H786	H	0.337976	0.111127	0.601460
	H787	H	0.083166	0.043123	0.640621
	H788	H	0.159719	0.060145	0.591278
	H789	H	0.403979	-0.007721	0.635418
	H790	H	0.151336	0.039430	0.686121
	H791	H	0.407132	0.106827	0.644278
	O792	O	0.580028	0.095148	0.600346
	O793	O	0.823634	0.027009	0.641112
	O794	O	0.580666	0.007325	0.672854
	O795	O	0.836426	0.073517	0.625459
	O796	O	0.905300	0.027140	0.669677
	O797	O	0.660494	0.094177	0.628624
	O798	O	0.916073	0.075571	0.597553
	O799	O	0.660635	0.007672	0.641592
	O800	O	0.911401	0.008044	0.674351
	O801	O	0.667033	0.074141	0.627357
	O802	O	0.910633	0.095654	0.602233
	O803	O	0.654129	0.027642	0.643056
	O804	O	0.586176	0.074930	0.599018
	O805	O	0.829937	0.006975	0.643413
	O806	O	0.574902	0.026444	0.671529
	O807	O	0.829979	0.093581	0.630072
	F808	F	0.492461	0.017070	0.644860
	F809	F	0.748503	0.085273	0.601851
	F810	F	0.498563	0.083907	0.625596
	F811	F	0.743066	0.016980	0.668402
	Al812	Al	0.617751	0.017027	0.656555
	Al813	Al	0.873822	0.084589	0.613760
	Al814	Al	0.623490	0.084593	0.613686
	Al815	Al	0.867760	0.017049	0.656510
	C816	C	0.589262	0.113813	0.595047
	C817	C	0.833573	0.045454	0.632862
	C818	C	0.586539	-0.007986	0.697299
	C819	C	0.836804	0.054764	0.630560
	C820	C	0.902415	0.044727	0.681733
	C821	C	0.656791	0.111846	0.640646
	C822	C	0.908738	0.058237	0.583755
	C823	C	0.653546	-0.009118	0.625836
	C824	C	0.907047	-0.006375	0.700890
	C825	C	0.657031	0.055671	0.635393
	C826	C	0.908889	0.114500	0.599415
	C827	C	0.653855	0.046364	0.637712
	C828	C	0.589400	0.057115	0.587677
	C829	C	0.833231	-0.010516	0.630785
	C830	C	0.582421	0.043338	0.686754
	C831	C	0.836892	0.110741	0.644706
	C832	C	0.497775	0.109348	0.597647
	C833	C	0.741932	0.041142	0.636374
	C834	C	0.496807	-0.003387	0.692595
	C835	C	0.748609	0.059985	0.631814
	C836	C	0.491803	0.039581	0.681071
	C837	C	0.746121	0.106748	0.639780
	C838	C	0.500194	0.062226	0.588467
	C839	C	0.744139	-0.005385	0.631607
	C840	C	0.495889	0.099322	0.600157
	C841	C	0.739594	0.031204	0.640417
	C842	C	0.496377	0.004551	0.678946
	C843	C	0.750977	0.069941	0.627971
	C844	C	0.490527	0.030376	0.673594
	C845	C	0.745479	0.097488	0.632359
	C846	C	0.501082	0.071573	0.595494
	C847	C	0.744966	0.003740	0.639452
	H848	H	0.658331	0.109958	0.593585
	H849	H	0.902010	0.041477	0.631852
	H850	H	0.655858	-0.005784	0.690816
	H851	H	0.907657	0.058028	0.627687
	H852	H	0.832131	0.041942	0.677173
	H853	H	0.586380	0.108846	0.636832
	H854	H	0.839185	0.062090	0.584307
	H855	H	0.584397	-0.005206	0.626347
	H856	H	0.837428	-0.002865	0.697380
	H857	H	0.588449	0.059632	0.636487
	H858	H	0.837758	0.111149	0.601487
	H859	H	0.582769	0.043135	0.640686
	H860	H	0.660074	0.060080	0.591439
	H861	H	0.903340	-0.007741	0.635447
	H862	H	0.651424	0.039413	0.686259
	H863	H	0.906171	0.106849	0.644204
	O864	O	0.074631	0.089459	0.703593
	O865	O	0.332723	0.033075	0.800320
	O866	O	0.088505	0.016260	0.838602
	O867	O	0.330756	0.069789	0.735254
	O868	O	0.413300	0.035557	0.831078
	O869	O	0.155299	0.089622	0.732183
	O870	O	0.411161	0.070159	0.704087
	O871	O	0.168843	0.015074	0.806639
	O872	O	0.419153	0.017049	0.839968
	O873	O	0.161755	0.070481	0.736679
	O874	O	0.404778	0.090113	0.705422
	O875	O	0.163480	0.033832	0.801582
	O876	O	0.080609	0.069490	0.705772
	O877	O	0.338076	0.014355	0.808774
	O878	O	0.082799	0.034881	0.832993
	O879	O	0.324890	0.088931	0.733978
	F880	F	0.000769	0.024226	0.808496
	F881	F	0.242877	0.079552	0.707325
	F882	F	-0.006810	0.079448	0.730853
	F883	F	0.250920	0.025681	0.831346
	Al884	Al	0.125853	0.024957	0.819909
	Al885	Al	0.368072	0.079519	0.719024
	Al886	Al	0.118192	0.079526	0.718979
	Al887	Al	0.375733	0.024945	0.819942
	C888	C	0.084081	0.107933	0.695212
	C889	C	0.337161	0.047106	0.772647
	C890	C	0.093818	0.002180	0.866150
	C891	C	0.336755	0.054429	0.759710
	C892	C	0.410312	0.052786	0.844844
	C893	C	0.152440	0.107185	0.744387
	C894	C	0.404243	0.053399	0.688288
	C895	C	0.161857	-0.001281	0.789803
	C896	C	0.415049	0.004050	0.869640
	C897	C	0.157663	0.056083	0.763372
	C898	C	0.404399	0.108842	0.700100
	C899	C	0.158089	0.048774	0.776282
	C900	C	0.083826	0.052017	0.693138
	C901	C	0.341384	-0.002817	0.794824
	C902	C	0.090218	0.051317	0.849558
	C903	C	0.332248	0.105824	0.749250
	C904	C	-0.007380	0.103595	0.698786
	C905	C	0.247790	0.044211	0.781119
	C906	C	0.004143	0.006595	0.860614
	C907	C	0.247004	0.059035	0.754994
	C908	C	-0.000372	0.047770	0.843435
	C909	C	0.241522	0.102077	0.743581
	C910	C	-0.005345	0.057120	0.694004
	C911	C	0.252362	0.002235	0.796158
	C912	C	-0.009466	0.093655	0.702847
	C913	C	0.248049	0.036502	0.795401
	C914	C	0.004037	0.013820	0.845261
	C915	C	0.246489	0.066974	0.741268
	C916	C	-0.001522	0.038779	0.835171
	C917	C	0.240408	0.092874	0.736006
	C918	C	-0.004465	0.066244	0.701822
	C919	C	0.253323	0.011189	0.804525
	H920	H	0.152715	0.103981	0.694144
	H921	H	0.406488	0.043575	0.776192
	H922	H	0.163263	0.004027	0.859209
	H923	H	0.405802	0.056606	0.753131
	H924	H	0.340663	0.050098	0.839914
	H925	H	0.082384	0.104360	0.739833
	H926	H	0.335296	0.057333	0.688770
	H927	H	0.092971	0.002627	0.790696
	H928	H	0.345618	0.007453	0.865547
	H929	H	0.088002	0.059590	0.759907
	H930	H	0.333514	0.105603	0.703096
	H931	H	0.088605	0.046634	0.782819
	H932	H	0.153982	0.054821	0.697707
	H933	H	0.411264	-0.000168	0.799862
	H934	H	0.158876	0.047427	0.848556
	H935	H	0.401102	0.101877	0.748679
	O936	O	0.574279	0.089475	0.703555
	O937	O	0.832120	0.033111	0.800247
	O938	O	0.588471	0.016217	0.838621
	O939	O	0.830486	0.069776	0.735267
	O940	O	0.913415	0.035620	0.831025
	O941	O	0.655154	0.089662	0.732064
	O942	O	0.911082	0.070154	0.704031
	O943	O	0.669395	0.015097	0.806673
	O944	O	0.919334	0.017118	0.839988
	O945	O	0.661435	0.070491	0.736674
	O946	O	0.905001	0.090070	0.705433
	O947	O	0.662890	0.033849	0.801639
	O948	O	0.580700	0.069489	0.705797
	O949	O	0.838641	0.014376	0.808774
	O950	O	0.582781	0.034875	0.833104
	O951	O	0.824679	0.088955	0.733981
	F952	F	0.500667	0.024194	0.808590
	F953	F	0.743035	0.079576	0.707342
	F954	F	0.493322	0.079469	0.730864
	F955	F	0.751009	0.025704	0.831335
	Al956	Al	0.625921	0.024959	0.819959
	Al957	Al	0.868345	0.079511	0.719096
	Al958	Al	0.618000	0.079553	0.718947
	Al959	Al	0.875981	0.024988	0.819877
	C960	C	0.584028	0.107942	0.695134
	C961	C	0.836333	0.047148	0.772661
	C962	C	0.594220	0.002153	0.866174
	C963	C	0.836172	0.054466	0.759717
	C964	C	0.910721	0.052800	0.844829
	C965	C	0.652473	0.107238	0.744251
	C966	C	0.903979	0.053404	0.688190
	C967	C	0.662116	-0.001244	0.789816
	C968	C	0.914436	0.004064	0.869577
	C969	C	0.656938	0.056103	0.763356
	C970	C	0.904424	0.108819	0.700137
	C971	C	0.657020	0.048798	0.776273
	C972	C	0.583985	0.052011	0.693217
	C973	C	0.841783	-0.002808	0.794799
	C974	C	0.589758	0.051296	0.849636
	C975	C	0.832072	0.105823	0.749308
	C976	C	0.492496	0.103621	0.698710
	C977	C	0.746767	0.044236	0.781095
	C978	C	0.504539	0.006551	0.860653
	C979	C	0.746459	0.059043	0.754978
	C980	C	0.499194	0.047765	0.843495
	C981	C	0.741347	0.102097	0.743580
	C982	C	0.494932	0.057121	0.694052
	C983	C	0.752848	0.002263	0.796075
	C984	C	0.490271	0.093676	0.702803
	C985	C	0.747260	0.036514	0.795356
	C986	C	0.504004	0.013791	0.845296
	C987	C	0.746130	0.066990	0.741297
	C988	C	0.498154	0.038747	0.835233
	C989	C	0.740185	0.092898	0.735995
	C990	C	0.495666	0.066255	0.701860
	C991	C	0.753887	0.011220	0.804488
	H992	H	0.652671	0.103991	0.694041
	H993	H	0.905746	0.043623	0.776257
	H994	H	0.663454	0.003995	0.859212
	H995	H	0.905461	0.056659	0.753207
	H996	H	0.840839	0.050118	0.839928
	H997	H	0.582535	0.104444	0.739580
	H998	H	0.834983	0.057332	0.688637
	H999	H	0.593278	0.002670	0.790746
	H1000	H	0.844899	0.007470	0.865485
	H1001	H	0.587425	0.059631	0.759890
	H1002	H	0.833451	0.105579	0.703148
	H1003	H	0.587692	0.046670	0.782804
	H1004	H	0.653934	0.054827	0.697833
	H1005	H	0.911731	-0.000165	0.799854
	H1006	H	0.658369	0.047396	0.848629
	H1007	H	0.900907	0.101875	0.748772
	O1008	O	0.082468	0.095607	0.862702
	O1009	O	0.339955	0.045022	0.972637
	O1010	O	0.095829	0.028201	1.010885
	O1011	O	0.338487	0.078772	0.901066
	O1012	O	0.420856	0.047678	1.003830
	O1013	O	0.163369	0.098111	0.893409
	O1014	O	0.418841	0.077592	0.869185
	O1015	O	0.176172	0.027196	0.979405
	O1016	O	0.426496	0.028963	1.012288
	O1017	O	0.169323	0.079569	0.902260
	O1018	O	0.413446	0.096356	0.864021
	O1019	O	0.170756	0.045765	0.973830
	O1020	O	0.088556	0.076918	0.871108
	O1021	O	0.345609	0.026484	0.981492
	O1022	O	0.090225	0.047002	1.005744
	O1023	O	0.332797	0.097396	0.895514
	F1024	F	0.007812	0.036364	0.981179
	F1025	F	0.250919	0.086770	0.870961
	F1026	F	0.001117	0.088190	0.893764
	F1027	F	0.258217	0.037821	1.004006
	Al1028	Al	0.133194	0.037093	0.992581
	Al1029	Al	0.376037	0.087483	0.882380
	Al1030	Al	0.126074	0.087501	0.882278
	Al1031	Al	0.383198	0.037086	0.992650
	C1032	C	0.086428	0.109674	0.835169
	C1033	C	0.344253	0.058051	0.943008
	C1034	C	0.101441	0.013188	1.036077
	C1035	C	0.344046	0.064796	0.928756
	C1036	C	0.417848	0.064865	1.017771
	C1037	C	0.160502	0.115314	0.907252
	C1038	C	0.411982	0.061224	0.852336
	C1039	C	0.169120	0.010801	0.962766
	C1040	C	0.422227	0.014962	1.040008
	C1041	C	0.164633	0.066511	0.931917
	C1042	C	0.407698	0.111244	0.838607
	C1043	C	0.164836	0.059778	0.946139
	C1044	C	0.091824	0.059756	0.857083
	C1045	C	0.348800	0.009266	0.967696
	C1046	C	0.097132	0.063355	1.022539
	C1047	C	0.340111	0.113786	0.912165
	C1048	C	-0.003036	0.106734	0.843565
	C1049	C	0.254670	0.055471	0.951870
	C1050	C	0.011839	0.017854	1.031474
	C1051	C	0.254171	0.069102	0.923051
	C1052	C	0.006473	0.059822	1.016380
	C1053	C	0.249461	0.110268	0.905939
	C1054	C	0.002839	0.064773	0.858527
	C1055	C	0.259743	0.014310	0.968999
	C1056	C	-0.002371	0.098991	0.857780
	C1057	C	0.255155	0.048250	0.967246
	C1058	C	0.011389	0.025559	1.017175
	C1059	C	0.253949	0.076314	0.907654
	C1060	C	0.005602	0.050851	1.007984
	C1061	C	0.248244	0.101278	0.897635
	C1062	C	0.003838	0.073735	0.866907
	C1063	C	0.260753	0.023315	0.977276
	H1064	H	0.155998	0.106179	0.838726
	H1065	H	0.413660	0.054711	0.947269
	H1066	H	0.170744	0.015263	1.029390
	H1067	H	0.413335	0.066719	0.921909
	H1068	H	0.348032	0.062191	1.012826
	H1069	H	0.090686	0.112652	0.902271
	H1070	H	0.343284	0.065113	0.853295
	H1071	H	0.100424	0.014731	0.963641
	H1072	H	0.352808	0.018552	1.036657
	H1073	H	0.094973	0.069846	0.927699
	H1074	H	0.338392	0.109046	0.845045
	H1075	H	0.095411	0.057874	0.952952
	H1076	H	0.161615	0.062442	0.861991
	H1077	H	0.418596	0.011960	0.972650
	H1078	H	0.165884	0.059462	1.021527
	H1079	H	0.408848	0.109878	0.911235
	O1080	O	0.582706	0.095580	0.862642
	O1081	O	0.839578	0.045000	0.972657
	O1082	O	0.595842	0.028186	1.010851
	O1083	O	0.838240	0.078749	0.901108
	O1084	O	0.920814	0.047672	1.003775
	O1085	O	0.663758	0.098067	0.893439
	O1086	O	0.919299	0.077579	0.869147
	O1087	O	0.676240	0.027172	0.979414
	O1088	O	0.926704	0.029003	1.012360
	O1089	O	0.669072	0.079523	0.902298
	O1090	O	0.913136	0.096307	0.863997
	O1091	O	0.670381	0.045790	0.973891
	O1092	O	0.588191	0.076916	0.871021
	O1093	O	0.845600	0.026447	0.981486
	O1094	O	0.590166	0.046985	1.005768
	O1095	O	0.832975	0.097368	0.895473
	F1096	F	0.507981	0.036369	0.981200
	F1097	F	0.750941	0.086714	0.870981
	F1098	F	0.501245	0.088205	0.893788
	F1099	F	0.758342	0.037802	1.003979
	Al1100	Al	0.633098	0.037085	0.992605
	Al1101	Al	0.876193	0.087454	0.882393
	Al1102	Al	0.626038	0.087462	0.882318
	Al1103	Al	0.883256	0.037066	0.992568
	C1104	C	0.587021	0.109702	0.835232
	C1105	C	0.844207	0.058042	0.943121
	C1106	C	0.601328	0.013156	1.035980
	C1107	C	0.843897	0.064777	0.928859
	C1108	C	0.917360	0.064826	1.017913
	C1109	C	0.660405	0.115273	0.907281
	C1110	C	0.912324	0.061238	0.852352
	C1111	C	0.668970	0.010774	0.962728
	C1112	C	0.922336	0.014996	1.040068
	C1113	C	0.664542	0.066501	0.931936
	C1114	C	0.907125	0.111252	0.838624
	C1115	C	0.664820	0.059777	0.946177
	C1116	C	0.591371	0.059735	0.857108
	C1117	C	0.848654	0.009251	0.967689
	C1118	C	0.597510	0.063365	1.022548
	C1119	C	0.840039	0.113745	0.912186
	C1120	C	0.497528	0.106718	0.843531
	C1121	C	0.754593	0.055461	0.951924
	C1122	C	0.511639	0.017800	1.031353
	C1123	C	0.754151	0.069094	0.923132
	C1124	C	0.506862	0.059834	1.016362
	C1125	C	0.749425	0.110216	0.905902
	C1126	C	0.502438	0.064771	0.858501
	C1127	C	0.759608	0.014294	0.969017
	C1128	C	0.497984	0.099014	0.857786
	C1129	C	0.754821	0.048248	0.967292
	C1130	C	0.511341	0.025543	1.017140
	C1131	C	0.753796	0.076285	0.907709
	C1132	C	0.505715	0.050857	1.007990
	C1133	C	0.748501	0.101244	0.897619
	C1134	C	0.503337	0.073737	0.866888
	C1135	C	0.760720	0.023285	0.977292
	H1136	H	0.656609	0.106237	0.838885
	H1137	H	0.913670	0.054706	0.947410
	H1138	H	0.670545	0.015259	1.029307
	H1139	H	0.913191	0.066688	0.921990
	H1140	H	0.847460	0.062124	1.013080
	H1141	H	0.590375	0.112629	0.902324
	H1142	H	0.843661	0.065125	0.853347
	H1143	H	0.600227	0.014692	0.963649
	H1144	H	0.852803	0.018565	1.036675
	H1145	H	0.594898	0.069815	0.927676
	H1146	H	0.837736	0.109054	0.845040
	H1147	H	0.595381	0.057879	0.952973
	H1148	H	0.661156	0.062422	0.861993
	H1149	H	0.918529	0.011919	0.972692
	H1150	H	0.666294	0.059477	1.021544
	H1151	H	0.908880	0.109846	0.911269
	O1152	O	0.082641	0.220595	-0.012282
	O1153	O	0.340082	0.169980	0.097583
	O1154	O	0.095805	0.153221	0.135882
	O1155	O	0.338684	0.203750	0.026065
	O1156	O	0.420598	0.172668	0.128747
	O1157	O	0.163846	0.223082	0.018499
	O1158	O	0.419422	0.202585	-0.005824
	O1159	O	0.176508	0.152182	0.104394
	O1160	O	0.426907	0.153965	0.137290
	O1161	O	0.169488	0.204545	0.027318
	O1162	O	0.413649	0.221318	-0.011020
	O1163	O	0.170900	0.170810	0.098906
	O1164	O	0.088852	0.201889	-0.003924
	O1165	O	0.345877	0.151440	0.106532
	O1166	O	0.090489	0.171966	0.130736
	O1167	O	0.333087	0.222399	0.020487
	F1168	F	0.008131	0.161372	0.106129
	F1169	F	0.250987	0.211757	-0.004021
	F1170	F	0.001225	0.213204	0.018799
	F1171	F	0.258536	0.162773	0.129006
	Al1172	Al	0.133439	0.162088	0.117561
	Al1173	Al	0.376173	0.212466	0.007341
	Al1174	Al	0.126240	0.212480	0.007351
	Al1175	Al	0.383407	0.162043	0.117602
	C1176	C	0.086873	0.234668	-0.039805
	C1177	C	0.344662	0.183001	0.067995
	C1178	C	0.101510	0.138253	0.161100
	C1179	C	0.344444	0.189732	0.053730
	C1180	C	0.417604	0.189879	0.142614
	C1181	C	0.160791	0.240282	0.032327
	C1182	C	0.412309	0.186271	-0.022799
	C1183	C	0.169123	0.135819	0.087599
	C1184	C	0.422539	0.139931	0.164867
	C1185	C	0.165062	0.191560	0.057051
	C1186	C	0.407761	0.236292	-0.036207
	C1187	C	0.165260	0.184836	0.071308
	C1188	C	0.091747	0.184684	-0.017753
	C1189	C	0.348547	0.134213	0.092887
	C1190	C	0.097781	0.188294	0.147772
	C1191	C	0.340302	0.238784	0.037144
	C1192	C	-0.002729	0.231734	-0.031393
	C1193	C	0.255050	0.180473	0.076921
	C1194	C	0.011676	0.142847	0.156406
	C1195	C	0.254579	0.194090	0.048103
	C1196	C	0.007232	0.184818	0.141334
	C1197	C	0.249758	0.235242	0.030940
	C1198	C	0.002696	0.189734	-0.016407
	C1199	C	0.259705	0.139301	0.093994
	C1200	C	-0.002215	0.224020	-0.017125
	C1201	C	0.255330	0.173244	0.092251
	C1202	C	0.011264	0.150555	0.142129
	C1203	C	0.254237	0.201305	0.032714
	C1204	C	0.006054	0.175851	0.132942
	C1205	C	0.248634	0.226259	0.022689
	C1206	C	0.003932	0.198715	-0.008088
	C1207	C	0.260970	0.148288	0.102296
	H1208	H	0.156552	0.231153	-0.036283
	H1209	H	0.414009	0.179622	0.072165
	H1210	H	0.170794	0.140382	0.154471
	H1211	H	0.413603	0.191614	0.046805
	H1212	H	0.347711	0.187242	0.137536
	H1213	H	0.091035	0.237602	0.027384
	H1214	H	0.343698	0.190200	-0.021920
	H1215	H	0.100475	0.139761	0.088400
	H1216	H	0.353136	0.143489	0.161410
	H1217	H	0.095453	0.194929	0.052911
	H1218	H	0.338337	0.234116	-0.029695
	H1219	H	0.095846	0.182977	0.078197
	H1220	H	0.161552	0.187352	-0.012739
	H1221	H	0.418301	0.136844	0.098040
	H1222	H	0.166530	0.184356	0.147002
	H1223	H	0.409127	0.234898	0.036175
	O1224	O	0.582987	0.220545	-0.012401
	O1225	O	0.839785	0.170025	0.097656
	O1226	O	0.596217	0.153184	0.135879
	O1227	O	0.838749	0.203737	0.026096
	O1228	O	0.921056	0.172681	0.128779
	O1229	O	0.663784	0.223090	0.018457
	O1230	O	0.919565	0.202577	-0.005868
	O1231	O	0.676415	0.152180	0.104343
	O1232	O	0.926583	0.153992	0.137279
	O1233	O	0.669520	0.204599	0.027417
	O1234	O	0.913359	0.221303	-0.010978
	O1235	O	0.670574	0.170802	0.098909
	O1236	O	0.588731	0.201880	-0.003837
	O1237	O	0.845819	0.151459	0.106482
	O1238	O	0.589958	0.171935	0.130801
	O1239	O	0.833078	0.222371	0.020544
	F1240	F	0.508126	0.161346	0.106143
	F1241	F	0.751201	0.211707	-0.003992
	F1242	F	0.501429	0.213208	0.018757
	F1243	F	0.758534	0.162821	0.128957
	Al1244	Al	0.633377	0.162091	0.117559
	Al1245	Al	0.876342	0.212458	0.007421
	Al1246	Al	0.626254	0.212476	0.007335
	Al1247	Al	0.883494	0.162076	0.117544
	C1248	C	0.587325	0.234651	-0.039867
	C1249	C	0.844158	0.182982	0.067964
	C1250	C	0.601873	0.138216	0.161140
	C1251	C	0.844074	0.189715	0.053701
	C1252	C	0.918135	0.189872	0.142643
	C1253	C	0.660636	0.240286	0.032351
	C1254	C	0.912072	0.186243	-0.022755
	C1255	C	0.669409	0.135817	0.087598
	C1256	C	0.922148	0.139955	0.164937
	C1257	C	0.664788	0.191566	0.057025
	C1258	C	0.907424	0.236324	-0.036153
	C1259	C	0.664837	0.184838	0.071275
	C1260	C	0.591806	0.184699	-0.017768
	C1261	C	0.848968	0.134240	0.092880
	C1262	C	0.597219	0.188266	0.147771
	C1263	C	0.840302	0.238779	0.037198
	C1264	C	0.497770	0.231727	-0.031410
	C1265	C	0.754513	0.180457	0.076883
	C1266	C	0.512054	0.142794	0.156345
	C1267	C	0.754379	0.194097	0.048102
	C1268	C	0.506556	0.184802	0.141368
	C1269	C	0.749663	0.235256	0.030953
	C1270	C	0.502833	0.189759	-0.016438
	C1271	C	0.759895	0.139309	0.093991
	C1272	C	0.498202	0.223963	-0.017277
	C1273	C	0.754984	0.173265	0.092304
	C1274	C	0.511684	0.150530	0.142138
	C1275	C	0.754221	0.201310	0.032729
	C1276	C	0.505484	0.175819	0.133006
	C1277	C	0.748595	0.226259	0.022668
	C1278	C	0.503911	0.198723	-0.008062
	C1279	C	0.760941	0.148294	0.102282
	H1280	H	0.657030	0.231131	-0.036396
	H1281	H	0.913591	0.179608	0.072156
	H1282	H	0.671123	0.140371	0.154561
	H1283	H	0.913441	0.191570	0.046764
	H1284	H	0.848196	0.187215	0.137611
	H1285	H	0.590779	0.237622	0.027376
	H1286	H	0.843440	0.190176	-0.021881
	H1287	H	0.600642	0.139745	0.088401
	H1288	H	0.852524	0.143491	0.161491
	H1289	H	0.595395	0.194940	0.052852
	H1290	H	0.838078	0.234172	-0.029586
	H1291	H	0.595545	0.182995	0.078202
	H1292	H	0.661600	0.187354	-0.012725
	H1293	H	0.918653	0.136890	0.098022
	H1294	H	0.665899	0.184322	0.146959
	H1295	H	0.909003	0.234883	0.036225
	O1296	O	0.090345	0.232460	0.160103
	O1297	O	0.347572	0.178973	0.262998
	O1298	O	0.104819	0.159425	0.294450
	O1299	O	0.346252	0.215698	0.198409
	O1300	O	0.428960	0.180094	0.293974
	O1301	O	0.171034	0.235174	0.191307
	O1302	O	0.426825	0.214659	0.166959
	O1303	O	0.184267	0.160588	0.265979
	O1304	O	0.434732	0.160056	0.296253
	O1305	O	0.176980	0.216466	0.199829
	O1306	O	0.421041	0.233322	0.161460
	O1307	O	0.178573	0.179746	0.264670
	O1308	O	0.096253	0.213967	0.169059
	O1309	O	0.353893	0.159943	0.267633
	O1310	O	0.098320	0.179420	0.295846
	O1311	O	0.340388	0.234442	0.193406
	F1312	F	0.016162	0.170093	0.269017
	F1313	F	0.258591	0.223839	0.168722
	F1314	F	0.008706	0.225321	0.191566
	F1315	F	0.266596	0.170000	0.292566
	Al1316	Al	0.141454	0.170036	0.280906
	Al1317	Al	0.383621	0.224572	0.180177
	Al1318	Al	0.133687	0.224568	0.180153
	Al1319	Al	0.391506	0.170014	0.280828
	C1320	C	0.094382	0.245461	0.130361
	C1321	C	0.351739	0.193375	0.236414
	C1322	C	0.104977	0.140695	0.299738
	C1323	C	0.351711	0.200712	0.223558
	C1324	C	0.425565	0.197575	0.306623
	C1325	C	0.167793	0.252344	0.205286
	C1326	C	0.419326	0.198312	0.150147
	C1327	C	0.176928	0.143721	0.250725
	C1328	C	0.424867	0.141594	0.304690
	C1329	C	0.172714	0.202442	0.227427
	C1330	C	0.415582	0.247343	0.133839
	C1331	C	0.172774	0.195105	0.240296
	C1332	C	0.099343	0.196738	0.155298
	C1333	C	0.356715	0.142327	0.255728
	C1334	C	0.105271	0.196205	0.311581
	C1335	C	0.347570	0.250854	0.210061
	C1336	C	0.004888	0.242959	0.139430
	C1337	C	0.262332	0.190462	0.244862
	C1338	C	0.016861	0.145925	0.301089
	C1339	C	0.262040	0.205310	0.218875
	C1340	C	0.014588	0.192457	0.305882
	C1341	C	0.256906	0.247324	0.203903
	C1342	C	0.010356	0.201811	0.156499
	C1343	C	0.267700	0.147467	0.256383
	C1344	C	0.005568	0.235732	0.154793
	C1345	C	0.262816	0.182507	0.258534
	C1346	C	0.019333	0.155867	0.297051
	C1347	C	0.261756	0.213036	0.204646
	C1348	C	0.013897	0.183322	0.298033
	C1349	C	0.255916	0.238331	0.195566
	C1350	C	0.011450	0.210793	0.164809
	C1351	C	0.268775	0.156670	0.263894
	H1352	H	0.164009	0.242049	0.134403
	H1353	H	0.421248	0.189810	0.239795
	H1354	H	0.175909	0.143936	0.296722
	H1355	H	0.420964	0.202843	0.216943
	H1356	H	0.355651	0.194790	0.301907
	H1357	H	0.097986	0.249658	0.200337
	H1358	H	0.350705	0.202250	0.150956
	H1359	H	0.107886	0.147647	0.251252
	H1360	H	0.356422	0.145555	0.305762
	H1361	H	0.103451	0.206004	0.223987
	H1362	H	0.346132	0.245508	0.140809
	H1363	H	0.103635	0.192955	0.246898
	H1364	H	0.169147	0.199375	0.160419
	H1365	H	0.426904	0.145114	0.260353
	H1366	H	0.174465	0.192309	0.311030
	H1367	H	0.416365	0.246955	0.209069
	O1368	O	0.590256	0.232442	0.160108
	O1369	O	0.847556	0.178982	0.263098
	O1370	O	0.604330	0.159418	0.294460
	O1371	O	0.845913	0.215656	0.198424
	O1372	O	0.928868	0.180074	0.294044
	O1373	O	0.671168	0.235150	0.191294
	O1374	O	0.927033	0.214661	0.166991
	O1375	O	0.684231	0.160582	0.266016
	O1376	O	0.935273	0.160079	0.296324
	O1377	O	0.676642	0.216440	0.199795
	O1378	O	0.921170	0.233297	0.161476
	O1379	O	0.678582	0.179734	0.264698
	O1380	O	0.596240	0.213936	0.169034
	O1381	O	0.853831	0.159887	0.267679
	O1382	O	0.598445	0.179410	0.295884
	O1383	O	0.840446	0.234447	0.193409
	F1384	F	0.516322	0.170079	0.269031
	F1385	F	0.758700	0.223829	0.168755
	F1386	F	0.508885	0.225313	0.191523
	F1387	F	0.766785	0.169955	0.292590
	Al1388	Al	0.641426	0.170013	0.280932
	Al1389	Al	0.883892	0.224571	0.180171
	Al1390	Al	0.633727	0.224550	0.180139
	Al1391	Al	0.891815	0.170008	0.280846
	C1392	C	0.595124	0.245420	0.130366
	C1393	C	0.851744	0.193348	0.236452
	C1394	C	0.604541	0.140703	0.299760
	C1395	C	0.851426	0.200675	0.223586
	C1396	C	0.925436	0.197571	0.306751
	C1397	C	0.667655	0.252322	0.205249
	C1398	C	0.919701	0.198311	0.150166
	C1399	C	0.676599	0.143742	0.250663
	C1400	C	0.925300	0.141623	0.304745
	C1401	C	0.672307	0.202435	0.227472
	C1402	C	0.914931	0.247365	0.133884
	C1403	C	0.672633	0.195104	0.240359
	C1404	C	0.598958	0.196697	0.155301
	C1405	C	0.856355	0.142308	0.255734
	C1406	C	0.605081	0.196162	0.311743
	C1407	C	0.847269	0.250821	0.210146
	C1408	C	0.505429	0.242939	0.139397
	C1409	C	0.762247	0.190469	0.244961
	C1410	C	0.516364	0.145916	0.301077
	C1411	C	0.761685	0.205294	0.218930
	C1412	C	0.514614	0.192443	0.305888
	C1413	C	0.756733	0.247294	0.203901
	C1414	C	0.510053	0.201788	0.156512
	C1415	C	0.767364	0.147452	0.256402
	C1416	C	0.505584	0.235740	0.154805
	C1417	C	0.762811	0.182516	0.258619
	C1418	C	0.518745	0.155858	0.297014
	C1419	C	0.761340	0.213004	0.204659
	C1420	C	0.513914	0.183323	0.298004
	C1421	C	0.755917	0.238318	0.195552
	C1422	C	0.511355	0.210775	0.164813
	C1423	C	0.768620	0.156647	0.263912
	H1424	H	0.664654	0.241997	0.134440
	H1425	H	0.921135	0.189767	0.239797
	H1426	H	0.675496	0.143938	0.296764
	H1427	H	0.920600	0.202784	0.216924
	H1428	H	0.855347	0.194776	0.302126
	H1429	H	0.597914	0.249648	0.200256
	H1430	H	0.850921	0.202235	0.151026
	H1431	H	0.607773	0.147705	0.251132
	H1432	H	0.856808	0.145594	0.305862
	H1433	H	0.602778	0.205996	0.224022
	H1434	H	0.845560	0.245523	0.140877
	H1435	H	0.603352	0.192955	0.246964
	H1436	H	0.668825	0.199330	0.160391
	H1437	H	0.926452	0.145106	0.260360
	H1438	H	0.674112	0.192239	0.311311
	H1439	H	0.916113	0.246921	0.209206
	O1440	O	0.097775	0.241589	0.325824
	O1441	O	0.342675	0.175483	0.372909
	O1442	O	0.098571	0.153917	0.397949
	O1443	O	0.354303	0.221943	0.356939
	O1444	O	0.423643	0.174573	0.401116
	O1445	O	0.178940	0.242598	0.356586
	O1446	O	0.433860	0.223115	0.328458
	O1447	O	0.178305	0.155938	0.370128
	O1448	O	0.428990	0.154376	0.399548
	O1449	O	0.184846	0.222578	0.358859
	O1450	O	0.428426	0.242217	0.327103
	O1451	O	0.173161	0.176009	0.374592
	O1452	O	0.103510	0.222444	0.330307
	O1453	O	0.347803	0.155389	0.371394
	O1454	O	0.092982	0.174095	0.402243
	O1455	O	0.348417	0.241908	0.358387
	F1456	F	0.010669	0.165635	0.374341
	F1457	F	0.265957	0.232602	0.331545
	F1458	F	0.016574	0.232517	0.355190
	F1459	F	0.261035	0.164303	0.398249
	Al1460	Al	0.135862	0.164973	0.386359
	Al1461	Al	0.391160	0.232536	0.343421
	Al1462	Al	0.141313	0.232539	0.343483
	Al1463	Al	0.385685	0.164954	0.386366
	C1464	C	0.102194	0.256120	0.299515
	C1465	C	0.351757	0.193936	0.364784
	C1466	C	0.099872	0.135090	0.400785
	C1467	C	0.354722	0.203226	0.362430
	C1468	C	0.420132	0.192449	0.412348
	C1469	C	0.175522	0.260079	0.369144
	C1470	C	0.426814	0.206240	0.313125
	C1471	C	0.171408	0.138769	0.355390
	C1472	C	0.419856	0.135740	0.404872
	C1473	C	0.175012	0.204116	0.367301
	C1474	C	0.422623	0.257396	0.302247
	C1475	C	0.171966	0.194789	0.369627
	C1476	C	0.106567	0.204875	0.318065
	C1477	C	0.351431	0.137685	0.359347
	C1478	C	0.099745	0.191371	0.416264
	C1479	C	0.355306	0.258696	0.374150
	C1480	C	0.012525	0.252991	0.307407
	C1481	C	0.260322	0.189599	0.368360
	C1482	C	0.011351	0.140209	0.402582
	C1483	C	0.266474	0.208439	0.363674
	C1484	C	0.008950	0.187343	0.411519
	C1485	C	0.264722	0.254981	0.368321
	C1486	C	0.017408	0.209982	0.318928
	C1487	C	0.262140	0.142774	0.360292
	C1488	C	0.013060	0.245041	0.321088
	C1489	C	0.258447	0.179637	0.372187
	C1490	C	0.013387	0.150234	0.399958
	C1491	C	0.268826	0.218377	0.359578
	C1492	C	0.008423	0.177990	0.404485
	C1493	C	0.263983	0.245832	0.360521
	C1494	C	0.018526	0.219183	0.326472
	C1495	C	0.262797	0.152040	0.367758
	H1496	H	0.171860	0.252732	0.303365
	H1497	H	0.420495	0.190004	0.363706
	H1498	H	0.171009	0.138435	0.398696
	H1499	H	0.425772	0.206459	0.359470
	H1500	H	0.349515	0.189479	0.408536
	H1501	H	0.105459	0.257289	0.364493
	H1502	H	0.357895	0.210166	0.313569
	H1503	H	0.101842	0.142615	0.355872
	H1504	H	0.350937	0.139618	0.406239
	H1505	H	0.106583	0.208099	0.368328
	H1506	H	0.353245	0.255071	0.308393
	H1507	H	0.101262	0.191503	0.372509
	H1508	H	0.176802	0.207680	0.322554
	H1509	H	0.422296	0.140627	0.363076
	H1510	H	0.169316	0.187515	0.415770
	H1511	H	0.424362	0.254768	0.373682
	O1512	O	0.597459	0.241543	0.325742
	O1513	O	0.842327	0.175476	0.372750
	O1514	O	0.598595	0.153916	0.397996
	O1515	O	0.853945	0.221907	0.357015
	O1516	O	0.923330	0.174577	0.401106
	O1517	O	0.678462	0.242574	0.356638
	O1518	O	0.933985	0.223113	0.328487
	O1519	O	0.678037	0.155927	0.370159
	O1520	O	0.928993	0.154387	0.399656
	O1521	O	0.684416	0.222567	0.358890
	O1522	O	0.928597	0.242195	0.326968
	O1523	O	0.672830	0.175962	0.374378
	O1524	O	0.603324	0.222430	0.330299
	O1525	O	0.847532	0.155371	0.371378
	O1526	O	0.593232	0.174097	0.402189
	O1527	O	0.847941	0.241924	0.358373
	F1528	F	0.510412	0.165613	0.374359
	F1529	F	0.765841	0.232585	0.331613
	F1530	F	0.516128	0.232483	0.355140
	F1531	F	0.761013	0.164312	0.398150
	Al1532	Al	0.635881	0.164971	0.386292
	Al1533	Al	0.891285	0.232543	0.343451
	Al1534	Al	0.641049	0.232515	0.343460
	Al1535	Al	0.886131	0.164968	0.386259
	C1536	C	0.602068	0.256094	0.299484
	C1537	C	0.851253	0.193924	0.364637
	C1538	C	0.600043	0.135069	0.400660
	C1539	C	0.854281	0.203219	0.362348
	C1540	C	0.919668	0.192470	0.412273
	C1541	C	0.675214	0.260044	0.369354
	C1542	C	0.926712	0.206233	0.313255
	C1543	C	0.671053	0.138792	0.355312
	C1544	C	0.919668	0.135761	0.405150
	C1545	C	0.674590	0.204093	0.367333
	C1546	C	0.922654	0.257424	0.302291
	C1547	C	0.671555	0.194765	0.369598
	C1548	C	0.606335	0.204833	0.318204
	C1549	C	0.851143	0.137663	0.359389
	C1550	C	0.600204	0.191329	0.416390
	C1551	C	0.855033	0.258650	0.374245
	C1552	C	0.512409	0.252961	0.307390
	C1553	C	0.759821	0.189578	0.368239
	C1554	C	0.511445	0.140196	0.402413
	C1555	C	0.766048	0.208418	0.363691
	C1556	C	0.509370	0.187324	0.411553
	C1557	C	0.764327	0.254933	0.368456
	C1558	C	0.517356	0.209966	0.318927
	C1559	C	0.761827	0.142766	0.360283
	C1560	C	0.512695	0.245014	0.321083
	C1561	C	0.757986	0.179612	0.372026
	C1562	C	0.513306	0.150227	0.399871
	C1563	C	0.768365	0.218358	0.359631
	C1564	C	0.508596	0.177991	0.404470
	C1565	C	0.763420	0.245823	0.360571
	C1566	C	0.518288	0.219167	0.326479
	C1567	C	0.762522	0.152030	0.367757
	H1568	H	0.671627	0.252693	0.303344
	H1569	H	0.919876	0.189993	0.363499
	H1570	H	0.671068	0.138431	0.398608
	H1571	H	0.925232	0.206443	0.359383
	H1572	H	0.849063	0.189502	0.408451
	H1573	H	0.604950	0.257264	0.364765
	H1574	H	0.857635	0.210146	0.313793
	H1575	H	0.601502	0.142650	0.355782
	H1576	H	0.850835	0.139645	0.406605
	H1577	H	0.606220	0.208080	0.368439
	H1578	H	0.853281	0.255096	0.308441
	H1579	H	0.600803	0.191468	0.372518
	H1580	H	0.676443	0.207618	0.322801
	H1581	H	0.921951	0.140602	0.363198
	H1582	H	0.669707	0.187460	0.415948
	H1583	H	0.924142	0.254733	0.373758
	O1584	O	0.091946	0.237915	0.435281
	O1585	O	0.338356	0.169610	0.469796
	O1586	O	0.094221	0.147947	0.494350
	O1587	O	0.348891	0.216373	0.460211
	O1588	O	0.419374	0.168532	0.497890
	O1589	O	0.173591	0.237129	0.463456
	O1590	O	0.428441	0.218466	0.432449
	O1591	O	0.174186	0.149956	0.466664
	O1592	O	0.424971	0.148403	0.496098
	O1593	O	0.179405	0.216873	0.462025
	O1594	O	0.422512	0.238487	0.436985
	O1595	O	0.168794	0.170055	0.471215
	O1596	O	0.097632	0.217883	0.433901
	O1597	O	0.343659	0.149385	0.467996
	O1598	O	0.088650	0.168046	0.498956
	O1599	O	0.343207	0.236557	0.464747
	F1600	F	0.006484	0.159714	0.470759
	F1601	F	0.260502	0.228099	0.436811
	F1602	F	0.011190	0.226784	0.460871
	F1603	F	0.256536	0.158294	0.494817
	Al1604	Al	0.131592	0.159013	0.482792
	Al1605	Al	0.385557	0.227459	0.448716
	Al1606	Al	0.135838	0.227445	0.448802
	Al1607	Al	0.381368	0.158983	0.482903
	C1608	C	0.101506	0.256397	0.427282
	C1609	C	0.347316	0.188219	0.463940
	C1610	C	0.095871	0.129132	0.497522
	C1611	C	0.350335	0.197561	0.463075
	C1612	C	0.415542	0.186318	0.509531
	C1613	C	0.170413	0.254935	0.474893
	C1614	C	0.421408	0.201303	0.417886
	C1615	C	0.167026	0.132675	0.452499
	C1616	C	0.415946	0.129789	0.501611
	C1617	C	0.170107	0.198219	0.467329
	C1618	C	0.421907	0.257285	0.431974
	C1619	C	0.167091	0.188887	0.468185
	C1620	C	0.100936	0.200220	0.421802
	C1621	C	0.347277	0.131647	0.456101
	C1622	C	0.095316	0.185299	0.513158
	C1623	C	0.350543	0.253838	0.478866
	C1624	C	0.010063	0.252070	0.430883
	C1625	C	0.255679	0.183768	0.466494
	C1626	C	0.007096	0.134248	0.499037
	C1627	C	0.261684	0.202675	0.464725
	C1628	C	0.004505	0.181242	0.508542
	C1629	C	0.259701	0.249829	0.474077
	C1630	C	0.011657	0.205318	0.422689
	C1631	C	0.257859	0.136720	0.457141
	C1632	C	0.007989	0.242099	0.434716
	C1633	C	0.253997	0.173745	0.469286
	C1634	C	0.008942	0.144277	0.496301
	C1635	C	0.263573	0.212705	0.462189
	C1636	C	0.003975	0.171928	0.501280
	C1637	C	0.258746	0.240492	0.466950
	C1638	C	0.012660	0.214582	0.430176
	C1639	C	0.258657	0.146032	0.464402
	H1640	H	0.170107	0.252433	0.426185
	H1641	H	0.416111	0.184322	0.462608
	H1642	H	0.166998	0.132490	0.495561
	H1643	H	0.421478	0.200914	0.461069
	H1644	H	0.344794	0.183304	0.505950
	H1645	H	0.099663	0.251988	0.471077
	H1646	H	0.351989	0.205177	0.418400
	H1647	H	0.097352	0.136510	0.453119
	H1648	H	0.347049	0.133673	0.502966
	H1649	H	0.101243	0.202092	0.468765
	H1650	H	0.350958	0.254026	0.434840
	H1651	H	0.096013	0.185550	0.470298
	H1652	H	0.171579	0.203191	0.425580
	H1653	H	0.418053	0.134653	0.459673
	H1654	H	0.165015	0.181464	0.512591
	H1655	H	0.420204	0.249987	0.478377
	O1656	O	0.591981	0.237903	0.435151
	O1657	O	0.837990	0.169617	0.469418
	O1658	O	0.594495	0.147947	0.494380
	O1659	O	0.848527	0.216352	0.460403
	O1660	O	0.919078	0.168554	0.497742
	O1661	O	0.672728	0.237114	0.463489
	O1662	O	0.928153	0.218501	0.432500
	O1663	O	0.673675	0.149967	0.466541
	O1664	O	0.924660	0.148435	0.495918
	O1665	O	0.679105	0.216889	0.462197
	O1666	O	0.922578	0.238487	0.437259
	O1667	O	0.668371	0.170064	0.471034
	O1668	O	0.598005	0.217854	0.433936
	O1669	O	0.843370	0.149419	0.467753
	O1670	O	0.589065	0.168073	0.498899
	O1671	O	0.842314	0.236582	0.464868
	F1672	F	0.505883	0.159689	0.470919
	F1673	F	0.760549	0.228123	0.436996
	F1674	F	0.510710	0.226776	0.460691
	F1675	F	0.756826	0.158331	0.494565
	Al1676	Al	0.631361	0.159015	0.482740
	Al1677	Al	0.885962	0.227456	0.448949
	Al1678	Al	0.635689	0.227453	0.448830
	Al1679	Al	0.881788	0.159026	0.482654
	C1680	C	0.601658	0.256373	0.427135
	C1681	C	0.846939	0.188223	0.463997
	C1682	C	0.596249	0.129120	0.497453
	C1683	C	0.849786	0.197561	0.463211
	C1684	C	0.914992	0.186343	0.509490
	C1685	C	0.669386	0.254966	0.474799
	C1686	C	0.920877	0.201321	0.417820
	C1687	C	0.666453	0.132692	0.452424
	C1688	C	0.915499	0.129788	0.501553
	C1689	C	0.669631	0.198219	0.467536
	C1690	C	0.921813	0.257285	0.432125
	C1691	C	0.666762	0.188884	0.468307
	C1692	C	0.601504	0.200181	0.421921
	C1693	C	0.846705	0.131693	0.456005
	C1694	C	0.595867	0.185297	0.513158
	C1695	C	0.849526	0.253839	0.478852
	C1696	C	0.510074	0.252065	0.430737
	C1697	C	0.755334	0.183773	0.466517
	C1698	C	0.507590	0.134233	0.499063
	C1699	C	0.761182	0.202676	0.464990
	C1700	C	0.505002	0.181235	0.508564
	C1701	C	0.758547	0.249836	0.474055
	C1702	C	0.512201	0.205284	0.422765
	C1703	C	0.757317	0.136765	0.456974
	C1704	C	0.507896	0.242093	0.434554
	C1705	C	0.753629	0.173749	0.469091
	C1706	C	0.509303	0.144262	0.496386
	C1707	C	0.763139	0.212706	0.462427
	C1708	C	0.504362	0.171931	0.501319
	C1709	C	0.757688	0.240497	0.466991
	C1710	C	0.512929	0.214551	0.430191
	C1711	C	0.758225	0.146074	0.464197
	H1712	H	0.670163	0.252397	0.426036
	H1713	H	0.915740	0.184337	0.462572
	H1714	H	0.667386	0.132468	0.495433
	H1715	H	0.920793	0.200923	0.461151
	H1716	H	0.844229	0.183342	0.505885
	H1717	H	0.598553	0.252040	0.470947
	H1718	H	0.851467	0.205188	0.418331
	H1719	H	0.596721	0.136517	0.453062
	H1720	H	0.846578	0.133672	0.502827
	H1721	H	0.600732	0.202090	0.468998
	H1722	H	0.850849	0.254028	0.435009
	H1723	H	0.595631	0.185538	0.470344
	H1724	H	0.672067	0.203146	0.425732
	H1725	H	0.917592	0.134693	0.459553
	H1726	H	0.665579	0.181468	0.512578
	H1727	H	0.919194	0.249983	0.478389
	O1728	O	0.088069	0.232100	0.532198
	O1729	O	0.334321	0.163641	0.566606
	O1730	O	0.090568	0.141986	0.591326
	O1731	O	0.344515	0.210416	0.556754
	O1732	O	0.415528	0.162603	0.594792
	O1733	O	0.169372	0.231045	0.560246
	O1734	O	0.423997	0.212485	0.529023
	O1735	O	0.170299	0.144005	0.563600
	O1736	O	0.420972	0.142450	0.593011
	O1737	O	0.174982	0.210894	0.558511
	O1738	O	0.418685	0.232546	0.533604
	O1739	O	0.164746	0.164125	0.568178
	O1740	O	0.093374	0.211907	0.530435
	O1741	O	0.339829	0.143490	0.564845
	O1742	O	0.084904	0.162091	0.595903
	O1743	O	0.338890	0.230568	0.561305
	F1744	F	0.002787	0.153743	0.567743
	F1745	F	0.255945	0.222182	0.533255
	F1746	F	0.007037	0.220791	0.557320
	F1747	F	0.252918	0.152375	0.591735
	Al1748	Al	0.127664	0.153053	0.579731
	Al1749	Al	0.381404	0.221493	0.545169
	Al1750	Al	0.131500	0.221488	0.545342
	Al1751	Al	0.377732	0.153050	0.579797
	C1752	C	0.097023	0.250727	0.526563
	C1753	C	0.343403	0.182272	0.561022
	C1754	C	0.091826	0.123180	0.594265
	C1755	C	0.346150	0.191610	0.560055
	C1756	C	0.411984	0.180367	0.606562
	C1757	C	0.165470	0.248822	0.572043
	C1758	C	0.416751	0.195194	0.514927
	C1759	C	0.163420	0.126764	0.549352
	C1760	C	0.411874	0.123815	0.598572
	C1761	C	0.165749	0.192272	0.563975
	C1762	C	0.417125	0.251368	0.530857
	C1763	C	0.162988	0.182936	0.564926
	C1764	C	0.096635	0.194172	0.518552
	C1765	C	0.343645	0.125746	0.552971
	C1766	C	0.092182	0.179376	0.610011
	C1767	C	0.345707	0.247792	0.575730
	C1768	C	0.005457	0.246278	0.529180
	C1769	C	0.251750	0.177818	0.563466
	C1770	C	0.003285	0.128299	0.596013
	C1771	C	0.257469	0.196723	0.561530
	C1772	C	0.001305	0.175327	0.605416
	C1773	C	0.254879	0.243731	0.571039
	C1774	C	0.007304	0.199254	0.519548
	C1775	C	0.254253	0.130817	0.553979
	C1776	C	0.003674	0.236248	0.531839
	C1777	C	0.250044	0.167796	0.566204
	C1778	C	0.005305	0.138319	0.593319
	C1779	C	0.259276	0.206744	0.558811
	C1780	C	0.000369	0.166005	0.598188
	C1781	C	0.254284	0.234437	0.563727
	C1782	C	0.008272	0.208577	0.526804
	C1783	C	0.254914	0.140118	0.561277
	H1784	H	0.165874	0.246838	0.525122
	H1785	H	0.412413	0.178394	0.559803
	H1786	H	0.162959	0.126528	0.592158
	H1787	H	0.417337	0.194954	0.558094
	H1788	H	0.341146	0.177364	0.603020
	H1789	H	0.094534	0.245835	0.568456
	H1790	H	0.347104	0.199033	0.515513
	H1791	H	0.093797	0.130605	0.549947
	H1792	H	0.342972	0.127686	0.599991
	H1793	H	0.096767	0.196159	0.565216
	H1794	H	0.346065	0.248005	0.532930
	H1795	H	0.091821	0.179582	0.566883
	H1796	H	0.167449	0.197176	0.522118
	H1797	H	0.414351	0.128753	0.556575
	H1798	H	0.161863	0.175543	0.609390
	H1799	H	0.415478	0.243966	0.575170
	O1800	O	0.588278	0.232073	0.532054
	O1801	O	0.833776	0.163646	0.566446
	O1802	O	0.590558	0.141971	0.591365
	O1803	O	0.844236	0.210366	0.556867
	O1804	O	0.915297	0.162644	0.594635
	O1805	O	0.669022	0.231048	0.560246
	O1806	O	0.923948	0.212523	0.528996
	O1807	O	0.669867	0.144000	0.563624
	O1808	O	0.921006	0.142482	0.592968
	O1809	O	0.674609	0.210884	0.558514
	O1810	O	0.918441	0.232566	0.533796
	O1811	O	0.664290	0.164096	0.568179
	O1812	O	0.593566	0.211917	0.530329
	O1813	O	0.839420	0.143459	0.564823
	O1814	O	0.585164	0.162057	0.595987
	O1815	O	0.838478	0.230503	0.561617
	F1816	F	0.502279	0.153733	0.567899
	F1817	F	0.756417	0.222177	0.533448
	F1818	F	0.506545	0.220806	0.557154
	F1819	F	0.753063	0.152370	0.591656
	Al1820	Al	0.627643	0.153041	0.579783
	Al1821	Al	0.881841	0.221487	0.545372
	Al1822	Al	0.631520	0.221491	0.545328
	Al1823	Al	0.877955	0.153066	0.579683
	C1824	C	0.597335	0.250699	0.526553
	C1825	C	0.842751	0.182263	0.560971
	C1826	C	0.592012	0.123158	0.594245
	C1827	C	0.845610	0.191595	0.560015
	C1828	C	0.911845	0.180419	0.606467
	C1829	C	0.665179	0.248805	0.572076
	C1830	C	0.916362	0.195213	0.514880
	C1831	C	0.662787	0.126768	0.549311
	C1832	C	0.911658	0.123843	0.598564
	C1833	C	0.665174	0.192255	0.564073
	C1834	C	0.916678	0.251406	0.530860
	C1835	C	0.662372	0.182919	0.565020
	C1836	C	0.597051	0.194171	0.518554
	C1837	C	0.843042	0.125716	0.553081
	C1838	C	0.592357	0.179347	0.610072
	C1839	C	0.845420	0.247774	0.575774
	C1840	C	0.505763	0.246250	0.529100
	C1841	C	0.751116	0.177809	0.563469
	C1842	C	0.503425	0.128275	0.596025
	C1843	C	0.756817	0.196704	0.561584
	C1844	C	0.501377	0.175276	0.605571
	C1845	C	0.754585	0.243712	0.571127
	C1846	C	0.507612	0.199245	0.519549
	C1847	C	0.753644	0.130798	0.554010
	C1848	C	0.504019	0.236220	0.531721
	C1849	C	0.749463	0.167784	0.566169
	C1850	C	0.505263	0.138300	0.593378
	C1851	C	0.758792	0.206717	0.558857
	C1852	C	0.500622	0.165959	0.598333
	C1853	C	0.753946	0.234406	0.563881
	C1854	C	0.508488	0.208563	0.526770
	C1855	C	0.754382	0.140102	0.561279
	H1856	H	0.666247	0.246819	0.525124
	H1857	H	0.911681	0.178381	0.559715
	H1858	H	0.663079	0.126509	0.592170
	H1859	H	0.916676	0.194953	0.557998
	H1860	H	0.840973	0.177410	0.602944
	H1861	H	0.594313	0.245817	0.568471
	H1862	H	0.846816	0.199076	0.515429
	H1863	H	0.593314	0.130636	0.549860
	H1864	H	0.842769	0.127719	0.599932
	H1865	H	0.596206	0.196139	0.565345
	H1866	H	0.845569	0.248043	0.532897
	H1867	H	0.591212	0.179569	0.567027
	H1868	H	0.667812	0.197181	0.522116
	H1869	H	0.913742	0.128723	0.556702
	H1870	H	0.662046	0.175514	0.609423
	H1871	H	0.915229	0.243950	0.575219
	O1872	O	0.084667	0.226157	0.629217
	O1873	O	0.330078	0.157665	0.663024
	O1874	O	0.086395	0.136042	0.687946
	O1875	O	0.340776	0.204467	0.653887
	O1876	O	0.411293	0.156682	0.691164
	O1877	O	0.165649	0.225138	0.657176
	O1878	O	0.420433	0.206481	0.626124
	O1879	O	0.166085	0.137954	0.660309
	O1880	O	0.416897	0.136624	0.689917
	O1881	O	0.171191	0.204933	0.655458
	O1882	O	0.414788	0.226593	0.630616
	O1883	O	0.160523	0.158119	0.664573
	O1884	O	0.089919	0.205958	0.627428
	O1885	O	0.335608	0.137371	0.661740
	O1886	O	0.080718	0.156095	0.692432
	O1887	O	0.335200	0.224608	0.658394
	F1888	F	-0.001522	0.147744	0.664245
	F1889	F	0.252366	0.216199	0.630355
	F1890	F	0.003277	0.214873	0.654295
	F1891	F	0.248435	0.146435	0.688191
	Al1892	Al	0.123536	0.147077	0.676218
	Al1893	Al	0.377800	0.215536	0.642264
	Al1894	Al	0.127847	0.215547	0.642340
	Al1895	Al	0.373416	0.147077	0.676289
	C1896	C	0.093514	0.244784	0.623506
	C1897	C	0.339373	0.176288	0.657556
	C1898	C	0.087215	0.117254	0.692946
	C1899	C	0.342354	0.185629	0.656725
	C1900	C	0.407862	0.174378	0.703223
	C1901	C	0.161904	0.242902	0.668988
	C1902	C	0.413404	0.189237	0.611975
	C1903	C	0.158993	0.120671	0.646324
	C1904	C	0.407446	0.118159	0.697866
	C1905	C	0.162031	0.186290	0.660816
	C1906	C	0.413216	0.245432	0.627592
	C1907	C	0.159024	0.176955	0.661649
	C1908	C	0.093480	0.188246	0.615457
	C1909	C	0.339104	0.119579	0.650371
	C1910	C	0.088006	0.173307	0.707010
	C1911	C	0.342268	0.241880	0.672561
	C1912	C	0.001935	0.240317	0.626011
	C1913	C	0.247661	0.171834	0.660081
	C1914	C	-0.001026	0.122465	0.694179
	C1915	C	0.253684	0.190749	0.658380
	C1916	C	-0.002818	0.169272	0.702244
	C1917	C	0.251337	0.237816	0.667955
	C1918	C	0.004159	0.193335	0.616442
	C1919	C	0.249806	0.124679	0.651115
	C1920	C	0.000271	0.230291	0.628748
	C1921	C	0.245759	0.161807	0.662671
	C1922	C	0.001047	0.132418	0.690339
	C1923	C	0.255502	0.200780	0.655811
	C1924	C	-0.003735	0.159988	0.694829
	C1925	C	0.250656	0.228509	0.660706
	C1926	C	0.004877	0.202638	0.623733
	C1927	C	0.250561	0.134011	0.658209
	H1928	H	0.162561	0.240905	0.622241
	H1929	H	0.408174	0.172392	0.656182
	H1930	H	0.158203	0.120506	0.690082
	H1931	H	0.413473	0.188989	0.654728
	H1932	H	0.337113	0.171410	0.699498
	H1933	H	0.090863	0.239924	0.665446
	H1934	H	0.343716	0.193063	0.612609
	H1935	H	0.089670	0.124555	0.646856
	H1936	H	0.338924	0.122102	0.699067
	H1937	H	0.092953	0.190164	0.662135
	H1938	H	0.342077	0.242078	0.629629
	H1939	H	0.087769	0.173621	0.663595
	H1940	H	0.164257	0.191241	0.619033
	H1941	H	0.409416	0.122577	0.654262
	H1942	H	0.157708	0.169474	0.706447
	H1943	H	0.412156	0.238065	0.671990
	O1944	O	0.584352	0.226129	0.629034
	O1945	O	0.829776	0.157691	0.663015
	O1946	O	0.586301	0.136066	0.688101
	O1947	O	0.840442	0.204440	0.653834
	O1948	O	0.911248	0.156639	0.691239
	O1949	O	0.664959	0.225150	0.657126
	O1950	O	0.920381	0.206560	0.626000
	O1951	O	0.665435	0.137961	0.660277
	O1952	O	0.916929	0.136592	0.689687
	O1953	O	0.670823	0.204935	0.655400
	O1954	O	0.915007	0.226584	0.630636
	O1955	O	0.660160	0.158133	0.664553
	O1956	O	0.590074	0.205986	0.627277
	O1957	O	0.834954	0.137413	0.661592
	O1958	O	0.580753	0.156116	0.692420
	O1959	O	0.834491	0.224604	0.658459
	F1960	F	0.498058	0.147721	0.664315
	F1961	F	0.752717	0.216222	0.630372
	F1962	F	0.503068	0.214867	0.654213
	F1963	F	0.748698	0.146444	0.688145
	Al1964	Al	0.623368	0.147082	0.676233
	Al1965	Al	0.878057	0.215538	0.642326
	Al1966	Al	0.627728	0.215546	0.642228
	Al1967	Al	0.873770	0.147099	0.676194
	C1968	C	0.593447	0.244758	0.623329
	C1969	C	0.838809	0.176298	0.657653
	C1970	C	0.587052	0.117262	0.692911
	C1971	C	0.841715	0.185638	0.656810
	C1972	C	0.907749	0.174366	0.703241
	C1973	C	0.661210	0.242929	0.668859
	C1974	C	0.913162	0.189283	0.611898
	C1975	C	0.658167	0.120709	0.646200
	C1976	C	0.907503	0.118139	0.697843
	C1977	C	0.661436	0.186306	0.660933
	C1978	C	0.913100	0.245442	0.627514
	C1979	C	0.658553	0.176976	0.661790
	C1980	C	0.593731	0.188218	0.615475
	C1981	C	0.838318	0.119602	0.650280
	C1982	C	0.587998	0.173277	0.707123
	C1983	C	0.841535	0.241874	0.672631
	C1984	C	0.501934	0.240307	0.626010
	C1985	C	0.747165	0.171852	0.660165
	C1986	C	0.498881	0.122480	0.694237
	C1987	C	0.753101	0.190759	0.658470
	C1988	C	0.497179	0.169270	0.702247
	C1989	C	0.750588	0.237830	0.667947
	C1990	C	0.504376	0.193296	0.616517
	C1991	C	0.749069	0.124709	0.651006
	C1992	C	0.500090	0.230278	0.628697
	C1993	C	0.745413	0.161825	0.662724
	C1994	C	0.501003	0.132445	0.690500
	C1995	C	0.755082	0.200778	0.655787
	C1996	C	0.496295	0.160016	0.694807
	C1997	C	0.749894	0.228513	0.660722
	C1998	C	0.505118	0.202607	0.623762
	C1999	C	0.749954	0.134042	0.658093
	H2000	H	0.662396	0.240882	0.621914
	H2001	H	0.907566	0.172402	0.656290
	H2002	H	0.658102	0.120503	0.690050
	H2003	H	0.912810	0.188997	0.654780
	H2004	H	0.836905	0.171388	0.699579
	H2005	H	0.590204	0.239961	0.665242
	H2006	H	0.843494	0.193118	0.612567
	H2007	H	0.588995	0.124613	0.646699
	H2008	H	0.838974	0.122092	0.699004
	H2009	H	0.592449	0.190180	0.662248
	H2010	H	0.841995	0.242076	0.629530
	H2011	H	0.587322	0.173645	0.663775
	H2012	H	0.664608	0.191228	0.618996
	H2013	H	0.908640	0.122596	0.654171
	H2014	H	0.657646	0.169427	0.706612
	H2015	H	0.911291	0.238036	0.672136
	O2016	O	0.080155	0.220182	0.725312
	O2017	O	0.324455	0.151987	0.766168
	O2018	O	0.080749	0.132344	0.797879
	O2019	O	0.336382	0.198588	0.750460
	O2020	O	0.405381	0.152146	0.794674
	O2021	O	0.161563	0.219177	0.753625
	O2022	O	0.416174	0.200511	0.722712
	O2023	O	0.161013	0.132633	0.766688
	O2024	O	0.411704	0.133035	0.799306
	O2025	O	0.166934	0.199123	0.752148
	O2026	O	0.410712	0.220681	0.727215
	O2027	O	0.155012	0.152654	0.768119
	O2028	O	0.085616	0.199998	0.723898
	O2029	O	0.330449	0.131938	0.768521
	O2030	O	0.074733	0.151459	0.796477
	O2031	O	0.330992	0.218610	0.754938
	F2032	F	-0.006693	0.142072	0.769794
	F2033	F	0.248451	0.210283	0.726743
	F2034	F	-0.000945	0.208962	0.750650
	F2035	F	0.243312	0.141974	0.793452
	Al2036	Al	0.118120	0.142034	0.781593
	Al2037	Al	0.373615	0.209590	0.738695
	Al2038	Al	0.123613	0.209623	0.738635
	Al2039	Al	0.367974	0.142039	0.781574
	C2040	C	0.089353	0.238830	0.720054
	C2041	C	0.334263	0.170489	0.757917
	C2042	C	0.086156	0.117022	0.822300
	C2043	C	0.337448	0.179807	0.755572
	C2044	C	0.402683	0.169736	0.806829
	C2045	C	0.157960	0.236856	0.765700
	C2046	C	0.409133	0.183239	0.708718
	C2047	C	0.154009	0.115854	0.750892
	C2048	C	0.407396	0.118586	0.825729
	C2049	C	0.157652	0.180663	0.760256
	C2050	C	0.409067	0.239511	0.724379
	C2051	C	0.154545	0.171359	0.762617
	C2052	C	0.089271	0.182166	0.712499
	C2053	C	0.333749	0.114486	0.755773
	C2054	C	0.082527	0.168387	0.811547
	C2055	C	0.338040	0.235763	0.769665
	C2056	C	-0.002264	0.234380	0.722591
	C2057	C	0.242832	0.166150	0.761422
	C2058	C	-0.003503	0.121598	0.817531
	C2059	C	0.249062	0.185004	0.756689
	C2060	C	-0.008312	0.164627	0.805963
	C2061	C	0.247262	0.231741	0.764775
	C2062	C	-0.000098	0.187253	0.713434
	C2063	C	0.244585	0.119586	0.756659
	C2064	C	-0.003999	0.224346	0.725142
	C2065	C	0.240557	0.156204	0.765480
	C2066	C	-0.003609	0.129558	0.803906
	C2067	C	0.251106	0.194962	0.752849
	C2068	C	-0.009562	0.155412	0.798505
	C2069	C	0.246537	0.222501	0.757319
	C2070	C	0.000559	0.196599	0.720503
	C2071	C	0.245448	0.128707	0.764540
	H2072	H	0.158282	0.234946	0.718643
	H2073	H	0.402799	0.166521	0.756954
	H2074	H	0.155467	0.119239	0.815887
	H2075	H	0.408332	0.183083	0.752748
	H2076	H	0.332404	0.166940	0.802348
	H2077	H	0.086945	0.233933	0.761951
	H2078	H	0.339670	0.187105	0.709222
	H2079	H	0.084989	0.119777	0.751431
	H2080	H	0.337923	0.122077	0.822137
	H2081	H	0.088961	0.184602	0.761299
	H2082	H	0.338039	0.236148	0.726448
	H2083	H	0.083559	0.168121	0.765514
	H2084	H	0.159948	0.185161	0.716177
	H2085	H	0.403735	0.117296	0.760410
	H2086	H	0.151683	0.164472	0.811029
	H2087	H	0.407832	0.231940	0.769141
	O2088	O	0.580129	0.220204	0.725481
	O2089	O	0.823902	0.152010	0.766005
	O2090	O	0.580750	0.132334	0.797810
	O2091	O	0.836049	0.198556	0.750478
	O2092	O	0.905201	0.152173	0.794647
	O2093	O	0.660906	0.219167	0.753678
	O2094	O	0.916019	0.200517	0.722686
	O2095	O	0.660973	0.132659	0.766635
	O2096	O	0.911694	0.133044	0.799286
	O2097	O	0.666588	0.199124	0.752203
	O2098	O	0.910643	0.220674	0.727196
	O2099	O	0.654400	0.152657	0.768079
	O2100	O	0.585766	0.199982	0.723946
	O2101	O	0.830295	0.131946	0.768473
	O2102	O	0.574877	0.151447	0.796527
	O2103	O	0.830443	0.218628	0.754971
	F2104	F	0.492744	0.142061	0.769852
	F2105	F	0.748421	0.210276	0.726819
	F2106	F	0.498665	0.208925	0.750641
	F2107	F	0.743365	0.141998	0.793376
	Al2108	Al	0.618107	0.142037	0.781569
	Al2109	Al	0.873932	0.209607	0.738757
	Al2110	Al	0.623504	0.209611	0.738688
	Al2111	Al	0.868186	0.142059	0.781495
	C2112	C	0.589369	0.238835	0.720198
	C2113	C	0.833699	0.170469	0.757827
	C2114	C	0.586743	0.117046	0.822353
	C2115	C	0.836848	0.179783	0.755508
	C2116	C	0.902677	0.169773	0.806722
	C2117	C	0.657319	0.236875	0.765698
	C2118	C	0.908988	0.183223	0.708700
	C2119	C	0.653939	0.115900	0.750782
	C2120	C	0.906871	0.118604	0.825751
	C2121	C	0.657013	0.180656	0.760249
	C2122	C	0.909130	0.239512	0.724394
	C2123	C	0.653848	0.171358	0.762605
	C2124	C	0.589276	0.182135	0.712639
	C2125	C	0.833491	0.114478	0.755855
	C2126	C	0.582407	0.168357	0.811694
	C2127	C	0.837478	0.235771	0.769678
	C2128	C	0.497706	0.234377	0.722654
	C2129	C	0.742118	0.166146	0.761333
	C2130	C	0.497004	0.121588	0.817521
	C2131	C	0.748527	0.184989	0.756704
	C2132	C	0.491700	0.164613	0.805981
	C2133	C	0.746656	0.231760	0.764808
	C2134	C	0.500002	0.187242	0.713474
	C2135	C	0.744376	0.119587	0.756718
	C2136	C	0.495919	0.224361	0.725230
	C2137	C	0.739883	0.156211	0.765387
	C2138	C	0.496503	0.129535	0.803841
	C2139	C	0.750661	0.194949	0.752871
	C2140	C	0.490468	0.155404	0.798477
	C2141	C	0.745876	0.222502	0.757357
	C2142	C	0.500749	0.196590	0.720529
	C2143	C	0.745284	0.128720	0.764523
	H2144	H	0.658324	0.234951	0.718872
	H2145	H	0.902160	0.166498	0.756850
	H2146	H	0.656046	0.119270	0.815953
	H2147	H	0.907821	0.183051	0.752660
	H2148	H	0.832339	0.166979	0.802211
	H2149	H	0.586333	0.233946	0.761953
	H2150	H	0.839465	0.187079	0.709238
	H2151	H	0.585108	0.119853	0.751205
	H2152	H	0.837390	0.122115	0.822208
	H2153	H	0.588340	0.184605	0.761290
	H2154	H	0.838062	0.236152	0.726483
	H2155	H	0.582931	0.168124	0.765534
	H2156	H	0.659899	0.185108	0.716389
	H2157	H	0.903404	0.117284	0.760521
	H2158	H	0.651442	0.164431	0.811206
	H2159	H	0.907290	0.231945	0.769218
	O2160	O	0.074250	0.214483	0.828575
	O2161	O	0.332755	0.158088	0.925105
	O2162	O	0.088481	0.141248	0.963568
	O2163	O	0.330888	0.194764	0.860098
	O2164	O	0.413383	0.160612	0.955919
	O2165	O	0.155862	0.214649	0.857125
	O2166	O	0.411155	0.195166	0.829005
	O2167	O	0.169152	0.140075	0.931685
	O2168	O	0.419399	0.142086	0.964893
	O2169	O	0.161914	0.195574	0.861748
	O2170	O	0.405064	0.215110	0.830351
	O2171	O	0.163538	0.158882	0.926601
	O2172	O	0.080606	0.194500	0.830821
	O2173	O	0.338543	0.139391	0.933649
	O2174	O	0.083074	0.159886	0.958038
	O2175	O	0.325339	0.213924	0.859006
	F2176	F	0.001086	0.149251	0.933428
	F2177	F	0.243061	0.204583	0.832266
	F2178	F	-0.006782	0.204488	0.855913
	F2179	F	0.251284	0.150691	0.956284
	Al2180	Al	0.126173	0.149970	0.944902
	Al2181	Al	0.368125	0.204531	0.843963
	Al2182	Al	0.118258	0.204564	0.843970
	Al2183	Al	0.376026	0.149987	0.944847
	C2184	C	0.083949	0.232966	0.820279
	C2185	C	0.336832	0.172096	0.897382
	C2186	C	0.093991	0.127133	0.991077
	C2187	C	0.336599	0.179416	0.884472
	C2188	C	0.410683	0.177830	0.969669
	C2189	C	0.153132	0.232202	0.869334
	C2190	C	0.404212	0.178403	0.813283
	C2191	C	0.162219	0.123740	0.914812
	C2192	C	0.414780	0.129092	0.994623
	C2193	C	0.157453	0.181211	0.888504
	C2194	C	0.404732	0.233838	0.824978
	C2195	C	0.157696	0.173891	0.901406
	C2196	C	0.083858	0.177055	0.818011
	C2197	C	0.341822	0.122214	0.919721
	C2198	C	0.090118	0.176251	0.974710
	C2199	C	0.332763	0.230831	0.874253
	C2200	C	-0.007506	0.228641	0.823892
	C2201	C	0.247448	0.169253	0.906013
	C2202	C	0.004409	0.131561	0.985572
	C2203	C	0.246936	0.184073	0.879924
	C2204	C	-0.000607	0.172744	0.968467
	C2205	C	0.242145	0.227078	0.868607
	C2206	C	-0.005312	0.182162	0.818923
	C2207	C	0.252741	0.127249	0.921080
	C2208	C	-0.009624	0.218682	0.827914
	C2209	C	0.247967	0.161523	0.920274
	C2210	C	0.004068	0.138813	0.970252
	C2211	C	0.246550	0.192020	0.866238
	C2212	C	-0.001520	0.163761	0.960132
	C2213	C	0.241004	0.217876	0.861039
	C2214	C	-0.004365	0.191279	0.826810
	C2215	C	0.253691	0.136217	0.929452
	H2216	H	0.152488	0.229004	0.819169
	H2217	H	0.406314	0.168520	0.900769
	H2218	H	0.163251	0.128958	0.984080
	H2219	H	0.405933	0.181533	0.877816
	H2220	H	0.340933	0.175166	0.964658
	H2221	H	0.083128	0.229391	0.864721
	H2222	H	0.335163	0.182310	0.813839
	H2223	H	0.093504	0.127638	0.915744
	H2224	H	0.345294	0.132500	0.990513
	H2225	H	0.087993	0.184815	0.885187
	H2226	H	0.333737	0.230581	0.827851
	H2227	H	0.088463	0.171801	0.908107
	H2228	H	0.154001	0.179852	0.822593
	H2229	H	0.411643	0.124877	0.924711
	H2230	H	0.158813	0.172332	0.973790
	H2231	H	0.401715	0.226909	0.873673
	O2232	O	0.574605	0.214461	0.828564
	O2233	O	0.832332	0.158056	0.925126
	O2234	O	0.588547	0.141192	0.963459
	O2235	O	0.830899	0.194776	0.860251
	O2236	O	0.913713	0.160607	0.955825
	O2237	O	0.655429	0.214618	0.857262
	O2238	O	0.911177	0.195195	0.829014
	O2239	O	0.669191	0.140094	0.931607
	O2240	O	0.919368	0.142058	0.964910
	O2241	O	0.661811	0.195541	0.861872
	O2242	O	0.904719	0.215090	0.830419
	O2243	O	0.663130	0.158895	0.926665
	O2244	O	0.580704	0.194465	0.830915
	O2245	O	0.838549	0.139354	0.933685
	O2246	O	0.582756	0.159844	0.958120
	O2247	O	0.825029	0.213963	0.858975
	F2248	F	0.500966	0.149255	0.933480
	F2249	F	0.743169	0.204562	0.832413
	F2250	F	0.493194	0.204470	0.855864
	F2251	F	0.751283	0.150665	0.956259
	Al2252	Al	0.626085	0.149964	0.944899
	Al2253	Al	0.868527	0.204523	0.844081
	Al2254	Al	0.618156	0.204538	0.844076
	Al2255	Al	0.876142	0.149963	0.944792
	C2256	C	0.584512	0.232940	0.820183
	C2257	C	0.836800	0.172042	0.897375
	C2258	C	0.593991	0.127150	0.991058
	C2259	C	0.836665	0.179368	0.884482
	C2260	C	0.910412	0.177810	0.969695
	C2261	C	0.652503	0.232193	0.869419
	C2262	C	0.904016	0.178447	0.813157
	C2263	C	0.661882	0.123715	0.914846
	C2264	C	0.914861	0.129099	0.994646
	C2265	C	0.657534	0.181196	0.888559
	C2266	C	0.904225	0.233863	0.825095
	C2267	C	0.657643	0.173873	0.901443
	C2268	C	0.583904	0.177020	0.818190
	C2269	C	0.841698	0.122184	0.919747
	C2270	C	0.590219	0.176256	0.974708
	C2271	C	0.832378	0.230856	0.874086
	C2272	C	0.493000	0.228618	0.823792
	C2273	C	0.747339	0.169227	0.906044
	C2274	C	0.504306	0.131585	0.985586
	C2275	C	0.747044	0.184051	0.880000
	C2276	C	0.499556	0.172759	0.968422
	C2277	C	0.741554	0.227094	0.868558
	C2278	C	0.494905	0.182142	0.818960
	C2279	C	0.752613	0.127225	0.921091
	C2280	C	0.490651	0.218668	0.827808
	C2281	C	0.747610	0.161514	0.920317
	C2282	C	0.504067	0.138778	0.970151
	C2283	C	0.746594	0.192008	0.866353
	C2284	C	0.498317	0.163755	0.960177
	C2285	C	0.740513	0.217895	0.861018
	C2286	C	0.495689	0.191256	0.826868
	C2287	C	0.753665	0.136201	0.929469
	H2288	H	0.653016	0.228970	0.819097
	H2289	H	0.906245	0.168447	0.900737
	H2290	H	0.663286	0.128950	0.984010
	H2291	H	0.905958	0.181471	0.877794
	H2292	H	0.840605	0.175159	0.964650
	H2293	H	0.582447	0.229360	0.864929
	H2294	H	0.834945	0.182364	0.813655
	H2295	H	0.593193	0.127632	0.915814
	H2296	H	0.845513	0.132540	0.990592
	H2297	H	0.588137	0.184811	0.885256
	H2298	H	0.833292	0.230605	0.827969
	H2299	H	0.588398	0.171792	0.908156
	H2300	H	0.653964	0.179794	0.822861
	H2301	H	0.911362	0.124869	0.924755
	H2302	H	0.658780	0.172326	0.973846
	H2303	H	0.901314	0.226936	0.873431
	O2304	O	0.074715	0.339473	-0.046427
	O2305	O	0.333248	0.283122	0.050229
	O2306	O	0.088560	0.266263	0.088540
	O2307	O	0.330969	0.319836	-0.014754
	O2308	O	0.413750	0.285559	0.081104
	O2309	O	0.155616	0.339621	-0.017811
	O2310	O	0.411576	0.320169	-0.045942
	O2311	O	0.169252	0.265076	0.056678
	O2312	O	0.419862	0.267055	0.089870
	O2313	O	0.161966	0.320501	-0.013355
	O2314	O	0.405633	0.340135	-0.044557
	O2315	O	0.163936	0.283824	0.051442
	O2316	O	0.080927	0.319481	-0.044204
	O2317	O	0.338666	0.264375	0.058704
	O2318	O	0.083389	0.284930	0.082817
	O2319	O	0.325082	0.338964	-0.016128
	F2320	F	0.001169	0.274292	0.058372
	F2321	F	0.243267	0.329568	-0.042741
	F2322	F	-0.006522	0.329475	-0.019117
	F2323	F	0.251421	0.275677	0.081283
	Al2324	Al	0.126225	0.274974	0.069836
	Al2325	Al	0.368408	0.329533	-0.031002
	Al2326	Al	0.118350	0.329536	-0.031024
	Al2327	Al	0.376296	0.274979	0.069857
	C2328	C	0.084262	0.357959	-0.054750
	C2329	C	0.337354	0.297250	0.022790
	C2330	C	0.094077	0.252214	0.116114
	C2331	C	0.336972	0.304576	0.009891
	C2332	C	0.410650	0.302713	0.095115
	C2333	C	0.152474	0.357163	-0.005528
	C2334	C	0.404695	0.303409	-0.061801
	C2335	C	0.162347	0.248718	0.039887
	C2336	C	0.415348	0.254084	0.119575
	C2337	C	0.157822	0.306064	0.013154
	C2338	C	0.404933	0.358848	-0.049925
	C2339	C	0.158144	0.298737	0.026051
	C2340	C	0.083835	0.302002	-0.056785
	C2341	C	0.341977	0.247225	0.044711
	C2342	C	0.090553	0.301359	0.099344
	C2343	C	0.332372	0.355830	-0.000822
	C2344	C	-0.007213	0.353618	-0.051200
	C2345	C	0.247970	0.294241	0.031025
	C2346	C	0.004210	0.256614	0.110590
	C2347	C	0.247276	0.309084	0.004957
	C2348	C	-0.000143	0.297746	0.093497
	C2349	C	0.241692	0.352069	-0.006480
	C2350	C	-0.005181	0.307135	-0.056027
	C2351	C	0.252845	0.252230	0.046136
	C2352	C	-0.009386	0.343670	-0.047176
	C2353	C	0.248462	0.286520	0.045282
	C2354	C	0.004035	0.263832	0.095188
	C2355	C	0.246746	0.317023	-0.008744
	C2356	C	-0.001080	0.288781	0.085109
	C2357	C	0.240671	0.342889	-0.014038
	C2358	C	-0.004196	0.316240	-0.048106
	C2359	C	0.253781	0.261206	0.054499
	H2360	H	0.152946	0.354001	-0.055762
	H2361	H	0.406995	0.293800	0.026469
	H2362	H	0.163484	0.254048	0.109128
	H2363	H	0.406273	0.306809	0.003528
	H2364	H	0.340767	0.299976	0.090425
	H2365	H	0.082160	0.354341	-0.009973
	H2366	H	0.335740	0.307342	-0.061373
	H2367	H	0.093763	0.252631	0.040862
	H2368	H	0.345805	0.257482	0.115434
	H2369	H	0.088382	0.309528	0.009503
	H2370	H	0.334103	0.355592	-0.046939
	H2371	H	0.088890	0.296515	0.032433
	H2372	H	0.153895	0.304780	-0.052104
	H2373	H	0.411591	0.249922	0.049658
	H2374	H	0.159377	0.297523	0.098081
	H2375	H	0.401471	0.351917	-0.001401
	O2376	O	0.575144	0.339498	-0.046429
	O2377	O	0.832598	0.283134	0.050142
	O2378	O	0.588988	0.266243	0.088494
	O2379	O	0.830795	0.319826	-0.014713
	O2380	O	0.913940	0.285595	0.081032
	O2381	O	0.655481	0.339631	-0.017800
	O2382	O	0.911464	0.320161	-0.045949
	O2383	O	0.669234	0.265068	0.056682
	O2384	O	0.919417	0.267080	0.089792
	O2385	O	0.661713	0.320503	-0.013315
	O2386	O	0.905148	0.340098	-0.044547
	O2387	O	0.663348	0.283839	0.051446
	O2388	O	0.581039	0.319505	-0.044193
	O2389	O	0.838703	0.264406	0.058614
	O2390	O	0.583090	0.284910	0.082910
	O2391	O	0.825175	0.338964	-0.016038
	F2392	F	0.500944	0.274249	0.058456
	F2393	F	0.743384	0.329552	-0.042653
	F2394	F	0.493548	0.329485	-0.019147
	F2395	F	0.751416	0.275711	0.081198
	Al2396	Al	0.626259	0.274982	0.069807
	Al2397	Al	0.868739	0.329528	-0.030929
	Al2398	Al	0.618336	0.329558	-0.030999
	Al2399	Al	0.876326	0.275003	0.069749
	C2400	C	0.584558	0.357987	-0.054788
	C2401	C	0.836731	0.297223	0.022713
	C2402	C	0.594858	0.252162	0.116106
	C2403	C	0.836599	0.304547	0.009831
	C2404	C	0.910787	0.302724	0.095113
	C2405	C	0.652521	0.357223	-0.005685
	C2406	C	0.904110	0.303415	-0.061824
	C2407	C	0.662197	0.248714	0.039917
	C2408	C	0.914637	0.254113	0.119641
	C2409	C	0.657383	0.306064	0.013137
	C2410	C	0.904441	0.358839	-0.049992
	C2411	C	0.657527	0.298738	0.026023
	C2412	C	0.584220	0.302005	-0.056725
	C2413	C	0.841935	0.247212	0.044752
	C2414	C	0.590485	0.301341	0.099354
	C2415	C	0.832206	0.355838	-0.000717
	C2416	C	0.493198	0.353639	-0.051233
	C2417	C	0.747309	0.294252	0.030988
	C2418	C	0.505018	0.256579	0.110580
	C2419	C	0.746907	0.309084	0.004985
	C2420	C	0.499758	0.297742	0.093428
	C2421	C	0.741597	0.352121	-0.006487
	C2422	C	0.495262	0.307127	-0.055984
	C2423	C	0.752894	0.252242	0.046113
	C2424	C	0.491161	0.343698	-0.047148
	C2425	C	0.747796	0.286534	0.045247
	C2426	C	0.504652	0.263783	0.095164
	C2427	C	0.746497	0.317022	-0.008703
	C2428	C	0.498589	0.288765	0.085141
	C2429	C	0.740598	0.342890	-0.013979
	C2430	C	0.496079	0.316271	-0.048166
	C2431	C	0.753880	0.261223	0.054440
	H2432	H	0.653243	0.354041	-0.055822
	H2433	H	0.906193	0.293761	0.026410
	H2434	H	0.664176	0.253983	0.109065
	H2435	H	0.905924	0.306783	0.003483
	H2436	H	0.840969	0.299990	0.090346
	H2437	H	0.582414	0.354403	-0.010207
	H2438	H	0.835111	0.307349	-0.061358
	H2439	H	0.593455	0.252619	0.040874
	H2440	H	0.845110	0.257530	0.115565
	H2441	H	0.587924	0.309548	0.009511
	H2442	H	0.833489	0.355588	-0.047079
	H2443	H	0.588332	0.296528	0.032440
	H2444	H	0.654106	0.304806	-0.052034
	H2445	H	0.911698	0.249890	0.049702
	H2446	H	0.659310	0.297489	0.098174
	H2447	H	0.901033	0.351893	-0.001165
	O2448	O	0.082813	0.345624	0.112647
	O2449	O	0.340190	0.295016	0.222585
	O2450	O	0.095937	0.278268	0.261003
	O2451	O	0.338536	0.328779	0.150982
	O2452	O	0.421132	0.297669	0.253701
	O2453	O	0.163827	0.348084	0.143450
	O2454	O	0.419218	0.327569	0.119180
	O2455	O	0.176401	0.277144	0.229508
	O2456	O	0.426776	0.278908	0.262094
	O2457	O	0.169353	0.329558	0.152266
	O2458	O	0.413900	0.346324	0.113917
	O2459	O	0.171073	0.295813	0.223909
	O2460	O	0.088738	0.326935	0.121026
	O2461	O	0.345784	0.276487	0.231410
	O2462	O	0.090433	0.296978	0.255753
	O2463	O	0.333392	0.347436	0.145304
	F2464	F	0.008478	0.286368	0.231100
	F2465	F	0.251035	0.336766	0.120896
	F2466	F	0.001314	0.338230	0.143734
	F2467	F	0.258722	0.287807	0.253969
	Al2468	Al	0.133610	0.287099	0.242545
	Al2469	Al	0.376147	0.337490	0.132281
	Al2470	Al	0.126140	0.337501	0.132279
	Al2471	Al	0.383592	0.287077	0.242560
	C2472	C	0.086763	0.359742	0.085247
	C2473	C	0.344400	0.308050	0.192974
	C2474	C	0.101780	0.263457	0.286636
	C2475	C	0.344309	0.314779	0.178687
	C2476	C	0.418028	0.314875	0.267610
	C2477	C	0.160613	0.365253	0.157536
	C2478	C	0.412206	0.311159	0.102634
	C2479	C	0.169375	0.260776	0.212798
	C2480	C	0.422442	0.264737	0.289360
	C2481	C	0.165039	0.316522	0.181895
	C2482	C	0.407955	0.361256	0.088595
	C2483	C	0.165115	0.309806	0.196156
	C2484	C	0.091969	0.309801	0.106878
	C2485	C	0.349107	0.259290	0.217567
	C2486	C	0.097228	0.313306	0.272715
	C2487	C	0.340219	0.363835	0.162014
	C2488	C	-0.002753	0.356735	0.093476
	C2489	C	0.254922	0.305489	0.201873
	C2490	C	0.011823	0.267852	0.281416
	C2491	C	0.254503	0.319097	0.172992
	C2492	C	0.006679	0.309814	0.266378
	C2493	C	0.249644	0.360284	0.155962
	C2494	C	0.002834	0.314751	0.108605
	C2495	C	0.260008	0.264309	0.218993
	C2496	C	-0.002009	0.349021	0.107755
	C2497	C	0.255397	0.298263	0.217234
	C2498	C	0.011454	0.275561	0.267136
	C2499	C	0.254150	0.326322	0.157627
	C2500	C	0.005967	0.300854	0.257940
	C2501	C	0.248719	0.351282	0.147569
	C2502	C	0.003915	0.323729	0.116953
	C2503	C	0.260970	0.273298	0.227279
	H2504	H	0.156416	0.356294	0.088927
	H2505	H	0.413802	0.304691	0.197214
	H2506	H	0.171163	0.265767	0.280450
	H2507	H	0.413502	0.316689	0.171800
	H2508	H	0.348425	0.312209	0.262539
	H2509	H	0.090924	0.362528	0.152703
	H2510	H	0.343451	0.315012	0.103869
	H2511	H	0.100593	0.264673	0.213743
	H2512	H	0.352837	0.268119	0.285482
	H2513	H	0.095401	0.319853	0.177692
	H2514	H	0.338645	0.359067	0.095048
	H2515	H	0.095647	0.307918	0.202973
	H2516	H	0.161818	0.312550	0.111546
	H2517	H	0.419007	0.261979	0.222451
	H2518	H	0.165965	0.309388	0.271805
	H2519	H	0.408836	0.359957	0.160883
	O2520	O	0.583325	0.345669	0.112720
	O2521	O	0.839894	0.295004	0.222550
	O2522	O	0.596081	0.278242	0.260972
	O2523	O	0.838474	0.328756	0.151029
	O2524	O	0.921061	0.297698	0.253678
	O2525	O	0.663785	0.348078	0.143540
	O2526	O	0.919493	0.327585	0.119184
	O2527	O	0.676333	0.277164	0.229410
	O2528	O	0.926628	0.278935	0.262145
	O2529	O	0.669329	0.329559	0.152292
	O2530	O	0.913515	0.346340	0.113980
	O2531	O	0.670723	0.295815	0.223881
	O2532	O	0.588603	0.326939	0.120981
	O2533	O	0.845754	0.276471	0.231341
	O2534	O	0.590636	0.296959	0.255778
	O2535	O	0.833200	0.347406	0.145482
	F2536	F	0.508344	0.286351	0.231121
	F2537	F	0.751166	0.336748	0.120968
	F2538	F	0.501208	0.338209	0.143702
	F2539	F	0.758802	0.287804	0.253906
	Al2540	Al	0.633458	0.287081	0.242563
	Al2541	Al	0.876357	0.337489	0.132387
	Al2542	Al	0.626232	0.337492	0.132343
	Al2543	Al	0.883724	0.287075	0.242479
	C2544	C	0.587364	0.359750	0.085275
	C2545	C	0.844238	0.308037	0.193019
	C2546	C	0.601906	0.263437	0.286605
	C2547	C	0.843977	0.314765	0.178735
	C2548	C	0.917727	0.314873	0.267649
	C2549	C	0.660627	0.365263	0.157491
	C2550	C	0.912250	0.311162	0.102643
	C2551	C	0.669226	0.260755	0.212769
	C2552	C	0.922255	0.264768	0.289409
	C2553	C	0.664648	0.316550	0.181934
	C2554	C	0.907369	0.361238	0.088526
	C2555	C	0.664941	0.309835	0.196193
	C2556	C	0.592072	0.309786	0.106874
	C2557	C	0.848911	0.259262	0.217672
	C2558	C	0.597510	0.313306	0.272742
	C2559	C	0.840270	0.363824	0.161970
	C2560	C	0.497826	0.356745	0.093494
	C2561	C	0.754617	0.305481	0.201863
	C2562	C	0.512033	0.267803	0.281308
	C2563	C	0.754264	0.319100	0.173049
	C2564	C	0.507038	0.309845	0.266336
	C2565	C	0.749610	0.360257	0.155968
	C2566	C	0.502986	0.314760	0.108493
	C2567	C	0.759839	0.264295	0.218953
	C2568	C	0.498403	0.349026	0.107741
	C2569	C	0.755088	0.298265	0.217223
	C2570	C	0.511552	0.275533	0.267081
	C2571	C	0.754040	0.326308	0.157653
	C2572	C	0.506019	0.300830	0.257961
	C2573	C	0.748636	0.351265	0.147671
	C2574	C	0.503829	0.323733	0.116888
	C2575	C	0.760825	0.273290	0.227229
	H2576	H	0.657030	0.356307	0.088980
	H2577	H	0.913618	0.304688	0.197299
	H2578	H	0.671362	0.265746	0.280460
	H2579	H	0.913295	0.316661	0.171840
	H2580	H	0.848007	0.312228	0.262560
	H2581	H	0.590850	0.362545	0.152657
	H2582	H	0.843430	0.315012	0.103820
	H2583	H	0.600497	0.264664	0.213718
	H2584	H	0.852675	0.268143	0.285513
	H2585	H	0.595106	0.319894	0.177743
	H2586	H	0.838043	0.359022	0.094925
	H2587	H	0.595593	0.307980	0.203056
	H2588	H	0.661820	0.312524	0.111619
	H2589	H	0.918685	0.261939	0.222633
	H2590	H	0.666024	0.309350	0.271874
	H2591	H	0.908987	0.359954	0.160841
	O2592	O	0.089694	0.357497	0.285143
	O2593	O	0.347916	0.304011	0.388188
	O2594	O	0.104049	0.284430	0.419563
	O2595	O	0.346031	0.340691	0.323355
	O2596	O	0.428725	0.305067	0.419039
	O2597	O	0.170935	0.360130	0.316383
	O2598	O	0.426637	0.339687	0.291865
	O2599	O	0.184045	0.285572	0.391090
	O2600	O	0.435005	0.285068	0.421386
	O2601	O	0.176780	0.341440	0.324765
	O2602	O	0.421068	0.358302	0.286403
	O2603	O	0.178932	0.304748	0.389741
	O2604	O	0.096017	0.338960	0.293960
	O2605	O	0.353530	0.284900	0.392893
	O2606	O	0.098494	0.304424	0.420922
	O2607	O	0.340388	0.359492	0.318194
	F2608	F	0.016128	0.295087	0.394088
	F2609	F	0.258140	0.348870	0.293649
	F2610	F	0.008489	0.350294	0.316522
	F2611	F	0.266500	0.294981	0.417701
	Al2612	Al	0.141370	0.295027	0.406035
	Al2613	Al	0.383437	0.349585	0.305025
	Al2614	Al	0.133456	0.349571	0.305088
	Al2615	Al	0.391306	0.294989	0.405961
	C2616	C	0.094332	0.370504	0.255444
	C2617	C	0.352185	0.318399	0.361545
	C2618	C	0.104446	0.265712	0.424921
	C2619	C	0.351860	0.325734	0.348630
	C2620	C	0.425163	0.322513	0.431813
	C2621	C	0.167591	0.377280	0.330477
	C2622	C	0.419755	0.323288	0.275156
	C2623	C	0.177056	0.268725	0.375679
	C2624	C	0.425050	0.266602	0.429687
	C2625	C	0.172609	0.327386	0.352339
	C2626	C	0.415177	0.372341	0.258811
	C2627	C	0.172941	0.320074	0.365215
	C2628	C	0.098717	0.321730	0.280286
	C2629	C	0.356719	0.267346	0.380645
	C2630	C	0.104802	0.321182	0.436726
	C2631	C	0.347431	0.375850	0.334983
	C2632	C	0.004617	0.367974	0.264382
	C2633	C	0.262646	0.315474	0.369939
	C2634	C	0.016251	0.270928	0.426231
	C2635	C	0.262020	0.330297	0.343864
	C2636	C	0.014290	0.317448	0.430928
	C2637	C	0.256785	0.372298	0.328904
	C2638	C	0.009787	0.326797	0.281551
	C2639	C	0.267671	0.272467	0.381420
	C2640	C	0.005017	0.360759	0.279801
	C2641	C	0.263190	0.307538	0.383668
	C2642	C	0.018608	0.280869	0.422153
	C2643	C	0.261553	0.338016	0.329605
	C2644	C	0.013936	0.308322	0.423076
	C2645	C	0.255789	0.363330	0.320494
	C2646	C	0.011143	0.335788	0.289839
	C2647	C	0.268532	0.281649	0.389008
	H2648	H	0.163969	0.367125	0.259605
	H2649	H	0.421547	0.314839	0.365043
	H2650	H	0.175315	0.268965	0.421918
	H2651	H	0.420872	0.327907	0.342014
	H2652	H	0.355089	0.319699	0.427255
	H2653	H	0.097768	0.374555	0.325647
	H2654	H	0.350991	0.327189	0.275962
	H2655	H	0.107876	0.272631	0.376161
	H2656	H	0.356514	0.270567	0.430716
	H2657	H	0.102881	0.330879	0.348849
	H2658	H	0.345802	0.370476	0.265746
	H2659	H	0.103493	0.317926	0.371703
	H2660	H	0.168578	0.324380	0.285329
	H2661	H	0.426976	0.270123	0.385212
	H2662	H	0.173886	0.317261	0.436258
	H2663	H	0.416201	0.371969	0.333891
	O2664	O	0.590353	0.357474	0.285090
	O2665	O	0.847319	0.304063	0.388206
	O2666	O	0.604513	0.284399	0.419441
	O2667	O	0.845783	0.340681	0.323429
	O2668	O	0.929012	0.305062	0.419104
	O2669	O	0.670811	0.360161	0.316357
	O2670	O	0.926727	0.339670	0.291996
	O2671	O	0.684213	0.285601	0.390950
	O2672	O	0.934437	0.285077	0.421364
	O2673	O	0.676506	0.341466	0.324822
	O2674	O	0.920481	0.358286	0.286362
	O2675	O	0.678168	0.304746	0.389667
	O2676	O	0.595893	0.338935	0.294131
	O2677	O	0.853741	0.284934	0.392630
	O2678	O	0.598110	0.304375	0.420907
	O2679	O	0.840338	0.359461	0.318341
	F2680	F	0.515960	0.295041	0.394045
	F2681	F	0.758254	0.348853	0.293746
	F2682	F	0.508451	0.350306	0.316515
	F2683	F	0.766475	0.294978	0.417532
	Al2684	Al	0.641301	0.295004	0.405906
	Al2685	Al	0.883443	0.349581	0.305162
	Al2686	Al	0.633313	0.349583	0.305151
	Al2687	Al	0.891650	0.295030	0.405844
	C2688	C	0.594676	0.370471	0.255359
	C2689	C	0.851633	0.318389	0.361505
	C2690	C	0.604752	0.265688	0.424822
	C2691	C	0.851435	0.325716	0.348574
	C2692	C	0.925096	0.322554	0.431751
	C2693	C	0.667497	0.377300	0.330471
	C2694	C	0.919243	0.323303	0.275225
	C2695	C	0.676725	0.268711	0.375817
	C2696	C	0.924761	0.266606	0.429791
	C2697	C	0.672088	0.327396	0.352335
	C2698	C	0.914849	0.372366	0.258772
	C2699	C	0.672283	0.320090	0.365215
	C2700	C	0.598956	0.321725	0.280288
	C2701	C	0.856579	0.267319	0.380684
	C2702	C	0.604954	0.321171	0.436630
	C2703	C	0.847372	0.375888	0.334927
	C2704	C	0.505187	0.367972	0.264380
	C2705	C	0.761980	0.315482	0.369913
	C2706	C	0.516579	0.270914	0.426131
	C2707	C	0.761644	0.330302	0.343874
	C2708	C	0.514300	0.317416	0.430906
	C2709	C	0.756677	0.372326	0.328917
	C2710	C	0.510151	0.326795	0.281533
	C2711	C	0.767590	0.272461	0.381395
	C2712	C	0.505574	0.360735	0.279745
	C2713	C	0.762410	0.307542	0.383605
	C2714	C	0.518927	0.280857	0.422060
	C2715	C	0.761241	0.338038	0.329675
	C2716	C	0.513636	0.308289	0.423072
	C2717	C	0.755706	0.363328	0.320559
	C2718	C	0.511106	0.335785	0.289820
	C2719	C	0.768638	0.281667	0.388887
	H2720	H	0.664271	0.367063	0.259436
	H2721	H	0.920941	0.314821	0.364990
	H2722	H	0.675721	0.268926	0.421850
	H2723	H	0.920662	0.327872	0.341952
	H2724	H	0.855050	0.319757	0.427098
	H2725	H	0.597623	0.374574	0.325677
	H2726	H	0.850545	0.327225	0.276082
	H2727	H	0.607706	0.272634	0.376366
	H2728	H	0.856183	0.270563	0.430812
	H2729	H	0.602417	0.330916	0.348862
	H2730	H	0.845344	0.370527	0.265711
	H2731	H	0.602860	0.317955	0.371715
	H2732	H	0.668833	0.324346	0.285338
	H2733	H	0.926854	0.270103	0.385247
	H2734	H	0.674069	0.317263	0.436114
	H2735	H	0.916097	0.372004	0.333809
	O2736	O	0.097497	0.366538	0.450722
	O2737	O	0.342176	0.300426	0.497926
	O2738	O	0.098412	0.278902	0.522951
	O2739	O	0.354614	0.346914	0.482000
	O2740	O	0.423438	0.299597	0.526051
	O2741	O	0.178930	0.367572	0.481579
	O2742	O	0.434036	0.348115	0.453450
	O2743	O	0.178732	0.280911	0.495256
	O2744	O	0.429019	0.279354	0.524686
	O2745	O	0.185014	0.347527	0.483691
	O2746	O	0.428531	0.367243	0.452205
	O2747	O	0.172731	0.300982	0.499627
	O2748	O	0.103565	0.347420	0.455270
	O2749	O	0.348209	0.280394	0.496438
	O2750	O	0.092926	0.299039	0.527433
	O2751	O	0.348277	0.366913	0.483371
	F2752	F	0.010884	0.290603	0.499377
	F2753	F	0.265971	0.357544	0.456573
	F2754	F	0.016827	0.357522	0.480235
	F2755	F	0.260885	0.289283	0.523342
	Al2756	Al	0.135797	0.289964	0.511396
	Al2757	Al	0.391243	0.357525	0.468420
	Al2758	Al	0.141384	0.357501	0.468437
	Al2759	Al	0.385778	0.289931	0.511408
	C2760	C	0.101612	0.380952	0.424103
	C2761	C	0.351643	0.318865	0.489762
	C2762	C	0.099851	0.260067	0.525725
	C2763	C	0.354868	0.328169	0.487377
	C2764	C	0.420015	0.317404	0.537465
	C2765	C	0.175463	0.385059	0.494288
	C2766	C	0.426559	0.331192	0.438273
	C2767	C	0.171877	0.263765	0.480474
	C2768	C	0.419847	0.260720	0.530069
	C2769	C	0.175174	0.329096	0.492163
	C2770	C	0.422706	0.382577	0.427731
	C2771	C	0.171901	0.319785	0.494522
	C2772	C	0.106284	0.329848	0.443206
	C2773	C	0.351908	0.262674	0.484416
	C2774	C	0.099716	0.316372	0.541284
	C2775	C	0.355129	0.383683	0.499171
	C2776	C	0.012171	0.377978	0.432445
	C2777	C	0.260087	0.314560	0.493380
	C2778	C	0.011225	0.265190	0.527448
	C2779	C	0.266835	0.333401	0.488627
	C2780	C	0.008968	0.312324	0.536577
	C2781	C	0.264637	0.379940	0.493382
	C2782	C	0.017262	0.334977	0.443918
	C2783	C	0.262605	0.267765	0.485380
	C2784	C	0.012665	0.370038	0.446137
	C2785	C	0.258045	0.304600	0.497245
	C2786	C	0.013067	0.275221	0.524893
	C2787	C	0.269102	0.343342	0.484522
	C2788	C	0.008265	0.302969	0.529519
	C2789	C	0.263874	0.370825	0.485519
	C2790	C	0.018502	0.344163	0.451487
	C2791	C	0.263282	0.277033	0.492837
	H2792	H	0.171091	0.377429	0.427591
	H2793	H	0.420037	0.314892	0.488686
	H2794	H	0.170935	0.263423	0.523648
	H2795	H	0.425804	0.331402	0.484384
	H2796	H	0.349323	0.314427	0.533745
	H2797	H	0.105270	0.382273	0.489722
	H2798	H	0.357614	0.335119	0.438817
	H2799	H	0.102197	0.267603	0.480968
	H2800	H	0.351070	0.264608	0.531549
	H2801	H	0.106638	0.333074	0.493130
	H2802	H	0.353414	0.380392	0.434217
	H2803	H	0.100831	0.316547	0.497376
	H2804	H	0.176449	0.332636	0.447784
	H2805	H	0.422733	0.265618	0.488156
	H2806	H	0.169346	0.312526	0.540756
	H2807	H	0.424374	0.379788	0.498714
	O2808	O	0.597477	0.366495	0.450641
	O2809	O	0.841694	0.300452	0.497754
	O2810	O	0.598574	0.278872	0.523000
	O2811	O	0.853958	0.346938	0.482264
	O2812	O	0.923422	0.299596	0.525935
	O2813	O	0.678515	0.367572	0.481561
	O2814	O	0.934054	0.348096	0.453599
	O2815	O	0.678168	0.280934	0.495162
	O2816	O	0.928941	0.279385	0.524627
	O2817	O	0.684283	0.347540	0.483805
	O2818	O	0.928333	0.367228	0.452157
	O2819	O	0.672266	0.300991	0.499679
	O2820	O	0.603451	0.347407	0.455255
	O2821	O	0.847806	0.280381	0.496280
	O2822	O	0.592997	0.298999	0.527501
	O2823	O	0.847852	0.366921	0.483419
	F2824	F	0.510481	0.290592	0.499459
	F2825	F	0.766102	0.357540	0.456658
	F2826	F	0.516404	0.357484	0.480153
	F2827	F	0.761113	0.289294	0.523221
	Al2828	Al	0.635624	0.289947	0.511422
	Al2829	Al	0.891302	0.357529	0.468557
	Al2830	Al	0.641174	0.357495	0.468416
	Al2831	Al	0.886123	0.289956	0.511254
	C2832	C	0.601852	0.380888	0.424029
	C2833	C	0.851121	0.318880	0.489711
	C2834	C	0.600105	0.260041	0.525747
	C2835	C	0.854357	0.328185	0.487371
	C2836	C	0.919578	0.317437	0.537400
	C2837	C	0.675008	0.385048	0.494306
	C2838	C	0.926564	0.331217	0.438260
	C2839	C	0.670957	0.263809	0.480335
	C2840	C	0.919497	0.260745	0.530025
	C2841	C	0.674691	0.329109	0.492297
	C2842	C	0.922473	0.382575	0.427732
	C2843	C	0.671482	0.319797	0.494641
	C2844	C	0.606383	0.329849	0.443064
	C2845	C	0.851079	0.262684	0.484351
	C2846	C	0.600141	0.316334	0.541394
	C2847	C	0.854832	0.383657	0.499202
	C2848	C	0.512348	0.377969	0.432450
	C2849	C	0.759537	0.314571	0.493317
	C2850	C	0.511386	0.265165	0.527447
	C2851	C	0.766224	0.333413	0.488669
	C2852	C	0.509312	0.312301	0.536656
	C2853	C	0.764077	0.379916	0.493469
	C2854	C	0.517190	0.334958	0.443892
	C2855	C	0.761795	0.267786	0.485246
	C2856	C	0.512766	0.370012	0.446097
	C2857	C	0.757469	0.304611	0.497167
	C2858	C	0.513252	0.275192	0.524896
	C2859	C	0.768400	0.343358	0.484665
	C2860	C	0.508539	0.302951	0.529595
	C2861	C	0.763327	0.370808	0.485618
	C2862	C	0.518351	0.344165	0.451391
	C2863	C	0.762692	0.277048	0.492706
	H2864	H	0.671320	0.377331	0.427431
	H2865	H	0.919611	0.314905	0.488612
	H2866	H	0.671073	0.263416	0.523683
	H2867	H	0.925293	0.331432	0.484392
	H2868	H	0.848938	0.314451	0.533651
	H2869	H	0.604733	0.382282	0.489693
	H2870	H	0.857512	0.335135	0.438786
	H2871	H	0.601438	0.267673	0.480784
	H2872	H	0.850698	0.264639	0.531425
	H2873	H	0.606253	0.333085	0.493370
	H2874	H	0.853177	0.380398	0.434218
	H2875	H	0.600508	0.316559	0.497591
	H2876	H	0.676539	0.332667	0.447563
	H2877	H	0.921910	0.265625	0.488107
	H2878	H	0.669746	0.312479	0.540917
	H2879	H	0.924059	0.379758	0.498705
	O2880	O	0.092229	0.362923	0.560330
	O2881	O	0.338272	0.294601	0.594668
	O2882	O	0.094458	0.272962	0.619445
	O2883	O	0.348790	0.341390	0.585332
	O2884	O	0.419398	0.293528	0.622921
	O2885	O	0.173582	0.362105	0.588499
	O2886	O	0.428444	0.343472	0.557486
	O2887	O	0.174021	0.274961	0.591676
	O2888	O	0.424986	0.273394	0.621006
	O2889	O	0.179230	0.341861	0.587096
	O2890	O	0.422926	0.363488	0.562009
	O2891	O	0.168689	0.295095	0.596247
	O2892	O	0.097679	0.342882	0.558956
	O2893	O	0.343565	0.274420	0.592941
	O2894	O	0.088762	0.293089	0.623835
	O2895	O	0.343001	0.361550	0.589792
	F2896	F	0.006532	0.284701	0.595766
	F2897	F	0.260400	0.353107	0.561864
	F2898	F	0.011413	0.351803	0.585891
	F2899	F	0.256666	0.283343	0.619768
	Al2900	Al	0.131565	0.284014	0.607766
	Al2901	Al	0.385831	0.352467	0.573790
	Al2902	Al	0.135760	0.352440	0.573891
	Al2903	Al	0.381469	0.284000	0.607877
	C2904	C	0.101642	0.381398	0.552303
	C2905	C	0.347620	0.313228	0.589019
	C2906	C	0.096140	0.254132	0.622540
	C2907	C	0.350341	0.322565	0.588153
	C2908	C	0.415537	0.311318	0.634601
	C2909	C	0.170077	0.379935	0.599915
	C2910	C	0.421437	0.326267	0.542922
	C2911	C	0.166788	0.257696	0.577475
	C2912	C	0.415905	0.254784	0.626649
	C2913	C	0.170084	0.323234	0.592439
	C2914	C	0.421966	0.382266	0.557013
	C2915	C	0.167361	0.313898	0.593277
	C2916	C	0.101048	0.325222	0.546793
	C2917	C	0.347060	0.256660	0.581174
	C2918	C	0.095675	0.310328	0.638096
	C2919	C	0.350152	0.378869	0.603781
	C2920	C	0.010172	0.377063	0.555875
	C2921	C	0.255992	0.308780	0.591600
	C2922	C	0.007382	0.259247	0.624058
	C2923	C	0.261686	0.327683	0.589865
	C2924	C	0.004754	0.306278	0.633450
	C2925	C	0.259394	0.374820	0.599042
	C2926	C	0.011721	0.330294	0.547805
	C2927	C	0.257680	0.261741	0.582131
	C2928	C	0.008086	0.367109	0.559739
	C2929	C	0.254024	0.298759	0.594302
	C2930	C	0.009173	0.269270	0.621346
	C2931	C	0.263503	0.337710	0.587289
	C2932	C	0.004088	0.296959	0.626229
	C2933	C	0.258616	0.365487	0.591956
	C2934	C	0.012499	0.339568	0.555273
	C2935	C	0.258558	0.271056	0.589380
	H2936	H	0.170229	0.377443	0.551245
	H2937	H	0.416491	0.309344	0.587621
	H2938	H	0.167277	0.257492	0.620547
	H2939	H	0.421356	0.325923	0.586079
	H2940	H	0.344707	0.308318	0.631058
	H2941	H	0.099398	0.376960	0.596162
	H2942	H	0.351869	0.330119	0.543419
	H2943	H	0.097141	0.261538	0.578052
	H2944	H	0.346996	0.258675	0.627948
	H2945	H	0.101108	0.327110	0.593839
	H2946	H	0.351081	0.379002	0.559886
	H2947	H	0.096221	0.310546	0.595337
	H2948	H	0.171804	0.328205	0.550476
	H2949	H	0.417808	0.259662	0.584778
	H2950	H	0.165379	0.306490	0.637522
	H2951	H	0.419882	0.375031	0.603228
	O2952	O	0.592366	0.362934	0.560238
	O2953	O	0.837794	0.294587	0.594417
	O2954	O	0.594643	0.272930	0.619471
	O2955	O	0.848340	0.341354	0.585419
	O2956	O	0.919135	0.293551	0.622746
	O2957	O	0.673000	0.362127	0.588493
	O2958	O	0.928220	0.343480	0.557625
	O2959	O	0.673762	0.274954	0.591662
	O2960	O	0.924844	0.273411	0.620913
	O2961	O	0.678789	0.341889	0.587175
	O2962	O	0.922809	0.363495	0.562190
	O2963	O	0.668312	0.295069	0.596291
	O2964	O	0.597924	0.342903	0.558843
	O2965	O	0.843338	0.274392	0.592866
	O2966	O	0.588969	0.293053	0.623990
	O2967	O	0.842511	0.361602	0.589845
	F2968	F	0.506148	0.284682	0.595965
	F2969	F	0.760743	0.353119	0.561981
	F2970	F	0.510890	0.351804	0.585691
	F2971	F	0.757045	0.283332	0.619702
	Al2972	Al	0.631569	0.283995	0.607847
	Al2973	Al	0.886144	0.352469	0.573956
	Al2974	Al	0.635736	0.352450	0.573823
	Al2975	Al	0.881883	0.284011	0.607707
	C2976	C	0.601719	0.381390	0.552178
	C2977	C	0.846957	0.313229	0.588999
	C2978	C	0.596197	0.254102	0.622387
	C2979	C	0.849566	0.322560	0.588194
	C2980	C	0.915308	0.311371	0.634480
	C2981	C	0.669467	0.379968	0.599783
	C2982	C	0.920903	0.326283	0.542929
	C2983	C	0.666530	0.257680	0.577472
	C2984	C	0.915735	0.254790	0.626554
	C2985	C	0.669363	0.323231	0.592460
	C2986	C	0.921837	0.382281	0.557138
	C2987	C	0.666736	0.313888	0.593250
	C2988	C	0.601562	0.325199	0.546809
	C2989	C	0.846804	0.256651	0.581160
	C2990	C	0.595821	0.310299	0.638163
	C2991	C	0.849607	0.378864	0.603733
	C2992	C	0.510221	0.377050	0.555759
	C2993	C	0.755391	0.308770	0.591580
	C2994	C	0.507546	0.259229	0.624134
	C2995	C	0.760921	0.327681	0.589942
	C2996	C	0.504925	0.306227	0.633592
	C2997	C	0.758694	0.374845	0.598982
	C2998	C	0.512159	0.330288	0.547760
	C2999	C	0.757405	0.261731	0.582097
	C3000	C	0.508237	0.367100	0.559560
	C3001	C	0.753565	0.298742	0.594225
	C3002	C	0.509349	0.269251	0.621433
	C3003	C	0.762892	0.337708	0.587391
	C3004	C	0.504338	0.296925	0.626372
	C3005	C	0.757929	0.365521	0.591941
	C3006	C	0.512955	0.339566	0.555163
	C3007	C	0.758238	0.271045	0.589324
	H3008	H	0.670300	0.377436	0.551078
	H3009	H	0.915882	0.309353	0.587589
	H3010	H	0.667177	0.257470	0.620239
	H3011	H	0.920692	0.325916	0.586118
	H3012	H	0.844446	0.308369	0.630945
	H3013	H	0.598740	0.377012	0.595978
	H3014	H	0.851403	0.330144	0.543473
	H3015	H	0.596899	0.261525	0.578013
	H3016	H	0.846709	0.258673	0.627809
	H3017	H	0.600438	0.327100	0.593871
	H3018	H	0.850930	0.379021	0.560053
	H3019	H	0.595613	0.310537	0.595247
	H3020	H	0.672269	0.328187	0.550511
	H3021	H	0.917631	0.259654	0.584724
	H3022	H	0.665488	0.306465	0.637558
	H3023	H	0.919190	0.375006	0.603228
	O3024	O	0.088131	0.357101	0.657104
	O3025	O	0.334470	0.288653	0.691541
	O3026	O	0.090884	0.266992	0.716393
	O3027	O	0.344364	0.335453	0.681873
	O3028	O	0.415734	0.287657	0.719628
	O3029	O	0.169214	0.356084	0.685262
	O3030	O	0.424079	0.337446	0.654124
	O3031	O	0.170462	0.269011	0.688631
	O3032	O	0.421212	0.267506	0.718058
	O3033	O	0.174838	0.335934	0.683597
	O3034	O	0.418567	0.357565	0.658691
	O3035	O	0.164989	0.289125	0.693184
	O3036	O	0.093682	0.336959	0.655314
	O3037	O	0.340044	0.268496	0.689832
	O3038	O	0.085372	0.287120	0.720928
	O3039	O	0.338840	0.355566	0.686382
	F3040	F	0.002850	0.278730	0.692851
	F3041	F	0.256202	0.347187	0.658364
	F3042	F	0.006921	0.345812	0.682281
	F3043	F	0.253073	0.277388	0.716748
	Al3044	Al	0.127978	0.278052	0.704781
	Al3045	Al	0.381499	0.346505	0.670249
	Al3046	Al	0.131494	0.346507	0.670313
	Al3047	Al	0.377887	0.278074	0.704772
	C3048	C	0.097323	0.375745	0.651563
	C3049	C	0.343348	0.307298	0.685861
	C3050	C	0.092130	0.248175	0.719259
	C3051	C	0.345926	0.316639	0.684945
	C3052	C	0.411838	0.305403	0.731459
	C3053	C	0.165450	0.373820	0.697111
	C3054	C	0.417008	0.320200	0.639987
	C3055	C	0.163294	0.251762	0.674407
	C3056	C	0.411786	0.248867	0.723536
	C3057	C	0.165692	0.317299	0.689151
	C3058	C	0.417139	0.376410	0.655853
	C3059	C	0.163078	0.307962	0.690055
	C3060	C	0.097142	0.319202	0.643509
	C3061	C	0.343711	0.250746	0.677992
	C3062	C	0.092177	0.304408	0.735025
	C3063	C	0.345824	0.372797	0.700643
	C3064	C	0.005707	0.371283	0.654065
	C3065	C	0.251861	0.302840	0.688505
	C3066	C	0.003549	0.253299	0.720987
	C3067	C	0.257246	0.321755	0.686615
	C3068	C	0.001316	0.300309	0.730515
	C3069	C	0.254902	0.368744	0.696068
	C3070	C	0.007862	0.324293	0.644452
	C3071	C	0.254320	0.255819	0.679003
	C3072	C	0.003914	0.361256	0.656714
	C3073	C	0.250233	0.292808	0.691211
	C3074	C	0.005507	0.263332	0.718384
	C3075	C	0.259093	0.331780	0.683922
	C3076	C	0.000737	0.290981	0.723297
	C3077	C	0.254260	0.359448	0.688770
	C3078	C	0.008638	0.333604	0.651720
	C3079	C	0.255065	0.265122	0.686285
	H3080	H	0.166284	0.371867	0.650172
	H3081	H	0.412186	0.303423	0.684476
	H3082	H	0.163207	0.251535	0.717197
	H3083	H	0.416981	0.320002	0.682866
	H3084	H	0.341142	0.302377	0.727893
	H3085	H	0.094638	0.370806	0.693570
	H3086	H	0.347455	0.324050	0.640604
	H3087	H	0.093601	0.255593	0.675017
	H3088	H	0.343113	0.252776	0.724945
	H3089	H	0.096604	0.321175	0.690486
	H3090	H	0.345899	0.373075	0.657911
	H3091	H	0.091975	0.304607	0.692084
	H3092	H	0.168018	0.322193	0.647101
	H3093	H	0.414685	0.253721	0.681569
	H3094	H	0.161959	0.300588	0.734387
	H3095	H	0.415469	0.368962	0.699985
	O3096	O	0.588093	0.357111	0.657109
	O3097	O	0.834345	0.288711	0.691712
	O3098	O	0.590760	0.266989	0.716344
	O3099	O	0.844007	0.335428	0.681841
	O3100	O	0.915769	0.287583	0.719818
	O3101	O	0.668949	0.356052	0.685308
	O3102	O	0.924095	0.337501	0.654052
	O3103	O	0.669990	0.269061	0.688469
	O3104	O	0.921357	0.267502	0.718141
	O3105	O	0.674453	0.335926	0.683409
	O3106	O	0.918560	0.357574	0.658666
	O3107	O	0.664709	0.289119	0.693154
	O3108	O	0.593670	0.336966	0.655249
	O3109	O	0.839491	0.268456	0.689886
	O3110	O	0.585297	0.287114	0.720960
	O3111	O	0.838615	0.355549	0.686512
	F3112	F	0.502552	0.278736	0.692835
	F3113	F	0.756346	0.347220	0.658416
	F3114	F	0.506609	0.345817	0.682222
	F3115	F	0.753093	0.277385	0.716687
	Al3116	Al	0.627817	0.278062	0.704782
	Al3117	Al	0.881843	0.346514	0.670326
	Al3118	Al	0.631404	0.346513	0.670264
	Al3119	Al	0.878119	0.278064	0.704787
	C3120	C	0.597276	0.375725	0.651502
	C3121	C	0.843015	0.307289	0.685900
	C3122	C	0.592198	0.248187	0.719360
	C3123	C	0.845638	0.316626	0.684923
	C3124	C	0.911767	0.305380	0.731479
	C3125	C	0.665258	0.373825	0.697049
	C3126	C	0.916835	0.320241	0.639873
	C3127	C	0.662662	0.251794	0.674269
	C3128	C	0.911902	0.248855	0.723586
	C3129	C	0.665330	0.317299	0.689138
	C3130	C	0.917056	0.376410	0.655749
	C3131	C	0.662656	0.307963	0.690109
	C3132	C	0.597368	0.319179	0.643542
	C3133	C	0.842928	0.250731	0.678048
	C3134	C	0.592185	0.304395	0.735136
	C3135	C	0.845578	0.372781	0.700728
	C3136	C	0.505630	0.371271	0.654115
	C3137	C	0.751435	0.302843	0.688512
	C3138	C	0.503452	0.253302	0.720952
	C3139	C	0.756814	0.321744	0.686497
	C3140	C	0.501384	0.300339	0.730459
	C3141	C	0.754655	0.368742	0.696095
	C3142	C	0.508005	0.324251	0.644547
	C3143	C	0.753563	0.255823	0.678956
	C3144	C	0.503756	0.361252	0.656738
	C3145	C	0.749853	0.292826	0.691273
	C3146	C	0.505351	0.263330	0.718315
	C3147	C	0.758634	0.331766	0.683768
	C3148	C	0.500714	0.291025	0.723205
	C3149	C	0.753944	0.359428	0.688841
	C3150	C	0.508734	0.333570	0.651779
	C3151	C	0.754448	0.265131	0.686210
	H3152	H	0.666182	0.371844	0.650029
	H3153	H	0.911916	0.303413	0.684568
	H3154	H	0.663242	0.251558	0.717385
	H3155	H	0.916647	0.319981	0.682843
	H3156	H	0.841049	0.302356	0.727915
	H3157	H	0.594474	0.370814	0.693452
	H3158	H	0.847295	0.324085	0.640492
	H3159	H	0.592927	0.255628	0.674786
	H3160	H	0.843096	0.252751	0.725017
	H3161	H	0.596273	0.321171	0.690482
	H3162	H	0.845859	0.373062	0.657761
	H3163	H	0.591530	0.304600	0.692216
	H3164	H	0.668126	0.322188	0.647090
	H3165	H	0.913851	0.253695	0.681672
	H3166	H	0.661849	0.300553	0.734586
	H3167	H	0.915151	0.368925	0.700180
	O3168	O	0.084449	0.351155	0.754033
	O3169	O	0.330522	0.282664	0.788027
	O3170	O	0.086470	0.261068	0.813007
	O3171	O	0.340640	0.329477	0.778764
	O3172	O	0.411171	0.281628	0.816245
	O3173	O	0.165888	0.350136	0.782173
	O3174	O	0.420069	0.331570	0.750989
	O3175	O	0.166420	0.262967	0.785317
	O3176	O	0.417285	0.261607	0.814787
	O3177	O	0.171064	0.329935	0.780309
	O3178	O	0.414930	0.351629	0.755705
	O3179	O	0.160940	0.283154	0.789636
	O3180	O	0.089444	0.331030	0.752228
	O3181	O	0.335989	0.262415	0.786727
	O3182	O	0.080619	0.281150	0.817391
	O3183	O	0.335389	0.349588	0.783491
	F3184	F	-0.001414	0.272787	0.789221
	F3185	F	0.252479	0.341259	0.755308
	F3186	F	0.003365	0.339900	0.779216
	F3187	F	0.248864	0.271439	0.813246
	Al3188	Al	0.123511	0.272096	0.801216
	Al3189	Al	0.377757	0.340562	0.767279
	Al3190	Al	0.127899	0.340565	0.767237
	Al3191	Al	0.373638	0.272092	0.801256
	C3192	C	0.093399	0.369784	0.748458
	C3193	C	0.339797	0.301303	0.782655
	C3194	C	0.087031	0.242288	0.818027
	C3195	C	0.342347	0.310634	0.781790
	C3196	C	0.407556	0.299344	0.828250
	C3197	C	0.162282	0.367879	0.794063
	C3198	C	0.413089	0.314281	0.736811
	C3199	C	0.159346	0.245703	0.771269
	C3200	C	0.407855	0.243160	0.822706
	C3201	C	0.162070	0.311316	0.785940
	C3202	C	0.413112	0.370434	0.752471
	C3203	C	0.159535	0.301972	0.786820
	C3204	C	0.093358	0.313284	0.740395
	C3205	C	0.339543	0.244602	0.775258
	C3206	C	0.087380	0.298323	0.831991
	C3207	C	0.342704	0.366864	0.797630
	C3208	C	0.001809	0.365328	0.751018
	C3209	C	0.248221	0.296855	0.785140
	C3210	C	-0.001059	0.247507	0.819373
	C3211	C	0.253641	0.315761	0.783360
	C3212	C	-0.003453	0.294312	0.827179
	C3213	C	0.251705	0.362802	0.793058
	C3214	C	0.003829	0.318337	0.741427
	C3215	C	0.250233	0.249706	0.776069
	C3216	C	0.000183	0.355294	0.753631
	C3217	C	0.246307	0.286824	0.787716
	C3218	C	0.001254	0.257462	0.815484
	C3219	C	0.255396	0.325790	0.780686
	C3220	C	-0.003875	0.285029	0.819768
	C3221	C	0.250868	0.353494	0.785779
	C3222	C	0.004465	0.327660	0.748701
	C3223	C	0.251023	0.259042	0.783187
	H3224	H	0.162382	0.365904	0.747100
	H3225	H	0.408802	0.297432	0.781303
	H3226	H	0.157915	0.245538	0.815115
	H3227	H	0.413456	0.313982	0.779783
	H3228	H	0.336659	0.296374	0.824582
	H3229	H	0.091321	0.364890	0.790510
	H3230	H	0.343423	0.318118	0.737370
	H3231	H	0.089775	0.249550	0.771789
	H3232	H	0.339363	0.247127	0.823758
	H3233	H	0.093146	0.315197	0.787327
	H3234	H	0.342039	0.367069	0.754475
	H3235	H	0.088513	0.298601	0.788883
	H3236	H	0.164104	0.316317	0.743904
	H3237	H	0.410260	0.247552	0.779064
	H3238	H	0.157032	0.294476	0.831457
	H3239	H	0.412502	0.363041	0.797015
	O3240	O	0.584553	0.351152	0.754158
	O3241	O	0.829809	0.282723	0.787948
	O3242	O	0.586699	0.261055	0.812848
	O3243	O	0.840477	0.329480	0.778957
	O3244	O	0.911020	0.281668	0.816192
	O3245	O	0.665242	0.350149	0.782231
	O3246	O	0.919918	0.331550	0.751020
	O3247	O	0.666047	0.263026	0.785113
	O3248	O	0.917056	0.261646	0.814795
	O3249	O	0.670837	0.329955	0.780555
	O3250	O	0.914831	0.351598	0.755510
	O3251	O	0.660198	0.283186	0.789657
	O3252	O	0.589575	0.330991	0.752372
	O3253	O	0.835620	0.262452	0.786486
	O3254	O	0.580696	0.281098	0.817426
	O3255	O	0.834815	0.349648	0.783390
	F3256	F	0.498113	0.272767	0.789264
	F3257	F	0.752580	0.341227	0.755411
	F3258	F	0.502852	0.339881	0.779253
	F3259	F	0.748738	0.271453	0.813040
	Al3260	Al	0.623482	0.272101	0.801125
	Al3261	Al	0.878114	0.340571	0.767293
	Al3262	Al	0.627673	0.340546	0.767340
	Al3263	Al	0.873814	0.272128	0.801141
	C3264	C	0.593591	0.369779	0.748464
	C3265	C	0.838972	0.301327	0.782409
	C3266	C	0.587653	0.242264	0.817915
	C3267	C	0.841818	0.310654	0.781582
	C3268	C	0.907128	0.299404	0.828127
	C3269	C	0.661510	0.367903	0.794001
	C3270	C	0.913004	0.314255	0.736852
	C3271	C	0.658770	0.245725	0.771201
	C3272	C	0.907318	0.243181	0.822816
	C3273	C	0.661644	0.311334	0.785993
	C3274	C	0.912906	0.370444	0.752531
	C3275	C	0.658779	0.301996	0.786839
	C3276	C	0.593406	0.313277	0.740488
	C3277	C	0.838937	0.244617	0.775209
	C3278	C	0.587747	0.298261	0.832058
	C3279	C	0.841896	0.366895	0.797563
	C3280	C	0.501951	0.365325	0.750960
	C3281	C	0.747392	0.296884	0.785023
	C3282	C	0.499457	0.247478	0.819207
	C3283	C	0.753184	0.315775	0.783351
	C3284	C	0.496850	0.294249	0.827276
	C3285	C	0.750984	0.362828	0.792992
	C3286	C	0.503913	0.318338	0.741460
	C3287	C	0.749670	0.249739	0.775958
	C3288	C	0.500242	0.355302	0.753746
	C3289	C	0.745480	0.286862	0.787651
	C3290	C	0.501457	0.257438	0.815396
	C3291	C	0.755105	0.325805	0.780850
	C3292	C	0.496138	0.284975	0.819851
	C3293	C	0.750198	0.353528	0.785738
	C3294	C	0.504557	0.327647	0.748743
	C3295	C	0.750534	0.259089	0.782979
	H3296	H	0.662649	0.365901	0.747209
	H3297	H	0.907882	0.297459	0.780960
	H3298	H	0.658610	0.245525	0.815037
	H3299	H	0.912965	0.314011	0.779528
	H3300	H	0.836360	0.296435	0.824397
	H3301	H	0.590579	0.364915	0.790457
	H3302	H	0.843358	0.318088	0.737455
	H3303	H	0.589207	0.249578	0.771679
	H3304	H	0.838744	0.247146	0.823815
	H3305	H	0.592829	0.315223	0.787480
	H3306	H	0.841793	0.367081	0.754483
	H3307	H	0.587888	0.298627	0.789002
	H3308	H	0.664157	0.316287	0.744058
	H3309	H	0.909712	0.247562	0.779006
	H3310	H	0.657398	0.294409	0.831507
	H3311	H	0.911740	0.363088	0.796958
	O3312	O	0.080279	0.345209	0.850553
	O3313	O	0.324751	0.276993	0.891153
	O3314	O	0.080751	0.257335	0.922845
	O3315	O	0.336530	0.323553	0.875222
	O3316	O	0.405890	0.277123	0.919842
	O3317	O	0.161923	0.344159	0.878650
	O3318	O	0.416451	0.325500	0.847597
	O3319	O	0.161467	0.257629	0.891609
	O3320	O	0.411803	0.258033	0.924320
	O3321	O	0.167255	0.324127	0.877227
	O3322	O	0.410706	0.345636	0.851930
	O3323	O	0.155189	0.277621	0.892971
	O3324	O	0.085643	0.324950	0.849021
	O3325	O	0.330847	0.256958	0.893484
	O3326	O	0.075199	0.276466	0.921435
	O3327	O	0.331345	0.343636	0.879810
	F3328	F	-0.006662	0.267049	0.894761
	F3329	F	0.248081	0.335266	0.851659
	F3330	F	-0.000995	0.333934	0.875688
	F3331	F	0.243407	0.266998	0.918438
	Al3332	Al	0.118292	0.267024	0.906530
	Al3333	Al	0.373505	0.334596	0.863544
	Al3334	Al	0.123638	0.334613	0.863695
	Al3335	Al	0.368102	0.267044	0.906622
	C3336	C	0.089082	0.363828	0.845242
	C3337	C	0.334463	0.295463	0.882766
	C3338	C	0.086628	0.242007	0.947294
	C3339	C	0.337518	0.304767	0.880437
	C3340	C	0.403302	0.294734	0.931802
	C3341	C	0.157964	0.361834	0.890798
	C3342	C	0.409123	0.308199	0.833745
	C3343	C	0.154597	0.240864	0.875825
	C3344	C	0.407381	0.243644	0.950940
	C3345	C	0.157722	0.305654	0.885198
	C3346	C	0.408933	0.364458	0.849234
	C3347	C	0.154625	0.296337	0.887539
	C3348	C	0.088762	0.307170	0.837533
	C3349	C	0.334182	0.239491	0.880778
	C3350	C	0.082338	0.293336	0.936732
	C3351	C	0.338060	0.360791	0.894655
	C3352	C	-0.002550	0.359375	0.847684
	C3353	C	0.242903	0.291132	0.886311
	C3354	C	-0.003157	0.246621	0.942640
	C3355	C	0.249220	0.309977	0.881612
	C3356	C	-0.008384	0.289590	0.931071
	C3357	C	0.247461	0.356764	0.889751
	C3358	C	-0.000494	0.312274	0.838356
	C3359	C	0.245083	0.244584	0.881665
	C3360	C	-0.003983	0.349345	0.850232
	C3361	C	0.240721	0.281190	0.890379
	C3362	C	-0.003645	0.254531	0.928869
	C3363	C	0.251314	0.319944	0.877778
	C3364	C	-0.009332	0.280399	0.923481
	C3365	C	0.246854	0.347514	0.882263
	C3366	C	0.000635	0.321608	0.845485
	C3367	C	0.245930	0.253714	0.889491
	H3368	H	0.158047	0.359951	0.843926
	H3369	H	0.402985	0.291506	0.881768
	H3370	H	0.155971	0.244154	0.940714
	H3371	H	0.408458	0.308017	0.877601
	H3372	H	0.333055	0.291943	0.927281
	H3373	H	0.087310	0.358836	0.887124
	H3374	H	0.339576	0.312049	0.834290
	H3375	H	0.085638	0.244797	0.876281
	H3376	H	0.337831	0.247196	0.947522
	H3377	H	0.089169	0.309622	0.886242
	H3378	H	0.337895	0.361094	0.851230
	H3379	H	0.083674	0.293077	0.890463
	H3380	H	0.159507	0.310129	0.841312
	H3381	H	0.404127	0.242304	0.885384
	H3382	H	0.151431	0.289419	0.936201
	H3383	H	0.407607	0.356940	0.894122
	O3384	O	0.580372	0.345176	0.850473
	O3385	O	0.824091	0.276971	0.890947
	O3386	O	0.580857	0.257302	0.922780
	O3387	O	0.836487	0.323509	0.875339
	O3388	O	0.905681	0.277127	0.919708
	O3389	O	0.661066	0.344127	0.878708
	O3390	O	0.916104	0.325567	0.847571
	O3391	O	0.661243	0.257634	0.891620
	O3392	O	0.911627	0.258034	0.924357
	O3393	O	0.667170	0.324144	0.877421
	O3394	O	0.910611	0.345649	0.852161
	O3395	O	0.654653	0.277650	0.893060
	O3396	O	0.586042	0.324914	0.849032
	O3397	O	0.830623	0.256968	0.893337
	O3398	O	0.575334	0.276433	0.921538
	O3399	O	0.830543	0.343598	0.879987
	F3400	F	0.492901	0.267068	0.894877
	F3401	F	0.748370	0.335253	0.851855
	F3402	F	0.498683	0.333922	0.875580
	F3403	F	0.743522	0.266967	0.918351
	Al3404	Al	0.618180	0.267019	0.906560
	Al3405	Al	0.873851	0.334597	0.863754
	Al3406	Al	0.623548	0.334584	0.863702
	Al3407	Al	0.868282	0.267052	0.906467
	C3408	C	0.589239	0.363808	0.845079
	C3409	C	0.834075	0.295454	0.882713
	C3410	C	0.586934	0.242001	0.947273
	C3411	C	0.837087	0.304759	0.880433
	C3412	C	0.902645	0.294746	0.931728
	C3413	C	0.657259	0.361822	0.890735
	C3414	C	0.908575	0.308255	0.833636
	C3415	C	0.654009	0.240859	0.875879
	C3416	C	0.907156	0.243657	0.950958
	C3417	C	0.657278	0.305662	0.885249
	C3418	C	0.908733	0.364490	0.849359
	C3419	C	0.654308	0.296346	0.887563
	C3420	C	0.589280	0.307109	0.837581
	C3421	C	0.833772	0.239522	0.880561
	C3422	C	0.582791	0.293330	0.936841
	C3423	C	0.837396	0.360746	0.894658
	C3424	C	0.497646	0.359344	0.847553
	C3425	C	0.742556	0.291139	0.886315
	C3426	C	0.497006	0.246576	0.942542
	C3427	C	0.748832	0.309976	0.881699
	C3428	C	0.492290	0.289593	0.931086
	C3429	C	0.746650	0.356740	0.889788
	C3430	C	0.500036	0.312217	0.838450
	C3431	C	0.744657	0.244600	0.881566
	C3432	C	0.496009	0.349321	0.850110
	C3433	C	0.740200	0.281193	0.890349
	C3434	C	0.496602	0.254539	0.928898
	C3435	C	0.751090	0.319937	0.877924
	C3436	C	0.491016	0.280382	0.923611
	C3437	C	0.745967	0.347481	0.882342
	C3438	C	0.500958	0.321552	0.845519
	C3439	C	0.745641	0.253722	0.889442
	H3440	H	0.658168	0.359930	0.843706
	H3441	H	0.902681	0.291495	0.881637
	H3442	H	0.656340	0.244206	0.940804
	H3443	H	0.908116	0.308006	0.877571
	H3444	H	0.832556	0.291967	0.927081
	H3445	H	0.586616	0.358832	0.886989
	H3446	H	0.839066	0.312110	0.834190
	H3447	H	0.585045	0.244771	0.876471
	H3448	H	0.837512	0.247167	0.947436
	H3449	H	0.588851	0.309635	0.886331
	H3450	H	0.837634	0.361135	0.851392
	H3451	H	0.583496	0.293089	0.890491
	H3452	H	0.660016	0.310074	0.841316
	H3453	H	0.903947	0.242334	0.885070
	H3454	H	0.651645	0.289388	0.936450
	H3455	H	0.906873	0.356887	0.894130
	O3456	O	0.080456	0.470220	-0.024447
	O3457	O	0.324562	0.401973	0.016086
	O3458	O	0.080773	0.382368	0.047875
	O3459	O	0.336194	0.448572	0.000346
	O3460	O	0.405647	0.402127	0.044684
	O3461	O	0.161390	0.469163	0.003597
	O3462	O	0.416232	0.450503	-0.027363
	O3463	O	0.161097	0.382606	0.016683
	O3464	O	0.411940	0.383046	0.049254
	O3465	O	0.166728	0.449095	0.002093
	O3466	O	0.410565	0.470664	-0.022978
	O3467	O	0.155072	0.402616	0.017884
	O3468	O	0.085371	0.449965	-0.026019
	O3469	O	0.330547	0.381963	0.018379
	O3470	O	0.075169	0.401465	0.046436
	O3471	O	0.330936	0.468593	0.004871
	F3472	F	-0.006670	0.392053	0.019747
	F3473	F	0.248023	0.460244	-0.023297
	F3474	F	-0.001043	0.458948	0.000660
	F3475	F	0.243273	0.391986	0.043391
	Al3476	Al	0.118135	0.392030	0.031496
	Al3477	Al	0.373480	0.459594	-0.011350
	Al3478	Al	0.123574	0.459608	-0.011330
	Al3479	Al	0.368055	0.392047	0.031524
	C3480	C	0.089277	0.488851	-0.029783
	C3481	C	0.334197	0.420440	0.007611
	C3482	C	0.086411	0.367086	0.072384
	C3483	C	0.337078	0.429770	0.005284
	C3484	C	0.402722	0.419683	0.056975
	C3485	C	0.157758	0.486849	0.015776
	C3486	C	0.409372	0.433212	-0.041281
	C3487	C	0.153896	0.365831	0.000971
	C3488	C	0.407698	0.368595	0.075727
	C3489	C	0.157459	0.430648	0.010096
	C3490	C	0.409361	0.489511	-0.025652
	C3491	C	0.154560	0.421355	0.012431
	C3492	C	0.088938	0.432155	-0.037485
	C3493	C	0.333865	0.364495	0.005707
	C3494	C	0.082400	0.418338	0.061702
	C3495	C	0.337964	0.485789	0.019568
	C3496	C	-0.002332	0.484390	-0.027401
	C3497	C	0.242801	0.416124	0.011264
	C3498	C	-0.003354	0.371617	0.067515
	C3499	C	0.248980	0.434983	0.006605
	C3500	C	-0.008363	0.414588	0.056049
	C3501	C	0.247180	0.481769	0.014762
	C3502	C	-0.000394	0.437261	-0.036660
	C3503	C	0.244627	0.369583	0.006603
	C3504	C	-0.004076	0.474350	-0.024860
	C3505	C	0.240601	0.406184	0.015366
	C3506	C	-0.003584	0.379566	0.053849
	C3507	C	0.250954	0.444941	0.002746
	C3508	C	-0.009224	0.405401	0.048476
	C3509	C	0.246444	0.472492	0.007279
	C3510	C	0.000232	0.446605	-0.029555
	C3511	C	0.245572	0.378712	0.014461
	H3512	H	0.158237	0.484973	-0.031102
	H3513	H	0.402654	0.416452	0.006562
	H3514	H	0.155791	0.369332	0.066058
	H3515	H	0.407828	0.433040	0.002348
	H3516	H	0.332572	0.416862	0.052523
	H3517	H	0.086795	0.483892	0.012088
	H3518	H	0.339792	0.437064	-0.040770
	H3519	H	0.084829	0.369740	0.001608
	H3520	H	0.338214	0.372096	0.072181
	H3521	H	0.088729	0.434581	0.011094
	H3522	H	0.338270	0.486164	-0.023567
	H3523	H	0.083553	0.418123	0.015325
	H3524	H	0.159597	0.435139	-0.033738
	H3525	H	0.403850	0.367313	0.010306
	H3526	H	0.151443	0.414420	0.061139
	H3527	H	0.407766	0.481969	0.019003
	O3528	O	0.580165	0.470190	-0.024552
	O3529	O	0.823909	0.401989	0.015909
	O3530	O	0.581073	0.382360	0.047864
	O3531	O	0.835974	0.448562	0.000506
	O3532	O	0.905665	0.402181	0.044538
	O3533	O	0.660930	0.469174	0.003651
	O3534	O	0.915781	0.450547	-0.027425
	O3535	O	0.660973	0.382644	0.016614
	O3536	O	0.911799	0.383083	0.049277
	O3537	O	0.666459	0.449110	0.002214
	O3538	O	0.910748	0.470632	-0.023037
	O3539	O	0.654515	0.402635	0.017909
	O3540	O	0.585831	0.449975	-0.025986
	O3541	O	0.830384	0.381951	0.018441
	O3542	O	0.575197	0.401459	0.046473
	O3543	O	0.830626	0.468642	0.004894
	F3544	F	0.493003	0.392047	0.019825
	F3545	F	0.748303	0.460272	-0.023181
	F3546	F	0.498610	0.458949	0.000607
	F3547	F	0.743428	0.392033	0.043313
	Al3548	Al	0.618206	0.392048	0.031480
	Al3549	Al	0.873891	0.459603	-0.011293
	Al3550	Al	0.623366	0.459612	-0.011317
	Al3551	Al	0.868159	0.392075	0.031452
	C3552	C	0.589425	0.488819	-0.029909
	C3553	C	0.833613	0.420463	0.007670
	C3554	C	0.587121	0.367084	0.072386
	C3555	C	0.836703	0.429794	0.005401
	C3556	C	0.902690	0.419737	0.056720
	C3557	C	0.657188	0.486866	0.015792
	C3558	C	0.908689	0.433221	-0.041383
	C3559	C	0.654012	0.365885	0.000769
	C3560	C	0.907033	0.368583	0.075671
	C3561	C	0.657083	0.430672	0.010359
	C3562	C	0.908850	0.489506	-0.025775
	C3563	C	0.654066	0.421380	0.012649
	C3564	C	0.589602	0.432155	-0.037377
	C3565	C	0.833563	0.364496	0.005764
	C3566	C	0.582621	0.418348	0.061638
	C3567	C	0.837325	0.485817	0.019543
	C3568	C	0.497805	0.484380	-0.027415
	C3569	C	0.742180	0.416151	0.011337
	C3570	C	0.497240	0.371589	0.067478
	C3571	C	0.748577	0.435001	0.006793
	C3572	C	0.491795	0.414577	0.056090
	C3573	C	0.746557	0.481786	0.014770
	C3574	C	0.500217	0.437252	-0.036564
	C3575	C	0.744513	0.369611	0.006574
	C3576	C	0.495908	0.474344	-0.024854
	C3577	C	0.739977	0.406205	0.015337
	C3578	C	0.496717	0.379550	0.053834
	C3579	C	0.750637	0.444952	0.002912
	C3580	C	0.490672	0.405375	0.048578
	C3581	C	0.745949	0.472509	0.007321
	C3582	C	0.500883	0.446595	-0.029520
	C3583	C	0.745404	0.378738	0.014409
	H3584	H	0.658289	0.484925	-0.031250
	H3585	H	0.901960	0.416472	0.006545
	H3586	H	0.656498	0.369342	0.066076
	H3587	H	0.907407	0.433071	0.002415
	H3588	H	0.832486	0.416969	0.052083
	H3589	H	0.586250	0.483907	0.012134
	H3590	H	0.839110	0.437075	-0.040864
	H3591	H	0.584970	0.369800	0.001247
	H3592	H	0.837459	0.372062	0.072060
	H3593	H	0.588419	0.434610	0.011454
	H3594	H	0.837790	0.486132	-0.023805
	H3595	H	0.583090	0.418154	0.015622
	H3596	H	0.660260	0.435136	-0.033601
	H3597	H	0.903617	0.367278	0.010418
	H3598	H	0.651614	0.414435	0.061036
	H3599	H	0.907158	0.482005	0.018970
	O3600	O	0.074606	0.464509	0.078711
	O3601	O	0.332708	0.408110	0.175138
	O3602	O	0.088786	0.391253	0.213530
	O3603	O	0.330845	0.444813	0.110261
	O3604	O	0.413830	0.410571	0.206033
	O3605	O	0.155671	0.464607	0.107270
	O3606	O	0.411157	0.445137	0.079137
	O3607	O	0.169074	0.390064	0.181712
	O3608	O	0.419170	0.392058	0.214807
	O3609	O	0.161730	0.445530	0.111786
	O3610	O	0.404834	0.465101	0.080400
	O3611	O	0.163424	0.408852	0.176509
	O3612	O	0.080740	0.444492	0.080873
	O3613	O	0.338468	0.389414	0.183607
	O3614	O	0.082979	0.409894	0.208005
	O3615	O	0.325122	0.463940	0.108966
	F3616	F	0.000933	0.399253	0.183426
	F3617	F	0.242934	0.454572	0.082338
	F3618	F	-0.006827	0.454475	0.105848
	F3619	F	0.251222	0.400705	0.206244
	Al3620	Al	0.126014	0.399981	0.194854
	Al3621	Al	0.368041	0.454533	0.093962
	Al3622	Al	0.118079	0.454541	0.094017
	Al3623	Al	0.376005	0.399988	0.194819
	C3624	C	0.084237	0.482963	0.070321
	C3625	C	0.336874	0.422111	0.147461
	C3626	C	0.094232	0.377245	0.241198
	C3627	C	0.336606	0.429432	0.134568
	C3628	C	0.410505	0.427752	0.219947
	C3629	C	0.152787	0.482203	0.119344
	C3630	C	0.404208	0.428351	0.063419
	C3631	C	0.162246	0.373668	0.165107
	C3632	C	0.414869	0.379083	0.244568
	C3633	C	0.157363	0.431166	0.138451
	C3634	C	0.404447	0.483843	0.075126
	C3635	C	0.157586	0.423840	0.151336
	C3636	C	0.083995	0.427007	0.068193
	C3637	C	0.341690	0.372253	0.169580
	C3638	C	0.090156	0.426280	0.224614
	C3639	C	0.332368	0.480779	0.124358
	C3640	C	-0.007321	0.478643	0.073844
	C3641	C	0.247446	0.419238	0.156011
	C3642	C	0.004483	0.381639	0.235609
	C3643	C	0.246943	0.434074	0.129997
	C3644	C	-0.000555	0.422760	0.218474
	C3645	C	0.241712	0.477043	0.118620
	C3646	C	-0.005060	0.432117	0.069055
	C3647	C	0.252765	0.377249	0.171133
	C3648	C	-0.009471	0.468689	0.077862
	C3649	C	0.247887	0.411520	0.170271
	C3650	C	0.004341	0.388829	0.220164
	C3651	C	0.246545	0.442024	0.116327
	C3652	C	-0.001449	0.413765	0.210159
	C3653	C	0.240715	0.467869	0.111046
	C3654	C	-0.004165	0.441255	0.076885
	C3655	C	0.253692	0.386224	0.179475
	H3656	H	0.152771	0.479000	0.069289
	H3657	H	0.406433	0.418568	0.150894
	H3658	H	0.163692	0.379093	0.234269
	H3659	H	0.406039	0.431570	0.127958
	H3660	H	0.340825	0.425049	0.215046
	H3661	H	0.082559	0.479436	0.114731
	H3662	H	0.335253	0.432260	0.063959
	H3663	H	0.093421	0.377511	0.166221
	H3664	H	0.345212	0.382470	0.240479
	H3665	H	0.087875	0.434745	0.135061
	H3666	H	0.333626	0.480582	0.078077
	H3667	H	0.088449	0.421719	0.158001
	H3668	H	0.154084	0.429807	0.072774
	H3669	H	0.411546	0.374939	0.174393
	H3670	H	0.158901	0.422390	0.223577
	H3671	H	0.401428	0.476852	0.123876
	O3672	O	0.574406	0.464478	0.078562
	O3673	O	0.832499	0.408090	0.175140
	O3674	O	0.588400	0.391270	0.213542
	O3675	O	0.830760	0.444792	0.110189
	O3676	O	0.913653	0.410601	0.205942
	O3677	O	0.655635	0.464641	0.107132
	O3678	O	0.911364	0.445186	0.078958
	O3679	O	0.669028	0.390074	0.181736
	O3680	O	0.919676	0.392108	0.214867
	O3681	O	0.661687	0.445561	0.111800
	O3682	O	0.904837	0.465111	0.080378
	O3683	O	0.663214	0.408875	0.176552
	O3684	O	0.580591	0.444481	0.080862
	O3685	O	0.838386	0.389388	0.183664
	O3686	O	0.583255	0.409882	0.208006
	O3687	O	0.824912	0.463916	0.109049
	F3688	F	0.500889	0.399254	0.183445
	F3689	F	0.742909	0.454561	0.082295
	F3690	F	0.493294	0.454499	0.105849
	F3691	F	0.751204	0.400696	0.206258
	Al3692	Al	0.626032	0.399970	0.194852
	Al3693	Al	0.868378	0.454527	0.094031
	Al3694	Al	0.618214	0.454567	0.093987
	Al3695	Al	0.876090	0.399988	0.194771
	C3696	C	0.584187	0.482959	0.070351
	C3697	C	0.836846	0.422130	0.147496
	C3698	C	0.594300	0.377217	0.241125
	C3699	C	0.836619	0.429455	0.134615
	C3700	C	0.910401	0.427774	0.219974
	C3701	C	0.652486	0.482192	0.119364
	C3702	C	0.904320	0.428405	0.063175
	C3703	C	0.662054	0.373696	0.165037
	C3704	C	0.914730	0.379113	0.244528
	C3705	C	0.657385	0.431218	0.138530
	C3706	C	0.904479	0.483868	0.075145
	C3707	C	0.657618	0.423888	0.151416
	C3708	C	0.583978	0.427021	0.068111
	C3709	C	0.841680	0.372260	0.169519
	C3710	C	0.590064	0.426297	0.224650
	C3711	C	0.832148	0.480816	0.124361
	C3712	C	0.492621	0.478621	0.073850
	C3713	C	0.747381	0.419268	0.156076
	C3714	C	0.504421	0.381600	0.235553
	C3715	C	0.746869	0.434099	0.130026
	C3716	C	0.499567	0.422758	0.218469
	C3717	C	0.741603	0.477061	0.118594
	C3718	C	0.494791	0.432086	0.069140
	C3719	C	0.752668	0.377254	0.171087
	C3720	C	0.490359	0.468675	0.077892
	C3721	C	0.747750	0.411525	0.170296
	C3722	C	0.503960	0.388821	0.220189
	C3723	C	0.746439	0.442039	0.116321
	C3724	C	0.498683	0.413745	0.210216
	C3725	C	0.740641	0.467876	0.111031
	C3726	C	0.495624	0.441232	0.076932
	C3727	C	0.753545	0.386218	0.179491
	H3728	H	0.652732	0.478990	0.069365
	H3729	H	0.906436	0.418564	0.150898
	H3730	H	0.663661	0.379065	0.234165
	H3731	H	0.906037	0.431585	0.128002
	H3732	H	0.840517	0.425087	0.215115
	H3733	H	0.582261	0.479398	0.114816
	H3734	H	0.835436	0.432358	0.063571
	H3735	H	0.593288	0.377562	0.166158
	H3736	H	0.845162	0.382497	0.240358
	H3737	H	0.587948	0.434804	0.135165
	H3738	H	0.833537	0.480616	0.078087
	H3739	H	0.588360	0.421773	0.158072
	H3740	H	0.654199	0.429830	0.072576
	H3741	H	0.911502	0.374968	0.174328
	H3742	H	0.658788	0.422409	0.223606
	H3743	H	0.901190	0.476892	0.123913
	O3744	O	0.082478	0.470582	0.237675
	O3745	O	0.340157	0.419997	0.347647
	O3746	O	0.095684	0.403232	0.385921
	O3747	O	0.338619	0.453785	0.276167
	O3748	O	0.421180	0.422621	0.378886
	O3749	O	0.163406	0.473075	0.268530
	O3750	O	0.418889	0.452552	0.244214
	O3751	O	0.176332	0.402160	0.354485
	O3752	O	0.426650	0.403918	0.387227
	O3753	O	0.169396	0.454555	0.277365
	O3754	O	0.413679	0.471307	0.239004
	O3755	O	0.170962	0.420790	0.348882
	O3756	O	0.088946	0.451869	0.246121
	O3757	O	0.345659	0.401465	0.356450
	O3758	O	0.090429	0.421968	0.380867
	O3759	O	0.332862	0.472376	0.270500
	F3760	F	0.008262	0.411379	0.356151
	F3761	F	0.250896	0.461750	0.246004
	F3762	F	0.001046	0.463177	0.268792
	F3763	F	0.258465	0.412804	0.378992
	Al3764	Al	0.133381	0.412092	0.367612
	Al3765	Al	0.376071	0.462462	0.257373
	Al3766	Al	0.126041	0.462467	0.257344
	Al3767	Al	0.383441	0.412063	0.367649
	C3768	C	0.086635	0.484730	0.210323
	C3769	C	0.344669	0.433006	0.318013
	C3770	C	0.101365	0.388291	0.411221
	C3771	C	0.344471	0.439757	0.303772
	C3772	C	0.417774	0.439793	0.392878
	C3773	C	0.160347	0.490273	0.282314
	C3774	C	0.412082	0.436186	0.227457
	C3775	C	0.169124	0.385711	0.338030
	C3776	C	0.422386	0.389912	0.414819
	C3777	C	0.164930	0.441490	0.306935
	C3778	C	0.407759	0.486245	0.213659
	C3779	C	0.165142	0.434758	0.321146
	C3780	C	0.091825	0.434716	0.232134
	C3781	C	0.348923	0.384283	0.342540
	C3782	C	0.097360	0.438361	0.397535
	C3783	C	0.340112	0.488757	0.287236
	C3784	C	-0.002902	0.481738	0.218612
	C3785	C	0.254990	0.430434	0.326848
	C3786	C	0.011668	0.392843	0.406417
	C3787	C	0.254602	0.444076	0.298090
	C3788	C	0.006682	0.434809	0.391432
	C3789	C	0.249445	0.485233	0.281029
	C3790	C	0.002806	0.439740	0.233589
	C3791	C	0.259841	0.389287	0.344029
	C3792	C	-0.002248	0.473974	0.232779
	C3793	C	0.255408	0.423246	0.342276
	C3794	C	0.011182	0.400560	0.392154
	C3795	C	0.254142	0.451297	0.282721
	C3796	C	0.005935	0.425843	0.383045
	C3797	C	0.248311	0.476241	0.272711
	C3798	C	0.004118	0.448713	0.241938
	C3799	C	0.260798	0.398283	0.352314
	H3800	H	0.156290	0.481256	0.213931
	H3801	H	0.414176	0.429661	0.322272
	H3802	H	0.170537	0.390450	0.404682
	H3803	H	0.413837	0.441668	0.296900
	H3804	H	0.348102	0.437088	0.387978
	H3805	H	0.090544	0.487607	0.277262
	H3806	H	0.343406	0.440073	0.228435
	H3807	H	0.100287	0.389575	0.339155
	H3808	H	0.352963	0.393440	0.411280
	H3809	H	0.095324	0.444823	0.302720
	H3810	H	0.338386	0.484045	0.220096
	H3811	H	0.095756	0.432866	0.327975
	H3812	H	0.161749	0.437399	0.236984
	H3813	H	0.418727	0.386989	0.347395
	H3814	H	0.166220	0.434487	0.396455
	H3815	H	0.408850	0.484846	0.286265
	O3816	O	0.583004	0.470613	0.237707
	O3817	O	0.839770	0.419995	0.347568
	O3818	O	0.596004	0.403210	0.385948
	O3819	O	0.838276	0.453750	0.276055
	O3820	O	0.921141	0.422674	0.378810
	O3821	O	0.663891	0.473073	0.268544
	O3822	O	0.919697	0.452578	0.244183
	O3823	O	0.676439	0.402147	0.354546
	O3824	O	0.926416	0.403993	0.387320
	O3825	O	0.669081	0.454545	0.277279
	O3826	O	0.913252	0.471296	0.238989
	O3827	O	0.670572	0.420769	0.348824
	O3828	O	0.588362	0.451923	0.246089
	O3829	O	0.845808	0.401482	0.356430
	O3830	O	0.590555	0.421971	0.380823
	O3831	O	0.833191	0.472356	0.270591
	F3832	F	0.508210	0.411352	0.356191
	F3833	F	0.751064	0.461744	0.245979
	F3834	F	0.501266	0.463204	0.268773
	F3835	F	0.758621	0.412832	0.378954
	Al3836	Al	0.633445	0.412089	0.367611
	Al3837	Al	0.876148	0.462454	0.257418
	Al3838	Al	0.626072	0.462487	0.257346
	Al3839	Al	0.883481	0.412095	0.367526
	C3840	C	0.587197	0.484710	0.210292
	C3841	C	0.844246	0.433068	0.318084
	C3842	C	0.601545	0.388224	0.411136
	C3843	C	0.844020	0.439820	0.303843
	C3844	C	0.917712	0.439829	0.392896
	C3845	C	0.660763	0.490271	0.282317
	C3846	C	0.912103	0.436207	0.227492
	C3847	C	0.669124	0.385729	0.338012
	C3848	C	0.922293	0.389918	0.414848
	C3849	C	0.664489	0.441520	0.306940
	C3850	C	0.907236	0.486280	0.213753
	C3851	C	0.664779	0.434786	0.321159
	C3852	C	0.591561	0.434735	0.232159
	C3853	C	0.848945	0.384313	0.342458
	C3854	C	0.597338	0.438341	0.397601
	C3855	C	0.840318	0.488766	0.287274
	C3856	C	0.497646	0.481727	0.218590
	C3857	C	0.754579	0.430476	0.326896
	C3858	C	0.511856	0.392806	0.406379
	C3859	C	0.754089	0.444113	0.298097
	C3860	C	0.506773	0.434774	0.391492
	C3861	C	0.749832	0.485233	0.280991
	C3862	C	0.502593	0.439749	0.233572
	C3863	C	0.759813	0.389310	0.344010
	C3864	C	0.498124	0.473998	0.232803
	C3865	C	0.754949	0.423238	0.342217
	C3866	C	0.511503	0.400538	0.392172
	C3867	C	0.753787	0.451311	0.282679
	C3868	C	0.505930	0.425805	0.383089
	C3869	C	0.748727	0.476235	0.272762
	C3870	C	0.503564	0.448721	0.241942
	C3871	C	0.760970	0.398301	0.352289
	H3872	H	0.656858	0.481245	0.213926
	H3873	H	0.913781	0.429738	0.322357
	H3874	H	0.670721	0.390366	0.404550
	H3875	H	0.913341	0.441753	0.297017
	H3876	H	0.847850	0.437150	0.387985
	H3877	H	0.590957	0.487587	0.277355
	H3878	H	0.843403	0.440103	0.228530
	H3879	H	0.600261	0.389583	0.339131
	H3880	H	0.852748	0.393425	0.411310
	H3881	H	0.594900	0.444844	0.302717
	H3882	H	0.837883	0.484086	0.220205
	H3883	H	0.595323	0.432882	0.327948
	H3884	H	0.661437	0.437429	0.236999
	H3885	H	0.918901	0.387017	0.347258
	H3886	H	0.666164	0.434457	0.396594
	H3887	H	0.909117	0.484858	0.286423
	O3888	O	0.089608	0.482496	0.410126
	O3889	O	0.347504	0.429029	0.513249
	O3890	O	0.104090	0.409415	0.544377
	O3891	O	0.345850	0.465702	0.448396
	O3892	O	0.428810	0.430049	0.544192
	O3893	O	0.171053	0.485156	0.441294
	O3894	O	0.426179	0.464681	0.416916
	O3895	O	0.184150	0.410620	0.516082
	O3896	O	0.434820	0.410076	0.546462
	O3897	O	0.176652	0.466452	0.449748
	O3898	O	0.420802	0.483280	0.411343
	O3899	O	0.178436	0.429738	0.514678
	O3900	O	0.096272	0.463973	0.418916
	O3901	O	0.353613	0.409916	0.517865
	O3902	O	0.098219	0.429425	0.545923
	O3903	O	0.340316	0.484464	0.443294
	F3904	F	0.015979	0.420092	0.519089
	F3905	F	0.258111	0.473885	0.418654
	F3906	F	0.008508	0.475310	0.441488
	F3907	F	0.266256	0.419993	0.542707
	Al3908	Al	0.141312	0.420051	0.530989
	Al3909	Al	0.383294	0.474580	0.430063
	Al3910	Al	0.133392	0.474575	0.430100
	Al3911	Al	0.391185	0.420006	0.530994
	C3912	C	0.094249	0.495546	0.380456
	C3913	C	0.351848	0.443464	0.486679
	C3914	C	0.104549	0.390713	0.549926
	C3915	C	0.351571	0.450785	0.473785
	C3916	C	0.425404	0.447509	0.556944
	C3917	C	0.167926	0.502368	0.455207
	C3918	C	0.419145	0.448243	0.400373
	C3919	C	0.176803	0.393725	0.500773
	C3920	C	0.425003	0.391592	0.554710
	C3921	C	0.172348	0.452340	0.477216
	C3922	C	0.415126	0.497303	0.383680
	C3923	C	0.172642	0.445012	0.490112
	C3924	C	0.098990	0.446797	0.405055
	C3925	C	0.356566	0.392359	0.505634
	C3926	C	0.104941	0.446186	0.561666
	C3927	C	0.347445	0.500820	0.460194
	C3928	C	0.004643	0.492969	0.389339
	C3929	C	0.262432	0.440475	0.494957
	C3930	C	0.016299	0.395922	0.551159
	C3931	C	0.261811	0.455313	0.468900
	C3932	C	0.014315	0.442454	0.555893
	C3933	C	0.256897	0.497308	0.453848
	C3934	C	0.010003	0.451816	0.406505
	C3935	C	0.267478	0.397483	0.506414
	C3936	C	0.004875	0.485763	0.404745
	C3937	C	0.262771	0.432529	0.508652
	C3938	C	0.018462	0.405859	0.547039
	C3939	C	0.261388	0.463033	0.454632
	C3940	C	0.013581	0.433316	0.548078
	C3941	C	0.255816	0.488328	0.445531
	C3942	C	0.011356	0.460785	0.414825
	C3943	C	0.268487	0.406671	0.514026
	H3944	H	0.163982	0.492204	0.384651
	H3945	H	0.421405	0.439968	0.490245
	H3946	H	0.175416	0.393963	0.546940
	H3947	H	0.420815	0.452975	0.467323
	H3948	H	0.355290	0.444683	0.552433
	H3949	H	0.097939	0.499733	0.450191
	H3950	H	0.350507	0.452138	0.401363
	H3951	H	0.107698	0.397635	0.501356
	H3952	H	0.356583	0.395567	0.555767
	H3953	H	0.102870	0.455816	0.473566
	H3954	H	0.345693	0.495407	0.390539
	H3955	H	0.103360	0.442787	0.496527
	H3956	H	0.168860	0.449494	0.409905
	H3957	H	0.426760	0.395146	0.510194
	H3958	H	0.174001	0.442264	0.561183
	H3959	H	0.416288	0.496921	0.459299
	O3960	O	0.590093	0.482479	0.410087
	O3961	O	0.847405	0.429032	0.513229
	O3962	O	0.604292	0.409423	0.544468
	O3963	O	0.845655	0.465696	0.448465
	O3964	O	0.928737	0.430061	0.544089
	O3965	O	0.670729	0.485151	0.441341
	O3966	O	0.926930	0.464650	0.417016
	O3967	O	0.683913	0.410582	0.516023
	O3968	O	0.934616	0.410080	0.546442
	O3969	O	0.676369	0.466446	0.449805
	O3970	O	0.920391	0.483291	0.411351
	O3971	O	0.678318	0.429702	0.514612
	O3972	O	0.595548	0.463959	0.418967
	O3973	O	0.853554	0.409910	0.517705
	O3974	O	0.598261	0.429395	0.545896
	O3975	O	0.840140	0.484451	0.443370
	F3976	F	0.515873	0.420056	0.519099
	F3977	F	0.758190	0.473829	0.418726
	F3978	F	0.508395	0.475302	0.441476
	F3979	F	0.766480	0.419999	0.542607
	Al3980	Al	0.641196	0.420025	0.530966
	Al3981	Al	0.883453	0.474581	0.430122
	Al3982	Al	0.633299	0.474560	0.430113
	Al3983	Al	0.891570	0.420008	0.530871
	C3984	C	0.594560	0.495507	0.380404
	C3985	C	0.851751	0.443468	0.486727
	C3986	C	0.604727	0.390716	0.549851
	C3987	C	0.851500	0.450796	0.473857
	C3988	C	0.925068	0.447559	0.556781
	C3989	C	0.667467	0.502335	0.455259
	C3990	C	0.919276	0.448269	0.400438
	C3991	C	0.676451	0.393718	0.500782
	C3992	C	0.924785	0.391597	0.554797
	C3993	C	0.672248	0.452368	0.477292
	C3994	C	0.914816	0.497332	0.383678
	C3995	C	0.672524	0.445035	0.490172
	C3996	C	0.598775	0.446787	0.405106
	C3997	C	0.856408	0.392333	0.505656
	C3998	C	0.605292	0.446189	0.561590
	C3999	C	0.847148	0.500810	0.460217
	C4000	C	0.504974	0.492957	0.389333
	C4001	C	0.762266	0.440483	0.494978
	C4002	C	0.516503	0.395916	0.551125
	C4003	C	0.761685	0.455320	0.468969
	C4004	C	0.514618	0.442426	0.555967
	C4005	C	0.756572	0.497304	0.453913
	C4006	C	0.509593	0.451787	0.406567
	C4007	C	0.767269	0.397443	0.506470
	C4008	C	0.505287	0.485731	0.404714
	C4009	C	0.762651	0.432530	0.508656
	C4010	C	0.518793	0.405868	0.547107
	C4011	C	0.761150	0.463024	0.454686
	C4012	C	0.513831	0.433307	0.548064
	C4013	C	0.755569	0.488321	0.445563
	C4014	C	0.510630	0.460792	0.414803
	C4015	C	0.768407	0.406656	0.513935
	H4016	H	0.664075	0.492124	0.384544
	H4017	H	0.921247	0.439969	0.490277
	H4018	H	0.675627	0.393967	0.546901
	H4019	H	0.920742	0.452988	0.467381
	H4020	H	0.854985	0.444740	0.552223
	H4021	H	0.597593	0.499666	0.450318
	H4022	H	0.850571	0.452157	0.401476
	H4023	H	0.607525	0.397657	0.501288
	H4024	H	0.856280	0.395560	0.555838
	H4025	H	0.602763	0.455849	0.473634
	H4026	H	0.845388	0.495463	0.390565
	H4027	H	0.603280	0.442812	0.496576
	H4028	H	0.668503	0.449500	0.409987
	H4029	H	0.926666	0.395135	0.510149
	H4030	H	0.674453	0.442292	0.560995
	H4031	H	0.915990	0.496894	0.459373
	O4032	O	0.097381	0.491529	0.575739
	O4033	O	0.342199	0.425462	0.622978
	O4034	O	0.098619	0.403920	0.647940
	O4035	O	0.354435	0.471929	0.606905
	O4036	O	0.423332	0.424593	0.651084
	O4037	O	0.178566	0.492574	0.606584
	O4038	O	0.433991	0.473123	0.578325
	O4039	O	0.178298	0.405974	0.620058
	O4040	O	0.429271	0.404369	0.649602
	O4041	O	0.184949	0.472554	0.608794
	O4042	O	0.428351	0.492238	0.577115
	O4043	O	0.172739	0.425996	0.624506
	O4044	O	0.103610	0.472398	0.580335
	O4045	O	0.347801	0.405376	0.621496
	O4046	O	0.093050	0.424082	0.652289
	O4047	O	0.347989	0.491923	0.608272
	F4048	F	0.010569	0.415625	0.624335
	F4049	F	0.265747	0.482563	0.581556
	F4050	F	0.016578	0.482479	0.605231
	F4051	F	0.260861	0.414291	0.648285
	Al4052	Al	0.135705	0.414976	0.636322
	Al4053	Al	0.391051	0.482520	0.593379
	Al4054	Al	0.141248	0.482500	0.593428
	Al4055	Al	0.385642	0.414955	0.636386
	C4056	C	0.101828	0.505951	0.549067
	C4057	C	0.351569	0.443878	0.614660
	C4058	C	0.100144	0.385092	0.650761
	C4059	C	0.354679	0.453207	0.612310
	C4060	C	0.420132	0.442433	0.662384
	C4061	C	0.175206	0.510060	0.619235
	C4062	C	0.426698	0.456184	0.563377
	C4063	C	0.171308	0.388786	0.605469
	C4064	C	0.420161	0.385758	0.655058
	C4065	C	0.174988	0.454098	0.617140
	C4066	C	0.422515	0.507545	0.552656
	C4067	C	0.171927	0.444809	0.619440
	C4068	C	0.106376	0.454857	0.568099
	C4069	C	0.351433	0.387728	0.609329
	C4070	C	0.100010	0.441356	0.666312
	C4071	C	0.354998	0.508687	0.624105
	C4072	C	0.012340	0.502984	0.557441
	C4073	C	0.260048	0.439577	0.618287
	C4074	C	0.011585	0.390208	0.652498
	C4075	C	0.266553	0.458419	0.613575
	C4076	C	0.009182	0.437332	0.661539
	C4077	C	0.264390	0.504953	0.618341
	C4078	C	0.017290	0.459971	0.568915
	C4079	C	0.262035	0.392791	0.610342
	C4080	C	0.012675	0.495020	0.571116
	C4081	C	0.258012	0.429623	0.622189
	C4082	C	0.013355	0.400239	0.649939
	C4083	C	0.268948	0.468359	0.609499
	C4084	C	0.008487	0.427991	0.654461
	C4085	C	0.263548	0.495825	0.610498
	C4086	C	0.018413	0.469177	0.576431
	C4087	C	0.262761	0.402060	0.617778
	H4088	H	0.171467	0.502427	0.552521
	H4089	H	0.419812	0.439873	0.613588
	H4090	H	0.171270	0.388440	0.648725
	H4091	H	0.425313	0.456505	0.609347
	H4092	H	0.349502	0.439455	0.658609
	H4093	H	0.105130	0.507250	0.614634
	H4094	H	0.357568	0.460071	0.564012
	H4095	H	0.101832	0.392652	0.606028
	H4096	H	0.351382	0.389650	0.656489
	H4097	H	0.106250	0.458021	0.618168
	H4098	H	0.353249	0.505351	0.559131
	H4099	H	0.100677	0.441618	0.622273
	H4100	H	0.176641	0.457665	0.572577
	H4101	H	0.422103	0.390716	0.613024
	H4102	H	0.169640	0.437507	0.665823
	H4103	H	0.424015	0.504756	0.623601
	O4104	O	0.597458	0.491527	0.575658
	O4105	O	0.841602	0.425465	0.622796
	O4106	O	0.598898	0.403895	0.647970
	O4107	O	0.853658	0.471923	0.607091
	O4108	O	0.923419	0.424617	0.650929
	O4109	O	0.678393	0.492586	0.606546
	O4110	O	0.934176	0.473122	0.578487
	O4111	O	0.678071	0.405977	0.620072
	O4112	O	0.929120	0.404399	0.649718
	O4113	O	0.684087	0.472558	0.608765
	O4114	O	0.928377	0.492234	0.577147
	O4115	O	0.672249	0.425979	0.624611
	O4116	O	0.603517	0.472437	0.580165
	O4117	O	0.847552	0.405350	0.621454
	O4118	O	0.592869	0.424036	0.652425
	O4119	O	0.847809	0.491926	0.608397
	F4120	F	0.510299	0.415598	0.624439
	F4121	F	0.766095	0.482591	0.581569
	F4122	F	0.516188	0.482480	0.605083
	F4123	F	0.761109	0.414310	0.648205
	Al4124	Al	0.635717	0.414950	0.636375
	Al4125	Al	0.891309	0.482529	0.593489
	Al4126	Al	0.641104	0.482516	0.593342
	Al4127	Al	0.885952	0.414962	0.636286
	C4128	C	0.601792	0.505895	0.549008
	C4129	C	0.850964	0.443897	0.614765
	C4130	C	0.600360	0.385072	0.650693
	C4131	C	0.854148	0.453226	0.612462
	C4132	C	0.919805	0.442442	0.662355
	C4133	C	0.674900	0.510051	0.619194
	C4134	C	0.926512	0.456225	0.563241
	C4135	C	0.670768	0.388822	0.605339
	C4136	C	0.919888	0.385751	0.654960
	C4137	C	0.674281	0.454095	0.617298
	C4138	C	0.922549	0.507580	0.552730
	C4139	C	0.671198	0.444804	0.619576
	C4140	C	0.606559	0.454867	0.568006
	C4141	C	0.850938	0.387715	0.609268
	C4142	C	0.600321	0.441346	0.666318
	C4143	C	0.854648	0.508656	0.624235
	C4144	C	0.512246	0.502957	0.557409
	C4145	C	0.759314	0.439583	0.618330
	C4146	C	0.511861	0.390195	0.652500
	C4147	C	0.765758	0.458421	0.613672
	C4148	C	0.509404	0.437309	0.661563
	C4149	C	0.763987	0.504922	0.618475
	C4150	C	0.517432	0.459972	0.568859
	C4151	C	0.761592	0.392802	0.610216
	C4152	C	0.512687	0.495023	0.571076
	C4153	C	0.757335	0.429619	0.622148
	C4154	C	0.513600	0.400222	0.649933
	C4155	C	0.768070	0.468362	0.609606
	C4156	C	0.508356	0.427974	0.654541
	C4157	C	0.763296	0.495817	0.610568
	C4158	C	0.518439	0.469171	0.576383
	C4159	C	0.762438	0.402053	0.617729
	H4160	H	0.671300	0.502347	0.552432
	H4161	H	0.919170	0.439895	0.613714
	H4162	H	0.671453	0.388421	0.648588
	H4163	H	0.924718	0.456527	0.609540
	H4164	H	0.849172	0.439473	0.658553
	H4165	H	0.604936	0.507267	0.614473
	H4166	H	0.857515	0.460151	0.563763
	H4167	H	0.601352	0.392699	0.605869
	H4168	H	0.851000	0.389631	0.656339
	H4169	H	0.605508	0.458019	0.618403
	H4170	H	0.853309	0.505392	0.559231
	H4171	H	0.599886	0.441603	0.622431
	H4172	H	0.676765	0.457683	0.572466
	H4173	H	0.921626	0.390694	0.613018
	H4174	H	0.669873	0.437488	0.665811
	H4175	H	0.923681	0.504729	0.623713
	O4176	O	0.091688	0.487892	0.685115
	O4177	O	0.338030	0.419583	0.719507
	O4178	O	0.094442	0.397942	0.744375
	O4179	O	0.348741	0.466372	0.710375
	O4180	O	0.419200	0.418574	0.747694
	O4181	O	0.173093	0.487124	0.713422
	O4182	O	0.428537	0.468465	0.682547
	O4183	O	0.174124	0.399944	0.716665
	O4184	O	0.424950	0.398426	0.745973
	O4185	O	0.179218	0.466861	0.712047
	O4186	O	0.422615	0.488510	0.687248
	O4187	O	0.168511	0.420085	0.721243
	O4188	O	0.097880	0.467876	0.683899
	O4189	O	0.343724	0.399466	0.717747
	O4190	O	0.088830	0.418029	0.748992
	O4191	O	0.342498	0.486534	0.714902
	F4192	F	0.006527	0.409709	0.720828
	F4193	F	0.260484	0.478116	0.686874
	F4194	F	0.011277	0.476800	0.710766
	F4195	F	0.256813	0.408311	0.744700
	Al4196	Al	0.131649	0.409012	0.732747
	Al4197	Al	0.385628	0.477455	0.698822
	Al4198	Al	0.135813	0.477449	0.698777
	Al4199	Al	0.381690	0.409007	0.732737
	C4200	C	0.101571	0.506386	0.677258
	C4201	C	0.347337	0.438220	0.714049
	C4202	C	0.096151	0.379128	0.747580
	C4203	C	0.350163	0.447553	0.713217
	C4204	C	0.415512	0.436323	0.759507
	C4205	C	0.169470	0.504897	0.725032
	C4206	C	0.421429	0.451286	0.667919
	C4207	C	0.166827	0.382695	0.702535
	C4208	C	0.415729	0.379780	0.751546
	C4209	C	0.169914	0.448235	0.717378
	C4210	C	0.421747	0.507264	0.681939
	C4211	C	0.167073	0.438895	0.718205
	C4212	C	0.101161	0.450208	0.671831
	C4213	C	0.347194	0.381668	0.706052
	C4214	C	0.095697	0.435299	0.763171
	C4215	C	0.349706	0.503857	0.728673
	C4216	C	0.010041	0.502054	0.680802
	C4217	C	0.255726	0.433773	0.716601
	C4218	C	0.007397	0.384236	0.749148
	C4219	C	0.261580	0.452676	0.714935
	C4220	C	0.004855	0.431235	0.758570
	C4221	C	0.258838	0.499805	0.724037
	C4222	C	0.011796	0.455297	0.672767
	C4223	C	0.257829	0.386748	0.707088
	C4224	C	0.007866	0.492092	0.684641
	C4225	C	0.253840	0.423747	0.719243
	C4226	C	0.009281	0.394264	0.746428
	C4227	C	0.263450	0.462703	0.712363
	C4228	C	0.004258	0.421908	0.751321
	C4229	C	0.258088	0.490481	0.716975
	C4230	C	0.012772	0.464582	0.680165
	C4231	C	0.258754	0.396065	0.714303
	H4232	H	0.170178	0.502428	0.676236
	H4233	H	0.416201	0.434335	0.712656
	H4234	H	0.167258	0.382484	0.745582
	H4235	H	0.421287	0.450897	0.711168
	H4236	H	0.344701	0.433314	0.755927
	H4237	H	0.098667	0.501913	0.721366
	H4238	H	0.351917	0.455144	0.668472
	H4239	H	0.097193	0.386537	0.703184
	H4240	H	0.346768	0.383658	0.752837
	H4241	H	0.101074	0.452121	0.718717
	H4242	H	0.350709	0.504012	0.684728
	H4243	H	0.095938	0.435539	0.720183
	H4244	H	0.171769	0.453194	0.675569
	H4245	H	0.417968	0.384687	0.709585
	H4246	H	0.165357	0.431458	0.762601
	H4247	H	0.419327	0.500017	0.728041
	O4248	O	0.591811	0.487884	0.685100
	O4249	O	0.837839	0.419584	0.719574
	O4250	O	0.594409	0.397935	0.744331
	O4251	O	0.848796	0.466349	0.710367
	O4252	O	0.919217	0.418537	0.747794
	O4253	O	0.672700	0.487131	0.713420
	O4254	O	0.928358	0.468515	0.682440
	O4255	O	0.673918	0.399943	0.716592
	O4256	O	0.924958	0.398413	0.746079
	O4257	O	0.679279	0.466855	0.712062
	O4258	O	0.922390	0.488506	0.687203
	O4259	O	0.668311	0.420069	0.721261
	O4260	O	0.598087	0.467863	0.683903
	O4261	O	0.843480	0.399410	0.717808
	O4262	O	0.588781	0.418020	0.748969
	O4263	O	0.842174	0.486517	0.714950
	F4264	F	0.506378	0.409710	0.720807
	F4265	F	0.760618	0.478117	0.686892
	F4266	F	0.510871	0.476786	0.710732
	F4267	F	0.756859	0.408291	0.744667
	Al4268	Al	0.631559	0.408989	0.732771
	Al4269	Al	0.885928	0.477462	0.698878
	Al4270	Al	0.635668	0.477449	0.698796
	Al4271	Al	0.881888	0.408996	0.732758
	C4272	C	0.601533	0.506374	0.677247
	C4273	C	0.847071	0.438191	0.714001
	C4274	C	0.596195	0.379123	0.747534
	C4275	C	0.849908	0.447524	0.713142
	C4276	C	0.915377	0.436322	0.759524
	C4277	C	0.669437	0.504931	0.724946
	C4278	C	0.920971	0.451291	0.667906
	C4279	C	0.666649	0.382695	0.702451
	C4280	C	0.915709	0.379784	0.751660
	C4281	C	0.669732	0.448214	0.717378
	C4282	C	0.921768	0.507280	0.681952
	C4283	C	0.666865	0.438876	0.718240
	C4284	C	0.601626	0.450209	0.671827
	C4285	C	0.846922	0.381647	0.706125
	C4286	C	0.595865	0.435283	0.763177
	C4287	C	0.849681	0.503836	0.728726
	C4288	C	0.510053	0.502046	0.680821
	C4289	C	0.755377	0.433750	0.716545
	C4290	C	0.507311	0.384233	0.749002
	C4291	C	0.761439	0.452656	0.714841
	C4292	C	0.504952	0.431238	0.758532
	C4293	C	0.758720	0.499823	0.724020
	C4294	C	0.512297	0.455286	0.672742
	C4295	C	0.757592	0.386739	0.707047
	C4296	C	0.507928	0.492092	0.684661
	C4297	C	0.753573	0.423732	0.719250
	C4298	C	0.509109	0.394260	0.746287
	C4299	C	0.763464	0.462685	0.712306
	C4300	C	0.504236	0.421923	0.751277
	C4301	C	0.757732	0.490478	0.716981
	C4302	C	0.513008	0.464553	0.680212
	C4303	C	0.758461	0.396049	0.714271
	H4304	H	0.670198	0.502425	0.676183
	H4305	H	0.915911	0.434296	0.712653
	H4306	H	0.667317	0.382486	0.745563
	H4307	H	0.921136	0.450861	0.711099
	H4308	H	0.844623	0.433311	0.755940
	H4309	H	0.598619	0.501955	0.721254
	H4310	H	0.851448	0.455151	0.668411
	H4311	H	0.597035	0.386537	0.703042
	H4312	H	0.846778	0.383673	0.752966
	H4313	H	0.600927	0.452112	0.718773
	H4314	H	0.850691	0.504029	0.684773
	H4315	H	0.595739	0.435536	0.720315
	H4316	H	0.672332	0.453173	0.675563
	H4317	H	0.917700	0.384646	0.709737
	H4318	H	0.665502	0.431442	0.762597
	H4319	H	0.919132	0.499963	0.728181
	O4320	O	0.088005	0.482092	0.782147
	O4321	O	0.334704	0.413631	0.816611
	O4322	O	0.090492	0.391979	0.841375
	O4323	O	0.344157	0.460416	0.806832
	O4324	O	0.415833	0.412631	0.844695
	O4325	O	0.169626	0.481048	0.810244
	O4326	O	0.423962	0.462446	0.779083
	O4327	O	0.170709	0.393996	0.813645
	O4328	O	0.421034	0.392449	0.843026
	O4329	O	0.174587	0.460864	0.808284
	O4330	O	0.418363	0.482549	0.783641
	O4331	O	0.165122	0.414097	0.818198
	O4332	O	0.093284	0.461980	0.780158
	O4333	O	0.340231	0.393471	0.814874
	O4334	O	0.085177	0.412114	0.845895
	O4335	O	0.339036	0.480516	0.811503
	F4336	F	0.002863	0.403731	0.817763
	F4337	F	0.256344	0.472179	0.783362
	F4338	F	0.007006	0.470796	0.807235
	F4339	F	0.253069	0.402366	0.841767
	Al4340	Al	0.128042	0.403044	0.829810
	Al4341	Al	0.381535	0.471480	0.795284
	Al4342	Al	0.131684	0.471501	0.795262
	Al4343	Al	0.377817	0.403045	0.829850
	C4344	C	0.097288	0.500721	0.776687
	C4345	C	0.343755	0.432257	0.811079
	C4346	C	0.091771	0.373173	0.844412
	C4347	C	0.346291	0.441591	0.810088
	C4348	C	0.412222	0.430369	0.856479
	C4349	C	0.165955	0.498787	0.822196
	C4350	C	0.416857	0.445191	0.764929
	C4351	C	0.163663	0.376741	0.799472
	C4352	C	0.411722	0.373805	0.848437
	C4353	C	0.165876	0.442234	0.813969
	C4354	C	0.416944	0.501389	0.780616
	C4355	C	0.163296	0.432893	0.814958
	C4356	C	0.097068	0.444178	0.768522
	C4357	C	0.344055	0.375730	0.803040
	C4358	C	0.091740	0.429384	0.860063
	C4359	C	0.346285	0.497803	0.825612
	C4360	C	0.005617	0.496274	0.779168
	C4361	C	0.252161	0.427792	0.813519
	C4362	C	0.003020	0.378288	0.845952
	C4363	C	0.257424	0.446701	0.811528
	C4364	C	0.000915	0.425304	0.855492
	C4365	C	0.255355	0.493711	0.821097
	C4366	C	0.007694	0.449254	0.769498
	C4367	C	0.254607	0.380793	0.804075
	C4368	C	0.003744	0.486242	0.781783
	C4369	C	0.250398	0.417775	0.816234
	C4370	C	0.005260	0.388311	0.843321
	C4371	C	0.258946	0.456726	0.808741
	C4372	C	0.000576	0.415989	0.848255
	C4373	C	0.254546	0.484412	0.813838
	C4374	C	0.008381	0.458590	0.776718
	C4375	C	0.255264	0.390101	0.811317
	H4376	H	0.166223	0.496833	0.775320
	H4377	H	0.412802	0.428384	0.809890
	H4378	H	0.162861	0.376531	0.842470
	H4379	H	0.417385	0.444952	0.808127
	H4380	H	0.341424	0.427369	0.852885
	H4381	H	0.095061	0.495784	0.818713
	H4382	H	0.347235	0.449035	0.765511
	H4383	H	0.093955	0.380568	0.800069
	H4384	H	0.342851	0.377682	0.849800
	H4385	H	0.096801	0.446107	0.815138
	H4386	H	0.345729	0.498045	0.782573
	H4387	H	0.092199	0.429534	0.816894
	H4388	H	0.167891	0.447187	0.772063
	H4389	H	0.414970	0.378723	0.806567
	H4390	H	0.161512	0.425566	0.859466
	H4391	H	0.416037	0.493988	0.824916
	O4392	O	0.587922	0.482076	0.782092
	O4393	O	0.834162	0.413668	0.816444
	O4394	O	0.590560	0.391985	0.841409
	O4395	O	0.843987	0.460426	0.806873
	O4396	O	0.915549	0.412601	0.844713
	O4397	O	0.668761	0.481066	0.810218
	O4398	O	0.923735	0.462468	0.779058
	O4399	O	0.669889	0.394027	0.813571
	O4400	O	0.920928	0.392485	0.842964
	O4401	O	0.674418	0.460915	0.808554
	O4402	O	0.918379	0.482563	0.783610
	O4403	O	0.664641	0.414149	0.818260
	O4404	O	0.593536	0.461929	0.780298
	O4405	O	0.839475	0.393515	0.814677
	O4406	O	0.585385	0.412069	0.846052
	O4407	O	0.838389	0.480584	0.811368
	F4408	F	0.502725	0.403721	0.817882
	F4409	F	0.756220	0.472189	0.783363
	F4410	F	0.506611	0.470790	0.807225
	F4411	F	0.753201	0.402387	0.841600
	Al4412	Al	0.627910	0.403049	0.829815
	Al4413	Al	0.881798	0.471502	0.795277
	Al4414	Al	0.631408	0.471495	0.795272
	Al4415	Al	0.878157	0.403071	0.829653
	C4416	C	0.597237	0.500695	0.776537
	C4417	C	0.843077	0.432303	0.810885
	C4418	C	0.591931	0.373154	0.844291
	C4419	C	0.845635	0.441635	0.809927
	C4420	C	0.911400	0.430383	0.856482
	C4421	C	0.664808	0.498802	0.822110
	C4422	C	0.916763	0.445193	0.764885
	C4423	C	0.662773	0.376772	0.799403
	C4424	C	0.911425	0.373839	0.848517
	C4425	C	0.665341	0.442284	0.814058
	C4426	C	0.916918	0.501408	0.780782
	C4427	C	0.662760	0.432942	0.815013
	C4428	C	0.597177	0.444154	0.768580
	C4429	C	0.843140	0.375762	0.802953
	C4430	C	0.592517	0.429352	0.860136
	C4431	C	0.845209	0.497813	0.825546
	C4432	C	0.505539	0.496249	0.779052
	C4433	C	0.751559	0.427840	0.813416
	C4434	C	0.503327	0.378265	0.845931
	C4435	C	0.756888	0.446742	0.811533
	C4436	C	0.501613	0.425277	0.855569
	C4437	C	0.754280	0.493740	0.821011
	C4438	C	0.507808	0.449234	0.769547
	C4439	C	0.753667	0.380832	0.803956
	C4440	C	0.503637	0.486227	0.781725
	C4441	C	0.749884	0.417816	0.816154
	C4442	C	0.505292	0.388297	0.843321
	C4443	C	0.758662	0.456763	0.808867
	C4444	C	0.500845	0.415971	0.848337
	C4445	C	0.753703	0.484444	0.813748
	C4446	C	0.508560	0.458554	0.776759
	C4447	C	0.754433	0.390139	0.811193
	H4448	H	0.666082	0.496802	0.775166
	H4449	H	0.912168	0.428442	0.809603
	H4450	H	0.663046	0.376509	0.842289
	H4451	H	0.916719	0.444997	0.807883
	H4452	H	0.840536	0.427372	0.852937
	H4453	H	0.593941	0.495791	0.818611
	H4454	H	0.847206	0.449043	0.765457
	H4455	H	0.593063	0.380599	0.800002
	H4456	H	0.842504	0.377716	0.849911
	H4457	H	0.596392	0.446167	0.815360
	H4458	H	0.845684	0.498059	0.782742
	H4459	H	0.591802	0.429580	0.817080
	H4460	H	0.667981	0.447153	0.772160
	H4461	H	0.913926	0.378770	0.806488
	H4462	H	0.662264	0.425524	0.859550
	H4463	H	0.914959	0.494004	0.824869
	O4464	O	0.084679	0.476180	0.879141
	O4465	O	0.330118	0.407694	0.912972
	O4466	O	0.086298	0.386081	0.937963
	O4467	O	0.340616	0.454502	0.903765
	O4468	O	0.411654	0.406689	0.941137
	O4469	O	0.165910	0.475103	0.907265
	O4470	O	0.420311	0.456525	0.875977
	O4471	O	0.166026	0.387978	0.910340
	O4472	O	0.416704	0.386614	0.939716
	O4473	O	0.171014	0.454954	0.905286
	O4474	O	0.415186	0.476622	0.880519
	O4475	O	0.160632	0.408199	0.914774
	O4476	O	0.089251	0.456029	0.877239
	O4477	O	0.335571	0.387463	0.911552
	O4478	O	0.080583	0.406069	0.942607
	O4479	O	0.335552	0.474686	0.908142
	F4480	F	-0.001037	0.397787	0.914185
	F4481	F	0.252309	0.466249	0.880193
	F4482	F	0.003427	0.464861	0.904301
	F4483	F	0.248772	0.396478	0.938204
	Al4484	Al	0.123584	0.397116	0.926231
	Al4485	Al	0.377777	0.465577	0.892123
	Al4486	Al	0.127839	0.465570	0.892234
	Al4487	Al	0.373644	0.397115	0.926204
	C4488	C	0.093566	0.494808	0.873497
	C4489	C	0.339628	0.426338	0.907633
	C4490	C	0.087345	0.367279	0.942941
	C4491	C	0.342402	0.435671	0.906762
	C4492	C	0.408051	0.424358	0.953219
	C4493	C	0.161944	0.492890	0.919063
	C4494	C	0.413553	0.439246	0.861866
	C4495	C	0.159123	0.370694	0.896343
	C4496	C	0.407737	0.368165	0.947740
	C4497	C	0.162135	0.436353	0.910916
	C4498	C	0.413484	0.495436	0.877492
	C4499	C	0.159344	0.427014	0.911794
	C4500	C	0.092974	0.438261	0.865446
	C4501	C	0.339265	0.369644	0.900239
	C4502	C	0.087667	0.423298	0.957036
	C4503	C	0.342367	0.491919	0.922395
	C4504	C	0.001979	0.490344	0.875999
	C4505	C	0.247944	0.421890	0.910145
	C4506	C	-0.000953	0.372489	0.944126
	C4507	C	0.253763	0.440793	0.908372
	C4508	C	-0.003047	0.419283	0.952221
	C4509	C	0.251420	0.487835	0.917895
	C4510	C	0.003554	0.443331	0.866467
	C4511	C	0.249879	0.374734	0.901026
	C4512	C	0.000412	0.480319	0.878781
	C4513	C	0.245960	0.411864	0.912761
	C4514	C	0.000926	0.382452	0.940334
	C4515	C	0.255371	0.450816	0.905685
	C4516	C	-0.003942	0.409999	0.944806
	C4517	C	0.250811	0.478523	0.910646
	C4518	C	0.004391	0.452648	0.873712
	C4519	C	0.250575	0.384069	0.908117
	H4520	H	0.162669	0.490940	0.872263
	H4521	H	0.408622	0.422463	0.906297
	H4522	H	0.158345	0.370537	0.940121
	H4523	H	0.413611	0.439008	0.904735
	H4524	H	0.337366	0.421370	0.949527
	H4525	H	0.090959	0.489883	0.915617
	H4526	H	0.343956	0.443090	0.862421
	H4527	H	0.089593	0.374544	0.896937
	H4528	H	0.339084	0.372107	0.948823
	H4529	H	0.093313	0.440249	0.912268
	H4530	H	0.342337	0.492073	0.879451
	H4531	H	0.088262	0.423656	0.913836
	H4532	H	0.163760	0.441278	0.868981
	H4533	H	0.409654	0.372639	0.904067
	H4534	H	0.157263	0.419452	0.956524
	H4535	H	0.412155	0.488105	0.921698
	O4536	O	0.584775	0.476152	0.879081
	O4537	O	0.829799	0.407700	0.912770
	O4538	O	0.586233	0.386116	0.938099
	O4539	O	0.840201	0.454458	0.904013
	O4540	O	0.911159	0.406683	0.941039
	O4541	O	0.665115	0.475094	0.907291
	O4542	O	0.919669	0.456538	0.876094
	O4543	O	0.665576	0.387933	0.910368
	O4544	O	0.916763	0.386608	0.939523
	O4545	O	0.670597	0.454935	0.905443
	O4546	O	0.915078	0.476624	0.880786
	O4547	O	0.660225	0.408156	0.914465
	O4548	O	0.589889	0.456003	0.877246
	O4549	O	0.835219	0.387430	0.911402
	O4550	O	0.581129	0.406127	0.942393
	O4551	O	0.834822	0.474610	0.908471
	F4552	F	0.498121	0.397758	0.914281
	F4553	F	0.752714	0.466223	0.880485
	F4554	F	0.502885	0.464885	0.904112
	F4555	F	0.748940	0.396471	0.938042
	Al4556	Al	0.623391	0.397102	0.926206
	Al4557	Al	0.878054	0.465550	0.892420
	Al4558	Al	0.627772	0.465545	0.892283
	Al4559	Al	0.873839	0.397131	0.926041
	C4560	C	0.593957	0.494802	0.873640
	C4561	C	0.838921	0.426314	0.907548
	C4562	C	0.587372	0.367307	0.942911
	C4563	C	0.841643	0.435646	0.906775
	C4564	C	0.907513	0.424369	0.953166
	C4565	C	0.661395	0.492892	0.919017
	C4566	C	0.912668	0.439260	0.861874
	C4567	C	0.658500	0.370683	0.896239
	C4568	C	0.907496	0.368154	0.947656
	C4569	C	0.661354	0.436309	0.910959
	C4570	C	0.913155	0.495465	0.877446
	C4571	C	0.658602	0.426972	0.911746
	C4572	C	0.593826	0.438230	0.865517
	C4573	C	0.838665	0.369605	0.900166
	C4574	C	0.588262	0.423304	0.957081
	C4575	C	0.841817	0.491868	0.922537
	C4576	C	0.502307	0.490319	0.875985
	C4577	C	0.747309	0.421866	0.910058
	C4578	C	0.499111	0.372507	0.944185
	C4579	C	0.752976	0.440761	0.908469
	C4580	C	0.497499	0.419293	0.952222
	C4581	C	0.750792	0.487813	0.918011
	C4582	C	0.504371	0.443307	0.866471
	C4583	C	0.749292	0.374692	0.901023
	C4584	C	0.500502	0.480303	0.878658
	C4585	C	0.745493	0.411841	0.912566
	C4586	C	0.501016	0.382467	0.940400
	C4587	C	0.754842	0.450782	0.905844
	C4588	C	0.496681	0.410018	0.944808
	C4589	C	0.750078	0.478484	0.910796
	C4590	C	0.504920	0.452631	0.873671
	C4591	C	0.750132	0.384026	0.908097
	H4592	H	0.663058	0.490930	0.872465
	H4593	H	0.907921	0.422457	0.906116
	H4594	H	0.658246	0.370567	0.940047
	H4595	H	0.912806	0.438990	0.904757
	H4596	H	0.836779	0.421381	0.949479
	H4597	H	0.590526	0.489894	0.915493
	H4598	H	0.842957	0.443095	0.862452
	H4599	H	0.589107	0.374558	0.896736
	H4600	H	0.838867	0.372107	0.948711
	H4601	H	0.592510	0.440203	0.912324
	H4602	H	0.841954	0.492110	0.879429
	H4603	H	0.587617	0.423590	0.913752
	H4604	H	0.664561	0.441245	0.869082
	H4605	H	0.909192	0.372604	0.903927
	H4606	H	0.657836	0.419451	0.956569
	H4607	H	0.911502	0.488026	0.921932
	O4608	O	0.084352	0.601152	0.004054
	O4609	O	0.330131	0.532682	0.037926
	O4610	O	0.086602	0.511073	0.062915
	O4611	O	0.340716	0.579487	0.028774
	O4612	O	0.411207	0.531678	0.066133
	O4613	O	0.165453	0.600129	0.032170
	O4614	O	0.420387	0.581483	0.001147
	O4615	O	0.166367	0.513012	0.035132
	O4616	O	0.417137	0.511644	0.064864
	O4617	O	0.171210	0.579970	0.030389
	O4618	O	0.414739	0.601616	0.005697
	O4619	O	0.160562	0.533170	0.039616
	O4620	O	0.089793	0.581006	0.002274
	O4621	O	0.335935	0.512397	0.036701
	O4622	O	0.080793	0.531112	0.067409
	O4623	O	0.335150	0.599609	0.033390
	F4624	F	-0.001584	0.522766	0.039257
	F4625	F	0.252606	0.591251	0.005276
	F4626	F	0.003338	0.589848	0.029243
	F4627	F	0.248557	0.521458	0.063155
	Al4628	Al	0.123647	0.522110	0.051189
	Al4629	Al	0.377839	0.590548	0.017278
	Al4630	Al	0.127921	0.590558	0.017243
	Al4631	Al	0.373456	0.522097	0.051240
	C4632	C	0.093188	0.619799	-0.001422
	C4633	C	0.339520	0.551332	0.032660
	C4634	C	0.087410	0.492286	0.068039
	C4635	C	0.342385	0.560668	0.031816
	C4636	C	0.407673	0.549366	0.078165
	C4637	C	0.161830	0.617892	0.044007
	C4638	C	0.413420	0.564243	-0.012985
	C4639	C	0.159157	0.495681	0.021320
	C4640	C	0.407516	0.493161	0.072817
	C4641	C	0.162098	0.561332	0.035893
	C4642	C	0.413115	0.620414	0.002508
	C4643	C	0.159227	0.551993	0.036746
	C4644	C	0.093275	0.563263	-0.009564
	C4645	C	0.339259	0.494618	0.025152
	C4646	C	0.087675	0.548303	0.081998
	C4647	C	0.342139	0.616898	0.047484
	C4648	C	0.001625	0.615328	0.001023
	C4649	C	0.247839	0.546870	0.035073
	C4650	C	-0.000831	0.497503	0.069214
	C4651	C	0.253711	0.565790	0.033412
	C4652	C	-0.003105	0.544273	0.077238
	C4653	C	0.251216	0.612819	0.042953
	C4654	C	0.003954	0.568360	-0.008604
	C4655	C	0.250049	0.499725	0.025991
	C4656	C	0.000018	0.605299	0.003733
	C4657	C	0.245887	0.536841	0.037634
	C4658	C	0.001351	0.507468	0.065437
	C4659	C	0.255439	0.575816	0.030746
	C4660	C	-0.003651	0.535001	0.069787
	C4661	C	0.250467	0.603498	0.035722
	C4662	C	0.004639	0.577669	-0.001340
	C4663	C	0.250880	0.509060	0.033064
	H4664	H	0.162255	0.615930	-0.002658
	H4665	H	0.408530	0.547458	0.031341
	H4666	H	0.158403	0.495538	0.065218
	H4667	H	0.413605	0.564011	0.029851
	H4668	H	0.336964	0.546391	0.074432
	H4669	H	0.090822	0.614902	0.040489
	H4670	H	0.343794	0.568070	-0.012323
	H4671	H	0.089333	0.499491	0.021882
	H4672	H	0.338984	0.497125	0.073876
	H4673	H	0.093208	0.565219	0.037196
	H4674	H	0.341998	0.617049	0.004455
	H4675	H	0.088132	0.548640	0.038743
	H4676	H	0.164137	0.566259	-0.005976
	H4677	H	0.410204	0.497552	0.028900
	H4678	H	0.157315	0.544465	0.081406
	H4679	H	0.411993	0.613092	0.046839
	O4680	O	0.584114	0.601107	0.003908
	O4681	O	0.829748	0.532711	0.038025
	O4682	O	0.586572	0.511038	0.062883
	O4683	O	0.840663	0.579454	0.028819
	O4684	O	0.911222	0.531657	0.066185
	O4685	O	0.665210	0.600134	0.032127
	O4686	O	0.920215	0.581569	0.000975
	O4687	O	0.665975	0.513074	0.035069
	O4688	O	0.917263	0.511662	0.064859
	O4689	O	0.671110	0.579967	0.030448
	O4690	O	0.914783	0.601609	0.005733
	O4691	O	0.660207	0.533186	0.039663
	O4692	O	0.590054	0.580982	0.002267
	O4693	O	0.835439	0.512397	0.036705
	O4694	O	0.580750	0.531079	0.067506
	O4695	O	0.834776	0.599583	0.033523
	F4696	F	0.498186	0.522763	0.039293
	F4697	F	0.752825	0.591257	0.005385
	F4698	F	0.503017	0.589860	0.029162
	F4699	F	0.748773	0.521449	0.063140
	Al4700	Al	0.623545	0.522104	0.051191
	Al4701	Al	0.878120	0.590548	0.017325
	Al4702	Al	0.627805	0.590553	0.017219
	Al4703	Al	0.873815	0.522117	0.051198
	C4704	C	0.593388	0.619753	-0.001553
	C4705	C	0.838964	0.551326	0.032586
	C4706	C	0.587220	0.492282	0.068059
	C4707	C	0.841918	0.560662	0.031728
	C4708	C	0.907505	0.549371	0.078213
	C4709	C	0.661547	0.617866	0.043994
	C4710	C	0.912939	0.564286	-0.013164
	C4711	C	0.658498	0.495709	0.021309
	C4712	C	0.907649	0.493186	0.072842
	C4713	C	0.661711	0.561341	0.035922
	C4714	C	0.912648	0.620440	0.002476
	C4715	C	0.658746	0.552004	0.036780
	C4716	C	0.593794	0.563241	-0.009565
	C4717	C	0.838549	0.494648	0.025096
	C4718	C	0.587844	0.548269	0.082133
	C4719	C	0.841852	0.616855	0.047601
	C4720	C	0.501851	0.615280	0.000994
	C4721	C	0.747302	0.546879	0.035107
	C4722	C	0.498973	0.497487	0.069237
	C4723	C	0.753396	0.565785	0.033433
	C4724	C	0.497059	0.544268	0.077236
	C4725	C	0.750964	0.612789	0.042989
	C4726	C	0.504382	0.568320	-0.008475
	C4727	C	0.749279	0.499754	0.025968
	C4728	C	0.500006	0.605276	0.003672
	C4729	C	0.745477	0.536857	0.037722
	C4730	C	0.501131	0.507449	0.065378
	C4731	C	0.755310	0.575803	0.030791
	C4732	C	0.496284	0.534991	0.069824
	C4733	C	0.750202	0.603486	0.035749
	C4734	C	0.505035	0.577613	-0.001247
	C4735	C	0.750287	0.509091	0.033044
	H4736	H	0.662369	0.615881	-0.002887
	H4737	H	0.907817	0.547452	0.031187
	H4738	H	0.658229	0.495531	0.065230
	H4739	H	0.913098	0.564000	0.029677
	H4740	H	0.836770	0.546396	0.074496
	H4741	H	0.590610	0.614877	0.040433
	H4742	H	0.843281	0.568124	-0.012538
	H4743	H	0.588710	0.499525	0.021868
	H4744	H	0.839202	0.497157	0.073955
	H4745	H	0.592917	0.565237	0.037283
	H4746	H	0.841551	0.617071	0.004436
	H4747	H	0.587662	0.548656	0.038828
	H4748	H	0.664684	0.566255	-0.006061
	H4749	H	0.909383	0.497593	0.028819
	H4750	H	0.657374	0.544404	0.081636
	H4751	H	0.911715	0.613046	0.047014
	O4752	O	0.079917	0.595161	0.100312
	O4753	O	0.324679	0.526983	0.141090
	O4754	O	0.080514	0.507344	0.172859
	O4755	O	0.336519	0.573544	0.125436
	O4756	O	0.405548	0.527148	0.169633
	O4757	O	0.161389	0.594194	0.128540
	O4758	O	0.416382	0.575507	0.097687
	O4759	O	0.161317	0.507626	0.141643
	O4760	O	0.411806	0.508040	0.174287
	O4761	O	0.167126	0.574115	0.127160
	O4762	O	0.410447	0.595669	0.102225
	O4763	O	0.155168	0.527606	0.142955
	O4764	O	0.085733	0.574943	0.099039
	O4765	O	0.330801	0.506952	0.143409
	O4766	O	0.075003	0.526455	0.171408
	O4767	O	0.330866	0.593571	0.130025
	F4768	F	-0.006688	0.517044	0.144723
	F4769	F	0.248453	0.585272	0.101747
	F4770	F	-0.000919	0.583964	0.125667
	F4771	F	0.243266	0.516982	0.168391
	Al4772	Al	0.118263	0.517017	0.156514
	Al4773	Al	0.373582	0.584583	0.113721
	Al4774	Al	0.123725	0.584617	0.113658
	Al4775	Al	0.368168	0.517031	0.156534
	C4776	C	0.089279	0.613825	0.095109
	C4777	C	0.334485	0.545445	0.132695
	C4778	C	0.086381	0.492072	0.197436
	C4779	C	0.337583	0.554762	0.130394
	C4780	C	0.402640	0.544700	0.181914
	C4781	C	0.157873	0.611846	0.140718
	C4782	C	0.409086	0.558215	0.083682
	C4783	C	0.154217	0.490881	0.125801
	C4784	C	0.407384	0.493585	0.200788
	C4785	C	0.157783	0.555639	0.135193
	C4786	C	0.409001	0.614478	0.099348
	C4787	C	0.154690	0.546333	0.137518
	C4788	C	0.088912	0.557150	0.087552
	C4789	C	0.333865	0.489447	0.130863
	C4790	C	0.082130	0.543327	0.186721
	C4791	C	0.337954	0.610751	0.144765
	C4792	C	-0.002336	0.609372	0.097631
	C4793	C	0.242911	0.541123	0.136284
	C4794	C	-0.003403	0.496614	0.192612
	C4795	C	0.249280	0.559969	0.131631
	C4796	C	-0.008510	0.539590	0.180993
	C4797	C	0.247251	0.606755	0.139807
	C4798	C	-0.000344	0.562245	0.088452
	C4799	C	0.244863	0.494583	0.131613
	C4800	C	-0.004123	0.599328	0.100117
	C4801	C	0.240611	0.531177	0.140344
	C4802	C	-0.003734	0.504555	0.178889
	C4803	C	0.251209	0.569933	0.127844
	C4804	C	-0.009338	0.530391	0.173439
	C4805	C	0.246447	0.597495	0.132309
	C4806	C	0.000665	0.571580	0.095565
	C4807	C	0.245781	0.503711	0.139480
	H4808	H	0.158124	0.609945	0.093666
	H4809	H	0.402878	0.541472	0.131647
	H4810	H	0.155710	0.494296	0.191040
	H4811	H	0.408476	0.558021	0.127545
	H4812	H	0.332404	0.541902	0.177391
	H4813	H	0.087096	0.608887	0.136945
	H4814	H	0.339581	0.562066	0.084198
	H4815	H	0.085355	0.494832	0.126248
	H4816	H	0.337789	0.497074	0.197224
	H4817	H	0.089189	0.559599	0.136268
	H4818	H	0.337943	0.611127	0.101479
	H4819	H	0.083678	0.543089	0.140447
	H4820	H	0.159630	0.560125	0.091288
	H4821	H	0.403852	0.492237	0.135552
	H4822	H	0.151131	0.539398	0.186244
	H4823	H	0.407488	0.606891	0.144296
	O4824	O	0.579940	0.595160	0.100388
	O4825	O	0.823964	0.526986	0.140974
	O4826	O	0.580801	0.507309	0.172792
	O4827	O	0.836382	0.573549	0.125440
	O4828	O	0.905559	0.527128	0.169602
	O4829	O	0.660981	0.594187	0.128587
	O4830	O	0.916138	0.575523	0.097672
	O4831	O	0.660903	0.507639	0.141552
	O4832	O	0.911501	0.508006	0.174213
	O4833	O	0.666939	0.574107	0.127215
	O4834	O	0.910369	0.595657	0.102109
	O4835	O	0.654515	0.527654	0.143004
	O4836	O	0.585951	0.574940	0.099056
	O4837	O	0.830398	0.506949	0.143364
	O4838	O	0.574956	0.526418	0.171539
	O4839	O	0.830397	0.593602	0.130004
	F4840	F	0.493023	0.517066	0.144796
	F4841	F	0.748393	0.585261	0.101814
	F4842	F	0.498816	0.583922	0.125661
	F4843	F	0.743389	0.516995	0.168334
	Al4844	Al	0.618031	0.517033	0.156533
	Al4845	Al	0.873901	0.584605	0.113724
	Al4846	Al	0.623542	0.584603	0.113684
	Al4847	Al	0.868151	0.517049	0.156436
	C4848	C	0.589101	0.613821	0.095023
	C4849	C	0.833984	0.545451	0.132672
	C4850	C	0.586816	0.492048	0.197403
	C4851	C	0.837116	0.554765	0.130386
	C4852	C	0.902473	0.544721	0.181751
	C4853	C	0.657266	0.611875	0.140632
	C4854	C	0.908761	0.558223	0.083721
	C4855	C	0.653783	0.490867	0.125819
	C4856	C	0.907028	0.493620	0.200878
	C4857	C	0.657379	0.555663	0.135231
	C4858	C	0.909003	0.614494	0.099327
	C4859	C	0.654230	0.546360	0.137547
	C4860	C	0.589111	0.557119	0.087675
	C4861	C	0.833586	0.489490	0.130845
	C4862	C	0.582470	0.543314	0.186801
	C4863	C	0.837325	0.610786	0.144618
	C4864	C	0.497607	0.609363	0.097555
	C4865	C	0.742431	0.541142	0.136295
	C4866	C	0.496983	0.496587	0.192556
	C4867	C	0.748919	0.559976	0.131638
	C4868	C	0.491758	0.539569	0.181079
	C4869	C	0.746634	0.606779	0.139705
	C4870	C	0.499981	0.562235	0.088431
	C4871	C	0.744474	0.494593	0.131595
	C4872	C	0.495794	0.599329	0.100180
	C4873	C	0.740037	0.531200	0.140330
	C4874	C	0.496501	0.504527	0.178855
	C4875	C	0.751065	0.569938	0.127856
	C4876	C	0.490640	0.530384	0.173496
	C4877	C	0.745944	0.597516	0.132276
	C4878	C	0.500911	0.571576	0.095523
	C4879	C	0.745349	0.503725	0.139407
	H4880	H	0.658112	0.609949	0.093626
	H4881	H	0.902417	0.541474	0.131606
	H4882	H	0.656237	0.494280	0.191021
	H4883	H	0.908095	0.558033	0.127531
	H4884	H	0.832188	0.541938	0.177190
	H4885	H	0.586525	0.608906	0.136881
	H4886	H	0.839205	0.562082	0.084264
	H4887	H	0.584854	0.494803	0.126317
	H4888	H	0.837497	0.497121	0.197328
	H4889	H	0.588919	0.559622	0.136318
	H4890	H	0.837879	0.611141	0.101346
	H4891	H	0.583378	0.543131	0.140480
	H4892	H	0.659819	0.560064	0.091498
	H4893	H	0.903561	0.492285	0.135536
	H4894	H	0.651513	0.539392	0.186301
	H4895	H	0.906954	0.606935	0.144145
	O4896	O	0.074640	0.589510	0.203709
	O4897	O	0.332785	0.533122	0.300186
	O4898	O	0.088293	0.516321	0.338544
	O4899	O	0.331058	0.569845	0.235361
	O4900	O	0.413286	0.535597	0.330890
	O4901	O	0.155615	0.589621	0.232137
	O4902	O	0.411287	0.570149	0.204063
	O4903	O	0.169242	0.515082	0.306595
	O4904	O	0.419415	0.517101	0.339849
	O4905	O	0.161961	0.570497	0.236705
	O4906	O	0.404932	0.590143	0.205481
	O4907	O	0.163460	0.533854	0.301431
	O4908	O	0.080592	0.569485	0.205761
	O4909	O	0.338636	0.514383	0.308597
	O4910	O	0.083331	0.534884	0.332998
	O4911	O	0.325232	0.588905	0.234085
	F4912	F	0.000906	0.524242	0.308386
	F4913	F	0.243188	0.579561	0.207301
	F4914	F	-0.006674	0.579470	0.230889
	F4915	F	0.251324	0.525694	0.331208
	Al4916	Al	0.126088	0.524988	0.319783
	Al4917	Al	0.368371	0.579532	0.219004
	Al4918	Al	0.118276	0.579530	0.218986
	Al4919	Al	0.376054	0.524977	0.319802
	C4920	C	0.083763	0.607971	0.195228
	C4921	C	0.337336	0.547235	0.272794
	C4922	C	0.093988	0.502301	0.366218
	C4923	C	0.337042	0.554569	0.259918
	C4924	C	0.410572	0.552820	0.344640
	C4925	C	0.152985	0.607202	0.244302
	C4926	C	0.404041	0.553373	0.188375
	C4927	C	0.162048	0.498713	0.289822
	C4928	C	0.414911	0.504056	0.369465
	C4929	C	0.157539	0.556087	0.263215
	C4930	C	0.404698	0.608868	0.200346
	C4931	C	0.157848	0.548762	0.276081
	C4932	C	0.083693	0.551994	0.193201
	C4933	C	0.341771	0.497191	0.294750
	C4934	C	0.090099	0.551243	0.349835
	C4935	C	0.332608	0.605807	0.249332
	C4936	C	-0.007571	0.603649	0.198933
	C4937	C	0.247750	0.544254	0.281027
	C4938	C	0.004228	0.506652	0.360567
	C4939	C	0.247207	0.559087	0.255027
	C4940	C	-0.000342	0.547762	0.343420
	C4941	C	0.241917	0.602067	0.243631
	C4942	C	-0.005385	0.557105	0.194025
	C4943	C	0.252655	0.502225	0.296111
	C4944	C	-0.009382	0.593694	0.202931
	C4945	C	0.248051	0.536538	0.295275
	C4946	C	0.003869	0.513858	0.345186
	C4947	C	0.246772	0.567020	0.241325
	C4948	C	-0.001169	0.538772	0.335115
	C4949	C	0.240747	0.592853	0.236078
	C4950	C	-0.004326	0.566230	0.201859
	C4951	C	0.253760	0.511209	0.304427
	H4952	H	0.152289	0.604008	0.194055
	H4953	H	0.406847	0.543769	0.276505
	H4954	H	0.163427	0.504180	0.359358
	H4955	H	0.406359	0.556815	0.253564
	H4956	H	0.340848	0.550174	0.339551
	H4957	H	0.082784	0.604420	0.239715
	H4958	H	0.335068	0.557290	0.188913
	H4959	H	0.093289	0.502626	0.290666
	H4960	H	0.345314	0.507410	0.365311
	H4961	H	0.087927	0.559576	0.259630
	H4962	H	0.333943	0.605617	0.203429
	H4963	H	0.088417	0.546567	0.282514
	H4964	H	0.153730	0.554788	0.197828
	H4965	H	0.411631	0.499877	0.299679
	H4966	H	0.158777	0.547306	0.349042
	H4967	H	0.401665	0.601884	0.248867
	O4968	O	0.574576	0.589489	0.203578
	O4969	O	0.832637	0.533137	0.300179
	O4970	O	0.588580	0.516277	0.338534
	O4971	O	0.830772	0.569859	0.235371
	O4972	O	0.913937	0.535587	0.331007
	O4973	O	0.655638	0.589672	0.232113
	O4974	O	0.911131	0.570122	0.204100
	O4975	O	0.669031	0.515102	0.306644
	O4976	O	0.919120	0.517119	0.339896
	O4977	O	0.661710	0.570552	0.236805
	O4978	O	0.904989	0.590103	0.205459
	O4979	O	0.663355	0.533872	0.301495
	O4980	O	0.580771	0.569462	0.205926
	O4981	O	0.838327	0.514404	0.308609
	O4982	O	0.582603	0.534843	0.333115
	O4983	O	0.825168	0.588955	0.234034
	F4984	F	0.500860	0.524247	0.308426
	F4985	F	0.743293	0.579566	0.207338
	F4986	F	0.493481	0.579500	0.230855
	F4987	F	0.751195	0.525738	0.331222
	Al4988	Al	0.626115	0.524985	0.319827
	Al4989	Al	0.868596	0.579530	0.219089
	Al4990	Al	0.618272	0.579553	0.219005
	Al4991	Al	0.876087	0.524996	0.319786
	C4992	C	0.584148	0.607964	0.195203
	C4993	C	0.836868	0.547242	0.272759
	C4994	C	0.594266	0.502266	0.366190
	C4995	C	0.836590	0.554575	0.259873
	C4996	C	0.910687	0.552827	0.344637
	C4997	C	0.652552	0.607211	0.244302
	C4998	C	0.903987	0.553391	0.188210
	C4999	C	0.662041	0.498720	0.289814
	C5000	C	0.914557	0.504087	0.369445
	C5001	C	0.657200	0.556084	0.263243
	C5002	C	0.904272	0.608870	0.200365
	C5003	C	0.657475	0.548756	0.276102
	C5004	C	0.583853	0.551982	0.193295
	C5005	C	0.841655	0.497214	0.294774
	C5006	C	0.589875	0.551227	0.349831
	C5007	C	0.832197	0.605805	0.249428
	C5008	C	0.492733	0.603653	0.198870
	C5009	C	0.747361	0.544257	0.281031
	C5010	C	0.504487	0.506615	0.360550
	C5011	C	0.746755	0.559095	0.255024
	C5012	C	0.499335	0.547736	0.343481
	C5013	C	0.741644	0.602075	0.243626
	C5014	C	0.494790	0.557099	0.194103
	C5015	C	0.752533	0.502258	0.296046
	C5016	C	0.490526	0.593695	0.202880
	C5017	C	0.747838	0.536542	0.295280
	C5018	C	0.504170	0.513843	0.345192
	C5019	C	0.746450	0.567052	0.241370
	C5020	C	0.498139	0.538749	0.335148
	C5021	C	0.740710	0.592895	0.236051
	C5022	C	0.495774	0.566228	0.201951
	C5023	C	0.753506	0.511242	0.304380
	H5024	H	0.652530	0.603985	0.194068
	H5025	H	0.906472	0.543775	0.276431
	H5026	H	0.663709	0.504133	0.359324
	H5027	H	0.905880	0.556820	0.253493
	H5028	H	0.840893	0.550174	0.339558
	H5029	H	0.582334	0.604438	0.239679
	H5030	H	0.835043	0.557324	0.188677
	H5031	H	0.593330	0.502625	0.290728
	H5032	H	0.844935	0.507446	0.365275
	H5033	H	0.587664	0.559575	0.259664
	H5034	H	0.833488	0.605628	0.203425
	H5035	H	0.588153	0.546553	0.282534
	H5036	H	0.653877	0.554768	0.197940
	H5037	H	0.911330	0.499902	0.299788
	H5038	H	0.658390	0.547283	0.349008
	H5039	H	0.901310	0.601885	0.249026
	O5040	O	0.082536	0.595608	0.362728
	O5041	O	0.339932	0.544954	0.472524
	O5042	O	0.095716	0.528226	0.510905
	O5043	O	0.338607	0.578744	0.401066
	O5044	O	0.420899	0.547695	0.503762
	O5045	O	0.163739	0.598076	0.393470
	O5046	O	0.419463	0.577607	0.369085
	O5047	O	0.176549	0.527178	0.479479
	O5048	O	0.426587	0.528956	0.512267
	O5049	O	0.169462	0.579589	0.402385
	O5050	O	0.413500	0.596342	0.364074
	O5051	O	0.170755	0.545801	0.473891
	O5052	O	0.088945	0.576865	0.371202
	O5053	O	0.345977	0.526474	0.481486
	O5054	O	0.090413	0.546971	0.505832
	O5055	O	0.333100	0.597365	0.395517
	F5056	F	0.008141	0.536367	0.481151
	F5057	F	0.251119	0.586772	0.370949
	F5058	F	0.001196	0.588186	0.393794
	F5059	F	0.258549	0.537812	0.503999
	Al5060	Al	0.133411	0.537098	0.492595
	Al5061	Al	0.376205	0.587457	0.382358
	Al5062	Al	0.126228	0.587463	0.382335
	Al5063	Al	0.383330	0.537087	0.492594
	C5064	C	0.086804	0.609718	0.335196
	C5065	C	0.344384	0.557923	0.442801
	C5066	C	0.101445	0.513287	0.536183
	C5067	C	0.344219	0.564676	0.428581
	C5068	C	0.417613	0.564862	0.517652
	C5069	C	0.160569	0.615262	0.407389
	C5070	C	0.412289	0.561254	0.352175
	C5071	C	0.169392	0.510811	0.462725
	C5072	C	0.422267	0.514886	0.539768
	C5073	C	0.164886	0.566616	0.432129
	C5074	C	0.407733	0.611280	0.338706
	C5075	C	0.165067	0.559871	0.446337
	C5076	C	0.091612	0.559678	0.357356
	C5077	C	0.349060	0.509265	0.467719
	C5078	C	0.097168	0.563309	0.522766
	C5079	C	0.340308	0.613806	0.412057
	C5080	C	-0.002667	0.606763	0.343588
	C5081	C	0.254798	0.555440	0.451824
	C5082	C	0.011600	0.517822	0.531354
	C5083	C	0.254431	0.569096	0.423085
	C5084	C	0.006718	0.559807	0.516385
	C5085	C	0.249648	0.610234	0.405988
	C5086	C	0.002805	0.564769	0.358484
	C5087	C	0.260053	0.514314	0.469005
	C5088	C	-0.002229	0.599018	0.357813
	C5089	C	0.255177	0.548222	0.467199
	C5090	C	0.011153	0.525560	0.517127
	C5091	C	0.254148	0.576315	0.407723
	C5092	C	0.005923	0.550849	0.507958
	C5093	C	0.248591	0.601236	0.397713
	C5094	C	0.004068	0.573719	0.366931
	C5095	C	0.261112	0.523309	0.477300
	H5096	H	0.156553	0.606237	0.338769
	H5097	H	0.413800	0.554492	0.446881
	H5098	H	0.170809	0.515461	0.529657
	H5099	H	0.413572	0.566523	0.421563
	H5100	H	0.347935	0.562217	0.512576
	H5101	H	0.090666	0.612578	0.402496
	H5102	H	0.343737	0.565175	0.353042
	H5103	H	0.100688	0.514740	0.463569
	H5104	H	0.352832	0.518410	0.536219
	H5105	H	0.095301	0.570037	0.428106
	H5106	H	0.338308	0.609101	0.345189
	H5107	H	0.095715	0.558057	0.453323
	H5108	H	0.161308	0.562311	0.362499
	H5109	H	0.418848	0.511939	0.472682
	H5110	H	0.165883	0.559394	0.521910
	H5111	H	0.409238	0.609930	0.411027
	O5112	O	0.582822	0.595595	0.362722
	O5113	O	0.839546	0.544955	0.472588
	O5114	O	0.595871	0.528214	0.510930
	O5115	O	0.838608	0.578744	0.401080
	O5116	O	0.921149	0.547678	0.503742
	O5117	O	0.663563	0.598069	0.393471
	O5118	O	0.919660	0.577591	0.369134
	O5119	O	0.676367	0.527164	0.479465
	O5120	O	0.926489	0.528956	0.512252
	O5121	O	0.669499	0.579612	0.402459
	O5122	O	0.913299	0.596357	0.364053
	O5123	O	0.670477	0.545820	0.473970
	O5124	O	0.588781	0.576854	0.371231
	O5125	O	0.845724	0.526468	0.481417
	O5126	O	0.590100	0.546963	0.505871
	O5127	O	0.832817	0.597354	0.395617
	F5128	F	0.508263	0.536362	0.481191
	F5129	F	0.751217	0.586723	0.370998
	F5130	F	0.501248	0.588173	0.393773
	F5131	F	0.758591	0.537811	0.503980
	Al5132	Al	0.633341	0.537089	0.492645
	Al5133	Al	0.876318	0.587462	0.382420
	Al5134	Al	0.626181	0.587462	0.382364
	Al5135	Al	0.883500	0.537080	0.492563
	C5136	C	0.587253	0.609707	0.335251
	C5137	C	0.844166	0.557928	0.442868
	C5138	C	0.601526	0.513238	0.536126
	C5139	C	0.844085	0.564683	0.428641
	C5140	C	0.917683	0.564861	0.517659
	C5141	C	0.660235	0.615245	0.407411
	C5142	C	0.912211	0.561264	0.352171
	C5143	C	0.669046	0.510772	0.462754
	C5144	C	0.922205	0.514910	0.539851
	C5145	C	0.664900	0.566623	0.432173
	C5146	C	0.907426	0.611294	0.338680
	C5147	C	0.664950	0.559878	0.446373
	C5148	C	0.591567	0.559663	0.357363
	C5149	C	0.848733	0.509252	0.467698
	C5150	C	0.597022	0.563302	0.522716
	C5151	C	0.840035	0.613766	0.412058
	C5152	C	0.497630	0.606746	0.343608
	C5153	C	0.754598	0.555439	0.451877
	C5154	C	0.511789	0.517803	0.531359
	C5155	C	0.754452	0.569091	0.423105
	C5156	C	0.506494	0.559784	0.516402
	C5157	C	0.749318	0.610217	0.405939
	C5158	C	0.502784	0.564742	0.358555
	C5159	C	0.759723	0.514297	0.468982
	C5160	C	0.497998	0.599020	0.357868
	C5161	C	0.754878	0.548236	0.467278
	C5162	C	0.511399	0.525549	0.517155
	C5163	C	0.754159	0.576309	0.407744
	C5164	C	0.505671	0.550842	0.508033
	C5165	C	0.748314	0.601235	0.397693
	C5166	C	0.503898	0.573710	0.366960
	C5167	C	0.760859	0.523293	0.477244
	H5168	H	0.656923	0.606224	0.338882
	H5169	H	0.913586	0.554499	0.446989
	H5170	H	0.670761	0.515391	0.529575
	H5171	H	0.913529	0.566526	0.421648
	H5172	H	0.847959	0.562201	0.512593
	H5173	H	0.590213	0.612551	0.402595
	H5174	H	0.843471	0.565183	0.353048
	H5175	H	0.600329	0.514675	0.463677
	H5176	H	0.852740	0.518439	0.536332
	H5177	H	0.595399	0.570051	0.428160
	H5178	H	0.838017	0.609107	0.345162
	H5179	H	0.595632	0.558075	0.453357
	H5180	H	0.661303	0.562293	0.362486
	H5181	H	0.918603	0.511909	0.472694
	H5182	H	0.665801	0.559398	0.521823
	H5183	H	0.908920	0.609873	0.411092
	O5184	O	0.089783	0.607486	0.535105
	O5185	O	0.347453	0.554024	0.638224
	O5186	O	0.103948	0.534429	0.669489
	O5187	O	0.345826	0.590719	0.573407
	O5188	O	0.428594	0.555064	0.669132
	O5189	O	0.170882	0.610174	0.566282
	O5190	O	0.426486	0.589668	0.541917
	O5191	O	0.183953	0.535582	0.641103
	O5192	O	0.434806	0.535050	0.671400
	O5193	O	0.176497	0.591409	0.574713
	O5194	O	0.420727	0.608288	0.536378
	O5195	O	0.178427	0.554735	0.639668
	O5196	O	0.095990	0.588968	0.543939
	O5197	O	0.353489	0.534925	0.642752
	O5198	O	0.098420	0.554423	0.670931
	O5199	O	0.340043	0.609470	0.568296
	F5200	F	0.015675	0.545081	0.644112
	F5201	F	0.258165	0.598856	0.543643
	F5202	F	0.008464	0.600320	0.566518
	F5203	F	0.266232	0.544972	0.667682
	Al5204	Al	0.141172	0.545042	0.655984
	Al5205	Al	0.383151	0.599585	0.555072
	Al5206	Al	0.133332	0.599572	0.555099
	Al5207	Al	0.391093	0.544996	0.655988
	C5208	C	0.094253	0.620565	0.505577
	C5209	C	0.351942	0.568460	0.611667
	C5210	C	0.104560	0.515705	0.674917
	C5211	C	0.351739	0.575789	0.598754
	C5212	C	0.425173	0.572539	0.681876
	C5213	C	0.167326	0.627357	0.580218
	C5214	C	0.419131	0.573312	0.525199
	C5215	C	0.176676	0.518726	0.625746
	C5216	C	0.424768	0.516587	0.679618
	C5217	C	0.172315	0.577349	0.602252
	C5218	C	0.415037	0.622307	0.508733
	C5219	C	0.172523	0.570038	0.615145
	C5220	C	0.098647	0.571746	0.530300
	C5221	C	0.356511	0.517355	0.630586
	C5222	C	0.105020	0.571220	0.686596
	C5223	C	0.347083	0.625793	0.585226
	C5224	C	0.004603	0.617962	0.514403
	C5225	C	0.262319	0.565472	0.619926
	C5226	C	0.016316	0.520921	0.676149
	C5227	C	0.261843	0.580304	0.593883
	C5228	C	0.014407	0.567449	0.680914
	C5229	C	0.256403	0.622277	0.578913
	C5230	C	0.009770	0.576813	0.531490
	C5231	C	0.267350	0.522469	0.631410
	C5232	C	0.005011	0.610767	0.529799
	C5233	C	0.262723	0.557525	0.633620
	C5234	C	0.018536	0.530868	0.672074
	C5235	C	0.261379	0.588022	0.579618
	C5236	C	0.013949	0.558317	0.673057
	C5237	C	0.255594	0.613331	0.570552
	C5238	C	0.010980	0.585795	0.539813
	C5239	C	0.268382	0.531659	0.638989
	H5240	H	0.163864	0.617234	0.509824
	H5241	H	0.421500	0.564952	0.615238
	H5242	H	0.175388	0.518960	0.671993
	H5243	H	0.420982	0.577982	0.592257
	H5244	H	0.355006	0.569709	0.677407
	H5245	H	0.097304	0.624723	0.575189
	H5246	H	0.350761	0.577270	0.526071
	H5247	H	0.107613	0.522647	0.626308
	H5248	H	0.356285	0.520555	0.680567
	H5249	H	0.102675	0.580823	0.598666
	H5250	H	0.345680	0.620408	0.515593
	H5251	H	0.103075	0.567841	0.621577
	H5252	H	0.168314	0.574398	0.535386
	H5253	H	0.426600	0.520163	0.635127
	H5254	H	0.174273	0.567335	0.686026
	H5255	H	0.416004	0.621887	0.584349
	O5256	O	0.589948	0.607500	0.535136
	O5257	O	0.847509	0.554066	0.638288
	O5258	O	0.604329	0.534394	0.669451
	O5259	O	0.845706	0.590702	0.573482
	O5260	O	0.929041	0.555056	0.669093
	O5261	O	0.671008	0.610176	0.566234
	O5262	O	0.926656	0.589675	0.541976
	O5263	O	0.683803	0.535591	0.640983
	O5264	O	0.934391	0.535063	0.671396
	O5265	O	0.676448	0.591457	0.574789
	O5266	O	0.920551	0.608297	0.536381
	O5267	O	0.678404	0.554719	0.639656
	O5268	O	0.595930	0.588972	0.543955
	O5269	O	0.853346	0.534906	0.642721
	O5270	O	0.598118	0.554413	0.670840
	O5271	O	0.840315	0.609452	0.568418
	F5272	F	0.515747	0.545044	0.644103
	F5273	F	0.758298	0.598851	0.543735
	F5274	F	0.508428	0.600316	0.566473
	F5275	F	0.766488	0.544983	0.667635
	Al5276	Al	0.641105	0.545013	0.655967
	Al5277	Al	0.883495	0.599585	0.555158
	Al5278	Al	0.633410	0.599569	0.555115
	Al5279	Al	0.891417	0.545017	0.655899
	C5280	C	0.594427	0.620533	0.505539
	C5281	C	0.851802	0.568442	0.611688
	C5282	C	0.604625	0.515691	0.674911
	C5283	C	0.851376	0.575771	0.598788
	C5284	C	0.925149	0.572536	0.681805
	C5285	C	0.667558	0.627367	0.580124
	C5286	C	0.919193	0.573296	0.525194
	C5287	C	0.676431	0.518721	0.625688
	C5288	C	0.924769	0.516599	0.679633
	C5289	C	0.672025	0.577361	0.602316
	C5290	C	0.914733	0.622301	0.508709
	C5291	C	0.672392	0.570042	0.615195
	C5292	C	0.598709	0.571745	0.530267
	C5293	C	0.856250	0.517331	0.630690
	C5294	C	0.605162	0.571198	0.686559
	C5295	C	0.847281	0.625805	0.585249
	C5296	C	0.504816	0.617971	0.514434
	C5297	C	0.762200	0.565471	0.619967
	C5298	C	0.516367	0.520906	0.676152
	C5299	C	0.761494	0.580295	0.593903
	C5300	C	0.514446	0.567460	0.680830
	C5301	C	0.756645	0.622301	0.578889
	C5302	C	0.509793	0.576792	0.531535
	C5303	C	0.767076	0.522438	0.631485
	C5304	C	0.505166	0.610741	0.529760
	C5305	C	0.762665	0.557530	0.633654
	C5306	C	0.518766	0.530845	0.672095
	C5307	C	0.761141	0.588027	0.579677
	C5308	C	0.513612	0.558319	0.673033
	C5309	C	0.755768	0.613325	0.570562
	C5310	C	0.511063	0.585790	0.539806
	C5311	C	0.768190	0.531639	0.638988
	H5312	H	0.663980	0.617175	0.509725
	H5313	H	0.921335	0.564935	0.615245
	H5314	H	0.675514	0.518946	0.671978
	H5315	H	0.920623	0.577970	0.592300
	H5316	H	0.855119	0.569726	0.677203
	H5317	H	0.597677	0.624720	0.575050
	H5318	H	0.850500	0.577215	0.526084
	H5319	H	0.607615	0.522673	0.626130
	H5320	H	0.856188	0.520561	0.680593
	H5321	H	0.602340	0.580853	0.598782
	H5322	H	0.845258	0.620409	0.515567
	H5323	H	0.603064	0.567853	0.621650
	H5324	H	0.668340	0.574436	0.535292
	H5325	H	0.926400	0.520145	0.635227
	H5326	H	0.674287	0.567288	0.686014
	H5327	H	0.916108	0.621884	0.584425
	O5328	O	0.097250	0.616509	0.700679
	O5329	O	0.341876	0.550450	0.747865
	O5330	O	0.098700	0.528881	0.772848
	O5331	O	0.354119	0.596919	0.731944
	O5332	O	0.423030	0.549591	0.776022
	O5333	O	0.178456	0.617600	0.731502
	O5334	O	0.434051	0.598107	0.703552
	O5335	O	0.178550	0.530962	0.745109
	O5336	O	0.429190	0.529373	0.774614
	O5337	O	0.184609	0.597566	0.733812
	O5338	O	0.428027	0.617231	0.702179
	O5339	O	0.172402	0.551008	0.749633
	O5340	O	0.103347	0.597389	0.705353
	O5341	O	0.347987	0.530366	0.746445
	O5342	O	0.092629	0.549037	0.777386
	O5343	O	0.347945	0.616917	0.733385
	F5344	F	0.010530	0.540614	0.749377
	F5345	F	0.265752	0.607540	0.706552
	F5346	F	0.016448	0.607532	0.730232
	F5347	F	0.260857	0.539306	0.773273
	Al5348	Al	0.135614	0.539966	0.761355
	Al5349	Al	0.390853	0.607528	0.718459
	Al5350	Al	0.140973	0.607502	0.718446
	Al5351	Al	0.385657	0.539942	0.761353
	C5352	C	0.101742	0.630977	0.674226
	C5353	C	0.351271	0.568898	0.739752
	C5354	C	0.100197	0.510065	0.775879
	C5355	C	0.354380	0.578198	0.737364
	C5356	C	0.419441	0.567400	0.787458
	C5357	C	0.175310	0.635082	0.744187
	C5358	C	0.426589	0.581198	0.688365
	C5359	C	0.171024	0.513750	0.730600
	C5360	C	0.419829	0.510734	0.779815
	C5361	C	0.174606	0.579106	0.742071
	C5362	C	0.422458	0.632525	0.677630
	C5363	C	0.171471	0.569792	0.744428
	C5364	C	0.106209	0.579885	0.693048
	C5365	C	0.351354	0.512717	0.734205
	C5366	C	0.099527	0.566361	0.791235
	C5367	C	0.354960	0.633680	0.749219
	C5368	C	0.012240	0.627994	0.682501
	C5369	C	0.259728	0.564577	0.743286
	C5370	C	0.011555	0.515190	0.777531
	C5371	C	0.266197	0.583418	0.738529
	C5372	C	0.008738	0.562319	0.786534
	C5373	C	0.264344	0.629966	0.743416
	C5374	C	0.017005	0.584981	0.693885
	C5375	C	0.261948	0.517772	0.735308
	C5376	C	0.012618	0.620019	0.696125
	C5377	C	0.257706	0.554620	0.747168
	C5378	C	0.013417	0.525217	0.774929
	C5379	C	0.268565	0.593361	0.734499
	C5380	C	0.008042	0.552977	0.779472
	C5381	C	0.263421	0.620835	0.735524
	C5382	C	0.018275	0.594172	0.701479
	C5383	C	0.262925	0.527045	0.742762
	H5384	H	0.171294	0.627466	0.677729
	H5385	H	0.419866	0.564942	0.738773
	H5386	H	0.171318	0.513419	0.773874
	H5387	H	0.425384	0.581433	0.734466
	H5388	H	0.348772	0.564431	0.783712
	H5389	H	0.105248	0.632291	0.739519
	H5390	H	0.357479	0.585092	0.688996
	H5391	H	0.101584	0.517614	0.731291
	H5392	H	0.350996	0.514613	0.781160
	H5393	H	0.106145	0.583078	0.743036
	H5394	H	0.353176	0.630333	0.684085
	H5395	H	0.100512	0.566536	0.747276
	H5396	H	0.176398	0.582703	0.697528
	H5397	H	0.422103	0.515715	0.737845
	H5398	H	0.169172	0.562517	0.790677
	H5399	H	0.423879	0.629736	0.748756
	O5400	O	0.597149	0.616504	0.700696
	O5401	O	0.841598	0.550446	0.747836
	O5402	O	0.598743	0.528883	0.772940
	O5403	O	0.853865	0.596920	0.732147
	O5404	O	0.923042	0.549603	0.775963
	O5405	O	0.678258	0.617589	0.731552
	O5406	O	0.933980	0.598131	0.703494
	O5407	O	0.678408	0.530924	0.745167
	O5408	O	0.929243	0.529389	0.774804
	O5409	O	0.684229	0.597526	0.733767
	O5410	O	0.928175	0.617210	0.702073
	O5411	O	0.672117	0.550967	0.749533
	O5412	O	0.603567	0.597417	0.705310
	O5413	O	0.847903	0.530329	0.746484
	O5414	O	0.592535	0.549018	0.777366
	O5415	O	0.847756	0.616946	0.733331
	F5416	F	0.510366	0.540590	0.749393
	F5417	F	0.765816	0.607546	0.706641
	F5418	F	0.515954	0.607507	0.730146
	F5419	F	0.760936	0.539301	0.773254
	Al5420	Al	0.635739	0.539948	0.761361
	Al5421	Al	0.891008	0.607537	0.718512
	Al5422	Al	0.640937	0.607507	0.718471
	Al5423	Al	0.886000	0.539946	0.761347
	C5424	C	0.601664	0.630920	0.674154
	C5425	C	0.850932	0.568867	0.739767
	C5426	C	0.600020	0.510041	0.775726
	C5427	C	0.854250	0.578171	0.737409
	C5428	C	0.919277	0.567419	0.787413
	C5429	C	0.674977	0.635090	0.744195
	C5430	C	0.926325	0.581199	0.688290
	C5431	C	0.670968	0.513783	0.730490
	C5432	C	0.919806	0.510745	0.780009
	C5433	C	0.674520	0.579096	0.742263
	C5434	C	0.922500	0.632567	0.677722
	C5435	C	0.671193	0.569782	0.744595
	C5436	C	0.606484	0.579867	0.693015
	C5437	C	0.851228	0.512687	0.734232
	C5438	C	0.599627	0.566335	0.791275
	C5439	C	0.854692	0.633708	0.749095
	C5440	C	0.512107	0.627949	0.682416
	C5441	C	0.759331	0.564559	0.743351
	C5442	C	0.511531	0.515173	0.777409
	C5443	C	0.766158	0.583399	0.738667
	C5444	C	0.508786	0.562291	0.786596
	C5445	C	0.764054	0.629993	0.743301
	C5446	C	0.517379	0.584974	0.693899
	C5447	C	0.761897	0.517770	0.735277
	C5448	C	0.512368	0.620008	0.696128
	C5449	C	0.757328	0.554598	0.747163
	C5450	C	0.513428	0.525209	0.774861
	C5451	C	0.768350	0.593344	0.734591
	C5452	C	0.508073	0.552957	0.779518
	C5453	C	0.763180	0.620851	0.735471
	C5454	C	0.518479	0.594179	0.701453
	C5455	C	0.762846	0.527021	0.742784
	H5456	H	0.671223	0.627410	0.677710
	H5457	H	0.919365	0.564893	0.738711
	H5458	H	0.671256	0.513376	0.773716
	H5459	H	0.925257	0.581396	0.734440
	H5460	H	0.848630	0.564433	0.783659
	H5461	H	0.604863	0.632284	0.739602
	H5462	H	0.857207	0.585099	0.688853
	H5463	H	0.601503	0.517649	0.731090
	H5464	H	0.850958	0.514642	0.781373
	H5465	H	0.606117	0.583085	0.743286
	H5466	H	0.853212	0.630354	0.684155
	H5467	H	0.600209	0.566534	0.747482
	H5468	H	0.676845	0.582664	0.697477
	H5469	H	0.921960	0.515667	0.737928
	H5470	H	0.669276	0.562495	0.790723
	H5471	H	0.923673	0.629776	0.748614
	O5472	O	0.092082	0.612978	0.810368
	O5473	O	0.338181	0.544616	0.844670
	O5474	O	0.094490	0.522961	0.869263
	O5475	O	0.348533	0.591417	0.835376
	O5476	O	0.419291	0.543567	0.872791
	O5477	O	0.173829	0.612100	0.838495
	O5478	O	0.428024	0.593425	0.807596
	O5479	O	0.174134	0.524947	0.841625
	O5480	O	0.424856	0.523418	0.871055
	O5481	O	0.179015	0.591892	0.837034
	O5482	O	0.422640	0.613496	0.811963
	O5483	O	0.168540	0.545092	0.846160
	O5484	O	0.097300	0.592903	0.808865
	O5485	O	0.343663	0.524425	0.842887
	O5486	O	0.088429	0.543095	0.873807
	O5487	O	0.343372	0.611610	0.839682
	F5488	F	0.006555	0.534706	0.845732
	F5489	F	0.260303	0.603118	0.811795
	F5490	F	0.011068	0.601819	0.835761
	F5491	F	0.256584	0.533343	0.869756
	Al5492	Al	0.131642	0.534029	0.857726
	Al5493	Al	0.385657	0.602469	0.823757
	Al5494	Al	0.135754	0.602468	0.823808
	Al5495	Al	0.381490	0.534012	0.857836
	C5496	C	0.101375	0.631446	0.802359
	C5497	C	0.347232	0.563243	0.839129
	C5498	C	0.096173	0.504155	0.872537
	C5499	C	0.349981	0.572586	0.838290
	C5500	C	0.415556	0.561317	0.884578
	C5501	C	0.170041	0.629939	0.849853
	C5502	C	0.420760	0.576258	0.792987
	C5503	C	0.167319	0.507663	0.827616
	C5504	C	0.416042	0.504784	0.876569
	C5505	C	0.169817	0.573246	0.842494
	C5506	C	0.421650	0.632271	0.807055
	C5507	C	0.166994	0.563913	0.843308
	C5508	C	0.100739	0.575213	0.796748
	C5509	C	0.347736	0.506679	0.831033
	C5510	C	0.095062	0.560334	0.887952
	C5511	C	0.350226	0.628881	0.853745
	C5512	C	0.009920	0.627117	0.805955
	C5513	C	0.255662	0.558790	0.841657
	C5514	C	0.007382	0.509275	0.874049
	C5515	C	0.261390	0.577705	0.839985
	C5516	C	0.004124	0.556261	0.883483
	C5517	C	0.259416	0.624840	0.849013
	C5518	C	0.011375	0.580293	0.797742
	C5519	C	0.258211	0.511723	0.832154
	C5520	C	0.007849	0.617150	0.809721
	C5521	C	0.253895	0.548768	0.844278
	C5522	C	0.009278	0.519294	0.871339
	C5523	C	0.263260	0.587735	0.837336
	C5524	C	0.003696	0.546957	0.876208
	C5525	C	0.258789	0.615507	0.841922
	C5526	C	0.012198	0.589574	0.805194
	C5527	C	0.258710	0.521047	0.839345
	H5528	H	0.169954	0.627497	0.801263
	H5529	H	0.416109	0.559353	0.837741
	H5530	H	0.167244	0.507513	0.870551
	H5531	H	0.421136	0.575953	0.836219
	H5532	H	0.344734	0.558298	0.881101
	H5533	H	0.099573	0.626937	0.846047
	H5534	H	0.351251	0.580116	0.793539
	H5535	H	0.097671	0.511495	0.828285
	H5536	H	0.347039	0.508660	0.877790
	H5537	H	0.100884	0.577109	0.843833
	H5538	H	0.350721	0.629006	0.809898
	H5539	H	0.095965	0.560569	0.845297
	H5540	H	0.171428	0.578197	0.800450
	H5541	H	0.418450	0.509716	0.834497
	H5542	H	0.164846	0.556523	0.887240
	H5543	H	0.419716	0.625015	0.853187
	O5544	O	0.592162	0.612922	0.810130
	O5545	O	0.837642	0.544603	0.844401
	O5546	O	0.594401	0.522956	0.869340
	O5547	O	0.848410	0.591393	0.835451
	O5548	O	0.918698	0.543559	0.872696
	O5549	O	0.673022	0.612123	0.838471
	O5550	O	0.927836	0.593491	0.807547
	O5551	O	0.673554	0.524966	0.841570
	O5552	O	0.924965	0.523466	0.871090
	O5553	O	0.678842	0.591894	0.837121
	O5554	O	0.922613	0.613509	0.812088
	O5555	O	0.668194	0.545109	0.846213
	O5556	O	0.597609	0.592869	0.808903
	O5557	O	0.843108	0.524407	0.842816
	O5558	O	0.588952	0.543053	0.873923
	O5559	O	0.842614	0.611590	0.839831
	F5560	F	0.506134	0.534715	0.845842
	F5561	F	0.760503	0.603134	0.811895
	F5562	F	0.510838	0.601815	0.835661
	F5563	F	0.756837	0.533319	0.869588
	Al5564	Al	0.631441	0.534021	0.857753
	Al5565	Al	0.885871	0.602481	0.823847
	Al5566	Al	0.635570	0.602457	0.823790
	Al5567	Al	0.881728	0.534019	0.857661
	C5568	C	0.601528	0.631419	0.802319
	C5569	C	0.846934	0.563243	0.838979
	C5570	C	0.596505	0.504150	0.872710
	C5571	C	0.849722	0.572588	0.838201
	C5572	C	0.914609	0.561332	0.884612
	C5573	C	0.669481	0.629947	0.849810
	C5574	C	0.920512	0.576269	0.792939
	C5575	C	0.666182	0.507667	0.827551
	C5576	C	0.915750	0.504814	0.876483
	C5577	C	0.669490	0.573245	0.842388
	C5578	C	0.921592	0.632336	0.807187
	C5579	C	0.666663	0.563918	0.843170
	C5580	C	0.600998	0.575194	0.796765
	C5581	C	0.846596	0.506681	0.830992
	C5582	C	0.595995	0.560319	0.888001
	C5583	C	0.849529	0.628856	0.853789
	C5584	C	0.510034	0.627069	0.805792
	C5585	C	0.755359	0.558794	0.841486
	C5586	C	0.507644	0.509249	0.874129
	C5587	C	0.761070	0.577701	0.839910
	C5588	C	0.505015	0.556248	0.883463
	C5589	C	0.758721	0.624840	0.849036
	C5590	C	0.511599	0.580263	0.797804
	C5591	C	0.757166	0.511741	0.832047
	C5592	C	0.508039	0.617105	0.809537
	C5593	C	0.753489	0.548770	0.844144
	C5594	C	0.509187	0.519273	0.871370
	C5595	C	0.763028	0.587728	0.837376
	C5596	C	0.504340	0.546941	0.876262
	C5597	C	0.758019	0.615502	0.841978
	C5598	C	0.512573	0.589531	0.805238
	C5599	C	0.758016	0.521057	0.839254
	H5600	H	0.670315	0.627478	0.801295
	H5601	H	0.915723	0.559364	0.837613
	H5602	H	0.667597	0.507516	0.870787
	H5603	H	0.920734	0.575960	0.836205
	H5604	H	0.843750	0.558321	0.881120
	H5605	H	0.599064	0.626954	0.845992
	H5606	H	0.850918	0.580114	0.793502
	H5607	H	0.596579	0.511502	0.828234
	H5608	H	0.846691	0.508696	0.877681
	H5609	H	0.600471	0.577124	0.843781
	H5610	H	0.850582	0.629083	0.810056
	H5611	H	0.595555	0.560573	0.845173
	H5612	H	0.671709	0.578187	0.800418
	H5613	H	0.917423	0.509693	0.834505
	H5614	H	0.665713	0.556491	0.887342
	H5615	H	0.918924	0.624980	0.853254
	O5616	O	0.087955	0.607094	0.907015
	O5617	O	0.334325	0.538663	0.941796
	O5618	O	0.090834	0.516982	0.966346
	O5619	O	0.344596	0.585440	0.931684
	O5620	O	0.415671	0.537588	0.969874
	O5621	O	0.169300	0.606092	0.935061
	O5622	O	0.424195	0.587500	0.903905
	O5623	O	0.170442	0.519026	0.938650
	O5624	O	0.421533	0.517475	0.968110
	O5625	O	0.175064	0.585901	0.933308
	O5626	O	0.418568	0.607555	0.908522
	O5627	O	0.164790	0.539136	0.943253
	O5628	O	0.093187	0.586927	0.905337
	O5629	O	0.339987	0.518496	0.939891
	O5630	O	0.084742	0.537100	0.970920
	O5631	O	0.338773	0.605538	0.936346
	F5632	F	0.003098	0.528754	0.942798
	F5633	F	0.256190	0.597199	0.908182
	F5634	F	0.006989	0.595796	0.932258
	F5635	F	0.253008	0.527348	0.966827
	Al5636	Al	0.127928	0.528051	0.954816
	Al5637	Al	0.381370	0.596507	0.920101
	Al5638	Al	0.131460	0.596503	0.920154
	Al5639	Al	0.377843	0.528046	0.954884
	C5640	C	0.096864	0.625718	0.901594
	C5641	C	0.343318	0.557276	0.935866
	C5642	C	0.092162	0.498192	0.969409
	C5643	C	0.346217	0.566609	0.934877
	C5644	C	0.412069	0.555370	0.981571
	C5645	C	0.165421	0.623794	0.947107
	C5646	C	0.416990	0.570188	0.889980
	C5647	C	0.163352	0.501756	0.924511
	C5648	C	0.412333	0.498855	0.973504
	C5649	C	0.165812	0.567297	0.938894
	C5650	C	0.416949	0.626388	0.905788
	C5651	C	0.162938	0.557958	0.939884
	C5652	C	0.096463	0.569197	0.893403
	C5653	C	0.343778	0.500777	0.927864
	C5654	C	0.091936	0.554389	0.985005
	C5655	C	0.345736	0.622786	0.950640
	C5656	C	0.005246	0.621257	0.904121
	C5657	C	0.251631	0.552831	0.938409
	C5658	C	0.003492	0.503303	0.970973
	C5659	C	0.257549	0.571738	0.936358
	C5660	C	0.001054	0.550332	0.980428
	C5661	C	0.254914	0.618724	0.946010
	C5662	C	0.007113	0.574266	0.894528
	C5663	C	0.254308	0.505834	0.928990
	C5664	C	0.003675	0.611238	0.906720
	C5665	C	0.250023	0.542814	0.941296
	C5666	C	0.005318	0.513332	0.968367
	C5667	C	0.259371	0.581755	0.933650
	C5668	C	0.000094	0.541004	0.973210
	C5669	C	0.254286	0.609440	0.938679
	C5670	C	0.008134	0.583578	0.901764
	C5671	C	0.255029	0.515136	0.936296
	H5672	H	0.165881	0.621848	0.900175
	H5673	H	0.412259	0.553386	0.934636
	H5674	H	0.163378	0.501540	0.967456
	H5675	H	0.417417	0.569946	0.932895
	H5676	H	0.341352	0.552342	0.978044
	H5677	H	0.094601	0.620776	0.943572
	H5678	H	0.347344	0.574013	0.890647
	H5679	H	0.093605	0.505562	0.925257
	H5680	H	0.343486	0.502742	0.974885
	H5681	H	0.096904	0.571195	0.940145
	H5682	H	0.345810	0.623039	0.907835
	H5683	H	0.091748	0.554614	0.941920
	H5684	H	0.167341	0.572206	0.896868
	H5685	H	0.414639	0.503781	0.931367
	H5686	H	0.161561	0.550551	0.984382
	H5687	H	0.415474	0.618963	0.949998
	O5688	O	0.588138	0.607101	0.907081
	O5689	O	0.834038	0.538673	0.941410
	O5690	O	0.591056	0.516991	0.966214
	O5691	O	0.844216	0.585407	0.931965
	O5692	O	0.915111	0.537637	0.969661
	O5693	O	0.668937	0.606046	0.935235
	O5694	O	0.923617	0.587508	0.904040
	O5695	O	0.670375	0.519053	0.938458
	O5696	O	0.921307	0.517510	0.968064
	O5697	O	0.674629	0.585926	0.933581
	O5698	O	0.918390	0.607544	0.908713
	O5699	O	0.664442	0.539117	0.943039
	O5700	O	0.593767	0.586915	0.905331
	O5701	O	0.839910	0.518455	0.939762
	O5702	O	0.585283	0.537110	0.970831
	O5703	O	0.838468	0.605532	0.936542
	F5704	F	0.502219	0.528736	0.942898
	F5705	F	0.756229	0.597175	0.908456
	F5706	F	0.506450	0.595807	0.932097
	F5707	F	0.753230	0.527385	0.966563
	Al5708	Al	0.627842	0.528066	0.954706
	Al5709	Al	0.881733	0.596488	0.920383
	Al5710	Al	0.631442	0.596486	0.920283
	Al5711	Al	0.878183	0.528068	0.954646
	C5712	C	0.597132	0.625734	0.901534
	C5713	C	0.842899	0.557289	0.935966
	C5714	C	0.592392	0.498158	0.969251
	C5715	C	0.845746	0.566616	0.935104
	C5716	C	0.911616	0.555422	0.981422
	C5717	C	0.664983	0.623798	0.947038
	C5718	C	0.916044	0.570199	0.890059
	C5719	C	0.663026	0.501761	0.924386
	C5720	C	0.911790	0.498844	0.973413
	C5721	C	0.665357	0.567285	0.939119
	C5722	C	0.916639	0.626385	0.905864
	C5723	C	0.662505	0.557940	0.939983
	C5724	C	0.597307	0.569186	0.893422
	C5725	C	0.843308	0.500733	0.927912
	C5726	C	0.592472	0.554366	0.984999
	C5727	C	0.845326	0.622803	0.950605
	C5728	C	0.505573	0.621253	0.904041
	C5729	C	0.751241	0.552829	0.938409
	C5730	C	0.503943	0.503299	0.970960
	C5731	C	0.756982	0.571739	0.936643
	C5732	C	0.501534	0.550304	0.980504
	C5733	C	0.754435	0.618724	0.946046
	C5734	C	0.507933	0.574255	0.894474
	C5735	C	0.753957	0.505810	0.928961
	C5736	C	0.503806	0.611241	0.906648
	C5737	C	0.749633	0.542804	0.941058
	C5738	C	0.505808	0.513320	0.968289
	C5739	C	0.758808	0.581756	0.933935
	C5740	C	0.500714	0.540982	0.973283
	C5741	C	0.753821	0.609417	0.938821
	C5742	C	0.508737	0.583576	0.901694
	C5743	C	0.754803	0.515122	0.936185
	H5744	H	0.666160	0.621867	0.900129
	H5745	H	0.911915	0.553406	0.934688
	H5746	H	0.663510	0.501506	0.967215
	H5747	H	0.916899	0.569974	0.933136
	H5748	H	0.840867	0.552409	0.977866
	H5749	H	0.594235	0.620779	0.943473
	H5750	H	0.846391	0.574022	0.890773
	H5751	H	0.593352	0.505593	0.924991
	H5752	H	0.842956	0.502734	0.974736
	H5753	H	0.596397	0.571165	0.940421
	H5754	H	0.845454	0.623041	0.907942
	H5755	H	0.591337	0.554590	0.941968
	H5756	H	0.668162	0.572193	0.896925
	H5757	H	0.914305	0.503718	0.931409
	H5758	H	0.662105	0.550535	0.984318
	H5759	H	0.915037	0.618968	0.949978
	O5760	O	0.088032	0.732085	0.032055
	O5761	O	0.334292	0.663664	0.066609
	O5762	O	0.090401	0.641980	0.091297
	O5763	O	0.344271	0.710433	0.056797
	O5764	O	0.415476	0.662623	0.094687
	O5765	O	0.169393	0.731072	0.060159
	O5766	O	0.423770	0.712457	0.029052
	O5767	O	0.170141	0.644004	0.063616
	O5768	O	0.420748	0.642458	0.092935
	O5769	O	0.174705	0.710902	0.058401
	O5770	O	0.418559	0.732565	0.033650
	O5771	O	0.164702	0.664120	0.068166
	O5772	O	0.093409	0.711904	0.030395
	O5773	O	0.339772	0.643523	0.064715
	O5774	O	0.084901	0.662116	0.095900
	O5775	O	0.338923	0.730529	0.061430
	F5776	F	0.002592	0.653757	0.067795
	F5777	F	0.256147	0.722178	0.033282
	F5778	F	0.006938	0.720817	0.057260
	F5779	F	0.252877	0.652355	0.091691
	Al5780	Al	0.127737	0.653057	0.079764
	Al5781	Al	0.381436	0.721497	0.045245
	Al5782	Al	0.131459	0.721501	0.045234
	Al5783	Al	0.377673	0.653060	0.079740
	C5784	C	0.097100	0.750719	0.026599
	C5785	C	0.343262	0.682280	0.060998
	C5786	C	0.092061	0.623169	0.094342
	C5787	C	0.345975	0.691610	0.060048
	C5788	C	0.411690	0.680375	0.106490
	C5789	C	0.165622	0.748841	0.071935
	C5790	C	0.416768	0.695161	0.015022
	C5791	C	0.163238	0.626755	0.049459
	C5792	C	0.411752	0.623824	0.098526
	C5793	C	0.165519	0.692289	0.063920
	C5794	C	0.416926	0.751389	0.030743
	C5795	C	0.162795	0.682947	0.064867
	C5796	C	0.096903	0.694184	0.018473
	C5797	C	0.343495	0.625750	0.052919
	C5798	C	0.091798	0.679414	0.109922
	C5799	C	0.345793	0.747814	0.075678
	C5800	C	0.005508	0.746262	0.029156
	C5801	C	0.251596	0.677830	0.063462
	C5802	C	0.003386	0.628288	0.096027
	C5803	C	0.257236	0.696734	0.061555
	C5804	C	0.000895	0.675332	0.105401
	C5805	C	0.255100	0.743759	0.070965
	C5806	C	0.007447	0.699252	0.019559
	C5807	C	0.254105	0.630829	0.053964
	C5808	C	0.003750	0.736237	0.031746
	C5809	C	0.249945	0.667806	0.066213
	C5810	C	0.005213	0.638318	0.093375
	C5811	C	0.259023	0.706756	0.058785
	C5812	C	0.000320	0.666003	0.098214
	C5813	C	0.254421	0.734437	0.063731
	C5814	C	0.008261	0.708560	0.026806
	C5815	C	0.254816	0.640139	0.061210
	H5816	H	0.166015	0.746842	0.025172
	H5817	H	0.412216	0.678405	0.059757
	H5818	H	0.163142	0.626529	0.092341
	H5819	H	0.417077	0.694955	0.058054
	H5820	H	0.340864	0.677368	0.102960
	H5821	H	0.094805	0.745832	0.068357
	H5822	H	0.347052	0.698987	0.015634
	H5823	H	0.093382	0.630547	0.050126
	H5824	H	0.342941	0.627706	0.099990
	H5825	H	0.096485	0.696179	0.065091
	H5826	H	0.345842	0.748032	0.032836
	H5827	H	0.091705	0.679586	0.066768
	H5828	H	0.167805	0.697194	0.021980
	H5829	H	0.414375	0.628747	0.056457
	H5830	H	0.161540	0.675593	0.109266
	H5831	H	0.415534	0.743981	0.075155
	O5832	O	0.588143	0.732107	0.032101
	O5833	O	0.834104	0.663649	0.066544
	O5834	O	0.590312	0.641981	0.091366
	O5835	O	0.843905	0.710406	0.056939
	O5836	O	0.915237	0.662618	0.094717
	O5837	O	0.668747	0.731046	0.060253
	O5838	O	0.923868	0.712487	0.029094
	O5839	O	0.670070	0.643995	0.063665
	O5840	O	0.920840	0.642477	0.093054
	O5841	O	0.674305	0.710847	0.058325
	O5842	O	0.918434	0.732534	0.033677
	O5843	O	0.664531	0.664095	0.068101
	O5844	O	0.593382	0.711935	0.030258
	O5845	O	0.839588	0.643468	0.064826
	O5846	O	0.585043	0.662102	0.095914
	O5847	O	0.838401	0.730540	0.061547
	F5848	F	0.502397	0.653755	0.067836
	F5849	F	0.756221	0.722192	0.033414
	F5850	F	0.506544	0.720794	0.057150
	F5851	F	0.752915	0.652369	0.091666
	Al5852	Al	0.627599	0.653034	0.079786
	Al5853	Al	0.881659	0.721493	0.045370
	Al5854	Al	0.631303	0.721487	0.045247
	Al5855	Al	0.877957	0.653063	0.079737
	C5856	C	0.597131	0.750725	0.026407
	C5857	C	0.843015	0.682255	0.060962
	C5858	C	0.591910	0.623158	0.094230
	C5859	C	0.845744	0.691583	0.060035
	C5860	C	0.911414	0.680411	0.106441
	C5861	C	0.664938	0.748815	0.071984
	C5862	C	0.916470	0.695190	0.014945
	C5863	C	0.662969	0.626731	0.049424
	C5864	C	0.911764	0.623840	0.098554
	C5865	C	0.665298	0.692253	0.063976
	C5866	C	0.916868	0.751385	0.030928
	C5867	C	0.662592	0.682913	0.064910
	C5868	C	0.597145	0.694175	0.018536
	C5869	C	0.843231	0.625715	0.053029
	C5870	C	0.592094	0.679378	0.109966
	C5871	C	0.845218	0.747775	0.075761
	C5872	C	0.505555	0.746274	0.029003
	C5873	C	0.751397	0.677804	0.063419
	C5874	C	0.503193	0.628282	0.095901
	C5875	C	0.756961	0.696699	0.061546
	C5876	C	0.501146	0.675305	0.105421
	C5877	C	0.754347	0.743736	0.071041
	C5878	C	0.507628	0.699237	0.019592
	C5879	C	0.753814	0.630786	0.054062
	C5880	C	0.503824	0.736254	0.031714
	C5881	C	0.749751	0.667783	0.066148
	C5882	C	0.504979	0.638304	0.093273
	C5883	C	0.758672	0.706717	0.058816
	C5884	C	0.500452	0.665996	0.098221
	C5885	C	0.753677	0.734426	0.063809
	C5886	C	0.508352	0.708560	0.026752
	C5887	C	0.754572	0.640097	0.061329
	H5888	H	0.666076	0.746845	0.024981
	H5889	H	0.912077	0.678379	0.059727
	H5890	H	0.662932	0.626537	0.092217
	H5891	H	0.916816	0.694941	0.058074
	H5892	H	0.840606	0.677390	0.102946
	H5893	H	0.594182	0.745813	0.068371
	H5894	H	0.846736	0.699017	0.015570
	H5895	H	0.593271	0.630557	0.050012
	H5896	H	0.842937	0.627726	0.099976
	H5897	H	0.596347	0.696134	0.065194
	H5898	H	0.845734	0.748030	0.032996
	H5899	H	0.591532	0.679549	0.066854
	H5900	H	0.668004	0.697195	0.022034
	H5901	H	0.914103	0.628710	0.056577
	H5902	H	0.661808	0.675556	0.109301
	H5903	H	0.914827	0.743920	0.075287
	O5904	O	0.084417	0.726187	0.129202
	O5905	O	0.329953	0.657683	0.162956
	O5906	O	0.086235	0.636082	0.188009
	O5907	O	0.340567	0.704487	0.153879
	O5908	O	0.411248	0.656678	0.191133
	O5909	O	0.165473	0.725131	0.157195
	O5910	O	0.420329	0.706518	0.126085
	O5911	O	0.166281	0.637993	0.160208
	O5912	O	0.416936	0.636618	0.189730
	O5913	O	0.170982	0.704944	0.155386
	O5914	O	0.414779	0.726612	0.130659
	O5915	O	0.160422	0.658166	0.164575
	O5916	O	0.089707	0.706002	0.127277
	O5917	O	0.335859	0.637433	0.161546
	O5918	O	0.080584	0.656117	0.192428
	O5919	O	0.335027	0.724589	0.158426
	F5920	F	-0.001539	0.647770	0.164213
	F5921	F	0.252351	0.716261	0.130291
	F5922	F	0.003003	0.714858	0.154220
	F5923	F	0.248657	0.646445	0.188154
	Al5924	Al	0.123491	0.647092	0.176170
	Al5925	Al	0.377564	0.715555	0.142232
	Al5926	Al	0.127760	0.715550	0.142267
	Al5927	Al	0.373476	0.647110	0.176207
	C5928	C	0.093088	0.744799	0.123392
	C5929	C	0.339200	0.676315	0.157603
	C5930	C	0.086897	0.617291	0.192939
	C5931	C	0.342002	0.685648	0.156822
	C5932	C	0.407729	0.674364	0.203172
	C5933	C	0.161695	0.742872	0.168998
	C5934	C	0.413075	0.689244	0.111940
	C5935	C	0.159237	0.620690	0.146256
	C5936	C	0.407828	0.618178	0.198019
	C5937	C	0.161670	0.686339	0.160891
	C5938	C	0.413056	0.745429	0.127610
	C5939	C	0.158866	0.677000	0.161695
	C5940	C	0.093066	0.688282	0.115346
	C5941	C	0.339248	0.619595	0.150331
	C5942	C	0.087665	0.673300	0.207021
	C5943	C	0.342019	0.741869	0.172582
	C5944	C	0.001547	0.740344	0.125932
	C5945	C	0.247447	0.671873	0.160040
	C5946	C	-0.001211	0.622511	0.194333
	C5947	C	0.253414	0.690775	0.158424
	C5948	C	-0.003200	0.669278	0.202240
	C5949	C	0.251193	0.737809	0.167952
	C5950	C	0.003673	0.693349	0.116397
	C5951	C	0.250030	0.624708	0.151056
	C5952	C	0.000080	0.730317	0.128711
	C5953	C	0.245699	0.661844	0.162639
	C5954	C	0.001039	0.632465	0.190463
	C5955	C	0.255322	0.700800	0.155784
	C5956	C	-0.003929	0.660005	0.194826
	C5957	C	0.250489	0.728495	0.160726
	C5958	C	0.004738	0.702670	0.123642
	C5959	C	0.250802	0.634053	0.158088
	H5960	H	0.162155	0.740923	0.122086
	H5961	H	0.408114	0.672425	0.156286
	H5962	H	0.157827	0.620531	0.189959
	H5963	H	0.413163	0.689000	0.154879
	H5964	H	0.337016	0.671409	0.199399
	H5965	H	0.090944	0.739851	0.165448
	H5966	H	0.343488	0.693078	0.112596
	H5967	H	0.089677	0.624544	0.146750
	H5968	H	0.339332	0.622135	0.199223
	H5969	H	0.092878	0.690224	0.162237
	H5970	H	0.341958	0.742077	0.129724
	H5971	H	0.087702	0.673656	0.163698
	H5972	H	0.163893	0.691306	0.118848
	H5973	H	0.409883	0.622545	0.154181
	H5974	H	0.157325	0.669461	0.206442
	H5975	H	0.411654	0.738027	0.171987
	O5976	O	0.584336	0.726141	0.128971
	O5977	O	0.829531	0.657699	0.162876
	O5978	O	0.586419	0.636093	0.188024
	O5979	O	0.840568	0.704457	0.153746
	O5980	O	0.911010	0.656647	0.191202
	O5981	O	0.664977	0.725121	0.157229
	O5982	O	0.920199	0.706597	0.125888
	O5983	O	0.665794	0.638013	0.160176
	O5984	O	0.916741	0.636635	0.189728
	O5985	O	0.671081	0.704989	0.155533
	O5986	O	0.914720	0.726626	0.130632
	O5987	O	0.660098	0.658191	0.164704
	O5988	O	0.589905	0.705964	0.127340
	O5989	O	0.835359	0.637439	0.161451
	O5990	O	0.580779	0.656086	0.192486
	O5991	O	0.834547	0.724607	0.158479
	F5992	F	0.498199	0.647784	0.164291
	F5993	F	0.752458	0.716269	0.130381
	F5994	F	0.502820	0.714859	0.154166
	F5995	F	0.748782	0.646448	0.188098
	Al5996	Al	0.623483	0.647108	0.176191
	Al5997	Al	0.878046	0.715570	0.142238
	Al5998	Al	0.627624	0.715552	0.142264
	Al5999	Al	0.873646	0.647118	0.176137
	C6000	C	0.593247	0.744778	0.123359
	C6001	C	0.838822	0.676341	0.157659
	C6002	C	0.587209	0.617278	0.192902
	C6003	C	0.841791	0.685671	0.156873
	C6004	C	0.907377	0.674361	0.203271
	C6005	C	0.661263	0.742916	0.168876
	C6006	C	0.912723	0.689280	0.111864
	C6007	C	0.658567	0.620730	0.146130
	C6008	C	0.907377	0.618191	0.198045
	C6009	C	0.661397	0.686355	0.160938
	C6010	C	0.912824	0.745463	0.127573
	C6011	C	0.658463	0.677016	0.161731
	C6012	C	0.593423	0.688246	0.115418
	C6013	C	0.838658	0.619638	0.150161
	C6014	C	0.587820	0.673267	0.207131
	C6015	C	0.841484	0.741870	0.172589
	C6016	C	0.501715	0.740312	0.125908
	C6017	C	0.747128	0.671896	0.160122
	C6018	C	0.499164	0.622501	0.194292
	C6019	C	0.753140	0.690791	0.158477
	C6020	C	0.497052	0.669257	0.202271
	C6021	C	0.750616	0.737815	0.167975
	C6022	C	0.504002	0.693305	0.116493
	C6023	C	0.749355	0.624740	0.150922
	C6024	C	0.500025	0.730287	0.128633
	C6025	C	0.745338	0.661866	0.162692
	C6026	C	0.501160	0.632461	0.190436
	C6027	C	0.755186	0.700811	0.155807
	C6028	C	0.496304	0.659994	0.194832
	C6029	C	0.749928	0.728494	0.160779
	C6030	C	0.504846	0.702611	0.123770
	C6031	C	0.750218	0.634072	0.158016
	H6032	H	0.662285	0.740909	0.122015
	H6033	H	0.907706	0.672458	0.156304
	H6034	H	0.658083	0.620523	0.189914
	H6035	H	0.912904	0.689016	0.154915
	H6036	H	0.836535	0.671390	0.199600
	H6037	H	0.590553	0.739907	0.165239
	H6038	H	0.843110	0.693111	0.112521
	H6039	H	0.589084	0.624590	0.146617
	H6040	H	0.838893	0.622153	0.199252
	H6041	H	0.592543	0.690247	0.162279
	H6042	H	0.841761	0.742110	0.129671
	H6043	H	0.587320	0.673662	0.163688
	H6044	H	0.664215	0.691265	0.118946
	H6045	H	0.909257	0.622597	0.153995
	H6046	H	0.657457	0.669417	0.206616
	H6047	H	0.911155	0.738029	0.172020
	O6048	O	0.079855	0.720191	0.225343
	O6049	O	0.324555	0.651975	0.266019
	O6050	O	0.080416	0.632355	0.297788
	O6051	O	0.336180	0.698575	0.250378
	O6052	O	0.405643	0.652129	0.294696
	O6053	O	0.160999	0.719160	0.253613
	O6054	O	0.416072	0.700480	0.222704
	O6055	O	0.161375	0.632654	0.266485
	O6056	O	0.411989	0.633057	0.299275
	O6057	O	0.166771	0.699121	0.252193
	O6058	O	0.410536	0.720668	0.227078
	O6059	O	0.155078	0.652635	0.267918
	O6060	O	0.085470	0.699989	0.223937
	O6061	O	0.330757	0.631956	0.268386
	O6062	O	0.075210	0.651491	0.296275
	O6063	O	0.330548	0.718612	0.254892
	F6064	F	-0.006615	0.642056	0.269643
	F6065	F	0.248091	0.710287	0.226733
	F6066	F	-0.001244	0.708954	0.250632
	F6067	F	0.243468	0.641972	0.293338
	Al6068	Al	0.118272	0.642040	0.281423
	Al6069	Al	0.373397	0.709605	0.238639
	Al6070	Al	0.123420	0.709622	0.238652
	Al6071	Al	0.368174	0.642051	0.281505
	C6072	C	0.089059	0.738840	0.220069
	C6073	C	0.334443	0.670468	0.257813
	C6074	C	0.086421	0.617055	0.322294
	C6075	C	0.337349	0.679789	0.255509
	C6076	C	0.402707	0.669686	0.306930
	C6077	C	0.157404	0.736862	0.265708
	C6078	C	0.409077	0.683215	0.208712
	C6079	C	0.154619	0.615863	0.250730
	C6080	C	0.407551	0.618604	0.325803
	C6081	C	0.157462	0.680635	0.260109
	C6082	C	0.409121	0.739488	0.224224
	C6083	C	0.154622	0.671335	0.262434
	C6084	C	0.089152	0.682154	0.212566
	C6085	C	0.334110	0.614466	0.255788
	C6086	C	0.082259	0.668355	0.311556
	C6087	C	0.337539	0.735766	0.269573
	C6088	C	-0.002571	0.734390	0.222560
	C6089	C	0.242887	0.666134	0.261263
	C6090	C	-0.003412	0.621615	0.317514
	C6091	C	0.248967	0.684983	0.256648
	C6092	C	-0.008469	0.664598	0.305945
	C6093	C	0.246703	0.731777	0.264684
	C6094	C	-0.000181	0.687251	0.213426
	C6095	C	0.245069	0.619584	0.256584
	C6096	C	-0.004319	0.724356	0.225119
	C6097	C	0.240621	0.656189	0.265324
	C6098	C	-0.003867	0.629569	0.303851
	C6099	C	0.250911	0.694946	0.252812
	C6100	C	-0.009339	0.655400	0.298386
	C6101	C	0.245968	0.722504	0.257251
	C6102	C	0.000535	0.696598	0.220482
	C6103	C	0.245799	0.628729	0.264373
	H6104	H	0.158048	0.734964	0.218688
	H6105	H	0.402996	0.666493	0.256877
	H6106	H	0.155776	0.619275	0.315880
	H6107	H	0.408168	0.683080	0.252718
	H6108	H	0.332478	0.666873	0.302482
	H6109	H	0.086732	0.733870	0.261986
	H6110	H	0.339569	0.687076	0.209209
	H6111	H	0.085502	0.619776	0.251114
	H6112	H	0.337858	0.622091	0.322235
	H6113	H	0.088733	0.684564	0.261078
	H6114	H	0.337960	0.736141	0.226228
	H6115	H	0.083588	0.668095	0.265293
	H6116	H	0.159839	0.685130	0.216287
	H6117	H	0.404321	0.617234	0.260403
	H6118	H	0.151311	0.664436	0.310978
	H6119	H	0.406890	0.731881	0.269050
	O6120	O	0.580085	0.720179	0.225343
	O6121	O	0.823991	0.651991	0.265943
	O6122	O	0.581016	0.632293	0.297691
	O6123	O	0.835930	0.698546	0.250391
	O6124	O	0.905630	0.652134	0.294600
	O6125	O	0.660596	0.719184	0.253564
	O6126	O	0.915886	0.700521	0.222679
	O6127	O	0.660988	0.632693	0.266379
	O6128	O	0.911389	0.633037	0.299234
	O6129	O	0.666556	0.699123	0.252219
	O6130	O	0.910283	0.720674	0.227080
	O6131	O	0.654505	0.652639	0.267923
	O6132	O	0.585695	0.699970	0.223940
	O6133	O	0.830366	0.631968	0.268309
	O6134	O	0.575099	0.651451	0.296400
	O6135	O	0.830156	0.718598	0.255002
	F6136	F	0.492839	0.642069	0.269765
	F6137	F	0.748331	0.710262	0.226772
	F6138	F	0.498610	0.708938	0.250583
	F6139	F	0.743369	0.641991	0.293253
	Al6140	Al	0.618122	0.642029	0.281435
	Al6141	Al	0.873643	0.709607	0.238701
	Al6142	Al	0.623437	0.709612	0.238616
	Al6143	Al	0.868170	0.642052	0.281377
	C6144	C	0.589338	0.738817	0.220044
	C6145	C	0.833807	0.670460	0.257714
	C6146	C	0.586977	0.617034	0.322330
	C6147	C	0.836842	0.679780	0.255425
	C6148	C	0.902405	0.669703	0.306863
	C6149	C	0.656974	0.736857	0.265700
	C6150	C	0.908878	0.683214	0.208777
	C6151	C	0.653965	0.615879	0.250740
	C6152	C	0.906989	0.618627	0.325799
	C6153	C	0.657064	0.680653	0.260211
	C6154	C	0.908740	0.739519	0.224242
	C6155	C	0.654091	0.671350	0.262514
	C6156	C	0.589155	0.682116	0.212672
	C6157	C	0.833557	0.614467	0.255897
	C6158	C	0.582561	0.668341	0.311637
	C6159	C	0.837125	0.735781	0.269574
	C6160	C	0.497751	0.734366	0.222551
	C6161	C	0.742247	0.666141	0.261247
	C6162	C	0.497193	0.621603	0.317552
	C6163	C	0.748557	0.684982	0.256663
	C6164	C	0.491811	0.664573	0.306012
	C6165	C	0.746322	0.731782	0.264758
	C6166	C	0.499941	0.687228	0.213470
	C6167	C	0.744489	0.619594	0.256586
	C6168	C	0.495866	0.724338	0.225117
	C6169	C	0.740000	0.656195	0.265294
	C6170	C	0.496719	0.629537	0.303814
	C6171	C	0.750613	0.694943	0.252847
	C6172	C	0.490711	0.655389	0.298468
	C6173	C	0.745611	0.722506	0.257290
	C6174	C	0.500704	0.696572	0.220519
	C6175	C	0.745336	0.628749	0.264319
	H6176	H	0.658338	0.734945	0.218644
	H6177	H	0.902264	0.666475	0.256700
	H6178	H	0.656487	0.619225	0.315898
	H6179	H	0.907655	0.683065	0.252578
	H6180	H	0.832148	0.666888	0.302423
	H6181	H	0.586460	0.733851	0.261969
	H6182	H	0.839285	0.687060	0.209354
	H6183	H	0.584926	0.619810	0.251123
	H6184	H	0.837422	0.622139	0.322283
	H6185	H	0.588404	0.684594	0.261275
	H6186	H	0.837523	0.736166	0.226250
	H6187	H	0.583108	0.668124	0.265433
	H6188	H	0.659810	0.685084	0.216471
	H6189	H	0.903612	0.617241	0.260594
	H6190	H	0.651632	0.664430	0.311041
	H6191	H	0.906439	0.731902	0.268997
	O6192	O	0.074577	0.714512	0.328708
	O6193	O	0.332733	0.658103	0.425145
	O6194	O	0.088354	0.641276	0.463524
	O6195	O	0.330602	0.694809	0.360260
	O6196	O	0.413624	0.660594	0.455979
	O6197	O	0.155573	0.714608	0.357221
	O6198	O	0.411070	0.695110	0.329179
	O6199	O	0.168964	0.640079	0.431624
	O6200	O	0.419284	0.642073	0.464852
	O6201	O	0.161551	0.695503	0.361728
	O6202	O	0.404893	0.715125	0.330441
	O6203	O	0.163469	0.658856	0.426482
	O6204	O	0.080627	0.694481	0.330785
	O6205	O	0.338329	0.639420	0.433617
	O6206	O	0.083243	0.659896	0.457944
	O6207	O	0.325178	0.713942	0.359005
	F6208	F	0.000770	0.649258	0.433403
	F6209	F	0.242913	0.704560	0.332329
	F6210	F	-0.006834	0.704481	0.355881
	F6211	F	0.250994	0.650707	0.456242
	Al6212	Al	0.125917	0.649981	0.444811
	Al6213	Al	0.368064	0.704520	0.344023
	Al6214	Al	0.118072	0.704536	0.344017
	Al6215	Al	0.375813	0.649990	0.444848
	C6216	C	0.083841	0.732983	0.320381
	C6217	C	0.336923	0.672229	0.397735
	C6218	C	0.094034	0.627308	0.491316
	C6219	C	0.336684	0.679546	0.384866
	C6220	C	0.410494	0.677760	0.469895
	C6221	C	0.152748	0.732213	0.369300
	C6222	C	0.404183	0.678356	0.313416
	C6223	C	0.162124	0.623700	0.414909
	C6224	C	0.414824	0.629056	0.494486
	C6225	C	0.157468	0.681098	0.388264
	C6226	C	0.404433	0.733876	0.325161
	C6227	C	0.157722	0.673764	0.401175
	C6228	C	0.083718	0.677017	0.318040
	C6229	C	0.341909	0.622245	0.419582
	C6230	C	0.090002	0.676312	0.474495
	C6231	C	0.332350	0.730811	0.374330
	C6232	C	-0.007587	0.728647	0.323936
	C6233	C	0.247569	0.669265	0.406083
	C6234	C	0.004271	0.631643	0.485631
	C6235	C	0.246988	0.684083	0.380016
	C6236	C	-0.000499	0.672757	0.468427
	C6237	C	0.241683	0.727071	0.368634
	C6238	C	-0.005375	0.682110	0.319001
	C6239	C	0.252714	0.627237	0.421124
	C6240	C	-0.009579	0.718690	0.327945
	C6241	C	0.247989	0.661524	0.420272
	C6242	C	0.003848	0.638826	0.470185
	C6243	C	0.246380	0.692015	0.366315
	C6244	C	-0.001277	0.663770	0.460121
	C6245	C	0.240643	0.717862	0.361092
	C6246	C	-0.004386	0.691243	0.326854
	C6247	C	0.253586	0.636223	0.429442
	H6248	H	0.152474	0.729034	0.319337
	H6249	H	0.406562	0.668770	0.401298
	H6250	H	0.163376	0.629203	0.484436
	H6251	H	0.406115	0.681729	0.378510
	H6252	H	0.340761	0.675064	0.464988
	H6253	H	0.082566	0.729421	0.364687
	H6254	H	0.335216	0.682270	0.314039
	H6255	H	0.093290	0.627592	0.415875
	H6256	H	0.345420	0.632426	0.490283
	H6257	H	0.088075	0.684614	0.384638
	H6258	H	0.333504	0.730634	0.328111
	H6259	H	0.088625	0.671529	0.407638
	H6260	H	0.153820	0.679829	0.322586
	H6261	H	0.411739	0.624953	0.424419
	H6262	H	0.158768	0.672449	0.473363
	H6263	H	0.401251	0.726861	0.373855
	O6264	O	0.574543	0.714503	0.328692
	O6265	O	0.832438	0.658115	0.425195
	O6266	O	0.588445	0.641251	0.463535
	O6267	O	0.830611	0.694828	0.360322
	O6268	O	0.913845	0.660576	0.456013
	O6269	O	0.655262	0.714638	0.357182
	O6270	O	0.911197	0.695133	0.329105
	O6271	O	0.669079	0.640082	0.431559
	O6272	O	0.919198	0.642094	0.464876
	O6273	O	0.661656	0.695525	0.361783
	O6274	O	0.904927	0.715109	0.330454
	O6275	O	0.663231	0.658827	0.426460
	O6276	O	0.580546	0.694477	0.330875
	O6277	O	0.838471	0.639382	0.433579
	O6278	O	0.583059	0.659880	0.457956
	O6279	O	0.824767	0.713982	0.358962
	F6280	F	0.500684	0.649231	0.433435
	F6281	F	0.743051	0.704537	0.332349
	F6282	F	0.493145	0.704484	0.355906
	F6283	F	0.751127	0.650687	0.456191
	Al6284	Al	0.625848	0.649951	0.444800
	Al6285	Al	0.868408	0.704536	0.344092
	Al6286	Al	0.618006	0.704543	0.344027
	Al6287	Al	0.876063	0.649989	0.444800
	C6288	C	0.584132	0.732976	0.320328
	C6289	C	0.836664	0.672232	0.397778
	C6290	C	0.594202	0.627279	0.491286
	C6291	C	0.836489	0.679545	0.384914
	C6292	C	0.910545	0.677769	0.469915
	C6293	C	0.652196	0.732220	0.369251
	C6294	C	0.903903	0.678371	0.313331
	C6295	C	0.661874	0.623696	0.414905
	C6296	C	0.914529	0.629047	0.494456
	C6297	C	0.657389	0.681124	0.388321
	C6298	C	0.904166	0.733870	0.325208
	C6299	C	0.657549	0.673785	0.401226
	C6300	C	0.584034	0.677010	0.318145
	C6301	C	0.841739	0.622214	0.419551
	C6302	C	0.590248	0.676274	0.474611
	C6303	C	0.831805	0.730812	0.374283
	C6304	C	0.492621	0.728656	0.323895
	C6305	C	0.747222	0.669243	0.406049
	C6306	C	0.504369	0.631601	0.485584
	C6307	C	0.746848	0.684092	0.380051
	C6308	C	0.499632	0.672768	0.468405
	C6309	C	0.741085	0.727067	0.368612
	C6310	C	0.494911	0.682099	0.319059
	C6311	C	0.752569	0.627233	0.420989
	C6312	C	0.490455	0.718698	0.327920
	C6313	C	0.747702	0.661516	0.420278
	C6314	C	0.504039	0.638822	0.470218
	C6315	C	0.746396	0.692022	0.366342
	C6316	C	0.498594	0.663758	0.460145
	C6317	C	0.740222	0.717893	0.361020
	C6318	C	0.495638	0.691224	0.326943
	C6319	C	0.753633	0.636216	0.429343
	H6320	H	0.652740	0.729021	0.319270
	H6321	H	0.906412	0.668788	0.401402
	H6322	H	0.663625	0.629182	0.484447
	H6323	H	0.906059	0.681736	0.378563
	H6324	H	0.840886	0.675077	0.464998
	H6325	H	0.582144	0.729443	0.364586
	H6326	H	0.834963	0.682291	0.313912
	H6327	H	0.593092	0.627582	0.415958
	H6328	H	0.844922	0.632371	0.490186
	H6329	H	0.588231	0.684648	0.384721
	H6330	H	0.833214	0.730619	0.328136
	H6331	H	0.588546	0.671586	0.407742
	H6332	H	0.654085	0.679814	0.322710
	H6333	H	0.911519	0.624913	0.424454
	H6334	H	0.659007	0.672381	0.473597
	H6335	H	0.900824	0.726885	0.373740
	O6336	O	0.082488	0.720580	0.487736
	O6337	O	0.339640	0.669928	0.597624
	O6338	O	0.095598	0.653168	0.635835
	O6339	O	0.338641	0.703722	0.526050
	O6340	O	0.420573	0.672658	0.628764
	O6341	O	0.163323	0.723057	0.518490
	O6342	O	0.419067	0.702540	0.494243
	O6343	O	0.176578	0.652190	0.604392
	O6344	O	0.426552	0.653946	0.637299
	O6345	O	0.169536	0.704574	0.527421
	O6346	O	0.413187	0.721348	0.489055
	O6347	O	0.170553	0.670823	0.599019
	O6348	O	0.088845	0.701866	0.496189
	O6349	O	0.345898	0.651444	0.606572
	O6350	O	0.090333	0.671926	0.630942
	O6351	O	0.332791	0.722370	0.520498
	F6352	F	0.007965	0.661351	0.606185
	F6353	F	0.250796	0.711737	0.495980
	F6354	F	0.001065	0.713151	0.518827
	F6355	F	0.258278	0.662774	0.629059
	Al6356	Al	0.133256	0.662075	0.617605
	Al6357	Al	0.375844	0.712446	0.507380
	Al6358	Al	0.126087	0.712465	0.507373
	Al6359	Al	0.383103	0.662047	0.617661
	C6360	C	0.086513	0.734641	0.460077
	C6361	C	0.344441	0.682928	0.567911
	C6362	C	0.101356	0.638314	0.661346
	C6363	C	0.344196	0.689664	0.553667
	C6364	C	0.417468	0.689889	0.642521
	C6365	C	0.160207	0.740279	0.532327
	C6366	C	0.412094	0.686181	0.477446
	C6367	C	0.168888	0.635809	0.587753
	C6368	C	0.422286	0.639860	0.664746
	C6369	C	0.164989	0.691578	0.557121
	C6370	C	0.407427	0.736365	0.463884
	C6371	C	0.165215	0.684841	0.571373
	C6372	C	0.091604	0.684744	0.482058
	C6373	C	0.348809	0.634237	0.592757
	C6374	C	0.097318	0.688280	0.647858
	C6375	C	0.339912	0.738789	0.537135
	C6376	C	-0.002850	0.731757	0.468675
	C6377	C	0.254851	0.680440	0.576937
	C6378	C	0.011591	0.642851	0.656493
	C6379	C	0.254620	0.694088	0.548153
	C6380	C	0.006892	0.684807	0.641416
	C6381	C	0.249175	0.735245	0.530985
	C6382	C	0.002700	0.689744	0.483595
	C6383	C	0.259685	0.639294	0.594044
	C6384	C	-0.002281	0.724025	0.482898
	C6385	C	0.254995	0.673225	0.592321
	C6386	C	0.011217	0.650556	0.642176
	C6387	C	0.254276	0.701295	0.532745
	C6388	C	0.006032	0.675830	0.633031
	C6389	C	0.248154	0.726242	0.522653
	C6390	C	0.003902	0.698691	0.492025
	C6391	C	0.261040	0.648293	0.602326
	H6392	H	0.156095	0.731087	0.463495
	H6393	H	0.413773	0.679511	0.571973
	H6394	H	0.170678	0.640488	0.654849
	H6395	H	0.413487	0.691460	0.546691
	H6396	H	0.347815	0.687271	0.637311
	H6397	H	0.090357	0.737594	0.527406
	H6398	H	0.343341	0.690060	0.478432
	H6399	H	0.100249	0.639752	0.588621
	H6400	H	0.352839	0.643366	0.661170
	H6401	H	0.095484	0.694978	0.552947
	H6402	H	0.338078	0.734250	0.470513
	H6403	H	0.095829	0.682986	0.578351
	H6404	H	0.161387	0.687447	0.486877
	H6405	H	0.418588	0.636926	0.597769
	H6406	H	0.165987	0.684342	0.647078
	H6407	H	0.408589	0.734878	0.536171
	O6408	O	0.582542	0.720612	0.487705
	O6409	O	0.839759	0.669982	0.597653
	O6410	O	0.595851	0.653168	0.635940
	O6411	O	0.838229	0.703731	0.526107
	O6412	O	0.921096	0.672698	0.628721
	O6413	O	0.663661	0.723069	0.518554
	O6414	O	0.919552	0.702557	0.494268
	O6415	O	0.676308	0.652171	0.604399
	O6416	O	0.926504	0.653990	0.637359
	O6417	O	0.669043	0.704550	0.527382
	O6418	O	0.913295	0.721337	0.489115
	O6419	O	0.670578	0.670798	0.598959
	O6420	O	0.588442	0.701897	0.496120
	O6421	O	0.845719	0.651437	0.606528
	O6422	O	0.589963	0.671925	0.630886
	O6423	O	0.833038	0.722391	0.520451
	F6424	F	0.508011	0.661333	0.606204
	F6425	F	0.750968	0.711728	0.495963
	F6426	F	0.500976	0.713179	0.518770
	F6427	F	0.758369	0.662797	0.628994
	Al6428	Al	0.633178	0.662062	0.617623
	Al6429	Al	0.876204	0.712443	0.507434
	Al6430	Al	0.625915	0.712481	0.507338
	Al6431	Al	0.883399	0.662066	0.617599
	C6432	C	0.586667	0.734629	0.460056
	C6433	C	0.844100	0.682944	0.567873
	C6434	C	0.601459	0.638251	0.661271
	C6435	C	0.843854	0.689671	0.553629
	C6436	C	0.918098	0.689899	0.642536
	C6437	C	0.660319	0.740279	0.532314
	C6438	C	0.912136	0.686198	0.477475
	C6439	C	0.669131	0.635804	0.587662
	C6440	C	0.922147	0.639906	0.664851
	C6441	C	0.664572	0.691601	0.557183
	C6442	C	0.907371	0.736373	0.463995
	C6443	C	0.664840	0.684863	0.571436
	C6444	C	0.591752	0.684695	0.482159
	C6445	C	0.848985	0.634239	0.592786
	C6446	C	0.596650	0.688226	0.647975
	C6447	C	0.840065	0.738778	0.537135
	C6448	C	0.497183	0.731762	0.468601
	C6449	C	0.754598	0.680440	0.576890
	C6450	C	0.511703	0.642785	0.656376
	C6451	C	0.754098	0.694069	0.548103
	C6452	C	0.506252	0.684783	0.641452
	C6453	C	0.749456	0.735236	0.530927
	C6454	C	0.502716	0.689730	0.483576
	C6455	C	0.759779	0.639292	0.594019
	C6456	C	0.497680	0.724023	0.482825
	C6457	C	0.755015	0.673233	0.592290
	C6458	C	0.511289	0.650508	0.642151
	C6459	C	0.753749	0.701282	0.532733
	C6460	C	0.505446	0.675812	0.633007
	C6461	C	0.748532	0.726254	0.522652
	C6462	C	0.503677	0.698702	0.491945
	C6463	C	0.760842	0.648289	0.602278
	H6464	H	0.656185	0.731073	0.463499
	H6465	H	0.913693	0.679551	0.571958
	H6466	H	0.670747	0.640431	0.654821
	H6467	H	0.913225	0.691505	0.546653
	H6468	H	0.848375	0.687273	0.637372
	H6469	H	0.590413	0.737596	0.527386
	H6470	H	0.843508	0.690084	0.478528
	H6471	H	0.600380	0.639730	0.588477
	H6472	H	0.852636	0.643391	0.661231
	H6473	H	0.595207	0.695036	0.553099
	H6474	H	0.838062	0.734265	0.470644
	H6475	H	0.595643	0.683045	0.578478
	H6476	H	0.661606	0.687379	0.487041
	H6477	H	0.918760	0.636905	0.597838
	H6478	H	0.665164	0.684261	0.647252
	H6479	H	0.908901	0.734873	0.536201
	O6480	O	0.089699	0.732469	0.660106
	O6481	O	0.347365	0.679043	0.763203
	O6482	O	0.104108	0.659458	0.794522
	O6483	O	0.345976	0.715695	0.698362
	O6484	O	0.428594	0.680083	0.794121
	O6485	O	0.170780	0.735201	0.691135
	O6486	O	0.426530	0.714690	0.666837
	O6487	O	0.184195	0.660616	0.766037
	O6488	O	0.434295	0.660097	0.796431
	O6489	O	0.176739	0.716488	0.699786
	O6490	O	0.420675	0.733324	0.661441
	O6491	O	0.178363	0.679768	0.764697
	O6492	O	0.096131	0.713952	0.669042
	O6493	O	0.353669	0.659939	0.767751
	O6494	O	0.098233	0.679438	0.795871
	O6495	O	0.340059	0.734448	0.693366
	F6496	F	0.015726	0.670097	0.769110
	F6497	F	0.258041	0.723857	0.668640
	F6498	F	0.008473	0.725313	0.691512
	F6499	F	0.266205	0.670026	0.792673
	Al6500	Al	0.141119	0.670053	0.780955
	Al6501	Al	0.383396	0.724582	0.680049
	Al6502	Al	0.133464	0.724578	0.680091
	Al6503	Al	0.391070	0.670025	0.780968
	C6504	C	0.094019	0.745497	0.630399
	C6505	C	0.351901	0.693444	0.736613
	C6506	C	0.104386	0.640757	0.800024
	C6507	C	0.351554	0.700777	0.723717
	C6508	C	0.425380	0.697540	0.806787
	C6509	C	0.167635	0.752405	0.704931
	C6510	C	0.419233	0.698322	0.650038
	C6511	C	0.176901	0.643743	0.750680
	C6512	C	0.424569	0.641590	0.804768
	C6513	C	0.172271	0.702389	0.727262
	C6514	C	0.415070	0.747368	0.633835
	C6515	C	0.172603	0.695068	0.740140
	C6516	C	0.098971	0.696721	0.655377
	C6517	C	0.356510	0.642341	0.755678
	C6518	C	0.104998	0.696226	0.811556
	C6519	C	0.346950	0.750766	0.710397
	C6520	C	0.004505	0.742966	0.639401
	C6521	C	0.262310	0.690495	0.744938
	C6522	C	0.016194	0.645972	0.801281
	C6523	C	0.261748	0.705327	0.718879
	C6524	C	0.014325	0.692462	0.805915
	C6525	C	0.256524	0.747311	0.703836
	C6526	C	0.010152	0.701809	0.656519
	C6527	C	0.267541	0.647481	0.756431
	C6528	C	0.005053	0.735736	0.654794
	C6529	C	0.262625	0.682550	0.758631
	C6530	C	0.018479	0.655910	0.797204
	C6531	C	0.261445	0.713053	0.704633
	C6532	C	0.013642	0.683334	0.798066
	C6533	C	0.255567	0.738344	0.695451
	C6534	C	0.011336	0.710799	0.664817
	C6535	C	0.268609	0.656678	0.763970
	H6536	H	0.163589	0.742125	0.634529
	H6537	H	0.421420	0.689907	0.740128
	H6538	H	0.175276	0.643994	0.797074
	H6539	H	0.420790	0.702960	0.717171
	H6540	H	0.355478	0.694727	0.802157
	H6541	H	0.097865	0.749791	0.699748
	H6542	H	0.350686	0.702274	0.650749
	H6543	H	0.107821	0.647667	0.751154
	H6544	H	0.355905	0.645526	0.805786
	H6545	H	0.102736	0.705873	0.723703
	H6546	H	0.345691	0.745535	0.640790
	H6547	H	0.103215	0.692881	0.746558
	H6548	H	0.168711	0.699349	0.660493
	H6549	H	0.426710	0.645125	0.760268
	H6550	H	0.174188	0.692330	0.810954
	H6551	H	0.415556	0.746802	0.709704
	O6552	O	0.589769	0.732438	0.660010
	O6553	O	0.847228	0.679038	0.763230
	O6554	O	0.603783	0.659447	0.794527
	O6555	O	0.845753	0.715679	0.698419
	O6556	O	0.928713	0.680091	0.794131
	O6557	O	0.670567	0.735189	0.691106
	O6558	O	0.926941	0.714684	0.666922
	O6559	O	0.683823	0.660598	0.766128
	O6560	O	0.934620	0.660132	0.796508
	O6561	O	0.676476	0.716422	0.699721
	O6562	O	0.920596	0.733301	0.661459
	O6563	O	0.678219	0.679757	0.764725
	O6564	O	0.595837	0.713948	0.668962
	O6565	O	0.853375	0.659909	0.767800
	O6566	O	0.598000	0.679391	0.795976
	O6567	O	0.839914	0.734428	0.693414
	F6568	F	0.515806	0.670099	0.769120
	F6569	F	0.758426	0.723845	0.668660
	F6570	F	0.508568	0.725296	0.691432
	F6571	F	0.766248	0.669997	0.792649
	Al6572	Al	0.641064	0.670035	0.781011
	Al6573	Al	0.883523	0.724582	0.680165
	Al6574	Al	0.633373	0.724549	0.680040
	Al6575	Al	0.891344	0.670031	0.780929
	C6576	C	0.594410	0.745479	0.630416
	C6577	C	0.851634	0.693426	0.736615
	C6578	C	0.604317	0.640738	0.800020
	C6579	C	0.851469	0.700748	0.723696
	C6580	C	0.924909	0.697525	0.806923
	C6581	C	0.667672	0.752404	0.705006
	C6582	C	0.919737	0.698334	0.650054
	C6583	C	0.676428	0.643746	0.750715
	C6584	C	0.924651	0.641650	0.804880
	C6585	C	0.672140	0.702367	0.727310
	C6586	C	0.914703	0.747376	0.633838
	C6587	C	0.672377	0.695056	0.740217
	C6588	C	0.598304	0.696662	0.655485
	C6589	C	0.856083	0.642367	0.755583
	C6590	C	0.604951	0.696179	0.811771
	C6591	C	0.847034	0.750723	0.710392
	C6592	C	0.504774	0.742964	0.639402
	C6593	C	0.762085	0.690479	0.744974
	C6594	C	0.516022	0.645937	0.801219
	C6595	C	0.761601	0.705292	0.718873
	C6596	C	0.514461	0.692438	0.805963
	C6597	C	0.756434	0.747284	0.703913
	C6598	C	0.509723	0.701784	0.656513
	C6599	C	0.767117	0.647493	0.756378
	C6600	C	0.505067	0.735740	0.654746
	C6601	C	0.762470	0.682534	0.758648
	C6602	C	0.518261	0.655888	0.797137
	C6603	C	0.761196	0.713014	0.704631
	C6604	C	0.513588	0.683313	0.798108
	C6605	C	0.755376	0.738316	0.695491
	C6606	C	0.510972	0.710788	0.664754
	C6607	C	0.768218	0.656666	0.764010
	H6608	H	0.664077	0.742097	0.634526
	H6609	H	0.921087	0.689883	0.740118
	H6610	H	0.675355	0.643978	0.797138
	H6611	H	0.920678	0.702912	0.717131
	H6612	H	0.854802	0.694682	0.802428
	H6613	H	0.597926	0.749775	0.699840
	H6614	H	0.851169	0.702290	0.650805
	H6615	H	0.607353	0.647653	0.751291
	H6616	H	0.856124	0.645613	0.805917
	H6617	H	0.602541	0.705858	0.723759
	H6618	H	0.845415	0.745556	0.640828
	H6619	H	0.602930	0.692872	0.746674
	H6620	H	0.668055	0.699262	0.660659
	H6621	H	0.926293	0.645147	0.760175
	H6622	H	0.674004	0.692257	0.811309
	H6623	H	0.915669	0.746755	0.709688
	O6624	O	0.097297	0.741538	0.825731
	O6625	O	0.341931	0.675449	0.872882
	O6626	O	0.098203	0.653893	0.897988
	O6627	O	0.354251	0.721939	0.857027
	O6628	O	0.423292	0.674594	0.901122
	O6629	O	0.178466	0.742595	0.856537
	O6630	O	0.433781	0.723093	0.828492
	O6631	O	0.178076	0.655936	0.870170
	O6632	O	0.428621	0.654376	0.899581
	O6633	O	0.184750	0.722546	0.858760
	O6634	O	0.428197	0.742213	0.827120
	O6635	O	0.172533	0.676011	0.874741
	O6636	O	0.103207	0.722450	0.830216
	O6637	O	0.347603	0.655401	0.871420
	O6638	O	0.092550	0.674036	0.902414
	O6639	O	0.347936	0.741916	0.858279
	F6640	F	0.010644	0.665625	0.874347
	F6641	F	0.265708	0.732542	0.831536
	F6642	F	0.016578	0.732493	0.855248
	F6643	F	0.260609	0.664305	0.898331
	Al6644	Al	0.135545	0.664953	0.886411
	Al6645	Al	0.390950	0.732521	0.843416
	Al6646	Al	0.141095	0.732506	0.843417
	Al6647	Al	0.385285	0.664963	0.886398
	C6648	C	0.101725	0.755914	0.799066
	C6649	C	0.351425	0.693894	0.864740
	C6650	C	0.099626	0.635064	0.900774
	C6651	C	0.354566	0.703195	0.862363
	C6652	C	0.420044	0.692435	0.912449
	C6653	C	0.175209	0.760087	0.869141
	C6654	C	0.426642	0.706213	0.813247
	C6655	C	0.171339	0.638791	0.855432
	C6656	C	0.419661	0.635739	0.905013
	C6657	C	0.174865	0.704103	0.867211
	C6658	C	0.422318	0.757525	0.802631
	C6659	C	0.171715	0.694788	0.869580
	C6660	C	0.106259	0.704898	0.817989
	C6661	C	0.351534	0.637739	0.859302
	C6662	C	0.099643	0.691358	0.916241
	C6663	C	0.354885	0.758678	0.874200
	C6664	C	0.012003	0.752966	0.807425
	C6665	C	0.259900	0.689578	0.868378
	C6666	C	0.011023	0.640187	0.902502
	C6667	C	0.266400	0.708416	0.863591
	C6668	C	0.008744	0.687315	0.911591
	C6669	C	0.264331	0.754973	0.868347
	C6670	C	0.016985	0.709978	0.818923
	C6671	C	0.262053	0.642796	0.860301
	C6672	C	0.012464	0.745028	0.821175
	C6673	C	0.257811	0.679624	0.872259
	C6674	C	0.012893	0.650210	0.899876
	C6675	C	0.268787	0.718359	0.859514
	C6676	C	0.008033	0.677970	0.904547
	C6677	C	0.263524	0.745835	0.860468
	C6678	C	0.018060	0.719181	0.826455
	C6679	C	0.262621	0.652057	0.867768
	H6680	H	0.171384	0.752386	0.802548
	H6681	H	0.419945	0.689925	0.863666
	H6682	H	0.170751	0.638415	0.898701
	H6683	H	0.425541	0.706436	0.859377
	H6684	H	0.349380	0.689464	0.908667
	H6685	H	0.105239	0.757289	0.864457
	H6686	H	0.357717	0.710137	0.813751
	H6687	H	0.101884	0.642660	0.855986
	H6688	H	0.350796	0.639621	0.906441
	H6689	H	0.106409	0.708072	0.868222
	H6690	H	0.352864	0.755335	0.809100
	H6691	H	0.100790	0.691537	0.872458
	H6692	H	0.176510	0.707732	0.822396
	H6693	H	0.422077	0.640746	0.863051
	H6694	H	0.169281	0.687521	0.915662
	H6695	H	0.423817	0.754743	0.873751
	O6696	O	0.597221	0.741506	0.825664
	O6697	O	0.841768	0.675439	0.872613
	O6698	O	0.598254	0.653910	0.898038
	O6699	O	0.853682	0.721908	0.857170
	O6700	O	0.922961	0.674598	0.900992
	O6701	O	0.678265	0.742566	0.856605
	O6702	O	0.933706	0.723086	0.828600
	O6703	O	0.677694	0.655931	0.870162
	O6704	O	0.928546	0.654375	0.899470
	O6705	O	0.684068	0.722530	0.858796
	O6706	O	0.928238	0.742236	0.827219
	O6707	O	0.672366	0.675976	0.874473
	O6708	O	0.603296	0.722433	0.830233
	O6709	O	0.847237	0.655410	0.871274
	O6710	O	0.592919	0.674078	0.902324
	O6711	O	0.847687	0.741896	0.858470
	F6712	F	0.510002	0.665619	0.874413
	F6713	F	0.765860	0.732545	0.831631
	F6714	F	0.516074	0.732500	0.855102
	F6715	F	0.760790	0.664321	0.898156
	Al6716	Al	0.635367	0.664968	0.886332
	Al6717	Al	0.891143	0.732517	0.843561
	Al6718	Al	0.641003	0.732504	0.843421
	Al6719	Al	0.885785	0.664980	0.886233
	C6720	C	0.601832	0.755895	0.799035
	C6721	C	0.851163	0.693885	0.864613
	C6722	C	0.599875	0.635088	0.900737
	C6723	C	0.854223	0.703189	0.862333
	C6724	C	0.919445	0.692428	0.912415
	C6725	C	0.674792	0.760066	0.869183
	C6726	C	0.926169	0.706194	0.813377
	C6727	C	0.670857	0.638803	0.855362
	C6728	C	0.919410	0.635732	0.905051
	C6729	C	0.674422	0.704083	0.867198
	C6730	C	0.922060	0.757549	0.802672
	C6731	C	0.671427	0.694767	0.869470
	C6732	C	0.606226	0.704855	0.818199
	C6733	C	0.850919	0.637716	0.859303
	C6734	C	0.600218	0.691340	0.916345
	C6735	C	0.854592	0.758655	0.874280
	C6736	C	0.512175	0.752936	0.807379
	C6737	C	0.759628	0.689563	0.868213
	C6738	C	0.511268	0.640194	0.902477
	C6739	C	0.765979	0.708401	0.863636
	C6740	C	0.509285	0.687319	0.911621
	C6741	C	0.763927	0.754946	0.868427
	C6742	C	0.517161	0.709976	0.818912
	C6743	C	0.761582	0.642798	0.860240
	C6744	C	0.512508	0.745009	0.821096
	C6745	C	0.757587	0.679602	0.872024
	C6746	C	0.512945	0.650228	0.899917
	C6747	C	0.768129	0.718339	0.859607
	C6748	C	0.508340	0.677987	0.904543
	C6749	C	0.763173	0.745810	0.860599
	C6750	C	0.518246	0.719173	0.826427
	C6751	C	0.762232	0.652058	0.867706
	H6752	H	0.671395	0.752360	0.802513
	H6753	H	0.919732	0.689925	0.863496
	H6754	H	0.670961	0.638445	0.898683
	H6755	H	0.925111	0.706437	0.859370
	H6756	H	0.848719	0.689465	0.908642
	H6757	H	0.604795	0.757262	0.864513
	H6758	H	0.857035	0.710098	0.813989
	H6759	H	0.601544	0.642682	0.855899
	H6760	H	0.850492	0.639604	0.906475
	H6761	H	0.606004	0.708053	0.868249
	H6762	H	0.852707	0.755359	0.809179
	H6763	H	0.600522	0.691510	0.872326
	H6764	H	0.676288	0.707670	0.822763
	H6765	H	0.921450	0.640717	0.863040
	H6766	H	0.669826	0.687486	0.915827
	H6767	H	0.923572	0.754704	0.873846
	O6768	O	0.092253	0.737939	0.935296
	O6769	O	0.338238	0.669595	0.969696
	O6770	O	0.093960	0.647944	0.994375
	O6771	O	0.348729	0.716356	0.960236
	O6772	O	0.419390	0.668510	0.997854
	O6773	O	0.173098	0.737074	0.963595
	O6774	O	0.428607	0.718458	0.932551
	O6775	O	0.173687	0.649940	0.966668
	O6776	O	0.424583	0.648397	0.996004
	O6777	O	0.179233	0.716857	0.962011
	O6778	O	0.422682	0.738487	0.937071
	O6779	O	0.168663	0.670054	0.971157
	O6780	O	0.097537	0.717894	0.933896
	O6781	O	0.343182	0.649404	0.967940
	O6782	O	0.088650	0.668043	0.998874
	O6783	O	0.342697	0.736564	0.964731
	F6784	F	0.006209	0.659715	0.970718
	F6785	F	0.260396	0.728110	0.936822
	F6786	F	0.011034	0.726788	0.960850
	F6787	F	0.256462	0.658298	0.994734
	Al6788	Al	0.131320	0.658999	0.982754
	Al6789	Al	0.385477	0.727459	0.948747
	Al6790	Al	0.135671	0.727447	0.948816
	Al6791	Al	0.381097	0.658977	0.982829
	C6792	C	0.101331	0.756412	0.927218
	C6793	C	0.347306	0.688215	0.964102
	C6794	C	0.095692	0.629141	0.997660
	C6795	C	0.350074	0.697548	0.963225
	C6796	C	0.415514	0.686288	1.009639
	C6797	C	0.169599	0.754925	0.974877
	C6798	C	0.421500	0.701287	0.917963
	C6799	C	0.166686	0.632660	0.952584
	C6800	C	0.415641	0.629769	1.001622
	C6801	C	0.169757	0.698214	0.967316
	C6802	C	0.422053	0.757279	0.932120
	C6803	C	0.167000	0.688877	0.968175
	C6804	C	0.101028	0.700208	0.921754
	C6805	C	0.347037	0.631659	0.956108
	C6806	C	0.095608	0.685311	1.013051
	C6807	C	0.349600	0.753811	0.978918
	C6808	C	0.009905	0.752076	0.930838
	C6809	C	0.255684	0.683762	0.966581
	C6810	C	0.006863	0.634248	0.999125
	C6811	C	0.261392	0.702666	0.964825
	C6812	C	0.004715	0.681252	1.008462
	C6813	C	0.258796	0.749794	0.974103
	C6814	C	0.011680	0.705286	0.922791
	C6815	C	0.257568	0.636720	0.957163
	C6816	C	0.008141	0.742107	0.934671
	C6817	C	0.253955	0.673740	0.969266
	C6818	C	0.008592	0.644271	0.996348
	C6819	C	0.263408	0.712690	0.962217
	C6820	C	0.004007	0.671933	1.001221
	C6821	C	0.258117	0.740463	0.967021
	C6822	C	0.012529	0.714554	0.930218
	C6823	C	0.258212	0.646033	0.964396
	H6824	H	0.169921	0.752455	0.926124
	H6825	H	0.416243	0.684328	0.962809
	H6826	H	0.166788	0.632509	0.995723
	H6827	H	0.421233	0.700910	0.961221
	H6828	H	0.344782	0.683277	1.006093
	H6829	H	0.098731	0.751989	0.971077
	H6830	H	0.352051	0.705151	0.918482
	H6831	H	0.097120	0.636508	0.953262
	H6832	H	0.346739	0.633662	1.002864
	H6833	H	0.100832	0.702091	0.968635
	H6834	H	0.351212	0.754015	0.935080
	H6835	H	0.095857	0.685526	0.970147
	H6836	H	0.171774	0.703198	0.925386
	H6837	H	0.417718	0.634689	0.959669
	H6838	H	0.165240	0.681475	1.012415
	H6839	H	0.419319	0.749968	0.978479
	O6840	O	0.592139	0.737915	0.935205
	O6841	O	0.837805	0.669638	0.969459
	O6842	O	0.594114	0.647929	0.994326
	O6843	O	0.848360	0.716377	0.960526
	O6844	O	0.919057	0.668536	0.997700
	O6845	O	0.672749	0.737101	0.963526
	O6846	O	0.927954	0.718446	0.932608
	O6847	O	0.673377	0.649956	0.966528
	O6848	O	0.924410	0.648428	0.995885
	O6849	O	0.678851	0.716904	0.962252
	O6850	O	0.922821	0.738466	0.937130
	O6851	O	0.668188	0.670072	0.971112
	O6852	O	0.598188	0.717879	0.933912
	O6853	O	0.842988	0.649427	0.967684
	O6854	O	0.588963	0.668037	0.998928
	O6855	O	0.842242	0.736580	0.964848
	F6856	F	0.505636	0.659674	0.970883
	F6857	F	0.760547	0.728092	0.936988
	F6858	F	0.510577	0.726799	0.960719
	F6859	F	0.756679	0.658316	0.994553
	Al6860	Al	0.631267	0.658999	0.982719
	Al6861	Al	0.885914	0.727462	0.948918
	Al6862	Al	0.635628	0.727459	0.948866
	Al6863	Al	0.881607	0.659022	0.982601
	C6864	C	0.601680	0.756369	0.927130
	C6865	C	0.846708	0.688245	0.964108
	C6866	C	0.595957	0.629113	0.997547
	C6867	C	0.849439	0.697580	0.963333
	C6868	C	0.915163	0.686322	1.009525
	C6869	C	0.668907	0.754949	0.974838
	C6870	C	0.920780	0.701280	0.917971
	C6871	C	0.666306	0.632675	0.952447
	C6872	C	0.915228	0.629783	1.001550
	C6873	C	0.669135	0.698239	0.967488
	C6874	C	0.921657	0.757289	0.932127
	C6875	C	0.666373	0.688903	0.968255
	C6876	C	0.601629	0.700193	0.921837
	C6877	C	0.846635	0.631678	0.955996
	C6878	C	0.595808	0.685299	1.013147
	C6879	C	0.849047	0.753836	0.978917
	C6880	C	0.510215	0.752048	0.930781
	C6881	C	0.755064	0.683790	0.966588
	C6882	C	0.507271	0.634219	0.999148
	C6883	C	0.760824	0.702692	0.965035
	C6884	C	0.504961	0.681221	1.008609
	C6885	C	0.758216	0.749826	0.974083
	C6886	C	0.512328	0.705284	0.922797
	C6887	C	0.757151	0.636739	0.957006
	C6888	C	0.508023	0.742094	0.934606
	C6889	C	0.753382	0.673768	0.969159
	C6890	C	0.508900	0.644251	0.996363
	C6891	C	0.762947	0.712721	0.962494
	C6892	C	0.504329	0.671907	1.001336
	C6893	C	0.757643	0.740493	0.967007
	C6894	C	0.513131	0.714553	0.930225
	C6895	C	0.757925	0.646058	0.964204
	H6896	H	0.670169	0.752397	0.926003
	H6897	H	0.915611	0.684367	0.962712
	H6898	H	0.667021	0.632477	0.995499
	H6899	H	0.920514	0.700932	0.961317
	H6900	H	0.844382	0.683304	1.005990
	H6901	H	0.598191	0.752000	0.971004
	H6902	H	0.851243	0.705131	0.918509
	H6903	H	0.596658	0.636514	0.953055
	H6904	H	0.846182	0.633662	1.002773
	H6905	H	0.600147	0.702121	0.968870
	H6906	H	0.850720	0.754031	0.935042
	H6907	H	0.595279	0.685538	0.970232
	H6908	H	0.672387	0.703166	0.925542
	H6909	H	0.917312	0.634710	0.959536
	H6910	H	0.665546	0.681480	1.012511
	H6911	H	0.918707	0.749989	0.978473
	O6912	O	0.091697	0.862926	0.060299
	O6913	O	0.337779	0.794583	0.094616
	O6914	O	0.093962	0.772972	0.119401
	O6915	O	0.348466	0.841395	0.085428
	O6916	O	0.418675	0.793560	0.122778
	O6917	O	0.173350	0.862124	0.088443
	O6918	O	0.428120	0.843445	0.057608
	O6919	O	0.173834	0.774978	0.091568
	O6920	O	0.424521	0.773415	0.121049
	O6921	O	0.178925	0.841856	0.087047
	O6922	O	0.422436	0.863498	0.062052
	O6923	O	0.168261	0.795095	0.096241
	O6924	O	0.097541	0.842907	0.058846
	O6925	O	0.343289	0.774395	0.092995
	O6926	O	0.088197	0.793051	0.123971
	O6927	O	0.342952	0.861569	0.089816
	F6928	F	0.006200	0.784697	0.095778
	F6929	F	0.260210	0.853111	0.061852
	F6930	F	0.011172	0.851782	0.085888
	F6931	F	0.256277	0.783316	0.119763
	Al6932	Al	0.131217	0.784021	0.107781
	Al6933	Al	0.385591	0.852456	0.073829
	Al6934	Al	0.135545	0.852453	0.073860
	Al6935	Al	0.381045	0.783993	0.107839
	C6936	C	0.101160	0.881400	0.052175
	C6937	C	0.347054	0.813218	0.089102
	C6938	C	0.095781	0.754139	0.122453
	C6939	C	0.349894	0.822552	0.088253
	C6940	C	0.415178	0.811301	0.134640
	C6941	C	0.169803	0.879943	0.099965
	C6942	C	0.421028	0.826292	0.042906
	C6943	C	0.166804	0.757710	0.077363
	C6944	C	0.415695	0.754773	0.126686
	C6945	C	0.169577	0.823240	0.092368
	C6946	C	0.421731	0.882290	0.057125
	C6947	C	0.166759	0.813902	0.093199
	C6948	C	0.101031	0.825219	0.046765
	C6949	C	0.346998	0.756679	0.081118
	C6950	C	0.095109	0.810321	0.138086
	C6951	C	0.349965	0.878851	0.103863
	C6952	C	0.009725	0.877081	0.055886
	C6953	C	0.255453	0.808779	0.091633
	C6954	C	0.007068	0.759259	0.124064
	C6955	C	0.261329	0.827680	0.089941
	C6956	C	0.004196	0.806258	0.133506
	C6957	C	0.259125	0.874840	0.099087
	C6958	C	0.011643	0.830304	0.047784
	C6959	C	0.257566	0.761758	0.082045
	C6960	C	0.007713	0.867113	0.059743
	C6961	C	0.253645	0.798753	0.094285
	C6962	C	0.008841	0.769289	0.121384
	C6963	C	0.263219	0.837708	0.087345
	C6964	C	0.003568	0.796944	0.126259
	C6965	C	0.258389	0.865496	0.091979
	C6966	C	0.012447	0.839576	0.055219
	C6967	C	0.258299	0.771061	0.089323
	H6968	H	0.169727	0.877439	0.051015
	H6969	H	0.415934	0.809333	0.087730
	H6970	H	0.166884	0.757490	0.120412
	H6971	H	0.420965	0.825892	0.086203
	H6972	H	0.344319	0.808296	0.131105
	H6973	H	0.099121	0.876975	0.096194
	H6974	H	0.351611	0.830165	0.043394
	H6975	H	0.097079	0.761536	0.077941
	H6976	H	0.346760	0.758645	0.128074
	H6977	H	0.100718	0.827126	0.093663
	H6978	H	0.350750	0.879047	0.060063
	H6979	H	0.095542	0.810553	0.095163
	H6980	H	0.171849	0.828196	0.050439
	H6981	H	0.417712	0.759684	0.084746
	H6982	H	0.164753	0.806487	0.137476
	H6983	H	0.419477	0.874994	0.103321
	O6984	O	0.591837	0.862916	0.060189
	O6985	O	0.837157	0.794574	0.094381
	O6986	O	0.594009	0.772940	0.119284
	O6987	O	0.848365	0.841336	0.085415
	O6988	O	0.918566	0.793582	0.122653
	O6989	O	0.672737	0.862135	0.088485
	O6990	O	0.927981	0.843479	0.057634
	O6991	O	0.673368	0.774975	0.091549
	O6992	O	0.924455	0.773439	0.121051
	O6993	O	0.678731	0.841869	0.087127
	O6994	O	0.922391	0.863507	0.062349
	O6995	O	0.667661	0.795092	0.096236
	O6996	O	0.597641	0.842903	0.058887
	O6997	O	0.842848	0.774392	0.092869
	O6998	O	0.588251	0.793039	0.123958
	O6999	O	0.842337	0.861555	0.089985
	F7000	F	0.505676	0.784691	0.095838
	F7001	F	0.760616	0.853114	0.061976
	F7002	F	0.510771	0.851813	0.085731
	F7003	F	0.756290	0.783334	0.119604
	Al7004	Al	0.630973	0.784019	0.107740
	Al7005	Al	0.885857	0.852467	0.073983
	Al7006	Al	0.635538	0.852452	0.073850
	Al7007	Al	0.881395	0.784015	0.107703
	C7008	C	0.601333	0.881393	0.052199
	C7009	C	0.846629	0.813220	0.089077
	C7010	C	0.595870	0.754122	0.122436
	C7011	C	0.849447	0.822554	0.088265
	C7012	C	0.914781	0.811351	0.134519
	C7013	C	0.669131	0.879956	0.099914
	C7014	C	0.920773	0.826291	0.042952
	C7015	C	0.666268	0.757689	0.077370
	C7016	C	0.915526	0.754804	0.126644
	C7017	C	0.669095	0.823240	0.092470
	C7018	C	0.921424	0.882309	0.057139
	C7019	C	0.666277	0.813903	0.093256
	C7020	C	0.601199	0.825203	0.046801
	C7021	C	0.846438	0.756643	0.081154
	C7022	C	0.595578	0.810295	0.138100
	C7023	C	0.849299	0.878831	0.103865
	C7024	C	0.509837	0.877067	0.055784
	C7025	C	0.754959	0.808777	0.091649
	C7026	C	0.507166	0.759236	0.124054
	C7027	C	0.760827	0.827674	0.089981
	C7028	C	0.504581	0.806222	0.133580
	C7029	C	0.758400	0.874838	0.099080
	C7030	C	0.511842	0.830292	0.047810
	C7031	C	0.757061	0.761732	0.082044
	C7032	C	0.507767	0.867104	0.059603
	C7033	C	0.753008	0.798750	0.094219
	C7034	C	0.508790	0.769264	0.121336
	C7035	C	0.762905	0.837696	0.087389
	C7036	C	0.503694	0.796925	0.126316
	C7037	C	0.757746	0.865495	0.092041
	C7038	C	0.512657	0.839555	0.055245
	C7039	C	0.757806	0.771047	0.089291
	H7040	H	0.669900	0.877430	0.051101
	H7041	H	0.915468	0.809333	0.087654
	H7042	H	0.666954	0.757470	0.120373
	H7043	H	0.920583	0.825896	0.086214
	H7044	H	0.843967	0.808345	0.130964
	H7045	H	0.598436	0.876986	0.096164
	H7046	H	0.851224	0.830148	0.043505
	H7047	H	0.596628	0.761528	0.077911
	H7048	H	0.846615	0.758681	0.128010
	H7049	H	0.600300	0.827129	0.093842
	H7050	H	0.850432	0.879056	0.060055
	H7051	H	0.595060	0.810550	0.095227
	H7052	H	0.671998	0.828178	0.050491
	H7053	H	0.917217	0.759633	0.084810
	H7054	H	0.665272	0.806473	0.137392
	H7055	H	0.918763	0.874958	0.103395
	O7056	O	0.087878	0.857110	0.157143
	O7057	O	0.334006	0.788639	0.191491
	O7058	O	0.090420	0.767014	0.216330
	O7059	O	0.344044	0.835436	0.181804
	O7060	O	0.415279	0.787656	0.219640
	O7061	O	0.169205	0.856059	0.185215
	O7062	O	0.423736	0.837437	0.154124
	O7063	O	0.170072	0.768994	0.188634
	O7064	O	0.421117	0.767472	0.217960
	O7065	O	0.174498	0.835906	0.183467
	O7066	O	0.418255	0.857558	0.158615
	O7067	O	0.164460	0.789127	0.193109
	O7068	O	0.093375	0.836928	0.155333
	O7069	O	0.339645	0.768479	0.189866
	O7070	O	0.084852	0.787122	0.220867
	O7071	O	0.338873	0.855575	0.186304
	F7072	F	0.002371	0.778756	0.192757
	F7073	F	0.255966	0.847176	0.158278
	F7074	F	0.006799	0.845806	0.182255
	F7075	F	0.252808	0.777398	0.216657
	Al7076	Al	0.127534	0.778068	0.204737
	Al7077	Al	0.381200	0.846503	0.170217
	Al7078	Al	0.131424	0.846498	0.170244
	Al7079	Al	0.377573	0.778058	0.204750
	C7080	C	0.096908	0.875744	0.151594
	C7081	C	0.343021	0.807283	0.185928
	C7082	C	0.091896	0.748185	0.219297
	C7083	C	0.345644	0.816619	0.185008
	C7084	C	0.411652	0.805403	0.231418
	C7085	C	0.165416	0.873824	0.197063
	C7086	C	0.416673	0.820172	0.140053
	C7087	C	0.163004	0.751743	0.174440
	C7088	C	0.411918	0.748836	0.223418
	C7089	C	0.165331	0.817281	0.189024
	C7090	C	0.416877	0.876391	0.155777
	C7091	C	0.162712	0.807941	0.189960
	C7092	C	0.096594	0.819189	0.143497
	C7093	C	0.343305	0.750737	0.178021
	C7094	C	0.091768	0.804406	0.234953
	C7095	C	0.345826	0.872803	0.200632
	C7096	C	0.005340	0.871285	0.154093
	C7097	C	0.251418	0.802823	0.188375
	C7098	C	0.003282	0.753311	0.220940
	C7099	C	0.256951	0.821738	0.186509
	C7100	C	0.000890	0.800334	0.230393
	C7101	C	0.254919	0.868754	0.196002
	C7102	C	0.007273	0.824272	0.144503
	C7103	C	0.253877	0.755801	0.179039
	C7104	C	0.003621	0.861254	0.156793
	C7105	C	0.249739	0.792797	0.191102
	C7106	C	0.005206	0.763336	0.218309
	C7107	C	0.258793	0.831757	0.183796
	C7108	C	0.000211	0.791024	0.223186
	C7109	C	0.254196	0.859440	0.188727
	C7110	C	0.008308	0.833596	0.151738
	C7111	C	0.254676	0.765104	0.186314
	H7112	H	0.165959	0.871870	0.150260
	H7113	H	0.412055	0.803400	0.184671
	H7114	H	0.163048	0.751535	0.217319
	H7115	H	0.416846	0.819969	0.183035
	H7116	H	0.340814	0.802403	0.227854
	H7117	H	0.094459	0.870823	0.193533
	H7118	H	0.347125	0.824008	0.140702
	H7119	H	0.093321	0.755574	0.175080
	H7120	H	0.343005	0.752713	0.224801
	H7121	H	0.096428	0.821166	0.190314
	H7122	H	0.345797	0.873036	0.157854
	H7123	H	0.091621	0.804582	0.192002
	H7124	H	0.167435	0.822186	0.147061
	H7125	H	0.413962	0.753753	0.181600
	H7126	H	0.161492	0.800584	0.234307
	H7127	H	0.415582	0.868973	0.200053
	O7128	O	0.587851	0.857083	0.157005
	O7129	O	0.833890	0.788674	0.191536
	O7130	O	0.590643	0.766992	0.216335
	O7131	O	0.843893	0.835400	0.181841
	O7132	O	0.915165	0.787644	0.219652
	O7133	O	0.668856	0.856072	0.185130
	O7134	O	0.923866	0.837520	0.154027
	O7135	O	0.669861	0.769044	0.188550
	O7136	O	0.920904	0.767504	0.218022
	O7137	O	0.674339	0.835907	0.183417
	O7138	O	0.918261	0.857578	0.158698
	O7139	O	0.664262	0.789122	0.193153
	O7140	O	0.593388	0.836921	0.155264
	O7141	O	0.839362	0.768445	0.189877
	O7142	O	0.584848	0.787101	0.220939
	O7143	O	0.838337	0.855552	0.186456
	F7144	F	0.502238	0.778739	0.192831
	F7145	F	0.756219	0.847173	0.158374
	F7146	F	0.506506	0.845817	0.182145
	F7147	F	0.752861	0.777396	0.216665
	Al7148	Al	0.627596	0.778063	0.204753
	Al7149	Al	0.881660	0.846500	0.170333
	Al7150	Al	0.631362	0.846489	0.170195
	Al7151	Al	0.877855	0.778080	0.204704
	C7152	C	0.597057	0.875719	0.151465
	C7153	C	0.842664	0.807277	0.185941
	C7154	C	0.592118	0.748160	0.219245
	C7155	C	0.845360	0.816610	0.184988
	C7156	C	0.911388	0.805408	0.231402
	C7157	C	0.665011	0.873834	0.196993
	C7158	C	0.916291	0.820217	0.139934
	C7159	C	0.662552	0.751786	0.174291
	C7160	C	0.911609	0.748861	0.223455
	C7161	C	0.665030	0.817274	0.189056
	C7162	C	0.916662	0.876412	0.155793
	C7163	C	0.662375	0.807935	0.190017
	C7164	C	0.597036	0.819170	0.143498
	C7165	C	0.842757	0.750743	0.178012
	C7166	C	0.591920	0.804377	0.235039
	C7167	C	0.845265	0.872802	0.200666
	C7168	C	0.505423	0.871267	0.154014
	C7169	C	0.751051	0.802824	0.188463
	C7170	C	0.503483	0.753288	0.220910
	C7171	C	0.756687	0.821726	0.186553
	C7172	C	0.501066	0.800320	0.230414
	C7173	C	0.754405	0.868743	0.196050
	C7174	C	0.507621	0.824229	0.144591
	C7175	C	0.753396	0.755820	0.178982
	C7176	C	0.503554	0.861234	0.156667
	C7177	C	0.749463	0.792805	0.191176
	C7178	C	0.505365	0.763316	0.218293
	C7179	C	0.758525	0.831745	0.183815
	C7180	C	0.500319	0.791011	0.223206
	C7181	C	0.753758	0.859439	0.188755
	C7182	C	0.508332	0.833546	0.151799
	C7183	C	0.754244	0.765116	0.186276
	H7184	H	0.665939	0.871831	0.150054
	H7185	H	0.911761	0.803397	0.184641
	H7186	H	0.663249	0.751519	0.217222
	H7187	H	0.916476	0.819951	0.182945
	H7188	H	0.840545	0.802398	0.227870
	H7189	H	0.594168	0.870848	0.193368
	H7190	H	0.846717	0.824063	0.140529
	H7191	H	0.593014	0.755640	0.174861
	H7192	H	0.842656	0.752747	0.224857
	H7193	H	0.596135	0.821168	0.190320
	H7194	H	0.845570	0.873053	0.157858
	H7195	H	0.591237	0.804581	0.192026
	H7196	H	0.667879	0.822186	0.146960
	H7197	H	0.913523	0.753743	0.181631
	H7198	H	0.661652	0.800547	0.234441
	H7199	H	0.915093	0.868984	0.200079
	O7200	O	0.084390	0.851184	0.254085
	O7201	O	0.329941	0.782691	0.287887
	O7202	O	0.086289	0.761069	0.312907
	O7203	O	0.340396	0.829482	0.278780
	O7204	O	0.411041	0.781677	0.316105
	O7205	O	0.165347	0.850132	0.282134
	O7206	O	0.420084	0.831520	0.251048
	O7207	O	0.166134	0.763009	0.285203
	O7208	O	0.417051	0.761648	0.314817
	O7209	O	0.170919	0.829977	0.280443
	O7210	O	0.414749	0.851606	0.255597
	O7211	O	0.160410	0.783171	0.289598
	O7212	O	0.089328	0.830990	0.252371
	O7213	O	0.335663	0.762412	0.286634
	O7214	O	0.080499	0.781127	0.317359
	O7215	O	0.335046	0.849620	0.283285
	F7216	F	-0.001694	0.772774	0.289197
	F7217	F	0.252354	0.841240	0.255275
	F7218	F	0.002947	0.839878	0.279208
	F7219	F	0.248440	0.771462	0.313152
	Al7220	Al	0.123378	0.772100	0.301155
	Al7221	Al	0.377613	0.840552	0.267217
	Al7222	Al	0.127582	0.840564	0.267238
	Al7223	Al	0.373288	0.772121	0.301211
	C7224	C	0.093019	0.869793	0.248366
	C7225	C	0.339037	0.801327	0.282512
	C7226	C	0.086842	0.742295	0.318065
	C7227	C	0.341875	0.810662	0.281703
	C7228	C	0.407377	0.799355	0.328182
	C7229	C	0.161549	0.867880	0.294024
	C7230	C	0.413065	0.814277	0.236842
	C7231	C	0.158888	0.745721	0.271226
	C7232	C	0.407602	0.743188	0.322834
	C7233	C	0.161595	0.811331	0.285910
	C7234	C	0.412897	0.870430	0.252548
	C7235	C	0.158747	0.801992	0.286736
	C7236	C	0.093088	0.813274	0.240391
	C7237	C	0.338943	0.744620	0.275131
	C7238	C	0.087590	0.798290	0.332056
	C7239	C	0.341989	0.866857	0.297568
	C7240	C	0.001450	0.865343	0.250938
	C7241	C	0.247410	0.796875	0.285046
	C7242	C	-0.001338	0.747515	0.319293
	C7243	C	0.253246	0.815784	0.283353
	C7244	C	-0.003213	0.794287	0.327189
	C7245	C	0.251071	0.862809	0.292972
	C7246	C	0.003652	0.818342	0.241420
	C7247	C	0.249776	0.749728	0.275974
	C7248	C	-0.000040	0.855318	0.253673
	C7249	C	0.245677	0.786847	0.287634
	C7250	C	0.000871	0.757477	0.315422
	C7251	C	0.255083	0.825809	0.280726
	C7252	C	-0.004111	0.785016	0.319746
	C7253	C	0.250419	0.853500	0.285674
	C7254	C	0.004322	0.827649	0.248682
	C7255	C	0.250603	0.759060	0.283093
	H7256	H	0.161997	0.865911	0.247037
	H7257	H	0.407965	0.797448	0.281092
	H7258	H	0.157830	0.745549	0.315202
	H7259	H	0.413128	0.814004	0.279675
	H7260	H	0.336711	0.796385	0.324409
	H7261	H	0.090750	0.864867	0.290471
	H7262	H	0.343462	0.818118	0.237475
	H7263	H	0.089536	0.749601	0.271804
	H7264	H	0.338995	0.747135	0.323906
	H7265	H	0.092695	0.815219	0.287299
	H7266	H	0.341887	0.867069	0.254626
	H7267	H	0.087716	0.798639	0.288768
	H7268	H	0.163905	0.816288	0.243926
	H7269	H	0.409547	0.747600	0.278910
	H7270	H	0.157150	0.794429	0.331542
	H7271	H	0.411710	0.863024	0.296941
	O7272	O	0.584443	0.851153	0.254079
	O7273	O	0.829382	0.782688	0.287781
	O7274	O	0.586484	0.761083	0.312966
	O7275	O	0.840144	0.829464	0.278729
	O7276	O	0.910889	0.781667	0.316131
	O7277	O	0.665091	0.850138	0.282181
	O7278	O	0.919792	0.831579	0.250921
	O7279	O	0.665657	0.763020	0.285090
	O7280	O	0.916908	0.761659	0.314778
	O7281	O	0.670689	0.829976	0.280469
	O7282	O	0.914658	0.851614	0.255562
	O7283	O	0.659875	0.783189	0.289632
	O7284	O	0.589668	0.831004	0.252298
	O7285	O	0.835167	0.762435	0.286479
	O7286	O	0.580610	0.781100	0.317447
	O7287	O	0.834609	0.849615	0.283419
	F7288	F	0.497920	0.772765	0.289259
	F7289	F	0.752316	0.841244	0.255331
	F7290	F	0.502673	0.839869	0.279152
	F7291	F	0.748579	0.771463	0.313047
	Al7292	Al	0.623206	0.772106	0.301157
	Al7293	Al	0.877795	0.840572	0.267233
	Al7294	Al	0.627600	0.840559	0.267263
	Al7295	Al	0.873484	0.772129	0.301113
	C7296	C	0.593215	0.869775	0.248429
	C7297	C	0.838651	0.801325	0.282490
	C7298	C	0.587252	0.742294	0.318015
	C7299	C	0.841505	0.810658	0.281689
	C7300	C	0.907428	0.799392	0.328114
	C7301	C	0.661268	0.867899	0.293951
	C7302	C	0.912758	0.814283	0.236812
	C7303	C	0.658462	0.745709	0.271203
	C7304	C	0.907162	0.743185	0.322871
	C7305	C	0.661314	0.811335	0.286029
	C7306	C	0.912738	0.870467	0.252559
	C7307	C	0.658449	0.801994	0.286836
	C7308	C	0.593355	0.813247	0.240470
	C7309	C	0.838500	0.744633	0.275087
	C7310	C	0.587480	0.798271	0.332135
	C7311	C	0.841620	0.866893	0.297530
	C7312	C	0.501656	0.865323	0.250920
	C7313	C	0.747085	0.796879	0.285086
	C7314	C	0.499096	0.747512	0.319279
	C7315	C	0.752844	0.815781	0.283410
	C7316	C	0.496740	0.794265	0.327253
	C7317	C	0.750725	0.862822	0.292935
	C7318	C	0.503991	0.818331	0.241439
	C7319	C	0.749252	0.749730	0.275942
	C7320	C	0.500046	0.855291	0.253649
	C7321	C	0.745190	0.786851	0.287612
	C7322	C	0.501198	0.757472	0.315452
	C7323	C	0.754801	0.825802	0.280748
	C7324	C	0.496092	0.785000	0.319795
	C7325	C	0.750028	0.853510	0.285728
	C7326	C	0.504703	0.827635	0.248715
	C7327	C	0.750098	0.759069	0.282999
	H7328	H	0.662261	0.865894	0.247158
	H7329	H	0.907481	0.797452	0.281027
	H7330	H	0.658287	0.745533	0.315135
	H7331	H	0.912572	0.814011	0.279633
	H7332	H	0.836704	0.796424	0.324361
	H7333	H	0.590409	0.864896	0.290401
	H7334	H	0.843051	0.818110	0.237428
	H7335	H	0.588987	0.749569	0.271733
	H7336	H	0.838572	0.747139	0.323932
	H7337	H	0.592441	0.815224	0.287470
	H7338	H	0.841586	0.867115	0.254623
	H7339	H	0.587358	0.798634	0.288895
	H7340	H	0.664107	0.816261	0.244061
	H7341	H	0.909093	0.747613	0.278838
	H7342	H	0.657061	0.794412	0.331614
	H7343	H	0.911297	0.863058	0.296933
	O7344	O	0.079784	0.845184	0.350424
	O7345	O	0.324361	0.776988	0.391093
	O7346	O	0.080332	0.757325	0.422795
	O7347	O	0.336283	0.823560	0.375392
	O7348	O	0.405403	0.777163	0.419632
	O7349	O	0.161204	0.844189	0.378569
	O7350	O	0.415906	0.825507	0.347645
	O7351	O	0.161199	0.757662	0.391575
	O7352	O	0.411580	0.758061	0.424320
	O7353	O	0.166873	0.824128	0.377240
	O7354	O	0.410309	0.845652	0.352026
	O7355	O	0.154813	0.777642	0.393018
	O7356	O	0.085541	0.824962	0.349005
	O7357	O	0.330504	0.756955	0.393507
	O7358	O	0.075010	0.776472	0.421401
	O7359	O	0.330873	0.843634	0.379825
	F7360	F	-0.006961	0.767059	0.394749
	F7361	F	0.247927	0.835269	0.351749
	F7362	F	-0.001453	0.833941	0.375662
	F7363	F	0.243186	0.766992	0.418439
	Al7364	Al	0.117861	0.767031	0.406500
	Al7365	Al	0.373141	0.834601	0.363638
	Al7366	Al	0.123301	0.834613	0.363693
	Al7367	Al	0.367812	0.767059	0.406539
	C7368	C	0.088959	0.863830	0.345088
	C7369	C	0.334227	0.795458	0.382791
	C7370	C	0.086195	0.741979	0.447178
	C7371	C	0.337183	0.804773	0.380461
	C7372	C	0.402585	0.794699	0.431871
	C7373	C	0.157654	0.861872	0.390657
	C7374	C	0.408816	0.808207	0.333693
	C7375	C	0.154402	0.740880	0.375747
	C7376	C	0.407260	0.743696	0.451006
	C7377	C	0.157480	0.805659	0.385249
	C7378	C	0.408797	0.864501	0.349263
	C7379	C	0.154531	0.796352	0.387595
	C7380	C	0.088944	0.807136	0.337609
	C7381	C	0.333881	0.739475	0.380815
	C7382	C	0.082222	0.793363	0.436551
	C7383	C	0.337830	0.860794	0.394548
	C7384	C	-0.002714	0.859378	0.347578
	C7385	C	0.242732	0.791137	0.386314
	C7386	C	-0.003510	0.746617	0.442606
	C7387	C	0.248927	0.809988	0.381682
	C7388	C	-0.008605	0.789583	0.431004
	C7389	C	0.247030	0.856795	0.389704
	C7390	C	-0.000241	0.812250	0.338411
	C7391	C	0.244869	0.744595	0.381635
	C7392	C	-0.004500	0.849345	0.350165
	C7393	C	0.240376	0.781194	0.390388
	C7394	C	-0.004027	0.754548	0.428899
	C7395	C	0.250981	0.819949	0.377849
	C7396	C	-0.009504	0.780390	0.423478
	C7397	C	0.246270	0.847517	0.382245
	C7398	C	0.000426	0.821589	0.345492
	C7399	C	0.245576	0.753729	0.389478
	H7400	H	0.157906	0.859944	0.343715
	H7401	H	0.402770	0.791503	0.381805
	H7402	H	0.155461	0.744119	0.440569
	H7403	H	0.407969	0.808038	0.377596
	H7404	H	0.332379	0.791890	0.427397
	H7405	H	0.086987	0.858890	0.386899
	H7406	H	0.339309	0.812064	0.334184
	H7407	H	0.085396	0.744815	0.376170
	H7408	H	0.337773	0.747265	0.447658
	H7409	H	0.088870	0.809614	0.386293
	H7410	H	0.337643	0.861157	0.351255
	H7411	H	0.083682	0.793102	0.390560
	H7412	H	0.159551	0.810105	0.341409
	H7413	H	0.403966	0.742249	0.385470
	H7414	H	0.151349	0.789464	0.435951
	H7415	H	0.407248	0.856923	0.393977
	O7416	O	0.579969	0.845179	0.350469
	O7417	O	0.823816	0.777002	0.391022
	O7418	O	0.580627	0.757313	0.422732
	O7419	O	0.835927	0.823540	0.375386
	O7420	O	0.905408	0.777119	0.419680
	O7421	O	0.660616	0.844149	0.378651
	O7422	O	0.915963	0.825518	0.347636
	O7423	O	0.660709	0.757670	0.391537
	O7424	O	0.911290	0.758066	0.424373
	O7425	O	0.666477	0.824133	0.377220
	O7426	O	0.910200	0.845657	0.352102
	O7427	O	0.654328	0.777651	0.393033
	O7428	O	0.585507	0.824936	0.349016
	O7429	O	0.830084	0.756956	0.393355
	O7430	O	0.574696	0.776414	0.421554
	O7431	O	0.830209	0.843622	0.379902
	F7432	F	0.492590	0.767067	0.394822
	F7433	F	0.748077	0.835256	0.351773
	F7434	F	0.498197	0.833939	0.375597
	F7435	F	0.743150	0.767002	0.418308
	Al7436	Al	0.617919	0.767029	0.406492
	Al7437	Al	0.873597	0.834597	0.363696
	Al7438	Al	0.623099	0.834605	0.363653
	Al7439	Al	0.867907	0.767043	0.406451
	C7440	C	0.589095	0.863821	0.345053
	C7441	C	0.833737	0.795465	0.382807
	C7442	C	0.586397	0.741963	0.447158
	C7443	C	0.836778	0.804777	0.380481
	C7444	C	0.902209	0.794689	0.431876
	C7445	C	0.656912	0.861850	0.390692
	C7446	C	0.908832	0.808237	0.333636
	C7447	C	0.653542	0.740890	0.375741
	C7448	C	0.906999	0.743712	0.451106
	C7449	C	0.656933	0.805662	0.385240
	C7450	C	0.908632	0.864506	0.349286
	C7451	C	0.653865	0.796356	0.387570
	C7452	C	0.588815	0.807121	0.337671
	C7453	C	0.833125	0.739473	0.380802
	C7454	C	0.582263	0.793347	0.436658
	C7455	C	0.837110	0.860765	0.394621
	C7456	C	0.497454	0.859386	0.347621
	C7457	C	0.742145	0.791144	0.386312
	C7458	C	0.496780	0.746597	0.442534
	C7459	C	0.748473	0.809985	0.381670
	C7460	C	0.491648	0.789590	0.430971
	C7461	C	0.746277	0.856765	0.389775
	C7462	C	0.499624	0.812233	0.338438
	C7463	C	0.744126	0.744594	0.381586
	C7464	C	0.495662	0.849335	0.350183
	C7465	C	0.739823	0.781204	0.390348
	C7466	C	0.496358	0.754548	0.428862
	C7467	C	0.750524	0.819946	0.377845
	C7468	C	0.490477	0.780390	0.423499
	C7469	C	0.745576	0.847493	0.382315
	C7470	C	0.500445	0.821574	0.345499
	C7471	C	0.745030	0.753723	0.389434
	H7472	H	0.657940	0.859931	0.343629
	H7473	H	0.902311	0.791506	0.381820
	H7474	H	0.655818	0.744107	0.440604
	H7475	H	0.907853	0.808037	0.377663
	H7476	H	0.831899	0.791879	0.427417
	H7477	H	0.586214	0.858868	0.386954
	H7478	H	0.839356	0.812103	0.334150
	H7479	H	0.584660	0.744837	0.376184
	H7480	H	0.837442	0.747281	0.447762
	H7481	H	0.588386	0.809625	0.386319
	H7482	H	0.837497	0.861150	0.351356
	H7483	H	0.583045	0.793106	0.390507
	H7484	H	0.659491	0.810083	0.341468
	H7485	H	0.903095	0.742260	0.385470
	H7486	H	0.651288	0.789427	0.436118
	H7487	H	0.906611	0.856898	0.394098
	O7488	O	0.074297	0.839481	0.453664
	O7489	O	0.332798	0.783120	0.550240
	O7490	O	0.088237	0.766275	0.588558
	O7491	O	0.330467	0.819844	0.485345
	O7492	O	0.413482	0.785573	0.581044
	O7493	O	0.155615	0.839606	0.482290
	O7494	O	0.410878	0.820115	0.454144
	O7495	O	0.168837	0.765080	0.556733
	O7496	O	0.419325	0.767069	0.589854
	O7497	O	0.161379	0.820503	0.486751
	O7498	O	0.404789	0.840124	0.455416
	O7499	O	0.163522	0.783837	0.551489
	O7500	O	0.080444	0.819485	0.455823
	O7501	O	0.338265	0.764401	0.558606
	O7502	O	0.082951	0.784924	0.582936
	O7503	O	0.325003	0.838972	0.483926
	F7504	F	0.000963	0.774270	0.558399
	F7505	F	0.242901	0.829556	0.457322
	F7506	F	-0.006874	0.829451	0.480931
	F7507	F	0.251118	0.775702	0.581310
	Al7508	Al	0.125874	0.774987	0.569849
	Al7509	Al	0.368008	0.829523	0.469056
	Al7510	Al	0.117955	0.829522	0.469039
	Al7511	Al	0.375888	0.774996	0.569876
	C7512	C	0.084081	0.857965	0.445321
	C7513	C	0.336881	0.797203	0.522738
	C7514	C	0.093791	0.752247	0.616156
	C7515	C	0.336485	0.804555	0.509862
	C7516	C	0.410430	0.802772	0.594899
	C7517	C	0.152426	0.857170	0.494465
	C7518	C	0.404032	0.803366	0.438356
	C7519	C	0.161839	0.748716	0.539861
	C7520	C	0.414917	0.754107	0.619572
	C7521	C	0.157263	0.806096	0.513371
	C7522	C	0.404377	0.858859	0.450212
	C7523	C	0.157666	0.798772	0.526204
	C7524	C	0.083709	0.802035	0.443018
	C7525	C	0.341525	0.747225	0.544662
	C7526	C	0.090135	0.801307	0.599556
	C7527	C	0.332233	0.855830	0.499252
	C7528	C	-0.007428	0.853633	0.448905
	C7529	C	0.247485	0.794240	0.531061
	C7530	C	0.004014	0.756631	0.610593
	C7531	C	0.246679	0.809075	0.505028
	C7532	C	-0.000528	0.797783	0.593395
	C7533	C	0.241518	0.852042	0.493647
	C7534	C	-0.005551	0.807116	0.444002
	C7535	C	0.252415	0.752246	0.546102
	C7536	C	-0.009608	0.843692	0.453001
	C7537	C	0.248021	0.786518	0.545307
	C7538	C	0.003785	0.763844	0.595191
	C7539	C	0.246162	0.817013	0.491331
	C7540	C	-0.001491	0.788799	0.585108
	C7541	C	0.240572	0.842870	0.486094
	C7542	C	-0.004608	0.816239	0.451878
	C7543	C	0.253370	0.761215	0.554492
	H7544	H	0.152719	0.854006	0.444291
	H7545	H	0.406222	0.793698	0.526394
	H7546	H	0.163141	0.754113	0.609248
	H7547	H	0.405574	0.806827	0.503397
	H7548	H	0.340634	0.800068	0.590037
	H7549	H	0.082161	0.854376	0.489947
	H7550	H	0.335137	0.807287	0.438923
	H7551	H	0.093057	0.752604	0.540860
	H7552	H	0.345511	0.757514	0.615460
	H7553	H	0.087536	0.809581	0.509929
	H7554	H	0.333414	0.855616	0.453181
	H7555	H	0.088234	0.796618	0.532639
	H7556	H	0.153879	0.804852	0.447520
	H7557	H	0.411370	0.749891	0.549632
	H7558	H	0.158893	0.797412	0.598524
	H7559	H	0.401413	0.851929	0.498673
	O7560	O	0.574404	0.839501	0.453666
	O7561	O	0.832341	0.783112	0.550121
	O7562	O	0.588521	0.766281	0.588544
	O7563	O	0.830607	0.819832	0.485366
	O7564	O	0.913570	0.785634	0.580929
	O7565	O	0.655168	0.839614	0.482276
	O7566	O	0.910960	0.820140	0.454121
	O7567	O	0.668988	0.765097	0.556667
	O7568	O	0.919036	0.767102	0.589890
	O7569	O	0.661525	0.820534	0.486787
	O7570	O	0.904751	0.840132	0.455646
	O7571	O	0.663051	0.783866	0.551482
	O7572	O	0.580292	0.819456	0.455934
	O7573	O	0.838351	0.764404	0.558622
	O7574	O	0.582696	0.784899	0.583020
	O7575	O	0.824627	0.838924	0.484080
	F7576	F	0.500698	0.774264	0.558478
	F7577	F	0.743026	0.829555	0.457390
	F7578	F	0.492993	0.829476	0.480874
	F7579	F	0.751171	0.775731	0.581197
	Al7580	Al	0.625996	0.774987	0.569827
	Al7581	Al	0.868324	0.829522	0.469131
	Al7582	Al	0.617833	0.829541	0.469049
	Al7583	Al	0.875956	0.775003	0.569767
	C7584	C	0.584150	0.857962	0.445358
	C7585	C	0.836781	0.797219	0.522778
	C7586	C	0.594280	0.752224	0.616159
	C7587	C	0.836517	0.804565	0.509890
	C7588	C	0.910499	0.802789	0.594934
	C7589	C	0.652349	0.857222	0.494316
	C7590	C	0.903705	0.803365	0.438315
	C7591	C	0.661732	0.748722	0.539848
	C7592	C	0.914445	0.754124	0.619604
	C7593	C	0.657063	0.806118	0.513354
	C7594	C	0.904341	0.858859	0.450150
	C7595	C	0.657299	0.798797	0.526194
	C7596	C	0.583753	0.802010	0.443163
	C7597	C	0.841594	0.747223	0.544676
	C7598	C	0.590000	0.801309	0.599565
	C7599	C	0.831989	0.855812	0.499325
	C7600	C	0.492571	0.853635	0.448907
	C7601	C	0.747194	0.794266	0.531057
	C7602	C	0.504496	0.756610	0.610585
	C7603	C	0.746619	0.809102	0.505086
	C7604	C	0.499384	0.797753	0.593399
	C7605	C	0.741336	0.852078	0.493621
	C7606	C	0.494652	0.807102	0.444052
	C7607	C	0.752462	0.752254	0.546047
	C7608	C	0.490348	0.843695	0.452906
	C7609	C	0.747550	0.786534	0.545263
	C7610	C	0.504147	0.763834	0.595214
	C7611	C	0.746254	0.817038	0.491378
	C7612	C	0.498204	0.788768	0.585177
	C7613	C	0.740234	0.842865	0.486100
	C7614	C	0.495387	0.816217	0.451926
	C7615	C	0.753484	0.761229	0.554441
	H7616	H	0.652809	0.854016	0.444299
	H7617	H	0.906117	0.793702	0.526453
	H7618	H	0.663684	0.754076	0.609229
	H7619	H	0.905548	0.806817	0.503412
	H7620	H	0.840603	0.800104	0.590080
	H7621	H	0.582186	0.854426	0.489755
	H7622	H	0.834653	0.807276	0.438888
	H7623	H	0.592938	0.752624	0.540861
	H7624	H	0.844966	0.757538	0.615537
	H7625	H	0.587317	0.809593	0.509847
	H7626	H	0.833344	0.855616	0.453111
	H7627	H	0.587772	0.796625	0.532612
	H7628	H	0.653691	0.804820	0.447752
	H7629	H	0.911347	0.749905	0.549679
	H7630	H	0.658780	0.797423	0.598569
	H7631	H	0.900956	0.851871	0.498873
	O7632	O	0.082483	0.845592	0.612656
	O7633	O	0.340118	0.794984	0.722657
	O7634	O	0.095825	0.778216	0.760988
	O7635	O	0.338271	0.828778	0.651127
	O7636	O	0.421120	0.797692	0.753753
	O7637	O	0.163692	0.848061	0.643554
	O7638	O	0.418813	0.827569	0.619241
	O7639	O	0.176338	0.777166	0.729463
	O7640	O	0.426620	0.778969	0.762339
	O7641	O	0.169102	0.829527	0.652318
	O7642	O	0.413619	0.846343	0.614088
	O7643	O	0.170935	0.795794	0.723917
	O7644	O	0.088848	0.826905	0.621095
	O7645	O	0.345666	0.776444	0.731599
	O7646	O	0.090232	0.796994	0.755776
	O7647	O	0.333090	0.847411	0.645485
	F7648	F	0.008261	0.786352	0.731206
	F7649	F	0.250996	0.836764	0.620959
	F7650	F	0.001257	0.838194	0.643767
	F7651	F	0.258517	0.787833	0.754057
	Al7652	Al	0.133363	0.787092	0.742642
	Al7653	Al	0.376166	0.837466	0.632379
	Al7654	Al	0.126132	0.837478	0.632323
	Al7655	Al	0.383452	0.787073	0.742678
	C7656	C	0.086385	0.859643	0.585076
	C7657	C	0.344474	0.808063	0.693129
	C7658	C	0.101392	0.763249	0.786188
	C7659	C	0.344125	0.814798	0.678876
	C7660	C	0.417928	0.814864	0.767712
	C7661	C	0.160416	0.865230	0.657493
	C7662	C	0.411954	0.811215	0.602444
	C7663	C	0.169313	0.760835	0.712509
	C7664	C	0.422101	0.764869	0.789745
	C7665	C	0.164840	0.816441	0.681847
	C7666	C	0.407858	0.861361	0.588946
	C7667	C	0.165224	0.809712	0.696095
	C7668	C	0.091841	0.809739	0.607117
	C7669	C	0.348666	0.759193	0.717964
	C7670	C	0.097202	0.813341	0.772591
	C7671	C	0.340094	0.863805	0.661999
	C7672	C	-0.002991	0.856765	0.593641
	C7673	C	0.255007	0.805446	0.701904
	C7674	C	0.011503	0.767817	0.781416
	C7675	C	0.254317	0.819064	0.673066
	C7676	C	0.006563	0.809816	0.766401
	C7677	C	0.249416	0.860229	0.655994
	C7678	C	0.002865	0.814765	0.608567
	C7679	C	0.259781	0.764296	0.719009
	C7680	C	-0.002320	0.849026	0.607849
	C7681	C	0.255387	0.798241	0.717300
	C7682	C	0.011164	0.775561	0.767194
	C7683	C	0.253865	0.826282	0.657690
	C7684	C	0.005609	0.800839	0.758021
	C7685	C	0.248462	0.851255	0.647706
	C7686	C	0.004058	0.823731	0.616917
	C7687	C	0.260830	0.773278	0.727354
	H7688	H	0.155984	0.856101	0.588515
	H7689	H	0.413983	0.804761	0.697429
	H7690	H	0.170771	0.765415	0.779644
	H7691	H	0.413411	0.816742	0.672080
	H7692	H	0.348133	0.812197	0.762711
	H7693	H	0.090683	0.862512	0.652662
	H7694	H	0.343425	0.815124	0.603508
	H7695	H	0.100619	0.764775	0.713276
	H7696	H	0.352564	0.768383	0.786172
	H7697	H	0.095312	0.819736	0.677530
	H7698	H	0.338594	0.859244	0.595605
	H7699	H	0.095868	0.807764	0.702851
	H7700	H	0.161703	0.812425	0.612000
	H7701	H	0.418202	0.761812	0.723231
	H7702	H	0.165883	0.809441	0.771582
	H7703	H	0.408750	0.859929	0.660892
	O7704	O	0.582980	0.845573	0.612678
	O7705	O	0.839630	0.794974	0.722637
	O7706	O	0.595941	0.778201	0.760975
	O7707	O	0.838507	0.828753	0.651117
	O7708	O	0.920863	0.797678	0.753779
	O7709	O	0.663622	0.848039	0.643600
	O7710	O	0.919531	0.827573	0.619232
	O7711	O	0.676648	0.777195	0.729406
	O7712	O	0.926541	0.778986	0.762357
	O7713	O	0.669327	0.829537	0.652346
	O7714	O	0.913143	0.846344	0.614095
	O7715	O	0.670484	0.795765	0.723928
	O7716	O	0.588121	0.826885	0.621219
	O7717	O	0.845895	0.776438	0.731550
	O7718	O	0.590349	0.796943	0.755908
	O7719	O	0.833090	0.847366	0.645572
	F7720	F	0.508229	0.786328	0.731245
	F7721	F	0.751155	0.836722	0.621033
	F7722	F	0.501113	0.838173	0.643793
	F7723	F	0.758505	0.787799	0.753984
	Al7724	Al	0.633399	0.787078	0.742619
	Al7725	Al	0.876218	0.837457	0.632463
	Al7726	Al	0.626044	0.837465	0.632396
	Al7727	Al	0.883410	0.787072	0.742560
	C7728	C	0.587071	0.859614	0.585006
	C7729	C	0.844401	0.808107	0.693248
	C7730	C	0.601610	0.763233	0.786149
	C7731	C	0.844356	0.814844	0.678994
	C7732	C	0.917571	0.814845	0.767805
	C7733	C	0.660461	0.865256	0.657441
	C7734	C	0.912198	0.811224	0.602495
	C7735	C	0.669217	0.760832	0.712556
	C7736	C	0.921751	0.764884	0.789792
	C7737	C	0.665055	0.816451	0.681853
	C7738	C	0.907207	0.861381	0.588950
	C7739	C	0.665054	0.809720	0.696107
	C7740	C	0.591636	0.809754	0.607122
	C7741	C	0.848540	0.759157	0.717950
	C7742	C	0.597542	0.813347	0.772598
	C7743	C	0.840165	0.863800	0.662038
	C7744	C	0.497705	0.856750	0.593591
	C7745	C	0.754758	0.805449	0.701938
	C7746	C	0.511803	0.767796	0.781371
	C7747	C	0.754589	0.819097	0.673134
	C7748	C	0.506936	0.809815	0.766365
	C7749	C	0.749503	0.860247	0.655974
	C7750	C	0.502534	0.814754	0.608580
	C7751	C	0.759828	0.764287	0.719019
	C7752	C	0.498139	0.849003	0.607826
	C7753	C	0.754878	0.798224	0.717297
	C7754	C	0.511395	0.775535	0.767177
	C7755	C	0.754090	0.826292	0.657717
	C7756	C	0.505946	0.800836	0.758031
	C7757	C	0.748487	0.851237	0.647717
	C7758	C	0.503357	0.823729	0.616952
	C7759	C	0.761037	0.773285	0.727317
	H7760	H	0.656595	0.856053	0.588420
	H7761	H	0.913963	0.804827	0.697613
	H7762	H	0.670956	0.765398	0.779600
	H7763	H	0.913722	0.816792	0.672252
	H7764	H	0.847806	0.812163	0.762828
	H7765	H	0.590728	0.862532	0.652582
	H7766	H	0.843526	0.815104	0.603565
	H7767	H	0.600586	0.764785	0.713355
	H7768	H	0.852192	0.768407	0.786223
	H7769	H	0.595521	0.819729	0.677481
	H7770	H	0.837861	0.859267	0.595592
	H7771	H	0.595595	0.807768	0.702822
	H7772	H	0.661341	0.812464	0.612019
	H7773	H	0.918316	0.761750	0.723187
	H7774	H	0.666349	0.809450	0.771633
	H7775	H	0.908877	0.859905	0.660991
	O7776	O	0.089905	0.857548	0.785219
	O7777	O	0.347386	0.803967	0.888169
	O7778	O	0.104004	0.784432	0.919508
	O7779	O	0.345824	0.840668	0.823412
	O7780	O	0.428693	0.805104	0.919011
	O7781	O	0.170863	0.860134	0.816412
	O7782	O	0.426487	0.839688	0.791993
	O7783	O	0.183882	0.785592	0.891024
	O7784	O	0.434980	0.785088	0.921499
	O7785	O	0.176624	0.841460	0.824885
	O7786	O	0.420761	0.858269	0.786383
	O7787	O	0.178401	0.804746	0.889778
	O7788	O	0.095905	0.838961	0.794007
	O7789	O	0.353364	0.784894	0.892914
	O7790	O	0.098059	0.804427	0.920879
	O7791	O	0.340227	0.859490	0.818236
	F7792	F	0.015776	0.795076	0.894100
	F7793	F	0.258070	0.848849	0.793709
	F7794	F	0.008408	0.850273	0.816564
	F7795	F	0.266161	0.794993	0.917737
	Al7796	Al	0.141128	0.795031	0.906002
	Al7797	Al	0.383265	0.849586	0.805118
	Al7798	Al	0.133314	0.849569	0.805167
	Al7799	Al	0.391044	0.794988	0.906037
	C7800	C	0.094276	0.870636	0.755716
	C7801	C	0.351883	0.818316	0.861429
	C7802	C	0.104305	0.765729	0.924873
	C7803	C	0.351611	0.825651	0.848535
	C7804	C	0.425311	0.822565	0.931721
	C7805	C	0.167431	0.877253	0.830646
	C7806	C	0.419483	0.823304	0.775256
	C7807	C	0.176607	0.768741	0.875656
	C7808	C	0.425087	0.766604	0.929816
	C7809	C	0.172326	0.827428	0.852558
	C7810	C	0.415021	0.872214	0.758538
	C7811	C	0.172589	0.820110	0.865432
	C7812	C	0.098902	0.821769	0.780148
	C7813	C	0.356257	0.767341	0.880681
	C7814	C	0.104891	0.821185	0.936691
	C7815	C	0.347241	0.875892	0.834825
	C7816	C	0.004718	0.867985	0.764415
	C7817	C	0.262378	0.815456	0.869998
	C7818	C	0.016096	0.770942	0.926188
	C7819	C	0.261806	0.830288	0.843946
	C7820	C	0.014239	0.817455	0.930926
	C7821	C	0.256524	0.872296	0.828905
	C7822	C	0.009859	0.826783	0.781609
	C7823	C	0.267312	0.772478	0.881390
	C7824	C	0.005089	0.860758	0.779802
	C7825	C	0.262693	0.807504	0.883662
	C7826	C	0.018420	0.780888	0.922147
	C7827	C	0.261363	0.838019	0.829713
	C7828	C	0.013582	0.808335	0.923039
	C7829	C	0.255637	0.863322	0.820549
	C7830	C	0.011010	0.835784	0.789839
	C7831	C	0.268333	0.781653	0.889004
	H7832	H	0.163801	0.867377	0.760120
	H7833	H	0.421298	0.814704	0.864759
	H7834	H	0.175145	0.768985	0.921898
	H7835	H	0.420721	0.827762	0.841809
	H7836	H	0.355232	0.819774	0.927083
	H7837	H	0.097568	0.874511	0.825988
	H7838	H	0.350853	0.827221	0.776170
	H7839	H	0.107673	0.772672	0.876161
	H7840	H	0.356735	0.770584	0.930960
	H7841	H	0.102653	0.830986	0.849204
	H7842	H	0.345737	0.870285	0.765309
	H7843	H	0.103067	0.817998	0.872028
	H7844	H	0.168778	0.824456	0.785027
	H7845	H	0.426403	0.770120	0.885304
	H7846	H	0.173988	0.817269	0.936176
	H7847	H	0.416035	0.872038	0.833614
	O7848	O	0.589940	0.857537	0.785279
	O7849	O	0.847157	0.803999	0.888144
	O7850	O	0.604463	0.784407	0.919452
	O7851	O	0.845750	0.840660	0.823397
	O7852	O	0.928570	0.805096	0.919041
	O7853	O	0.671147	0.860137	0.816505
	O7854	O	0.926637	0.839642	0.792039
	O7855	O	0.683983	0.785639	0.890902
	O7856	O	0.934449	0.785117	0.921505
	O7857	O	0.676462	0.841481	0.824931
	O7858	O	0.920733	0.858300	0.786409
	O7859	O	0.678011	0.804767	0.889689
	O7860	O	0.595814	0.838971	0.794131
	O7861	O	0.853382	0.784892	0.892803
	O7862	O	0.598082	0.804408	0.920922
	O7863	O	0.840572	0.859511	0.818232
	F7864	F	0.515738	0.795033	0.894116
	F7865	F	0.758111	0.848873	0.793777
	F7866	F	0.508335	0.850310	0.816571
	F7867	F	0.766236	0.795028	0.917613
	Al7868	Al	0.641139	0.795027	0.905962
	Al7869	Al	0.883392	0.849579	0.805169
	Al7870	Al	0.633256	0.849589	0.805196
	Al7871	Al	0.891365	0.795027	0.905880
	C7872	C	0.594201	0.870599	0.755653
	C7873	C	0.851711	0.818344	0.861455
	C7874	C	0.604716	0.765693	0.924806
	C7875	C	0.851452	0.825680	0.848569
	C7876	C	0.925126	0.822574	0.931755
	C7877	C	0.667775	0.877292	0.830597
	C7878	C	0.919225	0.823272	0.775356
	C7879	C	0.676273	0.768739	0.875646
	C7880	C	0.924647	0.766613	0.929804
	C7881	C	0.672081	0.827475	0.852568
	C7882	C	0.914897	0.872249	0.758555
	C7883	C	0.672366	0.820154	0.865438
	C7884	C	0.599102	0.821786	0.780152
	C7885	C	0.856077	0.767331	0.880709
	C7886	C	0.605079	0.821197	0.936661
	C7887	C	0.847592	0.875926	0.834794
	C7888	C	0.504700	0.867939	0.764366
	C7889	C	0.762061	0.815482	0.869979
	C7890	C	0.516548	0.770909	0.926096
	C7891	C	0.761677	0.830319	0.843969
	C7892	C	0.514501	0.817463	0.930854
	C7893	C	0.756905	0.872319	0.828984
	C7894	C	0.510032	0.826816	0.781551
	C7895	C	0.767063	0.772475	0.881346
	C7896	C	0.505218	0.860760	0.779838
	C7897	C	0.762381	0.807527	0.883627
	C7898	C	0.518862	0.780864	0.922093
	C7899	C	0.761249	0.838031	0.829716
	C7900	C	0.513664	0.808344	0.922988
	C7901	C	0.756017	0.863341	0.820571
	C7902	C	0.511024	0.835804	0.789889
	C7903	C	0.768263	0.781672	0.888900
	H7904	H	0.663835	0.867339	0.760026
	H7905	H	0.921097	0.814723	0.864794
	H7906	H	0.675585	0.768941	0.921812
	H7907	H	0.920656	0.827778	0.841828
	H7908	H	0.855042	0.819791	0.927087
	H7909	H	0.598049	0.874546	0.825890
	H7910	H	0.850629	0.827189	0.776287
	H7911	H	0.607288	0.772679	0.876112
	H7912	H	0.856123	0.770577	0.930877
	H7913	H	0.602459	0.831032	0.849184
	H7914	H	0.845545	0.870308	0.765307
	H7915	H	0.602866	0.818046	0.872035
	H7916	H	0.668896	0.824474	0.785107
	H7917	H	0.926247	0.770116	0.885317
	H7918	H	0.674190	0.817280	0.936167
	H7919	H	0.916440	0.872081	0.833561
	O7920	O	0.097256	0.866522	0.950778
	O7921	O	0.341581	0.800422	0.997950
	O7922	O	0.098577	0.778858	1.022846
	O7923	O	0.354163	0.846902	0.982079
	O7924	O	0.422886	0.799623	1.026006
	O7925	O	0.178568	0.867618	0.981580
	O7926	O	0.434094	0.848112	0.953555
	O7927	O	0.178210	0.780945	0.995134
	O7928	O	0.429020	0.779387	1.024840
	O7929	O	0.184640	0.847566	0.983940
	O7930	O	0.428354	0.867220	0.952242
	O7931	O	0.172117	0.800993	0.999672
	O7932	O	0.103619	0.847404	0.955421
	O7933	O	0.347629	0.780345	0.996584
	O7934	O	0.092419	0.799062	1.027328
	O7935	O	0.347946	0.866893	0.983529
	F7936	F	0.010188	0.790596	0.999395
	F7937	F	0.265939	0.857571	0.956674
	F7938	F	0.016537	0.857517	0.980324
	F7939	F	0.260488	0.789281	1.023389
	Al7940	Al	0.135340	0.789951	1.011370
	Al7941	Al	0.391019	0.857519	0.968580
	Al7942	Al	0.141174	0.857520	0.968528
	Al7943	Al	0.385291	0.789928	1.011451
	C7944	C	0.101513	0.880930	0.924124
	C7945	C	0.351155	0.818875	0.989896
	C7946	C	0.099829	0.760067	1.025791
	C7947	C	0.354346	0.828184	0.987524
	C7948	C	0.419558	0.817438	1.037387
	C7949	C	0.175312	0.885104	0.994102
	C7950	C	0.426653	0.831220	0.938262
	C7951	C	0.170989	0.763777	0.980419
	C7952	C	0.419725	0.760734	1.029974
	C7953	C	0.174514	0.829089	0.992195
	C7954	C	0.422670	0.882551	0.927761
	C7955	C	0.171338	0.819783	0.994528
	C7956	C	0.106346	0.829850	0.943181
	C7957	C	0.351045	0.762657	0.984443
	C7958	C	0.099563	0.816366	1.041247
	C7959	C	0.354829	0.883662	0.999342
	C7960	C	0.012103	0.877993	0.932531
	C7961	C	0.259616	0.814560	0.993389
	C7962	C	0.011215	0.765181	1.027513
	C7963	C	0.266134	0.833406	0.988681
	C7964	C	0.008646	0.812333	1.036578
	C7965	C	0.264338	0.879969	0.993439
	C7966	C	0.017335	0.834973	0.943981
	C7967	C	0.261759	0.767760	0.985355
	C7968	C	0.012596	0.870042	0.946220
	C7969	C	0.257479	0.804602	0.997253
	C7970	C	0.013208	0.775201	1.024916
	C7971	C	0.268545	0.843348	0.984637
	C7972	C	0.007869	0.802985	1.029516
	C7973	C	0.263570	0.870836	0.985608
	C7974	C	0.018571	0.844159	0.951561
	C7975	C	0.262657	0.777026	0.992831
	H7976	H	0.171042	0.877403	0.927591
	H7977	H	0.419740	0.814917	0.988892
	H7978	H	0.170855	0.763425	1.023721
	H7979	H	0.425258	0.831420	0.984628
	H7980	H	0.348955	0.814468	1.033607
	H7981	H	0.105495	0.882303	0.989343
	H7982	H	0.357573	0.835132	0.938823
	H7983	H	0.101419	0.767631	0.980913
	H7984	H	0.350927	0.764616	1.031466
	H7985	H	0.106019	0.833057	0.993161
	H7986	H	0.353408	0.880380	0.934264
	H7987	H	0.100285	0.816522	0.997348
	H7988	H	0.176632	0.832632	0.947725
	H7989	H	0.421756	0.765615	0.988218
	H7990	H	0.169147	0.812518	1.040659
	H7991	H	0.423662	0.879699	0.998955
	O7992	O	0.597322	0.866519	0.950770
	O7993	O	0.841199	0.800436	0.997808
	O7994	O	0.598517	0.778883	1.023021
	O7995	O	0.853732	0.846884	0.982145
	O7996	O	0.922835	0.799584	1.026049
	O7997	O	0.678133	0.867576	0.981653
	O7998	O	0.934143	0.848106	0.953577
	O7999	O	0.677640	0.780960	0.995079
	O8000	O	0.929047	0.779387	1.024743
	O8001	O	0.684227	0.847555	0.983952
	O8002	O	0.928179	0.867248	0.952247
	O8003	O	0.671724	0.800964	0.999558
	O8004	O	0.603526	0.847361	0.955510
	O8005	O	0.847124	0.780331	0.996497
	O8006	O	0.592418	0.799040	1.027379
	O8007	O	0.847458	0.866911	0.983461
	F8008	F	0.509880	0.790568	0.999496
	F8009	F	0.765867	0.857536	0.956706
	F8010	F	0.515999	0.857492	0.980282
	F8011	F	0.760642	0.789299	1.023273
	Al8012	Al	0.635225	0.789951	1.011383
	Al8013	Al	0.891240	0.857525	0.968534
	Al8014	Al	0.640925	0.857496	0.968549
	Al8015	Al	0.885632	0.789947	1.011365
	C8016	C	0.601782	0.880878	0.924075
	C8017	C	0.850670	0.818864	0.989847
	C8018	C	0.599954	0.760068	1.025627
	C8019	C	0.853907	0.828174	0.987544
	C8020	C	0.919343	0.817443	1.037399
	C8021	C	0.674711	0.885078	0.994084
	C8022	C	0.926609	0.831235	0.938273
	C8023	C	0.670249	0.763801	0.980361
	C8024	C	0.919615	0.760733	1.030135
	C8025	C	0.674152	0.829084	0.992365
	C8026	C	0.922363	0.882580	0.927769
	C8027	C	0.670909	0.819773	0.994631
	C8028	C	0.606458	0.829855	0.943172
	C8029	C	0.850395	0.762682	0.984413
	C8030	C	0.599665	0.816343	1.041321
	C8031	C	0.854246	0.883626	0.999373
	C8032	C	0.512275	0.877952	0.932496
	C8033	C	0.759117	0.814555	0.993418
	C8034	C	0.511296	0.765184	1.027410
	C8035	C	0.765709	0.833392	0.988790
	C8036	C	0.508821	0.812333	1.036558
	C8037	C	0.763675	0.879920	0.993464
	C8038	C	0.517336	0.834970	0.943948
	C8039	C	0.761024	0.767771	0.985310
	C8040	C	0.512568	0.870019	0.946194
	C8041	C	0.756981	0.804595	0.997184
	C8042	C	0.513175	0.775216	1.024961
	C8043	C	0.768088	0.843335	0.984698
	C8044	C	0.507969	0.802990	1.029490
	C8045	C	0.762976	0.870812	0.985641
	C8046	C	0.518404	0.844146	0.951574
	C8047	C	0.762009	0.777032	0.992782
	H8048	H	0.671278	0.877341	0.927530
	H8049	H	0.919192	0.814903	0.988753
	H8050	H	0.671033	0.763429	1.023597
	H8051	H	0.924909	0.831417	0.984596
	H8052	H	0.848704	0.814473	1.033623
	H8053	H	0.604843	0.882298	0.989288
	H8054	H	0.857555	0.835157	0.938792
	H8055	H	0.600704	0.767664	0.980808
	H8056	H	0.850751	0.764616	1.031588
	H8057	H	0.605722	0.833058	0.993391
	H8058	H	0.853019	0.880408	0.934263
	H8059	H	0.600014	0.816511	0.997456
	H8060	H	0.676582	0.832649	0.947773
	H8061	H	0.921147	0.765634	0.988174
	H8062	H	0.669173	0.812483	1.040829
	H8063	H	0.923123	0.879665	0.998976
	O8064	O	0.097140	0.991486	0.075687
	O8065	O	0.341768	0.925418	0.122813
	O8066	O	0.098238	0.903913	0.147916
	O8067	O	0.354231	0.971914	0.107043
	O8068	O	0.422957	0.924627	0.150983
	O8069	O	0.178393	0.992572	0.106644
	O8070	O	0.433980	0.973117	0.078521
	O8071	O	0.178248	0.905950	0.120149
	O8072	O	0.428964	0.904392	0.149703
	O8073	O	0.184703	0.972538	0.108853
	O8074	O	0.428195	0.992248	0.077215
	O8075	O	0.172380	0.925990	0.124553
	O8076	O	0.103309	0.972400	0.080410
	O8077	O	0.347732	0.905381	0.121504
	O8078	O	0.092618	0.924074	0.152316
	O8079	O	0.347801	0.991893	0.108440
	F8080	F	0.010532	0.915622	0.124322
	F8081	F	0.265648	0.982565	0.081633
	F8082	F	0.016393	0.982502	0.105310
	F8083	F	0.260501	0.914304	0.148317
	Al8084	Al	0.135441	0.914971	0.136347
	Al8085	Al	0.390897	0.982528	0.093477
	Al8086	Al	0.141061	0.982493	0.093531
	Al8087	Al	0.385359	0.914957	0.136427
	C8088	C	0.101565	1.005839	0.048945
	C8089	C	0.351589	0.943857	0.114807
	C8090	C	0.099700	0.885087	0.150769
	C8091	C	0.354756	0.953180	0.112493
	C8092	C	0.419608	0.942418	0.162450
	C8093	C	0.175032	1.010050	0.119289
	C8094	C	0.426526	0.956189	0.063394
	C8095	C	0.171270	0.888784	0.105549
	C8096	C	0.419719	0.885734	0.154994
	C8097	C	0.174893	0.954085	0.117164
	C8098	C	0.422498	1.007620	0.052898
	C8099	C	0.171736	0.944788	0.119461
	C8100	C	0.106164	0.954864	0.068134
	C8101	C	0.351352	0.887694	0.109419
	C8102	C	0.099545	0.941370	0.166219
	C8103	C	0.354828	1.008681	0.124114
	C8104	C	0.012086	1.002972	0.057473
	C8105	C	0.259932	0.939554	0.118307
	C8106	C	0.011082	0.890206	0.152454
	C8107	C	0.266504	0.958399	0.113678
	C8108	C	0.008677	0.937341	0.161510
	C8109	C	0.264180	1.004955	0.118397
	C8110	C	0.017082	0.959986	0.068923
	C8111	C	0.262049	0.892783	0.110377
	C8112	C	0.012446	0.995027	0.071172
	C8113	C	0.257688	0.929595	0.122120
	C8114	C	0.012987	0.900242	0.149867
	C8115	C	0.268728	0.968344	0.109604
	C8116	C	0.008025	0.927985	0.154453
	C8117	C	0.263373	0.995820	0.110575
	C8118	C	0.018172	0.969165	0.076572
	C8119	C	0.262761	0.902056	0.117804
	H8120	H	0.170929	1.002235	0.052252
	H8121	H	0.419895	0.939864	0.113785
	H8122	H	0.170833	0.888436	0.148757
	H8123	H	0.425574	0.956453	0.109590
	H8124	H	0.348908	0.939443	0.158745
	H8125	H	0.104996	1.007226	0.114734
	H8126	H	0.357392	0.960081	0.064021
	H8127	H	0.101706	0.892633	0.106114
	H8128	H	0.350893	0.889610	0.156460
	H8129	H	0.106081	0.958016	0.118150
	H8130	H	0.353230	1.005503	0.059539
	H8131	H	0.100528	0.941572	0.122241
	H8132	H	0.176393	0.957653	0.072711
	H8133	H	0.422044	0.890656	0.113167
	H8134	H	0.169139	0.937526	0.165681
	H8135	H	0.423649	1.004750	0.123593
	O8136	O	0.597213	0.991471	0.075657
	O8137	O	0.841470	0.925465	0.122765
	O8138	O	0.598476	0.903880	0.147898
	O8139	O	0.853923	0.971926	0.107198
	O8140	O	0.923051	0.924606	0.150954
	O8141	O	0.678194	0.992572	0.106684
	O8142	O	0.933894	0.973123	0.078587
	O8143	O	0.678014	0.905978	0.120032
	O8144	O	0.928765	0.904398	0.149663
	O8145	O	0.684301	0.972573	0.108917
	O8146	O	0.928115	0.992240	0.077196
	O8147	O	0.672148	0.925993	0.124650
	O8148	O	0.603376	0.972405	0.080373
	O8149	O	0.847519	0.905394	0.121307
	O8150	O	0.592494	0.924027	0.152428
	O8151	O	0.847617	0.991894	0.108534
	F8152	F	0.510187	0.915600	0.124448
	F8153	F	0.765815	0.982569	0.081721
	F8154	F	0.515997	0.982501	0.105187
	F8155	F	0.760769	0.914292	0.148186
	Al8156	Al	0.635458	0.914957	0.136364
	Al8157	Al	0.891070	0.982536	0.093599
	Al8158	Al	0.640875	0.982512	0.093482
	Al8159	Al	0.885813	0.914969	0.136257
	C8160	C	0.601560	1.005817	0.048867
	C8161	C	0.850829	0.943906	0.114808
	C8162	C	0.599821	0.885066	0.150663
	C8163	C	0.854106	0.953227	0.112473
	C8164	C	0.919320	0.942452	0.162387
	C8165	C	0.674733	1.010042	0.119323
	C8166	C	0.926392	0.956203	0.063308
	C8167	C	0.670609	0.888812	0.105419
	C8168	C	0.919471	0.885749	0.154984
	C8169	C	0.674282	0.954115	0.117208
	C8170	C	0.922479	1.007648	0.052927
	C8171	C	0.671084	0.944816	0.119520
	C8172	C	0.606353	0.954875	0.068047
	C8173	C	0.850722	0.887684	0.109342
	C8174	C	0.599812	0.941363	0.166216
	C8175	C	0.854777	1.008684	0.124106
	C8176	C	0.512185	1.002950	0.057423
	C8177	C	0.759240	0.939588	0.118350
	C8178	C	0.511266	0.890185	0.152404
	C8179	C	0.765918	0.958439	0.113736
	C8180	C	0.508933	0.937320	0.161558
	C8181	C	0.763994	1.004960	0.118380
	C8182	C	0.517238	0.959981	0.068925
	C8183	C	0.761528	0.892798	0.110237
	C8184	C	0.512543	0.994991	0.071097
	C8185	C	0.757277	0.929624	0.122192
	C8186	C	0.513129	0.900220	0.149878
	C8187	C	0.768298	0.968374	0.109696
	C8188	C	0.508043	0.927980	0.154511
	C8189	C	0.763149	0.995814	0.110638
	C8190	C	0.518351	0.969180	0.076456
	C8191	C	0.762461	0.902075	0.117646
	H8192	H	0.670961	1.002220	0.052160
	H8193	H	0.919218	0.939920	0.113768
	H8194	H	0.671008	0.888409	0.148620
	H8195	H	0.924906	0.956494	0.109534
	H8196	H	0.848605	0.939480	0.158640
	H8197	H	0.604573	1.007224	0.114816
	H8198	H	0.857239	0.960107	0.063915
	H8199	H	0.601195	0.892679	0.105954
	H8200	H	0.850608	0.889636	0.156376
	H8201	H	0.605605	0.958056	0.118175
	H8202	H	0.853238	1.005525	0.059563
	H8203	H	0.599864	0.941602	0.122332
	H8204	H	0.676678	0.957680	0.072521
	H8205	H	0.921528	0.890642	0.113077
	H8206	H	0.669464	0.937526	0.165643
	H8207	H	0.923745	1.004757	0.123623
	O8208	O	0.091835	0.987944	0.185365
	O8209	O	0.338079	0.919589	0.219583
	O8210	O	0.094110	0.897964	0.244363
	O8211	O	0.348586	0.966385	0.210346
	O8212	O	0.419075	0.918539	0.247823
	O8213	O	0.173300	0.987118	0.213535
	O8214	O	0.428015	0.968471	0.182510
	O8215	O	0.173724	0.899954	0.216625
	O8216	O	0.424467	0.898395	0.245946
	O8217	O	0.179110	0.966878	0.212176
	O8218	O	0.422638	0.988485	0.187051
	O8219	O	0.168547	0.920079	0.221194
	O8220	O	0.097552	0.967896	0.183942
	O8221	O	0.343319	0.899462	0.217770
	O8222	O	0.088528	0.918075	0.248883
	O8223	O	0.342887	0.986582	0.214745
	F8224	F	0.006277	0.909707	0.220784
	F8225	F	0.260146	0.978123	0.186898
	F8226	F	0.011014	0.976787	0.210860
	F8227	F	0.256375	0.908316	0.244687
	Al8228	Al	0.131335	0.909014	0.232761
	Al8229	Al	0.385475	0.977463	0.198793
	Al8230	Al	0.135552	0.977455	0.198884
	Al8231	Al	0.381347	0.909002	0.232784
	C8232	C	0.101261	1.006393	0.177293
	C8233	C	0.347276	0.938235	0.214014
	C8234	C	0.095745	0.879133	0.247421
	C8235	C	0.350112	0.947580	0.213208
	C8236	C	0.415518	0.936313	0.259571
	C8237	C	0.169661	1.004921	0.224915
	C8238	C	0.421004	0.951274	0.167958
	C8239	C	0.166726	0.882687	0.202485
	C8240	C	0.415525	0.879774	0.251594
	C8241	C	0.169804	0.948226	0.217382
	C8242	C	0.421597	1.007257	0.181917
	C8243	C	0.167017	0.938897	0.218158
	C8244	C	0.100961	0.950221	0.171714
	C8245	C	0.347001	0.881664	0.206057
	C8246	C	0.095523	0.935340	0.263059
	C8247	C	0.349869	1.003862	0.228716
	C8248	C	0.009711	1.002074	0.180782
	C8249	C	0.255660	0.933778	0.216535
	C8250	C	0.007153	0.884261	0.249091
	C8251	C	0.261486	0.952689	0.214916
	C8252	C	0.004608	0.931259	0.258519
	C8253	C	0.259001	0.999834	0.224026
	C8254	C	0.011666	0.955305	0.172756
	C8255	C	0.257631	0.886752	0.207041
	C8256	C	0.007669	0.992114	0.184646
	C8257	C	0.253850	0.923749	0.219226
	C8258	C	0.008900	0.894279	0.246357
	C8259	C	0.263315	0.962715	0.212363
	C8260	C	0.003820	0.921951	0.251278
	C8261	C	0.258353	0.990497	0.216965
	C8262	C	0.012523	0.964589	0.180209
	C8263	C	0.258350	0.896073	0.214260
	H8264	H	0.169817	1.002429	0.176277
	H8265	H	0.416093	0.934343	0.212635
	H8266	H	0.166811	0.882483	0.245329
	H8267	H	0.421139	0.950944	0.211186
	H8268	H	0.344717	0.933310	0.256008
	H8269	H	0.099103	1.001929	0.221143
	H8270	H	0.351495	0.955122	0.168537
	H8271	H	0.096954	0.886505	0.203101
	H8272	H	0.346590	0.883646	0.252930
	H8273	H	0.100813	0.952100	0.218751
	H8274	H	0.350726	1.003998	0.184812
	H8275	H	0.095750	0.935562	0.220119
	H8276	H	0.171709	0.953206	0.175368
	H8277	H	0.417887	0.884651	0.209624
	H8278	H	0.165299	0.931524	0.262401
	H8279	H	0.419273	0.999998	0.228094
	O8280	O	0.592094	0.987928	0.185258
	O8281	O	0.837640	0.919610	0.219528
	O8282	O	0.594066	0.897936	0.244390
	O8283	O	0.848366	0.966353	0.210459
	O8284	O	0.918797	0.918552	0.247757
	O8285	O	0.672655	0.987101	0.213485
	O8286	O	0.928127	0.968508	0.182518
	O8287	O	0.673497	0.899963	0.216604
	O8288	O	0.924595	0.898434	0.246001
	O8289	O	0.678835	0.966859	0.212075
	O8290	O	0.922346	0.988491	0.187102
	O8291	O	0.668035	0.920070	0.221214
	O8292	O	0.597533	0.967899	0.183799
	O8293	O	0.843043	0.899400	0.217860
	O8294	O	0.588667	0.918020	0.249014
	O8295	O	0.842179	0.986562	0.214870
	F8296	F	0.506079	0.909692	0.220894
	F8297	F	0.760301	0.978101	0.186951
	F8298	F	0.510626	0.976767	0.210725
	F8299	F	0.756649	0.908300	0.244707
	Al8300	Al	0.631263	0.908991	0.232842
	Al8301	Al	0.885762	0.977458	0.198929
	Al8302	Al	0.635508	0.977434	0.198835
	Al8303	Al	0.881596	0.909015	0.232727
	C8304	C	0.601401	1.006377	0.177139
	C8305	C	0.846863	0.938192	0.214011
	C8306	C	0.595828	0.879112	0.247480
	C8307	C	0.849699	0.947536	0.213202
	C8308	C	0.915171	0.936341	0.259502
	C8309	C	0.669106	1.004927	0.224911
	C8310	C	0.920768	0.951301	0.167896
	C8311	C	0.666300	0.882698	0.202423
	C8312	C	0.915518	0.879812	0.251633
	C8313	C	0.669428	0.948215	0.217355
	C8314	C	0.921461	1.007297	0.182052
	C8315	C	0.666543	0.938890	0.218165
	C8316	C	0.601229	0.950223	0.171701
	C8317	C	0.846621	0.881666	0.206100
	C8318	C	0.595754	0.935282	0.263180
	C8319	C	0.849247	1.003831	0.228777
	C8320	C	0.509883	1.002053	0.180650
	C8321	C	0.755148	0.933762	0.216504
	C8322	C	0.507050	0.884233	0.249025
	C8323	C	0.761062	0.952657	0.214868
	C8324	C	0.504864	0.931226	0.258565
	C8325	C	0.758345	0.999818	0.224078
	C8326	C	0.511828	0.955289	0.172745
	C8327	C	0.757154	0.886737	0.207093
	C8328	C	0.507937	0.992095	0.184557
	C8329	C	0.753280	0.923747	0.219192
	C8330	C	0.508787	0.894253	0.246331
	C8331	C	0.762988	0.962687	0.212334
	C8332	C	0.504096	0.921918	0.251327
	C8333	C	0.757604	0.990478	0.217013
	C8334	C	0.512492	0.964567	0.180159
	C8335	C	0.757938	0.896047	0.214316
	H8336	H	0.669986	1.002418	0.176109
	H8337	H	0.915672	0.934303	0.212648
	H8338	H	0.666932	0.882477	0.245464
	H8339	H	0.920791	0.950894	0.211203
	H8340	H	0.844292	0.933346	0.255920
	H8341	H	0.598632	1.001934	0.221127
	H8342	H	0.851340	0.955168	0.168429
	H8343	H	0.596698	0.886539	0.202984
	H8344	H	0.846607	0.883701	0.252943
	H8345	H	0.600541	0.952093	0.218743
	H8346	H	0.850500	1.004046	0.184944
	H8347	H	0.595401	0.935548	0.220185
	H8348	H	0.671974	0.953216	0.175320
	H8349	H	0.917454	0.884660	0.209674
	H8350	H	0.665452	0.931442	0.262591
	H8351	H	0.918689	0.999964	0.228198
	O8352	O	0.088035	0.982106	0.282097
	O8353	O	0.334661	0.913664	0.316657
	O8354	O	0.090639	0.891987	0.341354
	O8355	O	0.343965	0.960440	0.306884
	O8356	O	0.415463	0.912616	0.344762
	O8357	O	0.169234	0.981061	0.310296
	O8358	O	0.423792	0.962436	0.279142
	O8359	O	0.170195	0.894016	0.313583
	O8360	O	0.421187	0.892477	0.343056
	O8361	O	0.174408	0.960904	0.308405
	O8362	O	0.418255	0.982553	0.283647
	O8363	O	0.165021	0.914096	0.318118
	O8364	O	0.092950	0.961974	0.280246
	O8365	O	0.339752	0.893469	0.314919
	O8366	O	0.085038	0.912128	0.345841
	O8367	O	0.338847	0.980545	0.311397
	F8368	F	0.002511	0.903754	0.317797
	F8369	F	0.255906	0.972196	0.283333
	F8370	F	0.006826	0.970799	0.307245
	F8371	F	0.252934	0.902369	0.341733
	Al8372	Al	0.127674	0.903054	0.329769
	Al8373	Al	0.381290	0.971498	0.295289
	Al8374	Al	0.131236	0.971510	0.295270
	Al8375	Al	0.377699	0.903058	0.329804
	C8376	C	0.097063	1.000738	0.276653
	C8377	C	0.343295	0.932278	0.310856
	C8378	C	0.091811	0.873169	0.344308
	C8379	C	0.345773	0.941620	0.309924
	C8380	C	0.411547	0.930407	0.356403
	C8381	C	0.165479	0.998785	0.322193
	C8382	C	0.416959	0.945189	0.264969
	C8383	C	0.162965	0.876739	0.299476
	C8384	C	0.411775	0.873838	0.348480
	C8385	C	0.165514	0.942257	0.314039
	C8386	C	0.416671	1.001393	0.280761
	C8387	C	0.163004	0.932920	0.314967
	C8388	C	0.096813	0.944207	0.268501
	C8389	C	0.343299	0.875722	0.303023
	C8390	C	0.091825	0.929413	0.359975
	C8391	C	0.345826	0.997810	0.325597
	C8392	C	0.005427	0.996280	0.279137
	C8393	C	0.251815	0.927814	0.313414
	C8394	C	0.003232	0.878295	0.345983
	C8395	C	0.256960	0.946726	0.311490
	C8396	C	0.000994	0.925334	0.355400
	C8397	C	0.255007	0.993736	0.321070
	C8398	C	0.007384	0.949276	0.269521
	C8399	C	0.253926	0.880797	0.304068
	C8400	C	0.003758	0.986253	0.281766
	C8401	C	0.250247	0.917790	0.316173
	C8402	C	0.005197	0.888322	0.343344
	C8403	C	0.258693	0.956755	0.308807
	C8404	C	0.000362	0.916013	0.348217
	C8405	C	0.254279	0.984434	0.313785
	C8406	C	0.007884	0.958586	0.276740
	C8407	C	0.254744	0.890107	0.311315
	H8408	H	0.166021	0.996868	0.275303
	H8409	H	0.412216	0.928406	0.309550
	H8410	H	0.163005	0.876518	0.342315
	H8411	H	0.416797	0.944991	0.307898
	H8412	H	0.340824	0.927389	0.352833
	H8413	H	0.094766	0.995746	0.318696
	H8414	H	0.347389	0.949035	0.265572
	H8415	H	0.093314	0.880570	0.300120
	H8416	H	0.342807	0.877701	0.349869
	H8417	H	0.096407	0.946125	0.315345
	H8418	H	0.345477	0.998058	0.282785
	H8419	H	0.091975	0.929562	0.316979
	H8420	H	0.167586	0.947226	0.272045
	H8421	H	0.414180	0.878715	0.306589
	H8422	H	0.161540	0.925582	0.359381
	H8423	H	0.415529	0.993980	0.324947
	O8424	O	0.587814	0.982102	0.282078
	O8425	O	0.834246	0.913682	0.316535
	O8426	O	0.590734	0.891983	0.341331
	O8427	O	0.843661	0.960422	0.306893
	O8428	O	0.915360	0.912589	0.344813
	O8429	O	0.668786	0.981064	0.310264
	O8430	O	0.923254	0.962475	0.279100
	O8431	O	0.669890	0.894066	0.313453
	O8432	O	0.921119	0.892499	0.343066
	O8433	O	0.674111	0.960911	0.308434
	O8434	O	0.918462	0.982560	0.283745
	O8435	O	0.664688	0.914109	0.318137
	O8436	O	0.593423	0.961950	0.280257
	O8437	O	0.839391	0.893477	0.314823
	O8438	O	0.585134	0.912110	0.345921
	O8439	O	0.838370	0.980581	0.311427
	F8440	F	0.502240	0.903739	0.317870
	F8441	F	0.756078	0.972214	0.283386
	F8442	F	0.506383	0.970806	0.307163
	F8443	F	0.752871	0.902384	0.341626
	Al8444	Al	0.627575	0.903061	0.329727
	Al8445	Al	0.881509	0.971510	0.295331
	Al8446	Al	0.631146	0.971510	0.295253
	Al8447	Al	0.877944	0.903071	0.329730
	C8448	C	0.596885	1.000714	0.276557
	C8449	C	0.842901	0.932301	0.310846
	C8450	C	0.591954	0.873156	0.344263
	C8451	C	0.845441	0.941640	0.309930
	C8452	C	0.911399	0.930402	0.356407
	C8453	C	0.665089	0.998828	0.322047
	C8454	C	0.916500	0.945209	0.264948
	C8455	C	0.662629	0.876782	0.299344
	C8456	C	0.911499	0.873847	0.348498
	C8457	C	0.665157	0.942272	0.314118
	C8458	C	0.916695	1.001396	0.280747
	C8459	C	0.662611	0.932938	0.315019
	C8460	C	0.597187	0.944156	0.268580
	C8461	C	0.842992	0.875766	0.302928
	C8462	C	0.591870	0.929391	0.360063
	C8463	C	0.845477	0.997824	0.325527
	C8464	C	0.505226	0.996266	0.279035
	C8465	C	0.751405	0.927835	0.313466
	C8466	C	0.503394	0.878291	0.345997
	C8467	C	0.756682	0.946737	0.311592
	C8468	C	0.501012	0.925332	0.355446
	C8469	C	0.754566	0.993771	0.320957
	C8470	C	0.507824	0.949241	0.269550
	C8471	C	0.753540	0.880840	0.303905
	C8472	C	0.503469	0.986241	0.281693
	C8473	C	0.749834	0.917811	0.316181
	C8474	C	0.505413	0.888315	0.343365
	C8475	C	0.758338	0.956756	0.308849
	C8476	C	0.500498	0.916005	0.348233
	C8477	C	0.753721	0.984455	0.313755
	C8478	C	0.508448	0.958559	0.276775
	C8479	C	0.754358	0.890145	0.311184
	H8480	H	0.665861	0.996846	0.275186
	H8481	H	0.911752	0.928424	0.309464
	H8482	H	0.663131	0.876491	0.342221
	H8483	H	0.916386	0.945014	0.307827
	H8484	H	0.840605	0.927380	0.352879
	H8485	H	0.594358	0.995797	0.318552
	H8486	H	0.846795	0.949034	0.265588
	H8487	H	0.593015	0.880621	0.299969
	H8488	H	0.842605	0.877728	0.349902
	H8489	H	0.596136	0.946142	0.315423
	H8490	H	0.845537	0.998047	0.282721
	H8491	H	0.591628	0.929574	0.317024
	H8492	H	0.667998	0.947159	0.272134
	H8493	H	0.913696	0.878780	0.306515
	H8494	H	0.661511	0.925542	0.359501
	H8495	H	0.915136	0.993987	0.324908
	O8496	O	0.084506	0.976152	0.379032
	O8497	O	0.330015	0.907674	0.412950
	O8498	O	0.086184	0.886069	0.437884
	O8499	O	0.340426	0.954485	0.403694
	O8500	O	0.411181	0.906656	0.441172
	O8501	O	0.165569	0.975115	0.407187
	O8502	O	0.419986	0.956567	0.375906
	O8503	O	0.166423	0.888000	0.410205
	O8504	O	0.416893	0.886637	0.439812
	O8505	O	0.170881	0.954953	0.405397
	O8506	O	0.414996	0.976605	0.380553
	O8507	O	0.160489	0.908152	0.414538
	O8508	O	0.089217	0.956018	0.377248
	O8509	O	0.335890	0.887433	0.411630
	O8510	O	0.080630	0.906135	0.442334
	O8511	O	0.335132	0.974638	0.408252
	F8512	F	-0.001558	0.897755	0.414169
	F8513	F	0.252255	0.966253	0.380244
	F8514	F	0.003166	0.964873	0.404214
	F8515	F	0.248622	0.896448	0.438162
	Al8516	Al	0.123501	0.897102	0.426164
	Al8517	Al	0.377585	0.965563	0.392169
	Al8518	Al	0.127698	0.965562	0.392243
	Al8519	Al	0.373472	0.897113	0.426229
	C8520	C	0.093256	0.994784	0.373403
	C8521	C	0.339227	0.926313	0.407602
	C8522	C	0.087054	0.867283	0.442979
	C8523	C	0.341981	0.935652	0.406767
	C8524	C	0.407719	0.924366	0.453208
	C8525	C	0.161690	0.992876	0.419017
	C8526	C	0.412885	0.939282	0.361767
	C8527	C	0.159151	0.870713	0.396230
	C8528	C	0.407462	0.868176	0.447891
	C8529	C	0.161791	0.936319	0.410982
	C8530	C	0.412991	0.995414	0.377416
	C8531	C	0.159036	0.926983	0.411814
	C8532	C	0.092984	0.938288	0.365352
	C8533	C	0.339173	0.869624	0.400132
	C8534	C	0.087348	0.923301	0.457034
	C8535	C	0.342102	0.991874	0.422487
	C8536	C	0.001693	0.990324	0.375909
	C8537	C	0.247613	0.921859	0.410104
	C8538	C	-0.001133	0.872502	0.444249
	C8539	C	0.253358	0.940776	0.408397
	C8540	C	-0.003359	0.919273	0.452213
	C8541	C	0.251133	0.987811	0.417953
	C8542	C	0.003522	0.943347	0.366373
	C8543	C	0.249958	0.874730	0.400987
	C8544	C	0.000185	0.980298	0.378632
	C8545	C	0.245770	0.911830	0.412633
	C8546	C	0.000928	0.882464	0.440404
	C8547	C	0.255182	0.950802	0.405711
	C8548	C	-0.003910	0.910007	0.444773
	C8549	C	0.250498	0.978507	0.410672
	C8550	C	0.004170	0.952647	0.373660
	C8551	C	0.250914	0.884066	0.408078
	H8552	H	0.162265	0.990912	0.372100
	H8553	H	0.408071	0.922432	0.406224
	H8554	H	0.158017	0.870537	0.440083
	H8555	H	0.413193	0.939008	0.404757
	H8556	H	0.337017	0.921395	0.449465
	H8557	H	0.090717	0.989891	0.415500
	H8558	H	0.343232	0.943114	0.362329
	H8559	H	0.089509	0.874551	0.396750
	H8560	H	0.338931	0.872139	0.448967
	H8561	H	0.092849	0.940200	0.412370
	H8562	H	0.341922	0.992054	0.379398
	H8563	H	0.087888	0.923631	0.413856
	H8564	H	0.163773	0.941311	0.368890
	H8565	H	0.409844	0.872587	0.403913
	H8566	H	0.157017	0.919465	0.456468
	H8567	H	0.411889	0.988063	0.421819
	O8568	O	0.584659	0.976160	0.379164
	O8569	O	0.829810	0.907710	0.412881
	O8570	O	0.586265	0.886070	0.437889
	O8571	O	0.840035	0.954445	0.403860
	O8572	O	0.911019	0.906645	0.441171
	O8573	O	0.665229	0.975097	0.407283
	O8574	O	0.919647	0.956551	0.375973
	O8575	O	0.665739	0.888013	0.410088
	O8576	O	0.916826	0.886650	0.439818
	O8577	O	0.670458	0.954956	0.405544
	O8578	O	0.914885	0.976591	0.380553
	O8579	O	0.660137	0.908155	0.414534
	O8580	O	0.589483	0.955997	0.377276
	O8581	O	0.835282	0.887437	0.411412
	O8582	O	0.580826	0.906106	0.442403
	O8583	O	0.834882	0.974615	0.408392
	F8584	F	0.498121	0.897769	0.414256
	F8585	F	0.752368	0.966222	0.380424
	F8586	F	0.502487	0.964875	0.404182
	F8587	F	0.748741	0.896439	0.437999
	Al8588	Al	0.623482	0.897094	0.426119
	Al8589	Al	0.877973	0.965548	0.392281
	Al8590	Al	0.627472	0.965535	0.392316
	Al8591	Al	0.873795	0.897114	0.426095
	C8592	C	0.593500	0.994777	0.373488
	C8593	C	0.838597	0.926310	0.407402
	C8594	C	0.587197	0.867282	0.443044
	C8595	C	0.841320	0.935647	0.406594
	C8596	C	0.907265	0.924363	0.453166
	C8597	C	0.661430	0.992857	0.419022
	C8598	C	0.912596	0.939282	0.361759
	C8599	C	0.658330	0.870701	0.396198
	C8600	C	0.907329	0.868177	0.447801
	C8601	C	0.661156	0.936309	0.410904
	C8602	C	0.912834	0.995437	0.377474
	C8603	C	0.658411	0.926972	0.411722
	C8604	C	0.593107	0.938266	0.365423
	C8605	C	0.838476	0.869615	0.400147
	C8606	C	0.587829	0.923276	0.457120
	C8607	C	0.841836	0.991863	0.422549
	C8608	C	0.501877	0.990314	0.375953
	C8609	C	0.746998	0.921861	0.409944
	C8610	C	0.498919	0.872500	0.444286
	C8611	C	0.752693	0.940758	0.408317
	C8612	C	0.497010	0.919267	0.452278
	C8613	C	0.750913	0.987795	0.418006
	C8614	C	0.503706	0.943340	0.366394
	C8615	C	0.749247	0.874719	0.400948
	C8616	C	0.500271	0.980294	0.378699
	C8617	C	0.745378	0.911839	0.412560
	C8618	C	0.500976	0.882461	0.440416
	C8619	C	0.754616	0.950785	0.405779
	C8620	C	0.496236	0.909994	0.444821
	C8621	C	0.750214	0.978482	0.410778
	C8622	C	0.504479	0.952648	0.373659
	C8623	C	0.750175	0.884069	0.407955
	H8624	H	0.662535	0.990901	0.372254
	H8625	H	0.907513	0.922429	0.405988
	H8626	H	0.658155	0.870531	0.440159
	H8627	H	0.912410	0.939000	0.404564
	H8628	H	0.836533	0.921393	0.449420
	H8629	H	0.590493	0.989864	0.415516
	H8630	H	0.842876	0.943112	0.362340
	H8631	H	0.588848	0.874565	0.396712
	H8632	H	0.838758	0.872133	0.448852
	H8633	H	0.592198	0.940189	0.412333
	H8634	H	0.841799	0.992068	0.379503
	H8635	H	0.587370	0.923621	0.413816
	H8636	H	0.663926	0.941269	0.368982
	H8637	H	0.909188	0.872580	0.403930
	H8638	H	0.657445	0.919421	0.456580
	H8639	H	0.911709	0.988058	0.421950
	O8640	O	0.080038	0.970219	0.475481
	O8641	O	0.324336	0.901987	0.516137
	O8642	O	0.080618	0.882282	0.547715
	O8643	O	0.336285	0.948549	0.500215
	O8644	O	0.405447	0.902138	0.544662
	O8645	O	0.161230	0.969183	0.503556
	O8646	O	0.416062	0.950539	0.472561
	O8647	O	0.160842	0.882648	0.516572
	O8648	O	0.411514	0.883027	0.549272
	O8649	O	0.166893	0.949122	0.502087
	O8650	O	0.410429	0.970695	0.477021
	O8651	O	0.154794	0.902616	0.517960
	O8652	O	0.085253	0.949963	0.474006
	O8653	O	0.330282	0.881984	0.518360
	O8654	O	0.074870	0.901479	0.546401
	O8655	O	0.330731	0.968629	0.504822
	F8656	F	-0.006837	0.892063	0.519761
	F8657	F	0.247970	0.960275	0.476665
	F8658	F	-0.001041	0.958964	0.500667
	F8659	F	0.243059	0.891982	0.543430
	Al8660	Al	0.117926	0.892033	0.531507
	Al8661	Al	0.373349	0.959616	0.488540
	Al8662	Al	0.123464	0.959614	0.488643
	Al8663	Al	0.367932	0.892024	0.531511
	C8664	C	0.089072	0.988839	0.470243
	C8665	C	0.334193	0.920459	0.507800
	C8666	C	0.086056	0.866974	0.572161
	C8667	C	0.337263	0.929779	0.505420
	C8668	C	0.402390	0.919678	0.556959
	C8669	C	0.157543	0.986852	0.515784
	C8670	C	0.409031	0.933216	0.458725
	C8671	C	0.153778	0.865858	0.500910
	C8672	C	0.407427	0.868688	0.576053
	C8673	C	0.157401	0.930655	0.510125
	C8674	C	0.409184	0.989499	0.474229
	C8675	C	0.154405	0.921355	0.512507
	C8676	C	0.088728	0.932152	0.462595
	C8677	C	0.333721	0.864509	0.505731
	C8678	C	0.082246	0.918366	0.561641
	C8679	C	0.337910	0.985795	0.519491
	C8680	C	-0.002618	0.984386	0.472594
	C8681	C	0.242651	0.916134	0.511326
	C8682	C	-0.003620	0.871615	0.567569
	C8683	C	0.248938	0.934986	0.506599
	C8684	C	-0.008428	0.914630	0.555940
	C8685	C	0.247021	0.981783	0.514710
	C8686	C	-0.000525	0.937250	0.463436
	C8687	C	0.244452	0.869590	0.506641
	C8688	C	-0.004237	0.974358	0.475166
	C8689	C	0.240294	0.906185	0.515383
	C8690	C	-0.003730	0.879538	0.553836
	C8691	C	0.250962	0.944943	0.502719
	C8692	C	-0.009435	0.905430	0.548412
	C8693	C	0.246196	0.972519	0.507229
	C8694	C	0.000238	0.946590	0.470497
	C8695	C	0.245304	0.878730	0.514439
	H8696	H	0.157997	0.984953	0.468994
	H8697	H	0.402759	0.916491	0.506826
	H8698	H	0.155317	0.869113	0.565549
	H8699	H	0.408223	0.933052	0.502549
	H8700	H	0.332178	0.916859	0.552514
	H8701	H	0.086658	0.983883	0.512148
	H8702	H	0.339458	0.937061	0.459228
	H8703	H	0.084885	0.869798	0.501436
	H8704	H	0.337849	0.872259	0.572744
	H8705	H	0.088759	0.934608	0.511124
	H8706	H	0.338076	0.986152	0.476271
	H8707	H	0.083474	0.918117	0.515421
	H8708	H	0.159409	0.935124	0.466353
	H8709	H	0.403713	0.867344	0.510285
	H8710	H	0.151238	0.914437	0.561114
	H8711	H	0.407586	0.981956	0.518903
	O8712	O	0.580022	0.970186	0.475431
	O8713	O	0.823850	0.902020	0.516051
	O8714	O	0.580604	0.882298	0.547729
	O8715	O	0.836016	0.948562	0.500481
	O8716	O	0.905330	0.902148	0.544682
	O8717	O	0.660792	0.969186	0.503583
	O8718	O	0.915649	0.950535	0.472630
	O8719	O	0.660913	0.882652	0.516492
	O8720	O	0.911537	0.883070	0.549310
	O8721	O	0.666678	0.949150	0.502371
	O8722	O	0.910330	0.970658	0.477055
	O8723	O	0.654367	0.902647	0.517916
	O8724	O	0.585635	0.949932	0.474081
	O8725	O	0.830379	0.881977	0.518318
	O8726	O	0.574905	0.901448	0.546418
	O8727	O	0.830268	0.968634	0.504853
	F8728	F	0.492598	0.892051	0.519816
	F8729	F	0.748177	0.960253	0.476820
	F8730	F	0.498383	0.958948	0.500592
	F8731	F	0.743245	0.891989	0.543305
	Al8732	Al	0.617840	0.892031	0.531481
	Al8733	Al	0.873671	0.959610	0.488718
	Al8734	Al	0.623309	0.959620	0.488666
	Al8735	Al	0.867945	0.892066	0.531443
	C8736	C	0.589382	0.988828	0.470127
	C8737	C	0.833393	0.920471	0.507676
	C8738	C	0.586566	0.866942	0.572103
	C8739	C	0.836496	0.929789	0.505412
	C8740	C	0.902621	0.919765	0.556732
	C8741	C	0.656941	0.986871	0.515743
	C8742	C	0.908661	0.933212	0.458695
	C8743	C	0.653907	0.865900	0.500719
	C8744	C	0.906833	0.868715	0.576043
	C8745	C	0.656794	0.930679	0.510317
	C8746	C	0.908687	0.989499	0.474218
	C8747	C	0.653707	0.921376	0.512599
	C8748	C	0.589076	0.932123	0.462664
	C8749	C	0.833574	0.864487	0.505755
	C8750	C	0.582282	0.918363	0.561652
	C8751	C	0.837218	0.985802	0.519504
	C8752	C	0.497768	0.984379	0.472520
	C8753	C	0.741913	0.916161	0.511295
	C8754	C	0.496803	0.871573	0.567499
	C8755	C	0.748343	0.934998	0.506737
	C8756	C	0.491571	0.914591	0.556007
	C8757	C	0.746399	0.981797	0.514698
	C8758	C	0.499802	0.937239	0.463465
	C8759	C	0.744531	0.869609	0.506527
	C8760	C	0.495835	0.974354	0.475108
	C8761	C	0.739820	0.906215	0.515336
	C8762	C	0.496310	0.879522	0.553827
	C8763	C	0.750677	0.944958	0.502955
	C8764	C	0.490524	0.905395	0.548455
	C8765	C	0.745747	0.972527	0.507236
	C8766	C	0.500541	0.946582	0.470517
	C8767	C	0.745388	0.878737	0.514352
	H8768	H	0.658313	0.984947	0.468831
	H8769	H	0.901858	0.916498	0.506579
	H8770	H	0.655874	0.869084	0.565513
	H8771	H	0.907381	0.933057	0.502524
	H8772	H	0.832332	0.916987	0.552170
	H8773	H	0.586090	0.983907	0.512077
	H8774	H	0.839089	0.937063	0.459217
	H8775	H	0.584996	0.869837	0.501158
	H8776	H	0.837268	0.872277	0.572662
	H8777	H	0.588300	0.934641	0.511451
	H8778	H	0.837560	0.986145	0.476218
	H8779	H	0.582794	0.918141	0.515547
	H8780	H	0.659736	0.935092	0.466455
	H8781	H	0.903599	0.867276	0.510393
	H8782	H	0.651392	0.914456	0.561056
	H8783	H	0.906844	0.981970	0.518932
	O8784	O	0.074405	0.964503	0.578672
	O8785	O	0.332686	0.908130	0.675198
	O8786	O	0.088501	0.891288	0.713588
	O8787	O	0.330558	0.944816	0.610298
	O8788	O	0.413873	0.910566	0.706083
	O8789	O	0.155486	0.964646	0.607152
	O8790	O	0.410752	0.945145	0.579057
	O8791	O	0.169051	0.890055	0.681635
	O8792	O	0.419127	0.892016	0.714718
	O8793	O	0.161541	0.945554	0.611796
	O8794	O	0.405014	0.965140	0.580496
	O8795	O	0.163412	0.908831	0.676498
	O8796	O	0.080449	0.944471	0.580908
	O8797	O	0.338367	0.889398	0.683570
	O8798	O	0.083096	0.909937	0.707824
	O8799	O	0.324960	0.963941	0.609017
	F8800	F	0.000725	0.899231	0.683410
	F8801	F	0.242809	0.954575	0.582331
	F8802	F	-0.007060	0.954490	0.605915
	F8803	F	0.251053	0.900695	0.706243
	Al8804	Al	0.125925	0.899963	0.694820
	Al8805	Al	0.367975	0.954538	0.594028
	Al8806	Al	0.117965	0.954562	0.594028
	Al8807	Al	0.375913	0.899982	0.694825
	C8808	C	0.084046	0.982973	0.570394
	C8809	C	0.336769	0.922178	0.647648
	C8810	C	0.094053	0.877367	0.741438
	C8811	C	0.336412	0.929505	0.634776
	C8812	C	0.410167	0.927694	0.720172
	C8813	C	0.152531	0.982188	0.619369
	C8814	C	0.403872	0.928343	0.563441
	C8815	C	0.161950	0.873673	0.665011
	C8816	C	0.414777	0.878943	0.744250
	C8817	C	0.157084	0.931086	0.638244
	C8818	C	0.404442	0.983852	0.575091
	C8819	C	0.157367	0.923751	0.651123
	C8820	C	0.083749	0.927022	0.568170
	C8821	C	0.341708	0.872250	0.669542
	C8822	C	0.089914	0.926364	0.724256
	C8823	C	0.332261	0.980829	0.624288
	C8824	C	-0.007463	0.978645	0.573915
	C8825	C	0.247298	0.919237	0.656029
	C8826	C	0.004262	0.881597	0.735540
	C8827	C	0.246652	0.934070	0.629999
	C8828	C	-0.000824	0.922743	0.718426
	C8829	C	0.241603	0.977074	0.618598
	C8830	C	-0.005290	0.932144	0.568989
	C8831	C	0.252608	0.877221	0.671102
	C8832	C	-0.009500	0.968694	0.577943
	C8833	C	0.247848	0.911509	0.670257
	C8834	C	0.003963	0.888822	0.720161
	C8835	C	0.246260	0.942037	0.616370
	C8836	C	-0.001542	0.913759	0.710145
	C8837	C	0.240529	0.967880	0.611061
	C8838	C	-0.004467	0.941237	0.576949
	C8839	C	0.253597	0.886201	0.679434
	H8840	H	0.152590	0.979004	0.569400
	H8841	H	0.406313	0.918688	0.651200
	H8842	H	0.163410	0.879354	0.734777
	H8843	H	0.405823	0.931708	0.628356
	H8844	H	0.340221	0.924951	0.715519
	H8845	H	0.082186	0.979405	0.614836
	H8846	H	0.334846	0.932245	0.564056
	H8847	H	0.093410	0.877569	0.666110
	H8848	H	0.345341	0.882226	0.739913
	H8849	H	0.087584	0.934601	0.634682
	H8850	H	0.333654	0.980581	0.578027
	H8851	H	0.088168	0.921540	0.657584
	H8852	H	0.153766	0.929804	0.572848
	H8853	H	0.411415	0.874977	0.674363
	H8854	H	0.158810	0.922531	0.722997
	H8855	H	0.401338	0.976915	0.623788
	O8856	O	0.574595	0.964504	0.578675
	O8857	O	0.832697	0.908121	0.675183
	O8858	O	0.588254	0.891295	0.713547
	O8859	O	0.830316	0.944836	0.610341
	O8860	O	0.913693	0.910532	0.706140
	O8861	O	0.655128	0.964649	0.607200
	O8862	O	0.910951	0.945146	0.579145
	O8863	O	0.668847	0.890047	0.681733
	O8864	O	0.919300	0.892032	0.714761
	O8865	O	0.661266	0.945514	0.611754
	O8866	O	0.904816	0.965115	0.580535
	O8867	O	0.663418	0.908826	0.676445
	O8868	O	0.580242	0.944484	0.580902
	O8869	O	0.838249	0.889405	0.683542
	O8870	O	0.583088	0.909917	0.707896
	O8871	O	0.824707	0.963961	0.609068
	F8872	F	0.500814	0.899253	0.683399
	F8873	F	0.742958	0.954571	0.582382
	F8874	F	0.493033	0.954457	0.605882
	F8875	F	0.751078	0.900677	0.706217
	Al8876	Al	0.625876	0.899964	0.694835
	Al8877	Al	0.868228	0.954534	0.594138
	Al8878	Al	0.617803	0.954528	0.594041
	Al8879	Al	0.875937	0.899978	0.694781
	C8880	C	0.584314	0.982963	0.570308
	C8881	C	0.836685	0.922191	0.647645
	C8882	C	0.593918	0.877324	0.741368
	C8883	C	0.836283	0.929521	0.634791
	C8884	C	0.910002	0.927705	0.720116
	C8885	C	0.652139	0.982216	0.619353
	C8886	C	0.904102	0.928431	0.563226
	C8887	C	0.662022	0.873697	0.664951
	C8888	C	0.914680	0.878979	0.744293
	C8889	C	0.657124	0.931116	0.638356
	C8890	C	0.904333	0.983861	0.575126
	C8891	C	0.657539	0.923776	0.651224
	C8892	C	0.583730	0.927027	0.568166
	C8893	C	0.841672	0.872238	0.669538
	C8894	C	0.590049	0.926360	0.724284
	C8895	C	0.831912	0.980825	0.624275
	C8896	C	0.492737	0.978646	0.573849
	C8897	C	0.747308	0.919244	0.656040
	C8898	C	0.504226	0.881575	0.735494
	C8899	C	0.746574	0.934086	0.630029
	C8900	C	0.499397	0.922721	0.718433
	C8901	C	0.741183	0.977079	0.618642
	C8902	C	0.494556	0.932110	0.569055
	C8903	C	0.752584	0.877250	0.671040
	C8904	C	0.490550	0.968703	0.577921
	C8905	C	0.747888	0.911513	0.670257
	C8906	C	0.503929	0.888787	0.720097
	C8907	C	0.746033	0.942022	0.616338
	C8908	C	0.498645	0.913769	0.710135
	C8909	C	0.740205	0.967886	0.611090
	C8910	C	0.495303	0.941245	0.576890
	C8911	C	0.753447	0.886209	0.679449
	H8912	H	0.652752	0.978986	0.569308
	H8913	H	0.906318	0.918699	0.651185
	H8914	H	0.663252	0.879272	0.734637
	H8915	H	0.905641	0.931711	0.628346
	H8916	H	0.840104	0.924967	0.715419
	H8917	H	0.581995	0.979424	0.614766
	H8918	H	0.835080	0.932354	0.563750
	H8919	H	0.593212	0.877562	0.666010
	H8920	H	0.845273	0.882293	0.739985
	H8921	H	0.587828	0.934633	0.634831
	H8922	H	0.833432	0.980607	0.578044
	H8923	H	0.588444	0.921577	0.657724
	H8924	H	0.653855	0.929829	0.572724
	H8925	H	0.911499	0.874941	0.674400
	H8926	H	0.659041	0.922540	0.723051
	H8927	H	0.900938	0.976905	0.623744
	O8928	O	0.082727	0.970609	0.737711
	O8929	O	0.340042	0.920012	0.847680
	O8930	O	0.095641	0.903213	0.885881
	O8931	O	0.338393	0.953795	0.776158
	O8932	O	0.420756	0.922635	0.878849
	O8933	O	0.163604	0.973091	0.768409
	O8934	O	0.418829	0.952540	0.744302
	O8935	O	0.175959	0.902139	0.854519
	O8936	O	0.426498	0.903914	0.887221
	O8937	O	0.169154	0.954546	0.777295
	O8938	O	0.413393	0.971323	0.739000
	O8939	O	0.170864	0.920743	0.848814
	O8940	O	0.088176	0.951897	0.746093
	O8941	O	0.345358	0.901478	0.856425
	O8942	O	0.090366	0.922007	0.880731
	O8943	O	0.332940	0.972383	0.770439
	F8944	F	0.007998	0.911388	0.856159
	F8945	F	0.250707	0.961739	0.745961
	F8946	F	0.000947	0.963198	0.768824
	F8947	F	0.258438	0.912802	0.879009
	Al8948	Al	0.133155	0.912081	0.867587
	Al8949	Al	0.375893	0.962476	0.757369
	Al8950	Al	0.125904	0.962474	0.757336
	Al8951	Al	0.383143	0.912064	0.867613
	C8952	C	0.086735	0.984692	0.710219
	C8953	C	0.344455	0.933088	0.818133
	C8954	C	0.101292	0.888258	0.911205
	C8955	C	0.343987	0.939823	0.803922
	C8956	C	0.417568	0.939831	0.892874
	C8957	C	0.160308	0.990279	0.782242
	C8958	C	0.411617	0.936140	0.727728
	C8959	C	0.168940	0.885688	0.838181
	C8960	C	0.422483	0.889877	0.914840
	C8961	C	0.164574	0.941466	0.806783
	C8962	C	0.407498	0.986286	0.713799
	C8963	C	0.164969	0.934714	0.821038
	C8964	C	0.091440	0.934792	0.731815
	C8965	C	0.348781	0.884330	0.842360
	C8966	C	0.097234	0.938368	0.897496
	C8967	C	0.339933	0.988746	0.787263
	C8968	C	-0.002744	0.981747	0.718611
	C8969	C	0.254861	0.930445	0.826857
	C8970	C	0.011629	0.892834	0.906422
	C8971	C	0.254191	0.944083	0.798055
	C8972	C	0.006746	0.934837	0.891338
	C8973	C	0.249354	0.985232	0.780986
	C8974	C	0.002261	0.939732	0.733603
	C8975	C	0.259650	0.889291	0.844020
	C8976	C	-0.002135	0.974033	0.732853
	C8977	C	0.255270	0.923218	0.842223
	C8978	C	0.011230	0.900564	0.892163
	C8979	C	0.253904	0.951314	0.782714
	C8980	C	0.005900	0.925862	0.882987
	C8981	C	0.248456	0.976256	0.772619
	C8982	C	0.003309	0.948697	0.741994
	C8983	C	0.260547	0.898285	0.852292
	H8984	H	0.156284	0.981189	0.713799
	H8985	H	0.414270	0.929809	0.822428
	H8986	H	0.170573	0.890405	0.904658
	H8987	H	0.413548	0.941773	0.797225
	H8988	H	0.347859	0.937122	0.887999
	H8989	H	0.090562	0.987608	0.777185
	H8990	H	0.342926	0.939995	0.729028
	H8991	H	0.100193	0.889534	0.839436
	H8992	H	0.353093	0.893410	0.911307
	H8993	H	0.095191	0.944780	0.802449
	H8994	H	0.338337	0.984110	0.720376
	H8995	H	0.095769	0.932746	0.827813
	H8996	H	0.161334	0.937540	0.736471
	H8997	H	0.418635	0.887063	0.847058
	H8998	H	0.165898	0.934471	0.896480
	H8999	H	0.408669	0.984827	0.786358
	O9000	O	0.582726	0.970596	0.737642
	O9001	O	0.839567	0.920024	0.847622
	O9002	O	0.595721	0.903191	0.885927
	O9003	O	0.838060	0.953781	0.776157
	O9004	O	0.920921	0.922668	0.878919
	O9005	O	0.663469	0.973104	0.768487
	O9006	O	0.918881	0.952523	0.744382
	O9007	O	0.676373	0.902140	0.854601
	O9008	O	0.926463	0.903979	0.887289
	O9009	O	0.668775	0.954528	0.777279
	O9010	O	0.913435	0.971336	0.739076
	O9011	O	0.670419	0.920742	0.848803
	O9012	O	0.588229	0.951941	0.746038
	O9013	O	0.845797	0.901516	0.856339
	O9014	O	0.590349	0.921990	0.880762
	O9015	O	0.832821	0.972385	0.770578
	F9016	F	0.507978	0.911345	0.856203
	F9017	F	0.750978	0.961764	0.745985
	F9018	F	0.501058	0.963219	0.768742
	F9019	F	0.758371	0.912844	0.878960
	Al9020	Al	0.633283	0.912089	0.867599
	Al9021	Al	0.876030	0.962476	0.757477
	Al9022	Al	0.625845	0.962489	0.757310
	Al9023	Al	0.883281	0.912100	0.867569
	C9024	C	0.586814	0.984661	0.710168
	C9025	C	0.843898	0.933088	0.818045
	C9026	C	0.601569	0.888205	0.911149
	C9027	C	0.843775	0.939817	0.803825
	C9028	C	0.917799	0.939830	0.892855
	C9029	C	0.660414	0.990320	0.782280
	C9030	C	0.911550	0.936137	0.727678
	C9031	C	0.669317	0.885722	0.838136
	C9032	C	0.922131	0.889906	0.914851
	C9033	C	0.664278	0.941475	0.806827
	C9034	C	0.907303	0.986275	0.713769
	C9035	C	0.664491	0.934726	0.821080
	C9036	C	0.591654	0.934808	0.731841
	C9037	C	0.849054	0.884357	0.842336
	C9038	C	0.597118	0.938372	0.897534
	C9039	C	0.840132	0.988755	0.787265
	C9040	C	0.497395	0.981729	0.718558
	C9041	C	0.754371	0.930452	0.826824
	C9042	C	0.511811	0.892771	0.906360
	C9043	C	0.753904	0.944097	0.798064
	C9044	C	0.506582	0.934848	0.891381
	C9045	C	0.749415	0.985263	0.780983
	C9046	C	0.502479	0.939741	0.733586
	C9047	C	0.759963	0.889314	0.844046
	C9048	C	0.497894	0.974002	0.732783
	C9049	C	0.754763	0.923244	0.842231
	C9050	C	0.511255	0.900509	0.892136
	C9051	C	0.753553	0.951287	0.782670
	C9052	C	0.505622	0.925833	0.883021
	C9053	C	0.748313	0.976269	0.772704
	C9054	C	0.503479	0.948725	0.741950
	C9055	C	0.760927	0.898293	0.852349
	H9056	H	0.656383	0.981147	0.713732
	H9057	H	0.913601	0.929802	0.822313
	H9058	H	0.670739	0.890356	0.904590
	H9059	H	0.913198	0.941732	0.797061
	H9060	H	0.848022	0.937132	0.888016
	H9061	H	0.590477	0.987656	0.777284
	H9062	H	0.842686	0.939975	0.728899
	H9063	H	0.600521	0.889551	0.839394
	H9064	H	0.852631	0.893420	0.911313
	H9065	H	0.594907	0.944787	0.802473
	H9066	H	0.838003	0.984098	0.720274
	H9067	H	0.595217	0.932774	0.827902
	H9068	H	0.661461	0.937566	0.736525
	H9069	H	0.918849	0.887084	0.847081
	H9070	H	0.665729	0.934467	0.896498
	H9071	H	0.908814	0.984824	0.786391
	O9072	O	0.089727	0.982447	0.910092
	O9073	O	0.347198	0.929026	1.013163
	O9074	O	0.103980	0.909436	1.044530
	O9075	O	0.345629	0.965723	0.948495
	O9076	O	0.428557	0.930071	1.044121
	O9077	O	0.170817	0.985169	0.941345
	O9078	O	0.426169	0.964652	0.917065
	O9079	O	0.183932	0.910619	1.015993
	O9080	O	0.434475	0.910049	1.046312
	O9081	O	0.176376	0.966462	0.949791
	O9082	O	0.420831	0.983247	0.911424
	O9083	O	0.178103	0.929724	1.014646
	O9084	O	0.095921	0.963965	0.919042
	O9085	O	0.353421	0.909922	1.017800
	O9086	O	0.098132	0.929419	1.045915
	O9087	O	0.340137	0.984466	0.943391
	F9088	F	0.015581	0.920066	1.019103
	F9089	F	0.258179	0.973878	0.918736
	F9090	F	0.008509	0.975301	0.941572
	F9091	F	0.266187	0.920007	1.042681
	Al9092	Al	0.141028	0.920031	1.030968
	Al9093	Al	0.383179	0.974581	0.930174
	Al9094	Al	0.133320	0.974577	0.930127
	Al9095	Al	0.391109	0.920025	1.030935
	C9096	C	0.093922	0.995422	0.880377
	C9097	C	0.351480	0.943409	0.986546
	C9098	C	0.104227	0.890716	1.049834
	C9099	C	0.351347	0.950739	0.973705
	C9100	C	0.425114	0.947522	1.056900
	C9101	C	0.167690	1.002360	0.955276
	C9102	C	0.419243	0.948246	0.900402
	C9103	C	0.176596	0.893780	1.000578
	C9104	C	0.424932	0.891611	1.054812
	C9105	C	0.171983	0.952374	0.977275
	C9106	C	0.415287	0.997298	0.883851
	C9107	C	0.172085	0.945028	0.990156
	C9108	C	0.098847	0.946792	0.905065
	C9109	C	0.356158	0.892340	1.005773
	C9110	C	0.104791	0.946196	1.061649
	C9111	C	0.347347	1.000822	0.960197
	C9112	C	0.004367	0.992909	0.889362
	C9113	C	0.261826	0.940450	0.994888
	C9114	C	0.016055	0.895938	1.051181
	C9115	C	0.261570	0.955294	0.968868
	C9116	C	0.014218	0.942450	1.055919
	C9117	C	0.256715	0.997315	0.953930
	C9118	C	0.009990	0.951819	0.906494
	C9119	C	0.267174	0.897484	1.006426
	C9120	C	0.004956	0.985719	0.904780
	C9121	C	0.262371	0.932516	1.008594
	C9122	C	0.018474	0.905892	1.047182
	C9123	C	0.261126	0.963035	0.954667
	C9124	C	0.013608	0.933331	1.048026
	C9125	C	0.255616	0.988332	0.945601
	C9126	C	0.011108	0.960786	0.914852
	C9127	C	0.268324	0.906672	1.013989
	H9128	H	0.163527	0.992039	0.884500
	H9129	H	0.421067	0.939891	0.989999
	H9130	H	0.175108	0.893956	1.046822
	H9131	H	0.420843	0.952887	0.967232
	H9132	H	0.354976	0.944694	1.052427
	H9133	H	0.097851	0.999693	0.950279
	H9134	H	0.350443	0.952104	0.901402
	H9135	H	0.107770	0.897738	1.000980
	H9136	H	0.356469	0.895577	1.055897
	H9137	H	0.102598	0.955918	0.973709
	H9138	H	0.345977	0.995452	0.890768
	H9139	H	0.102849	0.942821	0.996674
	H9140	H	0.168602	0.949468	0.909992
	H9141	H	0.426132	0.895139	1.010435
	H9142	H	0.173891	0.942283	1.061112
	H9143	H	0.416092	0.996917	0.959281
	O9144	O	0.589968	0.982408	0.910058
	O9145	O	0.847300	0.929021	1.013189
	O9146	O	0.604020	0.909456	1.044538
	O9147	O	0.845555	0.965690	0.948574
	O9148	O	0.928677	0.930073	1.044084
	O9149	O	0.670575	0.985129	0.941328
	O9150	O	0.926615	0.964639	0.917122
	O9151	O	0.683746	0.910603	1.015959
	O9152	O	0.934469	0.910108	1.046499
	O9153	O	0.676315	0.966451	0.949868
	O9154	O	0.920532	0.983279	0.911468
	O9155	O	0.678172	0.929735	1.014685
	O9156	O	0.595553	0.963937	0.919030
	O9157	O	0.853247	0.909906	1.017712
	O9158	O	0.597966	0.929409	1.045833
	O9159	O	0.839949	0.984422	0.943450
	F9160	F	0.515755	0.920071	1.019065
	F9161	F	0.758244	0.973812	0.918784
	F9162	F	0.508255	0.975282	0.941555
	F9163	F	0.766376	0.919995	1.042579
	Al9164	Al	0.640900	0.920018	1.030944
	Al9165	Al	0.883405	0.974565	0.930212
	Al9166	Al	0.633266	0.974534	0.930173
	Al9167	Al	0.891285	0.920016	1.030873
	C9168	C	0.594406	0.995402	0.880399
	C9169	C	0.851661	0.943390	0.986607
	C9170	C	0.604543	0.890707	1.049869
	C9171	C	0.851262	0.950717	0.973768
	C9172	C	0.925024	0.947541	1.056796
	C9173	C	0.667227	1.002326	0.955224
	C9174	C	0.919441	0.948258	0.900420
	C9175	C	0.676119	0.893761	1.000552
	C9176	C	0.924489	0.891624	1.054814
	C9177	C	0.671887	0.952382	0.977359
	C9178	C	0.914563	0.997303	0.883801
	C9179	C	0.672251	0.945036	0.990231
	C9180	C	0.598607	0.946791	0.905068
	C9181	C	0.855835	0.892314	1.005803
	C9182	C	0.604969	0.946206	1.061576
	C9183	C	0.846988	1.000806	0.960175
	C9184	C	0.504941	0.992903	0.889403
	C9185	C	0.762066	0.940453	0.994952
	C9186	C	0.516401	0.895927	1.051173
	C9187	C	0.761422	0.955289	0.968964
	C9188	C	0.514361	0.942453	1.055875
	C9189	C	0.756292	0.997277	0.953944
	C9190	C	0.509713	0.951805	0.906531
	C9191	C	0.766842	0.897449	1.006430
	C9192	C	0.505198	0.985685	0.904754
	C9193	C	0.762492	0.932516	1.008631
	C9194	C	0.518598	0.905868	1.047075
	C9195	C	0.761007	0.963017	0.954756
	C9196	C	0.513535	0.933321	1.048044
	C9197	C	0.755368	0.988292	0.945606
	C9198	C	0.510656	0.960788	0.914838
	C9199	C	0.768105	0.906652	1.013944
	H9200	H	0.663796	0.991989	0.884478
	H9201	H	0.921285	0.939871	0.990025
	H9202	H	0.675430	0.893949	1.046876
	H9203	H	0.920644	0.952861	0.967248
	H9204	H	0.855010	0.944733	1.052184
	H9205	H	0.597432	0.999642	0.950245
	H9206	H	0.850758	0.952126	0.901526
	H9207	H	0.607462	0.897755	1.000931
	H9208	H	0.856024	0.895600	1.055911
	H9209	H	0.602411	0.955925	0.973794
	H9210	H	0.845190	0.995475	0.890760
	H9211	H	0.603015	0.942832	0.996757
	H9212	H	0.668610	0.949456	0.909911
	H9213	H	0.925798	0.895123	1.010438
	H9214	H	0.674065	0.942302	1.061025
	H9215	H	0.915719	0.996888	0.959291
