data_Molecule from HDF5

_cell_length_a		13.450660
_cell_length_b		131.124833
_cell_length_c		107.046971
_cell_angle_alpha	89.994328
_cell_angle_beta	90.000352
_cell_angle_gamma	90.002710
_symmetry_space_group_name_H-M	'P 1'
_symmetry_Int_Tables_number		1

loop_
	_symmetry_equiv_pos_as_xyz
	x,y,z

loop_
	_atom_site_label
	_atom_site_type_symbol
	_atom_site_fract_x
	_atom_site_fract_y
	_atom_site_fract_z
	O0	O	0.088588	0.104027	0.020392
	O1	O	0.338622	0.041468	0.082832
	O2	O	0.088644	0.020561	0.104619
	O3	O	0.338671	0.083035	0.042125
	O4	O	0.420339	0.041518	0.104574
	O5	O	0.170495	0.104012	0.042141
	O6	O	0.420667	0.083114	0.020265
	O7	O	0.170524	0.020609	0.082812
	O8	O	0.420607	0.020627	0.104712
	O9	O	0.170557	0.083085	0.042206
	O10	O	0.420622	0.103941	0.020307
	O11	O	0.170463	0.041504	0.082887
	O12	O	0.088614	0.083004	0.020458
	O13	O	0.338596	0.020535	0.082899
	O14	O	0.088372	0.041420	0.104716
	O15	O	0.338710	0.103939	0.042200
	F16	F	0.004791	0.031020	0.086212
	F17	F	0.254373	0.093537	0.023754
	F18	F	0.004460	0.093530	0.038778
	F19	F	0.254722	0.031014	0.101249
	Al20	Al	0.129727	0.031024	0.093738
	Al21	Al	0.379473	0.093518	0.031234
	Al22	Al	0.129493	0.093524	0.031293
	Al23	Al	0.379739	0.031034	0.093756
	C24	C	0.093721	0.120707	0.004155
	C25	C	0.343992	0.058022	0.066436
	C26	C	0.093813	0.003826	0.120778
	C27	C	0.343973	0.066309	0.058319
	C28	C	0.415067	0.058228	0.120774
	C29	C	0.165379	0.120682	0.058406
	C30	C	0.415279	0.066526	0.003905
	C31	C	0.165110	0.003997	0.066424
	C32	C	0.415123	0.004054	0.121124
	C33	C	0.165094	0.066509	0.058594
	C34	C	0.415511	0.120521	0.003928
	C35	C	0.165092	0.058221	0.066703
	C36	C	0.093917	0.066337	0.004160
	C37	C	0.343901	0.003870	0.066657
	C38	C	0.093787	0.057993	0.121111
	C39	C	0.344253	0.120567	0.058547
	C40	C	0.004373	0.116397	0.008211
	C41	C	0.254501	0.053881	0.070723
	C42	C	0.004496	0.008184	0.116777
	C43	C	0.254563	0.070645	0.054300
	C44	C	0.004285	0.053861	0.116787
	C45	C	0.254773	0.116394	0.054306
	C46	C	0.004511	0.070666	0.008212
	C47	C	0.254446	0.008182	0.070702
	C48	C	0.004497	0.107509	0.016972
	C49	C	0.254541	0.044995	0.079478
	C50	C	0.004513	0.017093	0.108041
	C51	C	0.254619	0.079550	0.045552
	C52	C	0.004266	0.044979	0.108018
	C53	C	0.254659	0.107484	0.045561
	C54	C	0.004542	0.079557	0.016966
	C55	C	0.254492	0.017071	0.079459
	H56	H	0.163007	0.117530	0.007387
	H57	H	0.413291	0.054696	0.069469
	H58	H	0.163143	0.006965	0.117514
	H59	H	0.413307	0.069455	0.055049
	H60	H	0.345842	0.055088	0.117471
	H61	H	0.095966	0.117494	0.055232
	H62	H	0.345914	0.069836	0.006919
	H63	H	0.095733	0.007266	0.069482
	H64	H	0.345891	0.007376	0.118118
	H65	H	0.095833	0.069802	0.055566
	H66	H	0.346142	0.117218	0.006957
	H67	H	0.095775	0.055071	0.069959
	H68	H	0.163343	0.069493	0.007404
	H69	H	0.413241	0.007030	0.069902
	H70	H	0.163134	0.054676	0.118101
	H71	H	0.413600	0.117284	0.055491
	O72	O	0.588778	0.103966	0.020361
	O73	O	0.838379	0.041450	0.082759
	O74	O	0.588767	0.020524	0.104602
	O75	O	0.838431	0.083010	0.042064
	O76	O	0.920211	0.041541	0.104549
	O77	O	0.670034	0.103948	0.042186
	O78	O	0.920530	0.083090	0.020286
	O79	O	0.670722	0.020576	0.082834
	O80	O	0.920534	0.020616	0.104687
	O81	O	0.670315	0.083129	0.042255
	O82	O	0.920521	0.103999	0.020339
	O83	O	0.670304	0.041554	0.082965
	O84	O	0.588865	0.083047	0.020376
	O85	O	0.838753	0.020491	0.082872
	O86	O	0.588567	0.041434	0.104724
	O87	O	0.838048	0.103987	0.042164
	F88	F	0.504646	0.031014	0.086252
	F89	F	0.754493	0.093520	0.023779
	F90	F	0.504413	0.093512	0.038756
	F91	F	0.754776	0.031035	0.101234
	Al92	Al	0.629787	0.031025	0.093759
	Al93	Al	0.879668	0.093526	0.031251
	Al94	Al	0.629444	0.093505	0.031255
	Al95	Al	0.879817	0.031022	0.093700
	C96	C	0.594352	0.120670	0.004179
	C97	C	0.843701	0.058044	0.066417
	C98	C	0.593866	0.003836	0.120793
	C99	C	0.843866	0.066329	0.058297
	C100	C	0.914914	0.058251	0.120739
	C101	C	0.664566	0.120686	0.058359
	C102	C	0.914926	0.066516	0.003912
	C103	C	0.664983	0.004010	0.066447
	C104	C	0.915071	0.004043	0.121098
	C105	C	0.665023	0.066508	0.058571
	C106	C	0.914937	0.120563	0.003927
	C107	C	0.664886	0.058223	0.066685
	C108	C	0.594099	0.066328	0.004201
	C109	C	0.843835	0.003822	0.066655
	C110	C	0.593964	0.058005	0.121124
	C111	C	0.843564	0.120548	0.058503
	C112	C	0.504897	0.116355	0.008228
	C113	C	0.754256	0.053915	0.070725
	C114	C	0.504451	0.008178	0.116778
	C115	C	0.754433	0.070676	0.054314
	C116	C	0.504523	0.053866	0.116810
	C117	C	0.753971	0.116364	0.054268
	C118	C	0.504730	0.070666	0.008227
	C119	C	0.754489	0.008161	0.070722
	C120	C	0.504735	0.107460	0.016963
	C121	C	0.754297	0.045026	0.079498
	C122	C	0.504601	0.017070	0.108029
	C123	C	0.754372	0.079567	0.045552
	C124	C	0.504423	0.044965	0.108050
	C125	C	0.753980	0.107475	0.045558
	C126	C	0.504781	0.079560	0.016958
	C127	C	0.754618	0.017027	0.079465
	H128	H	0.663787	0.117502	0.007400
	H129	H	0.912961	0.054736	0.069469
	H130	H	0.663163	0.006973	0.117519
	H131	H	0.913085	0.069478	0.055027
	H132	H	0.845517	0.055148	0.117413
	H133	H	0.595024	0.117532	0.055156
	H134	H	0.845547	0.069815	0.006949
	H135	H	0.595706	0.007305	0.069495
	H136	H	0.845768	0.007367	0.118084
	H137	H	0.595784	0.069809	0.055530
	H138	H	0.845581	0.117276	0.006969
	H139	H	0.595606	0.055086	0.069957
	H140	H	0.663450	0.069472	0.007458
	H141	H	0.913282	0.006975	0.069882
	H142	H	0.663315	0.054678	0.118113
	H143	H	0.913023	0.117284	0.055426
	O144	O	0.088577	0.103957	0.145353
	O145	O	0.338510	0.041474	0.207878
	O146	O	0.088650	0.020504	0.229608
	O147	O	0.338705	0.083077	0.167195
	O148	O	0.420648	0.041453	0.229694
	O149	O	0.170409	0.103954	0.167159
	O150	O	0.420438	0.083099	0.145317
	O151	O	0.170410	0.020580	0.207812
	O152	O	0.420633	0.020579	0.229734
	O153	O	0.170562	0.083040	0.167178
	O154	O	0.420410	0.103982	0.145375
	O155	O	0.170298	0.041506	0.207879
	O156	O	0.088770	0.083041	0.145375
	O157	O	0.338589	0.020527	0.207900
	O158	O	0.088377	0.041489	0.229621
	O159	O	0.338604	0.103969	0.167153
	F160	F	0.004548	0.031005	0.211232
	F161	F	0.254543	0.093505	0.148784
	F162	F	0.004800	0.093494	0.163796
	F163	F	0.254503	0.031009	0.226277
	Al164	Al	0.129570	0.031022	0.218746
	Al165	Al	0.379657	0.093517	0.156254
	Al166	Al	0.129598	0.093500	0.156279
	Al167	Al	0.379508	0.031001	0.218776
	C168	C	0.093803	0.120584	0.129016
	C169	C	0.343972	0.058083	0.191551
	C170	C	0.093912	0.003817	0.245827
	C171	C	0.344109	0.066379	0.183429
	C172	C	0.415438	0.058090	0.245977
	C173	C	0.165118	0.120607	0.183469
	C174	C	0.414921	0.066521	0.128893
	C175	C	0.165056	0.003956	0.191448
	C176	C	0.415494	0.004007	0.246118
	C177	C	0.165292	0.066398	0.183447
	C178	C	0.415038	0.120648	0.129061
	C179	C	0.165178	0.058120	0.191550
	C180	C	0.093784	0.066283	0.129233
	C181	C	0.343917	0.003829	0.191647
	C182	C	0.093837	0.058115	0.245914
	C183	C	0.344058	0.120659	0.183374
	C184	C	0.004417	0.116379	0.133233
	C185	C	0.254465	0.053879	0.195725
	C186	C	0.004487	0.008151	0.241816
	C187	C	0.254754	0.070645	0.179316
	C188	C	0.004342	0.053869	0.241795
	C189	C	0.254539	0.116376	0.179288
	C190	C	0.004464	0.070647	0.133220
	C191	C	0.254462	0.008123	0.195711
	C192	C	0.004495	0.107494	0.141980
	C193	C	0.254431	0.044987	0.204478
	C194	C	0.004603	0.017042	0.233053
	C195	C	0.254692	0.079554	0.170580
	C196	C	0.004348	0.044969	0.233039
	C197	C	0.254474	0.107454	0.170561
	C198	C	0.004637	0.079542	0.141981
	C199	C	0.254491	0.017027	0.204484
	H200	H	0.163161	0.117335	0.132130
	H201	H	0.413041	0.054808	0.194713
	H202	H	0.163311	0.006957	0.242558
	H203	H	0.413301	0.069606	0.180249
	H204	H	0.346219	0.054846	0.242850
	H205	H	0.095714	0.117364	0.180352
	H206	H	0.345560	0.069841	0.131887
	H207	H	0.095816	0.007244	0.194534
	H208	H	0.346112	0.007297	0.243080
	H209	H	0.095944	0.069606	0.180301
	H210	H	0.345670	0.117438	0.132219
	H211	H	0.095720	0.054916	0.194670
	H212	H	0.163132	0.069404	0.132525
	H213	H	0.413109	0.007015	0.194890
	H214	H	0.163166	0.054903	0.242746
	H215	H	0.413366	0.117463	0.180173
	O216	O	0.588551	0.103969	0.145340
	O217	O	0.838424	0.041468	0.207861
	O218	O	0.588799	0.020516	0.229602
	O219	O	0.838384	0.083017	0.167122
	O220	O	0.920241	0.041460	0.229682
	O221	O	0.670337	0.103970	0.167154
	O222	O	0.920678	0.083077	0.145339
	O223	O	0.670322	0.020574	0.207836
	O224	O	0.920523	0.020583	0.229732
	O225	O	0.670321	0.083049	0.167149
	O226	O	0.920379	0.104002	0.145383
	O227	O	0.670311	0.041452	0.207821
	O228	O	0.588615	0.083021	0.145383
	O229	O	0.838516	0.020525	0.207903
	O230	O	0.588821	0.041485	0.229627
	O231	O	0.838442	0.103991	0.167176
	F232	F	0.504463	0.031001	0.211270
	F233	F	0.754719	0.093519	0.148763
	F234	F	0.504586	0.093518	0.163744
	F235	F	0.754630	0.031003	0.226237
	Al236	Al	0.629550	0.031004	0.218754
	Al237	Al	0.879898	0.093519	0.156296
	Al238	Al	0.629657	0.093520	0.156250
	Al239	Al	0.879798	0.031004	0.218739
	C240	C	0.593808	0.120602	0.129028
	C241	C	0.843805	0.058115	0.191597
	C242	C	0.594347	0.003822	0.245835
	C243	C	0.843737	0.066398	0.183455
	C244	C	0.915014	0.058096	0.245999
	C245	C	0.664791	0.120587	0.183519
	C246	C	0.914949	0.066535	0.128877
	C247	C	0.664922	0.003988	0.191460
	C248	C	0.915010	0.003982	0.246077
	C249	C	0.664887	0.066402	0.183458
	C250	C	0.914936	0.120646	0.129095
	C251	C	0.664935	0.058140	0.191581
	C252	C	0.593870	0.066298	0.129243
	C253	C	0.843925	0.003865	0.191671
	C254	C	0.594153	0.058128	0.245951
	C255	C	0.843817	0.120665	0.183420
	C256	C	0.504370	0.116375	0.133209
	C257	C	0.754322	0.053865	0.195709
	C258	C	0.504921	0.008162	0.241826
	C259	C	0.754352	0.070636	0.179304
	C260	C	0.504844	0.053860	0.241811
	C261	C	0.754300	0.116384	0.179324
	C262	C	0.504392	0.070639	0.133243
	C263	C	0.754356	0.008143	0.195711
	C264	C	0.504451	0.107476	0.141962
	C265	C	0.754355	0.044974	0.204459
	C266	C	0.504777	0.017051	0.233068
	C267	C	0.754330	0.079526	0.170534
	C268	C	0.504772	0.044973	0.233052
	C269	C	0.754312	0.107494	0.170553
	C270	C	0.504464	0.079548	0.141972
	C271	C	0.754371	0.017059	0.204462
	H272	H	0.663125	0.117358	0.132147
	H273	H	0.912978	0.054877	0.194803
	H274	H	0.663743	0.006959	0.242563
	H275	H	0.912931	0.069631	0.180286
	H276	H	0.845684	0.054856	0.242889
	H277	H	0.595406	0.117334	0.180411
	H278	H	0.845650	0.069864	0.131868
	H279	H	0.595737	0.007290	0.194526
	H280	H	0.845650	0.007263	0.243012
	H281	H	0.595518	0.069611	0.180313
	H282	H	0.845546	0.117444	0.132276
	H283	H	0.595505	0.054951	0.194740
	H284	H	0.663181	0.069436	0.132534
	H285	H	0.913110	0.007066	0.194910
	H286	H	0.663412	0.054907	0.242801
	H287	H	0.913189	0.117477	0.180221
	O288	O	0.088556	0.104019	0.270403
	O289	O	0.338561	0.041467	0.332849
	O290	O	0.088715	0.020545	0.354678
	O291	O	0.338554	0.083049	0.292132
	O292	O	0.420424	0.041489	0.354675
	O293	O	0.170589	0.103945	0.292218
	O294	O	0.420455	0.083076	0.270303
	O295	O	0.170711	0.020566	0.332821
	O296	O	0.420326	0.020600	0.354721
	O297	O	0.170433	0.083066	0.292204
	O298	O	0.420482	0.103959	0.270276
	O299	O	0.170389	0.041529	0.332911
	O300	O	0.088644	0.083070	0.270318
	O301	O	0.338690	0.020558	0.332848
	O302	O	0.088305	0.041481	0.354644
	O303	O	0.338728	0.104017	0.292104
	F304	F	0.004647	0.031009	0.336237
	F305	F	0.254479	0.093531	0.273755
	F306	F	0.004595	0.093511	0.288774
	F307	F	0.254355	0.031039	0.351256
	Al308	Al	0.129491	0.031010	0.343768
	Al309	Al	0.379536	0.093526	0.281231
	Al310	Al	0.129619	0.093516	0.281268
	Al311	Al	0.379526	0.031022	0.343771
	C312	C	0.093751	0.120667	0.254118
	C313	C	0.344068	0.058123	0.316563
	C314	C	0.093813	0.003877	0.370953
	C315	C	0.344017	0.066402	0.308433
	C316	C	0.415101	0.058118	0.370974
	C317	C	0.165164	0.120558	0.308567
	C318	C	0.415325	0.066389	0.254093
	C319	C	0.165203	0.003910	0.316583
	C320	C	0.414907	0.003946	0.371016
	C321	C	0.165000	0.066431	0.308489
	C322	C	0.415448	0.120569	0.253961
	C323	C	0.165004	0.058154	0.316610
	C324	C	0.093906	0.066416	0.254022
	C325	C	0.344162	0.003897	0.316581
	C326	C	0.093676	0.058127	0.370942
	C327	C	0.344033	0.120716	0.308348
	C328	C	0.004323	0.116370	0.258203
	C329	C	0.254560	0.053896	0.320735
	C330	C	0.004402	0.008169	0.366844
	C331	C	0.254543	0.070640	0.304288
	C332	C	0.004230	0.053874	0.366799
	C333	C	0.254623	0.116400	0.304310
	C334	C	0.004573	0.070648	0.258208
	C335	C	0.254735	0.008185	0.320712
	C336	C	0.004518	0.107469	0.266959
	C337	C	0.254521	0.044994	0.329474
	C338	C	0.004526	0.017059	0.358075
	C339	C	0.254543	0.079556	0.295569
	C340	C	0.004218	0.044982	0.358033
	C341	C	0.254668	0.107479	0.295570
	C342	C	0.004658	0.079554	0.266952
	C343	C	0.254735	0.017051	0.329446
	H344	H	0.163115	0.117481	0.257324
	H345	H	0.413376	0.054884	0.319721
	H346	H	0.163209	0.007087	0.367767
	H347	H	0.413266	0.069635	0.305286
	H348	H	0.345788	0.054877	0.367853
	H349	H	0.095870	0.117264	0.305499
	H350	H	0.346056	0.069592	0.257269
	H351	H	0.095709	0.007111	0.319739
	H352	H	0.345517	0.007189	0.367890
	H353	H	0.095600	0.069677	0.305396
	H354	H	0.346170	0.117307	0.257049
	H355	H	0.095511	0.054956	0.319798
	H356	H	0.163251	0.069657	0.257133
	H357	H	0.413656	0.007093	0.319731
	H358	H	0.163018	0.054912	0.367785
	H359	H	0.413249	0.117549	0.305091
	O360	O	0.588728	0.103999	0.270381
	O361	O	0.838599	0.041503	0.332905
	O362	O	0.588592	0.020567	0.354686
	O363	O	0.838493	0.083048	0.292152
	O364	O	0.920264	0.041463	0.354669
	O365	O	0.670411	0.103946	0.292204
	O366	O	0.920568	0.083053	0.270330
	O367	O	0.670318	0.020539	0.332861
	O368	O	0.920646	0.020560	0.354662
	O369	O	0.670410	0.083056	0.292151
	O370	O	0.920463	0.103916	0.270271
	O371	O	0.670540	0.041476	0.332863
	O372	O	0.588596	0.083063	0.270351
	O373	O	0.838503	0.020544	0.332861
	O374	O	0.588642	0.041469	0.354675
	O375	O	0.838503	0.104011	0.292098
	F376	F	0.504505	0.031034	0.336262
	F377	F	0.754589	0.093506	0.273764
	F378	F	0.504498	0.093505	0.288733
	F379	F	0.754719	0.031006	0.351252
	Al380	Al	0.629510	0.031010	0.343756
	Al381	Al	0.879790	0.093508	0.281259
	Al382	Al	0.629509	0.093511	0.281251
	Al383	Al	0.879843	0.030996	0.343740
	C384	C	0.594214	0.120679	0.254152
	C385	C	0.843981	0.058109	0.316545
	C386	C	0.593910	0.003910	0.370919
	C387	C	0.843903	0.066396	0.308433
	C388	C	0.914804	0.058126	0.370970
	C389	C	0.664974	0.120531	0.308551
	C390	C	0.915126	0.066395	0.254098
	C391	C	0.664917	0.003918	0.316548
	C392	C	0.914818	0.003931	0.371019
	C393	C	0.664959	0.066430	0.308479
	C394	C	0.914800	0.120591	0.254011
	C395	C	0.665035	0.058146	0.316589
	C396	C	0.594112	0.066426	0.254066
	C397	C	0.843911	0.003916	0.316535
	C398	C	0.594007	0.058112	0.370970
	C399	C	0.843992	0.120676	0.308352
	C400	C	0.504786	0.116370	0.258184
	C401	C	0.754510	0.053908	0.320753
	C402	C	0.504400	0.008172	0.366826
	C403	C	0.754438	0.070656	0.304314
	C404	C	0.504521	0.053894	0.366793
	C405	C	0.754488	0.116361	0.304287
	C406	C	0.504681	0.070652	0.258221
	C407	C	0.754420	0.008150	0.320714
	C408	C	0.504658	0.107485	0.266943
	C409	C	0.754578	0.045008	0.329502
	C410	C	0.504437	0.017078	0.358080
	C411	C	0.754438	0.079555	0.295559
	C412	C	0.504570	0.044997	0.358045
	C413	C	0.754449	0.107489	0.295527
	C414	C	0.504560	0.079563	0.266947
	C415	C	0.754401	0.017034	0.329475
	H416	H	0.663513	0.117500	0.257382
	H417	H	0.913318	0.054846	0.319668
	H418	H	0.663280	0.007113	0.367715
	H419	H	0.913121	0.069604	0.305241
	H420	H	0.845453	0.054904	0.367831
	H421	H	0.595696	0.117240	0.305484
	H422	H	0.845925	0.069618	0.257275
	H423	H	0.595409	0.007144	0.319681
	H424	H	0.845458	0.007182	0.367891
	H425	H	0.595640	0.069651	0.305344
	H426	H	0.845510	0.117332	0.257133
	H427	H	0.595642	0.054920	0.319738
	H428	H	0.663340	0.069663	0.257219
	H429	H	0.913286	0.007151	0.319660
	H430	H	0.663343	0.054869	0.367851
	H431	H	0.913381	0.117499	0.305127
	O432	O	0.088677	0.103929	0.395298
	O433	O	0.338784	0.041476	0.457863
	O434	O	0.088476	0.020581	0.479664
	O435	O	0.338638	0.083052	0.417219
	O436	O	0.420459	0.041461	0.479707
	O437	O	0.170399	0.104000	0.417121
	O438	O	0.420637	0.083054	0.395361
	O439	O	0.170356	0.020546	0.457891
	O440	O	0.420569	0.020543	0.479632
	O441	O	0.170494	0.083061	0.417185
	O442	O	0.420476	0.103966	0.395365
	O443	O	0.170687	0.041449	0.457854
	O444	O	0.088744	0.083067	0.395330
	O445	O	0.338570	0.020572	0.457816
	O446	O	0.088766	0.041483	0.479651
	O447	O	0.338600	0.103958	0.417201
	F448	F	0.004702	0.031035	0.461219
	F449	F	0.254774	0.093498	0.398771
	F450	F	0.004867	0.093517	0.413795
	F451	F	0.254685	0.030996	0.476250
	Al452	Al	0.129622	0.031015	0.468761
	Al453	Al	0.379675	0.093508	0.406283
	Al454	Al	0.129718	0.093512	0.406260
	Al455	Al	0.379595	0.031007	0.468745
	C456	C	0.094023	0.120583	0.379020
	C457	C	0.343846	0.058171	0.441644
	C458	C	0.093585	0.003960	0.495988
	C459	C	0.343750	0.066461	0.433546
	C460	C	0.415128	0.058086	0.496033
	C461	C	0.164923	0.120654	0.433403
	C462	C	0.415157	0.066419	0.379080
	C463	C	0.164859	0.003904	0.441557
	C464	C	0.415160	0.003908	0.495919
	C465	C	0.164964	0.066335	0.433364
	C466	C	0.414996	0.120635	0.379076
	C467	C	0.165072	0.058033	0.441466
	C468	C	0.093714	0.066431	0.379046
	C469	C	0.343836	0.003902	0.441553
	C470	C	0.093764	0.058154	0.495904
	C471	C	0.343855	0.120597	0.433494
	C472	C	0.004542	0.116367	0.383214
	C473	C	0.254508	0.053855	0.445694
	C474	C	0.004247	0.008167	0.491768
	C475	C	0.254372	0.070652	0.429328
	C476	C	0.004388	0.053853	0.491804
	C477	C	0.254440	0.116394	0.429296
	C478	C	0.004360	0.070657	0.383232
	C479	C	0.254364	0.008161	0.445697
	C480	C	0.004579	0.107465	0.391968
	C481	C	0.254669	0.044974	0.454474
	C482	C	0.004360	0.017059	0.483034
	C483	C	0.254492	0.079542	0.420574
	C484	C	0.004566	0.044973	0.483042
	C485	C	0.254507	0.107491	0.420540
	C486	C	0.004503	0.079565	0.391979
	C487	C	0.254440	0.017064	0.454446
	H488	H	0.163429	0.117337	0.382130
	H489	H	0.413236	0.055000	0.444859
	H490	H	0.162911	0.007208	0.492882
	H491	H	0.413038	0.069725	0.430451
	H492	H	0.345767	0.054824	0.492937
	H493	H	0.095693	0.117439	0.430212
	H494	H	0.345947	0.069634	0.382253
	H495	H	0.095390	0.007123	0.444716
	H496	H	0.345906	0.007121	0.492749
	H497	H	0.095834	0.069504	0.430107
	H498	H	0.345614	0.117426	0.382255
	H499	H	0.095789	0.054745	0.444527
	H500	H	0.163018	0.069669	0.382169
	H501	H	0.413293	0.007107	0.444712
	H502	H	0.163263	0.054976	0.492704
	H503	H	0.413162	0.117344	0.430385
	O504	O	0.588733	0.103974	0.395336
	O505	O	0.838372	0.041470	0.457803
	O506	O	0.588664	0.020591	0.479685
	O507	O	0.838410	0.083070	0.417211
	O508	O	0.920664	0.041470	0.479649
	O509	O	0.670265	0.104010	0.417144
	O510	O	0.920620	0.083080	0.395376
	O511	O	0.670246	0.020541	0.457896
	O512	O	0.920306	0.020573	0.479663
	O513	O	0.670282	0.083034	0.417145
	O514	O	0.920583	0.104007	0.395408
	O515	O	0.670234	0.041486	0.457842
	O516	O	0.588804	0.083079	0.395334
	O517	O	0.838465	0.020581	0.457811
	O518	O	0.588623	0.041509	0.479638
	O519	O	0.838292	0.103998	0.417192
	F520	F	0.504592	0.031018	0.461258
	F521	F	0.754744	0.093524	0.398801
	F522	F	0.504610	0.093515	0.413769
	F523	F	0.754636	0.031056	0.476225
	Al524	Al	0.629568	0.031039	0.468756
	Al525	Al	0.879910	0.093528	0.406315
	Al526	Al	0.629647	0.093533	0.406265
	Al527	Al	0.879824	0.031025	0.468714
	C528	C	0.594035	0.120589	0.379024
	C529	C	0.843672	0.058194	0.441657
	C530	C	0.593958	0.003954	0.495996
	C531	C	0.843840	0.066480	0.433554
	C532	C	0.914853	0.058051	0.496034
	C533	C	0.664855	0.120678	0.433426
	C534	C	0.914851	0.066423	0.379071
	C535	C	0.664847	0.003918	0.441559
	C536	C	0.914948	0.003920	0.495930
	C537	C	0.664750	0.066360	0.433363
	C538	C	0.914997	0.120635	0.379088
	C539	C	0.664659	0.058070	0.441471
	C540	C	0.594105	0.066408	0.379078
	C541	C	0.843835	0.003931	0.441538
	C542	C	0.594084	0.058162	0.495899
	C543	C	0.843699	0.120593	0.433514
	C544	C	0.504492	0.116371	0.383190
	C545	C	0.754146	0.053891	0.445701
	C546	C	0.504636	0.008197	0.491804
	C547	C	0.754345	0.070656	0.429319
	C548	C	0.504568	0.053870	0.491816
	C549	C	0.754242	0.116394	0.429306
	C550	C	0.504654	0.070676	0.383195
	C551	C	0.754315	0.008154	0.445701
	C552	C	0.504554	0.107469	0.391954
	C553	C	0.754267	0.044987	0.454433
	C554	C	0.504638	0.017071	0.483061
	C555	C	0.754338	0.079554	0.420574
	C556	C	0.504545	0.044980	0.483068
	C557	C	0.754238	0.107493	0.420582
	C558	C	0.504727	0.079560	0.391966
	C559	C	0.754322	0.017064	0.454459
	H560	H	0.663410	0.117343	0.382155
	H561	H	0.913013	0.055021	0.444897
	H562	H	0.663418	0.007196	0.492902
	H563	H	0.913279	0.069763	0.430501
	H564	H	0.845490	0.054778	0.492952
	H565	H	0.595475	0.117480	0.430249
	H566	H	0.845611	0.069663	0.382229
	H567	H	0.595517	0.007154	0.444700
	H568	H	0.845658	0.007132	0.492778
	H569	H	0.595527	0.069559	0.430142
	H570	H	0.845625	0.117424	0.382273
	H571	H	0.595393	0.054795	0.444551
	H572	H	0.663476	0.069613	0.382257
	H573	H	0.913179	0.007180	0.444667
	H574	H	0.663479	0.054977	0.492692
	H575	H	0.912945	0.117329	0.430419
	O576	O	0.088553	0.104010	0.520338
	O577	O	0.338458	0.041471	0.582820
	O578	O	0.088810	0.020597	0.604713
	O579	O	0.338675	0.083069	0.542139
	O580	O	0.420491	0.041501	0.604642
	O581	O	0.170608	0.104014	0.542123
	O582	O	0.420524	0.083091	0.520304
	O583	O	0.170413	0.020587	0.582856
	O584	O	0.420454	0.020618	0.604729
	O585	O	0.170540	0.083053	0.542101
	O586	O	0.420474	0.103998	0.520339
	O587	O	0.170288	0.041475	0.582801
	O588	O	0.088374	0.083123	0.520280
	O589	O	0.338567	0.020566	0.582858
	O590	O	0.088503	0.041466	0.604670
	O591	O	0.338712	0.104013	0.542118
	F592	F	0.004672	0.031014	0.586216
	F593	F	0.254444	0.093545	0.523744
	F594	F	0.004777	0.093530	0.538756
	F595	F	0.254445	0.031064	0.601238
	Al596	Al	0.129559	0.031032	0.593751
	Al597	Al	0.379537	0.093540	0.531224
	Al598	Al	0.129538	0.093539	0.531223
	Al599	Al	0.379472	0.031048	0.593751
	C600	C	0.093700	0.120604	0.503992
	C601	C	0.343842	0.058105	0.566523
	C602	C	0.093771	0.003905	0.620928
	C603	C	0.343829	0.066398	0.558422
	C604	C	0.415248	0.058159	0.620902
	C605	C	0.165196	0.120651	0.558428
	C606	C	0.415118	0.066396	0.504123
	C607	C	0.165054	0.003922	0.566598
	C608	C	0.415188	0.003962	0.620992
	C609	C	0.164926	0.066450	0.558473
	C610	C	0.415190	0.120668	0.504089
	C611	C	0.164937	0.058161	0.566576
	C612	C	0.093773	0.066461	0.504004
	C613	C	0.344010	0.003966	0.566537
	C614	C	0.093902	0.058107	0.620984
	C615	C	0.344051	0.120632	0.558460
	C616	C	0.004220	0.116387	0.508190
	C617	C	0.254373	0.053898	0.570705
	C618	C	0.004430	0.008197	0.616820
	C619	C	0.254426	0.070666	0.554292
	C620	C	0.004485	0.053868	0.616796
	C621	C	0.254658	0.116384	0.554303
	C622	C	0.004305	0.070664	0.508206
	C623	C	0.254530	0.008181	0.570728
	C624	C	0.004315	0.107497	0.516950
	C625	C	0.254402	0.044985	0.579427
	C626	C	0.004662	0.017080	0.608064
	C627	C	0.254583	0.079561	0.545525
	C628	C	0.004425	0.044958	0.608072
	C629	C	0.254681	0.107531	0.545502
	C630	C	0.004289	0.079589	0.516926
	C631	C	0.254449	0.017076	0.579465
	H632	H	0.163040	0.117353	0.507100
	H633	H	0.413130	0.054845	0.569643
	H634	H	0.163203	0.007093	0.617756
	H635	H	0.413171	0.069619	0.555246
	H636	H	0.345917	0.054955	0.617717
	H637	H	0.095862	0.117456	0.555235
	H638	H	0.345837	0.069607	0.507303
	H639	H	0.095745	0.007151	0.569759
	H640	H	0.345949	0.007202	0.617880
	H641	H	0.095589	0.069695	0.555351
	H642	H	0.345873	0.117472	0.507278
	H643	H	0.095564	0.054953	0.569741
	H644	H	0.163119	0.069737	0.507093
	H645	H	0.413319	0.007225	0.569652
	H646	H	0.163312	0.054866	0.617881
	H647	H	0.413337	0.117419	0.555296
	O648	O	0.588593	0.103941	0.520276
	O649	O	0.838710	0.041487	0.582832
	O650	O	0.588653	0.020551	0.604617
	O651	O	0.838570	0.083054	0.542164
	O652	O	0.920380	0.041460	0.604678
	O653	O	0.670144	0.103990	0.542111
	O654	O	0.920294	0.083065	0.520343
	O655	O	0.670423	0.020555	0.582848
	O656	O	0.920690	0.020561	0.604633
	O657	O	0.670442	0.083092	0.542191
	O658	O	0.920426	0.103990	0.520332
	O659	O	0.670596	0.041498	0.582884
	O660	O	0.588697	0.083104	0.520284
	O661	O	0.838501	0.020554	0.582828
	O662	O	0.588748	0.041463	0.604689
	O663	O	0.838237	0.103987	0.542131
	F664	F	0.504562	0.031036	0.586253
	F665	F	0.754676	0.093509	0.523760
	F666	F	0.504438	0.093507	0.538727
	F667	F	0.754749	0.030996	0.601220
	Al668	Al	0.629609	0.031027	0.593758
	Al669	Al	0.879797	0.093522	0.531277
	Al670	Al	0.629533	0.093516	0.531231
	Al671	Al	0.879821	0.031021	0.593723
	C672	C	0.594053	0.120617	0.504006
	C673	C	0.843930	0.058090	0.566493
	C674	C	0.593921	0.003932	0.620921
	C675	C	0.843878	0.066387	0.558392
	C676	C	0.915027	0.058148	0.620896
	C677	C	0.664684	0.120624	0.558406
	C678	C	0.914875	0.066354	0.504139
	C679	C	0.664909	0.003923	0.566560
	C680	C	0.914963	0.003958	0.620978
	C681	C	0.664971	0.066426	0.558479
	C682	C	0.914717	0.120652	0.504055
	C683	C	0.665032	0.058132	0.566579
	C684	C	0.594023	0.066475	0.503989
	C685	C	0.843666	0.003932	0.566509
	C686	C	0.594092	0.058112	0.620976
	C687	C	0.843644	0.120610	0.558432
	C688	C	0.504606	0.116389	0.508197
	C689	C	0.754509	0.053876	0.570685
	C690	C	0.504531	0.008194	0.616806
	C691	C	0.754440	0.070639	0.554275
	C692	C	0.504683	0.053876	0.616803
	C693	C	0.754165	0.116386	0.554257
	C694	C	0.504616	0.070671	0.508204
	C695	C	0.754303	0.008162	0.570689
	C696	C	0.504562	0.107488	0.516939
	C697	C	0.754599	0.044981	0.579445
	C698	C	0.504554	0.017080	0.608053
	C699	C	0.754473	0.079559	0.545560
	C700	C	0.504648	0.044981	0.608053
	C701	C	0.754189	0.107487	0.545524
	C702	C	0.504638	0.079586	0.516924
	C703	C	0.754409	0.017046	0.579449
	H704	H	0.663351	0.117373	0.507124
	H705	H	0.913189	0.054835	0.569612
	H706	H	0.663231	0.007150	0.617759
	H707	H	0.913018	0.069611	0.555222
	H708	H	0.845642	0.054947	0.617715
	H709	H	0.595397	0.117402	0.555253
	H710	H	0.845567	0.069542	0.507337
	H711	H	0.595803	0.007154	0.569732
	H712	H	0.845599	0.007188	0.617836
	H713	H	0.595548	0.069682	0.555378
	H714	H	0.845432	0.117435	0.507226
	H715	H	0.595641	0.054925	0.569753
	H716	H	0.663329	0.069743	0.507043
	H717	H	0.912855	0.007177	0.569647
	H718	H	0.663472	0.054872	0.617863
	H719	H	0.912948	0.117367	0.555302
	O720	O	0.088668	0.104001	0.645320
	O721	O	0.338645	0.041526	0.707852
	O722	O	0.088629	0.020573	0.729589
	O723	O	0.338607	0.083115	0.667173
	O724	O	0.420551	0.041463	0.729697
	O725	O	0.170392	0.103996	0.667129
	O726	O	0.420584	0.083084	0.645331
	O727	O	0.170533	0.020589	0.707832
	O728	O	0.420636	0.020606	0.729654
	O729	O	0.170488	0.083093	0.667116
	O730	O	0.420409	0.103965	0.645274
	O731	O	0.170567	0.041507	0.707825
	O732	O	0.088592	0.083066	0.645331
	O733	O	0.338568	0.020588	0.707829
	O734	O	0.088634	0.041494	0.729674
	O735	O	0.338546	0.103975	0.667150
	F736	F	0.004756	0.031069	0.711221
	F737	F	0.254542	0.093513	0.648722
	F738	F	0.004689	0.093504	0.663756
	F739	F	0.254497	0.031053	0.726217
	Al740	Al	0.129611	0.031059	0.718716
	Al741	Al	0.379559	0.093539	0.656224
	Al742	Al	0.129561	0.093529	0.656228
	Al743	Al	0.379574	0.031049	0.718734
	C744	C	0.093790	0.120700	0.629104
	C745	C	0.344012	0.058166	0.691547
	C746	C	0.093847	0.003897	0.745850
	C747	C	0.343896	0.066457	0.683431
	C748	C	0.415042	0.058152	0.745935
	C749	C	0.165089	0.120644	0.683391
	C750	C	0.415181	0.066469	0.629002
	C751	C	0.165107	0.003972	0.691488
	C752	C	0.415494	0.003998	0.746028
	C753	C	0.165009	0.066437	0.683408
	C754	C	0.415113	0.120595	0.628947
	C755	C	0.165026	0.058154	0.691519
	C756	C	0.093901	0.066410	0.629092
	C757	C	0.343894	0.003887	0.691627
	C758	C	0.093730	0.058140	0.745969
	C759	C	0.344060	0.120579	0.683507
	C760	C	0.004357	0.116377	0.633158
	C761	C	0.254493	0.053912	0.695682
	C762	C	0.004504	0.008203	0.741775
	C763	C	0.254456	0.070697	0.679279
	C764	C	0.004328	0.053904	0.741792
	C765	C	0.254554	0.116377	0.679279
	C766	C	0.004439	0.070691	0.633173
	C767	C	0.254516	0.008192	0.695708
	C768	C	0.004509	0.107497	0.641935
	C769	C	0.254602	0.045026	0.704455
	C770	C	0.004464	0.017109	0.733017
	C771	C	0.254514	0.079594	0.670528
	C772	C	0.004480	0.045013	0.733034
	C773	C	0.254497	0.107496	0.670521
	C774	C	0.004424	0.079584	0.641927
	C775	C	0.254544	0.017078	0.704445
	H776	H	0.163205	0.117531	0.632337
	H777	H	0.413314	0.054945	0.694731
	H778	H	0.163206	0.007074	0.742631
	H779	H	0.413127	0.069699	0.680281
	H780	H	0.345775	0.054918	0.742790
	H781	H	0.095756	0.117445	0.680195
	H782	H	0.345862	0.069729	0.632094
	H783	H	0.095778	0.007216	0.694589
	H784	H	0.346187	0.007263	0.742941
	H785	H	0.095604	0.069642	0.680257
	H786	H	0.345846	0.117329	0.632040
	H787	H	0.095536	0.054939	0.694660
	H788	H	0.163204	0.069623	0.632286
	H789	H	0.413231	0.007058	0.694832
	H790	H	0.163069	0.054898	0.742850
	H791	H	0.413405	0.117326	0.680402
	O792	O	0.588586	0.104029	0.645361
	O793	O	0.838368	0.041537	0.707849
	O794	O	0.588841	0.020622	0.729657
	O795	O	0.838439	0.083092	0.667156
	O796	O	0.920501	0.041521	0.729627
	O797	O	0.670344	0.104017	0.667128
	O798	O	0.920418	0.083087	0.645308
	O799	O	0.670435	0.020594	0.707828
	O800	O	0.920525	0.020621	0.729636
	O801	O	0.670356	0.083061	0.667106
	O802	O	0.920527	0.103998	0.645353
	O803	O	0.670246	0.041482	0.707761
	O804	O	0.588761	0.083113	0.645294
	O805	O	0.838404	0.020556	0.707879
	O806	O	0.588742	0.041522	0.729632
	O807	O	0.838451	0.104009	0.667138
	F808	F	0.504445	0.031061	0.711236
	F809	F	0.754700	0.093560	0.648762
	F810	F	0.504575	0.093548	0.663720
	F811	F	0.754631	0.031093	0.726220
	Al812	Al	0.629527	0.031069	0.718725
	Al813	Al	0.879812	0.093532	0.656264
	Al814	Al	0.629550	0.093556	0.656213
	Al815	Al	0.879797	0.031071	0.718711
	C816	C	0.593919	0.120661	0.629061
	C817	C	0.843811	0.058178	0.691556
	C818	C	0.594371	0.003900	0.745849
	C819	C	0.843749	0.066469	0.683445
	C820	C	0.914818	0.058176	0.745920
	C821	C	0.664832	0.120677	0.683386
	C822	C	0.915030	0.066450	0.628999
	C823	C	0.665043	0.003997	0.691492
	C824	C	0.915012	0.004005	0.746021
	C825	C	0.664787	0.066442	0.683437
	C826	C	0.914848	0.120594	0.628960
	C827	C	0.664819	0.058162	0.691545
	C828	C	0.593996	0.066424	0.629067
	C829	C	0.844023	0.003912	0.691627
	C830	C	0.593917	0.058148	0.745955
	C831	C	0.843887	0.120593	0.683529
	C832	C	0.504483	0.116391	0.633169
	C833	C	0.754307	0.053919	0.695678
	C834	C	0.504845	0.008196	0.741788
	C835	C	0.754320	0.070683	0.679279
	C836	C	0.504501	0.053918	0.741767
	C837	C	0.754411	0.116415	0.679284
	C838	C	0.504592	0.070682	0.633201
	C839	C	0.754515	0.008209	0.695713
	C840	C	0.504487	0.107504	0.641936
	C841	C	0.754294	0.045017	0.704413
	C842	C	0.504756	0.017106	0.733045
	C843	C	0.754400	0.079577	0.670533
	C844	C	0.504619	0.045004	0.733044
	C845	C	0.754402	0.107512	0.670536
	C846	C	0.504678	0.079586	0.641936
	C847	C	0.754418	0.017079	0.704449
	H848	H	0.663229	0.117461	0.632255
	H849	H	0.913033	0.054945	0.694739
	H850	H	0.663628	0.007084	0.742617
	H851	H	0.913074	0.069726	0.680295
	H852	H	0.845453	0.054955	0.742761
	H853	H	0.595581	0.117457	0.680210
	H854	H	0.845696	0.069700	0.632110
	H855	H	0.595657	0.007249	0.694592
	H856	H	0.845709	0.007272	0.742929
	H857	H	0.595412	0.069648	0.680302
	H858	H	0.845493	0.117334	0.632057
	H859	H	0.595545	0.054947	0.694677
	H860	H	0.663250	0.069649	0.632232
	H861	H	0.913305	0.007084	0.694840
	H862	H	0.663243	0.054908	0.742823
	H863	H	0.913255	0.117308	0.680474
	O864	O	0.088427	0.103982	0.770331
	O865	O	0.338437	0.041496	0.832836
	O866	O	0.088632	0.020566	0.854609
	O867	O	0.338781	0.083084	0.792130
	O868	O	0.420543	0.041522	0.854646
	O869	O	0.170523	0.103994	0.792187
	O870	O	0.420352	0.083094	0.770316
	O871	O	0.170644	0.020614	0.832820
	O872	O	0.420705	0.020624	0.854692
	O873	O	0.170703	0.083081	0.792155
	O874	O	0.420489	0.104003	0.770334
	O875	O	0.170418	0.041492	0.832783
	O876	O	0.088626	0.083093	0.770340
	O877	O	0.338805	0.020570	0.832887
	O878	O	0.088596	0.041492	0.854658
	O879	O	0.338624	0.103995	0.792148
	F880	F	0.004502	0.031034	0.836215
	F881	F	0.254531	0.093571	0.773748
	F882	F	0.004732	0.093563	0.788779
	F883	F	0.254387	0.031044	0.851256
	Al884	Al	0.129560	0.031046	0.843714
	Al885	Al	0.379542	0.093550	0.781237
	Al886	Al	0.129618	0.093552	0.781256
	Al887	Al	0.379502	0.031048	0.843764
	C888	C	0.093848	0.120599	0.753975
	C889	C	0.343838	0.058136	0.816537
	C890	C	0.093921	0.003875	0.870880
	C891	C	0.344016	0.066430	0.808428
	C892	C	0.415258	0.058183	0.870871
	C893	C	0.165343	0.120611	0.808506
	C894	C	0.415035	0.066445	0.754046
	C895	C	0.165146	0.003957	0.816547
	C896	C	0.415199	0.004005	0.871019
	C897	C	0.165211	0.066463	0.808455
	C898	C	0.415158	0.120656	0.754040
	C899	C	0.165015	0.058179	0.816558
	C900	C	0.093749	0.066439	0.754079
	C901	C	0.344161	0.003933	0.816538
	C902	C	0.093849	0.058101	0.871007
	C903	C	0.344118	0.120681	0.808388
	C904	C	0.004456	0.116399	0.758197
	C905	C	0.254400	0.053906	0.820686
	C906	C	0.004563	0.008179	0.866787
	C907	C	0.254679	0.070691	0.804300
	C908	C	0.004367	0.053897	0.866791
	C909	C	0.254747	0.116399	0.804308
	C910	C	0.004340	0.070694	0.758211
	C911	C	0.254665	0.008188	0.820692
	C912	C	0.004356	0.107498	0.766947
	C913	C	0.254480	0.045002	0.829417
	C914	C	0.004568	0.017071	0.858019
	C915	C	0.254774	0.079584	0.795549
	C916	C	0.004527	0.044994	0.858048
	C917	C	0.254653	0.107495	0.795563
	C918	C	0.004406	0.079588	0.766970
	C919	C	0.254708	0.017078	0.829471
	H920	H	0.163197	0.117334	0.757059
	H921	H	0.412924	0.054884	0.819690
	H922	H	0.163320	0.007041	0.867676
	H923	H	0.413227	0.069648	0.805263
	H924	H	0.345971	0.054989	0.867658
	H925	H	0.096074	0.117344	0.805406
	H926	H	0.345746	0.069658	0.757204
	H927	H	0.095798	0.007194	0.819692
	H928	H	0.345930	0.007291	0.867950
	H929	H	0.095874	0.069692	0.805328
	H930	H	0.345808	0.117459	0.757219
	H931	H	0.095568	0.054981	0.819720
	H932	H	0.163076	0.069647	0.757259
	H933	H	0.413628	0.007159	0.819686
	H934	H	0.163204	0.054843	0.867918
	H935	H	0.413344	0.117469	0.805192
	O936	O	0.588663	0.103986	0.770333
	O937	O	0.838507	0.041513	0.832844
	O938	O	0.588777	0.020558	0.854585
	O939	O	0.838571	0.083075	0.792164
	O940	O	0.920502	0.041481	0.854657
	O941	O	0.670442	0.103981	0.792161
	O942	O	0.920438	0.083098	0.770353
	O943	O	0.670347	0.020584	0.832817
	O944	O	0.920511	0.020586	0.854639
	O945	O	0.670480	0.083075	0.792138
	O946	O	0.920300	0.103986	0.770320
	O947	O	0.670422	0.041487	0.832793
	O948	O	0.588537	0.083073	0.770362
	O949	O	0.838511	0.020541	0.832878
	O950	O	0.588709	0.041482	0.854670
	O951	O	0.838591	0.104014	0.792157
	F952	F	0.504510	0.031064	0.836242
	F953	F	0.754615	0.093528	0.773764
	F954	F	0.504494	0.093527	0.788734
	F955	F	0.754685	0.031025	0.851200
	Al956	Al	0.629493	0.031039	0.843709
	Al957	Al	0.879861	0.093550	0.781287
	Al958	Al	0.629600	0.093526	0.781255
	Al959	Al	0.879789	0.031032	0.843726
	C960	C	0.593964	0.120606	0.753974
	C961	C	0.843859	0.058121	0.816517
	C962	C	0.594128	0.003892	0.870847
	C963	C	0.843864	0.066415	0.808409
	C964	C	0.914892	0.058198	0.870872
	C965	C	0.664907	0.120595	0.808489
	C966	C	0.914809	0.066472	0.754035
	C967	C	0.665005	0.003920	0.816522
	C968	C	0.915101	0.004002	0.871038
	C969	C	0.664931	0.066458	0.808477
	C970	C	0.914999	0.120667	0.754054
	C971	C	0.664926	0.058172	0.816577
	C972	C	0.593878	0.066443	0.754071
	C973	C	0.843840	0.003934	0.816543
	C974	C	0.594275	0.058091	0.871026
	C975	C	0.843896	0.120677	0.808389
	C976	C	0.504571	0.116380	0.758152
	C977	C	0.754409	0.053909	0.820695
	C978	C	0.504671	0.008200	0.866765
	C979	C	0.754379	0.070665	0.804279
	C980	C	0.504764	0.053880	0.866805
	C981	C	0.754405	0.116393	0.804303
	C982	C	0.504502	0.070711	0.758169
	C983	C	0.754359	0.008163	0.820682
	C984	C	0.504610	0.107496	0.766933
	C985	C	0.754479	0.045006	0.829428
	C986	C	0.504754	0.017084	0.858024
	C987	C	0.754467	0.079569	0.795544
	C988	C	0.504673	0.044995	0.858060
	C989	C	0.754442	0.107500	0.795550
	C990	C	0.504475	0.079593	0.766941
	C991	C	0.754407	0.017061	0.829449
	H992	H	0.663233	0.117357	0.757091
	H993	H	0.913089	0.054859	0.819644
	H994	H	0.663568	0.007068	0.867636
	H995	H	0.913145	0.069641	0.805225
	H996	H	0.845494	0.055016	0.867670
	H997	H	0.595695	0.117326	0.805375
	H998	H	0.845527	0.069702	0.757180
	H999	H	0.595701	0.007144	0.819674
	H1000	H	0.845725	0.007277	0.867969
	H1001	H	0.595592	0.069697	0.805376
	H1002	H	0.845632	0.117459	0.757213
	H1003	H	0.595583	0.054975	0.819740
	H1004	H	0.663197	0.069648	0.757235
	H1005	H	0.913109	0.007161	0.819709
	H1006	H	0.663672	0.054825	0.867942
	H1007	H	0.913152	0.117470	0.805190
	O1008	O	0.088610	0.104003	0.895352
	O1009	O	0.338504	0.041487	0.957836
	O1010	O	0.088874	0.020532	0.979551
	O1011	O	0.338866	0.083065	0.917118
	O1012	O	0.420438	0.041526	0.979627
	O1013	O	0.170580	0.103994	0.917167
	O1014	O	0.420478	0.083129	0.895269
	O1015	O	0.170578	0.020629	0.957756
	O1016	O	0.420576	0.020615	0.979711
	O1017	O	0.170679	0.083099	0.917188
	O1018	O	0.420421	0.103989	0.895286
	O1019	O	0.170388	0.041500	0.957834
	O1020	O	0.088704	0.083058	0.895375
	O1021	O	0.338782	0.020542	0.957880
	O1022	O	0.088475	0.041450	0.979675
	O1023	O	0.338636	0.104002	0.917152
	F1024	F	0.004583	0.031042	0.961199
	F1025	F	0.254448	0.093529	0.898734
	F1026	F	0.004574	0.093539	0.913761
	F1027	F	0.254436	0.031057	0.976251
	Al1028	Al	0.129623	0.031034	0.968709
	Al1029	Al	0.379474	0.093549	0.906219
	Al1030	Al	0.129559	0.093543	0.906261
	Al1031	Al	0.379454	0.031038	0.968757
	C1032	C	0.093889	0.120661	0.879065
	C1033	C	0.344080	0.058080	0.941476
	C1034	C	0.093920	0.003821	0.995766
	C1035	C	0.344207	0.066380	0.933371
	C1036	C	0.415220	0.058230	0.995787
	C1037	C	0.165100	0.120645	0.933441
	C1038	C	0.415225	0.066492	0.878980
	C1039	C	0.164983	0.004011	0.941423
	C1040	C	0.415338	0.004037	0.996138
	C1041	C	0.165260	0.066486	0.933520
	C1042	C	0.415220	0.120646	0.879014
	C1043	C	0.165100	0.058198	0.941616
	C1044	C	0.093979	0.066402	0.879124
	C1045	C	0.343949	0.003846	0.941663
	C1046	C	0.093895	0.058043	0.996036
	C1047	C	0.344009	0.120631	0.933464
	C1048	C	0.004468	0.116399	0.883199
	C1049	C	0.254527	0.053897	0.945696
	C1050	C	0.004548	0.008183	0.991777
	C1051	C	0.254780	0.070665	0.929283
	C1052	C	0.004397	0.053901	0.991751
	C1053	C	0.254593	0.116382	0.929299
	C1054	C	0.004532	0.070692	0.883197
	C1055	C	0.254533	0.008148	0.945710
	C1056	C	0.004563	0.107498	0.891960
	C1057	C	0.254464	0.045000	0.954444
	C1058	C	0.004721	0.017083	0.983018
	C1059	C	0.254785	0.079570	0.920543
	C1060	C	0.004405	0.044989	0.983022
	C1061	C	0.254634	0.107507	0.920544
	C1062	C	0.004616	0.079586	0.891947
	C1063	C	0.254663	0.017072	0.954441
	H1064	H	0.163333	0.117457	0.882218
	H1065	H	0.413245	0.054786	0.944570
	H1066	H	0.163369	0.006940	0.992464
	H1067	H	0.413475	0.069577	0.930152
	H1068	H	0.345971	0.055087	0.992489
	H1069	H	0.095689	0.117441	0.930276
	H1070	H	0.345937	0.069770	0.882066
	H1071	H	0.095701	0.007331	0.944455
	H1072	H	0.346049	0.007363	0.993127
	H1073	H	0.095871	0.069757	0.930450
	H1074	H	0.345997	0.117404	0.882135
	H1075	H	0.095660	0.055022	0.944801
	H1076	H	0.163320	0.069586	0.882326
	H1077	H	0.413383	0.007014	0.944886
	H1078	H	0.163231	0.054741	0.992998
	H1079	H	0.413370	0.117422	0.930324
	O1080	O	0.588631	0.104028	0.895322
	O1081	O	0.838447	0.041475	0.957761
	O1082	O	0.588764	0.020505	0.979547
	O1083	O	0.838370	0.083052	0.917104
	O1084	O	0.920342	0.041514	0.979620
	O1085	O	0.670291	0.104017	0.917164
	O1086	O	0.920533	0.083122	0.895278
	O1087	O	0.670482	0.020609	0.957805
	O1088	O	0.920756	0.020654	0.979706
	O1089	O	0.670244	0.083098	0.917169
	O1090	O	0.920467	0.103985	0.895332
	O1091	O	0.670281	0.041528	0.957859
	O1092	O	0.588663	0.083090	0.895344
	O1093	O	0.838734	0.020531	0.957914
	O1094	O	0.588588	0.041486	0.979643
	O1095	O	0.838396	0.104026	0.917137
	F1096	F	0.504469	0.031027	0.961251
	F1097	F	0.754525	0.093580	0.898763
	F1098	F	0.504487	0.093564	0.913737
	F1099	F	0.754590	0.031030	0.976220
	Al1100	Al	0.629503	0.031040	0.968737
	Al1101	Al	0.879668	0.093551	0.906238
	Al1102	Al	0.629509	0.093567	0.906246
	Al1103	Al	0.879767	0.031049	0.968723
	C1104	C	0.594112	0.120655	0.879016
	C1105	C	0.843918	0.058103	0.941482
	C1106	C	0.594309	0.003823	0.995788
	C1107	C	0.843942	0.066394	0.933363
	C1108	C	0.914909	0.058226	0.995791
	C1109	C	0.665000	0.120652	0.933449
	C1110	C	0.914982	0.066493	0.878984
	C1111	C	0.665136	0.004029	0.941441
	C1112	C	0.914915	0.004059	0.996097
	C1113	C	0.664828	0.066501	0.933542
	C1114	C	0.914950	0.120657	0.879056
	C1115	C	0.664817	0.058223	0.941651
	C1116	C	0.594266	0.066402	0.879128
	C1117	C	0.843935	0.003847	0.941676
	C1118	C	0.594090	0.058032	0.996083
	C1119	C	0.843973	0.120634	0.933471
	C1120	C	0.504588	0.116421	0.883180
	C1121	C	0.754349	0.053925	0.945705
	C1122	C	0.504774	0.008176	0.991809
	C1123	C	0.754311	0.070682	0.929298
	C1124	C	0.504648	0.053878	0.991812
	C1125	C	0.754495	0.116384	0.929322
	C1126	C	0.504719	0.070682	0.883204
	C1127	C	0.754589	0.008184	0.945707
	C1128	C	0.504509	0.107511	0.891919
	C1129	C	0.754354	0.045018	0.954436
	C1130	C	0.504661	0.017056	0.983025
	C1131	C	0.754272	0.079566	0.920528
	C1132	C	0.504594	0.044994	0.983039
	C1133	C	0.754380	0.107517	0.920549
	C1134	C	0.504585	0.079593	0.891931
	C1135	C	0.754609	0.017079	0.954461
	H1136	H	0.663478	0.117418	0.882136
	H1137	H	0.913220	0.054828	0.944580
	H1138	H	0.663593	0.006972	0.992484
	H1139	H	0.913180	0.069595	0.930124
	H1140	H	0.845517	0.055065	0.992551
	H1141	H	0.595562	0.117451	0.930282
	H1142	H	0.845672	0.069770	0.882075
	H1143	H	0.595844	0.007323	0.944490
	H1144	H	0.845647	0.007381	0.993063
	H1145	H	0.595425	0.069771	0.930483
	H1146	H	0.845594	0.117436	0.882225
	H1147	H	0.595328	0.055058	0.944886
	H1148	H	0.663601	0.069609	0.882335
	H1149	H	0.913293	0.006993	0.944933
	H1150	H	0.663369	0.054737	0.993037
	H1151	H	0.913343	0.117415	0.930325
	O1152	O	0.088515	0.229006	0.020372
	O1153	O	0.338625	0.166452	0.082804
	O1154	O	0.088598	0.145551	0.104616
	O1155	O	0.338767	0.208051	0.042127
	O1156	O	0.420745	0.166496	0.104654
	O1157	O	0.170492	0.229007	0.042144
	O1158	O	0.420589	0.208082	0.020349
	O1159	O	0.170730	0.145575	0.082836
	O1160	O	0.420513	0.145587	0.104654
	O1161	O	0.170640	0.208109	0.042205
	O1162	O	0.420712	0.228934	0.020268
	O1163	O	0.170474	0.166508	0.082876
	O1164	O	0.088568	0.208085	0.020390
	O1165	O	0.338903	0.145556	0.082893
	O1166	O	0.088424	0.166458	0.104693
	O1167	O	0.338620	0.229003	0.042114
	F1168	F	0.004733	0.156028	0.086217
	F1169	F	0.254437	0.218543	0.023764
	F1170	F	0.004525	0.218537	0.038791
	F1171	F	0.254586	0.156029	0.101264
	Al1172	Al	0.129640	0.156019	0.093748
	Al1173	Al	0.379488	0.218527	0.031237
	Al1174	Al	0.129457	0.218544	0.031269
	Al1175	Al	0.379701	0.156052	0.093764
	C1176	C	0.093997	0.245686	0.004145
	C1177	C	0.343973	0.183047	0.066411
	C1178	C	0.093780	0.128883	0.120901
	C1179	C	0.344075	0.191330	0.058321
	C1180	C	0.415240	0.183125	0.120947
	C1181	C	0.165281	0.245618	0.058502
	C1182	C	0.415455	0.191314	0.004238
	C1183	C	0.165429	0.128981	0.066510
	C1184	C	0.415180	0.128949	0.120947
	C1185	C	0.165012	0.191525	0.058566
	C1186	C	0.415432	0.245562	0.003977
	C1187	C	0.164911	0.183222	0.066683
	C1188	C	0.093939	0.191546	0.003906
	C1189	C	0.344221	0.128859	0.066650
	C1190	C	0.093538	0.183119	0.120943
	C1191	C	0.344189	0.245612	0.058466
	C1192	C	0.004540	0.241388	0.008221
	C1193	C	0.254483	0.178901	0.070716
	C1194	C	0.004394	0.133160	0.116785
	C1195	C	0.254643	0.195692	0.054328
	C1196	C	0.004122	0.178881	0.116785
	C1197	C	0.254695	0.241365	0.054319
	C1198	C	0.004563	0.195699	0.008211
	C1199	C	0.254822	0.133162	0.070735
	C1200	C	0.004477	0.232481	0.016958
	C1201	C	0.254584	0.170002	0.079464
	C1202	C	0.004456	0.142057	0.108044
	C1203	C	0.254689	0.204571	0.045549
	C1204	C	0.004271	0.169984	0.108050
	C1205	C	0.254601	0.232481	0.045561
	C1206	C	0.004516	0.204587	0.016982
	C1207	C	0.254852	0.142057	0.079480
	H1208	H	0.163375	0.242495	0.007347
	H1209	H	0.413485	0.179751	0.069419
	H1210	H	0.163052	0.132086	0.117718
	H1211	H	0.413681	0.194448	0.055048
	H1212	H	0.346086	0.179915	0.117775
	H1213	H	0.095839	0.242412	0.055355
	H1214	H	0.346169	0.194461	0.007504
	H1215	H	0.095973	0.132239	0.069590
	H1216	H	0.345926	0.132210	0.117831
	H1217	H	0.095857	0.194836	0.055485
	H1218	H	0.346147	0.242267	0.007027
	H1219	H	0.095611	0.180045	0.069946
	H1220	H	0.163248	0.194852	0.006916
	H1221	H	0.413480	0.132031	0.069862
	H1222	H	0.162794	0.179895	0.117794
	H1223	H	0.413640	0.242411	0.055309
	O1224	O	0.588925	0.229029	0.020431
	O1225	O	0.838624	0.166457	0.082777
	O1226	O	0.588688	0.145579	0.104634
	O1227	O	0.838400	0.208045	0.042119
	O1228	O	0.920273	0.166481	0.104644
	O1229	O	0.670373	0.228983	0.042188
	O1230	O	0.920451	0.208091	0.020332
	O1231	O	0.670573	0.145569	0.082844
	O1232	O	0.920402	0.145589	0.104691
	O1233	O	0.670247	0.208083	0.042184
	O1234	O	0.920422	0.228960	0.020304
	O1235	O	0.670482	0.166523	0.082897
	O1236	O	0.588732	0.208094	0.020324
	O1237	O	0.838704	0.145507	0.082861
	O1238	O	0.588784	0.166491	0.104690
	O1239	O	0.838347	0.229017	0.042144
	F1240	F	0.504701	0.156044	0.086256
	F1241	F	0.754565	0.218532	0.023782
	F1242	F	0.504391	0.218526	0.038755
	F1243	F	0.754691	0.156041	0.101203
	Al1244	Al	0.629621	0.156035	0.093758
	Al1245	Al	0.879717	0.218542	0.031275
	Al1246	Al	0.629533	0.218546	0.031281
	Al1247	Al	0.879849	0.156013	0.093686
	C1248	C	0.594375	0.245666	0.004144
	C1249	C	0.843973	0.183067	0.066427
	C1250	C	0.593989	0.128908	0.120916
	C1251	C	0.843926	0.191334	0.058313
	C1252	C	0.914802	0.183123	0.120952
	C1253	C	0.664959	0.245613	0.058491
	C1254	C	0.915210	0.191326	0.004239
	C1255	C	0.664829	0.128980	0.066489
	C1256	C	0.914879	0.128949	0.120975
	C1257	C	0.664790	0.191514	0.058567
	C1258	C	0.915093	0.245589	0.003990
	C1259	C	0.664905	0.183228	0.066708
	C1260	C	0.594099	0.191518	0.003936
	C1261	C	0.843884	0.128844	0.066633
	C1262	C	0.593843	0.183138	0.120960
	C1263	C	0.843769	0.245640	0.058474
	C1264	C	0.504850	0.241392	0.008247
	C1265	C	0.754457	0.178898	0.070702
	C1266	C	0.504612	0.133157	0.116751
	C1267	C	0.754384	0.195673	0.054305
	C1268	C	0.504570	0.178866	0.116817
	C1269	C	0.754354	0.241397	0.054296
	C1270	C	0.504762	0.195677	0.008227
	C1271	C	0.754447	0.133147	0.070692
	C1272	C	0.504832	0.232482	0.016964
	C1273	C	0.754548	0.169998	0.079445
	C1274	C	0.504600	0.142069	0.108022
	C1275	C	0.754348	0.204569	0.045557
	C1276	C	0.504732	0.170001	0.108056
	C1277	C	0.754313	0.232511	0.045553
	C1278	C	0.504665	0.204585	0.016943
	C1279	C	0.754548	0.142043	0.079442
	H1280	H	0.663753	0.242461	0.007318
	H1281	H	0.913357	0.179802	0.069459
	H1282	H	0.663339	0.132119	0.117766
	H1283	H	0.913305	0.194467	0.055056
	H1284	H	0.845373	0.179904	0.117826
	H1285	H	0.595527	0.242375	0.055400
	H1286	H	0.845837	0.194450	0.007529
	H1287	H	0.595667	0.132271	0.069589
	H1288	H	0.845511	0.132196	0.117876
	H1289	H	0.595452	0.194832	0.055499
	H1290	H	0.845758	0.242312	0.007068
	H1291	H	0.595596	0.180062	0.070007
	H1292	H	0.663451	0.194826	0.006945
	H1293	H	0.913265	0.132023	0.069859
	H1294	H	0.663133	0.179938	0.117797
	H1295	H	0.913146	0.242409	0.055363
	O1296	O	0.088729	0.228926	0.145317
	O1297	O	0.338674	0.166491	0.207845
	O1298	O	0.088474	0.145563	0.229672
	O1299	O	0.338741	0.208045	0.167159
	O1300	O	0.420743	0.166471	0.229693
	O1301	O	0.170436	0.228971	0.167161
	O1302	O	0.420539	0.208090	0.145338
	O1303	O	0.170479	0.145528	0.207907
	O1304	O	0.420643	0.145547	0.229648
	O1305	O	0.170620	0.208058	0.167166
	O1306	O	0.420256	0.228969	0.145378
	O1307	O	0.170575	0.166488	0.207851
	O1308	O	0.088693	0.208045	0.145363
	O1309	O	0.338594	0.145568	0.207863
	O1310	O	0.088735	0.166504	0.229649
	O1311	O	0.338570	0.228935	0.167232
	F1312	F	0.004716	0.156026	0.211236
	F1313	F	0.254505	0.218506	0.148764
	F1314	F	0.004780	0.218497	0.163796
	F1315	F	0.254628	0.156026	0.226259
	Al1316	Al	0.129662	0.156019	0.218746
	Al1317	Al	0.379553	0.218518	0.156255
	Al1318	Al	0.129713	0.218495	0.156270
	Al1319	Al	0.379628	0.156029	0.218773
	C1320	C	0.093672	0.245565	0.129020
	C1321	C	0.344100	0.183110	0.191561
	C1322	C	0.093803	0.128959	0.245987
	C1323	C	0.344107	0.191396	0.183448
	C1324	C	0.415259	0.183095	0.246012
	C1325	C	0.165046	0.245635	0.183445
	C1326	C	0.415205	0.191420	0.129078
	C1327	C	0.165179	0.128892	0.191602
	C1328	C	0.415451	0.128868	0.245852
	C1329	C	0.165176	0.191430	0.183441
	C1330	C	0.415056	0.245662	0.129145
	C1331	C	0.165132	0.183143	0.191557
	C1332	C	0.093620	0.191419	0.129055
	C1333	C	0.344065	0.128939	0.191503
	C1334	C	0.093890	0.183160	0.245935
	C1335	C	0.344123	0.245600	0.183471
	C1336	C	0.004367	0.241345	0.133213
	C1337	C	0.254593	0.178893	0.195714
	C1338	C	0.004308	0.133169	0.241808
	C1339	C	0.254675	0.195645	0.179287
	C1340	C	0.004396	0.178882	0.241822
	C1341	C	0.254540	0.241366	0.179317
	C1342	C	0.004292	0.195662	0.133220
	C1343	C	0.254624	0.133142	0.195734
	C1344	C	0.004610	0.232453	0.141954
	C1345	C	0.254593	0.169991	0.204448
	C1346	C	0.004407	0.142071	0.233050
	C1347	C	0.254656	0.204540	0.170545
	C1348	C	0.004679	0.169962	0.233083
	C1349	C	0.254481	0.232478	0.170559
	C1350	C	0.004488	0.204537	0.141985
	C1351	C	0.254570	0.142042	0.204485
	H1352	H	0.162941	0.242311	0.132144
	H1353	H	0.413371	0.179868	0.194702
	H1354	H	0.163159	0.132211	0.242873
	H1355	H	0.413477	0.194616	0.180286
	H1356	H	0.345919	0.179840	0.242899
	H1357	H	0.095540	0.242417	0.180294
	H1358	H	0.346058	0.194660	0.132232
	H1359	H	0.095829	0.132091	0.194775
	H1360	H	0.346197	0.132051	0.242629
	H1361	H	0.095914	0.194662	0.180296
	H1362	H	0.345747	0.242470	0.132353
	H1363	H	0.095908	0.179916	0.194703
	H1364	H	0.162883	0.194645	0.132190
	H1365	H	0.413471	0.132186	0.194601
	H1366	H	0.163299	0.179965	0.242756
	H1367	H	0.413514	0.242360	0.180339
	O1368	O	0.588595	0.228955	0.145356
	O1369	O	0.838387	0.166479	0.207829
	O1370	O	0.588757	0.145593	0.229708
	O1371	O	0.838414	0.208032	0.167162
	O1372	O	0.920650	0.166438	0.229719
	O1373	O	0.670289	0.228991	0.167150
	O1374	O	0.920506	0.208044	0.145410
	O1375	O	0.670152	0.145554	0.207875
	O1376	O	0.920318	0.145564	0.229660
	O1377	O	0.670312	0.208052	0.167145
	O1378	O	0.920547	0.228974	0.145411
	O1379	O	0.670265	0.166444	0.207814
	O1380	O	0.588626	0.208022	0.145419
	O1381	O	0.838296	0.145578	0.207831
	O1382	O	0.588852	0.166462	0.229707
	O1383	O	0.838492	0.228964	0.167219
	F1384	F	0.504554	0.156021	0.211271
	F1385	F	0.754695	0.218532	0.148795
	F1386	F	0.504551	0.218540	0.163771
	F1387	F	0.754690	0.156024	0.226241
	Al1388	Al	0.629606	0.156019	0.218761
	Al1389	Al	0.879851	0.218527	0.156312
	Al1390	Al	0.629553	0.218515	0.156268
	Al1391	Al	0.879809	0.156034	0.218740
	C1392	C	0.593991	0.245549	0.128986
	C1393	C	0.843665	0.183129	0.191588
	C1394	C	0.594183	0.128977	0.246041
	C1395	C	0.843696	0.191420	0.183481
	C1396	C	0.914897	0.183089	0.246015
	C1397	C	0.664897	0.245615	0.183475
	C1398	C	0.914860	0.191426	0.129073
	C1399	C	0.664778	0.128877	0.191636
	C1400	C	0.914855	0.128878	0.245891
	C1401	C	0.664744	0.191418	0.183464
	C1402	C	0.915011	0.245653	0.129148
	C1403	C	0.664671	0.183127	0.191569
	C1404	C	0.593950	0.191432	0.129091
	C1405	C	0.843841	0.128953	0.191537
	C1406	C	0.594170	0.183151	0.245940
	C1407	C	0.843926	0.245621	0.183491
	C1408	C	0.504482	0.241374	0.133219
	C1409	C	0.754179	0.178883	0.195712
	C1410	C	0.504812	0.133168	0.241809
	C1411	C	0.754220	0.195651	0.179315
	C1412	C	0.504774	0.178864	0.241820
	C1413	C	0.754372	0.241374	0.179357
	C1414	C	0.504568	0.195648	0.133252
	C1415	C	0.754246	0.133164	0.195717
	C1416	C	0.504406	0.232465	0.141977
	C1417	C	0.754258	0.169969	0.204433
	C1418	C	0.504719	0.142061	0.233056
	C1419	C	0.754285	0.204540	0.170557
	C1420	C	0.504790	0.169968	0.233095
	C1421	C	0.754359	0.232474	0.170592
	C1422	C	0.504541	0.204541	0.142001
	C1423	C	0.754202	0.142056	0.204465
	H1424	H	0.663153	0.242246	0.132077
	H1425	H	0.912899	0.179898	0.194737
	H1426	H	0.663433	0.132254	0.242956
	H1427	H	0.913002	0.194649	0.180329
	H1428	H	0.845519	0.179838	0.242907
	H1429	H	0.595616	0.242377	0.180330
	H1430	H	0.845608	0.194659	0.132232
	H1431	H	0.595443	0.132068	0.194835
	H1432	H	0.845589	0.132076	0.242691
	H1433	H	0.595425	0.194651	0.180305
	H1434	H	0.845779	0.242480	0.132385
	H1435	H	0.595364	0.179893	0.194706
	H1436	H	0.663135	0.194671	0.132249
	H1437	H	0.913155	0.132202	0.194657
	H1438	H	0.663582	0.179949	0.242778
	H1439	H	0.913258	0.242385	0.180351
	O1440	O	0.088418	0.228993	0.270367
	O1441	O	0.338665	0.166475	0.332849
	O1442	O	0.088483	0.145569	0.354666
	O1443	O	0.338485	0.208082	0.292165
	O1444	O	0.420438	0.166485	0.354677
	O1445	O	0.170675	0.228977	0.292178
	O1446	O	0.420453	0.208053	0.270375
	O1447	O	0.170589	0.145543	0.332875
	O1448	O	0.420583	0.145571	0.354675
	O1449	O	0.170391	0.208052	0.292141
	O1450	O	0.420584	0.228936	0.270293
	O1451	O	0.170570	0.166456	0.332827
	O1452	O	0.088599	0.208089	0.270322
	O1453	O	0.338691	0.145566	0.332873
	O1454	O	0.088357	0.166473	0.354669
	O1455	O	0.338776	0.229014	0.292123
	F1456	F	0.004634	0.156007	0.336230
	F1457	F	0.254421	0.218546	0.273746
	F1458	F	0.004668	0.218540	0.288790
	F1459	F	0.254545	0.156025	0.351270
	Al1460	Al	0.129595	0.156023	0.343767
	Al1461	Al	0.379477	0.218525	0.281237
	Al1462	Al	0.129504	0.218545	0.281266
	Al1463	Al	0.379499	0.156018	0.343759
	C1464	C	0.093824	0.245687	0.254148
	C1465	C	0.344093	0.183130	0.316559
	C1466	C	0.093916	0.128884	0.370915
	C1467	C	0.344074	0.191415	0.308439
	C1468	C	0.415175	0.183155	0.370914
	C1469	C	0.165192	0.245600	0.308443
	C1470	C	0.415143	0.191406	0.254117
	C1471	C	0.165289	0.128844	0.316681
	C1472	C	0.415176	0.128925	0.370967
	C1473	C	0.165131	0.191408	0.308440
	C1474	C	0.414969	0.245574	0.253977
	C1475	C	0.165145	0.183126	0.316556
	C1476	C	0.093900	0.191460	0.254038
	C1477	C	0.344066	0.129003	0.316472
	C1478	C	0.093717	0.183112	0.370968
	C1479	C	0.344065	0.245627	0.308467
	C1480	C	0.004365	0.241376	0.258209
	C1481	C	0.254621	0.178876	0.320704
	C1482	C	0.004462	0.133136	0.366770
	C1483	C	0.254613	0.195676	0.304315
	C1484	C	0.004230	0.178878	0.366799
	C1485	C	0.254654	0.241374	0.304296
	C1486	C	0.004428	0.195655	0.258245
	C1487	C	0.254715	0.133160	0.320730
	C1488	C	0.004366	0.232472	0.266962
	C1489	C	0.254612	0.169979	0.329453
	C1490	C	0.004363	0.142058	0.358038
	C1491	C	0.254480	0.204559	0.295541
	C1492	C	0.004229	0.169965	0.358065
	C1493	C	0.254715	0.232486	0.295556
	C1494	C	0.004591	0.204576	0.266969
	C1495	C	0.254684	0.142055	0.329471
	H1496	H	0.163186	0.242514	0.257372
	H1497	H	0.413473	0.179902	0.319712
	H1498	H	0.163251	0.132109	0.367750
	H1499	H	0.413531	0.194621	0.305264
	H1500	H	0.345850	0.179936	0.367736
	H1501	H	0.095959	0.242366	0.305294
	H1502	H	0.345811	0.194628	0.257282
	H1503	H	0.096043	0.132015	0.319923
	H1504	H	0.345790	0.132166	0.367850
	H1505	H	0.095768	0.194615	0.305259
	H1506	H	0.345580	0.242299	0.257062
	H1507	H	0.095816	0.179900	0.319697
	H1508	H	0.163202	0.194738	0.257121
	H1509	H	0.413400	0.132291	0.319510
	H1510	H	0.163074	0.179866	0.367847
	H1511	H	0.413389	0.242389	0.305324
	O1512	O	0.588768	0.229016	0.270381
	O1513	O	0.838631	0.166485	0.332845
	O1514	O	0.588727	0.145557	0.354675
	O1515	O	0.838446	0.208061	0.292193
	O1516	O	0.920242	0.166435	0.354724
	O1517	O	0.670292	0.228974	0.292203
	O1518	O	0.920513	0.208042	0.270406
	O1519	O	0.670275	0.145513	0.332902
	O1520	O	0.920412	0.145544	0.354626
	O1521	O	0.670281	0.208043	0.292159
	O1522	O	0.920296	0.228956	0.270320
	O1523	O	0.670506	0.166455	0.332811
	O1524	O	0.588608	0.208088	0.270360
	O1525	O	0.838357	0.145569	0.332820
	O1526	O	0.588651	0.166435	0.354710
	O1527	O	0.838445	0.228995	0.292164
	F1528	F	0.504659	0.156033	0.336270
	F1529	F	0.754630	0.218516	0.273783
	F1530	F	0.504362	0.218529	0.288756
	F1531	F	0.754675	0.156018	0.351218
	Al1532	Al	0.629656	0.156005	0.343760
	Al1533	Al	0.879767	0.218518	0.281295
	Al1534	Al	0.629430	0.218528	0.281267
	Al1535	Al	0.879793	0.156011	0.343714
	C1536	C	0.593993	0.245679	0.254130
	C1537	C	0.843887	0.183133	0.316559
	C1538	C	0.594058	0.128882	0.370912
	C1539	C	0.843893	0.191422	0.308451
	C1540	C	0.914766	0.183161	0.370898
	C1541	C	0.664910	0.245608	0.308479
	C1542	C	0.914908	0.191390	0.254119
	C1543	C	0.664807	0.128824	0.316688
	C1544	C	0.914935	0.128930	0.370981
	C1545	C	0.664875	0.191406	0.308450
	C1546	C	0.914924	0.245568	0.253970
	C1547	C	0.664907	0.183125	0.316559
	C1548	C	0.594063	0.191462	0.254046
	C1549	C	0.843914	0.128963	0.316488
	C1550	C	0.594103	0.183115	0.370975
	C1551	C	0.843832	0.245632	0.308408
	C1552	C	0.504495	0.241384	0.258191
	C1553	C	0.754437	0.178872	0.320682
	C1554	C	0.504622	0.133146	0.366787
	C1555	C	0.754404	0.195653	0.304308
	C1556	C	0.504618	0.178879	0.366816
	C1557	C	0.754381	0.241372	0.304312
	C1558	C	0.504633	0.195664	0.258240
	C1559	C	0.754336	0.133149	0.320695
	C1560	C	0.504627	0.232478	0.266944
	C1561	C	0.754552	0.169974	0.329435
	C1562	C	0.504653	0.142052	0.358046
	C1563	C	0.754372	0.204546	0.295559
	C1564	C	0.504599	0.169969	0.358071
	C1565	C	0.754371	0.232471	0.295593
	C1566	C	0.504585	0.204570	0.266978
	C1567	C	0.754318	0.142035	0.329466
	H1568	H	0.663414	0.242497	0.257335
	H1569	H	0.913177	0.179934	0.319728
	H1570	H	0.663520	0.132083	0.367757
	H1571	H	0.913187	0.194663	0.305319
	H1572	H	0.845423	0.179960	0.367706
	H1573	H	0.595578	0.242358	0.305351
	H1574	H	0.845611	0.194618	0.257278
	H1575	H	0.595592	0.131977	0.319977
	H1576	H	0.845594	0.132194	0.367873
	H1577	H	0.595503	0.194647	0.305294
	H1578	H	0.845581	0.242294	0.257057
	H1579	H	0.595530	0.179902	0.319738
	H1580	H	0.663427	0.194718	0.257148
	H1581	H	0.913114	0.132237	0.319607
	H1582	H	0.663409	0.179864	0.367852
	H1583	H	0.913184	0.242413	0.305245
	O1584	O	0.088744	0.228947	0.395249
	O1585	O	0.338522	0.166482	0.457795
	O1586	O	0.088769	0.145563	0.479627
	O1587	O	0.338845	0.208064	0.417121
	O1588	O	0.420468	0.166526	0.479594
	O1589	O	0.170419	0.229007	0.417120
	O1590	O	0.420574	0.208091	0.395322
	O1591	O	0.170467	0.145600	0.457805
	O1592	O	0.420698	0.145600	0.479650
	O1593	O	0.170679	0.208104	0.417162
	O1594	O	0.420535	0.229014	0.395330
	O1595	O	0.170392	0.166536	0.457852
	O1596	O	0.088709	0.208051	0.395360
	O1597	O	0.338617	0.145571	0.457823
	O1598	O	0.088558	0.166449	0.479689
	O1599	O	0.338573	0.228987	0.417146
	F1600	F	0.004759	0.156042	0.461201
	F1601	F	0.254619	0.218533	0.398722
	F1602	F	0.004729	0.218539	0.413740
	F1603	F	0.254707	0.156043	0.476227
	Al1604	Al	0.129731	0.156030	0.468734
	Al1605	Al	0.379688	0.218536	0.406222
	Al1606	Al	0.129724	0.218536	0.406220
	Al1607	Al	0.379688	0.156043	0.468734
	C1608	C	0.094080	0.245580	0.378940
	C1609	C	0.343959	0.183097	0.441445
	C1610	C	0.093769	0.128912	0.495895
	C1611	C	0.344007	0.191389	0.433330
	C1612	C	0.415247	0.183253	0.495741
	C1613	C	0.165200	0.245630	0.433407
	C1614	C	0.415112	0.191462	0.379002
	C1615	C	0.164926	0.128949	0.441508
	C1616	C	0.415290	0.128978	0.495988
	C1617	C	0.165138	0.191472	0.433460
	C1618	C	0.415186	0.245684	0.379113
	C1619	C	0.165071	0.183195	0.441568
	C1620	C	0.093783	0.191418	0.379066
	C1621	C	0.343802	0.128895	0.441601
	C1622	C	0.093982	0.183017	0.496100
	C1623	C	0.344031	0.245647	0.433395
	C1624	C	0.004572	0.241388	0.383167
	C1625	C	0.254500	0.178904	0.445664
	C1626	C	0.004336	0.133178	0.491769
	C1627	C	0.254533	0.195681	0.429266
	C1628	C	0.004506	0.178901	0.491764
	C1629	C	0.254617	0.241392	0.429272
	C1630	C	0.004410	0.195672	0.383197
	C1631	C	0.254363	0.133171	0.445693
	C1632	C	0.004627	0.232486	0.391934
	C1633	C	0.254485	0.170010	0.454426
	C1634	C	0.004522	0.142101	0.483045
	C1635	C	0.254698	0.204571	0.420519
	C1636	C	0.004427	0.169992	0.483028
	C1637	C	0.254529	0.232484	0.420544
	C1638	C	0.004539	0.204569	0.391959
	C1639	C	0.254474	0.142067	0.454439
	H1640	H	0.163493	0.242322	0.382039
	H1641	H	0.413105	0.179826	0.444548
	H1642	H	0.163079	0.132137	0.492738
	H1643	H	0.413134	0.194593	0.430100
	H1644	H	0.345885	0.180140	0.492430
	H1645	H	0.095938	0.242392	0.430263
	H1646	H	0.345790	0.194713	0.382112
	H1647	H	0.095591	0.132182	0.444632
	H1648	H	0.346039	0.132239	0.492889
	H1649	H	0.095797	0.194716	0.430372
	H1650	H	0.345838	0.242496	0.382309
	H1651	H	0.095670	0.180014	0.444768
	H1652	H	0.163168	0.194634	0.382221
	H1653	H	0.413151	0.132080	0.444794
	H1654	H	0.163330	0.179687	0.493110
	H1655	H	0.413260	0.242424	0.430236
	O1656	O	0.588717	0.228958	0.395266
	O1657	O	0.838202	0.166461	0.457737
	O1658	O	0.588862	0.145590	0.479657
	O1659	O	0.838341	0.208049	0.417102
	O1660	O	0.920444	0.166532	0.479606
	O1661	O	0.670306	0.228991	0.417128
	O1662	O	0.920577	0.208090	0.395314
	O1663	O	0.670529	0.145628	0.457811
	O1664	O	0.920654	0.145645	0.479689
	O1665	O	0.670194	0.208094	0.417157
	O1666	O	0.920635	0.229016	0.395372
	O1667	O	0.670112	0.166532	0.457850
	O1668	O	0.588760	0.208084	0.395311
	O1669	O	0.838685	0.145570	0.457829
	O1670	O	0.588676	0.166444	0.479710
	O1671	O	0.838394	0.228981	0.417157
	F1672	F	0.504638	0.156040	0.461244
	F1673	F	0.754687	0.218549	0.398734
	F1674	F	0.504617	0.218553	0.413729
	F1675	F	0.754777	0.156041	0.476201
	Al1676	Al	0.629678	0.156040	0.468730
	Al1677	Al	0.879867	0.218540	0.406247
	Al1678	Al	0.629612	0.218537	0.406215
	Al1679	Al	0.879915	0.156053	0.468685
	C1680	C	0.594095	0.245586	0.378965
	C1681	C	0.843525	0.183097	0.441464
	C1682	C	0.594059	0.128930	0.495903
	C1683	C	0.843640	0.191390	0.433347
	C1684	C	0.915063	0.183267	0.495764
	C1685	C	0.664761	0.245621	0.433449
	C1686	C	0.914871	0.191465	0.378990
	C1687	C	0.664847	0.128985	0.441537
	C1688	C	0.914825	0.128961	0.495964
	C1689	C	0.664645	0.191491	0.433498
	C1690	C	0.915016	0.245671	0.379058
	C1691	C	0.664597	0.183215	0.441604
	C1692	C	0.594059	0.191426	0.379063
	C1693	C	0.843800	0.128895	0.441626
	C1694	C	0.594132	0.183004	0.496145
	C1695	C	0.843711	0.245654	0.433409
	C1696	C	0.504648	0.241391	0.383181
	C1697	C	0.754049	0.178925	0.445689
	C1698	C	0.504660	0.133195	0.491795
	C1699	C	0.754166	0.195700	0.429311
	C1700	C	0.504709	0.178879	0.491787
	C1701	C	0.754237	0.241373	0.429311
	C1702	C	0.504558	0.195681	0.383189
	C1703	C	0.754384	0.133179	0.445721
	C1704	C	0.504678	0.232492	0.391919
	C1705	C	0.754130	0.170011	0.454417
	C1706	C	0.504743	0.142086	0.483033
	C1707	C	0.754237	0.204577	0.420535
	C1708	C	0.504601	0.169992	0.483032
	C1709	C	0.754334	0.232481	0.420549
	C1710	C	0.504631	0.204577	0.391942
	C1711	C	0.754521	0.142100	0.454427
	H1712	H	0.663404	0.242313	0.382039
	H1713	H	0.912724	0.179793	0.444530
	H1714	H	0.663358	0.132141	0.492744
	H1715	H	0.912906	0.194554	0.430086
	H1716	H	0.845731	0.180134	0.492481
	H1717	H	0.595358	0.242379	0.430322
	H1718	H	0.845685	0.194733	0.382094
	H1719	H	0.595751	0.132259	0.444648
	H1720	H	0.845596	0.132235	0.492857
	H1721	H	0.595352	0.194724	0.430371
	H1722	H	0.845626	0.242478	0.382260
	H1723	H	0.595263	0.180025	0.444773
	H1724	H	0.663423	0.194642	0.382223
	H1725	H	0.913032	0.132104	0.444810
	H1726	H	0.663503	0.179682	0.493168
	H1727	H	0.913036	0.242438	0.430246
	O1728	O	0.088509	0.228978	0.520318
	O1729	O	0.338598	0.166466	0.582790
	O1730	O	0.088636	0.145614	0.604692
	O1731	O	0.338795	0.208077	0.542113
	O1732	O	0.420390	0.166500	0.604650
	O1733	O	0.170464	0.229003	0.542129
	O1734	O	0.420460	0.208125	0.520273
	O1735	O	0.170671	0.145621	0.582803
	O1736	O	0.420517	0.145586	0.604649
	O1737	O	0.170759	0.208073	0.542152
	O1738	O	0.420561	0.228990	0.520304
	O1739	O	0.170476	0.166515	0.582845
	O1740	O	0.088759	0.208033	0.520409
	O1741	O	0.338792	0.145588	0.582812
	O1742	O	0.088551	0.166489	0.604641
	O1743	O	0.338557	0.228984	0.542160
	F1744	F	0.004793	0.156033	0.586207
	F1745	F	0.254568	0.218555	0.523738
	F1746	F	0.004679	0.218530	0.538768
	F1747	F	0.254623	0.156042	0.601230
	Al1748	Al	0.129701	0.156045	0.593743
	Al1749	Al	0.379533	0.218543	0.531210
	Al1750	Al	0.129655	0.218531	0.531261
	Al1751	Al	0.379651	0.156038	0.593730
	C1752	C	0.093750	0.245623	0.504016
	C1753	C	0.343923	0.183088	0.566475
	C1754	C	0.093821	0.128998	0.620994
	C1755	C	0.344092	0.191371	0.558354
	C1756	C	0.415108	0.183136	0.620965
	C1757	C	0.164989	0.245669	0.558430
	C1758	C	0.415212	0.191558	0.503844
	C1759	C	0.165154	0.128951	0.566548
	C1760	C	0.415095	0.128899	0.620853
	C1761	C	0.165315	0.191464	0.558476
	C1762	C	0.415344	0.245630	0.504016
	C1763	C	0.165126	0.183179	0.566592
	C1764	C	0.094072	0.191324	0.504203
	C1765	C	0.344066	0.128926	0.566585
	C1766	C	0.093737	0.183149	0.620922
	C1767	C	0.343796	0.245639	0.558441
	C1768	C	0.004336	0.241378	0.508177
	C1769	C	0.254508	0.178882	0.570669
	C1770	C	0.004309	0.133184	0.616764
	C1771	C	0.254702	0.195668	0.554278
	C1772	C	0.004327	0.178893	0.616779
	C1773	C	0.254424	0.241403	0.554289
	C1774	C	0.004678	0.195675	0.508199
	C1775	C	0.254589	0.133173	0.570713
	C1776	C	0.004350	0.232484	0.516935
	C1777	C	0.254562	0.169997	0.579428
	C1778	C	0.004461	0.142087	0.608026
	C1779	C	0.254824	0.204566	0.545521
	C1780	C	0.004397	0.169983	0.608047
	C1781	C	0.254525	0.232495	0.545548
	C1782	C	0.004607	0.204576	0.516949
	C1783	C	0.254674	0.142074	0.579456
	H1784	H	0.162987	0.242384	0.507149
	H1785	H	0.413171	0.179833	0.569581
	H1786	H	0.163208	0.132274	0.617928
	H1787	H	0.413481	0.194547	0.555152
	H1788	H	0.345794	0.179893	0.617837
	H1789	H	0.095652	0.242459	0.555273
	H1790	H	0.345869	0.194901	0.506800
	H1791	H	0.095897	0.132194	0.569683
	H1792	H	0.345845	0.132093	0.617670
	H1793	H	0.096083	0.194719	0.555353
	H1794	H	0.346033	0.242406	0.507173
	H1795	H	0.095867	0.179986	0.569820
	H1796	H	0.163457	0.194458	0.507483
	H1797	H	0.413323	0.132151	0.569759
	H1798	H	0.163087	0.179934	0.617765
	H1799	H	0.413080	0.242402	0.555293
	O1800	O	0.588657	0.228967	0.520306
	O1801	O	0.838611	0.166509	0.582835
	O1802	O	0.588721	0.145605	0.604689
	O1803	O	0.838305	0.208061	0.542130
	O1804	O	0.920322	0.166485	0.604648
	O1805	O	0.670203	0.228978	0.542171
	O1806	O	0.920643	0.208095	0.520295
	O1807	O	0.670312	0.145565	0.582808
	O1808	O	0.920481	0.145591	0.604612
	O1809	O	0.670209	0.208094	0.542155
	O1810	O	0.920427	0.228967	0.520292
	O1811	O	0.670511	0.166506	0.582833
	O1812	O	0.588614	0.208048	0.520367
	O1813	O	0.838397	0.145579	0.582763
	O1814	O	0.588660	0.166477	0.604664
	O1815	O	0.838247	0.228981	0.542163
	F1816	F	0.504661	0.156029	0.586238
	F1817	F	0.754534	0.218534	0.523766
	F1818	F	0.504403	0.218546	0.538729
	F1819	F	0.754694	0.156028	0.601194
	Al1820	Al	0.629590	0.156035	0.593741
	Al1821	Al	0.879770	0.218535	0.531261
	Al1822	Al	0.629458	0.218537	0.531242
	Al1823	Al	0.879875	0.156026	0.593696
	C1824	C	0.594069	0.245644	0.504022
	C1825	C	0.843866	0.183116	0.566476
	C1826	C	0.593857	0.128968	0.620966
	C1827	C	0.843779	0.191399	0.558361
	C1828	C	0.914819	0.183144	0.620928
	C1829	C	0.664804	0.245651	0.558408
	C1830	C	0.915137	0.191564	0.503861
	C1831	C	0.664759	0.128916	0.566519
	C1832	C	0.914817	0.128891	0.620850
	C1833	C	0.664803	0.191461	0.558463
	C1834	C	0.914835	0.245623	0.504017
	C1835	C	0.664883	0.183177	0.566573
	C1836	C	0.594101	0.191313	0.504249
	C1837	C	0.843737	0.128910	0.566547
	C1838	C	0.594082	0.183139	0.620961
	C1839	C	0.843731	0.245617	0.558459
	C1840	C	0.504742	0.241388	0.508176
	C1841	C	0.754453	0.178914	0.570681
	C1842	C	0.504491	0.133178	0.616770
	C1843	C	0.754243	0.195673	0.554277
	C1844	C	0.504616	0.178906	0.616804
	C1845	C	0.754241	0.241392	0.554275
	C1846	C	0.504603	0.195671	0.508208
	C1847	C	0.754246	0.133154	0.570659
	C1848	C	0.504682	0.232486	0.516917
	C1849	C	0.754567	0.170012	0.579428
	C1850	C	0.504608	0.142085	0.608044
	C1851	C	0.754226	0.204568	0.545527
	C1852	C	0.504562	0.169997	0.608046
	C1853	C	0.754205	0.232488	0.545553
	C1854	C	0.504517	0.204579	0.516940
	C1855	C	0.754322	0.142061	0.579394
	H1856	H	0.663403	0.242433	0.507182
	H1857	H	0.913302	0.179860	0.569568
	H1858	H	0.663196	0.132223	0.617886
	H1859	H	0.913059	0.194590	0.555155
	H1860	H	0.845475	0.179925	0.617764
	H1861	H	0.595458	0.242423	0.555272
	H1862	H	0.845939	0.194905	0.506857
	H1863	H	0.595543	0.132154	0.569681
	H1864	H	0.845428	0.132076	0.617654
	H1865	H	0.595480	0.194713	0.555325
	H1866	H	0.845498	0.242379	0.507153
	H1867	H	0.595627	0.179957	0.569762
	H1868	H	0.663502	0.194442	0.507544
	H1869	H	0.913035	0.132130	0.569706
	H1870	H	0.663342	0.179890	0.617832
	H1871	H	0.913030	0.242353	0.555356
	O1872	O	0.088610	0.228985	0.645248
	O1873	O	0.338803	0.166476	0.707791
	O1874	O	0.088533	0.145576	0.729618
	O1875	O	0.338701	0.208073	0.667094
	O1876	O	0.420457	0.166475	0.729667
	O1877	O	0.170406	0.228987	0.667168
	O1878	O	0.420540	0.208096	0.645313
	O1879	O	0.170495	0.145591	0.707810
	O1880	O	0.420587	0.145591	0.729649
	O1881	O	0.170510	0.208139	0.667205
	O1882	O	0.420281	0.229007	0.645298
	O1883	O	0.170643	0.166526	0.707848
	O1884	O	0.088482	0.208094	0.645349
	O1885	O	0.338616	0.145579	0.707819
	O1886	O	0.088540	0.166480	0.729669
	O1887	O	0.338532	0.228964	0.667163
	F1888	F	0.004800	0.156051	0.711209
	F1889	F	0.254422	0.218552	0.648722
	F1890	F	0.004660	0.218566	0.663763
	F1891	F	0.254693	0.156033	0.726216
	Al1892	Al	0.129725	0.156041	0.718739
	Al1893	Al	0.379541	0.218541	0.656209
	Al1894	Al	0.129572	0.218557	0.656226
	Al1895	Al	0.379691	0.156036	0.718728
	C1896	C	0.093979	0.245664	0.628999
	C1897	C	0.344080	0.183110	0.691446
	C1898	C	0.093813	0.128913	0.745884
	C1899	C	0.344107	0.191396	0.683338
	C1900	C	0.415052	0.183138	0.745932
	C1901	C	0.165080	0.245628	0.683448
	C1902	C	0.415108	0.191436	0.629060
	C1903	C	0.165126	0.128945	0.691500
	C1904	C	0.415198	0.128963	0.745942
	C1905	C	0.165162	0.191502	0.683487
	C1906	C	0.414866	0.245681	0.629050
	C1907	C	0.165163	0.183210	0.691598
	C1908	C	0.093755	0.191448	0.629036
	C1909	C	0.344120	0.128884	0.691616
	C1910	C	0.093830	0.183135	0.745952
	C1911	C	0.344253	0.245648	0.683415
	C1912	C	0.004478	0.241421	0.633166
	C1913	C	0.254604	0.178903	0.695648
	C1914	C	0.004424	0.133203	0.741791
	C1915	C	0.254622	0.195691	0.679273
	C1916	C	0.004451	0.178888	0.741807
	C1917	C	0.254649	0.241404	0.679271
	C1918	C	0.004334	0.195707	0.633175
	C1919	C	0.254596	0.133164	0.695688
	C1920	C	0.004498	0.232513	0.641891
	C1921	C	0.254732	0.170004	0.704412
	C1922	C	0.004345	0.142103	0.733049
	C1923	C	0.254619	0.204604	0.670544
	C1924	C	0.004451	0.169993	0.733060
	C1925	C	0.254498	0.232487	0.670551
	C1926	C	0.004390	0.204612	0.641915
	C1927	C	0.254535	0.142076	0.704425
	H1928	H	0.163380	0.242426	0.632115
	H1929	H	0.413450	0.179842	0.694550
	H1930	H	0.163073	0.132114	0.742711
	H1931	H	0.413380	0.194589	0.680125
	H1932	H	0.345787	0.179917	0.742782
	H1933	H	0.095567	0.242386	0.680339
	H1934	H	0.345722	0.194646	0.632203
	H1935	H	0.095792	0.132199	0.694603
	H1936	H	0.345935	0.132216	0.742840
	H1937	H	0.095946	0.194776	0.680401
	H1938	H	0.345545	0.242482	0.632233
	H1939	H	0.095840	0.180039	0.694823
	H1940	H	0.163119	0.194677	0.632166
	H1941	H	0.413375	0.132089	0.694809
	H1942	H	0.163161	0.179914	0.742799
	H1943	H	0.413703	0.242418	0.680275
	O1944	O	0.588480	0.229013	0.645296
	O1945	O	0.838120	0.166492	0.707790
	O1946	O	0.588803	0.145632	0.729716
	O1947	O	0.838431	0.208087	0.667149
	O1948	O	0.920418	0.166501	0.729667
	O1949	O	0.670514	0.229006	0.667141
	O1950	O	0.920400	0.208119	0.645321
	O1951	O	0.670442	0.145629	0.707801
	O1952	O	0.920357	0.145638	0.729691
	O1953	O	0.670350	0.208076	0.667120
	O1954	O	0.920507	0.228990	0.645291
	O1955	O	0.670115	0.166480	0.707797
	O1956	O	0.588724	0.208105	0.645313
	O1957	O	0.838536	0.145585	0.707807
	O1958	O	0.588641	0.166481	0.729691
	O1959	O	0.838638	0.228998	0.667164
	F1960	F	0.504656	0.156047	0.711249
	F1961	F	0.754782	0.218548	0.648747
	F1962	F	0.504609	0.218567	0.663698
	F1963	F	0.754735	0.156061	0.726203
	Al1964	Al	0.629697	0.156049	0.718756
	Al1965	Al	0.879882	0.218562	0.656256
	Al1966	Al	0.629652	0.218557	0.656217
	Al1967	Al	0.879915	0.156053	0.718694
	C1968	C	0.593765	0.245633	0.629015
	C1969	C	0.843536	0.183105	0.691457
	C1970	C	0.593998	0.128911	0.745880
	C1971	C	0.843706	0.191391	0.683348
	C1972	C	0.914933	0.183123	0.745981
	C1973	C	0.664932	0.245625	0.683459
	C1974	C	0.914853	0.191441	0.629044
	C1975	C	0.664650	0.128980	0.691488
	C1976	C	0.914954	0.128982	0.745966
	C1977	C	0.664876	0.191503	0.683515
	C1978	C	0.914997	0.245669	0.629010
	C1979	C	0.664722	0.183214	0.691623
	C1980	C	0.594001	0.191435	0.629064
	C1981	C	0.843766	0.128895	0.691628
	C1982	C	0.593855	0.183150	0.745940
	C1983	C	0.843998	0.245650	0.683432
	C1984	C	0.504289	0.241391	0.633161
	C1985	C	0.754092	0.178907	0.695664
	C1986	C	0.504621	0.133186	0.741769
	C1987	C	0.754338	0.195691	0.679305
	C1988	C	0.504508	0.178877	0.741814
	C1989	C	0.754487	0.241387	0.679304
	C1990	C	0.504567	0.195695	0.633194
	C1991	C	0.754175	0.133178	0.695695
	C1992	C	0.504363	0.232513	0.641913
	C1993	C	0.754070	0.169996	0.704396
	C1994	C	0.504689	0.142097	0.733050
	C1995	C	0.754372	0.204571	0.670529
	C1996	C	0.504527	0.169978	0.733071
	C1997	C	0.754588	0.232510	0.670534
	C1998	C	0.504631	0.204602	0.641919
	C1999	C	0.754378	0.142100	0.704410
	H2000	H	0.663027	0.242402	0.632161
	H2001	H	0.912741	0.179816	0.694545
	H2002	H	0.663286	0.132116	0.742719
	H2003	H	0.912933	0.194564	0.680107
	H2004	H	0.845640	0.179887	0.742847
	H2005	H	0.595553	0.242390	0.680320
	H2006	H	0.845566	0.194677	0.632177
	H2007	H	0.595311	0.132243	0.694573
	H2008	H	0.845622	0.132241	0.742864
	H2009	H	0.595708	0.194763	0.680412
	H2010	H	0.845635	0.242432	0.632143
	H2011	H	0.595381	0.180028	0.694838
	H2012	H	0.663332	0.194653	0.632216
	H2013	H	0.913090	0.132089	0.694834
	H2014	H	0.663278	0.179942	0.742793
	H2015	H	0.913389	0.242442	0.680275
	O2016	O	0.088461	0.228973	0.770301
	O2017	O	0.338682	0.166543	0.832877
	O2018	O	0.088491	0.145608	0.854664
	O2019	O	0.338663	0.208120	0.792191
	O2020	O	0.420608	0.166475	0.854728
	O2021	O	0.170612	0.228988	0.792143
	O2022	O	0.420326	0.208089	0.770331
	O2023	O	0.170576	0.145592	0.832831
	O2024	O	0.420402	0.145609	0.854674
	O2025	O	0.170516	0.208072	0.792137
	O2026	O	0.420540	0.228969	0.770308
	O2027	O	0.170559	0.166455	0.832737
	O2028	O	0.088583	0.208112	0.770304
	O2029	O	0.338677	0.145632	0.832791
	O2030	O	0.088753	0.166543	0.854611
	O2031	O	0.338722	0.229011	0.792139
	F2032	F	0.004687	0.156043	0.836206
	F2033	F	0.254680	0.218525	0.773750
	F2034	F	0.004814	0.218559	0.788764
	F2035	F	0.254502	0.156046	0.851252
	Al2036	Al	0.129591	0.156063	0.843731
	Al2037	Al	0.379629	0.218530	0.781235
	Al2038	Al	0.129726	0.218552	0.781227
	Al2039	Al	0.379491	0.156050	0.843750
	C2040	C	0.093683	0.245599	0.753993
	C2041	C	0.344123	0.183228	0.816636
	C2042	C	0.093784	0.128962	0.870952
	C2043	C	0.344157	0.191517	0.808543
	C2044	C	0.415246	0.183068	0.871050
	C2045	C	0.165111	0.245611	0.808503
	C2046	C	0.415040	0.191445	0.754033
	C2047	C	0.165412	0.128920	0.816604
	C2048	C	0.415264	0.128951	0.870925
	C2049	C	0.165272	0.191386	0.808348
	C2050	C	0.415191	0.245668	0.754096
	C2051	C	0.165240	0.183082	0.816449
	C2052	C	0.093786	0.191446	0.754044
	C2053	C	0.344179	0.128996	0.816484
	C2054	C	0.093781	0.183183	0.870904
	C2055	C	0.344152	0.245662	0.808417
	C2056	C	0.004273	0.241385	0.758191
	C2057	C	0.254732	0.178914	0.820684
	C2058	C	0.004347	0.133197	0.866792
	C2059	C	0.254696	0.195699	0.804310
	C2060	C	0.004336	0.178874	0.866831
	C2061	C	0.254635	0.241389	0.804315
	C2062	C	0.004376	0.195692	0.758191
	C2063	C	0.254763	0.133189	0.820703
	C2064	C	0.004285	0.232469	0.766919
	C2065	C	0.254655	0.170004	0.829415
	C2066	C	0.004412	0.142097	0.858038
	C2067	C	0.254620	0.204593	0.795557
	C2068	C	0.004579	0.169986	0.858054
	C2069	C	0.254643	0.232495	0.795551
	C2070	C	0.004407	0.204599	0.766924
	C2071	C	0.254639	0.142103	0.829423
	H2072	H	0.162956	0.242338	0.757089
	H2073	H	0.413433	0.180060	0.819856
	H2074	H	0.163072	0.132205	0.867812
	H2075	H	0.413491	0.194796	0.805481
	H2076	H	0.345902	0.179778	0.867975
	H2077	H	0.095730	0.242357	0.805395
	H2078	H	0.345814	0.194671	0.757179
	H2079	H	0.096221	0.132138	0.819790
	H2080	H	0.345957	0.132159	0.867775
	H2081	H	0.096021	0.194577	0.805103
	H2082	H	0.345863	0.242460	0.757278
	H2083	H	0.096012	0.179783	0.819523
	H2084	H	0.163114	0.194685	0.757164
	H2085	H	0.413368	0.132277	0.819570
	H2086	H	0.163287	0.180014	0.867688
	H2087	H	0.413588	0.242468	0.805238
	O2088	O	0.588757	0.228973	0.770318
	O2089	O	0.838528	0.166533	0.832856
	O2090	O	0.588607	0.145602	0.854671
	O2091	O	0.838395	0.208111	0.792227
	O2092	O	0.920646	0.166438	0.854685
	O2093	O	0.670232	0.228970	0.792180
	O2094	O	0.920386	0.208097	0.770331
	O2095	O	0.670088	0.145594	0.832814
	O2096	O	0.920315	0.145596	0.854659
	O2097	O	0.670283	0.208052	0.792119
	O2098	O	0.920279	0.228960	0.770315
	O2099	O	0.670349	0.166476	0.832779
	O2100	O	0.588499	0.208114	0.770285
	O2101	O	0.838184	0.145614	0.832784
	O2102	O	0.588820	0.166523	0.854630
	O2103	O	0.838514	0.229003	0.792173
	F2104	F	0.504465	0.156045	0.836272
	F2105	F	0.754679	0.218546	0.773774
	F2106	F	0.504612	0.218523	0.788744
	F2107	F	0.754632	0.156028	0.851202
	Al2108	Al	0.629532	0.156045	0.843734
	Al2109	Al	0.879811	0.218543	0.781279
	Al2110	Al	0.629622	0.218527	0.781240
	Al2111	Al	0.879804	0.156041	0.843714
	C2112	C	0.594239	0.245612	0.754003
	C2113	C	0.843911	0.183194	0.816642
	C2114	C	0.594117	0.128960	0.870927
	C2115	C	0.843833	0.191480	0.808547
	C2116	C	0.914789	0.183077	0.871052
	C2117	C	0.664810	0.245587	0.808516
	C2118	C	0.914902	0.191431	0.754074
	C2119	C	0.664897	0.128900	0.816594
	C2120	C	0.914887	0.128952	0.870943
	C2121	C	0.664818	0.191384	0.808362
	C2122	C	0.914802	0.245672	0.754101
	C2123	C	0.664843	0.183087	0.816464
	C2124	C	0.593816	0.191461	0.754033
	C2125	C	0.843766	0.128979	0.816494
	C2126	C	0.594322	0.183205	0.870879
	C2127	C	0.843721	0.245676	0.808410
	C2128	C	0.504714	0.241388	0.758174
	C2129	C	0.754375	0.178884	0.820656
	C2130	C	0.504596	0.133216	0.866804
	C2131	C	0.754340	0.195663	0.804298
	C2132	C	0.504833	0.178881	0.866828
	C2133	C	0.754293	0.241408	0.804295
	C2134	C	0.504382	0.195699	0.758181
	C2135	C	0.754278	0.133189	0.820670
	C2136	C	0.504672	0.232466	0.766907
	C2137	C	0.754412	0.170012	0.829437
	C2138	C	0.504482	0.142106	0.858063
	C2139	C	0.754327	0.204555	0.795533
	C2140	C	0.504764	0.169983	0.858096
	C2141	C	0.754331	0.232493	0.795563
	C2142	C	0.504392	0.204596	0.766925
	C2143	C	0.754141	0.142094	0.829415
	H2144	H	0.663578	0.242350	0.757109
	H2145	H	0.913319	0.180034	0.819894
	H2146	H	0.663453	0.132186	0.867774
	H2147	H	0.913261	0.194757	0.805479
	H2148	H	0.845427	0.179806	0.867953
	H2149	H	0.595528	0.242316	0.805429
	H2150	H	0.845586	0.194655	0.757217
	H2151	H	0.595658	0.132095	0.819801
	H2152	H	0.845579	0.132184	0.867797
	H2153	H	0.595581	0.194586	0.805135
	H2154	H	0.845517	0.242462	0.757295
	H2155	H	0.595579	0.179826	0.819580
	H2156	H	0.663028	0.194700	0.757169
	H2157	H	0.913016	0.132247	0.819610
	H2158	H	0.663770	0.180033	0.867660
	H2159	H	0.913091	0.242481	0.805234
	O2160	O	0.088410	0.229031	0.895435
	O2161	O	0.338697	0.166511	0.957923
	O2162	O	0.088511	0.145613	0.979672
	O2163	O	0.338710	0.208120	0.917216
	O2164	O	0.420684	0.166435	0.979736
	O2165	O	0.170752	0.228927	0.917233
	O2166	O	0.420277	0.208058	0.895342
	O2167	O	0.170426	0.145611	0.957815
	O2168	O	0.420611	0.145566	0.979690
	O2169	O	0.170613	0.208029	0.917121
	O2170	O	0.420586	0.228960	0.895274
	O2171	O	0.170541	0.166454	0.957782
	O2172	O	0.088503	0.208108	0.895283
	O2173	O	0.338568	0.145571	0.957892
	O2174	O	0.088872	0.166533	0.979611
	O2175	O	0.338749	0.229043	0.917091
	F2176	F	0.004483	0.156057	0.961252
	F2177	F	0.254527	0.218525	0.898752
	F2178	F	0.004756	0.218498	0.913796
	F2179	F	0.254469	0.156033	0.976266
	Al2180	Al	0.129489	0.156042	0.968739
	Al2181	Al	0.379561	0.218538	0.906244
	Al2182	Al	0.129605	0.218520	0.906258
	Al2183	Al	0.379474	0.156024	0.968803
	C2184	C	0.093698	0.245693	0.879161
	C2185	C	0.344120	0.183177	0.941648
	C2186	C	0.093812	0.129008	0.996038
	C2187	C	0.344053	0.191479	0.933556
	C2188	C	0.415391	0.183011	0.996135
	C2189	C	0.165335	0.245534	0.933558
	C2190	C	0.415146	0.191370	0.879151
	C2191	C	0.165098	0.128951	0.941551
	C2192	C	0.415422	0.128832	0.995820
	C2193	C	0.165292	0.191383	0.933422
	C2194	C	0.415149	0.245582	0.878951
	C2195	C	0.165359	0.183086	0.941510
	C2196	C	0.093772	0.191481	0.879017
	C2197	C	0.344033	0.128937	0.941583
	C2198	C	0.093966	0.183248	0.995796
	C2199	C	0.344235	0.245678	0.933360
	C2200	C	0.004333	0.241370	0.883215
	C2201	C	0.254719	0.178898	0.945738
	C2202	C	0.004479	0.133181	0.991782
	C2203	C	0.254645	0.195675	0.929337
	C2204	C	0.004658	0.178870	0.991845
	C2205	C	0.254791	0.241341	0.929316
	C2206	C	0.004213	0.195679	0.883219
	C2207	C	0.254550	0.133175	0.945724
	C2208	C	0.004371	0.232477	0.891975
	C2209	C	0.254686	0.169991	0.954466
	C2210	C	0.004450	0.142103	0.983069
	C2211	C	0.254688	0.204576	0.920578
	C2212	C	0.004787	0.169969	0.983085
	C2213	C	0.254708	0.232491	0.920547
	C2214	C	0.004380	0.204583	0.891955
	C2215	C	0.254496	0.142081	0.954471
	H2216	H	0.163001	0.242521	0.882381
	H2217	H	0.413386	0.179969	0.944858
	H2218	H	0.163038	0.132297	0.992976
	H2219	H	0.413169	0.194774	0.930457
	H2220	H	0.346182	0.179687	0.993125
	H2221	H	0.096004	0.242261	0.930482
	H2222	H	0.345761	0.194558	0.882357
	H2223	H	0.095795	0.132199	0.944680
	H2224	H	0.346124	0.131995	0.992548
	H2225	H	0.096033	0.194559	0.930243
	H2226	H	0.345904	0.242292	0.882022
	H2227	H	0.096062	0.179821	0.944577
	H2228	H	0.163200	0.194753	0.882105
	H2229	H	0.413297	0.132174	0.944735
	H2230	H	0.163240	0.180124	0.992492
	H2231	H	0.413721	0.242531	0.930118
	O2232	O	0.588705	0.229013	0.895371
	O2233	O	0.838614	0.166532	0.957907
	O2234	O	0.588812	0.145584	0.979692
	O2235	O	0.838411	0.208077	0.917197
	O2236	O	0.920773	0.166404	0.979804
	O2237	O	0.670540	0.228976	0.917192
	O2238	O	0.920389	0.208061	0.895389
	O2239	O	0.670206	0.145588	0.957836
	O2240	O	0.920374	0.145590	0.979688
	O2241	O	0.670312	0.208044	0.917140
	O2242	O	0.920383	0.228905	0.895258
	O2243	O	0.670558	0.166451	0.957794
	O2244	O	0.588462	0.208110	0.895318
	O2245	O	0.838357	0.145600	0.957843
	O2246	O	0.588837	0.166528	0.979634
	O2247	O	0.838619	0.229014	0.917140
	F2248	F	0.504387	0.156038	0.961294
	F2249	F	0.754630	0.218513	0.898785
	F2250	F	0.504555	0.218562	0.913745
	F2251	F	0.754474	0.156023	0.976247
	Al2252	Al	0.629521	0.156026	0.968743
	Al2253	Al	0.879847	0.218520	0.906285
	Al2254	Al	0.629588	0.218547	0.906259
	Al2255	Al	0.879666	0.156032	0.968761
	C2256	C	0.593930	0.245719	0.879154
	C2257	C	0.844051	0.183184	0.941610
	C2258	C	0.594295	0.128981	0.996074
	C2259	C	0.844000	0.191462	0.933492
	C2260	C	0.915241	0.183023	0.996135
	C2261	C	0.664964	0.245527	0.933592
	C2262	C	0.914693	0.191371	0.879165
	C2263	C	0.665061	0.128952	0.941564
	C2264	C	0.914970	0.128865	0.995816
	C2265	C	0.665018	0.191360	0.933376
	C2266	C	0.914919	0.245554	0.878954
	C2267	C	0.665096	0.183080	0.941488
	C2268	C	0.594198	0.191505	0.878987
	C2269	C	0.844016	0.128935	0.941585
	C2270	C	0.594079	0.183219	0.995826
	C2271	C	0.843932	0.245705	0.933359
	C2272	C	0.504548	0.241389	0.883205
	C2273	C	0.754589	0.178894	0.945697
	C2274	C	0.504794	0.133174	0.991831
	C2275	C	0.754472	0.195655	0.929303
	C2276	C	0.504712	0.178884	0.991812
	C2277	C	0.754507	0.241355	0.929336
	C2278	C	0.504653	0.195669	0.883220
	C2279	C	0.754524	0.133167	0.945739
	C2280	C	0.504652	0.232498	0.891937
	C2281	C	0.754558	0.169989	0.954437
	C2282	C	0.504754	0.142065	0.983072
	C2283	C	0.754372	0.204565	0.920573
	C2284	C	0.504717	0.169980	0.983082
	C2285	C	0.754576	0.232490	0.920567
	C2286	C	0.504444	0.204585	0.891935
	C2287	C	0.754325	0.142071	0.954477
	H2288	H	0.663341	0.242558	0.882374
	H2289	H	0.913277	0.179982	0.944824
	H2290	H	0.663598	0.132273	0.993006
	H2291	H	0.913118	0.194744	0.930379
	H2292	H	0.845986	0.179714	0.993113
	H2293	H	0.595625	0.242248	0.930515
	H2294	H	0.845312	0.194549	0.882384
	H2295	H	0.595763	0.132198	0.944697
	H2296	H	0.845725	0.132037	0.992568
	H2297	H	0.595604	0.194545	0.930178
	H2298	H	0.845499	0.242273	0.881992
	H2299	H	0.595773	0.179824	0.944573
	H2300	H	0.663484	0.194804	0.882061
	H2301	H	0.913238	0.132178	0.944736
	H2302	H	0.663290	0.180062	0.992556
	H2303	H	0.913376	0.242575	0.930081
	O2304	O	0.088502	0.353991	0.020363
	O2305	O	0.338687	0.291458	0.082863
	O2306	O	0.088920	0.270541	0.104651
	O2307	O	0.338627	0.333069	0.042194
	O2308	O	0.420612	0.291467	0.104722
	O2309	O	0.170503	0.353966	0.042204
	O2310	O	0.420353	0.333069	0.020347
	O2311	O	0.170728	0.270589	0.082832
	O2312	O	0.420554	0.270578	0.104701
	O2313	O	0.170477	0.333080	0.042216
	O2314	O	0.420434	0.353948	0.020304
	O2315	O	0.170584	0.291481	0.082868
	O2316	O	0.088477	0.333059	0.020398
	O2317	O	0.338844	0.270561	0.082877
	O2318	O	0.088470	0.291456	0.104692
	O2319	O	0.338632	0.353998	0.042132
	F2320	F	0.004530	0.281020	0.086250
	F2321	F	0.254527	0.343519	0.023783
	F2322	F	0.004788	0.343525	0.038810
	F2323	F	0.254482	0.281043	0.101278
	Al2324	Al	0.129588	0.281021	0.093755
	Al2325	Al	0.379533	0.343516	0.031264
	Al2326	Al	0.129669	0.343523	0.031286
	Al2327	Al	0.379518	0.281022	0.093791
	C2328	C	0.093938	0.370623	0.004053
	C2329	C	0.344178	0.308109	0.066538
	C2330	C	0.093755	0.253867	0.120911
	C2331	C	0.344075	0.316401	0.058433
	C2332	C	0.415330	0.308114	0.120993
	C2333	C	0.165420	0.370618	0.058492
	C2334	C	0.414953	0.316412	0.004053
	C2335	C	0.165292	0.253906	0.066622
	C2336	C	0.415274	0.253953	0.121041
	C2337	C	0.165206	0.316433	0.058498
	C2338	C	0.415218	0.370680	0.004146
	C2339	C	0.165314	0.308139	0.066606
	C2340	C	0.093867	0.316420	0.004112
	C2341	C	0.344226	0.253899	0.066593
	C2342	C	0.093889	0.308129	0.120974
	C2343	C	0.344013	0.370655	0.058454
	C2344	C	0.004394	0.366400	0.008230
	C2345	C	0.254780	0.303877	0.070718
	C2346	C	0.004519	0.258156	0.116817
	C2347	C	0.254619	0.320665	0.054331
	C2348	C	0.004459	0.303877	0.116828
	C2349	C	0.254733	0.366384	0.054331
	C2350	C	0.004284	0.320693	0.008211
	C2351	C	0.254807	0.258142	0.070756
	C2352	C	0.004425	0.357469	0.016953
	C2353	C	0.254689	0.294977	0.079465
	C2354	C	0.004793	0.267062	0.108101
	C2355	C	0.254550	0.329569	0.045594
	C2356	C	0.004398	0.294975	0.108085
	C2357	C	0.254595	0.357480	0.045574
	C2358	C	0.004382	0.329586	0.016979
	C2359	C	0.254790	0.267066	0.079465
	H2360	H	0.163368	0.367360	0.007156
	H2361	H	0.413654	0.304872	0.069653
	H2362	H	0.163007	0.257070	0.117737
	H2363	H	0.413433	0.319605	0.055258
	H2364	H	0.345957	0.304877	0.117856
	H2365	H	0.096074	0.367393	0.055355
	H2366	H	0.345548	0.319628	0.007205
	H2367	H	0.095916	0.257139	0.069753
	H2368	H	0.345882	0.257206	0.117964
	H2369	H	0.095961	0.319669	0.055382
	H2370	H	0.345835	0.367483	0.007333
	H2371	H	0.096155	0.304912	0.069788
	H2372	H	0.163289	0.319633	0.007299
	H2373	H	0.413613	0.257129	0.069710
	H2374	H	0.163229	0.304895	0.117843
	H2375	H	0.413260	0.367459	0.055276
	O2376	O	0.588662	0.353977	0.020356
	O2377	O	0.838385	0.291471	0.082866
	O2378	O	0.588694	0.270578	0.104709
	O2379	O	0.838502	0.333063	0.042210
	O2380	O	0.920263	0.291470	0.104688
	O2381	O	0.670171	0.353967	0.042211
	O2382	O	0.920379	0.333107	0.020346
	O2383	O	0.670272	0.270585	0.082834
	O2384	O	0.920770	0.270615	0.104769
	O2385	O	0.670398	0.333069	0.042195
	O2386	O	0.920410	0.353972	0.020352
	O2387	O	0.670299	0.291449	0.082832
	O2388	O	0.588569	0.333072	0.020336
	O2389	O	0.838407	0.270524	0.082902
	O2390	O	0.588842	0.291473	0.104699
	O2391	O	0.838360	0.353984	0.042210
	F2392	F	0.504585	0.281024	0.086311
	F2393	F	0.754672	0.343538	0.023797
	F2394	F	0.504431	0.343532	0.038749
	F2395	F	0.754664	0.281005	0.101236
	Al2396	Al	0.629520	0.281026	0.093784
	Al2397	Al	0.879818	0.343532	0.031302
	Al2398	Al	0.629541	0.343527	0.031265
	Al2399	Al	0.879789	0.281005	0.093775
	C2400	C	0.594203	0.370624	0.004058
	C2401	C	0.843856	0.308099	0.066550
	C2402	C	0.594039	0.253847	0.120881
	C2403	C	0.843899	0.316396	0.058454
	C2404	C	0.914954	0.308107	0.121007
	C2405	C	0.664775	0.370622	0.058478
	C2406	C	0.914802	0.316421	0.004062
	C2407	C	0.664931	0.253908	0.066607
	C2408	C	0.915112	0.253963	0.121038
	C2409	C	0.664842	0.316441	0.058501
	C2410	C	0.914869	0.370688	0.004115
	C2411	C	0.664910	0.308145	0.066601
	C2412	C	0.593983	0.316402	0.004099
	C2413	C	0.843842	0.253928	0.066592
	C2414	C	0.594329	0.308156	0.120923
	C2415	C	0.843658	0.370657	0.058436
	C2416	C	0.504647	0.366394	0.008232
	C2417	C	0.754365	0.303871	0.070704
	C2418	C	0.504736	0.258158	0.116820
	C2419	C	0.754377	0.320667	0.054343
	C2420	C	0.504815	0.303871	0.116852
	C2421	C	0.754214	0.366400	0.054305
	C2422	C	0.504419	0.320667	0.008210
	C2423	C	0.754352	0.258167	0.070718
	C2424	C	0.504562	0.357479	0.016965
	C2425	C	0.754341	0.294982	0.079474
	C2426	C	0.504637	0.267078	0.108099
	C2427	C	0.754396	0.329550	0.045575
	C2428	C	0.504756	0.294966	0.108107
	C2429	C	0.754229	0.357493	0.045578
	C2430	C	0.504430	0.329565	0.016956
	C2431	C	0.754307	0.267068	0.079450
	H2432	H	0.663519	0.367375	0.007186
	H2433	H	0.913237	0.304873	0.069666
	H2434	H	0.663391	0.257016	0.117678
	H2435	H	0.913250	0.319599	0.055272
	H2436	H	0.845554	0.304854	0.117895
	H2437	H	0.595387	0.367379	0.055367
	H2438	H	0.845339	0.319639	0.007213
	H2439	H	0.595673	0.257110	0.069785
	H2440	H	0.845827	0.257244	0.117980
	H2441	H	0.595721	0.319693	0.055355
	H2442	H	0.845473	0.367469	0.007274
	H2443	H	0.595627	0.304928	0.069791
	H2444	H	0.663295	0.319619	0.007288
	H2445	H	0.913069	0.257140	0.069772
	H2446	H	0.663679	0.304949	0.117735
	H2447	H	0.913061	0.367440	0.055289
	O2448	O	0.088745	0.353965	0.145340
	O2449	O	0.338846	0.291474	0.207817
	O2450	O	0.088341	0.270589	0.229680
	O2451	O	0.338682	0.333066	0.167157
	O2452	O	0.420519	0.291473	0.229656
	O2453	O	0.170510	0.353944	0.167215
	O2454	O	0.420603	0.333095	0.145297
	O2455	O	0.170437	0.270549	0.207872
	O2456	O	0.420508	0.270559	0.229641
	O2457	O	0.170547	0.333102	0.167201
	O2458	O	0.420429	0.353953	0.145301
	O2459	O	0.170681	0.291494	0.207864
	O2460	O	0.088466	0.333113	0.145301
	O2461	O	0.338664	0.270587	0.207799
	O2462	O	0.088548	0.291521	0.229620
	O2463	O	0.338596	0.353979	0.167173
	F2464	F	0.004709	0.281029	0.211240
	F2465	F	0.254584	0.343513	0.148747
	F2466	F	0.004709	0.343508	0.163770
	F2467	F	0.254577	0.281013	0.226236
	Al2468	Al	0.129660	0.281027	0.218764
	Al2469	Al	0.379639	0.343521	0.156253
	Al2470	Al	0.129741	0.343522	0.156256
	Al2471	Al	0.379691	0.281029	0.218748
	C2472	C	0.094065	0.370678	0.129165
	C2473	C	0.344104	0.308107	0.191497
	C2474	C	0.093792	0.253981	0.246025
	C2475	C	0.343988	0.316403	0.183407
	C2476	C	0.415167	0.308116	0.245962
	C2477	C	0.164950	0.370636	0.183437
	C2478	C	0.415373	0.316414	0.129085
	C2479	C	0.165093	0.253933	0.191552
	C2480	C	0.414945	0.253878	0.245883
	C2481	C	0.165117	0.316496	0.183556
	C2482	C	0.414992	0.370578	0.129001
	C2483	C	0.165226	0.308194	0.191648
	C2484	C	0.093890	0.316448	0.129054
	C2485	C	0.344157	0.253901	0.191576
	C2486	C	0.093721	0.308139	0.245933
	C2487	C	0.344012	0.370629	0.183438
	C2488	C	0.004609	0.366376	0.133243
	C2489	C	0.254702	0.303891	0.195692
	C2490	C	0.004324	0.258182	0.241816
	C2491	C	0.254519	0.320679	0.179318
	C2492	C	0.004302	0.303878	0.241799
	C2493	C	0.254466	0.366389	0.179267
	C2494	C	0.004419	0.320698	0.133191
	C2495	C	0.254660	0.258179	0.195678
	C2496	C	0.004675	0.357451	0.141942
	C2497	C	0.254746	0.294989	0.204451
	C2498	C	0.004333	0.267094	0.233068
	C2499	C	0.254580	0.329573	0.170566
	C2500	C	0.004438	0.294994	0.233023
	C2501	C	0.254518	0.357473	0.170575
	C2502	C	0.004363	0.329607	0.141910
	C2503	C	0.254555	0.267052	0.204462
	H2504	H	0.163531	0.367490	0.132354
	H2505	H	0.413451	0.304853	0.194580
	H2506	H	0.163125	0.257251	0.242939
	H2507	H	0.413196	0.319598	0.180193
	H2508	H	0.345873	0.304878	0.242823
	H2509	H	0.095460	0.367401	0.180345
	H2510	H	0.346047	0.319630	0.132241
	H2511	H	0.095761	0.257151	0.194720
	H2512	H	0.345541	0.257064	0.242686
	H2513	H	0.095728	0.319773	0.180473
	H2514	H	0.345660	0.367290	0.132064
	H2515	H	0.095932	0.304999	0.194874
	H2516	H	0.163217	0.319690	0.132177
	H2517	H	0.413589	0.257092	0.194769
	H2518	H	0.163100	0.304930	0.242757
	H2519	H	0.413462	0.367388	0.180331
	O2520	O	0.588528	0.353965	0.145326
	O2521	O	0.838298	0.291471	0.207811
	O2522	O	0.588664	0.270589	0.229709
	O2523	O	0.838428	0.333052	0.167172
	O2524	O	0.920445	0.291468	0.229651
	O2525	O	0.670353	0.353990	0.167131
	O2526	O	0.920286	0.333086	0.145329
	O2527	O	0.670326	0.270601	0.207801
	O2528	O	0.920206	0.270578	0.229672
	O2529	O	0.670328	0.333073	0.167170
	O2530	O	0.920645	0.353914	0.145277
	O2531	O	0.670140	0.291496	0.207856
	O2532	O	0.588753	0.333084	0.145322
	O2533	O	0.838412	0.270573	0.207820
	O2534	O	0.588674	0.291475	0.229699
	O2535	O	0.838466	0.353990	0.167186
	F2536	F	0.504570	0.281033	0.211247
	F2537	F	0.754712	0.343506	0.148786
	F2538	F	0.504657	0.343527	0.163743
	F2539	F	0.754628	0.281034	0.226227
	Al2540	Al	0.629522	0.281033	0.218754
	Al2541	Al	0.879820	0.343520	0.156300
	Al2542	Al	0.629641	0.343521	0.156224
	Al2543	Al	0.879721	0.281028	0.218724
	C2544	C	0.593887	0.370684	0.129152
	C2545	C	0.843746	0.308065	0.191464
	C2546	C	0.593980	0.253977	0.246031
	C2547	C	0.843704	0.316355	0.183365
	C2548	C	0.914945	0.308130	0.245957
	C2549	C	0.664968	0.370629	0.183441
	C2550	C	0.914931	0.316427	0.129092
	C2551	C	0.664912	0.253913	0.191568
	C2552	C	0.914880	0.253862	0.245857
	C2553	C	0.664799	0.316483	0.183572
	C2554	C	0.915091	0.370564	0.129006
	C2555	C	0.664768	0.308189	0.191672
	C2556	C	0.594273	0.316460	0.129015
	C2557	C	0.843885	0.253921	0.191586
	C2558	C	0.593965	0.308127	0.245940
	C2559	C	0.843808	0.370629	0.183442
	C2560	C	0.504502	0.366379	0.133238
	C2561	C	0.754259	0.303893	0.195715
	C2562	C	0.504456	0.258173	0.241809
	C2563	C	0.754211	0.320658	0.179325
	C2564	C	0.504572	0.303874	0.241799
	C2565	C	0.754373	0.366368	0.179308
	C2566	C	0.504806	0.320672	0.133205
	C2567	C	0.754371	0.258163	0.195712
	C2568	C	0.504484	0.357473	0.141947
	C2569	C	0.754211	0.294975	0.204426
	C2570	C	0.504555	0.267070	0.233068
	C2571	C	0.754315	0.329561	0.170576
	C2572	C	0.504548	0.294983	0.233060
	C2573	C	0.754340	0.357482	0.170570
	C2574	C	0.504704	0.329580	0.141929
	C2575	C	0.754340	0.267075	0.204428
	H2576	H	0.663307	0.367502	0.132341
	H2577	H	0.913114	0.304769	0.194516
	H2578	H	0.663370	0.257258	0.242953
	H2579	H	0.913011	0.319530	0.180136
	H2580	H	0.845650	0.304916	0.242801
	H2581	H	0.595685	0.367416	0.180284
	H2582	H	0.845518	0.319640	0.132247
	H2583	H	0.595602	0.257136	0.194707
	H2584	H	0.845532	0.257034	0.242625
	H2585	H	0.595581	0.319772	0.180513
	H2586	H	0.845770	0.367281	0.132064
	H2587	H	0.595495	0.304995	0.194909
	H2588	H	0.663606	0.319721	0.132119
	H2589	H	0.913281	0.257141	0.194736
	H2590	H	0.663238	0.304905	0.242789
	H2591	H	0.913219	0.367423	0.180289
	O2592	O	0.088516	0.353984	0.270313
	O2593	O	0.338664	0.291492	0.332869
	O2594	O	0.088694	0.270595	0.354663
	O2595	O	0.338555	0.333104	0.292228
	O2596	O	0.420582	0.291454	0.354695
	O2597	O	0.170675	0.353961	0.292167
	O2598	O	0.420379	0.333052	0.270377
	O2599	O	0.170502	0.270571	0.332825
	O2600	O	0.420512	0.270567	0.354674
	O2601	O	0.170394	0.333056	0.292141
	O2602	O	0.420476	0.353956	0.270320
	O2603	O	0.170546	0.291472	0.332808
	O2604	O	0.088531	0.333088	0.270306
	O2605	O	0.338561	0.270600	0.332805
	O2606	O	0.088592	0.291462	0.354668
	O2607	O	0.338774	0.353968	0.292170
	F2608	F	0.004747	0.281031	0.336208
	F2609	F	0.254648	0.343540	0.273764
	F2610	F	0.004876	0.343552	0.288766
	F2611	F	0.254649	0.281022	0.351233
	Al2612	Al	0.129648	0.281036	0.343734
	Al2613	Al	0.379640	0.343514	0.281258
	Al2614	Al	0.129614	0.343524	0.281234
	Al2615	Al	0.379486	0.281022	0.343749
	C2616	C	0.093807	0.370607	0.254024
	C2617	C	0.344040	0.308105	0.316520
	C2618	C	0.093980	0.253881	0.370847
	C2619	C	0.343928	0.316410	0.308418
	C2620	C	0.415039	0.308098	0.370954
	C2621	C	0.165116	0.370587	0.308472
	C2622	C	0.415096	0.316423	0.254063
	C2623	C	0.165147	0.253905	0.316554
	C2624	C	0.415204	0.253984	0.371012
	C2625	C	0.164987	0.316414	0.308441
	C2626	C	0.414996	0.370653	0.254079
	C2627	C	0.165088	0.308122	0.316530
	C2628	C	0.093769	0.316435	0.254049
	C2629	C	0.343974	0.253925	0.316584
	C2630	C	0.093892	0.308135	0.370954
	C2631	C	0.344003	0.370704	0.308345
	C2632	C	0.004273	0.366383	0.258193
	C2633	C	0.254522	0.303866	0.320663
	C2634	C	0.004557	0.258180	0.366770
	C2635	C	0.254424	0.320655	0.304283
	C2636	C	0.004447	0.303873	0.366793
	C2637	C	0.254613	0.366374	0.304295
	C2638	C	0.004372	0.320672	0.258213
	C2639	C	0.254523	0.258182	0.320670
	C2640	C	0.004405	0.357496	0.266950
	C2641	C	0.254627	0.294980	0.329434
	C2642	C	0.004608	0.267094	0.358034
	C2643	C	0.254458	0.329555	0.295541
	C2644	C	0.004529	0.294991	0.358031
	C2645	C	0.254709	0.357468	0.295561
	C2646	C	0.004514	0.329593	0.266926
	C2647	C	0.254582	0.267077	0.329427
	H2648	H	0.163216	0.367375	0.257150
	H2649	H	0.413274	0.304853	0.319686
	H2650	H	0.163383	0.257078	0.367664
	H2651	H	0.413051	0.319667	0.305235
	H2652	H	0.345728	0.304860	0.367816
	H2653	H	0.095826	0.367321	0.305364
	H2654	H	0.345841	0.319650	0.257220
	H2655	H	0.095854	0.257125	0.319719
	H2656	H	0.345927	0.257253	0.367928
	H2657	H	0.095554	0.319624	0.305319
	H2658	H	0.345629	0.367456	0.257268
	H2659	H	0.095592	0.304927	0.319659
	H2660	H	0.163077	0.319684	0.257177
	H2661	H	0.413241	0.257147	0.319766
	H2662	H	0.163289	0.304912	0.367814
	H2663	H	0.413389	0.367526	0.305133
	O2664	O	0.588630	0.353976	0.270315
	O2665	O	0.838458	0.291502	0.332829
	O2666	O	0.588706	0.270587	0.354663
	O2667	O	0.838526	0.333097	0.292222
	O2668	O	0.920545	0.291495	0.354628
	O2669	O	0.670375	0.353954	0.292191
	O2670	O	0.920475	0.333103	0.270314
	O2671	O	0.670468	0.270552	0.332876
	O2672	O	0.920626	0.270592	0.354651
	O2673	O	0.670413	0.333064	0.292164
	O2674	O	0.920329	0.353982	0.270329
	O2675	O	0.670344	0.291490	0.332836
	O2676	O	0.588526	0.333099	0.270283
	O2677	O	0.838491	0.270582	0.332790
	O2678	O	0.588713	0.291495	0.354589
	O2679	O	0.838517	0.353981	0.292194
	F2680	F	0.504504	0.281010	0.336246
	F2681	F	0.754709	0.343533	0.273763
	F2682	F	0.504533	0.343501	0.288743
	F2683	F	0.754651	0.281010	0.351209
	Al2684	Al	0.629633	0.281017	0.343729
	Al2685	Al	0.879830	0.343538	0.281291
	Al2686	Al	0.629596	0.343519	0.281235
	Al2687	Al	0.879868	0.281045	0.343698
	C2688	C	0.593920	0.370615	0.254019
	C2689	C	0.843678	0.308120	0.316536
	C2690	C	0.594154	0.253884	0.370862
	C2691	C	0.843792	0.316426	0.308430
	C2692	C	0.914849	0.308107	0.370958
	C2693	C	0.664830	0.370585	0.308485
	C2694	C	0.914976	0.316430	0.254074
	C2695	C	0.664697	0.253906	0.316602
	C2696	C	0.915020	0.253970	0.370962
	C2697	C	0.664843	0.316411	0.308447
	C2698	C	0.914881	0.370666	0.254080
	C2699	C	0.664707	0.308124	0.316529
	C2700	C	0.593908	0.316438	0.254040
	C2701	C	0.843643	0.253925	0.316519
	C2702	C	0.594049	0.308125	0.370921
	C2703	C	0.843863	0.370676	0.308344
	C2704	C	0.504476	0.366370	0.258178
	C2705	C	0.754182	0.303885	0.320687
	C2706	C	0.504679	0.258180	0.366799
	C2707	C	0.754307	0.320661	0.304299
	C2708	C	0.504589	0.303860	0.366779
	C2709	C	0.754369	0.366377	0.304271
	C2710	C	0.504509	0.320675	0.258192
	C2711	C	0.754171	0.258148	0.320715
	C2712	C	0.504506	0.357482	0.266940
	C2713	C	0.754345	0.294992	0.329430
	C2714	C	0.504670	0.267089	0.358076
	C2715	C	0.754452	0.329569	0.295575
	C2716	C	0.504693	0.294983	0.358020
	C2717	C	0.754404	0.357478	0.295567
	C2718	C	0.504415	0.329573	0.266942
	C2719	C	0.754411	0.267064	0.329433
	H2720	H	0.663297	0.367383	0.257161
	H2721	H	0.912847	0.304869	0.319689
	H2722	H	0.663488	0.257068	0.367642
	H2723	H	0.912943	0.319666	0.305266
	H2724	H	0.845482	0.304872	0.367816
	H2725	H	0.595470	0.367311	0.305399
	H2726	H	0.845695	0.319669	0.257214
	H2727	H	0.595438	0.257128	0.319766
	H2728	H	0.845733	0.257244	0.367873
	H2729	H	0.595287	0.319631	0.305308
	H2730	H	0.845498	0.367473	0.257269
	H2731	H	0.595183	0.304905	0.319646
	H2732	H	0.663161	0.319678	0.257182
	H2733	H	0.912856	0.257186	0.319662
	H2734	H	0.663502	0.304914	0.367763
	H2735	H	0.913313	0.367486	0.305163
	O2736	O	0.088803	0.354019	0.395349
	O2737	O	0.338742	0.291530	0.457867
	O2738	O	0.088679	0.270581	0.479634
	O2739	O	0.338671	0.333130	0.417191
	O2740	O	0.420571	0.291467	0.479668
	O2741	O	0.170709	0.353982	0.417153
	O2742	O	0.420460	0.333083	0.395292
	O2743	O	0.170534	0.270569	0.457809
	O2744	O	0.420477	0.270594	0.479642
	O2745	O	0.170476	0.333046	0.417077
	O2746	O	0.420520	0.353966	0.395252
	O2747	O	0.170606	0.291477	0.457768
	O2748	O	0.088325	0.333105	0.395287
	O2749	O	0.338628	0.270573	0.457806
	O2750	O	0.088729	0.291504	0.479624
	O2751	O	0.338731	0.354017	0.417116
	F2752	F	0.004635	0.281066	0.461202
	F2753	F	0.254500	0.343516	0.398718
	F2754	F	0.004753	0.343542	0.413735
	F2755	F	0.254516	0.281027	0.476219
	Al2756	Al	0.129673	0.281034	0.468691
	Al2757	Al	0.379656	0.343548	0.406205
	Al2758	Al	0.129641	0.343543	0.406224
	Al2759	Al	0.379572	0.281042	0.468751
	C2760	C	0.093920	0.370714	0.379103
	C2761	C	0.344056	0.308228	0.441646
	C2762	C	0.093826	0.253935	0.495922
	C2763	C	0.344020	0.316506	0.433516
	C2764	C	0.415317	0.308114	0.495969
	C2765	C	0.165132	0.370590	0.433479
	C2766	C	0.415080	0.316411	0.379056
	C2767	C	0.165244	0.253915	0.441529
	C2768	C	0.415208	0.253933	0.495913
	C2769	C	0.165104	0.316374	0.433328
	C2770	C	0.415216	0.370577	0.378941
	C2771	C	0.165120	0.308102	0.441453
	C2772	C	0.093763	0.316452	0.379041
	C2773	C	0.344084	0.253937	0.441523
	C2774	C	0.093971	0.308157	0.495930
	C2775	C	0.343908	0.370725	0.433291
	C2776	C	0.004503	0.366397	0.383181
	C2777	C	0.254575	0.303911	0.445683
	C2778	C	0.004473	0.258173	0.491771
	C2779	C	0.254590	0.320698	0.429299
	C2780	C	0.004560	0.303891	0.491789
	C2781	C	0.254561	0.366383	0.429246
	C2782	C	0.004217	0.320679	0.383184
	C2783	C	0.254655	0.258176	0.445656
	C2784	C	0.004665	0.357488	0.391906
	C2785	C	0.254689	0.295001	0.454417
	C2786	C	0.004493	0.267082	0.483023
	C2787	C	0.254599	0.329588	0.420534
	C2788	C	0.004588	0.295005	0.482998
	C2789	C	0.254707	0.357491	0.420539
	C2790	C	0.004170	0.329588	0.391909
	C2791	C	0.254580	0.267071	0.454407
	H2792	H	0.163313	0.367549	0.382319
	H2793	H	0.413364	0.305054	0.444891
	H2794	H	0.163157	0.257170	0.492782
	H2795	H	0.413289	0.319779	0.430413
	H2796	H	0.345988	0.304868	0.492859
	H2797	H	0.095843	0.367316	0.430398
	H2798	H	0.345856	0.319653	0.382217
	H2799	H	0.095986	0.257130	0.444699
	H2800	H	0.345919	0.257163	0.492779
	H2801	H	0.095842	0.319524	0.430072
	H2802	H	0.345932	0.367292	0.381995
	H2803	H	0.095697	0.304827	0.444515
	H2804	H	0.163016	0.319700	0.382181
	H2805	H	0.413243	0.257173	0.444679
	H2806	H	0.163324	0.304938	0.492764
	H2807	H	0.413256	0.367564	0.430047
	O2808	O	0.588664	0.353976	0.395308
	O2809	O	0.838368	0.291534	0.457848
	O2810	O	0.588669	0.270595	0.479658
	O2811	O	0.838434	0.333117	0.417206
	O2812	O	0.920668	0.291491	0.479644
	O2813	O	0.670393	0.353996	0.417114
	O2814	O	0.920152	0.333092	0.395296
	O2815	O	0.670221	0.270583	0.457821
	O2816	O	0.920588	0.270587	0.479642
	O2817	O	0.670280	0.333049	0.417102
	O2818	O	0.920749	0.353928	0.395253
	O2819	O	0.670192	0.291477	0.457807
	O2820	O	0.588646	0.333106	0.395292
	O2821	O	0.838292	0.270584	0.457821
	O2822	O	0.588715	0.291482	0.479632
	O2823	O	0.838539	0.354028	0.417109
	F2824	F	0.504520	0.281023	0.461237
	F2825	F	0.754740	0.343542	0.398749
	F2826	F	0.504600	0.343539	0.413707
	F2827	F	0.754701	0.281043	0.476218
	Al2828	Al	0.629613	0.281045	0.468739
	Al2829	Al	0.879852	0.343546	0.406244
	Al2830	Al	0.629583	0.343518	0.406217
	Al2831	Al	0.879822	0.281048	0.468704
	C2832	C	0.594012	0.370701	0.379149
	C2833	C	0.843655	0.308186	0.441617
	C2834	C	0.593979	0.253953	0.495919
	C2835	C	0.843700	0.316480	0.433511
	C2836	C	0.915039	0.308118	0.495967
	C2837	C	0.664899	0.370555	0.433529
	C2838	C	0.914747	0.316417	0.379056
	C2839	C	0.664801	0.253920	0.441560
	C2840	C	0.914880	0.253932	0.495935
	C2841	C	0.664844	0.316362	0.433326
	C2842	C	0.914963	0.370592	0.378957
	C2843	C	0.664792	0.308076	0.441429
	C2844	C	0.594105	0.316438	0.379027
	C2845	C	0.843769	0.253949	0.441523
	C2846	C	0.594123	0.308166	0.495885
	C2847	C	0.843519	0.370700	0.433315
	C2848	C	0.504599	0.366385	0.383189
	C2849	C	0.754145	0.303881	0.445663
	C2850	C	0.504582	0.258189	0.491772
	C2851	C	0.754293	0.320659	0.429260
	C2852	C	0.504732	0.303897	0.491770
	C2853	C	0.754251	0.366379	0.429247
	C2854	C	0.504592	0.320673	0.383174
	C2855	C	0.754259	0.258172	0.445691
	C2856	C	0.504649	0.357489	0.391914
	C2857	C	0.754210	0.294995	0.454425
	C2858	C	0.504560	0.267095	0.483037
	C2859	C	0.754364	0.329562	0.420524
	C2860	C	0.504685	0.295000	0.483005
	C2861	C	0.754409	0.357492	0.420517
	C2862	C	0.504583	0.329588	0.391903
	C2863	C	0.754249	0.267073	0.454432
	H2864	H	0.663280	0.367519	0.382372
	H2865	H	0.912962	0.304999	0.444855
	H2866	H	0.663222	0.257203	0.492796
	H2867	H	0.912892	0.319765	0.430430
	H2868	H	0.845807	0.304872	0.492831
	H2869	H	0.595641	0.367246	0.430486
	H2870	H	0.845370	0.319644	0.382192
	H2871	H	0.595510	0.257121	0.444749
	H2872	H	0.845662	0.257171	0.492790
	H2873	H	0.595489	0.319528	0.430103
	H2874	H	0.845497	0.367326	0.382039
	H2875	H	0.595395	0.304809	0.444484
	H2876	H	0.663411	0.319687	0.382163
	H2877	H	0.913096	0.257184	0.444673
	H2878	H	0.663488	0.304965	0.492706
	H2879	H	0.912901	0.367522	0.430104
	O2880	O	0.088544	0.353965	0.520290
	O2881	O	0.338661	0.291500	0.582778
	O2882	O	0.088558	0.270589	0.604607
	O2883	O	0.338644	0.333096	0.542164
	O2884	O	0.420505	0.291519	0.604636
	O2885	O	0.170583	0.353999	0.542142
	O2886	O	0.420642	0.333078	0.520321
	O2887	O	0.170551	0.270614	0.582813
	O2888	O	0.420551	0.270618	0.604630
	O2889	O	0.170465	0.333061	0.542114
	O2890	O	0.420437	0.353946	0.520266
	O2891	O	0.170513	0.291494	0.582794
	O2892	O	0.088536	0.333115	0.520292
	O2893	O	0.338747	0.270580	0.582844
	O2894	O	0.088693	0.291458	0.604704
	O2895	O	0.338670	0.353960	0.542156
	F2896	F	0.004742	0.281053	0.586212
	F2897	F	0.254602	0.343526	0.523741
	F2898	F	0.004761	0.343536	0.538749
	F2899	F	0.254595	0.281045	0.601215
	Al2900	Al	0.129683	0.281053	0.593701
	Al2901	Al	0.379559	0.343533	0.531227
	Al2902	Al	0.129652	0.343537	0.531231
	Al2903	Al	0.379687	0.281074	0.593729
	C2904	C	0.093920	0.370623	0.504039
	C2905	C	0.343890	0.308144	0.566521
	C2906	C	0.093964	0.253975	0.620904
	C2907	C	0.343949	0.316441	0.558421
	C2908	C	0.415027	0.308193	0.620892
	C2909	C	0.165176	0.370720	0.558301
	C2910	C	0.415302	0.316424	0.504064
	C2911	C	0.165039	0.253969	0.566548
	C2912	C	0.414995	0.253989	0.620935
	C2913	C	0.165171	0.316440	0.558429
	C2914	C	0.415147	0.370623	0.504013
	C2915	C	0.165081	0.308146	0.566529
	C2916	C	0.093833	0.316466	0.504016
	C2917	C	0.343784	0.253935	0.566556
	C2918	C	0.093795	0.308091	0.621004
	C2919	C	0.343868	0.370555	0.558558
	C2920	C	0.004408	0.366384	0.508193
	C2921	C	0.254453	0.303907	0.570677
	C2922	C	0.004431	0.258222	0.616774
	C2923	C	0.254583	0.320692	0.554295
	C2924	C	0.004377	0.303878	0.616794
	C2925	C	0.254599	0.366365	0.554293
	C2926	C	0.004406	0.320696	0.508166
	C2927	C	0.254465	0.258190	0.570704
	C2928	C	0.004347	0.357462	0.516916
	C2929	C	0.254549	0.294996	0.579391
	C2930	C	0.004418	0.267098	0.608012
	C2931	C	0.254560	0.329588	0.545543
	C2932	C	0.004534	0.294969	0.608068
	C2933	C	0.254696	0.357491	0.545532
	C2934	C	0.004356	0.329603	0.516922
	C2935	C	0.254621	0.267092	0.579440
	H2936	H	0.163288	0.367390	0.507177
	H2937	H	0.413045	0.304889	0.569649
	H2938	H	0.163339	0.257203	0.617750
	H2939	H	0.413189	0.319651	0.555254
	H2940	H	0.345673	0.304996	0.617696
	H2941	H	0.095897	0.367570	0.555031
	H2942	H	0.346052	0.319635	0.507237
	H2943	H	0.095854	0.257216	0.569687
	H2944	H	0.345796	0.257258	0.617812
	H2945	H	0.095883	0.319654	0.555267
	H2946	H	0.345830	0.367391	0.507144
	H2947	H	0.095756	0.304911	0.569640
	H2948	H	0.163084	0.319720	0.507139
	H2949	H	0.412995	0.257160	0.569708
	H2950	H	0.163118	0.304830	0.617918
	H2951	H	0.413195	0.367276	0.555499
	O2952	O	0.588527	0.353976	0.520317
	O2953	O	0.838443	0.291511	0.582807
	O2954	O	0.588696	0.270609	0.604657
	O2955	O	0.838582	0.333084	0.542182
	O2956	O	0.920535	0.291486	0.604620
	O2957	O	0.670262	0.354013	0.542107
	O2958	O	0.920418	0.333095	0.520295
	O2959	O	0.670203	0.270590	0.582807
	O2960	O	0.920356	0.270595	0.604608
	O2961	O	0.670395	0.333080	0.542141
	O2962	O	0.920470	0.353943	0.520289
	O2963	O	0.670221	0.291508	0.582818
	O2964	O	0.588836	0.333105	0.520296
	O2965	O	0.838321	0.270579	0.582809
	O2966	O	0.588649	0.291473	0.604716
	O2967	O	0.838428	0.353962	0.542223
	F2968	F	0.504599	0.281078	0.586220
	F2969	F	0.754630	0.343526	0.523767
	F2970	F	0.504537	0.343543	0.538725
	F2971	F	0.754662	0.281060	0.601200
	Al2972	Al	0.629560	0.281053	0.593746
	Al2973	Al	0.879832	0.343512	0.531271
	Al2974	Al	0.629545	0.343531	0.531232
	Al2975	Al	0.879733	0.281035	0.593691
	C2976	C	0.593943	0.370638	0.504052
	C2977	C	0.843740	0.308147	0.566548
	C2978	C	0.593913	0.253939	0.620911
	C2979	C	0.843758	0.316442	0.558451
	C2980	C	0.914884	0.308177	0.620872
	C2981	C	0.664946	0.370714	0.558271
	C2982	C	0.914945	0.316424	0.504051
	C2983	C	0.664855	0.253956	0.566511
	C2984	C	0.914919	0.253977	0.620910
	C2985	C	0.664984	0.316433	0.558420
	C2986	C	0.914838	0.370616	0.504017
	C2987	C	0.664956	0.308142	0.566523
	C2988	C	0.594176	0.316476	0.503980
	C2989	C	0.843826	0.253924	0.566563
	C2990	C	0.593954	0.308098	0.621023
	C2991	C	0.843805	0.370552	0.558550
	C2992	C	0.504538	0.366375	0.508191
	C2993	C	0.754316	0.303899	0.570671
	C2994	C	0.504498	0.258189	0.616753
	C2995	C	0.754378	0.320672	0.554277
	C2996	C	0.504459	0.303909	0.616794
	C2997	C	0.754345	0.366385	0.554264
	C2998	C	0.504755	0.320698	0.508173
	C2999	C	0.754344	0.258183	0.570665
	C3000	C	0.504490	0.357482	0.516923
	C3001	C	0.754309	0.294995	0.579402
	C3002	C	0.504579	0.267097	0.608022
	C3003	C	0.754444	0.329573	0.545536
	C3004	C	0.504549	0.295013	0.608052
	C3005	C	0.754284	0.357491	0.545541
	C3006	C	0.504768	0.329594	0.516917
	C3007	C	0.754251	0.267071	0.579423
	H3008	H	0.663306	0.367426	0.507213
	H3009	H	0.912922	0.304923	0.569701
	H3010	H	0.663220	0.257170	0.617763
	H3011	H	0.912954	0.319681	0.555319
	H3012	H	0.845479	0.304981	0.617681
	H3013	H	0.595651	0.367549	0.555033
	H3014	H	0.845667	0.319653	0.507213
	H3015	H	0.595615	0.257198	0.569673
	H3016	H	0.845558	0.257204	0.617763
	H3017	H	0.595674	0.319660	0.555267
	H3018	H	0.845485	0.367363	0.507146
	H3019	H	0.595624	0.304905	0.569654
	H3020	H	0.663435	0.319734	0.507088
	H3021	H	0.913108	0.257127	0.569761
	H3022	H	0.663252	0.304824	0.617941
	H3023	H	0.913088	0.367237	0.555531
	O3024	O	0.088639	0.353973	0.645307
	O3025	O	0.338592	0.291476	0.707818
	O3026	O	0.088424	0.270584	0.729664
	O3027	O	0.338878	0.333077	0.667143
	O3028	O	0.420458	0.291485	0.729615
	O3029	O	0.170672	0.353999	0.667105
	O3030	O	0.420631	0.333125	0.645254
	O3031	O	0.170406	0.270557	0.707817
	O3032	O	0.420450	0.270565	0.729660
	O3033	O	0.170690	0.333052	0.667146
	O3034	O	0.420349	0.354004	0.645331
	O3035	O	0.170445	0.291513	0.707832
	O3036	O	0.088556	0.333072	0.645345
	O3037	O	0.338516	0.270579	0.707814
	O3038	O	0.088597	0.291478	0.729653
	O3039	O	0.338807	0.353961	0.667165
	F3040	F	0.004752	0.281042	0.711200
	F3041	F	0.254523	0.343515	0.648734
	F3042	F	0.004648	0.343536	0.663770
	F3043	F	0.254524	0.281020	0.726224
	Al3044	Al	0.129602	0.281030	0.718733
	Al3045	Al	0.379556	0.343519	0.656221
	Al3046	Al	0.129535	0.343526	0.656236
	Al3047	Al	0.379525	0.281019	0.718740
	C3048	C	0.093935	0.370576	0.628905
	C3049	C	0.343996	0.308129	0.691527
	C3050	C	0.093561	0.253912	0.745910
	C3051	C	0.344168	0.316402	0.683418
	C3052	C	0.415013	0.308144	0.745906
	C3053	C	0.165420	0.370703	0.683304
	C3054	C	0.415089	0.316500	0.628980
	C3055	C	0.165062	0.253933	0.691538
	C3056	C	0.415174	0.253968	0.746002
	C3057	C	0.165268	0.316441	0.683435
	C3058	C	0.415145	0.370725	0.629172
	C3059	C	0.165124	0.308149	0.691560
	C3060	C	0.093810	0.316398	0.629106
	C3061	C	0.344265	0.253955	0.691506
	C3062	C	0.093701	0.308117	0.745940
	C3063	C	0.344217	0.370576	0.683508
	C3064	C	0.004502	0.366389	0.633170
	C3065	C	0.254573	0.303898	0.695689
	C3066	C	0.004177	0.258180	0.741797
	C3067	C	0.254786	0.320666	0.679289
	C3068	C	0.004339	0.303872	0.741783
	C3069	C	0.254828	0.366381	0.679261
	C3070	C	0.004392	0.320688	0.633185
	C3071	C	0.254691	0.258186	0.695658
	C3072	C	0.004533	0.357492	0.641925
	C3073	C	0.254588	0.294998	0.704430
	C3074	C	0.004291	0.267084	0.733055
	C3075	C	0.254839	0.329571	0.670550
	C3076	C	0.004491	0.294980	0.733026
	C3077	C	0.254747	0.357483	0.670531
	C3078	C	0.004407	0.329588	0.641924
	C3079	C	0.254526	0.267076	0.704405
	H3080	H	0.163375	0.367296	0.631948
	H3081	H	0.413402	0.304901	0.694639
	H3082	H	0.162860	0.257128	0.742750
	H3083	H	0.413573	0.319598	0.680267
	H3084	H	0.345758	0.304945	0.742732
	H3085	H	0.096132	0.367543	0.680055
	H3086	H	0.345808	0.319769	0.632072
	H3087	H	0.095626	0.257160	0.694688
	H3088	H	0.345759	0.257219	0.742921
	H3089	H	0.096092	0.319694	0.680267
	H3090	H	0.345950	0.367561	0.632423
	H3091	H	0.095934	0.304908	0.694741
	H3092	H	0.163117	0.319596	0.632306
	H3093	H	0.413704	0.257197	0.694635
	H3094	H	0.163028	0.304904	0.742800
	H3095	H	0.413545	0.367317	0.680426
	O3096	O	0.588503	0.353937	0.645264
	O3097	O	0.838593	0.291515	0.707850
	O3098	O	0.588617	0.270601	0.729676
	O3099	O	0.838496	0.333040	0.667128
	O3100	O	0.920553	0.291460	0.729668
	O3101	O	0.670095	0.354038	0.667084
	O3102	O	0.920383	0.333112	0.645301
	O3103	O	0.670384	0.270584	0.707812
	O3104	O	0.920350	0.270583	0.729644
	O3105	O	0.670322	0.333115	0.667202
	O3106	O	0.920543	0.354003	0.645368
	O3107	O	0.670349	0.291470	0.707817
	O3108	O	0.588850	0.333067	0.645349
	O3109	O	0.838563	0.270609	0.707780
	O3110	O	0.588606	0.291465	0.729666
	O3111	O	0.838326	0.353966	0.667182
	F3112	F	0.504479	0.281027	0.711242
	F3113	F	0.754629	0.343527	0.648774
	F3114	F	0.504497	0.343502	0.663717
	F3115	F	0.754648	0.281029	0.726205
	Al3116	Al	0.629521	0.281028	0.718736
	Al3117	Al	0.879719	0.343543	0.656265
	Al3118	Al	0.629585	0.343533	0.656264
	Al3119	Al	0.879848	0.281032	0.718700
	C3120	C	0.593930	0.370562	0.628950
	C3121	C	0.843761	0.308127	0.691523
	C3122	C	0.594132	0.253918	0.745913
	C3123	C	0.843692	0.316408	0.683413
	C3124	C	0.914908	0.308140	0.745912
	C3125	C	0.664983	0.370712	0.683335
	C3126	C	0.914899	0.316479	0.628977
	C3127	C	0.664877	0.253920	0.691569
	C3128	C	0.914760	0.253981	0.746014
	C3129	C	0.664866	0.316429	0.683444
	C3130	C	0.915022	0.370705	0.629130
	C3131	C	0.664917	0.308130	0.691556
	C3132	C	0.594001	0.316406	0.629114
	C3133	C	0.843909	0.253946	0.691540
	C3134	C	0.593755	0.308101	0.745960
	C3135	C	0.843591	0.370569	0.683508
	C3136	C	0.504512	0.366396	0.633199
	C3137	C	0.754407	0.303881	0.695685
	C3138	C	0.504624	0.258175	0.741791
	C3139	C	0.754277	0.320672	0.679297
	C3140	C	0.504377	0.303861	0.741806
	C3141	C	0.754242	0.366427	0.679218
	C3142	C	0.504625	0.320717	0.633150
	C3143	C	0.754389	0.258190	0.695669
	C3144	C	0.504486	0.357489	0.641927
	C3145	C	0.754428	0.294989	0.704444
	C3146	C	0.504586	0.267086	0.733066
	C3147	C	0.754340	0.329568	0.670548
	C3148	C	0.504501	0.294980	0.733027
	C3149	C	0.754239	0.357502	0.670522
	C3150	C	0.504745	0.329615	0.641886
	C3151	C	0.754476	0.267078	0.704431
	H3152	H	0.663221	0.367265	0.631999
	H3153	H	0.913257	0.304922	0.694647
	H3154	H	0.663441	0.257137	0.742754
	H3155	H	0.913090	0.319608	0.680255
	H3156	H	0.845598	0.304930	0.742739
	H3157	H	0.595666	0.367526	0.680157
	H3158	H	0.845597	0.319746	0.632064
	H3159	H	0.595544	0.257116	0.694756
	H3160	H	0.845475	0.257258	0.742947
	H3161	H	0.595730	0.319669	0.680288
	H3162	H	0.845719	0.367539	0.632367
	H3163	H	0.595720	0.304887	0.694756
	H3164	H	0.663404	0.319585	0.632310
	H3165	H	0.913261	0.257162	0.694705
	H3166	H	0.663054	0.304868	0.742824
	H3167	H	0.912797	0.367266	0.680482
	O3168	O	0.088527	0.353940	0.770276
	O3169	O	0.338824	0.291517	0.832856
	O3170	O	0.088532	0.270615	0.854707
	O3171	O	0.338903	0.333089	0.792191
	O3172	O	0.420678	0.291467	0.854708
	O3173	O	0.170495	0.354014	0.792096
	O3174	O	0.420534	0.333055	0.770342
	O3175	O	0.170498	0.270564	0.832884
	O3176	O	0.420242	0.270568	0.854637
	O3177	O	0.170790	0.333079	0.792185
	O3178	O	0.420467	0.354018	0.770405
	O3179	O	0.170731	0.291499	0.832861
	O3180	O	0.088695	0.333054	0.770322
	O3181	O	0.338650	0.270630	0.832778
	O3182	O	0.088518	0.291479	0.854677
	O3183	O	0.338590	0.353934	0.792192
	F3184	F	0.004755	0.281030	0.836229
	F3185	F	0.254706	0.343500	0.773744
	F3186	F	0.004843	0.343510	0.788781
	F3187	F	0.254597	0.281051	0.851266
	Al3188	Al	0.129656	0.281036	0.843765
	Al3189	Al	0.379566	0.343524	0.781254
	Al3190	Al	0.129705	0.343507	0.781233
	Al3191	Al	0.379613	0.281064	0.843756
	C3192	C	0.093495	0.370541	0.753895
	C3193	C	0.344204	0.308154	0.816599
	C3194	C	0.093752	0.254004	0.871060
	C3195	C	0.344330	0.316452	0.808489
	C3196	C	0.415142	0.308125	0.870963
	C3197	C	0.165136	0.370646	0.808396
	C3198	C	0.415106	0.316438	0.754022
	C3199	C	0.165106	0.253898	0.816621
	C3200	C	0.414957	0.253883	0.870841
	C3201	C	0.165400	0.316402	0.808414
	C3202	C	0.415056	0.370746	0.754237
	C3203	C	0.165371	0.308119	0.816516
	C3204	C	0.093653	0.316409	0.754057
	C3205	C	0.344038	0.253954	0.816533
	C3206	C	0.093735	0.308132	0.870950
	C3207	C	0.343976	0.370562	0.808495
	C3208	C	0.004197	0.366392	0.758218
	C3209	C	0.254722	0.303897	0.820707
	C3210	C	0.004368	0.258185	0.866819
	C3211	C	0.254891	0.320683	0.804319
	C3212	C	0.004326	0.303876	0.866821
	C3213	C	0.254548	0.366366	0.804278
	C3214	C	0.004293	0.320679	0.758170
	C3215	C	0.254575	0.258168	0.820728
	C3216	C	0.004381	0.357476	0.766956
	C3217	C	0.254749	0.295014	0.829474
	C3218	C	0.004467	0.267094	0.858066
	C3219	C	0.254852	0.329576	0.795572
	C3220	C	0.004429	0.294978	0.858083
	C3221	C	0.254583	0.357489	0.795515
	C3222	C	0.004527	0.329559	0.766956
	C3223	C	0.254557	0.267086	0.829447
	H3224	H	0.162786	0.367226	0.756902
	H3225	H	0.413421	0.304933	0.819797
	H3226	H	0.163065	0.257284	0.867997
	H3227	H	0.413634	0.319702	0.805346
	H3228	H	0.345788	0.304890	0.867828
	H3229	H	0.095748	0.367452	0.805226
	H3230	H	0.345967	0.319670	0.757161
	H3231	H	0.095732	0.257086	0.819801
	H3232	H	0.345754	0.257052	0.867586
	H3233	H	0.096105	0.319593	0.805236
	H3234	H	0.345834	0.367615	0.757549
	H3235	H	0.095961	0.304887	0.819622
	H3236	H	0.162877	0.319616	0.757230
	H3237	H	0.413411	0.257192	0.819643
	H3238	H	0.163120	0.304920	0.867790
	H3239	H	0.413296	0.367311	0.805407
	O3240	O	0.588624	0.353949	0.770282
	O3241	O	0.838511	0.291515	0.832816
	O3242	O	0.588351	0.270626	0.854708
	O3243	O	0.838507	0.333101	0.792211
	O3244	O	0.920373	0.291481	0.854677
	O3245	O	0.670458	0.353955	0.792149
	O3246	O	0.920641	0.333067	0.770362
	O3247	O	0.670160	0.270566	0.832844
	O3248	O	0.920443	0.270591	0.854665
	O3249	O	0.670372	0.333055	0.792117
	O3250	O	0.920449	0.354011	0.770412
	O3251	O	0.670315	0.291524	0.832849
	O3252	O	0.588692	0.333101	0.770278
	O3253	O	0.838321	0.270563	0.832854
	O3254	O	0.588801	0.291497	0.854675
	O3255	O	0.838576	0.353987	0.792187
	F3256	F	0.504580	0.281064	0.836260
	F3257	F	0.754795	0.343536	0.773782
	F3258	F	0.504742	0.343538	0.788735
	F3259	F	0.754660	0.281019	0.851213
	Al3260	Al	0.629571	0.281039	0.843761
	Al3261	Al	0.879914	0.343527	0.781284
	Al3262	Al	0.629723	0.343526	0.781222
	Al3263	Al	0.879840	0.281038	0.843723
	C3264	C	0.593838	0.370492	0.753878
	C3265	C	0.843841	0.308167	0.816587
	C3266	C	0.593767	0.254022	0.871040
	C3267	C	0.843809	0.316463	0.808472
	C3268	C	0.914876	0.308094	0.871035
	C3269	C	0.664733	0.370658	0.808360
	C3270	C	0.914846	0.316430	0.754030
	C3271	C	0.664814	0.253884	0.816609
	C3272	C	0.914964	0.253864	0.870859
	C3273	C	0.664880	0.316422	0.808399
	C3274	C	0.914762	0.370737	0.754221
	C3275	C	0.664924	0.308147	0.816510
	C3276	C	0.593791	0.316396	0.754069
	C3277	C	0.843679	0.253974	0.816510
	C3278	C	0.594117	0.308167	0.870931
	C3279	C	0.843384	0.370590	0.808519
	C3280	C	0.504415	0.366377	0.758217
	C3281	C	0.754349	0.303920	0.820701
	C3282	C	0.504339	0.258203	0.866823
	C3283	C	0.754330	0.320678	0.804284
	C3284	C	0.504661	0.303893	0.866808
	C3285	C	0.754116	0.366373	0.804276
	C3286	C	0.504500	0.320662	0.758194
	C3287	C	0.754229	0.258166	0.820714
	C3288	C	0.504516	0.357493	0.766970
	C3289	C	0.754372	0.295018	0.829433
	C3290	C	0.504309	0.267095	0.858061
	C3291	C	0.754396	0.329580	0.795550
	C3292	C	0.504743	0.294991	0.858081
	C3293	C	0.754391	0.357477	0.795548
	C3294	C	0.504640	0.329559	0.766946
	C3295	C	0.754226	0.267065	0.829458
	H3296	H	0.663116	0.367164	0.756886
	H3297	H	0.913094	0.304945	0.819766
	H3298	H	0.663086	0.257293	0.867970
	H3299	H	0.913021	0.319716	0.805339
	H3300	H	0.845568	0.304839	0.867939
	H3301	H	0.595390	0.367482	0.805154
	H3302	H	0.845581	0.319662	0.757187
	H3303	H	0.595376	0.257072	0.819783
	H3304	H	0.845717	0.257035	0.867614
	H3305	H	0.595514	0.319624	0.805240
	H3306	H	0.845556	0.367583	0.757492
	H3307	H	0.595516	0.304904	0.819622
	H3308	H	0.663037	0.319606	0.757257
	H3309	H	0.913037	0.257232	0.819590
	H3310	H	0.663511	0.304968	0.867771
	H3311	H	0.912777	0.367342	0.805437
	O3312	O	0.088525	0.353980	0.895377
	O3313	O	0.338714	0.291491	0.957882
	O3314	O	0.088450	0.270629	0.979752
	O3315	O	0.338409	0.333079	0.917198
	O3316	O	0.420549	0.291457	0.979701
	O3317	O	0.170447	0.353956	0.917207
	O3318	O	0.420496	0.333065	0.895362
	O3319	O	0.170374	0.270564	0.957858
	O3320	O	0.420662	0.270559	0.979691
	O3321	O	0.170267	0.333073	0.917189
	O3322	O	0.420605	0.353951	0.895372
	O3323	O	0.170572	0.291467	0.957848
	O3324	O	0.088690	0.333104	0.895314
	O3325	O	0.338428	0.270595	0.957806
	O3326	O	0.088907	0.291516	0.979652
	O3327	O	0.338734	0.353963	0.917188
	F3328	F	0.004774	0.281031	0.961237
	F3329	F	0.254631	0.343527	0.898780
	F3330	F	0.004681	0.343523	0.913805
	F3331	F	0.254628	0.281007	0.976259
	Al3332	Al	0.129660	0.281019	0.968769
	Al3333	Al	0.379603	0.343524	0.906287
	Al3334	Al	0.129624	0.343538	0.906276
	Al3335	Al	0.379596	0.281013	0.968770
	C3336	C	0.093737	0.370629	0.879143
	C3337	C	0.344014	0.308123	0.941554
	C3338	C	0.093954	0.253991	0.996046
	C3339	C	0.343941	0.316419	0.933452
	C3340	C	0.415118	0.308112	0.995948
	C3341	C	0.164920	0.370600	0.933474
	C3342	C	0.415096	0.316427	0.879068
	C3343	C	0.165171	0.253843	0.941669
	C3344	C	0.415513	0.253868	0.995885
	C3345	C	0.165069	0.316438	0.933531
	C3346	C	0.415006	0.370612	0.879070
	C3347	C	0.165186	0.308146	0.941629
	C3348	C	0.093737	0.316441	0.879050
	C3349	C	0.344132	0.253989	0.941479
	C3350	C	0.093902	0.308117	0.996002
	C3351	C	0.343991	0.370646	0.933449
	C3352	C	0.004236	0.366363	0.883236
	C3353	C	0.254646	0.303878	0.945721
	C3354	C	0.004543	0.258201	0.991849
	C3355	C	0.254426	0.320662	0.929325
	C3356	C	0.004490	0.303885	0.991812
	C3357	C	0.254500	0.366382	0.929327
	C3358	C	0.004387	0.320662	0.883241
	C3359	C	0.254563	0.258156	0.945714
	C3360	C	0.004361	0.357448	0.891964
	C3361	C	0.254636	0.294982	0.954473
	C3362	C	0.004427	0.267098	0.983089
	C3363	C	0.254338	0.329559	0.920580
	C3364	C	0.004715	0.294980	0.983060
	C3365	C	0.254582	0.357464	0.920578
	C3366	C	0.004596	0.329574	0.891961
	C3367	C	0.254401	0.267057	0.954460
	H3368	H	0.163075	0.367415	0.882314
	H3369	H	0.413352	0.304899	0.944700
	H3370	H	0.163226	0.257261	0.992955
	H3371	H	0.413172	0.319652	0.930297
	H3372	H	0.345866	0.304886	0.992783
	H3373	H	0.095523	0.367372	0.930321
	H3374	H	0.345759	0.319654	0.882224
	H3375	H	0.095969	0.257032	0.944916
	H3376	H	0.346300	0.257055	0.992662
	H3377	H	0.095687	0.319690	0.930442
	H3378	H	0.345815	0.367362	0.882206
	H3379	H	0.095929	0.304939	0.944836
	H3380	H	0.163064	0.319697	0.882141
	H3381	H	0.413331	0.257297	0.944562
	H3382	H	0.163374	0.304875	0.992892
	H3383	H	0.413394	0.367448	0.930277
	O3384	O	0.588783	0.353973	0.895336
	O3385	O	0.838394	0.291525	0.957891
	O3386	O	0.588906	0.270602	0.979750
	O3387	O	0.838339	0.333047	0.917212
	O3388	O	0.920761	0.291434	0.979709
	O3389	O	0.670288	0.353967	0.917221
	O3390	O	0.920566	0.333045	0.895411
	O3391	O	0.670147	0.270543	0.957873
	O3392	O	0.920358	0.270555	0.979658
	O3393	O	0.670226	0.333061	0.917190
	O3394	O	0.920371	0.353917	0.895343
	O3395	O	0.670208	0.291476	0.957853
	O3396	O	0.588687	0.333064	0.895352
	O3397	O	0.838283	0.270609	0.957780
	O3398	O	0.588681	0.291467	0.979674
	O3399	O	0.838480	0.353979	0.917211
	F3400	F	0.504477	0.280999	0.961294
	F3401	F	0.754625	0.343509	0.898818
	F3402	F	0.504594	0.343506	0.913773
	F3403	F	0.754728	0.281040	0.976242
	Al3404	Al	0.629603	0.281009	0.968780
	Al3405	Al	0.879739	0.343497	0.906324
	Al3406	Al	0.629577	0.343523	0.906277
	Al3407	Al	0.879807	0.281031	0.968728
	C3408	C	0.593926	0.370655	0.879114
	C3409	C	0.843560	0.308084	0.941525
	C3410	C	0.594316	0.253975	0.996046
	C3411	C	0.843486	0.316370	0.933419
	C3412	C	0.914840	0.308119	0.995957
	C3413	C	0.665022	0.370605	0.933529
	C3414	C	0.914893	0.316403	0.879138
	C3415	C	0.664849	0.253830	0.941709
	C3416	C	0.915127	0.253889	0.995889
	C3417	C	0.664639	0.316457	0.933545
	C3418	C	0.914813	0.370590	0.879048
	C3419	C	0.664664	0.308167	0.941652
	C3420	C	0.594106	0.316470	0.879034
	C3421	C	0.843869	0.254013	0.941471
	C3422	C	0.594066	0.308102	0.995990
	C3423	C	0.843900	0.370665	0.933425
	C3424	C	0.504514	0.366379	0.883218
	C3425	C	0.754160	0.303896	0.945744
	C3426	C	0.504864	0.258180	0.991847
	C3427	C	0.754087	0.320638	0.929317
	C3428	C	0.504650	0.303858	0.991833
	C3429	C	0.754431	0.366386	0.929351
	C3430	C	0.504536	0.320670	0.883217
	C3431	C	0.754278	0.258155	0.945729
	C3432	C	0.504603	0.357479	0.891974
	C3433	C	0.754249	0.294995	0.954474
	C3434	C	0.504807	0.267096	0.983129
	C3435	C	0.754219	0.329557	0.920602
	C3436	C	0.504644	0.294974	0.983067
	C3437	C	0.754367	0.357476	0.920606
	C3438	C	0.504568	0.329561	0.891969
	C3439	C	0.754225	0.267059	0.954462
	H3440	H	0.663285	0.367441	0.882288
	H3441	H	0.912971	0.304823	0.944622
	H3442	H	0.663597	0.257243	0.992965
	H3443	H	0.912759	0.319575	0.930244
	H3444	H	0.845482	0.304876	0.992803
	H3445	H	0.595686	0.367357	0.930420
	H3446	H	0.845551	0.319610	0.882305
	H3447	H	0.595596	0.257008	0.944960
	H3448	H	0.845806	0.257068	0.992665
	H3449	H	0.595408	0.319729	0.930475
	H3450	H	0.845410	0.367341	0.882152
	H3451	H	0.595428	0.304964	0.944857
	H3452	H	0.663319	0.319726	0.882148
	H3453	H	0.913085	0.257347	0.944511
	H3454	H	0.663408	0.304871	0.992863
	H3455	H	0.913226	0.367474	0.930234
	O3456	O	0.088514	0.478960	0.020348
	O3457	O	0.338715	0.416483	0.082905
	O3458	O	0.088399	0.395572	0.104673
	O3459	O	0.338396	0.458095	0.042266
	O3460	O	0.420496	0.416450	0.104727
	O3461	O	0.170749	0.478981	0.042139
	O3462	O	0.420330	0.458033	0.020375
	O3463	O	0.170452	0.395572	0.082882
	O3464	O	0.420338	0.395541	0.104642
	O3465	O	0.170329	0.458020	0.042162
	O3466	O	0.420700	0.478926	0.020362
	O3467	O	0.170577	0.416463	0.082859
	O3468	O	0.088619	0.458056	0.020353
	O3469	O	0.338533	0.395611	0.082823
	O3470	O	0.088623	0.416496	0.104657
	O3471	O	0.338895	0.478940	0.042225
	F3472	F	0.004739	0.406051	0.086232
	F3473	F	0.254661	0.468500	0.023778
	F3474	F	0.004894	0.468526	0.038799
	F3475	F	0.254509	0.406025	0.101288
	Al3476	Al	0.129648	0.406020	0.093767
	Al3477	Al	0.379607	0.468492	0.031298
	Al3478	Al	0.129789	0.468510	0.031275
	Al3479	Al	0.379494	0.406017	0.093760
	C3480	C	0.093746	0.495594	0.004028
	C3481	C	0.344019	0.433173	0.066668
	C3482	C	0.093989	0.378987	0.121062
	C3483	C	0.343869	0.441469	0.058574
	C3484	C	0.415185	0.433109	0.121002
	C3485	C	0.165071	0.495635	0.058413
	C3486	C	0.415083	0.441380	0.004119
	C3487	C	0.165361	0.378916	0.066601
	C3488	C	0.414855	0.378895	0.120902
	C3489	C	0.164867	0.441346	0.058412
	C3490	C	0.415145	0.495625	0.004121
	C3491	C	0.165011	0.433048	0.066515
	C3492	C	0.093796	0.441439	0.004027
	C3493	C	0.343948	0.378951	0.066560
	C3494	C	0.093692	0.433162	0.120948
	C3495	C	0.343763	0.495597	0.058505
	C3496	C	0.004281	0.491360	0.008205
	C3497	C	0.254617	0.428867	0.070739
	C3498	C	0.004435	0.383178	0.116847
	C3499	C	0.254326	0.445660	0.054355
	C3500	C	0.004267	0.428887	0.116812
	C3501	C	0.254455	0.491376	0.054306
	C3502	C	0.004337	0.445653	0.008246
	C3503	C	0.254594	0.383173	0.070746
	C3504	C	0.004388	0.482472	0.016970
	C3505	C	0.254674	0.419978	0.079496
	C3506	C	0.004387	0.392068	0.108075
	C3507	C	0.254369	0.454553	0.045602
	C3508	C	0.004549	0.420003	0.108032
	C3509	C	0.254793	0.482468	0.045559
	C3510	C	0.004505	0.454564	0.016992
	C3511	C	0.254496	0.392084	0.079475
	H3512	H	0.163083	0.492356	0.007157
	H3513	H	0.413423	0.430003	0.069876
	H3514	H	0.163322	0.382257	0.117980
	H3515	H	0.413130	0.444746	0.055492
	H3516	H	0.345869	0.429852	0.117885
	H3517	H	0.095767	0.492428	0.055248
	H3518	H	0.345748	0.444567	0.007304
	H3519	H	0.096056	0.382130	0.069733
	H3520	H	0.345589	0.382081	0.117682
	H3521	H	0.095433	0.444522	0.055181
	H3522	H	0.345781	0.492406	0.007279
	H3523	H	0.095670	0.429765	0.069605
	H3524	H	0.163136	0.444701	0.007111
	H3525	H	0.413154	0.382203	0.069667
	H3526	H	0.163094	0.429968	0.117772
	H3527	H	0.413093	0.492351	0.055405
	O3528	O	0.588786	0.478924	0.020342
	O3529	O	0.838381	0.416501	0.082854
	O3530	O	0.588538	0.395607	0.104734
	O3531	O	0.838518	0.458052	0.042228
	O3532	O	0.920551	0.416485	0.104658
	O3533	O	0.670113	0.478957	0.042195
	O3534	O	0.920570	0.458066	0.020387
	O3535	O	0.670275	0.395546	0.082883
	O3536	O	0.920321	0.395540	0.104654
	O3537	O	0.670289	0.458034	0.042202
	O3538	O	0.920393	0.478984	0.020376
	O3539	O	0.670214	0.416468	0.082831
	O3540	O	0.588435	0.458093	0.020335
	O3541	O	0.838437	0.395576	0.082829
	O3542	O	0.588750	0.416504	0.104649
	O3543	O	0.838291	0.478972	0.042219
	F3544	F	0.504555	0.406016	0.086276
	F3545	F	0.754802	0.468481	0.023822
	F3546	F	0.504590	0.468478	0.038779
	F3547	F	0.754701	0.406040	0.101234
	Al3548	Al	0.629544	0.406024	0.093770
	Al3549	Al	0.879897	0.468515	0.031324
	Al3550	Al	0.629548	0.468497	0.031265
	Al3551	Al	0.879882	0.406029	0.093733
	C3552	C	0.594085	0.495581	0.004037
	C3553	C	0.843717	0.433183	0.066665
	C3554	C	0.593831	0.379000	0.121059
	C3555	C	0.843783	0.441473	0.058569
	C3556	C	0.914785	0.433091	0.121009
	C3557	C	0.664625	0.495680	0.058409
	C3558	C	0.914896	0.441379	0.004134
	C3559	C	0.664760	0.378916	0.066589
	C3560	C	0.915030	0.378872	0.120913
	C3561	C	0.664770	0.441375	0.058416
	C3562	C	0.914792	0.495648	0.004108
	C3563	C	0.664703	0.433081	0.066517
	C3564	C	0.593929	0.441453	0.004038
	C3565	C	0.843677	0.378955	0.066541
	C3566	C	0.594206	0.433148	0.120941
	C3567	C	0.843592	0.495592	0.058505
	C3568	C	0.504698	0.491345	0.008240
	C3569	C	0.754221	0.428897	0.070739
	C3570	C	0.504348	0.383190	0.116841
	C3571	C	0.754339	0.445661	0.054351
	C3572	C	0.504690	0.428889	0.116832
	C3573	C	0.754055	0.491382	0.054312
	C3574	C	0.504490	0.445672	0.008224
	C3575	C	0.754262	0.383193	0.070683
	C3576	C	0.504752	0.482430	0.016953
	C3577	C	0.754254	0.419992	0.079469
	C3578	C	0.504456	0.392077	0.108085
	C3579	C	0.754409	0.454548	0.045611
	C3580	C	0.504610	0.419991	0.108064
	C3581	C	0.754153	0.482459	0.045601
	C3582	C	0.504452	0.454563	0.016960
	C3583	C	0.754348	0.392068	0.079458
	H3584	H	0.663553	0.492339	0.007114
	H3585	H	0.913020	0.429990	0.069864
	H3586	H	0.663076	0.382278	0.117970
	H3587	H	0.913156	0.444743	0.055494
	H3588	H	0.845447	0.429846	0.117887
	H3589	H	0.595283	0.492470	0.055247
	H3590	H	0.845525	0.444590	0.007314
	H3591	H	0.595481	0.382119	0.069785
	H3592	H	0.845709	0.382064	0.117704
	H3593	H	0.595458	0.444566	0.055194
	H3594	H	0.845481	0.492457	0.007316
	H3595	H	0.595461	0.429796	0.069594
	H3596	H	0.663290	0.444704	0.007151
	H3597	H	0.912955	0.382176	0.069692
	H3598	H	0.663560	0.429928	0.117773
	H3599	H	0.912988	0.492326	0.055430
	O3600	O	0.088597	0.479026	0.145398
	O3601	O	0.338785	0.416520	0.207858
	O3602	O	0.088527	0.395596	0.229688
	O3603	O	0.338642	0.458127	0.167214
	O3604	O	0.420479	0.416478	0.229653
	O3605	O	0.170430	0.478998	0.167146
	O3606	O	0.420472	0.458090	0.145330
	O3607	O	0.170636	0.395562	0.207862
	O3608	O	0.420426	0.395602	0.229688
	O3609	O	0.170508	0.458056	0.167111
	O3610	O	0.420519	0.478994	0.145322
	O3611	O	0.170643	0.416483	0.207829
	O3612	O	0.088351	0.458113	0.145312
	O3613	O	0.338777	0.395556	0.207873
	O3614	O	0.088568	0.416504	0.229649
	O3615	O	0.338709	0.479014	0.167144
	F3616	F	0.004842	0.406027	0.211213
	F3617	F	0.254533	0.468544	0.148744
	F3618	F	0.004733	0.468522	0.163771
	F3619	F	0.254556	0.406052	0.226251
	Al3620	Al	0.129630	0.406041	0.218757
	Al3621	Al	0.379615	0.468552	0.156238
	Al3622	Al	0.129571	0.468534	0.156248
	Al3623	Al	0.379581	0.406037	0.218760
	C3624	C	0.093873	0.495674	0.129111
	C3625	C	0.344162	0.433214	0.191657
	C3626	C	0.093806	0.378911	0.245913
	C3627	C	0.344221	0.441519	0.183572
	C3628	C	0.415237	0.433067	0.246009
	C3629	C	0.165006	0.495649	0.183449
	C3630	C	0.415183	0.441417	0.129075
	C3631	C	0.165144	0.378942	0.191538
	C3632	C	0.415065	0.378954	0.245972
	C3633	C	0.165229	0.441387	0.183354
	C3634	C	0.415091	0.495608	0.128989
	C3635	C	0.165200	0.433087	0.191447
	C3636	C	0.093654	0.441464	0.129044
	C3637	C	0.344221	0.378935	0.191543
	C3638	C	0.093903	0.433190	0.245843
	C3639	C	0.344014	0.495654	0.183442
	C3640	C	0.004447	0.491379	0.133188
	C3641	C	0.254694	0.428915	0.195716
	C3642	C	0.004336	0.383191	0.241808
	C3643	C	0.254729	0.445679	0.179290
	C3644	C	0.004469	0.428904	0.241759
	C3645	C	0.254526	0.491427	0.179283
	C3646	C	0.004210	0.445686	0.133214
	C3647	C	0.254735	0.383177	0.195686
	C3648	C	0.004514	0.482475	0.141947
	C3649	C	0.254681	0.420000	0.204438
	C3650	C	0.004470	0.392084	0.233050
	C3651	C	0.254567	0.454586	0.170546
	C3652	C	0.004471	0.419994	0.233026
	C3653	C	0.254551	0.482514	0.170532
	C3654	C	0.004285	0.454597	0.141945
	C3655	C	0.254704	0.392065	0.204455
	H3656	H	0.163212	0.492492	0.132310
	H3657	H	0.413472	0.430022	0.194871
	H3658	H	0.163160	0.382119	0.242737
	H3659	H	0.413603	0.444809	0.180536
	H3660	H	0.345899	0.429798	0.242942
	H3661	H	0.095633	0.492412	0.180312
	H3662	H	0.345767	0.444623	0.132214
	H3663	H	0.095864	0.382171	0.194705
	H3664	H	0.345764	0.382195	0.242842
	H3665	H	0.095955	0.444565	0.180134
	H3666	H	0.345753	0.492350	0.132091
	H3667	H	0.095886	0.429783	0.194497
	H3668	H	0.162951	0.444718	0.132157
	H3669	H	0.413629	0.382149	0.194697
	H3670	H	0.163299	0.430010	0.242645
	H3671	H	0.413384	0.492422	0.180296
	O3672	O	0.588666	0.478986	0.145284
	O3673	O	0.838516	0.416537	0.207875
	O3674	O	0.588603	0.395582	0.229663
	O3675	O	0.838458	0.458107	0.167226
	O3676	O	0.920390	0.416483	0.229641
	O3677	O	0.670572	0.478997	0.167126
	O3678	O	0.920221	0.458102	0.145320
	O3679	O	0.670203	0.395584	0.207838
	O3680	O	0.920374	0.395570	0.229616
	O3681	O	0.670305	0.458075	0.167152
	O3682	O	0.920516	0.478942	0.145286
	O3683	O	0.670410	0.416480	0.207820
	O3684	O	0.588572	0.458110	0.145299
	O3685	O	0.838287	0.395547	0.207825
	O3686	O	0.588684	0.416475	0.229658
	O3687	O	0.838723	0.479026	0.167157
	F3688	F	0.504547	0.406059	0.211251
	F3689	F	0.754681	0.468531	0.148772
	F3690	F	0.504597	0.468559	0.163723
	F3691	F	0.754677	0.406025	0.226224
	Al3692	Al	0.629635	0.406038	0.218738
	Al3693	Al	0.879816	0.468528	0.156280
	Al3694	Al	0.629699	0.468542	0.156233
	Al3695	Al	0.879788	0.406030	0.218710
	C3696	C	0.593905	0.495695	0.129113
	C3697	C	0.843813	0.433212	0.191657
	C3698	C	0.593999	0.378911	0.245900
	C3699	C	0.843847	0.441506	0.183557
	C3700	C	0.915045	0.433084	0.246011
	C3701	C	0.664892	0.495634	0.183433
	C3702	C	0.914754	0.441396	0.129108
	C3703	C	0.664836	0.378922	0.191563
	C3704	C	0.914899	0.378969	0.245969
	C3705	C	0.664940	0.441351	0.183342
	C3706	C	0.914948	0.495619	0.129000
	C3707	C	0.664869	0.433062	0.191446
	C3708	C	0.594031	0.441461	0.129021
	C3709	C	0.843695	0.378919	0.191560
	C3710	C	0.594063	0.433185	0.245822
	C3711	C	0.843840	0.495645	0.183425
	C3712	C	0.504512	0.491398	0.133193
	C3713	C	0.754340	0.428906	0.195712
	C3714	C	0.504560	0.383192	0.241815
	C3715	C	0.754379	0.445694	0.179330
	C3716	C	0.504610	0.428873	0.241779
	C3717	C	0.754419	0.491396	0.179270
	C3718	C	0.504601	0.445675	0.133203
	C3719	C	0.754176	0.383139	0.195728
	C3720	C	0.504551	0.482498	0.141925
	C3721	C	0.754402	0.420024	0.204477
	C3722	C	0.504506	0.392088	0.233067
	C3723	C	0.754339	0.454575	0.170559
	C3724	C	0.504577	0.419975	0.233039
	C3725	C	0.754572	0.482524	0.170512
	C3726	C	0.504518	0.454580	0.141942
	C3727	C	0.754147	0.392044	0.204466
	H3728	H	0.663243	0.492505	0.132300
	H3729	H	0.913241	0.430032	0.194866
	H3730	H	0.663344	0.382112	0.242720
	H3731	H	0.913216	0.444764	0.180463
	H3732	H	0.845683	0.429812	0.242941
	H3733	H	0.595503	0.492399	0.180295
	H3734	H	0.845412	0.444602	0.132273
	H3735	H	0.595550	0.382154	0.194699
	H3736	H	0.845603	0.382213	0.242853
	H3737	H	0.595733	0.444491	0.180048
	H3738	H	0.845557	0.492378	0.132125
	H3739	H	0.595559	0.429757	0.194476
	H3740	H	0.663475	0.444700	0.132114
	H3741	H	0.912940	0.382158	0.194695
	H3742	H	0.663414	0.430012	0.242603
	H3743	H	0.913268	0.492426	0.180295
	O3744	O	0.088670	0.479011	0.270358
	O3745	O	0.338702	0.416512	0.332861
	O3746	O	0.088430	0.395618	0.354676
	O3747	O	0.338657	0.458102	0.292193
	O3748	O	0.420431	0.416462	0.354672
	O3749	O	0.170663	0.478995	0.292148
	O3750	O	0.420442	0.458026	0.270376
	O3751	O	0.170427	0.395532	0.332872
	O3752	O	0.420628	0.395519	0.354564
	O3753	O	0.170487	0.458045	0.292119
	O3754	O	0.420821	0.478962	0.270335
	O3755	O	0.170563	0.416478	0.332818
	O3756	O	0.088510	0.458089	0.270324
	O3757	O	0.338578	0.395609	0.332754
	O3758	O	0.088645	0.416499	0.354638
	O3759	O	0.338803	0.478998	0.292144
	F3760	F	0.004832	0.406051	0.336192
	F3761	F	0.254687	0.468529	0.273753
	F3762	F	0.004766	0.468551	0.288763
	F3763	F	0.254742	0.406028	0.351229
	Al3764	Al	0.129676	0.406048	0.343729
	Al3765	Al	0.379730	0.468526	0.281242
	Al3766	Al	0.129701	0.468523	0.281246
	Al3767	Al	0.379648	0.406017	0.343713
	C3768	C	0.093722	0.495658	0.254102
	C3769	C	0.343794	0.433164	0.316592
	C3770	C	0.093816	0.379021	0.371000
	C3771	C	0.343797	0.441455	0.308478
	C3772	C	0.415056	0.433079	0.371004
	C3773	C	0.165227	0.495626	0.308461
	C3774	C	0.415279	0.441366	0.254118
	C3775	C	0.165089	0.378884	0.316587
	C3776	C	0.415267	0.378885	0.370833
	C3777	C	0.164984	0.441415	0.308425
	C3778	C	0.415170	0.495599	0.254025
	C3779	C	0.164993	0.433133	0.316530
	C3780	C	0.093886	0.441488	0.253957
	C3781	C	0.344056	0.379007	0.316457
	C3782	C	0.093926	0.433200	0.370841
	C3783	C	0.344067	0.495652	0.308424
	C3784	C	0.004262	0.491385	0.258200
	C3785	C	0.254411	0.428906	0.320715
	C3786	C	0.004305	0.383200	0.366775
	C3787	C	0.254414	0.445668	0.304286
	C3788	C	0.004414	0.428887	0.366785
	C3789	C	0.254694	0.491408	0.304274
	C3790	C	0.004460	0.445684	0.258181
	C3791	C	0.254538	0.383174	0.320677
	C3792	C	0.004546	0.482490	0.266960
	C3793	C	0.254608	0.419995	0.329446
	C3794	C	0.004268	0.392098	0.358032
	C3795	C	0.254554	0.454574	0.295551
	C3796	C	0.004530	0.419994	0.358025
	C3797	C	0.254732	0.482504	0.295534
	C3798	C	0.004487	0.454607	0.266904
	C3799	C	0.254489	0.392055	0.329437
	H3800	H	0.163039	0.492472	0.257315
	H3801	H	0.412923	0.429924	0.319748
	H3802	H	0.163059	0.382315	0.367933
	H3803	H	0.412932	0.444706	0.305321
	H3804	H	0.345851	0.429809	0.367913
	H3805	H	0.095976	0.492369	0.305346
	H3806	H	0.346029	0.444543	0.257325
	H3807	H	0.095795	0.382076	0.319793
	H3808	H	0.346114	0.382072	0.367586
	H3809	H	0.095487	0.444608	0.305253
	H3810	H	0.345850	0.492344	0.257142
	H3811	H	0.095557	0.429887	0.319612
	H3812	H	0.163241	0.444762	0.257026
	H3813	H	0.413356	0.382283	0.319558
	H3814	H	0.163369	0.430030	0.367616
	H3815	H	0.413447	0.492423	0.305275
	O3816	O	0.588950	0.478975	0.270302
	O3817	O	0.838633	0.416532	0.332819
	O3818	O	0.588775	0.395657	0.354731
	O3819	O	0.838368	0.458100	0.292203
	O3820	O	0.920587	0.416468	0.354652
	O3821	O	0.670304	0.478993	0.292126
	O3822	O	0.920370	0.458087	0.270328
	O3823	O	0.670202	0.395539	0.332884
	O3824	O	0.920289	0.395590	0.354594
	O3825	O	0.670233	0.458078	0.292150
	O3826	O	0.920577	0.478978	0.270346
	O3827	O	0.670427	0.416490	0.332815
	O3828	O	0.588584	0.458128	0.270230
	O3829	O	0.838335	0.395601	0.332763
	O3830	O	0.588628	0.416528	0.354614
	O3831	O	0.838406	0.478998	0.292181
	F3832	F	0.504655	0.406023	0.336236
	F3833	F	0.754753	0.468533	0.273761
	F3834	F	0.504664	0.468507	0.288721
	F3835	F	0.754755	0.406061	0.351185
	Al3836	Al	0.629675	0.406046	0.343741
	Al3837	Al	0.879764	0.468533	0.281280
	Al3838	Al	0.629660	0.468518	0.281217
	Al3839	Al	0.879869	0.406055	0.343686
	C3840	C	0.594111	0.495671	0.254109
	C3841	C	0.843696	0.433161	0.316560
	C3842	C	0.594089	0.379012	0.371047
	C3843	C	0.843744	0.441462	0.308459
	C3844	C	0.914870	0.433078	0.371014
	C3845	C	0.664905	0.495626	0.308451
	C3846	C	0.915076	0.441376	0.254125
	C3847	C	0.664652	0.378891	0.316595
	C3848	C	0.914872	0.378902	0.370851
	C3849	C	0.664870	0.441429	0.308414
	C3850	C	0.914795	0.495616	0.254010
	C3851	C	0.664901	0.433136	0.316505
	C3852	C	0.594017	0.441481	0.253926
	C3853	C	0.843749	0.378982	0.316450
	C3854	C	0.593905	0.433193	0.370841
	C3855	C	0.843677	0.495668	0.308402
	C3856	C	0.504690	0.491373	0.258200
	C3857	C	0.754290	0.428915	0.320693
	C3858	C	0.504751	0.383186	0.366796
	C3859	C	0.754281	0.445686	0.304287
	C3860	C	0.504495	0.428891	0.366776
	C3861	C	0.754257	0.491397	0.304281
	C3862	C	0.504656	0.445676	0.258161
	C3863	C	0.754155	0.383185	0.320647
	C3864	C	0.504816	0.482481	0.266938
	C3865	C	0.754446	0.420010	0.329422
	C3866	C	0.504780	0.392099	0.358063
	C3867	C	0.754275	0.454573	0.295540
	C3868	C	0.504470	0.420005	0.358023
	C3869	C	0.754251	0.482499	0.295541
	C3870	C	0.504534	0.454584	0.266891
	C3871	C	0.754217	0.392059	0.329438
	H3872	H	0.663501	0.492480	0.257305
	H3873	H	0.912851	0.429947	0.319742
	H3874	H	0.663345	0.382297	0.367988
	H3875	H	0.912904	0.444726	0.305339
	H3876	H	0.845516	0.429806	0.367924
	H3877	H	0.595607	0.492377	0.305331
	H3878	H	0.845787	0.444564	0.257329
	H3879	H	0.595366	0.382074	0.319829
	H3880	H	0.845503	0.382094	0.367665
	H3881	H	0.595509	0.444644	0.305275
	H3882	H	0.845405	0.492382	0.257140
	H3883	H	0.595489	0.429920	0.319625
	H3884	H	0.663238	0.444763	0.256997
	H3885	H	0.913004	0.382248	0.319584
	H3886	H	0.663248	0.430009	0.367629
	H3887	H	0.912956	0.492449	0.305234
	O3888	O	0.088475	0.478977	0.395271
	O3889	O	0.338601	0.416486	0.457817
	O3890	O	0.088582	0.395572	0.479671
	O3891	O	0.338642	0.458101	0.417132
	O3892	O	0.420532	0.416496	0.479623
	O3893	O	0.170404	0.478969	0.417147
	O3894	O	0.420326	0.458068	0.395334
	O3895	O	0.170532	0.395534	0.457885
	O3896	O	0.420441	0.395584	0.479638
	O3897	O	0.170453	0.458072	0.417152
	O3898	O	0.420461	0.478998	0.395313
	O3899	O	0.170515	0.416501	0.457813
	O3900	O	0.088479	0.458113	0.395268
	O3901	O	0.338716	0.395601	0.457802
	O3902	O	0.088745	0.416511	0.479615
	O3903	O	0.338485	0.478976	0.417141
	F3904	F	0.004895	0.406035	0.461206
	F3905	F	0.254548	0.468529	0.398702
	F3906	F	0.004785	0.468533	0.413759
	F3907	F	0.254724	0.406048	0.476239
	Al3908	Al	0.129730	0.406021	0.468737
	Al3909	Al	0.379528	0.468537	0.406249
	Al3910	Al	0.129573	0.468541	0.406209
	Al3911	Al	0.379664	0.406060	0.468724
	C3912	C	0.093728	0.495669	0.379039
	C3913	C	0.343920	0.433164	0.441551
	C3914	C	0.093760	0.378937	0.495956
	C3915	C	0.343999	0.441449	0.433448
	C3916	C	0.415266	0.433117	0.495962
	C3917	C	0.165086	0.495653	0.433388
	C3918	C	0.415068	0.441372	0.379120
	C3919	C	0.165154	0.378885	0.441626
	C3920	C	0.415050	0.378939	0.495916
	C3921	C	0.165202	0.441444	0.433413
	C3922	C	0.415019	0.495641	0.379038
	C3923	C	0.165124	0.433146	0.441527
	C3924	C	0.093754	0.441497	0.378947
	C3925	C	0.344091	0.379024	0.441437
	C3926	C	0.093876	0.433164	0.495901
	C3927	C	0.343948	0.495620	0.433415
	C3928	C	0.004269	0.491400	0.383170
	C3929	C	0.254576	0.428894	0.445670
	C3930	C	0.004305	0.383167	0.491797
	C3931	C	0.254618	0.445702	0.429298
	C3932	C	0.004450	0.428894	0.491778
	C3933	C	0.254490	0.491385	0.429232
	C3934	C	0.004238	0.445674	0.383185
	C3935	C	0.254645	0.383183	0.445679
	C3936	C	0.004380	0.482500	0.391923
	C3937	C	0.254618	0.420001	0.454430
	C3938	C	0.004316	0.392070	0.483045
	C3939	C	0.254642	0.454574	0.420519
	C3940	C	0.004562	0.419988	0.483030
	C3941	C	0.254452	0.482477	0.420525
	C3942	C	0.004349	0.454571	0.391954
	C3943	C	0.254642	0.392071	0.454446
	H3944	H	0.163140	0.492473	0.382218
	H3945	H	0.413362	0.429958	0.444705
	H3946	H	0.163090	0.382184	0.492828
	H3947	H	0.413349	0.444661	0.430310
	H3948	H	0.345962	0.429874	0.492833
	H3949	H	0.095705	0.492443	0.430242
	H3950	H	0.345849	0.444563	0.382329
	H3951	H	0.096004	0.382082	0.444888
	H3952	H	0.345785	0.382173	0.492748
	H3953	H	0.095952	0.444661	0.430225
	H3954	H	0.345786	0.492400	0.382168
	H3955	H	0.095842	0.429909	0.444681
	H3956	H	0.163083	0.444784	0.382014
	H3957	H	0.413215	0.382327	0.444535
	H3958	H	0.163198	0.429947	0.492731
	H3959	H	0.413370	0.492381	0.430304
	O3960	O	0.588668	0.478961	0.395280
	O3961	O	0.838437	0.416510	0.457791
	O3962	O	0.588642	0.395582	0.479672
	O3963	O	0.838533	0.458061	0.417180
	O3964	O	0.920655	0.416462	0.479649
	O3965	O	0.670315	0.479018	0.417093
	O3966	O	0.920382	0.458043	0.395417
	O3967	O	0.670061	0.395577	0.457809
	O3968	O	0.920474	0.395545	0.479607
	O3969	O	0.670311	0.458058	0.417115
	O3970	O	0.920484	0.478994	0.395344
	O3971	O	0.670213	0.416476	0.457818
	O3972	O	0.588469	0.458089	0.395302
	O3973	O	0.838231	0.395569	0.457824
	O3974	O	0.588753	0.416452	0.479692
	O3975	O	0.838526	0.479002	0.417158
	F3976	F	0.504503	0.406050	0.461250
	F3977	F	0.754792	0.468534	0.398766
	F3978	F	0.504633	0.468543	0.413697
	F3979	F	0.754756	0.406020	0.476211
	Al3980	Al	0.629610	0.406013	0.468738
	Al3981	Al	0.879890	0.468531	0.406299
	Al3982	Al	0.629660	0.468521	0.406208
	Al3983	Al	0.879804	0.406032	0.468694
	C3984	C	0.593878	0.495645	0.379048
	C3985	C	0.843587	0.433144	0.441574
	C3986	C	0.593907	0.378951	0.495954
	C3987	C	0.843596	0.441425	0.433463
	C3988	C	0.914947	0.433110	0.495978
	C3989	C	0.664831	0.495634	0.433417
	C3990	C	0.914746	0.441372	0.379129
	C3991	C	0.664778	0.378867	0.441646
	C3992	C	0.914754	0.378920	0.495928
	C3993	C	0.664968	0.441418	0.433414
	C3994	C	0.914756	0.495662	0.379030
	C3995	C	0.664882	0.433126	0.441530
	C3996	C	0.593805	0.441492	0.378952
	C3997	C	0.843495	0.379007	0.441431
	C3998	C	0.594210	0.433164	0.495873
	C3999	C	0.843760	0.495650	0.433414
	C4000	C	0.504488	0.491405	0.383193
	C4001	C	0.754193	0.428892	0.445698
	C4002	C	0.504504	0.383210	0.491829
	C4003	C	0.754289	0.445672	0.429295
	C4004	C	0.504696	0.428885	0.491795
	C4005	C	0.754304	0.491381	0.429289
	C4006	C	0.504418	0.445660	0.383204
	C4007	C	0.754088	0.383157	0.445716
	C4008	C	0.504596	0.482493	0.391923
	C4009	C	0.754226	0.419991	0.454426
	C4010	C	0.504502	0.392098	0.483066
	C4011	C	0.754332	0.454558	0.420528
	C4012	C	0.504657	0.419977	0.483047
	C4013	C	0.754377	0.482488	0.420539
	C4014	C	0.504391	0.454574	0.391929
	C4015	C	0.754151	0.392060	0.454446
	H4016	H	0.663184	0.492416	0.382195
	H4017	H	0.912820	0.429925	0.444714
	H4018	H	0.663245	0.382188	0.492811
	H4019	H	0.912994	0.444624	0.430317
	H4020	H	0.845630	0.429854	0.492867
	H4021	H	0.595503	0.492413	0.430256
	H4022	H	0.845360	0.444552	0.382339
	H4023	H	0.595543	0.382043	0.444886
	H4024	H	0.845511	0.382164	0.492780
	H4025	H	0.595746	0.444626	0.430208
	H4026	H	0.845355	0.492457	0.382213
	H4027	H	0.595696	0.429875	0.444661
	H4028	H	0.663026	0.444773	0.382019
	H4029	H	0.912678	0.382314	0.444512
	H4030	H	0.663528	0.429958	0.492686
	H4031	H	0.913239	0.492447	0.430262
	O4032	O	0.088605	0.478969	0.520309
	O4033	O	0.338714	0.416461	0.582801
	O4034	O	0.088761	0.395595	0.604631
	O4035	O	0.338675	0.458042	0.542089
	O4036	O	0.420434	0.416507	0.604600
	O4037	O	0.170328	0.479030	0.542108
	O4038	O	0.420593	0.458081	0.520324
	O4039	O	0.170537	0.395606	0.582777
	O4040	O	0.420599	0.395591	0.604658
	O4041	O	0.170515	0.458081	0.542150
	O4042	O	0.420450	0.478988	0.520330
	O4043	O	0.170521	0.416497	0.582818
	O4044	O	0.088671	0.458091	0.520326
	O4045	O	0.338703	0.395583	0.582814
	O4046	O	0.088539	0.416451	0.604660
	O4047	O	0.338400	0.478989	0.542123
	F4048	F	0.004723	0.406031	0.586183
	F4049	F	0.254534	0.468527	0.523738
	F4050	F	0.004784	0.468516	0.538743
	F4051	F	0.254612	0.406013	0.601214
	Al4052	Al	0.129663	0.406035	0.593714
	Al4053	Al	0.379515	0.468524	0.531227
	Al4054	Al	0.129624	0.468542	0.531250
	Al4055	Al	0.379560	0.406028	0.593711
	C4056	C	0.093922	0.495657	0.504067
	C4057	C	0.344066	0.433057	0.566427
	C4058	C	0.094003	0.378884	0.620809
	C4059	C	0.343950	0.441340	0.558309
	C4060	C	0.414949	0.433190	0.620825
	C4061	C	0.165244	0.495669	0.558408
	C4062	C	0.415347	0.441418	0.504053
	C4063	C	0.165051	0.379029	0.566418
	C4064	C	0.415190	0.379022	0.621055
	C4065	C	0.165226	0.441507	0.558567
	C4066	C	0.415118	0.495632	0.504042
	C4067	C	0.165298	0.433219	0.566683
	C4068	C	0.093889	0.441463	0.504006
	C4069	C	0.343811	0.378860	0.566673
	C4070	C	0.093762	0.433075	0.621004
	C4071	C	0.343940	0.495602	0.558460
	C4072	C	0.004462	0.491384	0.508180
	C4073	C	0.254710	0.428896	0.570716
	C4074	C	0.004556	0.383200	0.616783
	C4075	C	0.254580	0.445678	0.554297
	C4076	C	0.004337	0.428880	0.616764
	C4077	C	0.254564	0.491385	0.554262
	C4078	C	0.004463	0.445698	0.508157
	C4079	C	0.254433	0.383201	0.570658
	C4080	C	0.004474	0.482481	0.516921
	C4081	C	0.254672	0.419984	0.579429
	C4082	C	0.004673	0.392102	0.608050
	C4083	C	0.254590	0.454573	0.545531
	C4084	C	0.004413	0.419979	0.608009
	C4085	C	0.254449	0.482504	0.545520
	C4086	C	0.004493	0.454610	0.516894
	C4087	C	0.254621	0.392084	0.579427
	H4088	H	0.163258	0.492447	0.507239
	H4089	H	0.413335	0.429755	0.569453
	H4090	H	0.163401	0.382062	0.617579
	H4091	H	0.413202	0.444483	0.555038
	H4092	H	0.345738	0.430005	0.617614
	H4093	H	0.095886	0.492474	0.555232
	H4094	H	0.345985	0.444638	0.507206
	H4095	H	0.095860	0.382328	0.569479
	H4096	H	0.346049	0.382320	0.617988
	H4097	H	0.095848	0.444794	0.555502
	H4098	H	0.345889	0.492392	0.507181
	H4099	H	0.095950	0.430049	0.569926
	H4100	H	0.163186	0.444712	0.507136
	H4101	H	0.412889	0.382023	0.569950
	H4102	H	0.163109	0.429808	0.617926
	H4103	H	0.413247	0.492351	0.555345
	O4104	O	0.588693	0.478973	0.520304
	O4105	O	0.838332	0.416459	0.582753
	O4106	O	0.588746	0.395557	0.604625
	O4107	O	0.838489	0.458045	0.542142
	O4108	O	0.920447	0.416499	0.604552
	O4109	O	0.670251	0.478996	0.542137
	O4110	O	0.920580	0.458114	0.520269
	O4111	O	0.670414	0.395609	0.582755
	O4112	O	0.920645	0.395624	0.604697
	O4113	O	0.670234	0.458089	0.542174
	O4114	O	0.920481	0.478949	0.520276
	O4115	O	0.670058	0.416559	0.582884
	O4116	O	0.588715	0.458103	0.520267
	O4117	O	0.838593	0.395535	0.582814
	O4118	O	0.588565	0.416454	0.604661
	O4119	O	0.838523	0.478991	0.542161
	F4120	F	0.504591	0.406025	0.586222
	F4121	F	0.754687	0.468522	0.523760
	F4122	F	0.504491	0.468538	0.538726
	F4123	F	0.754719	0.406037	0.601183
	Al4124	Al	0.629618	0.406034	0.593717
	Al4125	Al	0.879731	0.468525	0.531238
	Al4126	Al	0.629549	0.468538	0.531228
	Al4127	Al	0.879828	0.406028	0.593684
	C4128	C	0.593944	0.495643	0.504038
	C4129	C	0.843573	0.433062	0.566418
	C4130	C	0.593949	0.378863	0.620839
	C4131	C	0.843662	0.441359	0.558325
	C4132	C	0.914835	0.433188	0.620842
	C4133	C	0.665036	0.495632	0.558419
	C4134	C	0.914920	0.441409	0.504082
	C4135	C	0.664946	0.379017	0.566382
	C4136	C	0.915067	0.379015	0.621031
	C4137	C	0.664746	0.441531	0.558572
	C4138	C	0.914931	0.495650	0.504053
	C4139	C	0.664680	0.433233	0.566670
	C4140	C	0.594247	0.441468	0.503964
	C4141	C	0.843853	0.378856	0.566664
	C4142	C	0.593772	0.433070	0.620997
	C4143	C	0.843734	0.495626	0.558471
	C4144	C	0.504566	0.491409	0.508199
	C4145	C	0.754136	0.428919	0.570711
	C4146	C	0.504616	0.383190	0.616812
	C4147	C	0.754232	0.445677	0.554288
	C4148	C	0.504364	0.428877	0.616763
	C4149	C	0.754424	0.491385	0.554289
	C4150	C	0.504727	0.445688	0.508162
	C4151	C	0.754397	0.383180	0.570651
	C4152	C	0.504578	0.482496	0.516942
	C4153	C	0.754208	0.420009	0.579430
	C4154	C	0.504673	0.392079	0.608050
	C4155	C	0.754319	0.454569	0.545537
	C4156	C	0.504506	0.419980	0.608027
	C4157	C	0.754392	0.482499	0.545529
	C4158	C	0.504625	0.454600	0.516884
	C4159	C	0.754428	0.392063	0.579410
	H4160	H	0.663168	0.492406	0.507168
	H4161	H	0.912972	0.429748	0.569441
	H4162	H	0.663160	0.382021	0.617592
	H4163	H	0.913024	0.444523	0.555077
	H4164	H	0.845449	0.430016	0.617624
	H4165	H	0.595711	0.492419	0.555235
	H4166	H	0.845642	0.444615	0.507275
	H4167	H	0.595799	0.382312	0.569464
	H4168	H	0.845660	0.382303	0.617989
	H4169	H	0.595511	0.444837	0.555530
	H4170	H	0.845601	0.492437	0.507225
	H4171	H	0.595286	0.430066	0.569908
	H4172	H	0.663644	0.444731	0.507043
	H4173	H	0.912964	0.382011	0.569963
	H4174	H	0.663043	0.429783	0.617933
	H4175	H	0.912959	0.492396	0.555332
	O4176	O	0.088395	0.478980	0.645342
	O4177	O	0.338597	0.416456	0.707795
	O4178	O	0.088396	0.395571	0.729624
	O4179	O	0.338701	0.458082	0.667207
	O4180	O	0.420347	0.416486	0.729666
	O4181	O	0.170549	0.478980	0.667129
	O4182	O	0.420490	0.458062	0.645322
	O4183	O	0.170667	0.395595	0.707821
	O4184	O	0.420401	0.395598	0.729723
	O4185	O	0.170537	0.458081	0.667176
	O4186	O	0.420526	0.478995	0.645381
	O4187	O	0.170444	0.416527	0.707875
	O4188	O	0.088639	0.458029	0.645387
	O4189	O	0.338773	0.395506	0.707915
	O4190	O	0.088649	0.416483	0.729678
	O4191	O	0.338728	0.478923	0.667224
	F4192	F	0.004715	0.406043	0.711226
	F4193	F	0.254615	0.468526	0.648774
	F4194	F	0.004801	0.468520	0.663780
	F4195	F	0.254416	0.406033	0.726258
	Al4196	Al	0.129609	0.406041	0.718744
	Al4197	Al	0.379632	0.468501	0.656262
	Al4198	Al	0.129706	0.468521	0.656244
	Al4199	Al	0.379458	0.406020	0.718760
	C4200	C	0.093569	0.495618	0.629021
	C4201	C	0.343954	0.433044	0.691416
	C4202	C	0.093513	0.378840	0.745783
	C4203	C	0.343903	0.441337	0.683302
	C4204	C	0.415001	0.433079	0.746032
	C4205	C	0.165241	0.495652	0.683366
	C4206	C	0.414932	0.441481	0.628960
	C4207	C	0.165328	0.378995	0.691436
	C4208	C	0.414994	0.379042	0.746115
	C4209	C	0.165035	0.441492	0.683563
	C4210	C	0.415256	0.495639	0.629079
	C4211	C	0.165134	0.433213	0.691669
	C4212	C	0.093821	0.441362	0.629140
	C4213	C	0.344122	0.378867	0.691640
	C4214	C	0.093776	0.433175	0.745880
	C4215	C	0.343966	0.495577	0.683498
	C4216	C	0.004251	0.491381	0.633202
	C4217	C	0.254544	0.428884	0.695689
	C4218	C	0.004159	0.383184	0.741797
	C4219	C	0.254492	0.445685	0.679333
	C4220	C	0.004369	0.428875	0.741810
	C4221	C	0.254641	0.491370	0.679277
	C4222	C	0.004412	0.445669	0.633199
	C4223	C	0.254676	0.383158	0.695705
	C4224	C	0.004326	0.482497	0.641982
	C4225	C	0.254544	0.420012	0.704477
	C4226	C	0.004289	0.392099	0.733051
	C4227	C	0.254572	0.454570	0.670573
	C4228	C	0.004476	0.419975	0.733064
	C4229	C	0.254645	0.482452	0.670567
	C4230	C	0.004467	0.454560	0.641969
	C4231	C	0.254677	0.392047	0.704471
	H4232	H	0.162879	0.492396	0.632166
	H4233	H	0.413266	0.429739	0.694485
	H4234	H	0.162765	0.381984	0.742503
	H4235	H	0.413217	0.444487	0.680008
	H4236	H	0.345724	0.429804	0.742950
	H4237	H	0.095863	0.492465	0.680170
	H4238	H	0.345790	0.444756	0.632064
	H4239	H	0.096065	0.382279	0.694487
	H4240	H	0.345848	0.382380	0.743113
	H4241	H	0.095719	0.444760	0.680500
	H4242	H	0.346051	0.492414	0.632238
	H4243	H	0.095845	0.430066	0.694932
	H4244	H	0.163169	0.444529	0.632374
	H4245	H	0.413254	0.382057	0.694881
	H4246	H	0.163127	0.429998	0.742663
	H4247	H	0.413369	0.492324	0.680420
	O4248	O	0.588604	0.478920	0.645314
	O4249	O	0.838319	0.416475	0.707820
	O4250	O	0.588542	0.395564	0.729654
	O4251	O	0.838686	0.458015	0.667121
	O4252	O	0.920515	0.416476	0.729647
	O4253	O	0.669995	0.478973	0.667176
	O4254	O	0.920530	0.458087	0.645345
	O4255	O	0.670488	0.395544	0.707868
	O4256	O	0.920394	0.395623	0.729675
	O4257	O	0.670531	0.458121	0.667254
	O4258	O	0.920396	0.479016	0.645432
	O4259	O	0.670100	0.416526	0.707903
	O4260	O	0.588645	0.458036	0.645356
	O4261	O	0.838652	0.395559	0.707832
	O4262	O	0.588508	0.416476	0.729684
	O4263	O	0.838102	0.478924	0.667229
	F4264	F	0.504457	0.406008	0.711269
	F4265	F	0.754733	0.468510	0.648788
	F4266	F	0.504596	0.468490	0.663751
	F4267	F	0.754623	0.406035	0.726223
	Al4268	Al	0.629521	0.406025	0.718761
	Al4269	Al	0.879849	0.468518	0.656281
	Al4270	Al	0.629630	0.468508	0.656245
	Al4271	Al	0.879743	0.406030	0.718720
	C4272	C	0.594138	0.495606	0.629026
	C4273	C	0.843694	0.433033	0.691427
	C4274	C	0.593704	0.378791	0.745757
	C4275	C	0.843779	0.441328	0.683314
	C4276	C	0.914834	0.433077	0.746024
	C4277	C	0.664764	0.495641	0.683421
	C4278	C	0.914898	0.441469	0.628977
	C4279	C	0.665109	0.379003	0.691454
	C4280	C	0.914786	0.379034	0.746111
	C4281	C	0.665015	0.441499	0.683575
	C4282	C	0.914812	0.495657	0.629071
	C4283	C	0.664919	0.433214	0.691676
	C4284	C	0.593755	0.441363	0.629121
	C4285	C	0.843711	0.378865	0.691624
	C4286	C	0.593844	0.433172	0.745883
	C4287	C	0.843553	0.495564	0.683496
	C4288	C	0.504723	0.491371	0.633217
	C4289	C	0.754276	0.428885	0.695709
	C4290	C	0.504428	0.383159	0.741800
	C4291	C	0.754414	0.445664	0.679306
	C4292	C	0.504407	0.428874	0.741822
	C4293	C	0.754126	0.491360	0.679283
	C4294	C	0.504370	0.445657	0.633186
	C4295	C	0.754474	0.383156	0.695718
	C4296	C	0.504644	0.482476	0.641972
	C4297	C	0.754203	0.420001	0.704472
	C4298	C	0.504500	0.392066	0.733064
	C4299	C	0.754562	0.454569	0.670569
	C4300	C	0.504436	0.419981	0.733071
	C4301	C	0.754094	0.482476	0.670548
	C4302	C	0.504553	0.454553	0.641935
	C4303	C	0.754548	0.392064	0.704443
	H4304	H	0.663446	0.492356	0.632138
	H4305	H	0.913044	0.429728	0.694474
	H4306	H	0.662945	0.381919	0.742457
	H4307	H	0.913203	0.444488	0.680039
	H4308	H	0.845507	0.429810	0.742928
	H4309	H	0.595330	0.492440	0.680266
	H4310	H	0.845587	0.444733	0.632075
	H4311	H	0.595998	0.382302	0.694523
	H4312	H	0.845568	0.382352	0.743092
	H4313	H	0.595747	0.444796	0.680541
	H4314	H	0.845484	0.492464	0.632260
	H4315	H	0.595591	0.430073	0.694924
	H4316	H	0.663030	0.444534	0.632356
	H4317	H	0.913007	0.382039	0.694829
	H4318	H	0.663162	0.429986	0.742673
	H4319	H	0.912998	0.492307	0.680415
	O4320	O	0.088596	0.478975	0.770371
	O4321	O	0.338762	0.416484	0.832869
	O4322	O	0.088660	0.395538	0.854666
	O4323	O	0.338751	0.458085	0.792223
	O4324	O	0.420616	0.416458	0.854655
	O4325	O	0.170406	0.479006	0.792131
	O4326	O	0.420440	0.458051	0.770383
	O4327	O	0.170488	0.395533	0.832851
	O4328	O	0.420310	0.395542	0.854645
	O4329	O	0.170638	0.458006	0.792117
	O4330	O	0.420580	0.478985	0.770344
	O4331	O	0.170583	0.416448	0.832834
	O4332	O	0.088561	0.458093	0.770283
	O4333	O	0.338594	0.395559	0.832834
	O4334	O	0.088307	0.416460	0.854626
	O4335	O	0.338516	0.478979	0.792198
	F4336	F	0.004557	0.405990	0.836229
	F4337	F	0.254661	0.468520	0.773753
	F4338	F	0.004939	0.468515	0.788787
	F4339	F	0.254397	0.405997	0.851249
	Al4340	Al	0.129463	0.405990	0.843751
	Al4341	Al	0.379733	0.468524	0.781273
	Al4342	Al	0.129758	0.468514	0.781228
	Al4343	Al	0.379510	0.406008	0.843766
	C4344	C	0.093832	0.495637	0.754064
	C4345	C	0.344068	0.433196	0.816706
	C4346	C	0.093848	0.378930	0.871035
	C4347	C	0.343988	0.441487	0.808604
	C4348	C	0.415122	0.433090	0.870969
	C4349	C	0.164958	0.495667	0.808383
	C4350	C	0.414942	0.441381	0.754139
	C4351	C	0.165139	0.378934	0.816518
	C4352	C	0.414936	0.378912	0.870967
	C4353	C	0.165221	0.441325	0.808363
	C4354	C	0.415229	0.495630	0.754072
	C4355	C	0.165213	0.433033	0.816466
	C4356	C	0.093713	0.441473	0.753990
	C4357	C	0.343892	0.378859	0.816611
	C4358	C	0.093765	0.433102	0.870941
	C4359	C	0.343886	0.495566	0.808567
	C4360	C	0.004476	0.491362	0.758200
	C4361	C	0.254644	0.428890	0.820750
	C4362	C	0.004460	0.383152	0.866832
	C4363	C	0.254617	0.445643	0.804329
	C4364	C	0.004234	0.428862	0.866796
	C4365	C	0.254378	0.491376	0.804295
	C4366	C	0.004255	0.445670	0.758199
	C4367	C	0.254548	0.383149	0.820694
	C4368	C	0.004476	0.482453	0.766943
	C4369	C	0.254646	0.419984	0.829483
	C4370	C	0.004603	0.392044	0.858069
	C4371	C	0.254706	0.454543	0.795573
	C4372	C	0.004306	0.419957	0.858045
	C4373	C	0.254402	0.482502	0.795550
	C4374	C	0.004396	0.454568	0.766945
	C4375	C	0.254558	0.392042	0.829446
	H4376	H	0.163217	0.492426	0.757207
	H4377	H	0.413314	0.430022	0.819970
	H4378	H	0.163193	0.382175	0.867926
	H4379	H	0.413165	0.444807	0.805558
	H4380	H	0.345931	0.429827	0.867850
	H4381	H	0.095444	0.492494	0.805181
	H4382	H	0.345774	0.444572	0.757358
	H4383	H	0.095924	0.382177	0.819658
	H4384	H	0.345584	0.382106	0.867793
	H4385	H	0.095858	0.444478	0.805127
	H4386	H	0.346020	0.492389	0.757205
	H4387	H	0.095917	0.429747	0.819497
	H4388	H	0.162976	0.444748	0.757077
	H4389	H	0.413180	0.382042	0.819835
	H4390	H	0.163090	0.429873	0.867788
	H4391	H	0.413311	0.492304	0.805504
	O4392	O	0.588733	0.478950	0.770288
	O4393	O	0.838467	0.416478	0.832841
	O4394	O	0.588428	0.395578	0.854731
	O4395	O	0.838380	0.458073	0.792233
	O4396	O	0.920219	0.416452	0.854683
	O4397	O	0.670441	0.478975	0.792153
	O4398	O	0.920482	0.458053	0.770394
	O4399	O	0.670115	0.395545	0.832860
	O4400	O	0.920585	0.395552	0.854666
	O4401	O	0.670221	0.458007	0.792079
	O4402	O	0.920517	0.478936	0.770328
	O4403	O	0.670353	0.416454	0.832841
	O4404	O	0.588569	0.458108	0.770263
	O4405	O	0.838272	0.395508	0.832864
	O4406	O	0.588794	0.416442	0.854722
	O4407	O	0.838575	0.478972	0.792216
	F4408	F	0.504487	0.406015	0.836271
	F4409	F	0.754945	0.468512	0.773774
	F4410	F	0.504782	0.468525	0.788732
	F4411	F	0.754648	0.405978	0.851254
	Al4412	Al	0.629554	0.406004	0.843769
	Al4413	Al	0.879958	0.468520	0.781304
	Al4414	Al	0.629775	0.468515	0.781207
	Al4415	Al	0.879663	0.405984	0.843729
	C4416	C	0.593988	0.495625	0.754044
	C4417	C	0.843647	0.433228	0.816714
	C4418	C	0.593804	0.378960	0.871017
	C4419	C	0.843546	0.441518	0.808613
	C4420	C	0.914818	0.433110	0.870964
	C4421	C	0.664868	0.495652	0.808387
	C4422	C	0.914774	0.441371	0.754139
	C4423	C	0.664638	0.378954	0.816479
	C4424	C	0.914911	0.378892	0.870941
	C4425	C	0.664823	0.441318	0.808327
	C4426	C	0.914985	0.495641	0.754095
	C4427	C	0.664882	0.433031	0.816442
	C4428	C	0.593821	0.441475	0.753986
	C4429	C	0.843429	0.378887	0.816633
	C4430	C	0.593822	0.433127	0.870949
	C4431	C	0.843829	0.495550	0.808535
	C4432	C	0.504623	0.491381	0.758204
	C4433	C	0.754303	0.428885	0.820725
	C4434	C	0.504343	0.383173	0.866837
	C4435	C	0.754127	0.445659	0.804319
	C4436	C	0.504529	0.428866	0.866797
	C4437	C	0.754351	0.491356	0.804291
	C4438	C	0.504350	0.445663	0.758209
	C4439	C	0.753976	0.383148	0.820712
	C4440	C	0.504660	0.482459	0.766910
	C4441	C	0.754372	0.419981	0.829461
	C4442	C	0.504320	0.392042	0.858051
	C4443	C	0.754233	0.454549	0.795562
	C4444	C	0.504654	0.419959	0.858062
	C4445	C	0.754437	0.482477	0.795563
	C4446	C	0.504463	0.454563	0.766949
	C4447	C	0.754118	0.392027	0.829483
	H4448	H	0.663326	0.492394	0.757143
	H4449	H	0.912877	0.430074	0.819987
	H4450	H	0.663094	0.382205	0.867888
	H4451	H	0.912647	0.444852	0.805568
	H4452	H	0.845403	0.429885	0.867838
	H4453	H	0.595373	0.492485	0.805174
	H4454	H	0.845521	0.444559	0.757359
	H4455	H	0.595318	0.382224	0.819557
	H4456	H	0.845629	0.382103	0.867761
	H4457	H	0.595420	0.444452	0.805069
	H4458	H	0.845712	0.492421	0.757265
	H4459	H	0.595575	0.429733	0.819476
	H4460	H	0.663147	0.444753	0.757076
	H4461	H	0.912724	0.382086	0.819837
	H4462	H	0.663076	0.429896	0.867821
	H4463	H	0.913355	0.492303	0.805453
	O4464	O	0.088622	0.478939	0.895311
	O4465	O	0.338694	0.416497	0.957891
	O4466	O	0.088509	0.395589	0.979690
	O4467	O	0.338586	0.458092	0.917236
	O4468	O	0.420600	0.416482	0.979687
	O4469	O	0.170657	0.478961	0.917139
	O4470	O	0.420472	0.458057	0.895373
	O4471	O	0.170214	0.395522	0.957884
	O4472	O	0.420482	0.395549	0.979663
	O4473	O	0.170444	0.458056	0.917170
	O4474	O	0.420545	0.478979	0.895392
	O4475	O	0.170564	0.416468	0.957851
	O4476	O	0.088694	0.458083	0.895284
	O4477	O	0.338433	0.395583	0.957830
	O4478	O	0.088569	0.416518	0.979620
	O4479	O	0.338834	0.478971	0.917198
	F4480	F	0.004710	0.406045	0.961227
	F4481	F	0.254739	0.468504	0.898772
	F4482	F	0.004843	0.468519	0.913773
	F4483	F	0.254627	0.406020	0.976273
	Al4484	Al	0.129721	0.406019	0.968758
	Al4485	Al	0.379747	0.468506	0.906275
	Al4486	Al	0.129730	0.468510	0.906233
	Al4487	Al	0.379537	0.406019	0.968770
	C4488	C	0.093697	0.495525	0.878963
	C4489	C	0.344003	0.433123	0.941563
	C4490	C	0.093973	0.378926	0.995947
	C4491	C	0.343932	0.441411	0.933478
	C4492	C	0.415173	0.433078	0.995997
	C4493	C	0.165062	0.495619	0.933433
	C4494	C	0.415038	0.441397	0.879071
	C4495	C	0.164844	0.378887	0.941584
	C4496	C	0.415342	0.378972	0.996035
	C4497	C	0.165149	0.441414	0.933460
	C4498	C	0.414948	0.495700	0.879203
	C4499	C	0.165208	0.433107	0.941565
	C4500	C	0.093842	0.441408	0.879041
	C4501	C	0.343786	0.378931	0.941557
	C4502	C	0.093825	0.433144	0.995913
	C4503	C	0.343884	0.495612	0.933451
	C4504	C	0.004255	0.491368	0.883241
	C4505	C	0.254625	0.428885	0.945731
	C4506	C	0.004422	0.383191	0.991824
	C4507	C	0.254532	0.445654	0.929320
	C4508	C	0.004407	0.428870	0.991829
	C4509	C	0.254550	0.491357	0.929311
	C4510	C	0.004430	0.445641	0.883214
	C4511	C	0.254327	0.383160	0.945712
	C4512	C	0.004533	0.482465	0.891980
	C4513	C	0.254637	0.419987	0.954480
	C4514	C	0.004454	0.392101	0.983080
	C4515	C	0.254510	0.454578	0.920599
	C4516	C	0.004502	0.419963	0.983068
	C4517	C	0.254686	0.482457	0.920573
	C4518	C	0.004629	0.454553	0.891944
	C4519	C	0.254384	0.392050	0.954463
	H4520	H	0.163055	0.492223	0.881986
	H4521	H	0.413328	0.429908	0.944701
	H4522	H	0.163434	0.382132	0.992772
	H4523	H	0.413229	0.444644	0.930362
	H4524	H	0.346060	0.429808	0.992868
	H4525	H	0.095779	0.492404	0.930253
	H4526	H	0.345824	0.444608	0.882245
	H4527	H	0.095368	0.382083	0.944724
	H4528	H	0.345973	0.382206	0.992909
	H4529	H	0.095982	0.444668	0.930322
	H4530	H	0.345660	0.492535	0.882451
	H4531	H	0.096031	0.429859	0.944736
	H4532	H	0.163164	0.444644	0.882171
	H4533	H	0.413232	0.382162	0.944671
	H4534	H	0.163180	0.429952	0.992716
	H4535	H	0.413259	0.492397	0.930306
	O4536	O	0.588670	0.478922	0.895260
	O4537	O	0.838368	0.416503	0.957824
	O4538	O	0.588643	0.395570	0.979655
	O4539	O	0.838573	0.458059	0.917206
	O4540	O	0.920559	0.416441	0.979710
	O4541	O	0.670249	0.478995	0.917122
	O4542	O	0.920614	0.458041	0.895355
	O4543	O	0.670279	0.395550	0.957883
	O4544	O	0.920444	0.395582	0.979666
	O4545	O	0.670377	0.458058	0.917142
	O4546	O	0.920550	0.478971	0.895393
	O4547	O	0.670162	0.416481	0.957820
	O4548	O	0.588587	0.458041	0.895349
	O4549	O	0.838470	0.395573	0.957850
	O4550	O	0.588710	0.416465	0.979674
	O4551	O	0.838478	0.478937	0.917231
	F4552	F	0.504502	0.406033	0.961266
	F4553	F	0.754784	0.468502	0.898783
	F4554	F	0.504772	0.468504	0.913762
	F4555	F	0.754661	0.406038	0.976232
	Al4556	Al	0.629540	0.406028	0.968765
	Al4557	Al	0.879919	0.468504	0.906298
	Al4558	Al	0.629664	0.468511	0.906240
	Al4559	Al	0.879819	0.406036	0.968731
	C4560	C	0.593760	0.495546	0.878949
	C4561	C	0.843752	0.433137	0.941575
	C4562	C	0.594285	0.378918	0.995942
	C4563	C	0.843831	0.441418	0.933488
	C4564	C	0.914934	0.433084	0.996032
	C4565	C	0.664884	0.495644	0.933434
	C4566	C	0.914899	0.441416	0.879061
	C4567	C	0.665022	0.378896	0.941631
	C4568	C	0.914846	0.378986	0.996015
	C4569	C	0.664725	0.441429	0.933436
	C4570	C	0.914858	0.495710	0.879216
	C4571	C	0.664608	0.433130	0.941550
	C4572	C	0.593741	0.441438	0.879042
	C4573	C	0.843846	0.378960	0.941523
	C4574	C	0.594060	0.433153	0.995925
	C4575	C	0.843703	0.495596	0.933492
	C4576	C	0.504342	0.491362	0.883203
	C4577	C	0.754143	0.428891	0.945692
	C4578	C	0.504801	0.383199	0.991857
	C4579	C	0.754315	0.445675	0.929332
	C4580	C	0.504669	0.428867	0.991829
	C4581	C	0.754275	0.491353	0.929356
	C4582	C	0.504386	0.445655	0.883206
	C4583	C	0.754457	0.383160	0.945744
	C4584	C	0.504539	0.482451	0.891929
	C4585	C	0.754217	0.420002	0.954449
	C4586	C	0.504624	0.392061	0.983058
	C4587	C	0.754389	0.454551	0.920553
	C4588	C	0.504708	0.419970	0.983075
	C4589	C	0.754332	0.482475	0.920559
	C4590	C	0.504454	0.454540	0.891972
	C4591	C	0.754372	0.392060	0.954481
	H4592	H	0.663089	0.492253	0.881981
	H4593	H	0.913201	0.429923	0.944729
	H4594	H	0.663663	0.382100	0.992738
	H4595	H	0.913215	0.444628	0.930348
	H4596	H	0.845724	0.429814	0.992922
	H4597	H	0.595586	0.492454	0.930221
	H4598	H	0.845632	0.444660	0.882202
	H4599	H	0.595671	0.382093	0.944797
	H4600	H	0.845503	0.382248	0.992898
	H4601	H	0.595487	0.444669	0.930248
	H4602	H	0.845498	0.492552	0.882453
	H4603	H	0.595191	0.429890	0.944715
	H4604	H	0.662875	0.444672	0.882192
	H4605	H	0.913270	0.382209	0.944603
	H4606	H	0.663335	0.429946	0.992736
	H4607	H	0.912974	0.492369	0.930327
	O4608	O	0.088414	0.603951	0.020257
	O4609	O	0.338552	0.541491	0.082822
	O4610	O	0.088631	0.520576	0.104674
	O4611	O	0.338657	0.583058	0.042153
	O4612	O	0.420579	0.541477	0.104710
	O4613	O	0.170435	0.604003	0.042107
	O4614	O	0.420358	0.583099	0.020288
	O4615	O	0.170440	0.520594	0.082788
	O4616	O	0.420392	0.520584	0.104644
	O4617	O	0.170543	0.583091	0.042164
	O4618	O	0.420602	0.603970	0.020336
	O4619	O	0.170451	0.541473	0.082826
	O4620	O	0.088669	0.583071	0.020356
	O4621	O	0.338589	0.520590	0.082843
	O4622	O	0.088428	0.541461	0.104684
	O4623	O	0.338714	0.603947	0.042198
	F4624	F	0.004742	0.531031	0.086228
	F4625	F	0.254586	0.593527	0.023756
	F4626	F	0.004724	0.593532	0.038762
	F4627	F	0.254635	0.531030	0.101243
	Al4628	Al	0.129546	0.531020	0.093752
	Al4629	Al	0.379630	0.593516	0.031250
	Al4630	Al	0.129564	0.593534	0.031237
	Al4631	Al	0.379535	0.531033	0.093739
	C4632	C	0.093694	0.620583	0.003973
	C4633	C	0.343834	0.558107	0.066499
	C4634	C	0.093840	0.503969	0.120993
	C4635	C	0.343882	0.566385	0.058407
	C4636	C	0.415099	0.558128	0.120990
	C4637	C	0.165027	0.620630	0.058435
	C4638	C	0.415038	0.566467	0.003975
	C4639	C	0.165193	0.503937	0.066508
	C4640	C	0.415044	0.503916	0.120897
	C4641	C	0.165179	0.566449	0.058471
	C4642	C	0.415059	0.620663	0.004146
	C4643	C	0.165088	0.558144	0.066586
	C4644	C	0.093967	0.566384	0.004105
	C4645	C	0.343808	0.503899	0.066595
	C4646	C	0.093566	0.558146	0.120894
	C4647	C	0.343699	0.620611	0.058453
	C4648	C	0.004130	0.616377	0.008165
	C4649	C	0.254480	0.553881	0.070690
	C4650	C	0.004396	0.508182	0.116796
	C4651	C	0.254573	0.570682	0.054311
	C4652	C	0.004159	0.553879	0.116784
	C4653	C	0.254412	0.616376	0.054306
	C4654	C	0.004529	0.570707	0.008165
	C4655	C	0.254526	0.508183	0.070686
	C4656	C	0.004224	0.607475	0.016901
	C4657	C	0.254483	0.544992	0.079447
	C4658	C	0.004535	0.517093	0.108063
	C4659	C	0.254567	0.579571	0.045555
	C4660	C	0.004371	0.544964	0.108045
	C4661	C	0.254570	0.607471	0.045548
	C4662	C	0.004563	0.579577	0.016960
	C4663	C	0.254576	0.517084	0.079427
	H4664	H	0.163104	0.617320	0.007068
	H4665	H	0.413276	0.554882	0.069586
	H4666	H	0.163179	0.507235	0.117903
	H4667	H	0.413341	0.569551	0.055228
	H4668	H	0.345781	0.554892	0.117863
	H4669	H	0.095674	0.617431	0.055278
	H4670	H	0.345731	0.569745	0.007042
	H4671	H	0.095918	0.507172	0.069614
	H4672	H	0.345810	0.507121	0.117710
	H4673	H	0.096102	0.569713	0.055317
	H4674	H	0.345699	0.617491	0.007381
	H4675	H	0.095991	0.554911	0.069785
	H4676	H	0.163422	0.569554	0.007318
	H4677	H	0.413193	0.507095	0.069756
	H4678	H	0.162920	0.554936	0.117736
	H4679	H	0.413012	0.617399	0.055325
	O4680	O	0.588719	0.603944	0.020293
	O4681	O	0.838530	0.541436	0.082751
	O4682	O	0.588533	0.520623	0.104724
	O4683	O	0.838459	0.583070	0.042163
	O4684	O	0.920401	0.541484	0.104633
	O4685	O	0.670171	0.603922	0.042209
	O4686	O	0.920571	0.583093	0.020345
	O4687	O	0.670232	0.520575	0.082856
	O4688	O	0.920476	0.520572	0.104658
	O4689	O	0.670253	0.583061	0.042177
	O4690	O	0.920231	0.604020	0.020370
	O4691	O	0.670376	0.541518	0.082846
	O4692	O	0.588485	0.583108	0.020278
	O4693	O	0.838427	0.520569	0.082822
	O4694	O	0.588647	0.541493	0.104673
	O4695	O	0.838265	0.603999	0.042147
	F4696	F	0.504498	0.531061	0.086263
	F4697	F	0.754687	0.593508	0.023770
	F4698	F	0.504484	0.593508	0.038732
	F4699	F	0.754663	0.531043	0.101209
	Al4700	Al	0.629609	0.531040	0.093746
	Al4701	Al	0.879692	0.593533	0.031281
	Al4702	Al	0.629560	0.593519	0.031230
	Al4703	Al	0.879786	0.531034	0.093705
	C4704	C	0.594039	0.620549	0.003946
	C4705	C	0.843915	0.558130	0.066510
	C4706	C	0.593895	0.504008	0.121020
	C4707	C	0.843839	0.566416	0.058424
	C4708	C	0.914701	0.558121	0.120966
	C4709	C	0.664995	0.620636	0.058431
	C4710	C	0.914953	0.566493	0.003990
	C4711	C	0.664691	0.503983	0.066514
	C4712	C	0.914866	0.503915	0.120890
	C4713	C	0.664965	0.566483	0.058507
	C4714	C	0.914511	0.620708	0.004137
	C4715	C	0.665002	0.558179	0.066619
	C4716	C	0.593923	0.566366	0.004139
	C4717	C	0.843568	0.503891	0.066605
	C4718	C	0.594002	0.558152	0.120934
	C4719	C	0.843341	0.620622	0.058438
	C4720	C	0.504602	0.616347	0.008182
	C4721	C	0.754471	0.553896	0.070689
	C4722	C	0.504436	0.508201	0.116815
	C4723	C	0.754439	0.570694	0.054329
	C4724	C	0.504575	0.553892	0.116799
	C4725	C	0.754118	0.616371	0.054271
	C4726	C	0.504477	0.570675	0.008200
	C4727	C	0.754146	0.508179	0.070702
	C4728	C	0.504657	0.607453	0.016921
	C4729	C	0.754504	0.544986	0.079420
	C4730	C	0.504426	0.517096	0.108068
	C4731	C	0.754403	0.579569	0.045559
	C4732	C	0.504639	0.544989	0.108084
	C4733	C	0.754164	0.607473	0.045546
	C4734	C	0.504436	0.579590	0.016907
	C4735	C	0.754261	0.517082	0.079436
	H4736	H	0.663336	0.617269	0.007017
	H4737	H	0.913463	0.554905	0.069595
	H4738	H	0.663173	0.507280	0.117946
	H4739	H	0.913246	0.569586	0.055257
	H4740	H	0.845343	0.554880	0.117854
	H4741	H	0.595640	0.617424	0.055312
	H4742	H	0.845665	0.569757	0.007100
	H4743	H	0.595392	0.507230	0.069623
	H4744	H	0.845522	0.507128	0.117707
	H4745	H	0.595844	0.569752	0.055369
	H4746	H	0.845039	0.617537	0.007377
	H4747	H	0.595837	0.554956	0.069832
	H4748	H	0.663284	0.569556	0.007339
	H4749	H	0.912986	0.507076	0.069793
	H4750	H	0.663339	0.554941	0.117764
	H4751	H	0.912678	0.617405	0.055341
	O4752	O	0.088662	0.604002	0.145366
	O4753	O	0.338632	0.541518	0.207870
	O4754	O	0.088645	0.520610	0.229714
	O4755	O	0.338647	0.583111	0.167183
	O4756	O	0.420504	0.541486	0.229664
	O4757	O	0.170456	0.603950	0.167206
	O4758	O	0.420484	0.583097	0.145317
	O4759	O	0.170364	0.520577	0.207837
	O4760	O	0.420423	0.520577	0.229664
	O4761	O	0.170538	0.583070	0.167155
	O4762	O	0.420599	0.603969	0.145260
	O4763	O	0.170476	0.541477	0.207795
	O4764	O	0.088438	0.583095	0.145325
	O4765	O	0.338554	0.520605	0.207822
	O4766	O	0.088686	0.541495	0.229644
	O4767	O	0.338600	0.604015	0.167131
	F4768	F	0.004777	0.531027	0.211212
	F4769	F	0.254433	0.593534	0.148734
	F4770	F	0.004688	0.593542	0.163779
	F4771	F	0.254484	0.531059	0.226245
	Al4772	Al	0.129507	0.531047	0.218738
	Al4773	Al	0.379462	0.593537	0.156222
	Al4774	Al	0.129521	0.593530	0.156253
	Al4775	Al	0.379558	0.531048	0.218777
	C4776	C	0.093932	0.620700	0.129141
	C4777	C	0.343813	0.558149	0.191585
	C4778	C	0.093728	0.503957	0.245986
	C4779	C	0.343896	0.566476	0.183481
	C4780	C	0.415224	0.558116	0.245992
	C4781	C	0.165101	0.620552	0.183572
	C4782	C	0.415115	0.566441	0.129096
	C4783	C	0.165018	0.503942	0.191548
	C4784	C	0.415107	0.503895	0.245897
	C4785	C	0.165247	0.566411	0.183418
	C4786	C	0.415183	0.620595	0.128945
	C4787	C	0.165208	0.558128	0.191483
	C4788	C	0.093607	0.566446	0.129009
	C4789	C	0.344009	0.503952	0.191543
	C4790	C	0.093899	0.558176	0.245898
	C4791	C	0.343925	0.620754	0.183276
	C4792	C	0.004574	0.616378	0.133182
	C4793	C	0.254415	0.553907	0.195706
	C4794	C	0.004328	0.508179	0.241799
	C4795	C	0.254554	0.570682	0.179301
	C4796	C	0.004538	0.553894	0.241788
	C4797	C	0.254525	0.616406	0.179275
	C4798	C	0.004268	0.570680	0.133190
	C4799	C	0.254572	0.508194	0.195694
	C4800	C	0.004606	0.607478	0.141954
	C4801	C	0.254537	0.545008	0.204453
	C4802	C	0.004599	0.517086	0.233059
	C4803	C	0.254618	0.579581	0.170552
	C4804	C	0.004651	0.544988	0.233040
	C4805	C	0.254494	0.607507	0.170528
	C4806	C	0.004427	0.579596	0.141944
	C4807	C	0.254486	0.517081	0.204449
	H4808	H	0.163266	0.617528	0.132371
	H4809	H	0.412624	0.554868	0.194789
	H4810	H	0.163053	0.507219	0.242883
	H4811	H	0.412813	0.569756	0.180321
	H4812	H	0.345992	0.554862	0.242881
	H4813	H	0.095693	0.617252	0.180550
	H4814	H	0.345940	0.569689	0.132258
	H4815	H	0.095586	0.507165	0.194685
	H4816	H	0.345831	0.507098	0.242695
	H4817	H	0.095764	0.569561	0.180267
	H4818	H	0.345856	0.617328	0.132015
	H4819	H	0.095650	0.554896	0.194524
	H4820	H	0.162949	0.569679	0.132131
	H4821	H	0.413466	0.507169	0.194676
	H4822	H	0.163217	0.554993	0.242701
	H4823	H	0.413354	0.617621	0.180006
	O4824	O	0.588780	0.604003	0.145349
	O4825	O	0.838622	0.541509	0.207836
	O4826	O	0.588621	0.520569	0.229659
	O4827	O	0.838243	0.583074	0.167189
	O4828	O	0.920647	0.541470	0.229685
	O4829	O	0.670346	0.603965	0.167214
	O4830	O	0.920445	0.583068	0.145380
	O4831	O	0.670461	0.520581	0.207846
	O4832	O	0.920554	0.520556	0.229620
	O4833	O	0.670181	0.583087	0.167172
	O4834	O	0.920632	0.603953	0.145324
	O4835	O	0.670501	0.541486	0.207868
	O4836	O	0.588652	0.583078	0.145365
	O4837	O	0.838610	0.520573	0.207802
	O4838	O	0.588701	0.541500	0.229646
	O4839	O	0.838560	0.604020	0.167129
	F4840	F	0.504478	0.531037	0.211268
	F4841	F	0.754655	0.593545	0.148805
	F4842	F	0.504394	0.593555	0.163728
	F4843	F	0.754732	0.531010	0.226225
	Al4844	Al	0.629645	0.531028	0.218751
	Al4845	Al	0.879731	0.593539	0.156289
	Al4846	Al	0.629532	0.593546	0.156280
	Al4847	Al	0.879851	0.531035	0.218710
	C4848	C	0.594097	0.620703	0.129116
	C4849	C	0.843595	0.558163	0.191608
	C4850	C	0.594077	0.503966	0.245988
	C4851	C	0.843516	0.566476	0.183488
	C4852	C	0.915010	0.558097	0.245985
	C4853	C	0.664982	0.620545	0.183591
	C4854	C	0.914823	0.566413	0.129079
	C4855	C	0.664834	0.503927	0.191563
	C4856	C	0.914766	0.503914	0.245891
	C4857	C	0.664832	0.566344	0.183372
	C4858	C	0.915136	0.620566	0.128920
	C4859	C	0.664927	0.558073	0.191454
	C4860	C	0.594101	0.566464	0.129040
	C4861	C	0.843850	0.503937	0.191549
	C4862	C	0.594009	0.558194	0.245869
	C4863	C	0.843792	0.620759	0.183273
	C4864	C	0.504619	0.616394	0.133183
	C4865	C	0.754247	0.553894	0.195708
	C4866	C	0.504562	0.508183	0.241816
	C4867	C	0.754073	0.570651	0.179276
	C4868	C	0.504645	0.553909	0.241792
	C4869	C	0.754377	0.616412	0.179278
	C4870	C	0.504668	0.570684	0.133207
	C4871	C	0.754318	0.508191	0.195664
	C4872	C	0.504730	0.607492	0.141914
	C4873	C	0.754462	0.544989	0.204447
	C4874	C	0.504511	0.517085	0.233069
	C4875	C	0.754125	0.579571	0.170565
	C4876	C	0.504607	0.545005	0.233040
	C4877	C	0.754458	0.607486	0.170562
	C4878	C	0.504595	0.579583	0.141949
	C4879	C	0.754450	0.517065	0.204451
	H4880	H	0.663531	0.617531	0.132340
	H4881	H	0.912546	0.554920	0.194831
	H4882	H	0.663429	0.507222	0.242863
	H4883	H	0.912397	0.569795	0.180357
	H4884	H	0.845743	0.554837	0.242862
	H4885	H	0.595631	0.617211	0.180615
	H4886	H	0.845580	0.569630	0.132270
	H4887	H	0.595468	0.507124	0.194757
	H4888	H	0.845513	0.507142	0.242710
	H4889	H	0.595188	0.569480	0.180211
	H4890	H	0.845851	0.617278	0.131981
	H4891	H	0.595389	0.554827	0.194468
	H4892	H	0.663350	0.569719	0.132161
	H4893	H	0.913088	0.507147	0.194742
	H4894	H	0.663272	0.555006	0.242651
	H4895	H	0.913106	0.617602	0.180020
	O4896	O	0.088556	0.604020	0.270323
	O4897	O	0.338677	0.541493	0.332800
	O4898	O	0.088388	0.520601	0.354632
	O4899	O	0.338418	0.583093	0.292167
	O4900	O	0.420356	0.541527	0.354606
	O4901	O	0.170386	0.604047	0.292084
	O4902	O	0.420530	0.583083	0.270333
	O4903	O	0.170528	0.520575	0.332855
	O4904	O	0.420521	0.520567	0.354617
	O4905	O	0.170336	0.583078	0.292104
	O4906	O	0.420478	0.603994	0.270333
	O4907	O	0.170488	0.541511	0.332851
	O4908	O	0.088499	0.583084	0.270316
	O4909	O	0.338682	0.520600	0.332772
	O4910	O	0.088651	0.541527	0.354624
	O4911	O	0.338594	0.603987	0.292148
	F4912	F	0.004816	0.531053	0.336196
	F4913	F	0.254596	0.593537	0.273706
	F4914	F	0.004769	0.593553	0.288755
	F4915	F	0.254595	0.531027	0.351221
	Al4916	Al	0.129566	0.531057	0.343742
	Al4917	Al	0.379446	0.593527	0.281242
	Al4918	Al	0.129606	0.593545	0.281219
	Al4919	Al	0.379682	0.531046	0.343703
	C4920	C	0.093723	0.620675	0.254050
	C4921	C	0.343817	0.558128	0.316497
	C4922	C	0.093737	0.503973	0.370931
	C4923	C	0.343794	0.566414	0.308396
	C4924	C	0.414879	0.558148	0.370955
	C4925	C	0.165169	0.620695	0.308371
	C4926	C	0.415277	0.566413	0.254086
	C4927	C	0.165051	0.503924	0.316574
	C4928	C	0.415109	0.503939	0.370929
	C4929	C	0.164947	0.566482	0.308520
	C4930	C	0.415212	0.620638	0.254053
	C4931	C	0.164994	0.558186	0.316640
	C4932	C	0.093808	0.566466	0.254011
	C4933	C	0.343938	0.503951	0.316534
	C4934	C	0.093939	0.558169	0.370911
	C4935	C	0.344101	0.620591	0.308519
	C4936	C	0.004315	0.616403	0.258173
	C4937	C	0.254499	0.553901	0.320697
	C4938	C	0.004249	0.508196	0.366759
	C4939	C	0.254318	0.570685	0.304283
	C4940	C	0.004427	0.553897	0.366799
	C4941	C	0.254604	0.616404	0.304287
	C4942	C	0.004343	0.570685	0.258181
	C4943	C	0.254462	0.508182	0.320689
	C4944	C	0.004433	0.607509	0.266954
	C4945	C	0.254570	0.545007	0.329449
	C4946	C	0.004258	0.517093	0.357999
	C4947	C	0.254330	0.579563	0.295506
	C4948	C	0.004522	0.545010	0.358020
	C4949	C	0.254503	0.607521	0.295507
	C4950	C	0.004428	0.579588	0.266932
	C4951	C	0.254541	0.517077	0.329431
	H4952	H	0.163188	0.617480	0.257233
	H4953	H	0.413289	0.554893	0.319568
	H4954	H	0.163030	0.507224	0.367819
	H4955	H	0.413182	0.569589	0.305195
	H4956	H	0.345606	0.554931	0.367790
	H4957	H	0.095781	0.617516	0.305159
	H4958	H	0.346030	0.569617	0.257252
	H4959	H	0.095755	0.507130	0.319757
	H4960	H	0.345811	0.507167	0.367782
	H4961	H	0.095727	0.569754	0.305393
	H4962	H	0.346018	0.617407	0.257198
	H4963	H	0.095815	0.554973	0.319865
	H4964	H	0.163078	0.569720	0.257116
	H4965	H	0.413221	0.507189	0.319687
	H4966	H	0.163369	0.554975	0.367721
	H4967	H	0.413511	0.617329	0.305435
	O4968	O	0.588659	0.603966	0.270275
	O4969	O	0.838452	0.541503	0.332765
	O4970	O	0.588708	0.520608	0.354668
	O4971	O	0.838442	0.583044	0.292120
	O4972	O	0.920555	0.541515	0.354603
	O4973	O	0.669994	0.604013	0.292120
	O4974	O	0.920326	0.583081	0.270323
	O4975	O	0.670378	0.520592	0.332858
	O4976	O	0.920293	0.520601	0.354596
	O4977	O	0.670317	0.583123	0.292155
	O4978	O	0.920495	0.603985	0.270332
	O4979	O	0.670240	0.541540	0.332856
	O4980	O	0.588667	0.583122	0.270247
	O4981	O	0.838457	0.520594	0.332789
	O4982	O	0.588521	0.541509	0.354666
	O4983	O	0.838142	0.604003	0.292143
	F4984	F	0.504664	0.531048	0.336257
	F4985	F	0.754621	0.593555	0.273764
	F4986	F	0.504469	0.593540	0.288710
	F4987	F	0.754749	0.531071	0.351224
	Al4988	Al	0.629648	0.531063	0.343759
	Al4989	Al	0.879757	0.593529	0.281261
	Al4990	Al	0.629587	0.593548	0.281226
	Al4991	Al	0.879794	0.531062	0.343653
	C4992	C	0.594061	0.620667	0.254063
	C4993	C	0.843707	0.558127	0.316488
	C4994	C	0.593907	0.503946	0.370947
	C4995	C	0.843679	0.566404	0.308375
	C4996	C	0.914805	0.558137	0.370968
	C4997	C	0.664561	0.620680	0.308362
	C4998	C	0.914945	0.566389	0.254094
	C4999	C	0.665018	0.503925	0.316566
	C5000	C	0.914761	0.503962	0.370924
	C5001	C	0.664839	0.566488	0.308477
	C5002	C	0.914761	0.620640	0.254003
	C5003	C	0.664920	0.558198	0.316599
	C5004	C	0.593991	0.566496	0.253966
	C5005	C	0.843810	0.503970	0.316514
	C5006	C	0.593823	0.558180	0.370905
	C5007	C	0.843556	0.620607	0.308510
	C5008	C	0.504660	0.616398	0.258185
	C5009	C	0.754372	0.553935	0.320712
	C5010	C	0.504538	0.508177	0.366777
	C5011	C	0.754230	0.570714	0.304317
	C5012	C	0.504325	0.553903	0.366795
	C5013	C	0.754055	0.616404	0.304269
	C5014	C	0.504646	0.570697	0.258172
	C5015	C	0.754372	0.508188	0.320685
	C5016	C	0.504570	0.607484	0.266911
	C5017	C	0.754331	0.545020	0.329423
	C5018	C	0.504620	0.517083	0.358039
	C5019	C	0.754258	0.579595	0.295547
	C5020	C	0.504387	0.545024	0.358028
	C5021	C	0.754061	0.607496	0.295542
	C5022	C	0.504565	0.579608	0.266892
	C5023	C	0.754329	0.517075	0.329449
	H5024	H	0.663463	0.617466	0.257225
	H5025	H	0.913170	0.554880	0.319553
	H5026	H	0.663189	0.507177	0.367814
	H5027	H	0.913062	0.569562	0.305174
	H5028	H	0.845393	0.554907	0.367827
	H5029	H	0.595163	0.617480	0.305174
	H5030	H	0.845670	0.569591	0.257278
	H5031	H	0.595729	0.507132	0.319757
	H5032	H	0.845466	0.507211	0.367805
	H5033	H	0.595629	0.569748	0.305339
	H5034	H	0.845405	0.617412	0.257143
	H5035	H	0.595790	0.554969	0.319802
	H5036	H	0.663241	0.569763	0.257031
	H5037	H	0.913050	0.507212	0.319646
	H5038	H	0.663203	0.554998	0.367707
	H5039	H	0.912907	0.617330	0.305433
	O5040	O	0.088320	0.603962	0.395281
	O5041	O	0.338525	0.541486	0.457780
	O5042	O	0.088651	0.520559	0.479599
	O5043	O	0.338553	0.583089	0.417155
	O5044	O	0.420655	0.541474	0.479651
	O5045	O	0.170299	0.604029	0.417082
	O5046	O	0.420334	0.583088	0.395324
	O5047	O	0.170550	0.520568	0.457840
	O5048	O	0.420417	0.520596	0.479652
	O5049	O	0.170390	0.583098	0.417153
	O5050	O	0.420398	0.603999	0.395334
	O5051	O	0.170355	0.541538	0.457908
	O5052	O	0.088632	0.583090	0.395318
	O5053	O	0.338672	0.520567	0.457832
	O5054	O	0.088426	0.541479	0.479633
	O5055	O	0.338591	0.603956	0.417182
	F5056	F	0.004772	0.531034	0.461198
	F5057	F	0.254589	0.593546	0.398728
	F5058	F	0.004801	0.593549	0.413775
	F5059	F	0.254534	0.531051	0.476231
	Al5060	Al	0.129638	0.531045	0.468734
	Al5061	Al	0.379574	0.593547	0.406245
	Al5062	Al	0.129558	0.593534	0.406225
	Al5063	Al	0.379552	0.531023	0.468713
	C5064	C	0.093894	0.620606	0.378991
	C5065	C	0.343765	0.558097	0.441449
	C5066	C	0.093918	0.503951	0.495948
	C5067	C	0.343839	0.566391	0.433344
	C5068	C	0.415287	0.558121	0.495910
	C5069	C	0.165175	0.620711	0.433328
	C5070	C	0.414850	0.566435	0.379082
	C5071	C	0.165132	0.503955	0.441505
	C5072	C	0.415144	0.503930	0.495947
	C5073	C	0.165000	0.566465	0.433471
	C5074	C	0.414989	0.620669	0.379078
	C5075	C	0.164968	0.558176	0.441582
	C5076	C	0.093977	0.566464	0.379031
	C5077	C	0.344021	0.503922	0.441532
	C5078	C	0.093538	0.558121	0.495946
	C5079	C	0.344061	0.620551	0.433558
	C5080	C	0.004312	0.616395	0.383183
	C5081	C	0.254290	0.553909	0.445692
	C5082	C	0.004504	0.508182	0.491783
	C5083	C	0.254494	0.570674	0.429258
	C5084	C	0.004235	0.553887	0.491770
	C5085	C	0.254539	0.616392	0.429306
	C5086	C	0.004432	0.570672	0.383233
	C5087	C	0.254581	0.508185	0.445662
	C5088	C	0.004275	0.607497	0.391951
	C5089	C	0.254353	0.545005	0.454437
	C5090	C	0.004471	0.517052	0.483002
	C5091	C	0.254458	0.579587	0.420539
	C5092	C	0.004315	0.544993	0.483011
	C5093	C	0.254462	0.607480	0.420541
	C5094	C	0.004465	0.579588	0.391968
	C5095	C	0.254615	0.517068	0.454430
	H5096	H	0.163254	0.617354	0.382106
	H5097	H	0.413027	0.554821	0.444536
	H5098	H	0.163215	0.507182	0.492811
	H5099	H	0.413149	0.569578	0.430153
	H5100	H	0.346115	0.554901	0.492729
	H5101	H	0.095903	0.617550	0.430057
	H5102	H	0.345621	0.569658	0.382240
	H5103	H	0.095809	0.507193	0.444645
	H5104	H	0.345822	0.507139	0.492810
	H5105	H	0.095724	0.569732	0.430372
	H5106	H	0.345710	0.617479	0.382293
	H5107	H	0.095554	0.554972	0.444760
	H5108	H	0.163380	0.569719	0.382141
	H5109	H	0.413314	0.507135	0.444715
	H5110	H	0.162860	0.554895	0.492807
	H5111	H	0.413304	0.617257	0.430481
	O5112	O	0.588602	0.603966	0.395292
	O5113	O	0.838415	0.541498	0.457831
	O5114	O	0.588541	0.520582	0.479654
	O5115	O	0.838771	0.583029	0.417125
	O5116	O	0.920336	0.541483	0.479612
	O5117	O	0.670258	0.604021	0.417122
	O5118	O	0.920560	0.583104	0.395366
	O5119	O	0.670096	0.520566	0.457808
	O5120	O	0.920512	0.520567	0.479631
	O5121	O	0.670549	0.583084	0.417172
	O5122	O	0.920234	0.604035	0.395364
	O5123	O	0.670222	0.541488	0.457817
	O5124	O	0.588565	0.583089	0.395312
	O5125	O	0.838330	0.520559	0.457798
	O5126	O	0.588777	0.541457	0.479651
	O5127	O	0.838434	0.603975	0.417233
	F5128	F	0.504455	0.531020	0.461231
	F5129	F	0.754743	0.593536	0.398769
	F5130	F	0.504558	0.593518	0.413715
	F5131	F	0.754715	0.531014	0.476208
	Al5132	Al	0.629583	0.531019	0.468726
	Al5133	Al	0.879786	0.593553	0.406300
	Al5134	Al	0.629716	0.593523	0.406242
	Al5135	Al	0.879785	0.531023	0.468698
	C5136	C	0.593876	0.620626	0.379001
	C5137	C	0.843719	0.558096	0.441503
	C5138	C	0.593883	0.503942	0.495937
	C5139	C	0.843802	0.566378	0.433385
	C5140	C	0.914768	0.558136	0.495930
	C5141	C	0.665108	0.620707	0.433350
	C5142	C	0.914834	0.566421	0.379092
	C5143	C	0.664784	0.503924	0.441537
	C5144	C	0.914969	0.503946	0.495943
	C5145	C	0.665076	0.566472	0.433490
	C5146	C	0.914786	0.620679	0.379080
	C5147	C	0.664995	0.558187	0.441609
	C5148	C	0.593789	0.566469	0.379030
	C5149	C	0.843614	0.503942	0.441529
	C5150	C	0.594070	0.558116	0.495938
	C5151	C	0.843815	0.620574	0.433524
	C5152	C	0.504444	0.616384	0.383153
	C5153	C	0.754326	0.553892	0.445704
	C5154	C	0.504486	0.508200	0.491817
	C5155	C	0.754460	0.570667	0.429284
	C5156	C	0.504697	0.553873	0.491780
	C5157	C	0.754418	0.616396	0.429278
	C5158	C	0.504305	0.570701	0.383182
	C5159	C	0.754140	0.508153	0.445713
	C5160	C	0.504506	0.607485	0.391916
	C5161	C	0.754339	0.544992	0.454442
	C5162	C	0.504463	0.517101	0.483075
	C5163	C	0.754597	0.579549	0.420519
	C5164	C	0.504745	0.544982	0.483027
	C5165	C	0.754323	0.607510	0.420541
	C5166	C	0.504435	0.579599	0.391925
	C5167	C	0.754175	0.517053	0.454436
	H5168	H	0.663218	0.617408	0.382155
	H5169	H	0.913030	0.554834	0.444596
	H5170	H	0.663109	0.507163	0.492789
	H5171	H	0.913202	0.569550	0.430178
	H5172	H	0.845429	0.554916	0.492772
	H5173	H	0.595777	0.617526	0.430142
	H5174	H	0.845544	0.569647	0.382257
	H5175	H	0.595418	0.507154	0.444666
	H5176	H	0.845656	0.507179	0.492797
	H5177	H	0.595849	0.569723	0.430365
	H5178	H	0.845419	0.617478	0.382272
	H5179	H	0.595715	0.554988	0.444805
	H5180	H	0.663078	0.569712	0.382148
	H5181	H	0.912974	0.507184	0.444654
	H5182	H	0.663260	0.554893	0.492781
	H5183	H	0.913131	0.617290	0.430478
	O5184	O	0.088650	0.604013	0.520386
	O5185	O	0.338536	0.541471	0.582823
	O5186	O	0.088641	0.520595	0.604694
	O5187	O	0.338413	0.583080	0.542163
	O5188	O	0.420294	0.541474	0.604650
	O5189	O	0.170318	0.603965	0.542204
	O5190	O	0.420523	0.583050	0.520344
	O5191	O	0.170610	0.520562	0.582881
	O5192	O	0.420419	0.520589	0.604698
	O5193	O	0.170260	0.583049	0.542136
	O5194	O	0.420475	0.603991	0.520344
	O5195	O	0.170406	0.541478	0.582872
	O5196	O	0.088493	0.583099	0.520320
	O5197	O	0.338745	0.520593	0.582832
	O5198	O	0.088640	0.541458	0.604690
	O5199	O	0.338490	0.604016	0.542127
	F5200	F	0.004837	0.531020	0.586229
	F5201	F	0.254529	0.593543	0.523752
	F5202	F	0.004630	0.593526	0.538788
	F5203	F	0.254681	0.531033	0.601256
	Al5204	Al	0.129783	0.531018	0.593772
	Al5205	Al	0.379403	0.593533	0.531249
	Al5206	Al	0.129573	0.593538	0.531266
	Al5207	Al	0.379622	0.531035	0.593744
	C5208	C	0.093756	0.620654	0.504085
	C5209	C	0.343809	0.558155	0.566593
	C5210	C	0.093665	0.503910	0.620898
	C5211	C	0.343802	0.566440	0.558488
	C5212	C	0.414987	0.558169	0.620893
	C5213	C	0.164983	0.620613	0.558495
	C5214	C	0.415280	0.566413	0.504028
	C5215	C	0.165228	0.503955	0.566545
	C5216	C	0.415122	0.503939	0.620970
	C5217	C	0.164962	0.566406	0.558433
	C5218	C	0.415008	0.620650	0.504052
	C5219	C	0.165007	0.558111	0.566553
	C5220	C	0.093560	0.566414	0.504076
	C5221	C	0.343975	0.503896	0.566604
	C5222	C	0.093890	0.558065	0.621019
	C5223	C	0.343825	0.620664	0.558407
	C5224	C	0.004335	0.616401	0.508229
	C5225	C	0.254401	0.553882	0.570720
	C5226	C	0.004322	0.508170	0.616774
	C5227	C	0.254415	0.570666	0.554302
	C5228	C	0.004468	0.553875	0.616799
	C5229	C	0.254409	0.616391	0.554307
	C5230	C	0.004217	0.570669	0.508206
	C5231	C	0.254655	0.508174	0.570712
	C5232	C	0.004554	0.607477	0.516943
	C5233	C	0.254428	0.544971	0.579448
	C5234	C	0.004484	0.517077	0.608036
	C5235	C	0.254376	0.579562	0.545551
	C5236	C	0.004503	0.544981	0.608059
	C5237	C	0.254405	0.607491	0.545555
	C5238	C	0.004322	0.579568	0.516956
	C5239	C	0.254646	0.517078	0.579455
	H5240	H	0.163141	0.617439	0.507238
	H5241	H	0.413175	0.554939	0.569745
	H5242	H	0.162875	0.507122	0.617744
	H5243	H	0.413189	0.569664	0.555365
	H5244	H	0.345656	0.554982	0.617692
	H5245	H	0.095689	0.617356	0.555392
	H5246	H	0.346125	0.569650	0.507164
	H5247	H	0.096082	0.507214	0.569693
	H5248	H	0.345906	0.507166	0.617819
	H5249	H	0.095681	0.569616	0.555249
	H5250	H	0.345686	0.617421	0.507196
	H5251	H	0.095670	0.554856	0.569685
	H5252	H	0.162915	0.569626	0.507243
	H5253	H	0.413219	0.507098	0.569796
	H5254	H	0.163214	0.554793	0.617939
	H5255	H	0.413202	0.617460	0.555242
	O5256	O	0.588637	0.603953	0.520268
	O5257	O	0.838706	0.541517	0.582850
	O5258	O	0.588638	0.520558	0.604639
	O5259	O	0.838341	0.583093	0.542234
	O5260	O	0.920495	0.541472	0.604672
	O5261	O	0.670258	0.603984	0.542163
	O5262	O	0.920372	0.583058	0.520366
	O5263	O	0.670207	0.520559	0.582844
	O5264	O	0.920562	0.520593	0.604633
	O5265	O	0.670130	0.583063	0.542174
	O5266	O	0.920579	0.603938	0.520289
	O5267	O	0.670461	0.541521	0.582875
	O5268	O	0.588680	0.583057	0.520319
	O5269	O	0.838473	0.520540	0.582859
	O5270	O	0.588464	0.541444	0.604704
	O5271	O	0.838544	0.603996	0.542148
	F5272	F	0.504684	0.531025	0.586266
	F5273	F	0.754632	0.593504	0.523779
	F5274	F	0.504455	0.593536	0.538719
	F5275	F	0.754770	0.531035	0.601240
	Al5276	Al	0.629689	0.531024	0.593780
	Al5277	Al	0.879731	0.593523	0.531268
	Al5278	Al	0.629567	0.593521	0.531216
	Al5279	Al	0.879905	0.531025	0.593731
	C5280	C	0.593882	0.620662	0.504062
	C5281	C	0.843861	0.558134	0.566538
	C5282	C	0.593943	0.503908	0.620913
	C5283	C	0.843721	0.566417	0.558434
	C5284	C	0.915001	0.558152	0.620911
	C5285	C	0.664885	0.620591	0.558492
	C5286	C	0.914742	0.566428	0.504051
	C5287	C	0.664999	0.503919	0.566542
	C5288	C	0.914885	0.503944	0.620948
	C5289	C	0.664992	0.566388	0.558411
	C5290	C	0.914869	0.620622	0.504026
	C5291	C	0.665085	0.558094	0.566522
	C5292	C	0.594022	0.566407	0.504056
	C5293	C	0.843725	0.503918	0.566599
	C5294	C	0.593799	0.558078	0.621001
	C5295	C	0.843640	0.620651	0.558416
	C5296	C	0.504445	0.616400	0.508183
	C5297	C	0.754505	0.553876	0.570685
	C5298	C	0.504550	0.508175	0.616815
	C5299	C	0.754327	0.570654	0.554290
	C5300	C	0.504354	0.553865	0.616814
	C5301	C	0.754326	0.616378	0.554301
	C5302	C	0.504618	0.570651	0.508187
	C5303	C	0.754339	0.508149	0.570737
	C5304	C	0.504543	0.607489	0.516924
	C5305	C	0.754578	0.545012	0.579467
	C5306	C	0.504548	0.517073	0.608061
	C5307	C	0.754236	0.579563	0.545568
	C5308	C	0.504363	0.544967	0.608062
	C5309	C	0.754402	0.607479	0.545554
	C5310	C	0.504603	0.579550	0.516939
	C5311	C	0.754306	0.517037	0.579496
	H5312	H	0.663185	0.617444	0.507218
	H5313	H	0.913289	0.554930	0.569702
	H5314	H	0.663204	0.507100	0.617714
	H5315	H	0.913061	0.569657	0.555309
	H5316	H	0.845674	0.554956	0.617721
	H5317	H	0.595582	0.617348	0.555366
	H5318	H	0.845539	0.569655	0.507207
	H5319	H	0.595837	0.507161	0.569676
	H5320	H	0.845706	0.507195	0.617824
	H5321	H	0.595749	0.569615	0.555257
	H5322	H	0.845467	0.617372	0.507135
	H5323	H	0.595870	0.554865	0.569685
	H5324	H	0.663258	0.569634	0.507210
	H5325	H	0.912932	0.507137	0.569775
	H5326	H	0.663109	0.554818	0.617895
	H5327	H	0.912955	0.617459	0.555220
	O5328	O	0.088648	0.603961	0.645321
	O5329	O	0.338493	0.541484	0.707846
	O5330	O	0.088460	0.520550	0.729647
	O5331	O	0.338435	0.583054	0.667157
	O5332	O	0.420391	0.541471	0.729660
	O5333	O	0.170606	0.603938	0.667191
	O5334	O	0.420438	0.583059	0.645333
	O5335	O	0.170416	0.520551	0.707849
	O5336	O	0.420493	0.520575	0.729670
	O5337	O	0.170252	0.583060	0.667217
	O5338	O	0.420569	0.603924	0.645310
	O5339	O	0.170314	0.541516	0.707889
	O5340	O	0.088492	0.583023	0.645402
	O5341	O	0.338516	0.520551	0.707851
	O5342	O	0.088596	0.541452	0.729697
	O5343	O	0.338703	0.603942	0.667190
	F5344	F	0.004782	0.531015	0.711212
	F5345	F	0.254518	0.593489	0.648772
	F5346	F	0.004765	0.593528	0.663787
	F5347	F	0.254596	0.530991	0.726245
	Al5348	Al	0.129653	0.531010	0.718761
	Al5349	Al	0.379587	0.593496	0.656259
	Al5350	Al	0.129627	0.593503	0.656266
	Al5351	Al	0.379516	0.531029	0.718733
	C5352	C	0.093767	0.620674	0.629143
	C5353	C	0.343925	0.558112	0.691548
	C5354	C	0.093700	0.503938	0.745951
	C5355	C	0.343901	0.566409	0.683430
	C5356	C	0.415236	0.558130	0.745936
	C5357	C	0.165098	0.620583	0.683496
	C5358	C	0.415052	0.566470	0.629001
	C5359	C	0.165224	0.503950	0.691466
	C5360	C	0.415121	0.503931	0.745963
	C5361	C	0.165007	0.566410	0.683474
	C5362	C	0.415217	0.620542	0.628959
	C5363	C	0.165027	0.558132	0.691568
	C5364	C	0.093913	0.566366	0.629133
	C5365	C	0.343929	0.503881	0.691597
	C5366	C	0.093731	0.558099	0.745969
	C5367	C	0.344038	0.620621	0.683411
	C5368	C	0.004303	0.616374	0.633214
	C5369	C	0.254463	0.553895	0.695724
	C5370	C	0.004243	0.508181	0.741815
	C5371	C	0.254424	0.570631	0.679276
	C5372	C	0.004312	0.553853	0.741815
	C5373	C	0.254556	0.616341	0.679303
	C5374	C	0.004434	0.570673	0.633184
	C5375	C	0.254517	0.508140	0.695712
	C5376	C	0.004489	0.607482	0.641957
	C5377	C	0.254426	0.544985	0.704447
	C5378	C	0.004286	0.517072	0.733053
	C5379	C	0.254404	0.579566	0.670592
	C5380	C	0.004464	0.544964	0.733043
	C5381	C	0.254626	0.607446	0.670579
	C5382	C	0.004379	0.579561	0.641946
	C5383	C	0.254448	0.517056	0.704439
	H5384	H	0.163179	0.617499	0.632354
	H5385	H	0.413075	0.554862	0.694711
	H5386	H	0.162844	0.507162	0.742793
	H5387	H	0.413111	0.569682	0.680285
	H5388	H	0.345935	0.554920	0.742775
	H5389	H	0.095632	0.617348	0.680368
	H5390	H	0.345847	0.569728	0.632110
	H5391	H	0.095928	0.507222	0.694515
	H5392	H	0.345893	0.507154	0.742809
	H5393	H	0.095623	0.569657	0.680403
	H5394	H	0.345793	0.617257	0.632003
	H5395	H	0.095586	0.554930	0.694710
	H5396	H	0.163222	0.569536	0.632359
	H5397	H	0.413195	0.507096	0.694755
	H5398	H	0.163105	0.554880	0.742823
	H5399	H	0.413446	0.617421	0.680212
	O5400	O	0.588590	0.603954	0.645355
	O5401	O	0.838402	0.541464	0.707803
	O5402	O	0.588587	0.520576	0.729666
	O5403	O	0.838683	0.583050	0.667174
	O5404	O	0.920522	0.541482	0.729617
	O5405	O	0.670133	0.603976	0.667195
	O5406	O	0.920391	0.583097	0.645314
	O5407	O	0.670291	0.520556	0.707820
	O5408	O	0.920341	0.520598	0.729687
	O5409	O	0.670488	0.583056	0.667178
	O5410	O	0.920562	0.603968	0.645361
	O5411	O	0.670134	0.541502	0.707848
	O5412	O	0.588632	0.583069	0.645334
	O5413	O	0.838549	0.520543	0.707827
	O5414	O	0.588467	0.541459	0.729677
	O5415	O	0.838450	0.603970	0.667213
	F5416	F	0.504571	0.531025	0.711248
	F5417	F	0.754756	0.593536	0.648793
	F5418	F	0.504501	0.593494	0.663753
	F5419	F	0.754675	0.531025	0.726206
	Al5420	Al	0.629692	0.531013	0.718752
	Al5421	Al	0.879802	0.593523	0.656294
	Al5422	Al	0.629600	0.593509	0.656237
	Al5423	Al	0.879794	0.531017	0.718728
	C5424	C	0.594195	0.620653	0.629142
	C5425	C	0.843799	0.558120	0.691577
	C5426	C	0.593942	0.503926	0.745940
	C5427	C	0.843977	0.566425	0.683473
	C5428	C	0.914865	0.558137	0.745918
	C5429	C	0.664838	0.620592	0.683522
	C5430	C	0.915000	0.566453	0.629018
	C5431	C	0.664772	0.503955	0.691519
	C5432	C	0.914876	0.503941	0.745985
	C5433	C	0.665137	0.566441	0.683486
	C5434	C	0.914798	0.620577	0.628991
	C5435	C	0.664955	0.558157	0.691575
	C5436	C	0.593826	0.566379	0.629106
	C5437	C	0.843612	0.503874	0.691588
	C5438	C	0.593967	0.558082	0.745982
	C5439	C	0.843839	0.620631	0.683442
	C5440	C	0.504681	0.616339	0.633218
	C5441	C	0.754339	0.553892	0.695720
	C5442	C	0.504479	0.508175	0.741819
	C5443	C	0.754572	0.570672	0.679322
	C5444	C	0.504528	0.553845	0.741812
	C5445	C	0.754308	0.616366	0.679335
	C5446	C	0.504515	0.570670	0.633193
	C5447	C	0.754230	0.508166	0.695676
	C5448	C	0.504591	0.607453	0.641947
	C5449	C	0.754278	0.544997	0.704460
	C5450	C	0.504514	0.517076	0.733077
	C5451	C	0.754583	0.579549	0.670555
	C5452	C	0.504439	0.544954	0.733079
	C5453	C	0.754277	0.607482	0.670577
	C5454	C	0.504557	0.579557	0.641955
	C5455	C	0.754394	0.517046	0.704446
	H5456	H	0.663676	0.617473	0.632331
	H5457	H	0.912953	0.554867	0.694748
	H5458	H	0.663108	0.507149	0.742761
	H5459	H	0.913153	0.569662	0.680298
	H5460	H	0.845520	0.554946	0.742730
	H5461	H	0.595456	0.617335	0.680403
	H5462	H	0.845755	0.569706	0.632133
	H5463	H	0.595505	0.507197	0.694646
	H5464	H	0.845590	0.507170	0.742848
	H5465	H	0.595727	0.569665	0.680371
	H5466	H	0.845419	0.617319	0.632077
	H5467	H	0.595420	0.554963	0.694715
	H5468	H	0.663134	0.569567	0.632310
	H5469	H	0.912903	0.507064	0.694790
	H5470	H	0.663340	0.554840	0.742872
	H5471	H	0.913182	0.617411	0.680254
	O5472	O	0.088307	0.603940	0.770339
	O5473	O	0.338678	0.541435	0.832841
	O5474	O	0.088797	0.520567	0.854707
	O5475	O	0.338733	0.583055	0.792220
	O5476	O	0.420575	0.541440	0.854687
	O5477	O	0.170167	0.603984	0.792150
	O5478	O	0.420616	0.583064	0.770383
	O5479	O	0.170337	0.520545	0.832868
	O5480	O	0.420507	0.520583	0.854706
	O5481	O	0.170505	0.583034	0.792166
	O5482	O	0.420419	0.603981	0.770393
	O5483	O	0.170542	0.541471	0.832878
	O5484	O	0.088718	0.583048	0.770359
	O5485	O	0.338513	0.520559	0.832845
	O5486	O	0.088246	0.541438	0.854716
	O5487	O	0.338349	0.603956	0.792237
	F5488	F	0.004814	0.531023	0.836238
	F5489	F	0.254602	0.593517	0.773787
	F5490	F	0.004876	0.593503	0.788808
	F5491	F	0.254638	0.531013	0.851269
	Al5492	Al	0.129593	0.531009	0.843796
	Al5493	Al	0.379739	0.593513	0.781288
	Al5494	Al	0.129766	0.593506	0.781254
	Al5495	Al	0.379641	0.531002	0.843762
	C5496	C	0.093624	0.620568	0.754013
	C5497	C	0.344044	0.558104	0.816574
	C5498	C	0.093742	0.503835	0.870871
	C5499	C	0.343919	0.566407	0.808479
	C5500	C	0.414974	0.558067	0.870996
	C5501	C	0.164748	0.620645	0.808431
	C5502	C	0.415223	0.566432	0.754052
	C5503	C	0.164904	0.503963	0.816505
	C5504	C	0.414950	0.504004	0.871099
	C5505	C	0.164903	0.566389	0.808462
	C5506	C	0.415078	0.620665	0.754146
	C5507	C	0.165025	0.558097	0.816562
	C5508	C	0.093776	0.566375	0.754114
	C5509	C	0.343955	0.503868	0.816686
	C5510	C	0.093713	0.558119	0.870941
	C5511	C	0.343576	0.620581	0.808527
	C5512	C	0.004228	0.616361	0.758226
	C5513	C	0.254587	0.553853	0.820708
	C5514	C	0.004399	0.508166	0.866838
	C5515	C	0.254410	0.570631	0.804313
	C5516	C	0.004142	0.553854	0.866830
	C5517	C	0.254152	0.616380	0.804317
	C5518	C	0.004385	0.570667	0.758201
	C5519	C	0.254465	0.508149	0.820735
	C5520	C	0.004206	0.607447	0.766974
	C5521	C	0.254627	0.544963	0.829472
	C5522	C	0.004704	0.517055	0.858070
	C5523	C	0.254569	0.579542	0.795584
	C5524	C	0.004136	0.544958	0.858085
	C5525	C	0.254192	0.607479	0.795580
	C5526	C	0.004553	0.579555	0.766983
	C5527	C	0.254440	0.517055	0.829466
	H5528	H	0.163030	0.617307	0.757089
	H5529	H	0.413451	0.554892	0.819736
	H5530	H	0.163110	0.506992	0.867619
	H5531	H	0.413287	0.569660	0.805362
	H5532	H	0.345678	0.554797	0.867897
	H5533	H	0.095424	0.617433	0.805267
	H5534	H	0.346068	0.569678	0.757199
	H5535	H	0.095697	0.507249	0.819596
	H5536	H	0.345730	0.507301	0.868055
	H5537	H	0.095520	0.569626	0.805326
	H5538	H	0.345771	0.617477	0.757366
	H5539	H	0.095660	0.554870	0.819718
	H5540	H	0.163119	0.569558	0.757322
	H5541	H	0.413209	0.507058	0.819913
	H5542	H	0.163040	0.554893	0.867770
	H5543	H	0.412929	0.617315	0.805433
	O5544	O	0.588633	0.603925	0.770301
	O5545	O	0.838265	0.541429	0.832798
	O5546	O	0.588636	0.520533	0.854659
	O5547	O	0.838439	0.583039	0.792213
	O5548	O	0.920066	0.541494	0.854641
	O5549	O	0.670475	0.603957	0.792167
	O5550	O	0.920688	0.583063	0.770392
	O5551	O	0.670386	0.520577	0.832835
	O5552	O	0.920731	0.520568	0.854668
	O5553	O	0.670229	0.583046	0.792184
	O5554	O	0.920234	0.603953	0.770387
	O5555	O	0.670164	0.541486	0.832894
	O5556	O	0.588681	0.583066	0.770330
	O5557	O	0.838612	0.520519	0.832853
	O5558	O	0.588640	0.541422	0.854742
	O5559	O	0.838593	0.603935	0.792244
	F5560	F	0.504660	0.531010	0.836268
	F5561	F	0.754933	0.593476	0.773814
	F5562	F	0.504721	0.593526	0.788777
	F5563	F	0.754667	0.530976	0.851229
	Al5564	Al	0.629648	0.531000	0.843774
	Al5565	Al	0.879948	0.593486	0.781306
	Al5566	Al	0.629754	0.593499	0.781244
	Al5567	Al	0.879820	0.531003	0.843711
	C5568	C	0.593958	0.620567	0.754002
	C5569	C	0.843614	0.558109	0.816553
	C5570	C	0.593770	0.503851	0.870848
	C5571	C	0.843655	0.566411	0.808464
	C5572	C	0.914600	0.558077	0.871014
	C5573	C	0.665020	0.620644	0.808424
	C5574	C	0.914910	0.566412	0.754063
	C5575	C	0.664751	0.503961	0.816495
	C5576	C	0.914911	0.504018	0.871116
	C5577	C	0.664932	0.566409	0.808477
	C5578	C	0.914810	0.620673	0.754154
	C5579	C	0.664900	0.558108	0.816569
	C5580	C	0.594013	0.566383	0.754097
	C5581	C	0.843804	0.503853	0.816642
	C5582	C	0.593912	0.558114	0.870917
	C5583	C	0.843639	0.620576	0.808488
	C5584	C	0.504504	0.616368	0.758207
	C5585	C	0.754255	0.553869	0.820721
	C5586	C	0.504369	0.508163	0.866826
	C5587	C	0.754273	0.570655	0.804328
	C5588	C	0.504431	0.553828	0.866825
	C5589	C	0.754310	0.616347	0.804317
	C5590	C	0.504606	0.570654	0.758216
	C5591	C	0.754277	0.508151	0.820707
	C5592	C	0.504528	0.607446	0.766947
	C5593	C	0.754208	0.544972	0.829475
	C5594	C	0.504518	0.517056	0.858076
	C5595	C	0.754281	0.579545	0.795583
	C5596	C	0.504577	0.544933	0.858105
	C5597	C	0.754474	0.607442	0.795598
	C5598	C	0.504592	0.579552	0.766964
	C5599	C	0.754387	0.517039	0.829469
	H5600	H	0.663259	0.617294	0.757104
	H5601	H	0.912873	0.554880	0.819700
	H5602	H	0.663154	0.507005	0.867595
	H5603	H	0.912908	0.569644	0.805336
	H5604	H	0.845250	0.554821	0.867917
	H5605	H	0.595667	0.617453	0.805244
	H5606	H	0.845648	0.569636	0.757237
	H5607	H	0.595442	0.507245	0.819577
	H5608	H	0.845615	0.507317	0.868075
	H5609	H	0.595666	0.569652	0.805340
	H5610	H	0.845433	0.617489	0.757361
	H5611	H	0.595635	0.554880	0.819727
	H5612	H	0.663278	0.569592	0.757284
	H5613	H	0.913113	0.507060	0.819846
	H5614	H	0.663236	0.554885	0.867766
	H5615	H	0.913014	0.617343	0.805361
	O5616	O	0.088507	0.603941	0.895292
	O5617	O	0.338351	0.541442	0.957817
	O5618	O	0.088539	0.520606	0.979737
	O5619	O	0.338729	0.583063	0.917185
	O5620	O	0.420496	0.541485	0.979632
	O5621	O	0.170499	0.603985	0.917125
	O5622	O	0.420645	0.583067	0.895334
	O5623	O	0.170389	0.520564	0.957847
	O5624	O	0.420557	0.520581	0.979709
	O5625	O	0.170563	0.583066	0.917135
	O5626	O	0.420620	0.603975	0.895357
	O5627	O	0.170219	0.541502	0.957887
	O5628	O	0.088422	0.583095	0.895290
	O5629	O	0.338556	0.520547	0.957843
	O5630	O	0.088580	0.541451	0.979734
	O5631	O	0.338729	0.603938	0.917193
	F5632	F	0.004741	0.531024	0.961251
	F5633	F	0.254732	0.593501	0.898748
	F5634	F	0.004901	0.593519	0.913757
	F5635	F	0.254544	0.531013	0.976263
	Al5636	Al	0.129613	0.531018	0.968767
	Al5637	Al	0.379675	0.593521	0.906265
	Al5638	Al	0.129714	0.593524	0.906244
	Al5639	Al	0.379547	0.531012	0.968767
	C5640	C	0.093645	0.620633	0.879090
	C5641	C	0.343696	0.558086	0.941527
	C5642	C	0.093736	0.503897	0.995926
	C5643	C	0.343778	0.566392	0.933421
	C5644	C	0.415035	0.558153	0.995881
	C5645	C	0.165141	0.620679	0.933377
	C5646	C	0.414969	0.566391	0.879076
	C5647	C	0.164953	0.503910	0.941550
	C5648	C	0.415027	0.503946	0.996025
	C5649	C	0.164834	0.566436	0.933487
	C5650	C	0.415118	0.620614	0.879037
	C5651	C	0.164795	0.558150	0.941586
	C5652	C	0.093694	0.566424	0.879042
	C5653	C	0.343795	0.503907	0.941572
	C5654	C	0.093848	0.558079	0.996006
	C5655	C	0.343877	0.620540	0.933554
	C5656	C	0.004222	0.616357	0.883192
	C5657	C	0.254270	0.553868	0.945697
	C5658	C	0.004339	0.508176	0.991829
	C5659	C	0.254318	0.570657	0.929295
	C5660	C	0.004342	0.553878	0.991826
	C5661	C	0.254495	0.616373	0.929310
	C5662	C	0.004215	0.570644	0.883221
	C5663	C	0.254332	0.508146	0.945716
	C5664	C	0.004392	0.607466	0.891933
	C5665	C	0.254298	0.544974	0.954457
	C5666	C	0.004438	0.517075	0.983076
	C5667	C	0.254539	0.579561	0.920554
	C5668	C	0.004402	0.544973	0.983089
	C5669	C	0.254608	0.607475	0.920533
	C5670	C	0.004334	0.579569	0.891921
	C5671	C	0.254387	0.517063	0.954432
	H5672	H	0.163041	0.617439	0.882265
	H5673	H	0.412975	0.554825	0.944659
	H5674	H	0.163064	0.507104	0.992751
	H5675	H	0.413003	0.569621	0.930243
	H5676	H	0.345770	0.554961	0.992657
	H5677	H	0.095873	0.617496	0.930159
	H5678	H	0.345803	0.569619	0.882273
	H5679	H	0.095613	0.507156	0.944667
	H5680	H	0.345740	0.507209	0.992915
	H5681	H	0.095461	0.569668	0.930387
	H5682	H	0.345699	0.617383	0.882150
	H5683	H	0.095333	0.554961	0.944763
	H5684	H	0.162955	0.569689	0.882157
	H5685	H	0.413044	0.507147	0.944710
	H5686	H	0.163169	0.554817	0.992897
	H5687	H	0.413081	0.617251	0.930488
	O5688	O	0.588700	0.603924	0.895238
	O5689	O	0.838556	0.541477	0.957802
	O5690	O	0.588729	0.520557	0.979680
	O5691	O	0.838590	0.583030	0.917164
	O5692	O	0.920399	0.541467	0.979711
	O5693	O	0.670317	0.604037	0.917077
	O5694	O	0.920268	0.583070	0.895322
	O5695	O	0.670273	0.520531	0.957892
	O5696	O	0.920412	0.520577	0.979680
	O5697	O	0.670469	0.583093	0.917201
	O5698	O	0.920404	0.603988	0.895386
	O5699	O	0.670369	0.541480	0.957860
	O5700	O	0.588750	0.583074	0.895284
	O5701	O	0.838397	0.520588	0.957811
	O5702	O	0.588658	0.541444	0.979707
	O5703	O	0.838469	0.603922	0.917265
	F5704	F	0.504519	0.531009	0.961274
	F5705	F	0.754832	0.593530	0.898773
	F5706	F	0.504720	0.593520	0.913731
	F5707	F	0.754733	0.531028	0.976242
	Al5708	Al	0.629537	0.531019	0.968775
	Al5709	Al	0.879876	0.593513	0.906286
	Al5710	Al	0.629724	0.593527	0.906216
	Al5711	Al	0.879794	0.531022	0.968736
	C5712	C	0.594020	0.620649	0.879067
	C5713	C	0.843747	0.558102	0.941526
	C5714	C	0.594030	0.503897	0.995941
	C5715	C	0.843723	0.566404	0.933413
	C5716	C	0.914893	0.558189	0.995893
	C5717	C	0.665046	0.620699	0.933316
	C5718	C	0.914682	0.566379	0.879120
	C5719	C	0.664983	0.503931	0.941558
	C5720	C	0.914851	0.503947	0.995998
	C5721	C	0.664847	0.566428	0.933508
	C5722	C	0.914773	0.620623	0.879045
	C5723	C	0.664837	0.558143	0.941599
	C5724	C	0.593961	0.566441	0.878997
	C5725	C	0.843677	0.503885	0.941610
	C5726	C	0.594030	0.558050	0.996050
	C5727	C	0.843803	0.620549	0.933554
	C5728	C	0.504621	0.616357	0.883184
	C5729	C	0.754324	0.553884	0.945713
	C5730	C	0.504528	0.508164	0.991833
	C5731	C	0.754226	0.570660	0.929322
	C5732	C	0.504538	0.553840	0.991848
	C5733	C	0.754404	0.616345	0.929298
	C5734	C	0.504494	0.570651	0.883184
	C5735	C	0.754352	0.508166	0.945714
	C5736	C	0.504636	0.607458	0.891917
	C5737	C	0.754403	0.544977	0.954437
	C5738	C	0.504617	0.517070	0.983092
	C5739	C	0.754428	0.579569	0.920596
	C5740	C	0.504569	0.544956	0.983085
	C5741	C	0.754360	0.607459	0.920586
	C5742	C	0.504617	0.579556	0.891923
	C5743	C	0.754336	0.517049	0.954476
	H5744	H	0.663477	0.617457	0.882212
	H5745	H	0.912930	0.554843	0.944649
	H5746	H	0.663320	0.507118	0.992757
	H5747	H	0.912818	0.569640	0.930225
	H5748	H	0.845542	0.555010	0.992684
	H5749	H	0.595659	0.617552	0.930071
	H5750	H	0.845470	0.569592	0.882303
	H5751	H	0.595687	0.507161	0.944700
	H5752	H	0.845595	0.507202	0.992884
	H5753	H	0.595330	0.569665	0.930423
	H5754	H	0.845385	0.617409	0.882175
	H5755	H	0.595387	0.554951	0.944761
	H5756	H	0.663231	0.569698	0.882116
	H5757	H	0.912969	0.507078	0.944795
	H5758	H	0.663274	0.554770	0.992950
	H5759	H	0.913150	0.617277	0.930505
	O5760	O	0.088681	0.728999	0.020284
	O5761	O	0.338651	0.666495	0.082787
	O5762	O	0.088674	0.645575	0.104642
	O5763	O	0.338494	0.708055	0.042100
	O5764	O	0.420526	0.666487	0.104614
	O5765	O	0.170190	0.729007	0.042130
	O5766	O	0.420598	0.708118	0.020270
	O5767	O	0.170247	0.645547	0.082831
	O5768	O	0.420610	0.645576	0.104598
	O5769	O	0.170302	0.708093	0.042148
	O5770	O	0.420452	0.729004	0.020341
	O5771	O	0.170538	0.666506	0.082834
	O5772	O	0.088413	0.708103	0.020333
	O5773	O	0.338395	0.645588	0.082774
	O5774	O	0.088648	0.666509	0.104594
	O5775	O	0.338472	0.729000	0.042106
	F5776	F	0.004747	0.656026	0.086201
	F5777	F	0.254512	0.718538	0.023720
	F5778	F	0.004745	0.718564	0.038746
	F5779	F	0.254641	0.656030	0.101212
	Al5780	Al	0.129631	0.656024	0.093718
	Al5781	Al	0.379580	0.718545	0.031236
	Al5782	Al	0.129556	0.718560	0.031224
	Al5783	Al	0.379635	0.656035	0.093687
	C5784	C	0.093842	0.745696	0.004083
	C5785	C	0.343816	0.683116	0.066474
	C5786	C	0.093914	0.628999	0.121017
	C5787	C	0.343770	0.691414	0.058356
	C5788	C	0.415201	0.683140	0.120885
	C5789	C	0.164964	0.745635	0.058471
	C5790	C	0.414997	0.691480	0.003971
	C5791	C	0.165032	0.628917	0.066535
	C5792	C	0.415262	0.628899	0.120837
	C5793	C	0.164975	0.691461	0.058455
	C5794	C	0.415025	0.745610	0.003992
	C5795	C	0.164952	0.683181	0.066554
	C5796	C	0.093919	0.691365	0.004185
	C5797	C	0.343583	0.628900	0.066556
	C5798	C	0.093870	0.683098	0.120946
	C5799	C	0.343671	0.745674	0.058393
	C5800	C	0.004542	0.741410	0.008175
	C5801	C	0.254381	0.678904	0.070667
	C5802	C	0.004519	0.633187	0.116785
	C5803	C	0.254338	0.695669	0.054245
	C5804	C	0.004362	0.678873	0.116765
	C5805	C	0.254309	0.741437	0.054271
	C5806	C	0.004430	0.695678	0.008225
	C5807	C	0.254324	0.633150	0.070702
	C5808	C	0.004537	0.732503	0.016895
	C5809	C	0.254567	0.669997	0.079405
	C5810	C	0.004569	0.642094	0.108039
	C5811	C	0.254347	0.704576	0.045522
	C5812	C	0.004512	0.669976	0.107995
	C5813	C	0.254364	0.732510	0.045505
	C5814	C	0.004345	0.704592	0.016939
	C5815	C	0.254297	0.642059	0.079425
	H5816	H	0.163179	0.742508	0.007271
	H5817	H	0.413057	0.679841	0.069605
	H5818	H	0.163278	0.632268	0.117946
	H5819	H	0.413012	0.694648	0.055163
	H5820	H	0.345779	0.679929	0.117735
	H5821	H	0.095711	0.742367	0.055361
	H5822	H	0.345731	0.694748	0.007051
	H5823	H	0.095773	0.632144	0.069649
	H5824	H	0.345963	0.632087	0.117610
	H5825	H	0.095596	0.694691	0.055378
	H5826	H	0.345656	0.742369	0.007101
	H5827	H	0.095616	0.679986	0.069710
	H5828	H	0.163204	0.694549	0.007412
	H5829	H	0.412911	0.632108	0.069682
	H5830	H	0.163272	0.679863	0.117819
	H5831	H	0.412860	0.742438	0.055215
	O5832	O	0.588558	0.728990	0.020323
	O5833	O	0.838445	0.666483	0.082795
	O5834	O	0.588757	0.645637	0.104686
	O5835	O	0.838662	0.708093	0.042170
	O5836	O	0.920531	0.666464	0.104616
	O5837	O	0.670403	0.729032	0.042096
	O5838	O	0.920381	0.708118	0.020318
	O5839	O	0.670367	0.645600	0.082811
	O5840	O	0.920534	0.645602	0.104656
	O5841	O	0.670460	0.708071	0.042125
	O5842	O	0.920616	0.728987	0.020309
	O5843	O	0.670214	0.666503	0.082821
	O5844	O	0.588630	0.708109	0.020296
	O5845	O	0.838554	0.645556	0.082822
	O5846	O	0.588634	0.666454	0.104650
	O5847	O	0.838641	0.729034	0.042128
	F5848	F	0.504648	0.656031	0.086217
	F5849	F	0.754759	0.718557	0.023764
	F5850	F	0.504590	0.718547	0.038723
	F5851	F	0.754792	0.656041	0.101189
	Al5852	Al	0.629668	0.656046	0.093738
	Al5853	Al	0.879796	0.718549	0.031264
	Al5854	Al	0.629692	0.718543	0.031225
	Al5855	Al	0.879815	0.656031	0.093688
	C5856	C	0.593871	0.745639	0.004058
	C5857	C	0.843768	0.683090	0.066502
	C5858	C	0.594187	0.629010	0.121009
	C5859	C	0.843818	0.691398	0.058391
	C5860	C	0.914826	0.683133	0.120899
	C5861	C	0.664858	0.745610	0.058481
	C5862	C	0.914992	0.691471	0.003987
	C5863	C	0.664936	0.628948	0.066515
	C5864	C	0.915108	0.628861	0.120810
	C5865	C	0.665199	0.691473	0.058487
	C5866	C	0.915169	0.745641	0.004000
	C5867	C	0.665087	0.683187	0.066579
	C5868	C	0.593825	0.691365	0.004139
	C5869	C	0.843437	0.628933	0.066531
	C5870	C	0.594040	0.683107	0.120939
	C5871	C	0.843767	0.745686	0.058394
	C5872	C	0.504466	0.741372	0.008182
	C5873	C	0.754334	0.678901	0.070701
	C5874	C	0.504712	0.633210	0.116796
	C5875	C	0.754563	0.695666	0.054262
	C5876	C	0.504635	0.678877	0.116749
	C5877	C	0.754405	0.741407	0.054267
	C5878	C	0.504489	0.695696	0.008189
	C5879	C	0.754252	0.633198	0.070660
	C5880	C	0.504502	0.732497	0.016936
	C5881	C	0.754312	0.669995	0.079428
	C5882	C	0.504700	0.642106	0.108038
	C5883	C	0.754541	0.704577	0.045528
	C5884	C	0.504603	0.669981	0.108012
	C5885	C	0.754527	0.732535	0.045496
	C5886	C	0.504613	0.704595	0.016906
	C5887	C	0.754389	0.642084	0.079423
	H5888	H	0.663233	0.742432	0.007229
	H5889	H	0.912859	0.679813	0.069639
	H5890	H	0.663606	0.632279	0.117935
	H5891	H	0.912962	0.694632	0.055219
	H5892	H	0.845402	0.679925	0.117727
	H5893	H	0.595467	0.742352	0.055357
	H5894	H	0.845594	0.694737	0.007052
	H5895	H	0.595799	0.632176	0.069657
	H5896	H	0.845839	0.632031	0.117560
	H5897	H	0.595861	0.694733	0.055422
	H5898	H	0.845955	0.742395	0.007126
	H5899	H	0.595680	0.680015	0.069754
	H5900	H	0.663262	0.694529	0.007349
	H5901	H	0.912786	0.632140	0.069677
	H5902	H	0.663412	0.679869	0.117833
	H5903	H	0.913230	0.742501	0.055197
	O5904	O	0.088589	0.728979	0.145313
	O5905	O	0.338515	0.666547	0.207863
	O5906	O	0.088571	0.645596	0.229665
	O5907	O	0.338470	0.708104	0.167196
	O5908	O	0.420534	0.666483	0.229665
	O5909	O	0.170221	0.728975	0.167126
	O5910	O	0.420397	0.708062	0.145304
	O5911	O	0.170291	0.645571	0.207878
	O5912	O	0.420260	0.645583	0.229638
	O5913	O	0.170361	0.708070	0.167124
	O5914	O	0.420255	0.728985	0.145329
	O5915	O	0.170298	0.666487	0.207802
	O5916	O	0.088582	0.708061	0.145292
	O5917	O	0.338341	0.645605	0.207787
	O5918	O	0.088426	0.666522	0.229625
	O5919	O	0.338424	0.728971	0.167137
	F5920	F	0.004900	0.656059	0.211212
	F5921	F	0.254489	0.718508	0.148714
	F5922	F	0.004740	0.718522	0.163747
	F5923	F	0.254520	0.656063	0.226230
	Al5924	Al	0.129620	0.656048	0.218743
	Al5925	Al	0.379444	0.718524	0.156234
	Al5926	Al	0.129570	0.718508	0.156214
	Al5927	Al	0.379612	0.656043	0.218736
	C5928	C	0.093691	0.745585	0.128984
	C5929	C	0.343930	0.683223	0.191658
	C5930	C	0.093779	0.628970	0.245929
	C5931	C	0.344010	0.691516	0.183552
	C5932	C	0.415095	0.683154	0.245940
	C5933	C	0.165009	0.745718	0.183292
	C5934	C	0.415206	0.691438	0.129004
	C5935	C	0.164976	0.628851	0.191670
	C5936	C	0.415120	0.628935	0.245935
	C5937	C	0.165019	0.691333	0.183276
	C5938	C	0.415110	0.745672	0.129079
	C5939	C	0.164987	0.683041	0.191378
	C5940	C	0.093937	0.691391	0.129072
	C5941	C	0.343747	0.629057	0.191373
	C5942	C	0.093849	0.683132	0.245947
	C5943	C	0.343813	0.745527	0.183566
	C5944	C	0.004319	0.741372	0.133197
	C5945	C	0.254460	0.678898	0.195669
	C5946	C	0.004285	0.633206	0.241780
	C5947	C	0.254504	0.695664	0.179261
	C5948	C	0.004345	0.678900	0.241789
	C5949	C	0.254393	0.741412	0.179228
	C5950	C	0.004438	0.695653	0.133187
	C5951	C	0.254340	0.633195	0.195678
	C5952	C	0.004427	0.732477	0.141956
	C5953	C	0.254363	0.670017	0.204445
	C5954	C	0.004453	0.642107	0.233023
	C5955	C	0.254381	0.704573	0.170536
	C5956	C	0.004352	0.669999	0.233018
	C5957	C	0.254328	0.732480	0.170513
	C5958	C	0.004472	0.704566	0.141932
	C5959	C	0.254271	0.642068	0.204460
	H5960	H	0.163035	0.742329	0.132076
	H5961	H	0.413272	0.680090	0.194924
	H5962	H	0.163172	0.632206	0.242799
	H5963	H	0.413393	0.694831	0.180531
	H5964	H	0.345775	0.679922	0.242803
	H5965	H	0.095704	0.742539	0.180072
	H5966	H	0.345865	0.694665	0.132154
	H5967	H	0.095614	0.631983	0.194945
	H5968	H	0.345858	0.632155	0.242783
	H5969	H	0.095764	0.694503	0.180014
	H5970	H	0.345829	0.742477	0.132279
	H5971	H	0.095691	0.679736	0.194419
	H5972	H	0.163339	0.694597	0.132245
	H5973	H	0.413116	0.632363	0.194397
	H5974	H	0.163123	0.679905	0.242792
	H5975	H	0.413032	0.742198	0.180580
	O5976	O	0.588514	0.728962	0.145284
	O5977	O	0.838601	0.666552	0.207857
	O5978	O	0.588410	0.645591	0.229666
	O5979	O	0.838310	0.708077	0.167154
	O5980	O	0.920338	0.666475	0.229672
	O5981	O	0.670271	0.729026	0.167100
	O5982	O	0.920483	0.708073	0.145333
	O5983	O	0.670331	0.645532	0.207884
	O5984	O	0.920476	0.645615	0.229634
	O5985	O	0.670163	0.708071	0.167112
	O5986	O	0.920479	0.728971	0.145365
	O5987	O	0.670488	0.666457	0.207777
	O5988	O	0.588548	0.708077	0.145330
	O5989	O	0.838492	0.645616	0.207777
	O5990	O	0.588611	0.666497	0.229642
	O5991	O	0.838475	0.728980	0.167184
	F5992	F	0.504505	0.656030	0.211242
	F5993	F	0.754657	0.718532	0.148768
	F5994	F	0.504523	0.718536	0.163709
	F5995	F	0.754695	0.656034	0.226212
	Al5996	Al	0.629577	0.656031	0.218742
	Al5997	Al	0.879723	0.718519	0.156260
	Al5998	Al	0.629583	0.718532	0.156214
	Al5999	Al	0.879787	0.656059	0.218698
	C6000	C	0.594023	0.745592	0.128987
	C6001	C	0.843911	0.683231	0.191626
	C6002	C	0.593998	0.628957	0.245947
	C6003	C	0.843810	0.691524	0.183522
	C6004	C	0.915006	0.683173	0.245924
	C6005	C	0.664997	0.745737	0.183297
	C6006	C	0.914919	0.691420	0.129017
	C6007	C	0.665156	0.628843	0.191683
	C6008	C	0.914776	0.628931	0.245890
	C6009	C	0.664940	0.691343	0.183283
	C6010	C	0.914873	0.745663	0.129124
	C6011	C	0.665039	0.683049	0.191381
	C6012	C	0.594087	0.691407	0.129059
	C6013	C	0.843842	0.629059	0.191377
	C6014	C	0.594074	0.683118	0.245987
	C6015	C	0.843924	0.745563	0.183564
	C6016	C	0.504526	0.741381	0.133161
	C6017	C	0.754535	0.678916	0.195686
	C6018	C	0.504414	0.633192	0.241795
	C6019	C	0.754304	0.695679	0.179259
	C6020	C	0.504592	0.678919	0.241765
	C6021	C	0.754430	0.741401	0.179296
	C6022	C	0.504647	0.695687	0.133144
	C6023	C	0.754524	0.633182	0.195699
	C6024	C	0.504380	0.732474	0.141913
	C6025	C	0.754482	0.670015	0.204434
	C6026	C	0.504301	0.642096	0.233061
	C6027	C	0.754172	0.704566	0.170507
	C6028	C	0.504572	0.670008	0.233030
	C6029	C	0.754373	0.732508	0.170529
	C6030	C	0.504540	0.704580	0.141903
	C6031	C	0.754434	0.642076	0.204441
	H6032	H	0.663318	0.742342	0.132111
	H6033	H	0.913297	0.680072	0.194842
	H6034	H	0.663184	0.632216	0.242801
	H6035	H	0.913219	0.694822	0.180465
	H6036	H	0.845703	0.679974	0.242740
	H6037	H	0.595641	0.742589	0.180038
	H6038	H	0.845650	0.694669	0.132160
	H6039	H	0.595830	0.631969	0.194956
	H6040	H	0.845472	0.632147	0.242700
	H6041	H	0.595638	0.694487	0.180018
	H6042	H	0.845530	0.742471	0.132332
	H6043	H	0.595926	0.679727	0.194409
	H6044	H	0.663366	0.694606	0.132258
	H6045	H	0.913253	0.632363	0.194372
	H6046	H	0.663456	0.679865	0.242885
	H6047	H	0.913320	0.742274	0.180522
	O6048	O	0.088537	0.728998	0.270311
	O6049	O	0.338425	0.666438	0.332776
	O6050	O	0.088584	0.645585	0.354650
	O6051	O	0.338636	0.708039	0.292107
	O6052	O	0.420407	0.666520	0.354580
	O6053	O	0.170349	0.729022	0.292107
	O6054	O	0.420388	0.708105	0.270311
	O6055	O	0.170490	0.645601	0.332835
	O6056	O	0.420613	0.645601	0.354658
	O6057	O	0.170468	0.708092	0.292168
	O6058	O	0.420547	0.729007	0.270347
	O6059	O	0.170319	0.666528	0.332899
	O6060	O	0.088680	0.708084	0.270338
	O6061	O	0.338644	0.645563	0.332814
	O6062	O	0.088607	0.666493	0.354686
	O6063	O	0.338498	0.728971	0.292181
	F6064	F	0.004967	0.656022	0.336216
	F6065	F	0.254674	0.718544	0.273733
	F6066	F	0.004886	0.718534	0.288773
	F6067	F	0.254618	0.656024	0.351245
	Al6068	Al	0.129750	0.656040	0.343749
	Al6069	Al	0.379539	0.718545	0.281259
	Al6070	Al	0.129664	0.718538	0.281219
	Al6071	Al	0.379687	0.656039	0.343728
	C6072	C	0.093783	0.745646	0.254041
	C6073	C	0.343823	0.683072	0.316451
	C6074	C	0.093924	0.628900	0.370882
	C6075	C	0.343922	0.691362	0.308365
	C6076	C	0.414921	0.683194	0.370850
	C6077	C	0.165159	0.745681	0.308397
	C6078	C	0.415106	0.691455	0.254047
	C6079	C	0.164920	0.628987	0.316489
	C6080	C	0.415036	0.628960	0.370974
	C6081	C	0.165018	0.691505	0.308547
	C6082	C	0.414988	0.745634	0.254036
	C6083	C	0.164881	0.683206	0.316661
	C6084	C	0.093891	0.691420	0.254078
	C6085	C	0.343889	0.628876	0.316639
	C6086	C	0.093862	0.683102	0.371028
	C6087	C	0.343900	0.745585	0.308481
	C6088	C	0.004309	0.741417	0.258215
	C6089	C	0.254416	0.678892	0.320713
	C6090	C	0.004440	0.633178	0.366784
	C6091	C	0.254444	0.695666	0.304284
	C6092	C	0.004398	0.678922	0.366781
	C6093	C	0.254479	0.741394	0.304270
	C6094	C	0.004559	0.695693	0.258187
	C6095	C	0.254373	0.633177	0.320704
	C6096	C	0.004438	0.732500	0.266942
	C6097	C	0.254408	0.669987	0.329450
	C6098	C	0.004509	0.642092	0.358023
	C6099	C	0.254520	0.704563	0.295530
	C6100	C	0.004487	0.670007	0.358022
	C6101	C	0.254436	0.732508	0.295524
	C6102	C	0.004698	0.704581	0.266964
	C6103	C	0.254478	0.642070	0.329454
	H6104	H	0.163107	0.742420	0.257199
	H6105	H	0.413199	0.679786	0.319489
	H6106	H	0.163296	0.632099	0.367696
	H6107	H	0.413326	0.694525	0.305139
	H6108	H	0.345589	0.680019	0.367609
	H6109	H	0.095854	0.742483	0.305211
	H6110	H	0.345766	0.694691	0.257172
	H6111	H	0.095514	0.632247	0.319583
	H6112	H	0.345672	0.632213	0.367900
	H6113	H	0.095701	0.694793	0.305480
	H6114	H	0.345646	0.742404	0.257177
	H6115	H	0.095573	0.680017	0.319887
	H6116	H	0.163270	0.694617	0.257254
	H6117	H	0.413262	0.632054	0.319860
	H6118	H	0.163270	0.679830	0.367956
	H6119	H	0.413215	0.742324	0.305381
	O6120	O	0.588664	0.728970	0.270263
	O6121	O	0.838453	0.666496	0.332774
	O6122	O	0.588700	0.645573	0.354633
	O6123	O	0.838522	0.708063	0.292144
	O6124	O	0.920572	0.666529	0.354596
	O6125	O	0.670330	0.729012	0.292115
	O6126	O	0.920642	0.708068	0.270352
	O6127	O	0.670380	0.645574	0.332835
	O6128	O	0.920529	0.645580	0.354623
	O6129	O	0.670336	0.708077	0.292121
	O6130	O	0.920481	0.728971	0.270303
	O6131	O	0.670300	0.666531	0.332849
	O6132	O	0.588529	0.708088	0.270333
	O6133	O	0.838591	0.645540	0.332848
	O6134	O	0.588526	0.666474	0.354669
	O6135	O	0.838501	0.728990	0.292174
	F6136	F	0.504657	0.656050	0.336247
	F6137	F	0.754832	0.718536	0.273760
	F6138	F	0.504584	0.718546	0.288725
	F6139	F	0.754860	0.656043	0.351226
	Al6140	Al	0.629722	0.656048	0.343737
	Al6141	Al	0.879988	0.718530	0.281256
	Al6142	Al	0.629761	0.718543	0.281230
	Al6143	Al	0.879935	0.656036	0.343688
	C6144	C	0.593966	0.745636	0.254034
	C6145	C	0.843750	0.683089	0.316430
	C6146	C	0.593868	0.628920	0.370896
	C6147	C	0.843669	0.691367	0.308324
	C6148	C	0.914855	0.683203	0.370889
	C6149	C	0.664896	0.745691	0.308343
	C6150	C	0.915084	0.691456	0.254047
	C6151	C	0.664795	0.628970	0.316487
	C6152	C	0.914875	0.628965	0.370968
	C6153	C	0.664737	0.691515	0.308525
	C6154	C	0.914871	0.745654	0.254032
	C6155	C	0.664869	0.683229	0.316649
	C6156	C	0.594017	0.691417	0.254093
	C6157	C	0.843835	0.628895	0.316637
	C6158	C	0.593954	0.683072	0.371019
	C6159	C	0.843731	0.745609	0.308487
	C6160	C	0.504496	0.741379	0.258182
	C6161	C	0.754320	0.678919	0.320688
	C6162	C	0.504482	0.633171	0.366769
	C6163	C	0.754200	0.695679	0.304271
	C6164	C	0.504413	0.678879	0.366784
	C6165	C	0.754285	0.741403	0.304281
	C6166	C	0.504587	0.695697	0.258184
	C6167	C	0.754317	0.633160	0.320717
	C6168	C	0.504592	0.732487	0.266911
	C6169	C	0.754357	0.670013	0.329416
	C6170	C	0.504637	0.642075	0.358032
	C6171	C	0.754369	0.704564	0.295512
	C6172	C	0.504434	0.669991	0.358031
	C6173	C	0.754359	0.732510	0.295524
	C6174	C	0.504447	0.704607	0.266910
	C6175	C	0.754412	0.642061	0.329451
	H6176	H	0.663439	0.742416	0.257165
	H6177	H	0.913077	0.679812	0.319480
	H6178	H	0.663274	0.632137	0.367761
	H6179	H	0.912966	0.694521	0.305095
	H6180	H	0.845551	0.680002	0.367683
	H6181	H	0.595605	0.742519	0.305109
	H6182	H	0.845947	0.694695	0.257198
	H6183	H	0.595374	0.632228	0.319586
	H6184	H	0.845568	0.632218	0.367841
	H6185	H	0.595480	0.694802	0.305454
	H6186	H	0.845507	0.742437	0.257185
	H6187	H	0.595578	0.680051	0.319890
	H6188	H	0.663385	0.694626	0.257267
	H6189	H	0.913195	0.632075	0.319848
	H6190	H	0.663362	0.679809	0.367922
	H6191	H	0.912970	0.742355	0.305361
	O6192	O	0.088497	0.728958	0.395335
	O6193	O	0.338762	0.666507	0.457815
	O6194	O	0.088643	0.645557	0.479599
	O6195	O	0.338736	0.708061	0.417146
	O6196	O	0.420579	0.666477	0.479660
	O6197	O	0.170379	0.729005	0.417145
	O6198	O	0.420474	0.708080	0.395322
	O6199	O	0.170447	0.645572	0.457852
	O6200	O	0.420392	0.645589	0.479655
	O6201	O	0.170585	0.708127	0.417224
	O6202	O	0.420533	0.728980	0.395340
	O6203	O	0.170598	0.666543	0.457885
	O6204	O	0.088621	0.708058	0.395395
	O6205	O	0.338552	0.645576	0.457838
	O6206	O	0.088344	0.666461	0.479682
	O6207	O	0.338600	0.728951	0.417196
	F6208	F	0.004812	0.656043	0.461210
	F6209	F	0.254604	0.718527	0.398749
	F6210	F	0.004635	0.718550	0.413780
	F6211	F	0.254526	0.656041	0.476253
	Al6212	Al	0.129683	0.656038	0.468747
	Al6213	Al	0.379650	0.718513	0.406237
	Al6214	Al	0.129590	0.718544	0.406255
	Al6215	Al	0.379483	0.656039	0.468746
	C6216	C	0.093913	0.745639	0.379101
	C6217	C	0.343931	0.683086	0.441425
	C6218	C	0.093808	0.628950	0.495965
	C6219	C	0.343834	0.691372	0.433330
	C6220	C	0.415266	0.683218	0.495838
	C6221	C	0.164925	0.745660	0.433377
	C6222	C	0.414907	0.691494	0.378962
	C6223	C	0.165308	0.628995	0.441434
	C6224	C	0.415045	0.628946	0.495940
	C6225	C	0.165073	0.691475	0.433513
	C6226	C	0.415062	0.745610	0.379028
	C6227	C	0.165053	0.683175	0.441621
	C6228	C	0.093831	0.691392	0.379150
	C6229	C	0.343972	0.628841	0.441670
	C6230	C	0.093709	0.683022	0.496089
	C6231	C	0.343980	0.745568	0.433513
	C6232	C	0.004438	0.741371	0.383205
	C6233	C	0.254565	0.678902	0.445694
	C6234	C	0.004464	0.633191	0.491805
	C6235	C	0.254435	0.695674	0.429283
	C6236	C	0.004162	0.678870	0.491800
	C6237	C	0.254441	0.741373	0.429308
	C6238	C	0.004376	0.695680	0.383225
	C6239	C	0.254648	0.633161	0.445719
	C6240	C	0.004376	0.732475	0.391954
	C6241	C	0.254682	0.670026	0.454456
	C6242	C	0.004510	0.642095	0.483051
	C6243	C	0.254619	0.704577	0.420551
	C6244	C	0.004214	0.669978	0.483033
	C6245	C	0.254542	0.732471	0.420562
	C6246	C	0.004476	0.704601	0.391970
	C6247	C	0.254502	0.642062	0.454461
	H6248	H	0.163312	0.742437	0.382296
	H6249	H	0.413300	0.679830	0.444499
	H6250	H	0.163163	0.632186	0.492836
	H6251	H	0.413183	0.694555	0.430130
	H6252	H	0.345944	0.680061	0.492581
	H6253	H	0.095574	0.742468	0.430162
	H6254	H	0.345583	0.694794	0.382019
	H6255	H	0.095968	0.632280	0.444457
	H6256	H	0.345726	0.632162	0.492785
	H6257	H	0.095822	0.694755	0.430443
	H6258	H	0.345760	0.742372	0.382149
	H6259	H	0.095898	0.679984	0.444869
	H6260	H	0.163176	0.694570	0.382369
	H6261	H	0.413410	0.631990	0.444880
	H6262	H	0.163108	0.679730	0.493045
	H6263	H	0.413385	0.742299	0.430422
	O6264	O	0.588634	0.728987	0.395340
	O6265	O	0.838372	0.666450	0.457741
	O6266	O	0.588511	0.645592	0.479663
	O6267	O	0.838695	0.708066	0.417174
	O6268	O	0.920249	0.666526	0.479556
	O6269	O	0.670311	0.729007	0.417182
	O6270	O	0.920559	0.708108	0.395336
	O6271	O	0.670502	0.645600	0.457814
	O6272	O	0.920589	0.645618	0.479678
	O6273	O	0.670495	0.708079	0.417160
	O6274	O	0.920347	0.728999	0.395354
	O6275	O	0.670109	0.666536	0.457877
	O6276	O	0.588665	0.708075	0.395328
	O6277	O	0.838734	0.645517	0.457871
	O6278	O	0.588614	0.666445	0.479740
	O6279	O	0.838427	0.728998	0.417228
	F6280	F	0.504539	0.656035	0.461247
	F6281	F	0.754621	0.718549	0.398783
	F6282	F	0.504620	0.718527	0.413760
	F6283	F	0.754697	0.656034	0.476190
	Al6284	Al	0.629526	0.656041	0.468753
	Al6285	Al	0.879731	0.718557	0.406301
	Al6286	Al	0.629675	0.718543	0.406255
	Al6287	Al	0.879826	0.656027	0.468704
	C6288	C	0.593967	0.745640	0.379062
	C6289	C	0.843963	0.683078	0.441456
	C6290	C	0.593840	0.628955	0.495951
	C6291	C	0.844023	0.691363	0.433357
	C6292	C	0.914712	0.683227	0.495809
	C6293	C	0.664998	0.745699	0.433420
	C6294	C	0.914833	0.691488	0.379006
	C6295	C	0.665127	0.629002	0.441470
	C6296	C	0.914950	0.628921	0.495921
	C6297	C	0.664950	0.691510	0.433541
	C6298	C	0.914875	0.745619	0.379042
	C6299	C	0.664915	0.683222	0.441664
	C6300	C	0.593942	0.691375	0.379130
	C6301	C	0.843896	0.628870	0.441643
	C6302	C	0.594169	0.683044	0.496100
	C6303	C	0.843964	0.745618	0.433530
	C6304	C	0.504558	0.741389	0.383203
	C6305	C	0.754322	0.678887	0.445682
	C6306	C	0.504448	0.633199	0.491809
	C6307	C	0.754508	0.695677	0.429297
	C6308	C	0.504704	0.678872	0.491809
	C6309	C	0.754412	0.741406	0.429327
	C6310	C	0.504458	0.695664	0.383204
	C6311	C	0.754512	0.633185	0.445688
	C6312	C	0.504593	0.732495	0.391957
	C6313	C	0.754242	0.669991	0.454421
	C6314	C	0.504452	0.642100	0.483066
	C6315	C	0.754555	0.704569	0.420548
	C6316	C	0.504572	0.669989	0.483066
	C6317	C	0.754338	0.732500	0.420602
	C6318	C	0.504560	0.704572	0.391941
	C6319	C	0.754522	0.642060	0.454459
	H6320	H	0.663393	0.742421	0.382218
	H6321	H	0.913383	0.679796	0.444523
	H6322	H	0.663086	0.632188	0.492800
	H6323	H	0.913525	0.694522	0.430136
	H6324	H	0.845313	0.680093	0.492523
	H6325	H	0.595530	0.742526	0.430216
	H6326	H	0.845621	0.694767	0.382110
	H6327	H	0.595872	0.632269	0.444583
	H6328	H	0.845648	0.632141	0.492752
	H6329	H	0.595617	0.694801	0.430470
	H6330	H	0.845556	0.742387	0.382206
	H6331	H	0.595542	0.680053	0.444910
	H6332	H	0.663330	0.694573	0.382324
	H6333	H	0.913124	0.632028	0.444910
	H6334	H	0.663563	0.679753	0.493069
	H6335	H	0.913339	0.742365	0.430416
	O6336	O	0.088540	0.728974	0.520349
	O6337	O	0.338558	0.666442	0.582809
	O6338	O	0.088652	0.645630	0.604760
	O6339	O	0.338688	0.708059	0.542187
	O6340	O	0.420379	0.666455	0.604680
	O6341	O	0.170252	0.728992	0.542163
	O6342	O	0.420669	0.708104	0.520341
	O6343	O	0.170485	0.645539	0.582929
	O6344	O	0.420631	0.645580	0.604708
	O6345	O	0.170565	0.708044	0.542155
	O6346	O	0.420479	0.728994	0.520391
	O6347	O	0.170404	0.666495	0.582875
	O6348	O	0.088698	0.708042	0.520372
	O6349	O	0.338693	0.645585	0.582818
	O6350	O	0.088785	0.666493	0.604664
	O6351	O	0.338385	0.728955	0.542241
	F6352	F	0.004736	0.656023	0.586241
	F6353	F	0.254674	0.718523	0.523783
	F6354	F	0.004853	0.718504	0.538823
	F6355	F	0.254655	0.656028	0.601272
	Al6356	Al	0.129738	0.656029	0.593772
	Al6357	Al	0.379549	0.718527	0.531284
	Al6358	Al	0.129649	0.718514	0.531268
	Al6359	Al	0.379657	0.656012	0.593778
	C6360	C	0.093541	0.745570	0.503997
	C6361	C	0.343793	0.683064	0.566484
	C6362	C	0.093824	0.628979	0.621035
	C6363	C	0.343871	0.691361	0.558381
	C6364	C	0.415103	0.683112	0.620988
	C6365	C	0.165034	0.745692	0.558367
	C6366	C	0.415199	0.691521	0.503953
	C6367	C	0.164938	0.628906	0.566613
	C6368	C	0.415166	0.628866	0.620860
	C6369	C	0.165071	0.691468	0.558567
	C6370	C	0.415180	0.745669	0.504146
	C6371	C	0.165023	0.683179	0.566665
	C6372	C	0.093722	0.691306	0.504222
	C6373	C	0.343783	0.628961	0.566523
	C6374	C	0.093798	0.683100	0.620999
	C6375	C	0.343794	0.745537	0.558589
	C6376	C	0.004132	0.741373	0.508230
	C6377	C	0.254449	0.678878	0.570727
	C6378	C	0.004350	0.633174	0.616816
	C6379	C	0.254477	0.695658	0.554315
	C6380	C	0.004404	0.678879	0.616818
	C6381	C	0.254389	0.741371	0.554314
	C6382	C	0.004352	0.695651	0.508227
	C6383	C	0.254398	0.633169	0.570731
	C6384	C	0.004415	0.732464	0.516978
	C6385	C	0.254480	0.669976	0.579466
	C6386	C	0.004541	0.642067	0.608064
	C6387	C	0.254603	0.704545	0.545560
	C6388	C	0.004586	0.669980	0.608071
	C6389	C	0.254292	0.732486	0.545576
	C6390	C	0.004522	0.704558	0.516983
	C6391	C	0.254516	0.642059	0.579479
	H6392	H	0.162899	0.742306	0.507071
	H6393	H	0.413021	0.679777	0.569553
	H6394	H	0.163098	0.632255	0.617947
	H6395	H	0.413118	0.694546	0.555147
	H6396	H	0.345862	0.679882	0.617848
	H6397	H	0.095770	0.742524	0.555120
	H6398	H	0.345934	0.694820	0.507029
	H6399	H	0.095683	0.632104	0.569810
	H6400	H	0.346014	0.632062	0.617613
	H6401	H	0.095656	0.694731	0.555495
	H6402	H	0.345882	0.742475	0.507341
	H6403	H	0.095679	0.680006	0.569862
	H6404	H	0.163056	0.694451	0.507491
	H6405	H	0.413052	0.632203	0.569648
	H6406	H	0.163173	0.679857	0.617882
	H6407	H	0.413093	0.742245	0.555537
	O6408	O	0.588560	0.728903	0.520264
	O6409	O	0.838529	0.666490	0.582828
	O6410	O	0.588824	0.645576	0.604700
	O6411	O	0.838631	0.708011	0.542219
	O6412	O	0.920574	0.666465	0.604677
	O6413	O	0.670206	0.729010	0.542117
	O6414	O	0.920577	0.708075	0.520366
	O6415	O	0.670256	0.645532	0.582872
	O6416	O	0.920556	0.645533	0.604589
	O6417	O	0.670423	0.708085	0.542231
	O6418	O	0.920477	0.728983	0.520411
	O6419	O	0.670294	0.666501	0.582886
	O6420	O	0.588815	0.708020	0.520402
	O6421	O	0.838513	0.645548	0.582832
	O6422	O	0.588571	0.666435	0.604725
	O6423	O	0.838252	0.728920	0.542281
	F6424	F	0.504593	0.656011	0.586285
	F6425	F	0.754780	0.718499	0.523819
	F6426	F	0.504558	0.718517	0.538772
	F6427	F	0.754787	0.656012	0.601241
	Al6428	Al	0.629524	0.656016	0.593783
	Al6429	Al	0.879809	0.718504	0.531323
	Al6430	Al	0.629636	0.718510	0.531269
	Al6431	Al	0.879837	0.656011	0.593732
	C6432	C	0.594118	0.745572	0.504006
	C6433	C	0.843597	0.683047	0.566484
	C6434	C	0.594297	0.628974	0.621045
	C6435	C	0.843512	0.691333	0.558366
	C6436	C	0.914883	0.683113	0.620973
	C6437	C	0.664953	0.745687	0.558352
	C6438	C	0.914810	0.691508	0.503944
	C6439	C	0.664905	0.628877	0.566614
	C6440	C	0.914822	0.628877	0.620870
	C6441	C	0.664867	0.691443	0.558524
	C6442	C	0.914684	0.745663	0.504137
	C6443	C	0.664947	0.683164	0.566632
	C6444	C	0.594101	0.691346	0.504218
	C6445	C	0.843664	0.628940	0.566531
	C6446	C	0.593847	0.683104	0.621000
	C6447	C	0.843564	0.745541	0.558576
	C6448	C	0.504687	0.741354	0.508222
	C6449	C	0.754290	0.678865	0.570707
	C6450	C	0.504745	0.633176	0.616842
	C6451	C	0.754106	0.695638	0.554318
	C6452	C	0.504469	0.678860	0.616855
	C6453	C	0.754250	0.741346	0.554316
	C6454	C	0.504614	0.695683	0.508206
	C6455	C	0.754284	0.633145	0.570733
	C6456	C	0.504557	0.732461	0.516950
	C6457	C	0.754353	0.669992	0.579471
	C6458	C	0.504739	0.642078	0.608098
	C6459	C	0.754344	0.704543	0.545599
	C6460	C	0.504449	0.669942	0.608115
	C6461	C	0.754237	0.732467	0.545577
	C6462	C	0.504650	0.704569	0.516971
	C6463	C	0.754356	0.642041	0.579470
	H6464	H	0.663473	0.742308	0.507082
	H6465	H	0.912785	0.679779	0.569570
	H6466	H	0.663594	0.632262	0.617955
	H6467	H	0.912677	0.694515	0.555136
	H6468	H	0.845586	0.679878	0.617832
	H6469	H	0.595685	0.742523	0.555089
	H6470	H	0.845563	0.694825	0.506982
	H6471	H	0.595533	0.632085	0.569778
	H6472	H	0.845510	0.632064	0.617651
	H6473	H	0.595511	0.694701	0.555443
	H6474	H	0.845374	0.742472	0.507336
	H6475	H	0.595713	0.679982	0.569851
	H6476	H	0.663289	0.694494	0.507508
	H6477	H	0.913028	0.632190	0.569621
	H6478	H	0.663090	0.679866	0.617862
	H6479	H	0.912784	0.742268	0.555505
	O6480	O	0.088640	0.728943	0.645304
	O6481	O	0.338562	0.666447	0.707805
	O6482	O	0.088430	0.645489	0.729592
	O6483	O	0.338560	0.708063	0.667176
	O6484	O	0.420666	0.666488	0.729638
	O6485	O	0.170372	0.728936	0.667216
	O6486	O	0.420518	0.708078	0.645347
	O6487	O	0.170534	0.645529	0.707874
	O6488	O	0.420502	0.645566	0.729685
	O6489	O	0.170346	0.708075	0.667218
	O6490	O	0.420367	0.728959	0.645341
	O6491	O	0.170453	0.666502	0.707924
	O6492	O	0.088464	0.708040	0.645378
	O6493	O	0.338756	0.645530	0.707888
	O6494	O	0.088365	0.666423	0.729725
	O6495	O	0.338540	0.728992	0.667114
	F6496	F	0.004722	0.656000	0.711247
	F6497	F	0.254359	0.718495	0.648763
	F6498	F	0.004645	0.718501	0.663783
	F6499	F	0.254575	0.656010	0.726249
	Al6500	Al	0.129599	0.656006	0.718778
	Al6501	Al	0.379434	0.718527	0.656228
	Al6502	Al	0.129465	0.718498	0.656276
	Al6503	Al	0.379566	0.656011	0.718748
	C6504	C	0.093919	0.745596	0.629024
	C6505	C	0.343880	0.683115	0.691567
	C6506	C	0.093613	0.628857	0.745881
	C6507	C	0.343868	0.691411	0.683450
	C6508	C	0.415142	0.683175	0.745870
	C6509	C	0.165072	0.745566	0.683555
	C6510	C	0.415116	0.691417	0.629070
	C6511	C	0.165074	0.628878	0.691631
	C6512	C	0.415112	0.628958	0.746037
	C6513	C	0.165028	0.691408	0.683449
	C6514	C	0.415097	0.745647	0.629100
	C6515	C	0.165004	0.683123	0.691547
	C6516	C	0.093659	0.691395	0.629103
	C6517	C	0.344099	0.628916	0.691544
	C6518	C	0.093783	0.683064	0.746048
	C6519	C	0.343956	0.745658	0.683362
	C6520	C	0.004483	0.741392	0.633228
	C6521	C	0.254460	0.678864	0.695695
	C6522	C	0.004219	0.633162	0.741827
	C6523	C	0.254473	0.695657	0.679314
	C6524	C	0.004234	0.678879	0.741810
	C6525	C	0.254500	0.741362	0.679305
	C6526	C	0.004258	0.695655	0.633220
	C6527	C	0.254623	0.633127	0.695746
	C6528	C	0.004515	0.732473	0.641943
	C6529	C	0.254454	0.669987	0.704480
	C6530	C	0.004265	0.642045	0.733053
	C6531	C	0.254466	0.704555	0.670566
	C6532	C	0.004327	0.669968	0.733060
	C6533	C	0.254478	0.732470	0.670548
	C6534	C	0.004340	0.704566	0.641940
	C6535	C	0.254666	0.642027	0.704491
	H6536	H	0.163229	0.742326	0.632113
	H6537	H	0.413144	0.679898	0.694743
	H6538	H	0.163008	0.632019	0.742644
	H6539	H	0.413218	0.694649	0.680311
	H6540	H	0.345780	0.680006	0.742627
	H6541	H	0.095633	0.742313	0.680482
	H6542	H	0.345815	0.694643	0.632184
	H6543	H	0.095759	0.632103	0.694825
	H6544	H	0.345765	0.632215	0.742957
	H6545	H	0.095699	0.694633	0.680319
	H6546	H	0.345874	0.742433	0.632280
	H6547	H	0.095732	0.679911	0.694709
	H6548	H	0.162936	0.694609	0.632264
	H6549	H	0.413440	0.632190	0.694663
	H6550	H	0.163279	0.679789	0.742976
	H6551	H	0.413340	0.742490	0.680149
	O6552	O	0.588539	0.728975	0.645379
	O6553	O	0.838651	0.666476	0.707828
	O6554	O	0.588715	0.645561	0.729683
	O6555	O	0.838677	0.708029	0.667144
	O6556	O	0.920278	0.666494	0.729629
	O6557	O	0.670390	0.728973	0.667175
	O6558	O	0.920349	0.708094	0.645301
	O6559	O	0.670366	0.645552	0.707846
	O6560	O	0.920307	0.645579	0.729711
	O6561	O	0.670507	0.708067	0.667192
	O6562	O	0.920476	0.729001	0.645373
	O6563	O	0.670410	0.666455	0.707832
	O6564	O	0.588591	0.708084	0.645341
	O6565	O	0.838573	0.645540	0.707885
	O6566	O	0.588781	0.666435	0.729710
	O6567	O	0.838575	0.729006	0.667161
	F6568	F	0.504622	0.656007	0.711262
	F6569	F	0.754586	0.718530	0.648785
	F6570	F	0.504431	0.718516	0.663759
	F6571	F	0.754608	0.656027	0.726247
	Al6572	Al	0.629644	0.656004	0.718781
	Al6573	Al	0.879659	0.718521	0.656285
	Al6574	Al	0.629503	0.718533	0.656260
	Al6575	Al	0.879710	0.656013	0.718748
	C6576	C	0.593927	0.745586	0.629015
	C6577	C	0.844012	0.683123	0.691587
	C6578	C	0.593961	0.628864	0.745902
	C6579	C	0.844072	0.691423	0.683481
	C6580	C	0.914708	0.683197	0.745883
	C6581	C	0.664954	0.745563	0.683547
	C6582	C	0.914814	0.691414	0.629073
	C6583	C	0.664934	0.628897	0.691626
	C6584	C	0.914762	0.628955	0.746031
	C6585	C	0.665150	0.691429	0.683490
	C6586	C	0.914967	0.745663	0.629105
	C6587	C	0.665097	0.683136	0.691584
	C6588	C	0.593752	0.691412	0.629083
	C6589	C	0.843884	0.628937	0.691540
	C6590	C	0.594117	0.683042	0.746083
	C6591	C	0.843819	0.745691	0.683375
	C6592	C	0.504524	0.741377	0.633217
	C6593	C	0.754489	0.678871	0.695711
	C6594	C	0.504524	0.633166	0.741832
	C6595	C	0.754671	0.695650	0.679301
	C6596	C	0.504659	0.678848	0.741839
	C6597	C	0.754393	0.741374	0.679315
	C6598	C	0.504452	0.695660	0.633228
	C6599	C	0.754461	0.633143	0.695755
	C6600	C	0.504490	0.732476	0.641980
	C6601	C	0.754485	0.669962	0.704438
	C6602	C	0.504602	0.642059	0.733079
	C6603	C	0.754582	0.704551	0.670562
	C6604	C	0.504748	0.669959	0.733079
	C6605	C	0.754447	0.732484	0.670564
	C6606	C	0.504557	0.704570	0.641957
	C6607	C	0.754497	0.642034	0.704502
	H6608	H	0.663161	0.742326	0.632132
	H6609	H	0.913421	0.679893	0.694753
	H6610	H	0.663319	0.632045	0.742697
	H6611	H	0.913458	0.694673	0.680364
	H6612	H	0.845227	0.680025	0.742668
	H6613	H	0.595542	0.742308	0.680471
	H6614	H	0.845510	0.694640	0.632215
	H6615	H	0.595580	0.632115	0.694805
	H6616	H	0.845486	0.632212	0.742914
	H6617	H	0.595940	0.694677	0.680380
	H6618	H	0.845636	0.742437	0.632261
	H6619	H	0.595696	0.679931	0.694734
	H6620	H	0.663012	0.694642	0.632206
	H6621	H	0.913277	0.632194	0.694648
	H6622	H	0.663528	0.679767	0.743020
	H6623	H	0.913290	0.742535	0.680153
	O6624	O	0.088595	0.728944	0.770312
	O6625	O	0.338736	0.666469	0.832766
	O6626	O	0.088760	0.645589	0.854683
	O6627	O	0.338810	0.708025	0.792098
	O6628	O	0.420343	0.666483	0.854620
	O6629	O	0.170024	0.728977	0.792200
	O6630	O	0.420643	0.708113	0.770263
	O6631	O	0.170431	0.645553	0.832884
	O6632	O	0.420485	0.645600	0.854683
	O6633	O	0.170605	0.708124	0.792215
	O6634	O	0.420471	0.728978	0.770343
	O6635	O	0.170577	0.666523	0.832882
	O6636	O	0.088736	0.708043	0.770375
	O6637	O	0.338557	0.645577	0.832809
	O6638	O	0.088656	0.666437	0.854718
	O6639	O	0.338186	0.728957	0.792209
	F6640	F	0.004886	0.656038	0.836212
	F6641	F	0.254441	0.718542	0.773763
	F6642	F	0.004526	0.718520	0.788762
	F6643	F	0.254735	0.656021	0.851227
	Al6644	Al	0.129773	0.656042	0.843764
	Al6645	Al	0.379382	0.718529	0.781253
	Al6646	Al	0.129457	0.718526	0.781262
	Al6647	Al	0.379651	0.656022	0.843734
	C6648	C	0.093970	0.745634	0.754046
	C6649	C	0.344039	0.683078	0.816445
	C6650	C	0.093692	0.628947	0.870986
	C6651	C	0.344067	0.691367	0.808335
	C6652	C	0.415069	0.683214	0.870811
	C6653	C	0.164740	0.745615	0.808506
	C6654	C	0.415135	0.691472	0.753980
	C6655	C	0.164938	0.628937	0.816548
	C6656	C	0.415034	0.628927	0.870931
	C6657	C	0.165032	0.691488	0.808526
	C6658	C	0.415005	0.745606	0.754027
	C6659	C	0.165046	0.683200	0.816632
	C6660	C	0.093917	0.691360	0.754161
	C6661	C	0.343675	0.628876	0.816632
	C6662	C	0.093816	0.683027	0.871094
	C6663	C	0.343698	0.745669	0.808372
	C6664	C	0.004544	0.741383	0.758208
	C6665	C	0.254528	0.678907	0.820700
	C6666	C	0.004341	0.633179	0.866807
	C6667	C	0.254583	0.695682	0.804300
	C6668	C	0.004398	0.678862	0.866799
	C6669	C	0.254140	0.741363	0.804319
	C6670	C	0.004389	0.695666	0.758229
	C6671	C	0.254319	0.633166	0.820707
	C6672	C	0.004547	0.732462	0.766937
	C6673	C	0.254603	0.670011	0.829447
	C6674	C	0.004599	0.642070	0.858047
	C6675	C	0.254653	0.704576	0.795549
	C6676	C	0.004527	0.669981	0.858046
	C6677	C	0.254101	0.732473	0.795587
	C6678	C	0.004556	0.704558	0.766985
	C6679	C	0.254413	0.642073	0.829435
	H6680	H	0.163383	0.742391	0.757168
	H6681	H	0.413369	0.679787	0.819512
	H6682	H	0.163078	0.632185	0.867875
	H6683	H	0.413425	0.694544	0.805087
	H6684	H	0.345703	0.680070	0.867555
	H6685	H	0.095307	0.742386	0.805384
	H6686	H	0.345790	0.694754	0.757052
	H6687	H	0.095631	0.632174	0.819676
	H6688	H	0.345739	0.632126	0.867744
	H6689	H	0.095633	0.694760	0.805445
	H6690	H	0.345639	0.742362	0.757153
	H6691	H	0.095619	0.680034	0.819849
	H6692	H	0.163400	0.694532	0.757379
	H6693	H	0.413023	0.632069	0.819823
	H6694	H	0.163261	0.679748	0.868056
	H6695	H	0.412923	0.742482	0.805135
	O6696	O	0.588616	0.728956	0.770324
	O6697	O	0.838395	0.666455	0.832768
	O6698	O	0.588713	0.645574	0.854663
	O6699	O	0.838270	0.708050	0.792151
	O6700	O	0.920526	0.666521	0.854567
	O6701	O	0.670229	0.728967	0.792189
	O6702	O	0.920596	0.708077	0.770359
	O6703	O	0.670476	0.645595	0.832808
	O6704	O	0.920608	0.645599	0.854661
	O6705	O	0.670102	0.708098	0.792213
	O6706	O	0.920450	0.728979	0.770342
	O6707	O	0.670125	0.666556	0.832948
	O6708	O	0.588792	0.708043	0.770387
	O6709	O	0.838657	0.645532	0.832846
	O6710	O	0.588483	0.666424	0.854732
	O6711	O	0.838457	0.728999	0.792146
	F6712	F	0.504601	0.656014	0.836251
	F6713	F	0.754490	0.718503	0.773772
	F6714	F	0.504367	0.718524	0.788749
	F6715	F	0.754829	0.656029	0.851227
	Al6716	Al	0.629750	0.656026	0.843750
	Al6717	Al	0.879690	0.718533	0.781273
	Al6718	Al	0.629526	0.718516	0.781276
	Al6719	Al	0.879944	0.656029	0.843697
	C6720	C	0.594089	0.745600	0.754047
	C6721	C	0.843615	0.683040	0.816442
	C6722	C	0.594025	0.628960	0.870977
	C6723	C	0.843568	0.691325	0.808321
	C6724	C	0.914847	0.683175	0.870841
	C6725	C	0.664968	0.745585	0.808517
	C6726	C	0.914756	0.691490	0.753997
	C6727	C	0.665003	0.628954	0.816523
	C6728	C	0.914870	0.628931	0.870933
	C6729	C	0.664783	0.691458	0.808500
	C6730	C	0.914973	0.745619	0.754043
	C6731	C	0.664835	0.683175	0.816614
	C6732	C	0.594144	0.691341	0.754195
	C6733	C	0.843658	0.628886	0.816582
	C6734	C	0.593900	0.683004	0.871073
	C6735	C	0.843795	0.745635	0.808403
	C6736	C	0.504538	0.741362	0.758195
	C6737	C	0.754236	0.678883	0.820708
	C6738	C	0.504495	0.633201	0.866829
	C6739	C	0.754123	0.695659	0.804292
	C6740	C	0.504412	0.678856	0.866800
	C6741	C	0.754350	0.741368	0.804305
	C6742	C	0.504692	0.695665	0.758204
	C6743	C	0.754361	0.633148	0.820723
	C6744	C	0.504541	0.732475	0.766947
	C6745	C	0.754233	0.669995	0.829454
	C6746	C	0.504557	0.642081	0.858057
	C6747	C	0.754161	0.704582	0.795579
	C6748	C	0.504376	0.669950	0.858077
	C6749	C	0.754347	0.732489	0.795543
	C6750	C	0.504741	0.704572	0.766933
	C6751	C	0.754478	0.642058	0.829443
	H6752	H	0.663488	0.742359	0.757188
	H6753	H	0.912905	0.679751	0.819493
	H6754	H	0.663311	0.632200	0.867817
	H6755	H	0.912751	0.694487	0.805069
	H6756	H	0.845406	0.680014	0.867590
	H6757	H	0.595604	0.742328	0.805415
	H6758	H	0.845435	0.694775	0.757086
	H6759	H	0.595829	0.632233	0.819612
	H6760	H	0.845587	0.632157	0.867773
	H6761	H	0.595426	0.694721	0.805407
	H6762	H	0.845623	0.742364	0.757156
	H6763	H	0.595513	0.679985	0.819819
	H6764	H	0.663523	0.694503	0.757437
	H6765	H	0.912986	0.632116	0.819716
	H6766	H	0.663154	0.679684	0.868050
	H6767	H	0.913124	0.742436	0.805208
	O6768	O	0.088675	0.728974	0.895336
	O6769	O	0.338570	0.666439	0.957783
	O6770	O	0.088575	0.645575	0.979646
	O6771	O	0.338619	0.708057	0.917154
	O6772	O	0.420360	0.666518	0.979599
	O6773	O	0.170354	0.728975	0.917159
	O6774	O	0.420650	0.708098	0.895276
	O6775	O	0.170867	0.645592	0.957817
	O6776	O	0.420688	0.645600	0.979690
	O6777	O	0.170443	0.708074	0.917164
	O6778	O	0.420181	0.728964	0.895327
	O6779	O	0.170317	0.666507	0.957873
	O6780	O	0.088537	0.708068	0.895353
	O6781	O	0.339046	0.645548	0.957833
	O6782	O	0.088628	0.666474	0.979676
	O6783	O	0.338471	0.728997	0.917104
	F6784	F	0.004878	0.656037	0.961208
	F6785	F	0.254426	0.718492	0.898735
	F6786	F	0.004822	0.718496	0.913760
	F6787	F	0.254755	0.656036	0.976219
	Al6788	Al	0.129694	0.656029	0.968745
	Al6789	Al	0.379407	0.718511	0.906240
	Al6790	Al	0.129655	0.718510	0.906240
	Al6791	Al	0.379743	0.656027	0.968714
	C6792	C	0.093717	0.745671	0.879084
	C6793	C	0.343776	0.683062	0.941474
	C6794	C	0.093728	0.628880	0.995854
	C6795	C	0.343760	0.691366	0.933367
	C6796	C	0.414796	0.683166	0.995855
	C6797	C	0.164963	0.745636	0.933449
	C6798	C	0.415181	0.691524	0.878902
	C6799	C	0.165241	0.628972	0.941481
	C6800	C	0.415066	0.628978	0.996050
	C6801	C	0.164904	0.691479	0.933545
	C6802	C	0.414940	0.745623	0.879009
	C6803	C	0.164964	0.683193	0.941639
	C6804	C	0.093749	0.691328	0.879211
	C6805	C	0.343763	0.628837	0.941654
	C6806	C	0.093949	0.683071	0.996063
	C6807	C	0.343798	0.745664	0.933367
	C6808	C	0.004333	0.741387	0.883195
	C6809	C	0.254350	0.678858	0.945670
	C6810	C	0.004241	0.633174	0.991777
	C6811	C	0.254371	0.695650	0.929277
	C6812	C	0.004579	0.678880	0.991822
	C6813	C	0.254360	0.741392	0.929261
	C6814	C	0.004264	0.695656	0.883214
	C6815	C	0.254618	0.633172	0.945697
	C6816	C	0.004564	0.732480	0.891953
	C6817	C	0.254424	0.669975	0.954446
	C6818	C	0.004387	0.642079	0.983036
	C6819	C	0.254491	0.704545	0.920527
	C6820	C	0.004541	0.670000	0.983052
	C6821	C	0.254435	0.732484	0.920534
	C6822	C	0.004436	0.704559	0.891946
	C6823	C	0.254888	0.642063	0.954443
	H6824	H	0.163095	0.742476	0.882272
	H6825	H	0.413047	0.679796	0.944595
	H6826	H	0.163164	0.632062	0.992634
	H6827	H	0.413103	0.694573	0.930153
	H6828	H	0.345570	0.679981	0.992601
	H6829	H	0.095528	0.742412	0.930322
	H6830	H	0.345972	0.694844	0.881924
	H6831	H	0.095973	0.632229	0.944567
	H6832	H	0.345708	0.632275	0.993000
	H6833	H	0.095626	0.694756	0.930503
	H6834	H	0.345608	0.742364	0.882101
	H6835	H	0.095601	0.680054	0.944885
	H6836	H	0.163055	0.694489	0.882464
	H6837	H	0.413138	0.631977	0.944880
	H6838	H	0.163256	0.679793	0.992985
	H6839	H	0.413170	0.742469	0.930173
	O6840	O	0.588345	0.728975	0.895330
	O6841	O	0.838571	0.666476	0.957783
	O6842	O	0.588818	0.645558	0.979658
	O6843	O	0.838565	0.708026	0.917155
	O6844	O	0.920493	0.666540	0.979589
	O6845	O	0.670343	0.729019	0.917111
	O6846	O	0.920384	0.708090	0.895293
	O6847	O	0.670386	0.645594	0.957805
	O6848	O	0.920440	0.645596	0.979631
	O6849	O	0.670343	0.708094	0.917219
	O6850	O	0.920631	0.728983	0.895384
	O6851	O	0.670345	0.666501	0.957854
	O6852	O	0.588761	0.708041	0.895345
	O6853	O	0.838580	0.645567	0.957807
	O6854	O	0.588578	0.666450	0.979690
	O6855	O	0.838472	0.728981	0.917185
	F6856	F	0.504670	0.656015	0.961252
	F6857	F	0.754679	0.718532	0.898779
	F6858	F	0.504400	0.718512	0.913729
	F6859	F	0.754802	0.656018	0.976243
	Al6860	Al	0.629727	0.656017	0.968764
	Al6861	Al	0.879797	0.718506	0.906282
	Al6862	Al	0.629515	0.718529	0.906237
	Al6863	Al	0.879842	0.656053	0.968699
	C6864	C	0.593908	0.745635	0.879071
	C6865	C	0.843710	0.683041	0.941431
	C6866	C	0.594071	0.628864	0.995856
	C6867	C	0.843777	0.691343	0.933329
	C6868	C	0.915039	0.683174	0.995869
	C6869	C	0.664937	0.745592	0.933447
	C6870	C	0.914778	0.691478	0.878956
	C6871	C	0.664917	0.629013	0.941429
	C6872	C	0.914596	0.628996	0.996006
	C6873	C	0.664936	0.691454	0.933531
	C6874	C	0.914858	0.745619	0.879009
	C6875	C	0.664886	0.683168	0.941619
	C6876	C	0.593992	0.691311	0.879165
	C6877	C	0.843802	0.628865	0.941654
	C6878	C	0.593797	0.683059	0.996026
	C6879	C	0.843837	0.745657	0.933384
	C6880	C	0.504345	0.741396	0.883224
	C6881	C	0.754314	0.678877	0.945697
	C6882	C	0.504645	0.633160	0.991803
	C6883	C	0.754317	0.695653	0.929297
	C6884	C	0.504310	0.678864	0.991813
	C6885	C	0.754440	0.741361	0.929266
	C6886	C	0.504678	0.695653	0.883187
	C6887	C	0.754347	0.633152	0.945721
	C6888	C	0.504240	0.732481	0.891945
	C6889	C	0.754425	0.669993	0.954444
	C6890	C	0.504727	0.642065	0.983060
	C6891	C	0.754377	0.704559	0.920572
	C6892	C	0.504474	0.669978	0.983042
	C6893	C	0.754414	0.732500	0.920525
	C6894	C	0.504692	0.704559	0.891920
	C6895	C	0.754450	0.642082	0.954415
	H6896	H	0.663301	0.742398	0.882207
	H6897	H	0.912956	0.679745	0.944484
	H6898	H	0.663428	0.632059	0.992637
	H6899	H	0.913035	0.694522	0.930083
	H6900	H	0.845742	0.679999	0.992632
	H6901	H	0.595486	0.742371	0.930312
	H6902	H	0.845423	0.694767	0.881995
	H6903	H	0.595643	0.632344	0.944444
	H6904	H	0.845207	0.632276	0.992920
	H6905	H	0.595547	0.694717	0.930474
	H6906	H	0.845508	0.742381	0.882134
	H6907	H	0.595493	0.679991	0.944825
	H6908	H	0.663346	0.694463	0.882415
	H6909	H	0.912980	0.632078	0.944865
	H6910	H	0.663036	0.679779	0.992913
	H6911	H	0.913310	0.742490	0.930195
	O6912	O	0.088618	0.854024	0.020328
	O6913	O	0.338616	0.791504	0.082837
	O6914	O	0.088472	0.770551	0.104614
	O6915	O	0.338678	0.833084	0.042173
	O6916	O	0.420553	0.791492	0.104653
	O6917	O	0.170386	0.854013	0.042066
	O6918	O	0.420357	0.833037	0.020377
	O6919	O	0.170246	0.770533	0.082888
	O6920	O	0.420471	0.770590	0.104649
	O6921	O	0.170525	0.833028	0.042055
	O6922	O	0.420592	0.854022	0.020366
	O6923	O	0.170492	0.791464	0.082794
	O6924	O	0.088455	0.833110	0.020314
	O6925	O	0.338452	0.770603	0.082824
	O6926	O	0.088628	0.791516	0.104607
	O6927	O	0.338581	0.853992	0.042135
	F6928	F	0.004646	0.781041	0.086216
	F6929	F	0.254638	0.843523	0.023717
	F6930	F	0.004831	0.843545	0.038758
	F6931	F	0.254401	0.781042	0.101245
	Al6932	Al	0.129487	0.781034	0.093747
	Al6933	Al	0.379591	0.843530	0.031233
	Al6934	Al	0.129678	0.843549	0.031194
	Al6935	Al	0.379455	0.781051	0.093745
	C6936	C	0.093531	0.870658	0.004017
	C6937	C	0.343970	0.808231	0.066684
	C6938	C	0.093685	0.753874	0.120856
	C6939	C	0.343933	0.816513	0.058566
	C6940	C	0.415163	0.808151	0.120914
	C6941	C	0.164977	0.870682	0.058370
	C6942	C	0.415020	0.816345	0.004156
	C6943	C	0.165059	0.753917	0.066593
	C6944	C	0.415098	0.753959	0.120961
	C6945	C	0.164897	0.816347	0.058301
	C6946	C	0.415288	0.870655	0.004072
	C6947	C	0.164904	0.808062	0.066426
	C6948	C	0.093789	0.816527	0.003923
	C6949	C	0.343603	0.753950	0.066513
	C6950	C	0.093935	0.808134	0.120933
	C6951	C	0.343974	0.870628	0.058448
	C6952	C	0.004231	0.866430	0.008205
	C6953	C	0.254472	0.803899	0.070698
	C6954	C	0.004274	0.758165	0.116788
	C6955	C	0.254450	0.820669	0.054275
	C6956	C	0.004439	0.803911	0.116754
	C6957	C	0.254478	0.866402	0.054267
	C6958	C	0.004347	0.820676	0.008227
	C6959	C	0.254388	0.758193	0.070694
	C6960	C	0.004429	0.857528	0.016932
	C6961	C	0.254530	0.795001	0.079443
	C6962	C	0.004406	0.767062	0.108016
	C6963	C	0.254566	0.829548	0.045506
	C6964	C	0.004515	0.795013	0.108001
	C6965	C	0.254467	0.857508	0.045495
	C6966	C	0.004286	0.829568	0.016967
	C6967	C	0.254412	0.767079	0.079445
	H6968	H	0.162887	0.867418	0.007120
	H6969	H	0.413344	0.805080	0.069948
	H6970	H	0.162988	0.757048	0.117627
	H6971	H	0.413336	0.819804	0.055516
	H6972	H	0.345823	0.804933	0.117758
	H6973	H	0.095541	0.867494	0.055184
	H6974	H	0.345716	0.819498	0.007410
	H6975	H	0.095690	0.757089	0.069784
	H6976	H	0.345860	0.757204	0.117855
	H6977	H	0.095480	0.819496	0.055032
	H6978	H	0.346113	0.867440	0.007254
	H6979	H	0.095567	0.804769	0.069472
	H6980	H	0.163151	0.819818	0.006969
	H6981	H	0.413005	0.757159	0.069639
	H6982	H	0.163326	0.804902	0.117799
	H6983	H	0.413448	0.867400	0.055334
	O6984	O	0.588768	0.853967	0.020295
	O6985	O	0.838306	0.791534	0.082840
	O6986	O	0.588640	0.770555	0.104633
	O6987	O	0.838638	0.833094	0.042188
	O6988	O	0.920468	0.791500	0.104615
	O6989	O	0.670592	0.854006	0.042104
	O6990	O	0.920278	0.833056	0.020409
	O6991	O	0.670245	0.770600	0.082805
	O6992	O	0.920469	0.770588	0.104634
	O6993	O	0.670432	0.833033	0.042055
	O6994	O	0.920458	0.854004	0.020329
	O6995	O	0.670106	0.791471	0.082778
	O6996	O	0.588579	0.833095	0.020284
	O6997	O	0.838485	0.770566	0.082854
	O6998	O	0.588763	0.791490	0.104647
	O6999	O	0.838652	0.854007	0.042138
	F7000	F	0.504397	0.781041	0.086246
	F7001	F	0.754874	0.843541	0.023735
	F7002	F	0.504714	0.843525	0.038711
	F7003	F	0.754628	0.781026	0.101208
	Al7004	Al	0.629500	0.781033	0.093715
	Al7005	Al	0.879877	0.843541	0.031267
	Al7006	Al	0.629775	0.843510	0.031195
	Al7007	Al	0.879726	0.781041	0.093726
	C7008	C	0.594019	0.870645	0.004008
	C7009	C	0.843771	0.808234	0.066669
	C7010	C	0.593919	0.753881	0.120864
	C7011	C	0.843831	0.816524	0.058563
	C7012	C	0.914877	0.808162	0.120925
	C7013	C	0.664956	0.870644	0.058369
	C7014	C	0.914864	0.816352	0.004191
	C7015	C	0.664806	0.753896	0.066610
	C7016	C	0.914860	0.753946	0.120996
	C7017	C	0.664837	0.816344	0.058280
	C7018	C	0.914793	0.870693	0.004087
	C7019	C	0.664748	0.808054	0.066389
	C7020	C	0.593892	0.816501	0.003925
	C7021	C	0.843772	0.753977	0.066532
	C7022	C	0.594132	0.808148	0.120900
	C7023	C	0.843826	0.870623	0.058426
	C7024	C	0.504732	0.866408	0.008186
	C7025	C	0.754209	0.803897	0.070679
	C7026	C	0.504513	0.758173	0.116780
	C7027	C	0.754361	0.820670	0.054262
	C7028	C	0.504649	0.803891	0.116784
	C7029	C	0.754420	0.866391	0.054209
	C7030	C	0.504438	0.820672	0.008172
	C7031	C	0.754306	0.758176	0.070722
	C7032	C	0.504712	0.857499	0.016938
	C7033	C	0.754159	0.795014	0.079441
	C7034	C	0.504512	0.767081	0.108048
	C7035	C	0.754506	0.829550	0.045497
	C7036	C	0.504682	0.794988	0.108044
	C7037	C	0.754575	0.857509	0.045503
	C7038	C	0.504451	0.829569	0.016930
	C7039	C	0.754323	0.767075	0.079461
	H7040	H	0.663398	0.867415	0.007132
	H7041	H	0.913138	0.805093	0.069953
	H7042	H	0.663283	0.757070	0.117670
	H7043	H	0.913208	0.819826	0.055548
	H7044	H	0.845438	0.804943	0.117772
	H7045	H	0.595464	0.867456	0.055208
	H7046	H	0.845511	0.819495	0.007461
	H7047	H	0.595466	0.757096	0.069814
	H7048	H	0.845509	0.757192	0.117875
	H7049	H	0.595464	0.819509	0.055027
	H7050	H	0.845543	0.867478	0.007262
	H7051	H	0.595339	0.804767	0.069439
	H7052	H	0.663148	0.819789	0.006998
	H7053	H	0.913171	0.757232	0.069648
	H7054	H	0.663490	0.804932	0.117737
	H7055	H	0.913333	0.867412	0.055319
	O7056	O	0.088408	0.853995	0.145340
	O7057	O	0.338662	0.791492	0.207826
	O7058	O	0.088576	0.770565	0.229570
	O7059	O	0.338668	0.833090	0.167139
	O7060	O	0.420567	0.791514	0.229612
	O7061	O	0.170452	0.853972	0.167125
	O7062	O	0.420561	0.833091	0.145302
	O7063	O	0.170543	0.770611	0.207805
	O7064	O	0.420361	0.770584	0.229656
	O7065	O	0.170483	0.833078	0.167143
	O7066	O	0.420505	0.854010	0.145330
	O7067	O	0.170557	0.791535	0.207869
	O7068	O	0.088768	0.833077	0.145330
	O7069	O	0.338608	0.770532	0.207887
	O7070	O	0.088239	0.791499	0.229626
	O7071	O	0.338613	0.853995	0.167109
	F7072	F	0.004711	0.781055	0.211201
	F7073	F	0.254517	0.843540	0.148709
	F7074	F	0.004601	0.843533	0.163752
	F7075	F	0.254442	0.781035	0.226230
	Al7076	Al	0.129590	0.781054	0.218720
	Al7077	Al	0.379508	0.843522	0.156214
	Al7078	Al	0.129534	0.843532	0.156242
	Al7079	Al	0.379554	0.781035	0.218732
	C7080	C	0.093710	0.870546	0.128901
	C7081	C	0.343941	0.808126	0.191493
	C7082	C	0.093816	0.753938	0.245918
	C7083	C	0.343976	0.816417	0.183383
	C7084	C	0.415203	0.808176	0.245897
	C7085	C	0.165005	0.870623	0.183415
	C7086	C	0.415176	0.816445	0.129033
	C7087	C	0.165073	0.754015	0.191394
	C7088	C	0.414964	0.753947	0.245928
	C7089	C	0.165142	0.816448	0.183440
	C7090	C	0.414982	0.870732	0.129183
	C7091	C	0.165107	0.808162	0.191558
	C7092	C	0.093963	0.816418	0.129071
	C7093	C	0.343827	0.753825	0.191671
	C7094	C	0.093671	0.808081	0.245996
	C7095	C	0.343872	0.870597	0.183435
	C7096	C	0.004247	0.866391	0.133213
	C7097	C	0.254579	0.803902	0.195681
	C7098	C	0.004432	0.758199	0.241785
	C7099	C	0.254587	0.820668	0.179248
	C7100	C	0.004133	0.803904	0.241751
	C7101	C	0.254451	0.866353	0.179285
	C7102	C	0.004514	0.820692	0.133183
	C7103	C	0.254481	0.758173	0.195680
	C7104	C	0.004301	0.857499	0.141949
	C7105	C	0.254637	0.795001	0.204431
	C7106	C	0.004597	0.767086	0.233011
	C7107	C	0.254593	0.829582	0.170530
	C7108	C	0.004201	0.795009	0.232993
	C7109	C	0.254505	0.857477	0.170518
	C7110	C	0.004640	0.829588	0.141932
	C7111	C	0.254515	0.767078	0.204433
	H7112	H	0.163121	0.867243	0.131919
	H7113	H	0.413227	0.804885	0.194602
	H7114	H	0.163121	0.757164	0.242778
	H7115	H	0.413280	0.819630	0.180217
	H7116	H	0.345900	0.804973	0.242695
	H7117	H	0.095625	0.867413	0.180257
	H7118	H	0.345869	0.819683	0.132176
	H7119	H	0.095753	0.757304	0.194425
	H7120	H	0.345772	0.757201	0.242776
	H7121	H	0.095749	0.819695	0.180313
	H7122	H	0.345666	0.867574	0.132432
	H7123	H	0.095785	0.804937	0.194719
	H7124	H	0.163345	0.819612	0.132254
	H7125	H	0.413196	0.756957	0.194941
	H7126	H	0.163059	0.804812	0.242926
	H7127	H	0.413280	0.867369	0.180307
	O7128	O	0.588667	0.853966	0.145277
	O7129	O	0.838466	0.791494	0.207797
	O7130	O	0.588549	0.770582	0.229635
	O7131	O	0.838648	0.833037	0.167103
	O7132	O	0.920192	0.791498	0.229607
	O7133	O	0.670528	0.854014	0.167136
	O7134	O	0.920610	0.833093	0.145321
	O7135	O	0.670312	0.770616	0.207777
	O7136	O	0.920530	0.770596	0.229643
	O7137	O	0.670532	0.833082	0.167135
	O7138	O	0.920258	0.854019	0.145355
	O7139	O	0.670346	0.791500	0.207821
	O7140	O	0.588749	0.833061	0.145346
	O7141	O	0.838474	0.770537	0.207873
	O7142	O	0.588618	0.791463	0.229707
	O7143	O	0.838540	0.854004	0.167164
	F7144	F	0.504479	0.781041	0.211241
	F7145	F	0.754656	0.843523	0.148759
	F7146	F	0.504600	0.843536	0.163723
	F7147	F	0.754607	0.781048	0.226218
	Al7148	Al	0.629514	0.781045	0.218735
	Al7149	Al	0.879758	0.843541	0.156247
	Al7150	Al	0.629609	0.843535	0.156238
	Al7151	Al	0.879792	0.781025	0.218697
	C7152	C	0.594020	0.870538	0.128886
	C7153	C	0.843883	0.808119	0.191507
	C7154	C	0.594079	0.753945	0.245927
	C7155	C	0.843913	0.816397	0.183387
	C7156	C	0.914688	0.808207	0.245848
	C7157	C	0.664876	0.870645	0.183437
	C7158	C	0.914920	0.816443	0.129058
	C7159	C	0.665101	0.754023	0.191409
	C7160	C	0.914970	0.753951	0.245915
	C7161	C	0.665126	0.816469	0.183450
	C7162	C	0.914793	0.870738	0.129207
	C7163	C	0.665092	0.808191	0.191577
	C7164	C	0.594116	0.816435	0.129022
	C7165	C	0.843913	0.753854	0.191683
	C7166	C	0.594115	0.808088	0.246019
	C7167	C	0.844008	0.870645	0.183463
	C7168	C	0.504525	0.866393	0.133195
	C7169	C	0.754412	0.803911	0.195687
	C7170	C	0.504480	0.758174	0.241769
	C7171	C	0.754535	0.820683	0.179289
	C7172	C	0.504640	0.803886	0.241798
	C7173	C	0.754470	0.866398	0.179283
	C7174	C	0.504656	0.820677	0.133185
	C7175	C	0.754505	0.758175	0.195703
	C7176	C	0.504602	0.857490	0.141913
	C7177	C	0.754375	0.795020	0.204444
	C7178	C	0.504468	0.767078	0.233037
	C7179	C	0.754544	0.829549	0.170501
	C7180	C	0.504578	0.795000	0.233047
	C7181	C	0.754504	0.857515	0.170550
	C7182	C	0.504652	0.829578	0.141924
	C7183	C	0.754362	0.767058	0.204467
	H7184	H	0.663484	0.867231	0.131882
	H7185	H	0.913170	0.804882	0.194639
	H7186	H	0.663297	0.757199	0.242783
	H7187	H	0.913251	0.819589	0.180176
	H7188	H	0.845243	0.805028	0.242643
	H7189	H	0.595393	0.867440	0.180275
	H7190	H	0.845651	0.819669	0.132236
	H7191	H	0.595757	0.757316	0.194452
	H7192	H	0.845727	0.757184	0.242767
	H7193	H	0.595860	0.819713	0.180309
	H7194	H	0.845439	0.867601	0.132467
	H7195	H	0.595823	0.805000	0.194769
	H7196	H	0.663416	0.819674	0.132163
	H7197	H	0.913277	0.756993	0.194947
	H7198	H	0.663494	0.804818	0.242936
	H7199	H	0.913434	0.867424	0.180317
	O7200	O	0.088546	0.853975	0.270353
	O7201	O	0.338605	0.791471	0.332838
	O7202	O	0.088657	0.770583	0.354688
	O7203	O	0.338450	0.833071	0.292179
	O7204	O	0.420573	0.791476	0.354667
	O7205	O	0.170472	0.853988	0.292138
	O7206	O	0.420427	0.833088	0.270298
	O7207	O	0.170475	0.770545	0.332874
	O7208	O	0.420581	0.770585	0.354683
	O7209	O	0.170309	0.833027	0.292151
	O7210	O	0.420737	0.853971	0.270352
	O7211	O	0.170415	0.791472	0.332876
	O7212	O	0.088752	0.833052	0.270359
	O7213	O	0.338598	0.770564	0.332846
	O7214	O	0.088767	0.791479	0.354660
	O7215	O	0.338695	0.853975	0.292145
	F7216	F	0.004839	0.781023	0.336214
	F7217	F	0.254634	0.843519	0.273754
	F7218	F	0.004699	0.843511	0.288784
	F7219	F	0.254595	0.781027	0.351271
	Al7220	Al	0.129757	0.781016	0.343772
	Al7221	Al	0.379482	0.843521	0.281267
	Al7222	Al	0.129533	0.843505	0.281248
	Al7223	Al	0.379658	0.781026	0.343748
	C7224	C	0.093739	0.870618	0.254067
	C7225	C	0.343794	0.808182	0.316647
	C7226	C	0.093970	0.753931	0.370984
	C7227	C	0.343890	0.816471	0.308557
	C7228	C	0.415137	0.808093	0.370969
	C7229	C	0.165203	0.870597	0.308506
	C7230	C	0.415101	0.816474	0.254007
	C7231	C	0.165082	0.753975	0.316519
	C7232	C	0.415059	0.753907	0.370920
	C7233	C	0.165029	0.816348	0.308381
	C7234	C	0.415398	0.870602	0.254042
	C7235	C	0.164906	0.808044	0.316490
	C7236	C	0.093802	0.816380	0.254121
	C7237	C	0.343944	0.753881	0.316601
	C7238	C	0.093836	0.808119	0.370948
	C7239	C	0.343960	0.870654	0.308394
	C7240	C	0.004255	0.866385	0.258226
	C7241	C	0.254336	0.803873	0.320727
	C7242	C	0.004481	0.758144	0.366781
	C7243	C	0.254473	0.820643	0.304306
	C7244	C	0.004420	0.803871	0.366796
	C7245	C	0.254563	0.866386	0.304303
	C7246	C	0.004416	0.820678	0.258192
	C7247	C	0.254563	0.758156	0.320716
	C7248	C	0.004474	0.857482	0.266976
	C7249	C	0.254447	0.794971	0.329459
	C7250	C	0.004537	0.767047	0.358029
	C7251	C	0.254434	0.829551	0.295566
	C7252	C	0.004563	0.794983	0.358048
	C7253	C	0.254599	0.857482	0.295536
	C7254	C	0.004685	0.829566	0.266958
	C7255	C	0.254523	0.767052	0.329470
	H7256	H	0.163096	0.867392	0.257200
	H7257	H	0.413094	0.805010	0.319857
	H7258	H	0.163370	0.757185	0.367884
	H7259	H	0.413245	0.819742	0.305517
	H7260	H	0.345781	0.804860	0.367839
	H7261	H	0.095895	0.867341	0.305388
	H7262	H	0.345819	0.819739	0.257120
	H7263	H	0.095806	0.757239	0.319638
	H7264	H	0.345757	0.757113	0.367738
	H7265	H	0.095806	0.819550	0.305158
	H7266	H	0.346045	0.867370	0.257171
	H7267	H	0.095613	0.804750	0.319568
	H7268	H	0.163210	0.819555	0.257342
	H7269	H	0.413251	0.757078	0.319792
	H7270	H	0.163231	0.804904	0.367803
	H7271	H	0.413227	0.867450	0.305195
	O7272	O	0.588854	0.853931	0.270297
	O7273	O	0.838643	0.791513	0.332853
	O7274	O	0.588691	0.770576	0.354676
	O7275	O	0.838422	0.833047	0.292166
	O7276	O	0.920716	0.791447	0.354666
	O7277	O	0.670307	0.853955	0.292156
	O7278	O	0.920617	0.833069	0.270349
	O7279	O	0.670259	0.770537	0.332864
	O7280	O	0.920605	0.770527	0.354597
	O7281	O	0.670250	0.833072	0.292190
	O7282	O	0.920428	0.853967	0.270350
	O7283	O	0.670470	0.791488	0.332841
	O7284	O	0.588612	0.833027	0.270365
	O7285	O	0.838457	0.770546	0.332837
	O7286	O	0.588664	0.791457	0.354697
	O7287	O	0.838369	0.853972	0.292173
	F7288	F	0.504694	0.781022	0.336274
	F7289	F	0.754626	0.843501	0.273782
	F7290	F	0.504448	0.843509	0.288738
	F7291	F	0.754904	0.781027	0.351225
	Al7292	Al	0.629662	0.781020	0.343781
	Al7293	Al	0.879792	0.843512	0.281295
	Al7294	Al	0.629663	0.843510	0.281252
	Al7295	Al	0.880018	0.781019	0.343708
	C7296	C	0.594218	0.870650	0.254077
	C7297	C	0.843828	0.808176	0.316611
	C7298	C	0.593997	0.753937	0.370955
	C7299	C	0.843721	0.816450	0.308503
	C7300	C	0.914882	0.808092	0.371001
	C7301	C	0.664977	0.870592	0.308476
	C7302	C	0.914794	0.816500	0.253968
	C7303	C	0.665051	0.753966	0.316480
	C7304	C	0.914914	0.753904	0.370928
	C7305	C	0.664734	0.816359	0.308333
	C7306	C	0.914888	0.870619	0.254033
	C7307	C	0.664833	0.808065	0.316458
	C7308	C	0.594057	0.816388	0.254132
	C7309	C	0.843802	0.753888	0.316624
	C7310	C	0.594042	0.808117	0.370938
	C7311	C	0.843693	0.870665	0.308369
	C7312	C	0.504872	0.866368	0.258211
	C7313	C	0.754390	0.803882	0.320685
	C7314	C	0.504521	0.758176	0.366807
	C7315	C	0.754236	0.820647	0.304277
	C7316	C	0.504608	0.803856	0.366806
	C7317	C	0.754298	0.866377	0.304277
	C7318	C	0.504604	0.820673	0.258192
	C7319	C	0.754447	0.758164	0.320696
	C7320	C	0.504818	0.857462	0.266940
	C7321	C	0.754534	0.795000	0.329450
	C7322	C	0.504620	0.767073	0.358066
	C7323	C	0.754311	0.829549	0.295549
	C7324	C	0.504620	0.794975	0.358060
	C7325	C	0.754271	0.857471	0.295558
	C7326	C	0.504492	0.829563	0.266943
	C7327	C	0.754367	0.767024	0.329487
	H7328	H	0.663555	0.867448	0.257243
	H7329	H	0.913249	0.805009	0.319810
	H7330	H	0.663251	0.757173	0.367797
	H7331	H	0.913139	0.819705	0.305414
	H7332	H	0.845481	0.804847	0.367890
	H7333	H	0.595683	0.867341	0.305365
	H7334	H	0.845473	0.819777	0.257066
	H7335	H	0.595884	0.757229	0.319595
	H7336	H	0.845529	0.757141	0.367781
	H7337	H	0.595494	0.819552	0.305095
	H7338	H	0.845483	0.867381	0.257147
	H7339	H	0.595717	0.804784	0.319551
	H7340	H	0.663392	0.819570	0.257349
	H7341	H	0.913077	0.757060	0.319842
	H7342	H	0.663408	0.804907	0.367785
	H7343	H	0.912907	0.867468	0.305167
	O7344	O	0.088663	0.853977	0.395353
	O7345	O	0.338580	0.791486	0.457864
	O7346	O	0.088715	0.770528	0.479655
	O7347	O	0.338690	0.833060	0.417197
	O7348	O	0.420618	0.791504	0.479647
	O7349	O	0.170494	0.853985	0.417112
	O7350	O	0.420470	0.833054	0.395335
	O7351	O	0.170446	0.770545	0.457844
	O7352	O	0.420517	0.770565	0.479662
	O7353	O	0.170524	0.833076	0.417208
	O7354	O	0.420574	0.853950	0.395318
	O7355	O	0.170412	0.791531	0.457928
	O7356	O	0.088656	0.833067	0.395331
	O7357	O	0.338567	0.770548	0.457865
	O7358	O	0.088336	0.791453	0.479679
	O7359	O	0.338647	0.853956	0.417164
	F7360	F	0.004776	0.781020	0.461251
	F7361	F	0.254587	0.843493	0.398752
	F7362	F	0.004721	0.843506	0.413769
	F7363	F	0.254526	0.781029	0.476270
	Al7364	Al	0.129598	0.781007	0.468771
	Al7365	Al	0.379592	0.843513	0.406263
	Al7366	Al	0.129664	0.843502	0.406246
	Al7367	Al	0.379628	0.781021	0.468790
	C7368	C	0.093903	0.870686	0.379161
	C7369	C	0.343901	0.808084	0.441488
	C7370	C	0.093569	0.753868	0.495882
	C7371	C	0.343937	0.816362	0.433378
	C7372	C	0.415179	0.808153	0.495929
	C7373	C	0.165257	0.870625	0.433413
	C7374	C	0.415135	0.816405	0.379080
	C7375	C	0.164971	0.753946	0.441490
	C7376	C	0.415085	0.753976	0.496032
	C7377	C	0.165097	0.816462	0.433534
	C7378	C	0.414921	0.870562	0.378968
	C7379	C	0.165033	0.808179	0.441660
	C7380	C	0.093798	0.816423	0.379048
	C7381	C	0.343897	0.753857	0.441624
	C7382	C	0.093785	0.808093	0.495999
	C7383	C	0.344094	0.870594	0.433455
	C7384	C	0.004427	0.866377	0.383222
	C7385	C	0.254459	0.803876	0.445703
	C7386	C	0.004201	0.758163	0.491819
	C7387	C	0.254546	0.820646	0.429303
	C7388	C	0.004313	0.803877	0.491817
	C7389	C	0.254653	0.866371	0.429270
	C7390	C	0.004370	0.820662	0.383215
	C7391	C	0.254469	0.758134	0.445723
	C7392	C	0.004431	0.857490	0.391968
	C7393	C	0.254504	0.795002	0.454489
	C7394	C	0.004525	0.767070	0.483074
	C7395	C	0.254594	0.829549	0.420572
	C7396	C	0.004310	0.794972	0.483070
	C7397	C	0.254567	0.857476	0.420524
	C7398	C	0.004388	0.829552	0.391968
	C7399	C	0.254541	0.767035	0.454471
	H7400	H	0.163245	0.867506	0.382390
	H7401	H	0.413233	0.804842	0.444594
	H7402	H	0.162923	0.757043	0.492666
	H7403	H	0.413323	0.819542	0.430182
	H7404	H	0.345995	0.804940	0.492739
	H7405	H	0.095887	0.867421	0.430240
	H7406	H	0.345903	0.819638	0.382248
	H7407	H	0.095646	0.757211	0.444571
	H7408	H	0.345837	0.757250	0.492922
	H7409	H	0.095873	0.819750	0.430452
	H7410	H	0.345628	0.867269	0.382018
	H7411	H	0.095872	0.805013	0.444919
	H7412	H	0.163181	0.819664	0.382178
	H7413	H	0.413423	0.757043	0.444806
	H7414	H	0.163041	0.804831	0.492894
	H7415	H	0.413501	0.867370	0.430320
	O7416	O	0.588708	0.853979	0.395314
	O7417	O	0.838527	0.791469	0.457787
	O7418	O	0.588677	0.770573	0.479677
	O7419	O	0.838558	0.833044	0.417148
	O7420	O	0.920195	0.791497	0.479665
	O7421	O	0.670229	0.853978	0.417175
	O7422	O	0.920501	0.833070	0.395374
	O7423	O	0.670475	0.770596	0.457844
	O7424	O	0.920626	0.770612	0.479717
	O7425	O	0.670411	0.833073	0.417153
	O7426	O	0.920474	0.853967	0.395341
	O7427	O	0.670376	0.791539	0.457912
	O7428	O	0.588715	0.833083	0.395283
	O7429	O	0.838731	0.770541	0.457899
	O7430	O	0.588801	0.791448	0.479741
	O7431	O	0.838497	0.854000	0.417168
	F7432	F	0.504544	0.781039	0.461268
	F7433	F	0.754702	0.843519	0.398780
	F7434	F	0.504704	0.843505	0.413748
	F7435	F	0.754716	0.781040	0.476255
	Al7436	Al	0.629647	0.781041	0.468780
	Al7437	Al	0.879801	0.843523	0.406283
	Al7438	Al	0.629707	0.843511	0.406241
	Al7439	Al	0.879774	0.781036	0.468742
	C7440	C	0.593771	0.870686	0.379147
	C7441	C	0.843832	0.808096	0.441497
	C7442	C	0.594085	0.753883	0.495896
	C7443	C	0.843752	0.816378	0.433391
	C7444	C	0.914812	0.808175	0.495904
	C7445	C	0.664882	0.870662	0.433417
	C7446	C	0.914851	0.816403	0.379101
	C7447	C	0.665050	0.754002	0.441529
	C7448	C	0.914679	0.753956	0.496026
	C7449	C	0.665111	0.816464	0.433503
	C7450	C	0.914869	0.870572	0.378967
	C7451	C	0.665104	0.808176	0.441626
	C7452	C	0.594103	0.816428	0.379033
	C7453	C	0.843991	0.753920	0.441633
	C7454	C	0.593890	0.808106	0.496027
	C7455	C	0.843811	0.870614	0.433496
	C7456	C	0.504392	0.866374	0.383220
	C7457	C	0.754466	0.803899	0.445714
	C7458	C	0.504629	0.758172	0.491825
	C7459	C	0.754449	0.820666	0.429293
	C7460	C	0.504572	0.803889	0.491831
	C7461	C	0.754350	0.866373	0.429353
	C7462	C	0.504627	0.820650	0.383203
	C7463	C	0.754597	0.758175	0.445754
	C7464	C	0.504569	0.857477	0.391940
	C7465	C	0.754434	0.795004	0.454465
	C7466	C	0.504591	0.767073	0.483077
	C7467	C	0.754452	0.829562	0.420550
	C7468	C	0.504707	0.794981	0.483080
	C7469	C	0.754350	0.857484	0.420574
	C7470	C	0.504614	0.829556	0.391931
	C7471	C	0.754587	0.767074	0.454484
	H7472	H	0.663164	0.867508	0.382348
	H7473	H	0.913079	0.804838	0.444574
	H7474	H	0.663367	0.757076	0.492671
	H7475	H	0.913192	0.819551	0.430183
	H7476	H	0.845443	0.804975	0.492718
	H7477	H	0.595544	0.867474	0.430204
	H7478	H	0.845517	0.819619	0.382268
	H7479	H	0.595808	0.757283	0.444601
	H7480	H	0.845443	0.757231	0.492921
	H7481	H	0.595970	0.819725	0.430388
	H7482	H	0.845428	0.867291	0.382033
	H7483	H	0.595952	0.804971	0.444817
	H7484	H	0.663344	0.819678	0.382172
	H7485	H	0.913330	0.757135	0.444794
	H7486	H	0.663099	0.804847	0.492921
	H7487	H	0.913214	0.867387	0.430341
	O7488	O	0.088682	0.853940	0.520339
	O7489	O	0.338489	0.791457	0.582814
	O7490	O	0.088753	0.770573	0.604669
	O7491	O	0.338639	0.833088	0.542241
	O7492	O	0.420506	0.791498	0.604636
	O7493	O	0.170367	0.853983	0.542166
	O7494	O	0.420571	0.833103	0.520329
	O7495	O	0.170472	0.770578	0.582880
	O7496	O	0.420694	0.770613	0.604719
	O7497	O	0.170535	0.833079	0.542183
	O7498	O	0.420381	0.853967	0.520393
	O7499	O	0.170294	0.791518	0.582896
	O7500	O	0.088771	0.833055	0.520351
	O7501	O	0.338644	0.770550	0.582866
	O7502	O	0.088690	0.791474	0.604714
	O7503	O	0.338559	0.853939	0.542236
	F7504	F	0.004802	0.781043	0.586247
	F7505	F	0.254775	0.843516	0.523778
	F7506	F	0.004949	0.843504	0.538806
	F7507	F	0.254610	0.781044	0.601262
	Al7508	Al	0.129744	0.781030	0.593773
	Al7509	Al	0.379660	0.843517	0.531294
	Al7510	Al	0.129844	0.843517	0.531259
	Al7511	Al	0.379689	0.781017	0.593781
	C7512	C	0.093783	0.870574	0.504031
	C7513	C	0.343765	0.808118	0.566549
	C7514	C	0.093949	0.753899	0.620917
	C7515	C	0.343726	0.816427	0.558450
	C7516	C	0.415343	0.808198	0.620852
	C7517	C	0.164927	0.870590	0.558537
	C7518	C	0.415169	0.816449	0.504036
	C7519	C	0.164925	0.754005	0.566478
	C7520	C	0.415161	0.753953	0.620996
	C7521	C	0.165024	0.816432	0.558507
	C7522	C	0.415354	0.870656	0.504161
	C7523	C	0.164991	0.808141	0.566595
	C7524	C	0.093762	0.816378	0.504116
	C7525	C	0.343708	0.753847	0.566694
	C7526	C	0.093925	0.808057	0.621093
	C7527	C	0.343706	0.870657	0.558411
	C7528	C	0.004381	0.866372	0.508250
	C7529	C	0.254361	0.803884	0.570711
	C7530	C	0.004521	0.758178	0.616818
	C7531	C	0.254393	0.820674	0.554336
	C7532	C	0.004478	0.803884	0.616821
	C7533	C	0.254337	0.866382	0.554332
	C7534	C	0.004412	0.820669	0.508213
	C7535	C	0.254302	0.758162	0.570737
	C7536	C	0.004529	0.857459	0.516985
	C7537	C	0.254387	0.794993	0.579466
	C7538	C	0.004609	0.767084	0.608070
	C7539	C	0.254524	0.829584	0.545607
	C7540	C	0.004531	0.794977	0.608075
	C7541	C	0.254450	0.857463	0.545593
	C7542	C	0.004625	0.829554	0.516982
	C7543	C	0.254464	0.767057	0.579492
	H7544	H	0.163206	0.867307	0.507104
	H7545	H	0.412849	0.804873	0.569704
	H7546	H	0.163306	0.757098	0.617729
	H7547	H	0.412834	0.819670	0.555289
	H7548	H	0.346032	0.805023	0.617600
	H7549	H	0.095734	0.867321	0.555427
	H7550	H	0.345880	0.819689	0.507141
	H7551	H	0.095733	0.757304	0.569528
	H7552	H	0.345860	0.757189	0.617862
	H7553	H	0.095686	0.819673	0.555409
	H7554	H	0.346040	0.867477	0.507363
	H7555	H	0.095681	0.804947	0.569759
	H7556	H	0.163087	0.819559	0.507331
	H7557	H	0.412849	0.757032	0.569944
	H7558	H	0.163312	0.804761	0.618057
	H7559	H	0.412854	0.867455	0.555196
	O7560	O	0.588645	0.853923	0.520345
	O7561	O	0.838333	0.791467	0.582817
	O7562	O	0.588864	0.770557	0.604664
	O7563	O	0.838472	0.833035	0.542205
	O7564	O	0.920520	0.791499	0.604648
	O7565	O	0.670382	0.853947	0.542191
	O7566	O	0.920653	0.833044	0.520403
	O7567	O	0.670321	0.770583	0.582828
	O7568	O	0.920652	0.770595	0.604675
	O7569	O	0.670324	0.833065	0.542206
	O7570	O	0.920528	0.853974	0.520414
	O7571	O	0.670133	0.791500	0.582875
	O7572	O	0.588700	0.833045	0.520406
	O7573	O	0.838582	0.770520	0.582873
	O7574	O	0.588690	0.791401	0.604754
	O7575	O	0.838488	0.853971	0.542203
	F7576	F	0.504527	0.781023	0.586284
	F7577	F	0.754831	0.843496	0.523815
	F7578	F	0.504667	0.843516	0.538785
	F7579	F	0.754710	0.781028	0.601247
	Al7580	Al	0.629501	0.781015	0.593782
	Al7581	Al	0.879981	0.843499	0.531316
	Al7582	Al	0.629758	0.843510	0.531292
	Al7583	Al	0.879759	0.781021	0.593730
	C7584	C	0.594326	0.870530	0.504018
	C7585	C	0.843636	0.808097	0.566535
	C7586	C	0.593936	0.753892	0.620915
	C7587	C	0.843545	0.816402	0.558434
	C7588	C	0.914921	0.808199	0.620857
	C7589	C	0.664896	0.870578	0.558504
	C7590	C	0.914921	0.816466	0.504020
	C7591	C	0.664952	0.753991	0.566473
	C7592	C	0.915025	0.753958	0.620991
	C7593	C	0.664757	0.816409	0.558486
	C7594	C	0.914873	0.870650	0.504137
	C7595	C	0.664891	0.808120	0.566571
	C7596	C	0.593797	0.816398	0.504137
	C7597	C	0.843646	0.753849	0.566697
	C7598	C	0.594383	0.808062	0.621070
	C7599	C	0.843690	0.870637	0.558429
	C7600	C	0.504756	0.866352	0.508226
	C7601	C	0.754244	0.803879	0.570721
	C7602	C	0.504588	0.758190	0.616837
	C7603	C	0.754171	0.820650	0.554323
	C7604	C	0.504844	0.803867	0.616841
	C7605	C	0.754280	0.866360	0.554321
	C7606	C	0.504477	0.820679	0.508219
	C7607	C	0.754310	0.758153	0.570733
	C7608	C	0.504541	0.857434	0.516970
	C7609	C	0.754234	0.794992	0.579469
	C7610	C	0.504740	0.767078	0.608075
	C7611	C	0.754325	0.829554	0.545590
	C7612	C	0.504644	0.794957	0.608085
	C7613	C	0.754347	0.857458	0.545595
	C7614	C	0.504606	0.829571	0.516971
	C7615	C	0.754359	0.767045	0.579480
	H7616	H	0.663656	0.867250	0.507099
	H7617	H	0.912677	0.804840	0.569656
	H7618	H	0.663208	0.757088	0.617717
	H7619	H	0.912700	0.819629	0.555268
	H7620	H	0.845622	0.805013	0.617618
	H7621	H	0.595624	0.867328	0.555399
	H7622	H	0.845614	0.819715	0.507147
	H7623	H	0.595813	0.757298	0.569530
	H7624	H	0.845740	0.757206	0.617858
	H7625	H	0.595362	0.819633	0.555367
	H7626	H	0.845575	0.867444	0.507310
	H7627	H	0.595528	0.804894	0.569723
	H7628	H	0.663091	0.819591	0.507332
	H7629	H	0.912774	0.757035	0.569939
	H7630	H	0.663730	0.804773	0.618000
	H7631	H	0.912998	0.867427	0.555249
	O7632	O	0.088304	0.853967	0.645348
	O7633	O	0.338568	0.791426	0.707805
	O7634	O	0.088448	0.770525	0.729568
	O7635	O	0.338582	0.833030	0.667125
	O7636	O	0.420341	0.791479	0.729673
	O7637	O	0.170281	0.853999	0.667181
	O7638	O	0.420562	0.833091	0.645317
	O7639	O	0.170582	0.770556	0.707856
	O7640	O	0.420711	0.770592	0.729722
	O7641	O	0.170402	0.833086	0.667241
	O7642	O	0.420321	0.853965	0.645338
	O7643	O	0.170463	0.791509	0.707896
	O7644	O	0.088505	0.833032	0.645444
	O7645	O	0.338819	0.770540	0.707863
	O7646	O	0.088542	0.791456	0.729693
	O7647	O	0.338546	0.853965	0.667149
	F7648	F	0.004640	0.781028	0.711237
	F7649	F	0.254360	0.843515	0.648771
	F7650	F	0.004673	0.843529	0.663817
	F7651	F	0.254391	0.781005	0.726262
	Al7652	Al	0.129557	0.781011	0.718747
	Al7653	Al	0.379477	0.843525	0.656243
	Al7654	Al	0.129456	0.843524	0.656292
	Al7655	Al	0.379537	0.781011	0.718772
	C7656	C	0.093817	0.870592	0.629036
	C7657	C	0.343948	0.808046	0.691451
	C7658	C	0.093869	0.753937	0.745944
	C7659	C	0.343939	0.816340	0.683357
	C7660	C	0.415063	0.808227	0.745791
	C7661	C	0.165056	0.870682	0.683400
	C7662	C	0.415302	0.816495	0.628952
	C7663	C	0.165064	0.753868	0.691661
	C7664	C	0.414962	0.753926	0.745938
	C7665	C	0.165007	0.816488	0.683587
	C7666	C	0.415075	0.870639	0.629094
	C7667	C	0.165009	0.808192	0.691694
	C7668	C	0.093838	0.816346	0.629217
	C7669	C	0.343984	0.753955	0.691472
	C7670	C	0.093761	0.808024	0.746146
	C7671	C	0.343938	0.870584	0.683530
	C7672	C	0.004323	0.866375	0.633202
	C7673	C	0.254532	0.803872	0.695715
	C7674	C	0.004437	0.758168	0.741787
	C7675	C	0.254471	0.820640	0.679294
	C7676	C	0.004382	0.803900	0.741803
	C7677	C	0.254503	0.866396	0.679321
	C7678	C	0.004383	0.820676	0.633220
	C7679	C	0.254560	0.758137	0.695741
	C7680	C	0.004271	0.857468	0.641952
	C7681	C	0.254570	0.794977	0.704463
	C7682	C	0.004393	0.767070	0.733039
	C7683	C	0.254524	0.829550	0.670565
	C7684	C	0.004511	0.794983	0.733079
	C7685	C	0.254525	0.857490	0.670550
	C7686	C	0.004429	0.829580	0.641976
	C7687	C	0.254672	0.767042	0.704479
	H7688	H	0.163004	0.867329	0.632140
	H7689	H	0.413321	0.804763	0.694511
	H7690	H	0.163118	0.757169	0.742784
	H7691	H	0.413291	0.819516	0.680140
	H7692	H	0.345729	0.805078	0.742528
	H7693	H	0.095754	0.867490	0.680188
	H7694	H	0.345962	0.819765	0.632007
	H7695	H	0.095720	0.757060	0.694866
	H7696	H	0.345677	0.757164	0.742768
	H7697	H	0.095683	0.819796	0.680553
	H7698	H	0.345813	0.867429	0.632264
	H7699	H	0.095667	0.805035	0.694952
	H7700	H	0.163142	0.819494	0.632491
	H7701	H	0.413355	0.757234	0.694520
	H7702	H	0.163096	0.804687	0.743170
	H7703	H	0.413269	0.867314	0.680440
	O7704	O	0.588568	0.853958	0.645341
	O7705	O	0.838626	0.791465	0.707822
	O7706	O	0.588875	0.770577	0.729711
	O7707	O	0.838812	0.833002	0.667150
	O7708	O	0.920455	0.791496	0.729667
	O7709	O	0.670364	0.853992	0.667156
	O7710	O	0.920446	0.833115	0.645311
	O7711	O	0.670373	0.770554	0.707868
	O7712	O	0.920373	0.770609	0.729728
	O7713	O	0.670581	0.833087	0.667239
	O7714	O	0.920183	0.853987	0.645332
	O7715	O	0.670454	0.791494	0.707852
	O7716	O	0.588771	0.833052	0.645379
	O7717	O	0.838563	0.770567	0.707851
	O7718	O	0.588539	0.791445	0.729727
	O7719	O	0.838540	0.853992	0.667201
	F7720	F	0.504621	0.781011	0.711280
	F7721	F	0.754638	0.843502	0.648803
	F7722	F	0.504452	0.843513	0.663753
	F7723	F	0.754750	0.781045	0.726255
	Al7724	Al	0.629631	0.781025	0.718767
	Al7725	Al	0.879736	0.843530	0.656308
	Al7726	Al	0.629512	0.843522	0.656276
	Al7727	Al	0.879794	0.781034	0.718753
	C7728	C	0.593761	0.870611	0.629040
	C7729	C	0.844021	0.808027	0.691440
	C7730	C	0.594106	0.753919	0.745964
	C7731	C	0.844006	0.816312	0.683335
	C7732	C	0.914974	0.808272	0.745764
	C7733	C	0.664931	0.870687	0.683378
	C7734	C	0.914875	0.816487	0.628978
	C7735	C	0.665044	0.753851	0.691660
	C7736	C	0.914958	0.753925	0.745949
	C7737	C	0.664994	0.816486	0.683582
	C7738	C	0.914929	0.870684	0.629132
	C7739	C	0.664995	0.808192	0.691687
	C7740	C	0.594256	0.816367	0.629174
	C7741	C	0.843887	0.753985	0.691491
	C7742	C	0.593965	0.808000	0.746128
	C7743	C	0.843895	0.870600	0.683547
	C7744	C	0.504422	0.866367	0.633209
	C7745	C	0.754502	0.803869	0.695705
	C7746	C	0.504592	0.758172	0.741831
	C7747	C	0.754527	0.820635	0.679303
	C7748	C	0.504484	0.803864	0.741824
	C7749	C	0.754405	0.866404	0.679315
	C7750	C	0.504739	0.820683	0.633195
	C7751	C	0.754481	0.758142	0.695756
	C7752	C	0.504452	0.857464	0.641952
	C7753	C	0.754560	0.794979	0.704451
	C7754	C	0.504779	0.767074	0.733092
	C7755	C	0.754643	0.829535	0.670574
	C7756	C	0.504433	0.794965	0.733089
	C7757	C	0.754378	0.857510	0.670545
	C7758	C	0.504665	0.829566	0.641961
	C7759	C	0.754470	0.767053	0.704476
	H7760	H	0.663066	0.867374	0.632159
	H7761	H	0.913389	0.804741	0.694494
	H7762	H	0.663438	0.757154	0.742809
	H7763	H	0.913375	0.819469	0.680106
	H7764	H	0.845675	0.805145	0.742466
	H7765	H	0.595579	0.867511	0.680153
	H7766	H	0.845568	0.819757	0.632054
	H7767	H	0.595728	0.757034	0.694852
	H7768	H	0.845633	0.757152	0.742794
	H7769	H	0.595650	0.819800	0.680549
	H7770	H	0.845617	0.867491	0.632323
	H7771	H	0.595719	0.805037	0.694951
	H7772	H	0.663571	0.819531	0.632415
	H7773	H	0.913347	0.757266	0.694513
	H7774	H	0.663215	0.804657	0.743147
	H7775	H	0.913236	0.867339	0.680455
	O7776	O	0.088678	0.853995	0.770355
	O7777	O	0.338619	0.791478	0.832759
	O7778	O	0.088686	0.770555	0.854616
	O7779	O	0.338704	0.833015	0.792044
	O7780	O	0.420397	0.791556	0.854554
	O7781	O	0.170205	0.853991	0.792166
	O7782	O	0.420681	0.833163	0.770192
	O7783	O	0.170589	0.770559	0.832895
	O7784	O	0.420550	0.770589	0.854635
	O7785	O	0.170494	0.833120	0.792192
	O7786	O	0.420262	0.854000	0.770325
	O7787	O	0.170480	0.791522	0.832828
	O7788	O	0.088648	0.833034	0.770418
	O7789	O	0.338769	0.770589	0.832822
	O7790	O	0.088564	0.791477	0.854662
	O7791	O	0.338287	0.853980	0.792153
	F7792	F	0.004972	0.781045	0.836182
	F7793	F	0.254419	0.843532	0.773728
	F7794	F	0.004429	0.843532	0.788766
	F7795	F	0.254763	0.781081	0.851244
	Al7796	Al	0.129668	0.781051	0.843740
	Al7797	Al	0.379395	0.843539	0.781207
	Al7798	Al	0.129375	0.843535	0.781269
	Al7799	Al	0.379701	0.781047	0.843705
	C7800	C	0.094026	0.870639	0.754071
	C7801	C	0.343974	0.808100	0.816445
	C7802	C	0.093714	0.753957	0.870952
	C7803	C	0.343953	0.816392	0.808341
	C7804	C	0.415239	0.808267	0.870756
	C7805	C	0.164965	0.870697	0.808402
	C7806	C	0.415157	0.816549	0.753868
	C7807	C	0.164940	0.753917	0.816627
	C7808	C	0.415048	0.753923	0.870892
	C7809	C	0.165081	0.816498	0.808502
	C7810	C	0.415473	0.870647	0.754059
	C7811	C	0.165061	0.808205	0.816608
	C7812	C	0.093728	0.816326	0.754252
	C7813	C	0.343900	0.753974	0.816486
	C7814	C	0.093866	0.808030	0.871081
	C7815	C	0.343852	0.870620	0.808455
	C7816	C	0.004613	0.866387	0.758220
	C7817	C	0.254508	0.803914	0.820680
	C7818	C	0.004289	0.758173	0.866765
	C7819	C	0.254564	0.820681	0.804270
	C7820	C	0.004361	0.803910	0.866747
	C7821	C	0.254330	0.866412	0.804269
	C7822	C	0.004404	0.820691	0.758204
	C7823	C	0.254490	0.758171	0.820721
	C7824	C	0.004622	0.857486	0.766943
	C7825	C	0.254529	0.795011	0.829419
	C7826	C	0.004555	0.767063	0.858015
	C7827	C	0.254578	0.829576	0.795524
	C7828	C	0.004449	0.795007	0.858009
	C7829	C	0.254267	0.857492	0.795554
	C7830	C	0.004522	0.829583	0.766944
	C7831	C	0.254644	0.767066	0.829481
	H7832	H	0.163430	0.867410	0.757194
	H7833	H	0.413334	0.804831	0.819524
	H7834	H	0.163039	0.757203	0.867829
	H7835	H	0.413325	0.819571	0.805140
	H7836	H	0.345926	0.805148	0.867449
	H7837	H	0.095581	0.867492	0.805247
	H7838	H	0.345885	0.819873	0.756877
	H7839	H	0.095688	0.757144	0.819820
	H7840	H	0.345810	0.757134	0.867682
	H7841	H	0.095830	0.819780	0.805414
	H7842	H	0.346184	0.867431	0.757207
	H7843	H	0.095778	0.805015	0.819829
	H7844	H	0.163007	0.819451	0.757569
	H7845	H	0.413280	0.757246	0.819560
	H7846	H	0.163243	0.804706	0.868084
	H7847	H	0.413118	0.867354	0.805339
	O7848	O	0.588418	0.853969	0.770326
	O7849	O	0.838541	0.791461	0.832752
	O7850	O	0.588776	0.770566	0.854654
	O7851	O	0.838383	0.833022	0.792082
	O7852	O	0.920447	0.791509	0.854591
	O7853	O	0.670162	0.854023	0.792101
	O7854	O	0.920544	0.833139	0.770253
	O7855	O	0.670604	0.770587	0.832820
	O7856	O	0.920593	0.770586	0.854645
	O7857	O	0.670238	0.833126	0.792235
	O7858	O	0.920535	0.853989	0.770322
	O7859	O	0.670338	0.791541	0.832905
	O7860	O	0.588789	0.833010	0.770404
	O7861	O	0.838803	0.770533	0.832823
	O7862	O	0.588663	0.791408	0.854737
	O7863	O	0.838235	0.854005	0.792105
	F7864	F	0.504758	0.781031	0.836261
	F7865	F	0.754413	0.843536	0.773755
	F7866	F	0.504251	0.843530	0.788732
	F7867	F	0.754884	0.781015	0.851199
	Al7868	Al	0.629823	0.781034	0.843765
	Al7869	Al	0.879618	0.843530	0.781228
	Al7870	Al	0.629377	0.843530	0.781260
	Al7871	Al	0.879968	0.781032	0.843670
	C7872	C	0.594290	0.870619	0.754057
	C7873	C	0.843928	0.808082	0.816466
	C7874	C	0.593983	0.753935	0.870950
	C7875	C	0.843838	0.816364	0.808353
	C7876	C	0.914813	0.808262	0.870745
	C7877	C	0.664980	0.870639	0.808403
	C7878	C	0.914943	0.816578	0.753866
	C7879	C	0.664989	0.753877	0.816629
	C7880	C	0.914801	0.753910	0.870881
	C7881	C	0.665016	0.816476	0.808529
	C7882	C	0.915112	0.870644	0.754082
	C7883	C	0.665067	0.808189	0.816648
	C7884	C	0.594077	0.816313	0.754213
	C7885	C	0.843764	0.753930	0.816525
	C7886	C	0.594167	0.808039	0.871091
	C7887	C	0.843749	0.870602	0.808452
	C7888	C	0.504782	0.866377	0.758196
	C7889	C	0.754440	0.803891	0.820696
	C7890	C	0.504543	0.758186	0.866799
	C7891	C	0.754404	0.820674	0.804312
	C7892	C	0.504681	0.803901	0.866805
	C7893	C	0.754356	0.866385	0.804259
	C7894	C	0.504674	0.820666	0.758184
	C7895	C	0.754459	0.758169	0.820693
	C7896	C	0.504420	0.857477	0.766922
	C7897	C	0.754389	0.795010	0.829456
	C7898	C	0.504605	0.767083	0.858044
	C7899	C	0.754321	0.829571	0.795551
	C7900	C	0.504589	0.794984	0.858042
	C7901	C	0.754247	0.857505	0.795506
	C7902	C	0.504700	0.829573	0.766919
	C7903	C	0.754602	0.767059	0.829437
	H7904	H	0.663527	0.867373	0.757192
	H7905	H	0.913196	0.804814	0.819559
	H7906	H	0.663383	0.757151	0.867797
	H7907	H	0.913133	0.819536	0.805124
	H7908	H	0.845412	0.805130	0.867464
	H7909	H	0.595662	0.867439	0.805225
	H7910	H	0.845765	0.819915	0.756858
	H7911	H	0.595752	0.757071	0.819852
	H7912	H	0.845464	0.757120	0.867687
	H7913	H	0.595668	0.819746	0.805447
	H7914	H	0.845705	0.867420	0.757228
	H7915	H	0.595793	0.805015	0.819889
	H7916	H	0.663328	0.819446	0.757504
	H7917	H	0.913203	0.757155	0.819639
	H7918	H	0.663462	0.804722	0.868066
	H7919	H	0.912967	0.867362	0.805315
	O7920	O	0.088408	0.853965	0.895322
	O7921	O	0.338596	0.791492	0.957839
	O7922	O	0.088549	0.770572	0.979627
	O7923	O	0.338486	0.833066	0.917123
	O7924	O	0.420559	0.791463	0.979670
	O7925	O	0.170296	0.854011	0.917121
	O7926	O	0.420420	0.833076	0.895307
	O7927	O	0.170576	0.770545	0.957887
	O7928	O	0.420546	0.770561	0.979619
	O7929	O	0.170432	0.833062	0.917112
	O7930	O	0.420398	0.853967	0.895309
	O7931	O	0.170418	0.791511	0.957868
	O7932	O	0.088777	0.833000	0.895422
	O7933	O	0.338753	0.770583	0.957813
	O7934	O	0.088647	0.791519	0.979611
	O7935	O	0.338493	0.853986	0.917154
	F7936	F	0.004821	0.781032	0.961196
	F7937	F	0.254470	0.843529	0.898725
	F7938	F	0.004770	0.843533	0.913779
	F7939	F	0.254675	0.781029	0.976246
	Al7940	Al	0.129752	0.781039	0.968753
	Al7941	Al	0.379574	0.843522	0.906249
	Al7942	Al	0.129633	0.843530	0.906235
	Al7943	Al	0.379681	0.781024	0.968725
	C7944	C	0.093931	0.870647	0.879079
	C7945	C	0.343868	0.808122	0.941523
	C7946	C	0.093746	0.753984	0.995952
	C7947	C	0.343855	0.816404	0.933404
	C7948	C	0.415067	0.808046	0.996045
	C7949	C	0.164814	0.870610	0.933443
	C7950	C	0.415283	0.816544	0.878874
	C7951	C	0.164942	0.753929	0.941575
	C7952	C	0.415096	0.753909	0.995869
	C7953	C	0.165195	0.816441	0.933461
	C7954	C	0.415171	0.870594	0.879011
	C7955	C	0.165183	0.808159	0.941580
	C7956	C	0.093902	0.816316	0.879212
	C7957	C	0.343872	0.753953	0.941495
	C7958	C	0.093737	0.808239	0.995788
	C7959	C	0.343882	0.870647	0.933394
	C7960	C	0.004404	0.866393	0.883213
	C7961	C	0.254507	0.803899	0.945710
	C7962	C	0.004420	0.758195	0.991770
	C7963	C	0.254519	0.820654	0.929253
	C7964	C	0.004311	0.803905	0.991773
	C7965	C	0.254317	0.866379	0.929278
	C7966	C	0.004444	0.820671	0.883196
	C7967	C	0.254488	0.758159	0.945720
	C7968	C	0.004358	0.857495	0.891968
	C7969	C	0.254494	0.795004	0.954455
	C7970	C	0.004327	0.767074	0.983011
	C7971	C	0.254449	0.829562	0.920518
	C7972	C	0.004457	0.795013	0.983030
	C7973	C	0.254360	0.857506	0.920515
	C7974	C	0.004627	0.829542	0.891984
	C7975	C	0.254647	0.767063	0.954451
	H7976	H	0.163318	0.867438	0.882249
	H7977	H	0.413063	0.804877	0.944635
	H7978	H	0.162929	0.757230	0.992827
	H7979	H	0.413163	0.819609	0.930233
	H7980	H	0.345800	0.804735	0.993011
	H7981	H	0.095300	0.867390	0.930332
	H7982	H	0.345895	0.819849	0.881860
	H7983	H	0.095627	0.757159	0.944734
	H7984	H	0.345828	0.757125	0.992669
	H7985	H	0.095839	0.819684	0.930334
	H7986	H	0.345900	0.867352	0.882144
	H7987	H	0.095872	0.804948	0.944745
	H7988	H	0.163332	0.819430	0.882524
	H7989	H	0.413286	0.757204	0.944584
	H7990	H	0.163047	0.805085	0.992527
	H7991	H	0.413277	0.867446	0.930218
	O7992	O	0.588604	0.853988	0.895358
	O7993	O	0.838489	0.791525	0.957801
	O7994	O	0.588697	0.770651	0.979737
	O7995	O	0.838579	0.832996	0.917087
	O7996	O	0.920528	0.791486	0.979627
	O7997	O	0.670134	0.854008	0.917136
	O7998	O	0.920647	0.833113	0.895299
	O7999	O	0.670078	0.770551	0.957843
	O8000	O	0.920396	0.770583	0.979586
	O8001	O	0.670350	0.833071	0.917142
	O8002	O	0.920254	0.854022	0.895396
	O8003	O	0.670311	0.791486	0.957789
	O8004	O	0.588591	0.833042	0.895375
	O8005	O	0.838379	0.770560	0.957808
	O8006	O	0.588722	0.791511	0.979618
	O8007	O	0.838408	0.853996	0.917160
	F8008	F	0.504678	0.781040	0.961247
	F8009	F	0.754716	0.843530	0.898753
	F8010	F	0.504484	0.843522	0.913735
	F8011	F	0.754804	0.781063	0.976192
	Al8012	Al	0.629641	0.781052	0.968760
	Al8013	Al	0.879785	0.843528	0.906281
	Al8014	Al	0.629474	0.843525	0.906223
	Al8015	Al	0.879810	0.781056	0.968681
	C8016	C	0.594053	0.870629	0.879072
	C8017	C	0.843679	0.808148	0.941533
	C8018	C	0.594033	0.753940	0.995944
	C8019	C	0.843675	0.816421	0.933402
	C8020	C	0.914814	0.808062	0.996056
	C8021	C	0.664998	0.870639	0.933447
	C8022	C	0.914901	0.816550	0.878870
	C8023	C	0.664829	0.753882	0.941582
	C8024	C	0.915112	0.753926	0.995870
	C8025	C	0.664954	0.816462	0.933474
	C8026	C	0.914922	0.870625	0.879037
	C8027	C	0.664915	0.808183	0.941588
	C8028	C	0.594081	0.816321	0.879208
	C8029	C	0.843807	0.753957	0.941514
	C8030	C	0.593965	0.808204	0.995815
	C8031	C	0.843805	0.870659	0.933398
	C8032	C	0.504581	0.866365	0.883184
	C8033	C	0.754255	0.803916	0.945698
	C8034	C	0.504641	0.758179	0.991788
	C8035	C	0.754319	0.820656	0.929252
	C8036	C	0.504515	0.803904	0.991751
	C8037	C	0.754353	0.866393	0.929294
	C8038	C	0.504657	0.820665	0.883211
	C8039	C	0.754244	0.758142	0.945709
	C8040	C	0.504535	0.857478	0.891945
	C8041	C	0.754325	0.795015	0.954419
	C8042	C	0.504668	0.767092	0.983059
	C8043	C	0.754391	0.829534	0.920491
	C8044	C	0.504612	0.794994	0.983027
	C8045	C	0.754258	0.857508	0.920525
	C8046	C	0.504524	0.829551	0.891961
	C8047	C	0.754191	0.767046	0.954447
	H8048	H	0.663326	0.867426	0.882260
	H8049	H	0.912988	0.804921	0.944691
	H8050	H	0.663407	0.757174	0.992810
	H8051	H	0.912838	0.819643	0.930258
	H8052	H	0.845465	0.804764	0.993021
	H8053	H	0.595610	0.867442	0.930278
	H8054	H	0.845553	0.819854	0.881892
	H8055	H	0.595579	0.757103	0.944756
	H8056	H	0.845888	0.757123	0.992684
	H8057	H	0.595746	0.819721	0.930370
	H8058	H	0.845500	0.867391	0.882164
	H8059	H	0.595561	0.804993	0.944787
	H8060	H	0.663439	0.819447	0.882492
	H8061	H	0.913092	0.757235	0.944630
	H8062	H	0.663247	0.805018	0.992590
	H8063	H	0.913163	0.867474	0.930194
	O8064	O	0.088702	0.978976	0.020293
	O8065	O	0.338510	0.916488	0.082825
	O8066	O	0.088542	0.895565	0.104615
	O8067	O	0.338714	0.958039	0.042140
	O8068	O	0.420323	0.916487	0.104632
	O8069	O	0.170516	0.979014	0.042078
	O8070	O	0.420777	0.958109	0.020279
	O8071	O	0.170356	0.895574	0.082846
	O8072	O	0.420595	0.895615	0.104680
	O8073	O	0.170540	0.958055	0.042119
	O8074	O	0.420499	0.979022	0.020387
	O8075	O	0.170346	0.916482	0.082849
	O8076	O	0.088587	0.958041	0.020387
	O8077	O	0.338456	0.895579	0.082823
	O8078	O	0.088634	0.916481	0.104646
	O8079	O	0.338663	0.978943	0.042203
	F8080	F	0.004631	0.906035	0.086214
	F8081	F	0.254656	0.968511	0.023733
	F8082	F	0.004799	0.968525	0.038774
	F8083	F	0.254567	0.906023	0.101236
	Al8084	Al	0.129586	0.906027	0.093744
	Al8085	Al	0.379669	0.968505	0.031234
	Al8086	Al	0.129672	0.968531	0.031240
	Al8087	Al	0.379499	0.906035	0.093730
	C8088	C	0.093843	0.995523	0.003882
	C8089	C	0.343816	0.933133	0.066586
	C8090	C	0.093753	0.878838	0.120768
	C8091	C	0.343874	0.941413	0.058482
	C8092	C	0.415096	0.933159	0.120917
	C8093	C	0.165110	0.995701	0.058297
	C8094	C	0.415278	0.941470	0.003960
	C8095	C	0.165069	0.878963	0.066488
	C8096	C	0.414902	0.879025	0.121052
	C8097	C	0.164944	0.941418	0.058428
	C8098	C	0.415333	0.995742	0.004248
	C8099	C	0.164900	0.933126	0.066549
	C8100	C	0.093825	0.941403	0.004078
	C8101	C	0.343931	0.878911	0.066568
	C8102	C	0.093787	0.933132	0.120927
	C8103	C	0.343925	0.995570	0.058536
	C8104	C	0.004357	0.991410	0.008216
	C8105	C	0.254284	0.928900	0.070731
	C8106	C	0.004324	0.883181	0.116781
	C8107	C	0.254516	0.945655	0.054296
	C8108	C	0.004428	0.928878	0.116788
	C8109	C	0.254561	0.991394	0.054261
	C8110	C	0.004492	0.945664	0.008203
	C8111	C	0.254469	0.883152	0.070725
	C8112	C	0.004486	0.982512	0.016959
	C8113	C	0.254371	0.920001	0.079467
	C8114	C	0.004429	0.892079	0.108023
	C8115	C	0.254600	0.954542	0.045528
	C8116	C	0.004538	0.919968	0.108031
	C8117	C	0.254587	0.982492	0.045520
	C8118	C	0.004459	0.954537	0.016993
	C8119	C	0.254390	0.892069	0.079446
	H8120	H	0.163211	0.992186	0.006875
	H8121	H	0.413138	0.929917	0.069741
	H8122	H	0.163053	0.881980	0.117470
	H8123	H	0.413323	0.944625	0.055368
	H8124	H	0.345758	0.929952	0.117740
	H8125	H	0.095849	0.992511	0.055050
	H8126	H	0.346059	0.944727	0.007082
	H8127	H	0.095631	0.882200	0.069563
	H8128	H	0.345665	0.882324	0.117994
	H8129	H	0.095731	0.944652	0.055244
	H8130	H	0.345937	0.992603	0.007535
	H8131	H	0.095554	0.929879	0.069691
	H8132	H	0.163083	0.944596	0.007271
	H8133	H	0.413316	0.882115	0.069711
	H8134	H	0.163027	0.929915	0.117772
	H8135	H	0.413167	0.992273	0.055493
	O8136	O	0.588664	0.978904	0.020236
	O8137	O	0.838365	0.916498	0.082824
	O8138	O	0.588754	0.895537	0.104604
	O8139	O	0.838488	0.958032	0.042125
	O8140	O	0.920536	0.916491	0.104618
	O8141	O	0.670002	0.978998	0.042118
	O8142	O	0.920480	0.958068	0.020348
	O8143	O	0.670293	0.895557	0.082814
	O8144	O	0.920429	0.895590	0.104649
	O8145	O	0.670268	0.958085	0.042195
	O8146	O	0.920473	0.979018	0.020366
	O8147	O	0.670259	0.916531	0.082872
	O8148	O	0.588963	0.958037	0.020334
	O8149	O	0.838515	0.895541	0.082841
	O8150	O	0.588556	0.916449	0.104685
	O8151	O	0.838109	0.978972	0.042163
	F8152	F	0.504490	0.906020	0.086239
	F8153	F	0.754712	0.968521	0.023771
	F8154	F	0.504570	0.968508	0.038732
	F8155	F	0.754590	0.906036	0.101210
	Al8156	Al	0.629561	0.906035	0.093743
	Al8157	Al	0.879847	0.968532	0.031267
	Al8158	Al	0.629532	0.968519	0.031233
	Al8159	Al	0.879718	0.906026	0.093714
	C8160	C	0.594318	0.995522	0.003901
	C8161	C	0.843782	0.933144	0.066530
	C8162	C	0.594015	0.878830	0.120760
	C8163	C	0.843777	0.941414	0.058414
	C8164	C	0.914987	0.933169	0.120884
	C8165	C	0.664845	0.995718	0.058310
	C8166	C	0.915068	0.941459	0.003981
	C8167	C	0.664875	0.878940	0.066500
	C8168	C	0.914836	0.879028	0.121085
	C8169	C	0.664824	0.941405	0.058395
	C8170	C	0.914856	0.995761	0.004208
	C8171	C	0.664815	0.933122	0.066526
	C8172	C	0.594095	0.941371	0.004093
	C8173	C	0.843924	0.878915	0.066554
	C8174	C	0.593964	0.933119	0.120967
	C8175	C	0.843702	0.995530	0.058516
	C8176	C	0.504809	0.991394	0.008223
	C8177	C	0.754330	0.928907	0.070696
	C8178	C	0.504474	0.883186	0.116790
	C8179	C	0.754282	0.945658	0.054281
	C8180	C	0.504517	0.928888	0.116817
	C8181	C	0.754173	0.991392	0.054274
	C8182	C	0.504708	0.945664	0.008169
	C8183	C	0.754405	0.883153	0.070683
	C8184	C	0.504646	0.982468	0.016928
	C8185	C	0.754324	0.920015	0.079452
	C8186	C	0.504602	0.892086	0.108047
	C8187	C	0.754352	0.954561	0.045552
	C8188	C	0.504454	0.919974	0.108054
	C8189	C	0.754050	0.982496	0.045520
	C8190	C	0.504780	0.954565	0.016923
	C8191	C	0.754420	0.892052	0.079431
	H8192	H	0.663728	0.992206	0.006899
	H8193	H	0.913150	0.929933	0.069691
	H8194	H	0.663360	0.881968	0.117446
	H8195	H	0.913017	0.944637	0.055278
	H8196	H	0.845697	0.929972	0.117678
	H8197	H	0.595629	0.992556	0.055031
	H8198	H	0.845820	0.944705	0.007106
	H8199	H	0.595546	0.882190	0.069618
	H8200	H	0.845616	0.882335	0.118045
	H8201	H	0.595505	0.944631	0.055222
	H8202	H	0.845503	0.992609	0.007482
	H8203	H	0.595551	0.929873	0.069687
	H8204	H	0.663422	0.944545	0.007326
	H8205	H	0.913147	0.882155	0.069725
	H8206	H	0.663220	0.929875	0.117836
	H8207	H	0.912801	0.992231	0.055419
	O8208	O	0.088338	0.978954	0.145317
	O8209	O	0.338471	0.916478	0.207845
	O8210	O	0.088652	0.895546	0.229630
	O8211	O	0.338938	0.958060	0.167164
	O8212	O	0.420569	0.916488	0.229643
	O8213	O	0.170414	0.978998	0.167089
	O8214	O	0.420711	0.958091	0.145315
	O8215	O	0.170469	0.895593	0.207802
	O8216	O	0.420513	0.895581	0.229699
	O8217	O	0.170799	0.958071	0.167165
	O8218	O	0.420441	0.979010	0.145381
	O8219	O	0.170305	0.916499	0.207837
	O8220	O	0.088735	0.958060	0.145326
	O8221	O	0.338642	0.895551	0.207845
	O8222	O	0.088563	0.916490	0.229616
	O8223	O	0.338520	0.978957	0.167131
	F8224	F	0.004585	0.906016	0.211227
	F8225	F	0.254674	0.968514	0.148736
	F8226	F	0.004828	0.968516	0.163792
	F8227	F	0.254422	0.906018	0.226240
	Al8228	Al	0.129557	0.906026	0.218712
	Al8229	Al	0.379612	0.968527	0.156235
	Al8230	Al	0.129646	0.968498	0.156229
	Al8231	Al	0.379452	0.906023	0.218753
	C8232	C	0.093787	0.995528	0.128892
	C8233	C	0.344100	0.933118	0.191536
	C8234	C	0.093772	0.878918	0.245952
	C8235	C	0.344283	0.941405	0.183421
	C8236	C	0.415222	0.933152	0.245918
	C8237	C	0.165195	0.995670	0.183323
	C8238	C	0.415193	0.941445	0.129024
	C8239	C	0.164976	0.878917	0.191540
	C8240	C	0.415408	0.878907	0.245934
	C8241	C	0.165507	0.941428	0.183480
	C8242	C	0.415127	0.995745	0.129227
	C8243	C	0.165326	0.933143	0.191592
	C8244	C	0.093760	0.941412	0.129057
	C8245	C	0.343837	0.878890	0.191563
	C8246	C	0.093919	0.933121	0.245921
	C8247	C	0.343987	0.995546	0.183518
	C8248	C	0.004440	0.991396	0.133200
	C8249	C	0.254648	0.928875	0.195688
	C8250	C	0.004398	0.883167	0.241796
	C8251	C	0.254856	0.945666	0.179312
	C8252	C	0.004380	0.928885	0.241764
	C8253	C	0.254582	0.991354	0.179284
	C8254	C	0.004473	0.945671	0.133186
	C8255	C	0.254437	0.883158	0.195689
	C8256	C	0.004317	0.982482	0.141937
	C8257	C	0.254448	0.919995	0.204461
	C8258	C	0.004634	0.892065	0.233042
	C8259	C	0.254848	0.954553	0.170548
	C8260	C	0.004486	0.919974	0.233038
	C8261	C	0.254482	0.982478	0.170499
	C8262	C	0.004628	0.954572	0.141953
	C8263	C	0.254502	0.892062	0.204435
	H8264	H	0.163137	0.992217	0.131902
	H8265	H	0.413314	0.929876	0.194698
	H8266	H	0.163202	0.882141	0.242802
	H8267	H	0.413520	0.944619	0.180227
	H8268	H	0.345920	0.929931	0.242756
	H8269	H	0.095822	0.992510	0.180082
	H8270	H	0.345763	0.944668	0.132144
	H8271	H	0.095669	0.882145	0.194706
	H8272	H	0.346068	0.882121	0.242768
	H8273	H	0.096291	0.944656	0.180346
	H8274	H	0.345909	0.992590	0.132508
	H8275	H	0.095969	0.929953	0.194773
	H8276	H	0.163109	0.944617	0.132212
	H8277	H	0.413192	0.882095	0.194753
	H8278	H	0.163238	0.929882	0.242782
	H8279	H	0.413354	0.992282	0.180431
	O8280	O	0.588636	0.978944	0.145261
	O8281	O	0.838445	0.916468	0.207817
	O8282	O	0.588691	0.895550	0.229617
	O8283	O	0.838613	0.958024	0.167105
	O8284	O	0.920384	0.916456	0.229676
	O8285	O	0.670431	0.979020	0.167122
	O8286	O	0.920688	0.958085	0.145331
	O8287	O	0.670338	0.895600	0.207812
	O8288	O	0.920596	0.895585	0.229676
	O8289	O	0.670476	0.958096	0.167146
	O8290	O	0.920232	0.979027	0.145363
	O8291	O	0.670333	0.916494	0.207835
	O8292	O	0.588831	0.958066	0.145319
	O8293	O	0.838546	0.895555	0.207851
	O8294	O	0.588673	0.916465	0.229673
	O8295	O	0.838526	0.979003	0.167184
	F8296	F	0.504396	0.906038	0.211257
	F8297	F	0.754829	0.968545	0.148777
	F8298	F	0.504723	0.968542	0.163712
	F8299	F	0.754595	0.906019	0.226219
	Al8300	Al	0.629425	0.906033	0.218728
	Al8301	Al	0.879931	0.968534	0.156275
	Al8302	Al	0.629771	0.968544	0.156220
	Al8303	Al	0.879759	0.906016	0.218724
	C8304	C	0.593919	0.995529	0.128895
	C8305	C	0.843825	0.933120	0.191537
	C8306	C	0.594253	0.878954	0.245967
	C8307	C	0.843761	0.941408	0.183425
	C8308	C	0.914952	0.933153	0.245914
	C8309	C	0.664985	0.995708	0.183338
	C8310	C	0.915028	0.941450	0.129005
	C8311	C	0.664908	0.878940	0.191570
	C8312	C	0.914938	0.878921	0.245924
	C8313	C	0.664838	0.941455	0.183490
	C8314	C	0.915066	0.995754	0.129208
	C8315	C	0.664932	0.933167	0.191595
	C8316	C	0.593977	0.941407	0.129079
	C8317	C	0.844059	0.878942	0.191591
	C8318	C	0.594082	0.933116	0.245966
	C8319	C	0.843878	0.995586	0.183548
	C8320	C	0.504465	0.991389	0.133204
	C8321	C	0.754394	0.928915	0.195729
	C8322	C	0.504842	0.883179	0.241817
	C8323	C	0.754289	0.945670	0.179305
	C8324	C	0.504666	0.928892	0.241771
	C8325	C	0.754473	0.991410	0.179296
	C8326	C	0.504612	0.945681	0.133191
	C8327	C	0.754483	0.883166	0.195723
	C8328	C	0.504502	0.982478	0.141935
	C8329	C	0.754416	0.919991	0.204445
	C8330	C	0.504670	0.892059	0.233048
	C8331	C	0.754460	0.954575	0.170553
	C8332	C	0.504648	0.919985	0.233047
	C8333	C	0.754457	0.982517	0.170552
	C8334	C	0.504710	0.954572	0.141937
	C8335	C	0.754427	0.892080	0.204442
	H8336	H	0.663165	0.992203	0.131896
	H8337	H	0.913033	0.929864	0.194659
	H8338	H	0.663482	0.882205	0.242834
	H8339	H	0.912962	0.944630	0.180253
	H8340	H	0.845555	0.929939	0.242773
	H8341	H	0.595736	0.992540	0.180089
	H8342	H	0.845818	0.944696	0.132132
	H8343	H	0.595654	0.882195	0.194714
	H8344	H	0.845748	0.882142	0.242745
	H8345	H	0.595462	0.944709	0.180388
	H8346	H	0.845859	0.992613	0.132492
	H8347	H	0.595584	0.929948	0.194769
	H8348	H	0.663407	0.944602	0.132248
	H8349	H	0.913358	0.882193	0.194741
	H8350	H	0.663444	0.929871	0.242858
	H8351	H	0.913231	0.992320	0.180478
	O8352	O	0.088372	0.978956	0.270351
	O8353	O	0.338602	0.916465	0.332842
	O8354	O	0.088642	0.895613	0.354719
	O8355	O	0.338618	0.958041	0.292153
	O8356	O	0.420554	0.916464	0.354693
	O8357	O	0.170462	0.978989	0.292170
	O8358	O	0.420532	0.958086	0.270306
	O8359	O	0.170442	0.895587	0.332834
	O8360	O	0.420363	0.895578	0.354667
	O8361	O	0.170451	0.958082	0.292239
	O8362	O	0.420709	0.978987	0.270371
	O8363	O	0.170492	0.916495	0.332866
	O8364	O	0.088830	0.958017	0.270412
	O8365	O	0.338608	0.895579	0.332834
	O8366	O	0.088492	0.916472	0.354672
	O8367	O	0.338644	0.978970	0.292173
	F8368	F	0.004749	0.906018	0.336222
	F8369	F	0.254552	0.968526	0.273757
	F8370	F	0.004593	0.968504	0.288793
	F8371	F	0.254535	0.906032	0.351257
	Al8372	Al	0.129543	0.906034	0.343774
	Al8373	Al	0.379616	0.968517	0.281251
	Al8374	Al	0.129601	0.968517	0.281284
	Al8375	Al	0.379549	0.906016	0.343759
	C8376	C	0.093838	0.995526	0.253950
	C8377	C	0.344006	0.933083	0.316519
	C8378	C	0.093941	0.878986	0.371046
	C8379	C	0.343884	0.941370	0.308417
	C8380	C	0.415166	0.933085	0.371009
	C8381	C	0.165016	0.995613	0.308454
	C8382	C	0.415197	0.941455	0.254021
	C8383	C	0.165170	0.878889	0.316621
	C8384	C	0.414825	0.878873	0.370848
	C8385	C	0.164907	0.941439	0.308508
	C8386	C	0.415484	0.995707	0.254221
	C8387	C	0.164956	0.933144	0.316614
	C8388	C	0.093983	0.941409	0.254052
	C8389	C	0.343822	0.878946	0.316504
	C8390	C	0.093821	0.933153	0.370901
	C8391	C	0.344170	0.995600	0.308447
	C8392	C	0.004362	0.991376	0.258233
	C8393	C	0.254522	0.928870	0.320705
	C8394	C	0.004498	0.883183	0.366821
	C8395	C	0.254418	0.945657	0.304332
	C8396	C	0.004299	0.928895	0.366764
	C8397	C	0.254555	0.991379	0.304312
	C8398	C	0.004563	0.945663	0.258207
	C8399	C	0.254539	0.883163	0.320719
	C8400	C	0.004385	0.982474	0.266981
	C8401	C	0.254579	0.919988	0.329473
	C8402	C	0.004489	0.892067	0.358056
	C8403	C	0.254545	0.954548	0.295579
	C8404	C	0.004276	0.919980	0.358042
	C8405	C	0.254574	0.982498	0.295535
	C8406	C	0.004769	0.954546	0.266986
	C8407	C	0.254535	0.892074	0.329448
	H8408	H	0.163174	0.992227	0.256987
	H8409	H	0.413372	0.929855	0.319632
	H8410	H	0.163252	0.882256	0.367964
	H8411	H	0.413243	0.944569	0.305239
	H8412	H	0.345838	0.929812	0.367936
	H8413	H	0.095717	0.992385	0.305277
	H8414	H	0.345957	0.944700	0.257149
	H8415	H	0.095883	0.882091	0.319798
	H8416	H	0.345634	0.882051	0.367582
	H8417	H	0.095604	0.944702	0.305390
	H8418	H	0.346115	0.992550	0.257457
	H8419	H	0.095697	0.929946	0.319830
	H8420	H	0.163377	0.944617	0.257218
	H8421	H	0.413149	0.882194	0.319594
	H8422	H	0.163314	0.929950	0.367742
	H8423	H	0.413479	0.992366	0.305263
	O8424	O	0.588870	0.978919	0.270327
	O8425	O	0.838636	0.916481	0.332830
	O8426	O	0.588588	0.895583	0.354692
	O8427	O	0.838616	0.958014	0.292138
	O8428	O	0.920363	0.916453	0.354653
	O8429	O	0.670297	0.978935	0.292209
	O8430	O	0.920652	0.958075	0.270337
	O8431	O	0.670475	0.895534	0.332889
	O8432	O	0.920542	0.895543	0.354618
	O8433	O	0.670470	0.958092	0.292248
	O8434	O	0.920265	0.978979	0.270374
	O8435	O	0.670527	0.916492	0.332864
	O8436	O	0.588716	0.958045	0.270377
	O8437	O	0.838550	0.895555	0.332806
	O8438	O	0.588734	0.916465	0.354691
	O8439	O	0.838366	0.978963	0.292154
	F8440	F	0.504582	0.906028	0.336279
	F8441	F	0.754645	0.968476	0.273787
	F8442	F	0.504479	0.968499	0.288762
	F8443	F	0.754752	0.906030	0.351220
	Al8444	Al	0.629650	0.906026	0.343750
	Al8445	Al	0.879746	0.968499	0.281282
	Al8446	Al	0.629568	0.968497	0.281285
	Al8447	Al	0.879879	0.906006	0.343707
	C8448	C	0.594370	0.995519	0.253940
	C8449	C	0.843934	0.933100	0.316514
	C8450	C	0.593793	0.878992	0.371037
	C8451	C	0.843924	0.941388	0.308417
	C8452	C	0.914795	0.933082	0.371017
	C8453	C	0.664816	0.995622	0.308433
	C8454	C	0.915052	0.941447	0.254046
	C8455	C	0.665053	0.878882	0.316601
	C8456	C	0.914955	0.878868	0.370849
	C8457	C	0.664902	0.941451	0.308503
	C8458	C	0.914904	0.995688	0.254191
	C8459	C	0.664932	0.933155	0.316607
	C8460	C	0.594090	0.941424	0.254068
	C8461	C	0.843794	0.878957	0.316496
	C8462	C	0.593971	0.933148	0.370927
	C8463	C	0.843818	0.995624	0.308422
	C8464	C	0.504898	0.991373	0.258238
	C8465	C	0.754465	0.928891	0.320709
	C8466	C	0.504294	0.883185	0.366825
	C8467	C	0.754446	0.945652	0.304309
	C8468	C	0.504635	0.928878	0.366803
	C8469	C	0.754324	0.991364	0.304308
	C8470	C	0.504645	0.945676	0.258194
	C8471	C	0.754396	0.883144	0.320707
	C8472	C	0.504854	0.982464	0.266965
	C8473	C	0.754565	0.919994	0.329452
	C8474	C	0.504434	0.892082	0.358073
	C8475	C	0.754504	0.954549	0.295575
	C8476	C	0.504664	0.919970	0.358080
	C8477	C	0.754349	0.982461	0.295563
	C8478	C	0.504632	0.954566	0.266948
	C8479	C	0.754456	0.892044	0.329453
	H8480	H	0.663639	0.992196	0.256950
	H8481	H	0.913329	0.929861	0.319620
	H8482	H	0.662990	0.882275	0.367931
	H8483	H	0.913292	0.944597	0.305248
	H8484	H	0.845381	0.929813	0.367946
	H8485	H	0.595422	0.992413	0.305275
	H8486	H	0.845743	0.944676	0.257203
	H8487	H	0.595873	0.882095	0.319799
	H8488	H	0.845593	0.882033	0.367599
	H8489	H	0.595645	0.944719	0.305392
	H8490	H	0.845530	0.992519	0.257427
	H8491	H	0.595695	0.929950	0.319804
	H8492	H	0.663388	0.944647	0.257230
	H8493	H	0.913052	0.882223	0.319587
	H8494	H	0.663383	0.929930	0.367792
	H8495	H	0.913171	0.992415	0.305247
	O8496	O	0.088723	0.978929	0.395334
	O8497	O	0.338545	0.916437	0.457867
	O8498	O	0.088632	0.895548	0.479664
	O8499	O	0.338721	0.958040	0.417186
	O8500	O	0.420503	0.916470	0.479681
	O8501	O	0.170402	0.978972	0.417117
	O8502	O	0.420634	0.958049	0.395370
	O8503	O	0.170482	0.895551	0.457852
	O8504	O	0.420651	0.895551	0.479723
	O8505	O	0.170498	0.958034	0.417185
	O8506	O	0.420576	0.978973	0.395380
	O8507	O	0.170311	0.916484	0.457910
	O8508	O	0.088695	0.958036	0.395354
	O8509	O	0.338611	0.895517	0.457887
	O8510	O	0.088541	0.916433	0.479719
	O8511	O	0.338523	0.978928	0.417218
	F8512	F	0.004708	0.906031	0.461259
	F8513	F	0.254709	0.968468	0.398779
	F8514	F	0.004818	0.968485	0.413797
	F8515	F	0.254625	0.905990	0.476278
	Al8516	Al	0.129679	0.906007	0.468794
	Al8517	Al	0.379628	0.968503	0.406296
	Al8518	Al	0.129695	0.968489	0.406270
	Al8519	Al	0.379663	0.905988	0.468790
	C8520	C	0.093772	0.995565	0.379052
	C8521	C	0.343831	0.933087	0.441570
	C8522	C	0.093860	0.878871	0.495914
	C8523	C	0.343961	0.941358	0.433452
	C8524	C	0.415388	0.933134	0.495954
	C8525	C	0.164842	0.995616	0.433436
	C8526	C	0.415159	0.941391	0.379109
	C8527	C	0.165178	0.878905	0.441546
	C8528	C	0.415444	0.878958	0.496065
	C8529	C	0.165080	0.941410	0.433486
	C8530	C	0.414998	0.995638	0.379112
	C8531	C	0.164992	0.933120	0.441616
	C8532	C	0.093838	0.941456	0.379008
	C8533	C	0.343994	0.878876	0.441585
	C8534	C	0.093772	0.933126	0.495954
	C8535	C	0.343844	0.995609	0.433438
	C8536	C	0.004326	0.991373	0.383272
	C8537	C	0.254425	0.928857	0.445735
	C8538	C	0.004440	0.883151	0.491818
	C8539	C	0.254582	0.945631	0.429327
	C8540	C	0.004415	0.928866	0.491808
	C8541	C	0.254350	0.991374	0.429272
	C8542	C	0.004360	0.945676	0.383187
	C8543	C	0.254552	0.883142	0.445704
	C8544	C	0.004506	0.982449	0.391989
	C8545	C	0.254452	0.919949	0.454477
	C8546	C	0.004549	0.892060	0.483076
	C8547	C	0.254629	0.954537	0.420585
	C8548	C	0.004472	0.919959	0.483090
	C8549	C	0.254402	0.982453	0.420561
	C8550	C	0.004417	0.954551	0.391961
	C8551	C	0.254523	0.892033	0.454465
	H8552	H	0.163111	0.992296	0.382137
	H8553	H	0.413197	0.929861	0.444711
	H8554	H	0.163278	0.882041	0.492719
	H8555	H	0.413341	0.944560	0.430305
	H8556	H	0.346133	0.929925	0.492780
	H8557	H	0.095397	0.992381	0.430310
	H8558	H	0.345839	0.944585	0.382317
	H8559	H	0.095824	0.882136	0.444687
	H8560	H	0.346137	0.882219	0.492991
	H8561	H	0.095960	0.944671	0.430341
	H8562	H	0.345649	0.992411	0.382269
	H8563	H	0.095612	0.929907	0.444807
	H8564	H	0.163242	0.944703	0.382121
	H8565	H	0.413298	0.882086	0.444760
	H8566	H	0.163136	0.929899	0.492827
	H8567	H	0.413336	0.992372	0.430318
	O8568	O	0.588746	0.978942	0.395311
	O8569	O	0.838420	0.916485	0.457859
	O8570	O	0.588791	0.895569	0.479740
	O8571	O	0.838478	0.958034	0.417193
	O8572	O	0.920422	0.916463	0.479702
	O8573	O	0.670327	0.978959	0.417187
	O8574	O	0.920493	0.958039	0.395398
	O8575	O	0.670365	0.895538	0.457899
	O8576	O	0.920520	0.895571	0.479703
	O8577	O	0.670302	0.958034	0.417142
	O8578	O	0.920591	0.978937	0.395383
	O8579	O	0.670317	0.916458	0.457852
	O8580	O	0.588829	0.958066	0.395296
	O8581	O	0.838463	0.895556	0.457876
	O8582	O	0.588638	0.916452	0.479723
	O8583	O	0.838498	0.978964	0.417207
	F8584	F	0.504587	0.906001	0.461309
	F8585	F	0.754793	0.968515	0.398798
	F8586	F	0.504640	0.968501	0.413757
	F8587	F	0.754703	0.906029	0.476277
	Al8588	Al	0.629679	0.906015	0.468805
	Al8589	Al	0.879953	0.968511	0.406320
	Al8590	Al	0.629707	0.968494	0.406249
	Al8591	Al	0.879842	0.906017	0.468742
	C8592	C	0.593893	0.995602	0.379016
	C8593	C	0.843691	0.933114	0.441565
	C8594	C	0.594281	0.878830	0.495924
	C8595	C	0.843713	0.941387	0.433453
	C8596	C	0.914983	0.933129	0.495930
	C8597	C	0.664962	0.995627	0.433454
	C8598	C	0.914805	0.941380	0.379126
	C8599	C	0.665050	0.878940	0.441536
	C8600	C	0.914963	0.878942	0.496023
	C8601	C	0.664807	0.941433	0.433492
	C8602	C	0.914825	0.995623	0.379119
	C8603	C	0.664818	0.933144	0.441615
	C8604	C	0.594070	0.941456	0.379024
	C8605	C	0.843843	0.878894	0.441622
	C8606	C	0.594053	0.933107	0.496003
	C8607	C	0.843862	0.995636	0.433439
	C8608	C	0.504482	0.991375	0.383217
	C8609	C	0.754250	0.928866	0.445701
	C8610	C	0.504820	0.883145	0.491849
	C8611	C	0.754284	0.945648	0.429323
	C8612	C	0.504705	0.928857	0.491846
	C8613	C	0.754404	0.991374	0.429313
	C8614	C	0.504622	0.945663	0.383205
	C8615	C	0.754445	0.883151	0.445747
	C8616	C	0.504646	0.982461	0.391951
	C8617	C	0.754307	0.919978	0.454464
	C8618	C	0.504724	0.892047	0.483111
	C8619	C	0.754331	0.954538	0.420568
	C8620	C	0.504562	0.919960	0.483100
	C8621	C	0.754390	0.982473	0.420578
	C8622	C	0.504666	0.954558	0.391938
	C8623	C	0.754411	0.892045	0.454499
	H8624	H	0.663274	0.992329	0.382089
	H8625	H	0.913031	0.929908	0.444716
	H8626	H	0.663551	0.882017	0.492713
	H8627	H	0.913133	0.944588	0.430310
	H8628	H	0.845696	0.929902	0.492777
	H8629	H	0.595541	0.992411	0.430312
	H8630	H	0.845466	0.944566	0.382346
	H8631	H	0.595630	0.882185	0.444629
	H8632	H	0.845662	0.882191	0.492912
	H8633	H	0.595617	0.944709	0.430349
	H8634	H	0.845516	0.992389	0.382268
	H8635	H	0.595531	0.929937	0.444842
	H8636	H	0.663344	0.944707	0.382153
	H8637	H	0.913244	0.882095	0.444775
	H8638	H	0.663331	0.929875	0.492879
	H8639	H	0.913294	0.992432	0.430282
	O8640	O	0.088614	0.978981	0.520379
	O8641	O	0.338512	0.916485	0.582834
	O8642	O	0.088764	0.895569	0.604680
	O8643	O	0.338695	0.958077	0.542169
	O8644	O	0.420690	0.916461	0.604700
	O8645	O	0.170491	0.978978	0.542169
	O8646	O	0.420505	0.958108	0.520330
	O8647	O	0.170414	0.895564	0.582852
	O8648	O	0.420452	0.895621	0.604695
	O8649	O	0.170557	0.958085	0.542179
	O8650	O	0.420546	0.978981	0.520353
	O8651	O	0.170371	0.916488	0.582842
	O8652	O	0.088563	0.958071	0.520344
	O8653	O	0.338596	0.895593	0.582817
	O8654	O	0.088575	0.916479	0.604654
	O8655	O	0.338622	0.978985	0.542222
	F8656	F	0.004872	0.906012	0.586230
	F8657	F	0.254563	0.968550	0.523775
	F8658	F	0.004826	0.968517	0.538789
	F8659	F	0.254596	0.906039	0.601245
	Al8660	Al	0.129743	0.906023	0.593743
	Al8661	Al	0.379650	0.968542	0.531262
	Al8662	Al	0.129750	0.968520	0.531267
	Al8663	Al	0.379622	0.906042	0.593773
	C8664	C	0.093646	0.995660	0.504103
	C8665	C	0.343939	0.933170	0.566624
	C8666	C	0.093916	0.878879	0.620917
	C8667	C	0.343997	0.941466	0.558513
	C8668	C	0.415429	0.933086	0.621034
	C8669	C	0.164998	0.995612	0.558499
	C8670	C	0.415329	0.941445	0.504045
	C8671	C	0.164963	0.878893	0.566630
	C8672	C	0.415098	0.878943	0.620993
	C8673	C	0.165105	0.941429	0.558438
	C8674	C	0.415032	0.995595	0.504030
	C8675	C	0.165023	0.933142	0.566537
	C8676	C	0.093774	0.941427	0.504065
	C8677	C	0.343627	0.878966	0.566496
	C8678	C	0.093799	0.933179	0.620855
	C8679	C	0.344002	0.995652	0.558433
	C8680	C	0.004366	0.991377	0.508213
	C8681	C	0.254468	0.928890	0.570692
	C8682	C	0.004581	0.883173	0.616828
	C8683	C	0.254498	0.945674	0.554306
	C8684	C	0.004342	0.928879	0.616785
	C8685	C	0.254486	0.991390	0.554328
	C8686	C	0.004358	0.945681	0.508182
	C8687	C	0.254358	0.883167	0.570715
	C8688	C	0.004457	0.982476	0.516959
	C8689	C	0.254447	0.919993	0.579450
	C8690	C	0.004659	0.892076	0.608071
	C8691	C	0.254605	0.954571	0.545561
	C8692	C	0.004421	0.919963	0.608059
	C8693	C	0.254463	0.982488	0.545586
	C8694	C	0.004463	0.954555	0.516963
	C8695	C	0.254479	0.892078	0.579444
	H8696	H	0.162944	0.992465	0.507284
	H8697	H	0.413171	0.929955	0.569824
	H8698	H	0.163313	0.882057	0.617708
	H8699	H	0.413200	0.944720	0.555402
	H8700	H	0.346171	0.929806	0.617947
	H8701	H	0.095752	0.992347	0.555365
	H8702	H	0.346099	0.944689	0.507151
	H8703	H	0.095685	0.882101	0.569800
	H8704	H	0.345781	0.882172	0.617866
	H8705	H	0.095624	0.944628	0.555270
	H8706	H	0.345843	0.992329	0.507146
	H8707	H	0.095548	0.929901	0.569657
	H8708	H	0.163092	0.944636	0.507237
	H8709	H	0.412941	0.882238	0.569550
	H8710	H	0.163128	0.929979	0.617655
	H8711	H	0.413259	0.992427	0.555242
	O8712	O	0.588769	0.978948	0.520288
	O8713	O	0.838702	0.916498	0.582826
	O8714	O	0.588542	0.895590	0.604682
	O8715	O	0.838352	0.958085	0.542212
	O8716	O	0.920416	0.916451	0.604680
	O8717	O	0.670425	0.978946	0.542211
	O8718	O	0.920418	0.958047	0.520381
	O8719	O	0.670222	0.895552	0.582867
	O8720	O	0.920676	0.895560	0.604660
	O8721	O	0.670165	0.958058	0.542163
	O8722	O	0.920487	0.978951	0.520347
	O8723	O	0.670584	0.916467	0.582827
	O8724	O	0.588630	0.958092	0.520312
	O8725	O	0.838381	0.895553	0.582831
	O8726	O	0.589009	0.916467	0.604676
	O8727	O	0.838520	0.979001	0.542173
	F8728	F	0.504555	0.906063	0.586268
	F8729	F	0.754793	0.968500	0.523788
	F8730	F	0.504649	0.968545	0.538746
	F8731	F	0.754748	0.906010	0.601224
	Al8732	Al	0.629696	0.906035	0.593749
	Al8733	Al	0.879893	0.968528	0.531301
	Al8734	Al	0.629708	0.968519	0.531244
	Al8735	Al	0.879889	0.906021	0.593713
	C8736	C	0.593929	0.995643	0.504101
	C8737	C	0.843956	0.933172	0.566601
	C8738	C	0.593755	0.878915	0.620939
	C8739	C	0.843872	0.941463	0.558484
	C8740	C	0.914870	0.933082	0.621023
	C8741	C	0.664964	0.995617	0.558451
	C8742	C	0.914984	0.941428	0.504035
	C8743	C	0.664892	0.878879	0.566623
	C8744	C	0.915064	0.878968	0.621016
	C8745	C	0.664831	0.941381	0.558411
	C8746	C	0.914995	0.995617	0.504046
	C8747	C	0.664881	0.933102	0.566515
	C8748	C	0.594039	0.941420	0.504098
	C8749	C	0.843729	0.878938	0.566533
	C8750	C	0.594278	0.933178	0.620883
	C8751	C	0.843673	0.995633	0.558402
	C8752	C	0.504518	0.991392	0.508224
	C8753	C	0.754430	0.928898	0.570701
	C8754	C	0.504420	0.883192	0.616832
	C8755	C	0.754307	0.945682	0.554337
	C8756	C	0.504844	0.928881	0.616823
	C8757	C	0.754289	0.991385	0.554299
	C8758	C	0.504638	0.945677	0.508213
	C8759	C	0.754260	0.883142	0.570733
	C8760	C	0.504622	0.982469	0.516939
	C8761	C	0.754567	0.919997	0.579444
	C8762	C	0.504460	0.892086	0.608065
	C8763	C	0.754261	0.954572	0.545585
	C8764	C	0.504867	0.919961	0.608080
	C8765	C	0.754404	0.982493	0.545561
	C8766	C	0.504528	0.954577	0.516957
	C8767	C	0.754254	0.892061	0.579451
	H8768	H	0.663126	0.992427	0.507281
	H8769	H	0.913370	0.929968	0.569797
	H8770	H	0.663110	0.882113	0.617766
	H8771	H	0.913164	0.944725	0.555344
	H8772	H	0.845543	0.929797	0.617958
	H8773	H	0.595790	0.992373	0.555308
	H8774	H	0.845712	0.944641	0.507191
	H8775	H	0.595640	0.882097	0.569801
	H8776	H	0.845869	0.882225	0.617883
	H8777	H	0.595495	0.944565	0.555218
	H8778	H	0.845719	0.992380	0.507174
	H8779	H	0.595520	0.929850	0.569627
	H8780	H	0.663310	0.944641	0.507257
	H8781	H	0.912860	0.882208	0.569650
	H8782	H	0.663540	0.929976	0.617671
	H8783	H	0.912788	0.992407	0.555220
	O8784	O	0.088598	0.978980	0.645321
	O8785	O	0.338568	0.916500	0.707892
	O8786	O	0.088504	0.895548	0.729588
	O8787	O	0.338607	0.958080	0.667140
	O8788	O	0.420454	0.916439	0.729726
	O8789	O	0.170605	0.979001	0.667128
	O8790	O	0.420481	0.958048	0.645359
	O8791	O	0.170397	0.895605	0.707758
	O8792	O	0.420769	0.895615	0.729731
	O8793	O	0.170507	0.958083	0.667164
	O8794	O	0.420713	0.978960	0.645295
	O8795	O	0.170468	0.916461	0.707801
	O8796	O	0.088585	0.958065	0.645368
	O8797	O	0.338528	0.895593	0.707841
	O8798	O	0.088762	0.916520	0.729609
	O8799	O	0.338748	0.978971	0.667179
	F8800	F	0.004553	0.906062	0.711216
	F8801	F	0.254584	0.968522	0.648756
	F8802	F	0.004830	0.968534	0.663768
	F8803	F	0.254315	0.906016	0.726252
	Al8804	Al	0.129479	0.906031	0.718705
	Al8805	Al	0.379598	0.968512	0.656245
	Al8806	Al	0.129668	0.968537	0.656258
	Al8807	Al	0.379439	0.906023	0.718769
	C8808	C	0.093695	0.995606	0.629035
	C8809	C	0.343939	0.933129	0.691542
	C8810	C	0.093975	0.878930	0.745939
	C8811	C	0.343953	0.941422	0.683447
	C8812	C	0.415194	0.933142	0.745935
	C8813	C	0.165050	0.995678	0.683357
	C8814	C	0.415438	0.941388	0.629120
	C8815	C	0.165073	0.878979	0.691490
	C8816	C	0.415569	0.878958	0.745967
	C8817	C	0.165237	0.941428	0.683451
	C8818	C	0.415253	0.995653	0.629085
	C8819	C	0.165241	0.933124	0.691554
	C8820	C	0.093805	0.941485	0.628958
	C8821	C	0.343892	0.878883	0.691627
	C8822	C	0.094050	0.933152	0.745940
	C8823	C	0.343962	0.995589	0.683500
	C8824	C	0.004252	0.991387	0.633210
	C8825	C	0.254656	0.928887	0.695711
	C8826	C	0.004511	0.883176	0.741794
	C8827	C	0.254581	0.945663	0.679284
	C8828	C	0.004586	0.928887	0.741799
	C8829	C	0.254550	0.991394	0.679289
	C8830	C	0.004450	0.945680	0.633190
	C8831	C	0.254527	0.883179	0.695704
	C8832	C	0.004413	0.982481	0.641941
	C8833	C	0.254583	0.919986	0.704451
	C8834	C	0.004393	0.892082	0.733044
	C8835	C	0.254565	0.954578	0.670548
	C8836	C	0.004615	0.920002	0.733036
	C8837	C	0.254671	0.982496	0.670539
	C8838	C	0.004461	0.954583	0.641941
	C8839	C	0.254523	0.892089	0.704423
	H8840	H	0.162979	0.992351	0.632145
	H8841	H	0.413356	0.929907	0.694672
	H8842	H	0.163303	0.882149	0.742778
	H8843	H	0.413206	0.944654	0.680315
	H8844	H	0.345762	0.929926	0.742800
	H8845	H	0.095785	0.992481	0.680135
	H8846	H	0.346101	0.944566	0.632311
	H8847	H	0.095734	0.882241	0.694555
	H8848	H	0.346423	0.882205	0.742832
	H8849	H	0.096019	0.944663	0.680329
	H8850	H	0.346026	0.992440	0.632256
	H8851	H	0.095979	0.929887	0.694708
	H8852	H	0.163177	0.944753	0.632032
	H8853	H	0.413328	0.882055	0.694800
	H8854	H	0.163465	0.929931	0.742797
	H8855	H	0.413157	0.992323	0.680399
	O8856	O	0.588854	0.978983	0.645314
	O8857	O	0.838274	0.916530	0.707859
	O8858	O	0.588944	0.895583	0.729662
	O8859	O	0.838589	0.958058	0.667155
	O8860	O	0.920571	0.916510	0.729646
	O8861	O	0.670477	0.978986	0.667176
	O8862	O	0.920427	0.958091	0.645323
	O8863	O	0.670282	0.895645	0.707745
	O8864	O	0.920431	0.895620	0.729683
	O8865	O	0.670454	0.958081	0.667146
	O8866	O	0.920424	0.978976	0.645344
	O8867	O	0.670096	0.916495	0.707775
	O8868	O	0.588670	0.958132	0.645279
	O8869	O	0.838473	0.895563	0.707862
	O8870	O	0.588648	0.916523	0.729569
	O8871	O	0.838582	0.978993	0.667193
	F8872	F	0.504310	0.906024	0.711263
	F8873	F	0.754707	0.968540	0.648780
	F8874	F	0.504591	0.968525	0.663730
	F8875	F	0.754634	0.906064	0.726207
	Al8876	Al	0.629438	0.906047	0.718717
	Al8877	Al	0.879863	0.968535	0.656288
	Al8878	Al	0.629583	0.968540	0.656246
	Al8879	Al	0.879724	0.906063	0.718720
	C8880	C	0.593976	0.995627	0.629017
	C8881	C	0.843782	0.933141	0.691555
	C8882	C	0.594443	0.878923	0.745951
	C8883	C	0.843756	0.941427	0.683458
	C8884	C	0.914992	0.933140	0.745933
	C8885	C	0.664996	0.995699	0.683359
	C8886	C	0.914964	0.941388	0.629120
	C8887	C	0.664959	0.878984	0.691476
	C8888	C	0.915071	0.878939	0.745960
	C8889	C	0.664825	0.941469	0.683454
	C8890	C	0.914860	0.995657	0.629088
	C8891	C	0.664845	0.933170	0.691555
	C8892	C	0.594172	0.941487	0.628970
	C8893	C	0.843919	0.878895	0.691651
	C8894	C	0.594147	0.933133	0.745920
	C8895	C	0.844005	0.995616	0.683497
	C8896	C	0.504681	0.991384	0.633178
	C8897	C	0.754267	0.928920	0.695695
	C8898	C	0.505031	0.883178	0.741808
	C8899	C	0.754302	0.945674	0.679295
	C8900	C	0.504644	0.928892	0.741783
	C8901	C	0.754482	0.991412	0.679316
	C8902	C	0.504831	0.945692	0.633187
	C8903	C	0.754416	0.883205	0.695672
	C8904	C	0.504792	0.982477	0.641917
	C8905	C	0.754229	0.920025	0.704436
	C8906	C	0.504899	0.892085	0.733070
	C8907	C	0.754458	0.954572	0.670547
	C8908	C	0.504589	0.919987	0.733031
	C8909	C	0.754504	0.982499	0.670575
	C8910	C	0.504650	0.954588	0.641932
	C8911	C	0.754367	0.892102	0.704412
	H8912	H	0.663272	0.992387	0.632137
	H8913	H	0.913017	0.929918	0.694705
	H8914	H	0.663742	0.882143	0.742802
	H8915	H	0.912838	0.944647	0.680322
	H8916	H	0.845628	0.929906	0.742788
	H8917	H	0.595766	0.992501	0.680143
	H8918	H	0.845635	0.944576	0.632343
	H8919	H	0.595568	0.882241	0.694557
	H8920	H	0.845717	0.882163	0.742809
	H8921	H	0.595571	0.944728	0.680322
	H8922	H	0.845458	0.992445	0.632240
	H8923	H	0.595508	0.929951	0.694724
	H8924	H	0.663565	0.944746	0.632041
	H8925	H	0.913269	0.882075	0.694866
	H8926	H	0.663540	0.929901	0.742775
	H8927	H	0.913122	0.992333	0.680378
	O8928	O	0.088548	0.979019	0.770373
	O8929	O	0.338555	0.916469	0.832818
	O8930	O	0.088419	0.895547	0.854615
	O8931	O	0.338768	0.958046	0.792083
	O8932	O	0.420418	0.916518	0.854649
	O8933	O	0.170381	0.978984	0.792186
	O8934	O	0.420783	0.958111	0.770263
	O8935	O	0.170695	0.895595	0.832821
	O8936	O	0.420644	0.895616	0.854731
	O8937	O	0.170589	0.958100	0.792194
	O8938	O	0.420601	0.979034	0.770341
	O8939	O	0.170501	0.916513	0.832856
	O8940	O	0.088560	0.958056	0.770383
	O8941	O	0.338855	0.895538	0.832906
	O8942	O	0.088528	0.916518	0.854603
	O8943	O	0.338462	0.979006	0.792095
	F8944	F	0.004708	0.906023	0.836211
	F8945	F	0.254429	0.968527	0.773710
	F8946	F	0.004533	0.968515	0.788769
	F8947	F	0.254486	0.906041	0.851262
	Al8948	Al	0.129559	0.906029	0.843736
	Al8949	Al	0.379444	0.968543	0.781199
	Al8950	Al	0.129423	0.968535	0.781260
	Al8951	Al	0.379593	0.906048	0.843768
	C8952	C	0.093804	0.995605	0.753975
	C8953	C	0.343974	0.933094	0.816456
	C8954	C	0.093965	0.878934	0.870947
	C8955	C	0.344072	0.941363	0.808345
	C8956	C	0.415174	0.933163	0.870912
	C8957	C	0.165211	0.995663	0.808434
	C8958	C	0.415332	0.941435	0.754044
	C8959	C	0.165115	0.878991	0.816527
	C8960	C	0.415230	0.878887	0.870896
	C8961	C	0.165153	0.941513	0.808529
	C8962	C	0.415531	0.995712	0.754139
	C8963	C	0.165109	0.933221	0.816659
	C8964	C	0.094011	0.941441	0.754066
	C8965	C	0.344059	0.878911	0.816578
	C8966	C	0.093837	0.933119	0.870929
	C8967	C	0.344136	0.995641	0.808422
	C8968	C	0.004400	0.991418	0.758214
	C8969	C	0.254571	0.928895	0.820678
	C8970	C	0.004424	0.883170	0.866789
	C8971	C	0.254700	0.945676	0.804285
	C8972	C	0.004219	0.928890	0.866759
	C8973	C	0.254622	0.991410	0.804273
	C8974	C	0.004489	0.945676	0.758205
	C8975	C	0.254684	0.883182	0.820709
	C8976	C	0.004396	0.982486	0.766929
	C8977	C	0.254569	0.920001	0.829445
	C8978	C	0.004346	0.892054	0.858027
	C8979	C	0.254733	0.954558	0.795516
	C8980	C	0.004389	0.919980	0.858047
	C8981	C	0.254502	0.982515	0.795513
	C8982	C	0.004403	0.954585	0.766939
	C8983	C	0.254765	0.892079	0.829448
	H8984	H	0.163060	0.992328	0.757038
	H8985	H	0.413457	0.929853	0.819540
	H8986	H	0.163354	0.882162	0.867803
	H8987	H	0.413505	0.944517	0.805130
	H8988	H	0.345784	0.929967	0.867755
	H8989	H	0.095732	0.992460	0.805277
	H8990	H	0.345960	0.944639	0.757216
	H8991	H	0.095908	0.882247	0.819652
	H8992	H	0.346003	0.882093	0.867716
	H8993	H	0.096047	0.944825	0.805451
	H8994	H	0.346149	0.992539	0.757345
	H8995	H	0.095934	0.930052	0.819949
	H8996	H	0.163417	0.944665	0.757221
	H8997	H	0.413422	0.882114	0.819762
	H8998	H	0.163320	0.929885	0.867804
	H8999	H	0.413497	0.992419	0.805263
	O9000	O	0.588779	0.978971	0.770301
	O9001	O	0.838434	0.916502	0.832864
	O9002	O	0.588788	0.895540	0.854618
	O9003	O	0.838551	0.958029	0.792114
	O9004	O	0.920345	0.916476	0.854647
	O9005	O	0.670534	0.978982	0.792150
	O9006	O	0.920380	0.958118	0.770265
	O9007	O	0.670480	0.895596	0.832780
	O9008	O	0.920262	0.895571	0.854664
	O9009	O	0.670444	0.958119	0.792239
	O9010	O	0.920389	0.978959	0.770266
	O9011	O	0.670287	0.916527	0.832891
	O9012	O	0.588938	0.958067	0.770341
	O9013	O	0.838614	0.895532	0.832852
	O9014	O	0.588571	0.916493	0.854649
	O9015	O	0.838668	0.979011	0.792123
	F9016	F	0.504482	0.906034	0.836263
	F9017	F	0.754566	0.968517	0.773779
	F9018	F	0.504371	0.968555	0.788704
	F9019	F	0.754622	0.905999	0.851226
	Al9020	Al	0.629553	0.906020	0.843743
	Al9021	Al	0.879655	0.968519	0.781253
	Al9022	Al	0.629527	0.968544	0.781255
	Al9023	Al	0.879739	0.906022	0.843719
	C9024	C	0.594350	0.995604	0.753966
	C9025	C	0.844094	0.933063	0.816443
	C9026	C	0.594056	0.878917	0.870948
	C9027	C	0.844104	0.941331	0.808326
	C9028	C	0.914655	0.933155	0.870885
	C9029	C	0.664995	0.995631	0.808407
	C9030	C	0.914972	0.941428	0.754052
	C9031	C	0.665051	0.878931	0.816527
	C9032	C	0.914892	0.878910	0.870906
	C9033	C	0.665115	0.941484	0.808532
	C9034	C	0.914966	0.995712	0.754134
	C9035	C	0.665071	0.933191	0.816660
	C9036	C	0.594233	0.941422	0.754037
	C9037	C	0.843884	0.878891	0.816583
	C9038	C	0.594117	0.933119	0.870953
	C9039	C	0.843802	0.995645	0.808426
	C9040	C	0.504947	0.991407	0.758190
	C9041	C	0.754601	0.928900	0.820718
	C9042	C	0.504704	0.883161	0.866801
	C9043	C	0.754606	0.945661	0.804303
	C9044	C	0.504630	0.928880	0.866786
	C9045	C	0.754488	0.991413	0.804247
	C9046	C	0.504848	0.945699	0.758151
	C9047	C	0.754502	0.883132	0.820721
	C9048	C	0.504786	0.982503	0.766929
	C9049	C	0.754406	0.920027	0.829497
	C9050	C	0.504734	0.892067	0.858061
	C9051	C	0.754486	0.954563	0.795558
	C9052	C	0.504540	0.920003	0.858047
	C9053	C	0.754588	0.982514	0.795506
	C9054	C	0.504891	0.954583	0.766913
	C9055	C	0.754502	0.892057	0.829425
	H9056	H	0.663705	0.992350	0.757022
	H9057	H	0.913575	0.929796	0.819486
	H9058	H	0.663352	0.882150	0.867818
	H9059	H	0.913556	0.944462	0.805081
	H9060	H	0.845123	0.929949	0.867728
	H9061	H	0.595690	0.992398	0.805268
	H9062	H	0.845617	0.944638	0.757210
	H9063	H	0.595874	0.882203	0.819636
	H9064	H	0.845606	0.882117	0.867723
	H9065	H	0.595901	0.944772	0.805422
	H9066	H	0.845643	0.992519	0.757335
	H9067	H	0.595824	0.929988	0.819904
	H9068	H	0.663659	0.944622	0.757203
	H9069	H	0.913127	0.882119	0.819735
	H9070	H	0.663513	0.929886	0.867815
	H9071	H	0.913114	0.992422	0.805298
	O9072	O	0.088402	0.978970	0.895305
	O9073	O	0.338442	0.916481	0.957827
	O9074	O	0.088688	0.895528	0.979571
	O9075	O	0.338774	0.958055	0.917092
	O9076	O	0.420333	0.916508	0.979606
	O9077	O	0.170242	0.979031	0.917084
	O9078	O	0.420707	0.958119	0.895287
	O9079	O	0.170483	0.895574	0.957798
	O9080	O	0.420393	0.895588	0.979641
	O9081	O	0.170601	0.958093	0.917179
	O9082	O	0.420600	0.979006	0.895330
	O9083	O	0.170250	0.916530	0.957846
	O9084	O	0.088653	0.958030	0.895376
	O9085	O	0.338669	0.895565	0.957809
	O9086	O	0.088386	0.916453	0.979647
	O9087	O	0.338367	0.978999	0.917147
	F9088	F	0.004739	0.906026	0.961179
	F9089	F	0.254568	0.968539	0.898726
	F9090	F	0.004557	0.968545	0.913759
	F9091	F	0.254480	0.906028	0.976227
	Al9092	Al	0.129575	0.906018	0.968712
	Al9093	Al	0.379585	0.968544	0.906207
	Al9094	Al	0.129545	0.968548	0.906248
	Al9095	Al	0.379489	0.906040	0.968724
	C9096	C	0.093838	0.995573	0.878990
	C9097	C	0.343988	0.933114	0.941518
	C9098	C	0.093509	0.878936	0.995880
	C9099	C	0.344041	0.941401	0.933383
	C9100	C	0.415216	0.933179	0.995848
	C9101	C	0.164887	0.995729	0.933305
	C9102	C	0.415313	0.941469	0.879027
	C9103	C	0.165007	0.878899	0.941562
	C9104	C	0.415168	0.878945	0.995944
	C9105	C	0.165159	0.941465	0.933464
	C9106	C	0.415062	0.995700	0.879138
	C9107	C	0.165137	0.933193	0.941580
	C9108	C	0.093914	0.941404	0.879065
	C9109	C	0.344048	0.878939	0.941510
	C9110	C	0.093765	0.933121	0.995939
	C9111	C	0.343667	0.995565	0.933548
	C9112	C	0.004358	0.991407	0.883228
	C9113	C	0.254468	0.928908	0.945691
	C9114	C	0.004126	0.883200	0.991772
	C9115	C	0.254649	0.945680	0.929283
	C9116	C	0.004393	0.928889	0.991770
	C9117	C	0.254237	0.991390	0.929293
	C9118	C	0.004370	0.945660	0.883191
	C9119	C	0.254581	0.883168	0.945669
	C9120	C	0.004374	0.982493	0.891944
	C9121	C	0.254409	0.920013	0.954449
	C9122	C	0.004397	0.892074	0.983004
	C9123	C	0.254719	0.954570	0.920531
	C9124	C	0.004364	0.919992	0.983016
	C9125	C	0.254271	0.982507	0.920525
	C9126	C	0.004549	0.954572	0.891920
	C9127	C	0.254586	0.892060	0.954419
	H9128	H	0.163166	0.992288	0.882063
	H9129	H	0.413044	0.929849	0.944680
	H9130	H	0.162796	0.882118	0.992673
	H9131	H	0.413261	0.944626	0.930171
	H9132	H	0.345921	0.929989	0.992662
	H9133	H	0.095453	0.992605	0.930047
	H9134	H	0.346086	0.944724	0.882171
	H9135	H	0.095696	0.882107	0.944754
	H9136	H	0.345891	0.882174	0.992824
	H9137	H	0.095800	0.944695	0.930359
	H9138	H	0.345865	0.992520	0.882375
	H9139	H	0.095691	0.930028	0.944754
	H9140	H	0.163346	0.944615	0.882234
	H9141	H	0.413458	0.882164	0.944637
	H9142	H	0.163053	0.929887	0.992800
	H9143	H	0.413033	0.992299	0.930488
	O9144	O	0.588774	0.978975	0.895288
	O9145	O	0.838539	0.916507	0.957778
	O9146	O	0.588535	0.895579	0.979625
	O9147	O	0.838435	0.958024	0.917094
	O9148	O	0.920371	0.916513	0.979596
	O9149	O	0.670293	0.979039	0.917136
	O9150	O	0.920550	0.958109	0.895291
	O9151	O	0.670328	0.895574	0.957845
	O9152	O	0.920540	0.895622	0.979625
	O9153	O	0.670281	0.958106	0.917182
	O9154	O	0.920267	0.979004	0.895339
	O9155	O	0.670372	0.916540	0.957871
	O9156	O	0.588810	0.958122	0.895308
	O9157	O	0.838499	0.895567	0.957820
	O9158	O	0.588530	0.916498	0.979632
	O9159	O	0.838403	0.979010	0.917133
	F9160	F	0.504550	0.906058	0.961219
	F9161	F	0.754632	0.968545	0.898755
	F9162	F	0.504502	0.968545	0.913737
	F9163	F	0.754709	0.906044	0.976199
	Al9164	Al	0.629597	0.906046	0.968732
	Al9165	Al	0.879685	0.968543	0.906252
	Al9166	Al	0.629615	0.968553	0.906250
	Al9167	Al	0.879797	0.906046	0.968678
	C9168	C	0.593959	0.995587	0.878961
	C9169	C	0.843726	0.933133	0.941506
	C9170	C	0.593931	0.878935	0.995887
	C9171	C	0.843692	0.941420	0.933370
	C9172	C	0.914992	0.933179	0.995851
	C9173	C	0.665115	0.995746	0.933319
	C9174	C	0.914724	0.941441	0.879022
	C9175	C	0.665017	0.878921	0.941572
	C9176	C	0.914715	0.878976	0.995948
	C9177	C	0.664874	0.941457	0.933467
	C9178	C	0.914993	0.995707	0.879153
	C9179	C	0.664912	0.933191	0.941586
	C9180	C	0.594313	0.941426	0.879068
	C9181	C	0.843779	0.878939	0.941520
	C9182	C	0.593975	0.933085	0.995974
	C9183	C	0.843929	0.995562	0.933552
	C9184	C	0.504568	0.991398	0.883175
	C9185	C	0.754333	0.928914	0.945680
	C9186	C	0.504431	0.883182	0.991763
	C9187	C	0.754186	0.945663	0.929251
	C9188	C	0.504507	0.928886	0.991773
	C9189	C	0.754471	0.991432	0.929257
	C9190	C	0.504882	0.945696	0.883177
	C9191	C	0.754397	0.883159	0.945728
	C9192	C	0.504709	0.982490	0.891911
	C9193	C	0.754408	0.920024	0.954427
	C9194	C	0.504456	0.892074	0.983022
	C9195	C	0.754279	0.954566	0.920523
	C9196	C	0.504418	0.920000	0.983012
	C9197	C	0.754395	0.982533	0.920511
	C9198	C	0.504787	0.954609	0.891912
	C9199	C	0.754390	0.892058	0.954468
	H9200	H	0.663241	0.992312	0.882048
	H9201	H	0.912904	0.929885	0.944654
	H9202	H	0.663095	0.882162	0.992703
	H9203	H	0.912888	0.944653	0.930180
	H9204	H	0.845656	0.929992	0.992648
	H9205	H	0.595744	0.992597	0.930080
	H9206	H	0.845338	0.944672	0.882158
	H9207	H	0.595670	0.882140	0.944703
	H9208	H	0.845430	0.882198	0.992800
	H9209	H	0.595429	0.944691	0.930388
	H9210	H	0.845638	0.992526	0.882361
	H9211	H	0.595477	0.930017	0.944776
	H9212	H	0.663634	0.944644	0.882236
	H9213	H	0.913141	0.882179	0.944626
	H9214	H	0.663296	0.929821	0.992883
	H9215	H	0.913244	0.992265	0.930521
