data_Molecule from HDF5

_cell_length_a		76.562924
_cell_length_b		13.350124
_cell_length_c		31.329552
_cell_angle_alpha	90.013755
_cell_angle_beta	91.922536
_cell_angle_gamma	90.015357
_symmetry_space_group_name_H-M	'P 1'
_symmetry_Int_Tables_number		1

loop_
	_symmetry_equiv_pos_as_xyz
	x,y,z

loop_
	_atom_site_label
	_atom_site_type_symbol
	_atom_site_fract_x
	_atom_site_fract_y
	_atom_site_fract_z
	Al0	Al	0.132875	-0.500443	0.078295
	Al1	Al	0.132915	-0.251093	0.077969
	Al2	Al	0.002910	-0.249916	-0.017901
	Al3	Al	0.002914	-0.499843	-0.017752
	O4	O	0.150525	-0.459309	0.119185
	O5	O	0.132814	-0.375743	0.051004
	O6	O	0.132397	-0.125703	0.105212
	O7	O	0.224397	-0.459691	0.256791
	O8	O	0.113881	-0.459965	0.112656
	O9	O	0.026660	-0.458988	0.168704
	O10	O	0.113985	-0.291372	0.112892
	O11	O	0.113643	-0.209821	0.041037
	O12	O	0.022691	-0.208708	0.016670
	O13	O	0.150698	-0.291180	0.118686
	O14	O	0.151724	-0.209733	0.044028
	O15	O	0.238912	-0.210327	-0.012470
	O16	O	0.026729	-0.290529	0.168816
	O17	O	0.113775	-0.041747	0.040691
	O18	O	0.022703	-0.040677	0.016869
	O19	O	0.238984	-0.042103	-0.012538
	O20	O	0.151727	-0.041270	0.044077
	O21	O	0.224522	-0.291675	0.256368
	O22	O	0.007903	-0.124858	0.175567
	O23	O	0.257552	-0.376286	-0.020165
	C24	C	0.194991	-0.286397	0.201063
	C25	C	0.202387	-0.375393	0.215455
	C26	C	0.194758	-0.464410	0.201771
	C27	C	0.180091	-0.464426	0.174366
	C28	C	0.172659	-0.375352	0.160040
	C29	C	0.180331	-0.286318	0.173617
	C30	C	0.156869	-0.375171	0.130300
	C31	C	0.218197	-0.375554	0.245214
	C32	C	0.106684	-0.375621	0.117940
	C33	C	0.088106	-0.375624	0.131429
	C34	C	0.079231	-0.285847	0.136698
	C35	C	0.061719	-0.285577	0.146739
	C36	C	0.052710	-0.375197	0.151593
	C37	C	0.061606	-0.465076	0.146706
	C38	C	0.079138	-0.465311	0.136668
	C39	C	0.034003	-0.374900	0.163927
	C40	C	0.106039	-0.125671	0.038305
	C41	C	0.086585	-0.125253	0.032299
	C42	C	0.077328	-0.035364	0.030531
	C43	C	0.059225	-0.035099	0.027556
	C44	C	0.049853	-0.124639	0.026079
	C45	C	0.059116	-0.214590	0.027825
	C46	C	0.077252	-0.214894	0.030819
	C47	C	0.030383	-0.124644	0.019438
	C48	C	0.159055	-0.125514	0.039133
	C49	C	0.177707	-0.125515	0.026523
	C50	C	0.186689	-0.215380	0.021783
	C51	C	0.204181	-0.215437	0.011687
	C52	C	0.213115	-0.125581	0.006285
	C53	C	0.204149	-0.035754	0.011224
	C54	C	0.186659	-0.035785	0.021276
	C55	C	0.231705	-0.125983	-0.007186
	H56	H	0.210942	-0.285240	0.007846
	H57	H	0.179873	-0.284790	0.026012
	H58	H	0.200767	-0.217466	0.211491
	H59	H	0.174819	-0.217133	0.162471
	H60	H	0.132111	-0.376752	0.021943
	H61	H	0.131417	-0.125938	0.134510
	H62	H	0.007510	-0.125277	0.146480
	H63	H	0.256988	-0.376482	0.009240
	H64	H	0.084227	-0.284734	0.032113
	H65	H	0.052123	-0.284453	0.026767
	H66	H	0.054957	-0.215820	0.150614
	H67	H	0.086005	-0.216316	0.132672
	H68	H	0.052269	0.034875	0.026408
	H69	H	0.084304	0.034517	0.031680
	H70	H	0.085821	-0.535223	0.132599
	H71	H	0.054764	-0.534277	0.150439
	H72	H	0.174387	-0.533257	0.163928
	H73	H	0.200310	-0.533505	0.212758
	H74	H	0.179898	0.033891	0.025056
	H75	H	0.210908	0.033888	0.006968
	Al76	Al	0.132904	-0.000805	0.078024
	Al77	Al	0.132936	0.248641	0.078150
	Al78	Al	0.002846	0.250145	-0.017850
	Al79	Al	0.002899	0.000049	-0.017929
	O80	O	0.150512	0.039796	0.119295
	O81	O	0.132854	0.124337	0.050998
	O82	O	0.132436	0.373958	0.105405
	O83	O	0.224434	0.040456	0.256406
	O84	O	0.113956	0.039988	0.112648
	O85	O	0.026772	0.041129	0.168968
	O86	O	0.113996	0.208603	0.112630
	O87	O	0.113812	0.290327	0.040414
	O88	O	0.022775	0.290840	0.016660
	O89	O	0.150562	0.207867	0.119156
	O90	O	0.151825	0.290232	0.044489
	O91	O	0.238909	0.289773	-0.012989
	O92	O	0.026818	0.209402	0.169275
	O93	O	0.113842	0.458633	0.040778
	O94	O	0.022719	0.459002	0.016999
	O95	O	0.238903	0.458291	-0.012869
	O96	O	0.151809	0.458550	0.044636
	O97	O	0.224534	0.208595	0.256186
	O98	O	0.007822	0.374832	0.175672
	O99	O	0.257467	0.123676	-0.020122
	C100	C	0.195009	0.213157	0.200888
	C101	C	0.202409	0.124286	0.215326
	C102	C	0.194638	0.035353	0.202204
	C103	C	0.179935	0.035215	0.174907
	C104	C	0.172592	0.124128	0.160293
	C105	C	0.180317	0.213160	0.173573
	C106	C	0.156777	0.123899	0.130636
	C107	C	0.218221	0.124578	0.244950
	C108	C	0.106734	0.124321	0.118038
	C109	C	0.088160	0.124515	0.131396
	C110	C	0.079282	0.214278	0.136986
	C111	C	0.061806	0.214595	0.147069
	C112	C	0.052774	0.125068	0.151768
	C113	C	0.061671	0.035137	0.146619
	C114	C	0.079162	0.034860	0.136493
	C115	C	0.034141	0.125348	0.164365
	C116	C	0.106175	0.374528	0.037924
	C117	C	0.086664	0.374742	0.031958
	C118	C	0.077405	0.464610	0.030365
	C119	C	0.059266	0.464649	0.027647
	C120	C	0.049928	0.374843	0.026176
	C121	C	0.059214	0.285109	0.027993
	C122	C	0.077326	0.284939	0.030714
	C123	C	0.030404	0.375060	0.019621
	C124	C	0.159124	0.374445	0.039685
	C125	C	0.177758	0.374330	0.026881
	C126	C	0.186677	0.284423	0.021652
	C127	C	0.204119	0.284224	0.011343
	C128	C	0.213072	0.373953	0.005965
	C129	C	0.204187	0.463764	0.011507
	C130	C	0.186720	0.463962	0.021838
	C131	C	0.231625	0.373902	-0.007529
	H132	H	0.210875	0.214540	0.007243
	H133	H	0.179927	0.214779	0.025875
	H134	H	0.200803	0.282301	0.211190
	H135	H	0.174779	0.282189	0.162441
	H136	H	0.132308	0.123968	0.021775
	H137	H	0.131607	0.374158	0.134433
	H138	H	0.007345	0.374714	0.146384
	H139	H	0.256758	0.123260	0.008961
	H140	H	0.084237	0.215004	0.031958
	H141	H	0.052211	0.215491	0.027218
	H142	H	0.055062	0.283896	0.151430
	H143	H	0.086085	0.283771	0.133352
	H144	H	0.052274	0.534515	0.026671
	H145	H	0.084475	0.534123	0.031346
	H146	H	0.085946	-0.034769	0.132545
	H147	H	0.054871	-0.034209	0.150622
	H148	H	0.174096	-0.033740	0.164878
	H149	H	0.200107	-0.033612	0.213485
	H150	H	0.179888	0.533550	0.026134
	H151	H	0.210968	0.533650	0.007526
	Al152	Al	0.117086	-0.500096	0.422087
	Al153	Al	0.117107	-0.249315	0.422300
	Al154	Al	0.007873	-0.249471	0.202759
	Al155	Al	0.007822	-0.500429	0.202750
	O156	O	0.136269	-0.458739	0.459371
	O157	O	0.117550	-0.374861	0.394903
	O158	O	0.117190	-0.124601	0.449276
	O159	O	0.227315	-0.459864	0.483077
	O160	O	0.098201	-0.458738	0.455914
	O161	O	0.011023	-0.459238	0.512693
	O162	O	0.098222	-0.290526	0.456082
	O163	O	0.099440	-0.208937	0.381107
	O164	O	0.025535	-0.209323	0.243703
	O165	O	0.136391	-0.290561	0.459327
	O166	O	0.135998	-0.208820	0.387677
	O167	O	0.223240	-0.209676	0.331268
	O168	O	0.011011	-0.290815	0.512500
	O169	O	0.099397	-0.041030	0.380938
	O170	O	0.025584	-0.041236	0.243779
	O171	O	0.223225	-0.041130	0.331130
	O172	O	0.136147	-0.040088	0.387713
	O173	O	0.227346	-0.291495	0.482783
	O174	O	-0.007451	-0.124368	0.519775
	O175	O	0.242269	-0.375498	0.324824
	C176	C	0.190950	-0.285558	0.471643
	C177	C	0.200210	-0.375553	0.473729
	C178	C	0.190858	-0.465310	0.472921
	C179	C	0.172740	-0.465116	0.470137
	C180	C	0.163502	-0.375110	0.467957
	C181	C	0.172836	-0.285391	0.468961
	C182	C	0.144015	-0.374765	0.462018
	C183	C	0.219675	-0.375715	0.480266
	C184	C	0.090853	-0.374492	0.460759
	C185	C	0.072190	-0.374664	0.473123
	C186	C	0.063282	-0.284939	0.478579
	C187	C	0.045786	-0.284759	0.488821
	C188	C	0.036821	-0.374669	0.493799
	C189	C	0.045716	-0.464332	0.487972
	C190	C	0.063189	-0.464317	0.477749
	C191	C	0.018281	-0.374934	0.507301
	C192	C	0.093152	-0.125079	0.369734
	C193	C	0.077267	-0.125092	0.340329
	C194	C	0.069743	-0.036123	0.326237
	C195	C	0.055087	-0.036247	0.298883
	C196	C	0.047551	-0.125381	0.284988
	C197	C	0.055030	-0.214210	0.299112
	C198	C	0.069705	-0.214165	0.326415
	C199	C	0.031765	-0.125364	0.255216
	C200	C	0.143322	-0.124595	0.382394
	C201	C	0.161904	-0.125070	0.368922
	C202	C	0.170853	-0.214802	0.363968
	C203	C	0.188348	-0.215039	0.353801
	C204	C	0.197266	-0.125297	0.348528
	C205	C	0.188341	-0.035362	0.353325
	C206	C	0.170844	-0.035248	0.363521
	C207	C	0.215934	-0.125445	0.335941
	H208	H	0.195116	-0.284540	0.350086
	H209	H	0.164112	-0.284435	0.368237
	H210	H	0.198000	-0.215724	0.472117
	H211	H	0.165858	-0.215472	0.467366
	H212	H	0.118630	-0.374275	0.365788
	H213	H	0.117833	-0.124188	0.478466
	H214	H	-0.006596	-0.123934	0.490442
	H215	H	0.242962	-0.375119	0.353900
	H216	H	0.075378	-0.283206	0.337228
	H217	H	0.049324	-0.283258	0.288554
	H218	H	0.039052	-0.215309	0.493145
	H219	H	0.070089	-0.215357	0.474674
	H220	H	0.049417	0.032677	0.288017
	H221	H	0.075416	0.032943	0.336895
	H222	H	0.069893	-0.533825	0.473169
	H223	H	0.038961	-0.533998	0.491728
	H224	H	0.165718	-0.534824	0.469387
	H225	H	0.197802	-0.535068	0.474410
	H226	H	0.164133	0.034440	0.367589
	H227	H	0.195150	0.034127	0.349221
	Al228	Al	0.117093	-0.000032	0.421943
	Al229	Al	0.117100	0.250771	0.422019
	Al230	Al	0.007893	0.250426	0.202997
	Al231	Al	0.007884	-0.000154	0.202739
	O232	O	0.136108	0.041227	0.459426
	O233	O	0.117456	0.125516	0.394832
	O234	O	0.117186	0.375452	0.449328
	O235	O	0.227204	0.040126	0.483125
	O236	O	0.098285	0.041077	0.455933
	O237	O	0.011031	0.042023	0.512364
	O238	O	0.098223	0.209234	0.456037
	O239	O	0.099345	0.291244	0.381168
	O240	O	0.025534	0.290965	0.244110
	O241	O	0.136250	0.209742	0.459176
	O242	O	0.135952	0.291291	0.387284
	O243	O	0.223219	0.289663	0.331244
	O244	O	0.011058	0.210214	0.512702
	O245	O	0.099472	0.459193	0.381029
	O246	O	0.025536	0.458945	0.243798
	O247	O	0.223309	0.458172	0.331422
	O248	O	0.136040	0.459655	0.387582
	O249	O	0.227191	0.208369	0.483232
	O250	O	-0.007506	0.376194	0.519916
	O251	O	0.242253	0.124148	0.324391
	C252	C	0.190778	0.214435	0.472408
	C253	C	0.200042	0.124375	0.474098
	C254	C	0.190703	0.034708	0.472987
	C255	C	0.172593	0.034945	0.470111
	C256	C	0.163323	0.124962	0.468429
	C257	C	0.172664	0.214622	0.469627
	C258	C	0.143837	0.125303	0.462009
	C259	C	0.219544	0.124314	0.480523
	C260	C	0.090925	0.125059	0.460827
	C261	C	0.072265	0.125327	0.473146
	C262	C	0.063375	0.214916	0.478487
	C263	C	0.045924	0.215134	0.488724
	C264	C	0.036889	0.125836	0.493753
	C265	C	0.045753	0.036102	0.488131
	C266	C	0.063246	0.036033	0.477917
	C267	C	0.018296	0.126041	0.507244
	C268	C	0.093139	0.375203	0.369735
	C269	C	0.077334	0.375208	0.340112
	C270	C	0.069769	0.464067	0.326193
	C271	C	0.055083	0.464114	0.298997
	C272	C	0.047547	0.375179	0.285096
	C273	C	0.055147	0.286315	0.298833
	C274	C	0.069845	0.286132	0.326030
	C275	C	0.031733	0.375225	0.255434
	C276	C	0.143304	0.375311	0.382289
	C277	C	0.161915	0.375043	0.369042
	C278	C	0.170741	0.284997	0.363390
	C279	C	0.188263	0.284991	0.353301
	C280	C	0.197300	0.374617	0.348632
	C281	C	0.188428	0.464563	0.353821
	C282	C	0.170943	0.464672	0.363939
	C283	C	0.215945	0.373874	0.336172
	H284	H	0.194972	0.215417	0.349003
	H285	H	0.163933	0.215409	0.367219
	H286	H	0.197846	0.284067	0.473093
	H287	H	0.165698	0.284838	0.468331
	H288	H	0.118082	0.125781	0.365620
	H289	H	0.117755	0.375315	0.478526
	H290	H	-0.006561	0.376880	0.490978
	H291	H	0.242855	0.124005	0.353490
	H292	H	0.075555	0.217280	0.336498
	H293	H	0.049473	0.217542	0.287993
	H294	H	0.039281	0.284994	0.493204
	H295	H	0.070131	0.284159	0.474644
	H296	H	0.049382	0.533241	0.288337
	H297	H	0.075482	0.532957	0.336841
	H298	H	0.069989	-0.033489	0.473705
	H299	H	0.038915	-0.033112	0.492115
	H300	H	0.165564	-0.034710	0.469233
	H301	H	0.197643	-0.035255	0.474161
	H302	H	0.164254	0.534609	0.368211
	H303	H	0.195195	0.533827	0.349977
	Al304	Al	0.122100	-0.499929	0.642701
	Al305	Al	0.122157	-0.249675	0.642805
	Al306	Al	-0.007894	-0.249535	0.546988
	Al307	Al	-0.007939	-0.498685	0.547404
	O308	O	0.141815	-0.458721	0.677904
	O309	O	0.121449	-0.374760	0.615354
	O310	O	0.122769	-0.124787	0.670586
	O311	O	0.232966	-0.461002	0.697883
	O312	O	0.103640	-0.459028	0.678751
	O313	O	0.015501	-0.458159	0.731588
	O314	O	0.103719	-0.290705	0.679179
	O315	O	0.102279	-0.208805	0.608060
	O316	O	0.011279	-0.208176	0.584199
	O317	O	0.141939	-0.290532	0.677373
	O318	O	0.140322	-0.208416	0.606113
	O319	O	0.228561	-0.209606	0.553810
	O320	O	0.015529	-0.289620	0.731583
	O321	O	0.102266	-0.040683	0.608289
	O322	O	0.011292	-0.039703	0.584096
	O323	O	0.228701	-0.041412	0.554271
	O324	O	0.140565	-0.040217	0.606970
	O325	O	0.233107	-0.292787	0.697179
	O326	O	-0.003466	-0.124144	0.740722
	O327	O	0.247757	-0.375538	0.545259
	C328	C	0.196601	-0.286070	0.687963
	C329	C	0.205812	-0.376188	0.689711
	C330	C	0.196403	-0.465699	0.689345
	C331	C	0.178270	-0.465363	0.687299
	C332	C	0.169070	-0.375212	0.685523
	C333	C	0.178465	-0.285529	0.685901
	C334	C	0.149556	-0.374738	0.680021
	C335	C	0.225303	-0.376700	0.695148
	C336	C	0.096320	-0.374708	0.684095
	C337	C	0.077521	-0.375032	0.696333
	C338	C	0.068491	-0.285052	0.700889
	C339	C	0.050831	-0.284943	0.709689
	C340	C	0.041689	-0.374476	0.714179
	C341	C	0.050700	-0.464497	0.709397
	C342	C	0.068383	-0.464810	0.700621
	C343	C	0.022891	-0.373861	0.726651
	C344	C	0.094613	-0.124735	0.605536
	C345	C	0.075126	-0.124621	0.598837
	C346	C	0.065859	-0.034807	0.597441
	C347	C	0.047711	-0.034661	0.594550
	C348	C	0.038395	-0.124307	0.593247
	C349	C	0.047671	-0.214145	0.594696
	C350	C	0.065796	-0.214303	0.597561
	C351	C	0.018933	-0.124057	0.586748
	C352	C	0.147821	-0.124474	0.601413
	C353	C	0.166555	-0.124770	0.588728
	C354	C	0.175590	-0.214633	0.583588
	C355	C	0.193284	-0.215114	0.574926
	C356	C	0.202438	-0.125317	0.571039
	C357	C	0.193445	-0.035379	0.576268
	C358	C	0.175753	-0.034954	0.584961
	C359	C	0.221224	-0.125426	0.558886
	H360	H	0.199970	-0.285508	0.570982
	H361	H	0.168713	-0.284618	0.586536
	H362	H	0.203655	-0.216226	0.688129
	H363	H	0.171585	-0.215289	0.684528
	H364	H	0.120330	-0.374638	0.586149
	H365	H	0.123535	-0.125028	0.699829
	H366	H	-0.003978	-0.124219	0.711666
	H367	H	0.248841	-0.375673	0.574410
	H368	H	0.072764	-0.284495	0.598889
	H369	H	0.040683	-0.284139	0.593668
	H370	H	0.044090	-0.214633	0.712934
	H371	H	0.075253	-0.214958	0.697433
	H372	H	0.040753	0.035269	0.593333
	H373	H	0.072864	0.034957	0.598594
	H374	H	0.075147	-0.534859	0.696880
	H375	H	0.043827	-0.534491	0.712428
	H376	H	0.171211	-0.535108	0.687049
	H377	H	0.203329	-0.535991	0.690635
	H378	H	0.169101	0.035406	0.588915
	H379	H	0.200303	0.034475	0.573482
	Al380	Al	0.122081	0.000061	0.643096
	Al381	Al	0.122091	0.250139	0.642941
	Al382	Al	-0.007939	0.250554	0.547046
	Al383	Al	-0.007896	0.001098	0.547025
	O384	O	0.141908	0.041770	0.677808
	O385	O	0.121541	0.124836	0.615659
	O386	O	0.122754	0.375033	0.670183
	O387	O	0.233074	0.039591	0.697528
	O388	O	0.103734	0.041291	0.679523
	O389	O	0.015444	0.041717	0.731203
	O390	O	0.103674	0.209407	0.679204
	O391	O	0.102300	0.290826	0.608102
	O392	O	0.011173	0.291065	0.584658
	O393	O	0.141989	0.209892	0.677486
	O394	O	0.140449	0.290889	0.606151
	O395	O	0.228792	0.290474	0.554378
	O396	O	0.015511	0.210037	0.731406
	O397	O	0.102342	0.459129	0.607673
	O398	O	0.011237	0.459547	0.584521
	O399	O	0.228751	0.458549	0.554286
	O400	O	0.140574	0.459135	0.606571
	O401	O	0.233194	0.207809	0.697382
	O402	O	-0.003397	0.376478	0.740591
	O403	O	0.247772	0.124537	0.545149
	C404	C	0.196713	0.214476	0.688065
	C405	C	0.205948	0.124322	0.689551
	C406	C	0.196562	0.034631	0.688974
	C407	C	0.178426	0.035156	0.686939
	C408	C	0.169166	0.125220	0.685383
	C409	C	0.178551	0.214894	0.686035
	C410	C	0.149655	0.125643	0.680023
	C411	C	0.225449	0.123807	0.695122
	C412	C	0.096366	0.125118	0.684313
	C413	C	0.077516	0.125388	0.696199
	C414	C	0.068453	0.215280	0.700753
	C415	C	0.050770	0.215400	0.709377
	C416	C	0.041618	0.125632	0.713745
	C417	C	0.050716	0.035750	0.709382
	C418	C	0.068390	0.035541	0.700735
	C419	C	0.022860	0.125816	0.726334
	C420	C	0.094658	0.375143	0.605195
	C421	C	0.075117	0.375058	0.599071
	C422	C	0.065838	0.464997	0.597350
	C423	C	0.047688	0.464974	0.594709
	C424	C	0.038370	0.375193	0.593420
	C425	C	0.047662	0.285284	0.594939
	C426	C	0.065791	0.285267	0.597609
	C427	C	0.018851	0.375288	0.587500
	C428	C	0.147843	0.375030	0.601437
	C429	C	0.166612	0.374865	0.588762
	C430	C	0.175616	0.284832	0.583631
	C431	C	0.193286	0.284718	0.575087
	C432	C	0.202512	0.374444	0.571371
	C433	C	0.193487	0.464465	0.576277
	C434	C	0.175809	0.464609	0.584899
	C435	C	0.221359	0.374435	0.559299
	H436	H	0.200013	0.214620	0.571092
	H437	H	0.168735	0.214932	0.586269
	H438	H	0.203732	0.284561	0.688359
	H439	H	0.171604	0.285141	0.684884
	H440	H	0.120672	0.124613	0.586251
	H441	H	0.123767	0.375707	0.699425
	H442	H	-0.003826	0.377674	0.711385
	H443	H	0.248859	0.124066	0.574471
	H444	H	0.072798	0.215318	0.598613
	H445	H	0.040643	0.215258	0.594067
	H446	H	0.043972	0.285620	0.712736
	H447	H	0.075291	0.285194	0.697328
	H448	H	0.040711	0.534893	0.593618
	H449	H	0.072849	0.534908	0.598072
	H450	H	0.075145	-0.034512	0.697232
	H451	H	0.043906	-0.034457	0.712547
	H452	H	0.171367	-0.034823	0.686509
	H453	H	0.203548	-0.035857	0.690091
	H454	H	0.169064	0.534662	0.588574
	H455	H	0.200365	0.534547	0.573295
	Al456	Al	0.127884	-0.500385	0.857180
	Al457	Al	0.127847	-0.250526	0.857070
	Al458	Al	-0.002857	-0.248919	0.768416
	Al459	Al	-0.002941	-0.498592	0.768103
	O460	O	0.147651	-0.459370	0.892026
	O461	O	0.127259	-0.375371	0.829652
	O462	O	0.128559	-0.125715	0.884557
	O463	O	0.238734	-0.459956	0.915313
	O464	O	0.109452	-0.459510	0.893506
	O465	O	0.021397	-0.459380	0.945954
	O466	O	0.109521	-0.291295	0.893629
	O467	O	0.108016	-0.209414	0.822356
	O468	O	0.016936	-0.207696	0.802815
	O469	O	0.147707	-0.291121	0.891819
	O470	O	0.146237	-0.209440	0.820546
	O471	O	0.234457	-0.210430	0.768332
	O472	O	0.021292	-0.291237	0.945672
	O473	O	0.108112	-0.041191	0.822440
	O474	O	0.016955	-0.039604	0.802678
	O475	O	0.234582	-0.042249	0.768648
	O476	O	0.146360	-0.041320	0.821240
	O477	O	0.238739	-0.291486	0.915348
	O478	O	0.002266	-0.125050	0.954706
	O479	O	0.253494	-0.376055	0.759530
	C480	C	0.202307	-0.285580	0.905188
	C481	C	0.211575	-0.375594	0.906758
	C482	C	0.202249	-0.465395	0.905638
	C483	C	0.184097	-0.465176	0.902913
	C484	C	0.174828	-0.375305	0.901080
	C485	C	0.184167	-0.285460	0.902441
	C486	C	0.155339	-0.375189	0.894696
	C487	C	0.231056	-0.375689	0.912736
	C488	C	0.102117	-0.375160	0.898540
	C489	C	0.083300	-0.375028	0.910901
	C490	C	0.074318	-0.285030	0.915933
	C491	C	0.056667	-0.284967	0.924668
	C492	C	0.047547	-0.374690	0.928912
	C493	C	0.056593	-0.464626	0.924351
	C494	C	0.074243	-0.464729	0.915629
	C495	C	0.028709	-0.375206	0.940868
	C496	C	0.100350	-0.125319	0.820159
	C497	C	0.080855	-0.125129	0.814455
	C498	C	0.071643	-0.035211	0.813406
	C499	C	0.053506	-0.034358	0.811550
	C500	C	0.044129	-0.123843	0.810749
	C501	C	0.053333	-0.213882	0.811660
	C502	C	0.071454	-0.214580	0.813496
	C503	C	0.024641	-0.123621	0.805126
	C504	C	0.153716	-0.125512	0.816112
	C505	C	0.172538	-0.125422	0.804086
	C506	C	0.181577	-0.215323	0.799178
	C507	C	0.199228	-0.215460	0.790527
	C508	C	0.208416	-0.125919	0.786350
	C509	C	0.199411	-0.035850	0.791263
	C510	C	0.181746	-0.035877	0.799909
	C511	C	0.227173	-0.126169	0.773582
	H512	H	0.206036	-0.285639	0.786955
	H513	H	0.174686	-0.285117	0.802285
	H514	H	0.209275	-0.215456	0.906239
	H515	H	0.177215	-0.215546	0.901250
	H516	H	0.126252	-0.375520	0.800462
	H517	H	0.129667	-0.125769	0.913778
	H518	H	0.001373	-0.124822	0.925323
	H519	H	0.254047	-0.375691	0.788772
	H520	H	0.078366	-0.284699	0.814254
	H521	H	0.046316	-0.283841	0.810863
	H522	H	0.049862	-0.214790	0.928288
	H523	H	0.081199	-0.214941	0.913027
	H524	H	0.046583	0.035931	0.810754
	H525	H	0.078700	0.034507	0.813975
	H526	H	0.081064	-0.535015	0.912299
	H527	H	0.049795	-0.534987	0.927594
	H528	H	0.177050	-0.535146	0.902256
	H529	H	0.209203	-0.535342	0.906924
	H530	H	0.175016	0.034100	0.803486
	H531	H	0.206290	0.034054	0.788128
	Al532	Al	0.127861	-0.000465	0.857364
	Al533	Al	0.127917	0.249561	0.857174
	Al534	Al	-0.002898	0.250921	0.767826
	Al535	Al	-0.002916	0.001303	0.768007
	O536	O	0.147615	0.040748	0.892132
	O537	O	0.127317	0.124186	0.829873
	O538	O	0.128357	0.374658	0.884714
	O539	O	0.238640	0.039130	0.915610
	O540	O	0.109439	0.040175	0.893735
	O541	O	0.021276	0.041209	0.945645
	O542	O	0.109585	0.208376	0.893895
	O543	O	0.107996	0.290211	0.822836
	O544	O	0.016921	0.291870	0.802548
	O545	O	0.147758	0.208774	0.891925
	O546	O	0.146240	0.290565	0.820768
	O547	O	0.234400	0.289796	0.768474
	O548	O	0.021311	0.209340	0.945862
	O549	O	0.108033	0.458177	0.822491
	O550	O	0.016941	0.460094	0.802316
	O551	O	0.234538	0.457811	0.768971
	O552	O	0.146268	0.458868	0.820864
	O553	O	0.238851	0.207202	0.915083
	O554	O	0.002307	0.375099	0.954806
	O555	O	0.253455	0.123922	0.759547
	C556	C	0.202369	0.213851	0.905135
	C557	C	0.211639	0.123999	0.906593
	C558	C	0.202278	0.034596	0.905403
	C559	C	0.184174	0.034710	0.902599
	C560	C	0.174879	0.124475	0.900887
	C561	C	0.184255	0.214009	0.902338
	C562	C	0.155388	0.124591	0.894498
	C563	C	0.231101	0.123389	0.912727
	C564	C	0.102152	0.124435	0.898748
	C565	C	0.083361	0.124851	0.911188
	C566	C	0.074333	0.214711	0.916012
	C567	C	0.056689	0.214894	0.924514
	C568	C	0.047516	0.125163	0.928693
	C569	C	0.056567	0.035279	0.924120
	C570	C	0.074210	0.035078	0.915593
	C571	C	0.028688	0.125216	0.940880
	C572	C	0.100348	0.374278	0.820190
	C573	C	0.080846	0.374602	0.814814
	C574	C	0.071586	0.464711	0.813577
	C575	C	0.053457	0.465140	0.811557
	C576	C	0.044100	0.375613	0.810349
	C577	C	0.053345	0.285446	0.811662
	C578	C	0.071484	0.284837	0.813729
	C579	C	0.024585	0.375956	0.804925
	C580	C	0.153645	0.374692	0.815802
	C581	C	0.172456	0.374375	0.803793
	C582	C	0.181484	0.284560	0.798871
	C583	C	0.199202	0.284260	0.790301
	C584	C	0.208326	0.374027	0.786074
	C585	C	0.199277	0.463884	0.790931
	C586	C	0.181553	0.464148	0.799469
	C587	C	0.227099	0.373839	0.773798
	H588	H	0.205960	0.214146	0.786898
	H589	H	0.174646	0.214720	0.801854
	H590	H	0.209437	0.283434	0.906315
	H591	H	0.177295	0.283963	0.901219
	H592	H	0.126477	0.123949	0.800631
	H593	H	0.128807	0.374657	0.914009
	H594	H	0.001553	0.375594	0.925542
	H595	H	0.253995	0.123663	0.788866
	H596	H	0.078427	0.214866	0.814370
	H597	H	0.046300	0.215672	0.810905
	H598	H	0.049987	0.285053	0.928195
	H599	H	0.081276	0.284417	0.913088
	H600	H	0.046489	0.535188	0.810740
	H601	H	0.078605	0.534470	0.814045
	H602	H	0.081004	-0.035112	0.912439
	H603	H	0.049704	-0.034399	0.927485
	H604	H	0.177128	-0.034930	0.901777
	H605	H	0.209221	-0.035380	0.906632
	H606	H	0.174808	0.534293	0.802910
	H607	H	0.206110	0.533874	0.787970
	Al608	Al	0.367139	-0.501508	0.172142
	Al609	Al	0.367106	-0.250923	0.172331
	Al610	Al	0.257855	-0.250633	-0.047286
	Al611	Al	0.257849	-0.501779	-0.047486
	O612	O	0.386239	-0.459781	0.209691
	O613	O	0.367552	-0.376304	0.144865
	O614	O	0.367167	-0.126031	0.199268
	O615	O	0.477249	-0.460354	0.233037
	O616	O	0.348197	-0.460283	0.205665
	O617	O	0.261108	-0.459741	0.263059
	O618	O	0.348212	-0.291797	0.205946
	O619	O	0.349485	-0.210234	0.131135
	O620	O	0.275508	-0.210009	-0.006105
	O621	O	0.386187	-0.291455	0.209905
	O622	O	0.386153	-0.210174	0.137876
	O623	O	0.473197	-0.210602	0.080728
	O624	O	0.261109	-0.291421	0.262774
	O625	O	0.349446	-0.042190	0.131342
	O626	O	0.275752	-0.041813	-0.006492
	O627	O	0.473140	-0.042274	0.080532
	O628	O	0.386072	-0.041642	0.137489
	O629	O	0.477336	-0.292082	0.232852
	O630	O	0.242520	-0.125514	0.270255
	O631	O	0.492252	-0.375978	0.074099
	C632	C	0.440817	-0.285954	0.222343
	C633	C	0.450108	-0.375731	0.223888
	C634	C	0.440794	-0.465336	0.222675
	C635	C	0.422678	-0.465271	0.219995
	C636	C	0.413378	-0.375622	0.218413
	C637	C	0.422694	-0.285847	0.219680
	C638	C	0.393883	-0.375639	0.212422
	C639	C	0.469624	-0.376100	0.230253
	C640	C	0.340891	-0.376157	0.210690
	C641	C	0.322280	-0.376135	0.223309
	C642	C	0.313340	-0.286261	0.228522
	C643	C	0.295857	-0.285851	0.238721
	C644	C	0.286928	-0.375569	0.244006
	C645	C	0.295841	-0.465339	0.238454
	C646	C	0.313321	-0.465674	0.228153
	C647	C	0.268362	-0.375629	0.257569
	C648	C	0.343241	-0.126482	0.119921
	C649	C	0.327442	-0.126372	0.090191
	C650	C	0.319970	-0.037433	0.076032
	C651	C	0.305306	-0.037260	0.048712
	C652	C	0.297686	-0.126258	0.034859
	C653	C	0.305234	-0.215073	0.048789
	C654	C	0.319905	-0.215314	0.076091
	C655	C	0.281851	-0.126149	0.005123
	C656	C	0.393350	-0.125963	0.132464
	C657	C	0.411906	-0.126147	0.118873
	C658	C	0.420772	-0.215833	0.113382
	C659	C	0.438236	-0.215702	0.102987
	C660	C	0.447218	-0.126177	0.098024
	C661	C	0.438263	-0.036551	0.102887
	C662	C	0.420834	-0.036713	0.113288
	C663	C	0.465826	-0.126378	0.085463
	H664	H	0.444977	-0.285237	0.098791
	H665	H	0.413984	-0.285367	0.117633
	H666	H	0.447866	-0.216240	0.223160
	H667	H	0.415718	-0.215981	0.218583
	H668	H	0.368250	-0.375827	0.115729
	H669	H	0.367767	-0.126053	0.228405
	H670	H	0.243117	-0.125670	0.241138
	H671	H	0.493227	-0.375682	0.103498
	H672	H	0.325583	-0.284338	0.086760
	H673	H	0.299586	-0.283959	0.038044
	H674	H	0.289109	-0.216065	0.242893
	H675	H	0.320127	-0.216719	0.224610
	H676	H	0.299670	0.031623	0.037879
	H677	H	0.325680	0.031434	0.086679
	H678	H	0.320085	-0.535231	0.224055
	H679	H	0.289092	-0.534841	0.242368
	H680	H	0.415654	-0.535242	0.219050
	H681	H	0.447766	-0.535314	0.223808
	H682	H	0.414101	0.033126	0.117446
	H683	H	0.445028	0.032984	0.098478
	Al684	Al	0.367107	-0.001312	0.172195
	Al685	Al	0.367128	0.249082	0.171726
	Al686	Al	0.257900	0.249013	-0.047342
	Al687	Al	0.257933	-0.001971	-0.047167
	O688	O	0.386249	0.040130	0.209259
	O689	O	0.367507	0.123533	0.144852
	O690	O	0.367213	0.373723	0.198960
	O691	O	0.477252	0.039775	0.233302
	O692	O	0.348336	0.039737	0.206122
	O693	O	0.261132	0.040086	0.262827
	O694	O	0.348207	0.208061	0.205490
	O695	O	0.349374	0.289735	0.131077
	O696	O	0.275517	0.289447	-0.006152
	O697	O	0.386296	0.208464	0.209230
	O698	O	0.385948	0.289757	0.136685
	O699	O	0.473250	0.289633	0.080954
	O700	O	0.261130	0.208492	0.262761
	O701	O	0.349312	0.457692	0.131205
	O702	O	0.275512	0.457465	-0.006305
	O703	O	0.473244	0.458182	0.081087
	O704	O	0.386098	0.458375	0.137515
	O705	O	0.477273	0.207959	0.233743
	O706	O	0.242585	0.374705	0.270365
	O707	O	0.492043	0.124180	0.074349
	C708	C	0.440851	0.213913	0.222729
	C709	C	0.450143	0.124112	0.224423
	C710	C	0.440831	0.034151	0.222912
	C711	C	0.422703	0.034250	0.219921
	C712	C	0.413430	0.124099	0.218280
	C713	C	0.422743	0.213956	0.219730
	C714	C	0.393935	0.124316	0.211983
	C715	C	0.469607	0.123912	0.230884
	C716	C	0.340973	0.124027	0.210758
	C717	C	0.322374	0.124078	0.223530
	C718	C	0.313467	0.213676	0.228887
	C719	C	0.295987	0.213828	0.239057
	C720	C	0.287007	0.124306	0.244206
	C721	C	0.295902	0.034483	0.238563
	C722	C	0.313386	0.034552	0.228386
	C723	C	0.268384	0.124411	0.257425
	C724	C	0.343124	0.373645	0.119746
	C725	C	0.327324	0.373679	0.090136
	C726	C	0.319764	0.462706	0.076330
	C727	C	0.305085	0.462827	0.048919
	C728	C	0.297568	0.373743	0.034866
	C729	C	0.305120	0.284637	0.048800
	C730	C	0.319807	0.284703	0.076147
	C731	C	0.281777	0.373494	0.005135
	C732	C	0.393305	0.374066	0.131785
	C733	C	0.411896	0.373935	0.118502
	C734	C	0.420801	0.284182	0.112954
	C735	C	0.438310	0.284075	0.102975
	C736	C	0.447293	0.373854	0.098355
	C737	C	0.438377	0.463757	0.103698
	C738	C	0.420863	0.463733	0.113744
	C739	C	0.465942	0.373850	0.085886
	H740	H	0.445021	0.214633	0.098823
	H741	H	0.414004	0.214550	0.116634
	H742	H	0.447837	0.283857	0.223660
	H743	H	0.415783	0.283899	0.218351
	H744	H	0.368343	0.123513	0.115482
	H745	H	0.367555	0.373301	0.228163
	H746	H	0.243289	0.374695	0.240919
	H747	H	0.491877	0.123616	0.103370
	H748	H	0.325524	0.215641	0.086631
	H749	H	0.299441	0.215565	0.038126
	H750	H	0.289275	0.283571	0.243217
	H751	H	0.320231	0.283385	0.224925
	H752	H	0.299369	0.531635	0.038459
	H753	H	0.325433	0.531806	0.086876
	H754	H	0.320143	-0.035090	0.224001
	H755	H	0.289093	-0.034986	0.242303
	H756	H	0.415663	-0.035719	0.218774
	H757	H	0.447845	-0.035544	0.224026
	H758	H	0.414129	0.533298	0.118007
	H759	H	0.445214	0.533160	0.100138
	Al760	Al	0.372081	-0.500952	0.393014
	Al761	Al	0.372039	-0.250848	0.393072
	Al762	Al	0.242189	-0.250773	0.297485
	Al763	Al	0.242155	-0.500100	0.297761
	O764	O	0.391979	-0.460395	0.427476
	O765	O	0.371588	-0.375861	0.365641
	O766	O	0.372718	-0.125786	0.420445
	O767	O	0.483042	-0.459599	0.447571
	O768	O	0.353714	-0.460067	0.429415
	O769	O	0.265508	-0.459718	0.481459
	O770	O	0.353744	-0.291788	0.429495
	O771	O	0.352359	-0.209756	0.358177
	O772	O	0.261268	-0.209414	0.334995
	O773	O	0.391852	-0.292197	0.427642
	O774	O	0.390489	-0.209796	0.356683
	O775	O	0.478555	-0.210553	0.303953
	O776	O	0.265474	-0.291675	0.481249
	O777	O	0.352359	-0.041371	0.358204
	O778	O	0.261376	-0.040933	0.334656
	O779	O	0.478797	-0.042528	0.304516
	O780	O	0.390537	-0.041457	0.356739
	O781	O	0.482968	-0.291060	0.448189
	O782	O	0.246590	-0.125384	0.490357
	O783	O	0.497574	-0.375712	0.295158
	C784	C	0.446557	-0.285856	0.438493
	C785	C	0.455848	-0.375671	0.439620
	C786	C	0.446579	-0.465668	0.438467
	C787	C	0.428431	-0.465649	0.436490
	C788	C	0.419139	-0.375721	0.435301
	C789	C	0.428418	-0.285813	0.436416
	C790	C	0.399591	-0.376070	0.429957
	C791	C	0.475350	-0.375326	0.445226
	C792	C	0.346340	-0.375839	0.434264
	C793	C	0.327519	-0.375947	0.446433
	C794	C	0.318450	-0.285990	0.451174
	C795	C	0.300783	-0.285613	0.459699
	C796	C	0.291685	-0.375384	0.464001
	C797	C	0.300744	-0.465344	0.459403
	C798	C	0.318398	-0.465618	0.450782
	C799	C	0.272868	-0.375762	0.476331
	C800	C	0.344681	-0.125632	0.355508
	C801	C	0.325202	-0.125464	0.349108
	C802	C	0.315901	-0.035736	0.347464
	C803	C	0.297764	-0.035982	0.344818
	C804	C	0.288450	-0.125827	0.343670
	C805	C	0.297759	-0.215537	0.345424
	C806	C	0.315899	-0.215359	0.348069
	C807	C	0.269003	-0.125348	0.337401
	C808	C	0.397864	-0.125728	0.351526
	C809	C	0.416571	-0.125728	0.338847
	C810	C	0.425626	-0.215613	0.334205
	C811	C	0.443308	-0.215783	0.325448
	C812	C	0.452416	-0.126107	0.320941
	C813	C	0.443374	-0.036170	0.325695
	C814	C	0.425709	-0.035960	0.334523
	C815	C	0.471274	-0.126271	0.308964
	H816	H	0.450051	-0.286024	0.321888
	H817	H	0.418776	-0.285640	0.337485
	H818	H	0.453531	-0.215871	0.439280
	H819	H	0.421413	-0.215791	0.435665
	H820	H	0.371271	-0.376281	0.336371
	H821	H	0.373937	-0.125671	0.449752
	H822	H	0.245905	-0.125740	0.461065
	H823	H	0.498298	-0.375675	0.324316
	H824	H	0.322918	-0.285434	0.349507
	H825	H	0.290777	-0.285447	0.344659
	H826	H	0.294023	-0.215276	0.463330
	H827	H	0.325309	-0.216187	0.448141
	H828	H	0.290796	0.033825	0.343715
	H829	H	0.322900	0.034124	0.348440
	H830	H	0.325164	-0.535756	0.447422
	H831	H	0.293903	-0.535312	0.462804
	H832	H	0.421452	-0.535650	0.435821
	H833	H	0.453560	-0.535848	0.439155
	H834	H	0.418993	0.034399	0.337976
	H835	H	0.450250	0.033703	0.322443
	Al836	Al	0.372163	-0.000423	0.393380
	Al837	Al	0.372102	0.249256	0.393163
	Al838	Al	0.242182	0.248878	0.297398
	Al839	Al	0.242187	-0.000133	0.297392
	O840	O	0.391957	0.040019	0.428113
	O841	O	0.371524	0.124267	0.365887
	O842	O	0.372710	0.374332	0.420464
	O843	O	0.483189	0.040449	0.447110
	O844	O	0.353724	0.040126	0.429685
	O845	O	0.265487	0.040471	0.481454
	O846	O	0.353772	0.208327	0.430025
	O847	O	0.352275	0.289841	0.358463
	O848	O	0.261237	0.290371	0.334802
	O849	O	0.392019	0.208538	0.427906
	O850	O	0.390470	0.290179	0.356519
	O851	O	0.478704	0.290254	0.304480
	O852	O	0.265442	0.208644	0.480939
	O853	O	0.352335	0.457931	0.358245
	O854	O	0.261245	0.458731	0.335175
	O855	O	0.478783	0.458327	0.304492
	O856	O	0.390526	0.458313	0.356471
	O857	O	0.483215	0.208612	0.447154
	O858	O	0.246529	0.374158	0.490244
	O859	O	0.497651	0.123793	0.295801
	C860	C	0.446651	0.214238	0.438347
	C861	C	0.455976	0.124271	0.439307
	C862	C	0.446647	0.034378	0.438431
	C863	C	0.428528	0.034457	0.436667
	C864	C	0.419212	0.124340	0.435649
	C865	C	0.428517	0.214412	0.436538
	C866	C	0.399658	0.124328	0.430302
	C867	C	0.475505	0.124483	0.444739
	C868	C	0.346331	0.124292	0.434576
	C869	C	0.327494	0.124063	0.446396
	C870	C	0.318391	0.213845	0.450786
	C871	C	0.300717	0.213767	0.459251
	C872	C	0.291602	0.124042	0.463727
	C873	C	0.300689	0.034048	0.459127
	C874	C	0.318375	0.034064	0.450658
	C875	C	0.272798	0.124473	0.476239
	C876	C	0.344622	0.373827	0.355641
	C877	C	0.325107	0.374378	0.349601
	C878	C	0.315845	0.464240	0.347800
	C879	C	0.297736	0.464338	0.345069
	C880	C	0.288400	0.374610	0.343797
	C881	C	0.297670	0.284861	0.345033
	C882	C	0.315779	0.284745	0.347836
	C883	C	0.268905	0.374479	0.337694
	C884	C	0.397883	0.374192	0.351458
	C885	C	0.416621	0.374274	0.338857
	C886	C	0.425735	0.284604	0.334311
	C887	C	0.443423	0.284674	0.325674
	C888	C	0.452550	0.374586	0.321385
	C889	C	0.443436	0.464284	0.325913
	C890	C	0.425743	0.464017	0.334592
	C891	C	0.471339	0.374340	0.309195
	H892	H	0.450240	0.214684	0.322269
	H893	H	0.418964	0.214614	0.337618
	H894	H	0.453615	0.284046	0.438946
	H895	H	0.421521	0.284334	0.435983
	H896	H	0.370467	0.124138	0.336673
	H897	H	0.373646	0.374547	0.449806
	H898	H	0.245830	0.374339	0.461088
	H899	H	0.498491	0.124001	0.324861
	H900	H	0.322721	0.214720	0.348751
	H901	H	0.290626	0.215060	0.344176
	H902	H	0.293888	0.283783	0.462495
	H903	H	0.325212	0.283888	0.447483
	H904	H	0.290782	0.534186	0.344111
	H905	H	0.322864	0.534067	0.348704
	H906	H	0.325190	-0.035885	0.447269
	H907	H	0.293835	-0.035947	0.462318
	H908	H	0.421545	-0.035718	0.436076
	H909	H	0.453666	-0.035490	0.439234
	H910	H	0.418946	0.534039	0.338194
	H911	H	0.450243	0.534427	0.322820
	Al912	Al	0.377893	-0.500794	0.607455
	Al913	Al	0.377895	-0.250872	0.606895
	Al914	Al	0.247027	-0.250790	0.517874
	Al915	Al	0.247129	-0.500621	0.517835
	O916	O	0.397677	-0.460094	0.642148
	O917	O	0.377208	-0.376136	0.579971
	O918	O	0.378433	-0.125963	0.634440
	O919	O	0.488728	-0.459360	0.665472
	O920	O	0.359488	-0.459984	0.643813
	O921	O	0.271214	-0.460345	0.695629
	O922	O	0.359372	-0.291819	0.643333
	O923	O	0.358030	-0.210108	0.572462
	O924	O	0.266872	-0.209392	0.552570
	O925	O	0.397648	-0.291800	0.642209
	O926	O	0.396341	-0.210526	0.570622
	O927	O	0.484631	-0.209401	0.518903
	O928	O	0.271267	-0.291986	0.695662
	O929	O	0.358069	-0.041897	0.572429
	O930	O	0.266850	-0.041209	0.552715
	O931	O	0.484541	-0.041134	0.518698
	O932	O	0.396278	-0.042222	0.570639
	O933	O	0.488799	-0.291018	0.665433
	O934	O	0.252304	-0.126133	0.704655
	O935	O	0.503480	-0.375415	0.509431
	C936	C	0.452179	-0.286024	0.655714
	C937	C	0.461594	-0.375397	0.656691
	C938	C	0.452308	-0.465195	0.655137
	C939	C	0.434190	-0.465314	0.652500
	C940	C	0.424802	-0.375793	0.651341
	C941	C	0.434051	-0.285994	0.653097
	C942	C	0.405359	-0.375809	0.644797
	C943	C	0.481062	-0.375151	0.662918
	C944	C	0.352075	-0.376001	0.648690
	C945	C	0.333253	-0.376295	0.660823
	C946	C	0.324217	-0.286233	0.665560
	C947	C	0.306554	-0.286114	0.674175
	C948	C	0.297428	-0.376017	0.678724
	C949	C	0.306487	-0.465941	0.674316
	C950	C	0.324153	-0.466212	0.665601
	C951	C	0.278638	-0.376115	0.690624
	C952	C	0.350382	-0.125975	0.570096
	C953	C	0.330889	-0.125808	0.564442
	C954	C	0.321590	-0.035807	0.563383
	C955	C	0.303468	-0.035632	0.561281
	C956	C	0.294104	-0.125411	0.560369
	C957	C	0.303407	-0.215279	0.561572
	C958	C	0.321529	-0.215505	0.563660
	C959	C	0.274567	-0.125198	0.555082
	C960	C	0.403694	-0.126303	0.565795
	C961	C	0.422538	-0.126100	0.553956
	C962	C	0.431698	-0.215833	0.549544
	C963	C	0.449388	-0.215468	0.540968
	C964	C	0.458446	-0.125346	0.536391
	C965	C	0.449283	-0.035657	0.540656
	C966	C	0.431592	-0.036036	0.549345
	C967	C	0.477235	-0.125389	0.523818
	H968	H	0.456275	-0.285354	0.537907
	H969	H	0.424948	-0.286089	0.553069
	H970	H	0.459191	-0.216014	0.657107
	H971	H	0.427016	-0.216133	0.652374
	H972	H	0.376115	-0.376831	0.550733
	H973	H	0.379247	-0.126255	0.663708
	H974	H	0.251264	-0.125465	0.675437
	H975	H	0.503836	-0.374623	0.538634
	H976	H	0.328530	-0.285551	0.564486
	H977	H	0.296389	-0.285286	0.560883
	H978	H	0.299733	-0.216126	0.677225
	H979	H	0.331080	-0.216116	0.662332
	H980	H	0.296473	0.034531	0.560312
	H981	H	0.328589	0.034137	0.564109
	H982	H	0.330963	-0.536298	0.662292
	H983	H	0.299665	-0.535932	0.677469
	H984	H	0.427265	-0.534919	0.651184
	H985	H	0.459359	-0.534998	0.655893
	H986	H	0.424757	0.033930	0.552587
	H987	H	0.456087	0.034517	0.537368
	Al988	Al	0.377879	-0.001015	0.606946
	Al989	Al	0.377908	0.249201	0.607226
	Al990	Al	0.247136	0.249468	0.517700
	Al991	Al	0.247029	-0.000523	0.517878
	O992	O	0.397761	0.039615	0.641493
	O993	O	0.377207	0.124269	0.579667
	O994	O	0.378523	0.374098	0.634609
	O995	O	0.488677	0.039881	0.666147
	O996	O	0.359426	0.039835	0.643489
	O997	O	0.271304	0.040182	0.695730
	O998	O	0.359573	0.208274	0.643831
	O999	O	0.358104	0.289882	0.572606
	O1000	O	0.267002	0.290232	0.552205
	O1001	O	0.397659	0.207963	0.642114
	O1002	O	0.396356	0.290053	0.570961
	O1003	O	0.484537	0.290540	0.518551
	O1004	O	0.271379	0.208245	0.696163
	O1005	O	0.358071	0.458320	0.572474
	O1006	O	0.266966	0.458632	0.552336
	O1007	O	0.484405	0.458900	0.518420
	O1008	O	0.396253	0.458342	0.570882
	O1009	O	0.488697	0.208430	0.665787
	O1010	O	0.252375	0.373870	0.704849
	O1011	O	0.503623	0.124410	0.509607
	C1012	C	0.452259	0.214056	0.655621
	C1013	C	0.461553	0.124304	0.656986
	C1014	C	0.452284	0.034433	0.655429
	C1015	C	0.434161	0.034312	0.652572
	C1016	C	0.424833	0.123933	0.651224
	C1017	C	0.434137	0.213877	0.652797
	C1018	C	0.405377	0.123917	0.644587
	C1019	C	0.481016	0.124185	0.663380
	C1020	C	0.352172	0.124181	0.648688
	C1021	C	0.333387	0.124351	0.661254
	C1022	C	0.324315	0.214116	0.665913
	C1023	C	0.306658	0.214282	0.674664
	C1024	C	0.297565	0.124455	0.679055
	C1025	C	0.306658	0.034693	0.674569
	C1026	C	0.324317	0.034613	0.665881
	C1027	C	0.278740	0.124233	0.691162
	C1028	C	0.350445	0.374159	0.570006
	C1029	C	0.330920	0.374108	0.564157
	C1030	C	0.321611	0.464161	0.563211
	C1031	C	0.303464	0.464277	0.561329
	C1032	C	0.294181	0.374371	0.560344
	C1033	C	0.303490	0.284457	0.561405
	C1034	C	0.321632	0.284305	0.563262
	C1035	C	0.274662	0.374415	0.554674
	C1036	C	0.403675	0.374364	0.566046
	C1037	C	0.422543	0.374487	0.554008
	C1038	C	0.431623	0.284429	0.549397
	C1039	C	0.449294	0.284605	0.540679
	C1040	C	0.458359	0.374592	0.536010
	C1041	C	0.449271	0.464585	0.540487
	C1042	C	0.431622	0.464445	0.549245
	C1043	C	0.477160	0.374570	0.523597
	H1044	H	0.456166	0.214509	0.537470
	H1045	H	0.424831	0.214336	0.552974
	H1046	H	0.459270	0.284131	0.656740
	H1047	H	0.427123	0.283732	0.651802
	H1048	H	0.376024	0.124111	0.550627
	H1049	H	0.379251	0.374268	0.663820
	H1050	H	0.251360	0.373646	0.675719
	H1051	H	0.504547	0.124294	0.538911
	H1052	H	0.328578	0.214070	0.563948
	H1053	H	0.296478	0.214435	0.560624
	H1054	H	0.299890	0.284351	0.678176
	H1055	H	0.331143	0.284063	0.662552
	H1056	H	0.296518	0.534403	0.560513
	H1057	H	0.328610	0.534150	0.563875
	H1058	H	0.331115	-0.035405	0.662575
	H1059	H	0.299873	-0.035366	0.678083
	H1060	H	0.427162	-0.035655	0.651195
	H1061	H	0.459281	-0.035442	0.656351
	H1062	H	0.424761	0.534709	0.552559
	H1063	H	0.456083	0.534646	0.537217
	Al1064	Al	0.382844	-0.500779	0.827629
	Al1065	Al	0.382871	-0.251560	0.827850
	Al1066	Al	0.252878	-0.251171	0.732015
	Al1067	Al	0.252912	-0.501249	0.732411
	O1068	O	0.400559	-0.460560	0.868472
	O1069	O	0.382968	-0.376071	0.800531
	O1070	O	0.382521	-0.126394	0.854869
	O1071	O	0.474525	-0.460715	1.005741
	O1072	O	0.363920	-0.460322	0.862261
	O1073	O	0.276679	-0.460284	0.918651
	O1074	O	0.363990	-0.291836	0.862650
	O1075	O	0.363672	-0.210755	0.790772
	O1076	O	0.272646	-0.210427	0.767085
	O1077	O	0.400626	-0.292517	0.868695
	O1078	O	0.401775	-0.210554	0.793939
	O1079	O	0.488944	-0.209859	0.737535
	O1080	O	0.276829	-0.291733	0.919096
	O1081	O	0.363739	-0.042519	0.790211
	O1082	O	0.272769	-0.042292	0.766676
	O1083	O	0.489056	-0.041502	0.738120
	O1084	O	0.401705	-0.042373	0.793526
	O1085	O	0.474476	-0.292754	1.005927
	O1086	O	0.257795	-0.126350	0.925511
	O1087	O	0.507483	-0.375133	0.730293
	C1088	C	0.444784	-0.288118	0.951301
	C1089	C	0.452445	-0.377035	0.964834
	C1090	C	0.444953	-0.465965	0.950733
	C1091	C	0.430269	-0.465896	0.923334
	C1092	C	0.422667	-0.376937	0.909576
	C1093	C	0.430115	-0.288126	0.923954
	C1094	C	0.406860	-0.376687	0.879908
	C1095	C	0.468244	-0.376760	0.994478
	C1096	C	0.356654	-0.376226	0.867614
	C1097	C	0.338082	-0.376601	0.881154
	C1098	C	0.329146	-0.287022	0.886604
	C1099	C	0.311680	-0.286986	0.896767
	C1100	C	0.302686	-0.376543	0.901483
	C1101	C	0.311618	-0.466238	0.896317
	C1102	C	0.329104	-0.466270	0.886133
	C1103	C	0.284061	-0.376188	0.914058
	C1104	C	0.356022	-0.126637	0.787727
	C1105	C	0.336571	-0.126496	0.781456
	C1106	C	0.327281	-0.036727	0.780179
	C1107	C	0.309172	-0.036877	0.777531
	C1108	C	0.299848	-0.126527	0.776046
	C1109	C	0.309144	-0.216348	0.777469
	C1110	C	0.327257	-0.216272	0.780111
	C1111	C	0.280395	-0.126523	0.769605
	C1112	C	0.409071	-0.126361	0.788856
	C1113	C	0.427758	-0.126128	0.776557
	C1114	C	0.436719	-0.215844	0.771735
	C1115	C	0.454201	-0.216117	0.761577
	C1116	C	0.463101	-0.126335	0.756138
	C1117	C	0.454138	-0.036884	0.761249
	C1118	C	0.436673	-0.036596	0.771281
	C1119	C	0.481723	-0.125757	0.743028
	H1120	H	0.460981	-0.285782	0.757907
	H1121	H	0.429912	-0.284970	0.775883
	H1122	H	0.450356	-0.219028	0.962325
	H1123	H	0.424357	-0.219029	0.913805
	H1124	H	0.382932	-0.375812	0.771314
	H1125	H	0.381874	-0.126217	0.884122
	H1126	H	0.257126	-0.126542	0.896373
	H1127	H	0.506839	-0.374602	0.759568
	H1128	H	0.334281	-0.286327	0.781316
	H1129	H	0.302181	-0.286271	0.776652
	H1130	H	0.304931	-0.217353	0.900989
	H1131	H	0.335943	-0.217442	0.882637
	H1132	H	0.302179	0.032895	0.776817
	H1133	H	0.334280	0.033344	0.781551
	H1134	H	0.335858	-0.535913	0.881895
	H1135	H	0.304836	-0.535753	0.900205
	H1136	H	0.424642	-0.534841	0.912498
	H1137	H	0.450629	-0.534837	0.961246
	H1138	H	0.429897	0.032896	0.774961
	H1139	H	0.460882	0.032700	0.757177
	Al1140	Al	0.382879	-0.001056	0.827529
	Al1141	Al	0.382864	0.248293	0.827558
	Al1142	Al	0.252909	0.249173	0.732224
	Al1143	Al	0.253005	-0.001339	0.732003
	O1144	O	0.400539	0.039749	0.868615
	O1145	O	0.382809	0.123585	0.800554
	O1146	O	0.382450	0.373523	0.854854
	O1147	O	0.474422	0.039316	1.005897
	O1148	O	0.363892	0.038703	0.862270
	O1149	O	0.276759	0.039381	0.919144
	O1150	O	0.363873	0.207180	0.862111
	O1151	O	0.363786	0.289601	0.790047
	O1152	O	0.272741	0.290039	0.766997
	O1153	O	0.400615	0.207931	0.868475
	O1154	O	0.401657	0.289600	0.793555
	O1155	O	0.488953	0.290105	0.737533
	O1156	O	0.276818	0.207791	0.919097
	O1157	O	0.363713	0.458108	0.790419
	O1158	O	0.272759	0.458108	0.766968
	O1159	O	0.488835	0.458630	0.737597
	O1160	O	0.401775	0.458035	0.794243
	O1161	O	0.474390	0.207346	1.006378
	O1162	O	0.257785	0.373703	0.925450
	O1163	O	0.507500	0.124808	0.730362
	C1164	C	0.444870	0.212671	0.951097
	C1165	C	0.452357	0.123651	0.965164
	C1166	C	0.444776	0.034688	0.951218
	C1167	C	0.430127	0.034631	0.923854
	C1168	C	0.422588	0.123654	0.909883
	C1169	C	0.430193	0.212570	0.923760
	C1170	C	0.406847	0.123749	0.880026
	C1171	C	0.468170	0.123349	0.994674
	C1172	C	0.356642	0.122872	0.867412
	C1173	C	0.338051	0.123062	0.880825
	C1174	C	0.329138	0.212800	0.886103
	C1175	C	0.311690	0.212846	0.896455
	C1176	C	0.302734	0.123354	0.901502
	C1177	C	0.311681	0.033555	0.896601
	C1178	C	0.329137	0.033474	0.886305
	C1179	C	0.284133	0.123535	0.914305
	C1180	C	0.356103	0.373761	0.787488
	C1181	C	0.336597	0.373439	0.781717
	C1182	C	0.327325	0.463334	0.780134
	C1183	C	0.309211	0.463448	0.777476
	C1184	C	0.299909	0.373677	0.776106
	C1185	C	0.309178	0.283676	0.777600
	C1186	C	0.327303	0.283576	0.780259
	C1187	C	0.280406	0.374034	0.769741
	C1188	C	0.409036	0.373916	0.789207
	C1189	C	0.427737	0.373644	0.777011
	C1190	C	0.436699	0.283685	0.772216
	C1191	C	0.454184	0.283898	0.762110
	C1192	C	0.463090	0.373808	0.756502
	C1193	C	0.454134	0.463729	0.761586
	C1194	C	0.436650	0.463558	0.771745
	C1195	C	0.481648	0.374142	0.742994
	H1196	H	0.460968	0.214205	0.758362
	H1197	H	0.429954	0.214043	0.776596
	H1198	H	0.450676	0.281398	0.961421
	H1199	H	0.424579	0.281353	0.912937
	H1200	H	0.382207	0.123901	0.771448
	H1201	H	0.381527	0.373307	0.884159
	H1202	H	0.256916	0.374022	0.896284
	H1203	H	0.506679	0.125224	0.759663
	H1204	H	0.334227	0.213590	0.781237
	H1205	H	0.302092	0.213762	0.776695
	H1206	H	0.304923	0.282278	0.900472
	H1207	H	0.335901	0.282343	0.882023
	H1208	H	0.302259	0.533286	0.776430
	H1209	H	0.334338	0.533129	0.781022
	H1210	H	0.335906	-0.036157	0.882336
	H1211	H	0.304927	-0.035953	0.900864
	H1212	H	0.424456	-0.034576	0.913038
	H1213	H	0.450479	-0.034517	0.961714
	H1214	H	0.429841	0.533114	0.775562
	H1215	H	0.460913	0.533414	0.757218
	Al1216	Al	0.622043	-0.499940	0.142856
	Al1217	Al	0.622087	-0.250162	0.142624
	Al1218	Al	0.492075	-0.251261	0.046908
	Al1219	Al	0.492120	-0.500413	0.046999
	O1220	O	0.642033	-0.458992	0.177474
	O1221	O	0.621460	-0.375060	0.115183
	O1222	O	0.622712	-0.125185	0.170035
	O1223	O	0.733169	-0.457316	0.197215
	O1224	O	0.603674	-0.458752	0.179112
	O1225	O	0.515603	-0.459698	0.231698
	O1226	O	0.603751	-0.290470	0.179128
	O1227	O	0.602192	-0.209100	0.108019
	O1228	O	0.511292	-0.210464	0.084260
	O1229	O	0.641994	-0.290690	0.177397
	O1230	O	0.640397	-0.208711	0.106071
	O1231	O	0.728754	-0.208359	0.054337
	O1232	O	0.515540	-0.291381	0.231666
	O1233	O	0.602243	-0.040863	0.108324
	O1234	O	0.511108	-0.041942	0.084437
	O1235	O	0.728624	-0.040150	0.053970
	O1236	O	0.640356	-0.040503	0.106147
	O1237	O	0.733094	-0.289125	0.197566
	O1238	O	0.496482	-0.125619	0.240416
	O1239	O	0.747799	-0.374040	0.045215
	C1240	C	0.696566	-0.283766	0.188535
	C1241	C	0.705946	-0.373440	0.189234
	C1242	C	0.696667	-0.463424	0.188047
	C1243	C	0.678536	-0.463949	0.185974
	C1244	C	0.669194	-0.374279	0.185129
	C1245	C	0.678433	-0.284241	0.186453
	C1246	C	0.649678	-0.374912	0.179817
	C1247	C	0.725453	-0.373267	0.194955
	C1248	C	0.596352	-0.374626	0.184063
	C1249	C	0.577601	-0.374215	0.196634
	C1250	C	0.568481	-0.284392	0.201074
	C1251	C	0.550803	-0.284665	0.209766
	C1252	C	0.541739	-0.374903	0.214467
	C1253	C	0.550836	-0.464679	0.209703
	C1254	C	0.568514	-0.464329	0.200934
	C1255	C	0.522957	-0.375398	0.226692
	C1256	C	0.594557	-0.124785	0.105378
	C1257	C	0.575099	-0.125102	0.098850
	C1258	C	0.565766	-0.035277	0.097222
	C1259	C	0.547640	-0.035378	0.094426
	C1260	C	0.538356	-0.125285	0.093163
	C1261	C	0.547679	-0.215080	0.094407
	C1262	C	0.565804	-0.214972	0.097243
	C1263	C	0.518866	-0.125857	0.087003
	C1264	C	0.647754	-0.124294	0.100928
	C1265	C	0.666542	-0.124256	0.088568
	C1266	C	0.675650	-0.214066	0.084214
	C1267	C	0.693363	-0.214116	0.075693
	C1268	C	0.702460	-0.124420	0.070935
	C1269	C	0.693356	-0.034544	0.075392
	C1270	C	0.675669	-0.034482	0.083955
	C1271	C	0.721278	-0.124461	0.059043
	H1272	H	0.700195	-0.284411	0.072763
	H1273	H	0.668824	-0.284151	0.087674
	H1274	H	0.703477	-0.213639	0.189255
	H1275	H	0.671326	-0.214346	0.185570
	H1276	H	0.620574	-0.375781	0.086106
	H1277	H	0.623500	-0.125176	0.199409
	H1278	H	0.495701	-0.125815	0.211045
	H1279	H	0.748695	-0.373837	0.074479
	H1280	H	0.572803	-0.284872	0.098266
	H1281	H	0.540741	-0.284997	0.093203
	H1282	H	0.543991	-0.214747	0.213077
	H1283	H	0.575285	-0.214395	0.197771
	H1284	H	0.540637	0.034230	0.093253
	H1285	H	0.572745	0.034709	0.098301
	H1286	H	0.575355	-0.534358	0.197594
	H1287	H	0.544047	-0.534794	0.213057
	H1288	H	0.671611	-0.534003	0.184852
	H1289	H	0.703720	-0.533293	0.188441
	H1290	H	0.668847	0.035487	0.087159
	H1291	H	0.700191	0.035640	0.072204
	Al1292	Al	0.621978	0.000095	0.142943
	Al1293	Al	0.622045	0.250365	0.142998
	Al1294	Al	0.492073	0.248826	0.047227
	Al1295	Al	0.492167	-0.000425	0.046962
	O1296	O	0.641774	0.041018	0.177942
	O1297	O	0.621566	0.125195	0.115573
	O1298	O	0.622707	0.375504	0.170442
	O1299	O	0.733079	0.042316	0.197007
	O1300	O	0.603545	0.040682	0.179003
	O1301	O	0.515460	0.039961	0.231611
	O1302	O	0.603461	0.209294	0.178670
	O1303	O	0.602339	0.291262	0.108105
	O1304	O	0.511283	0.290001	0.084381
	O1305	O	0.641857	0.209266	0.177999
	O1306	O	0.640541	0.291076	0.106578
	O1307	O	0.728711	0.292418	0.054327
	O1308	O	0.515358	0.208305	0.231799
	O1309	O	0.602208	0.459524	0.108040
	O1310	O	0.511216	0.458547	0.084411
	O1311	O	0.728650	0.460531	0.054283
	O1312	O	0.640383	0.459174	0.106159
	O1313	O	0.732949	0.210599	0.197182
	O1314	O	0.496493	0.373879	0.240620
	O1315	O	0.747641	0.125815	0.045268
	C1316	C	0.696432	0.215481	0.188619
	C1317	C	0.705801	0.125807	0.189260
	C1318	C	0.696534	0.035663	0.188166
	C1319	C	0.678387	0.035314	0.186373
	C1320	C	0.669023	0.125159	0.185674
	C1321	C	0.678293	0.215233	0.186828
	C1322	C	0.649477	0.125070	0.180249
	C1323	C	0.725339	0.126171	0.194792
	C1324	C	0.596169	0.124951	0.183706
	C1325	C	0.577321	0.125040	0.195998
	C1326	C	0.568218	0.214869	0.200282
	C1327	C	0.550563	0.214766	0.209125
	C1328	C	0.541560	0.124817	0.213985
	C1329	C	0.550647	0.035071	0.209544
	C1330	C	0.568305	0.035157	0.200716
	C1331	C	0.522760	0.124334	0.226643
	C1332	C	0.594605	0.375185	0.105326
	C1333	C	0.575082	0.374977	0.098810
	C1334	C	0.565787	0.464767	0.097382
	C1335	C	0.547672	0.464756	0.094565
	C1336	C	0.538409	0.374806	0.093031
	C1337	C	0.547686	0.285198	0.094192
	C1338	C	0.565803	0.285221	0.097039
	C1339	C	0.518917	0.374345	0.086890
	C1340	C	0.647845	0.375284	0.101372
	C1341	C	0.666557	0.375607	0.088628
	C1342	C	0.675720	0.285893	0.084120
	C1343	C	0.693384	0.286136	0.075482
	C1344	C	0.702470	0.376009	0.071135
	C1345	C	0.693311	0.465763	0.075429
	C1346	C	0.675636	0.465498	0.084011
	C1347	C	0.721242	0.376359	0.058994
	H1348	H	0.700221	0.216308	0.071908
	H1349	H	0.668916	0.215563	0.087435
	H1350	H	0.703410	0.285635	0.189326
	H1351	H	0.671309	0.285263	0.186186
	H1352	H	0.621222	0.124577	0.086206
	H1353	H	0.623887	0.375570	0.199633
	H1354	H	0.495558	0.373262	0.211463
	H1355	H	0.748584	0.125369	0.074614
	H1356	H	0.572780	0.215474	0.098108
	H1357	H	0.540697	0.215212	0.093075
	H1358	H	0.543783	0.284699	0.212401
	H1359	H	0.574971	0.285005	0.196707
	H1360	H	0.540661	0.534688	0.093638
	H1361	H	0.572776	0.534673	0.098696
	H1362	H	0.575119	-0.034722	0.197514
	H1363	H	0.543895	-0.035163	0.213107
	H1364	H	0.671390	-0.034825	0.185267
	H1365	H	0.703545	-0.034287	0.188563
	H1366	H	0.668795	0.535364	0.087183
	H1367	H	0.700097	0.535875	0.071928
	Al1368	Al	0.627968	-0.499251	0.357161
	Al1369	Al	0.627913	-0.249309	0.357032
	Al1370	Al	0.497060	-0.250965	0.267789
	Al1371	Al	0.497175	-0.500788	0.267780
	O1372	O	0.647637	-0.457806	0.392030
	O1373	O	0.627282	-0.374185	0.329718
	O1374	O	0.628414	-0.123865	0.384140
	O1375	O	0.738748	-0.458456	0.415683
	O1376	O	0.609537	-0.458942	0.393497
	O1377	O	0.521307	-0.459928	0.445533
	O1378	O	0.609516	-0.290784	0.393756
	O1379	O	0.608005	-0.208938	0.322643
	O1380	O	0.516886	-0.210130	0.302559
	O1381	O	0.647787	-0.289346	0.391453
	O1382	O	0.646267	-0.208297	0.320482
	O1383	O	0.734597	-0.207585	0.269133
	O1384	O	0.521159	-0.291681	0.445026
	O1385	O	0.608043	-0.040670	0.321684
	O1386	O	0.516895	-0.042018	0.302675
	O1387	O	0.734418	-0.039498	0.268201
	O1388	O	0.646372	-0.040115	0.320449
	O1389	O	0.738674	-0.290092	0.415819
	O1390	O	0.502349	-0.125348	0.454741
	O1391	O	0.753489	-0.374084	0.259461
	C1392	C	0.702308	-0.284619	0.405613
	C1393	C	0.711541	-0.374611	0.406911
	C1394	C	0.702204	-0.464383	0.405331
	C1395	C	0.684086	-0.464280	0.402526
	C1396	C	0.674840	-0.374310	0.400983
	C1397	C	0.684191	-0.284538	0.402747
	C1398	C	0.655367	-0.373863	0.394528
	C1399	C	0.731048	-0.374344	0.413019
	C1400	C	0.602180	-0.375200	0.398777
	C1401	C	0.583351	-0.375442	0.411029
	C1402	C	0.574222	-0.285595	0.415358
	C1403	C	0.556540	-0.285879	0.423848
	C1404	C	0.547440	-0.375790	0.428379
	C1405	C	0.556588	-0.465673	0.424237
	C1406	C	0.574284	-0.465419	0.415702
	C1407	C	0.528627	-0.375624	0.440555
	C1408	C	0.600359	-0.124835	0.319832
	C1409	C	0.580840	-0.125072	0.314569
	C1410	C	0.571487	-0.035372	0.313934
	C1411	C	0.553370	-0.035773	0.312071
	C1412	C	0.544122	-0.125769	0.310654
	C1413	C	0.553484	-0.215456	0.311420
	C1414	C	0.571611	-0.215152	0.313362
	C1415	C	0.524607	-0.126020	0.305140
	C1416	C	0.653697	-0.124424	0.315581
	C1417	C	0.672505	-0.124422	0.303730
	C1418	C	0.681635	-0.214286	0.299567
	C1419	C	0.699329	-0.214116	0.291041
	C1420	C	0.708384	-0.124046	0.286227
	C1421	C	0.699254	-0.034266	0.290707
	C1422	C	0.681572	-0.034448	0.299250
	C1423	C	0.727180	-0.123531	0.273890
	H1424	H	0.706147	-0.283712	0.287733
	H1425	H	0.674826	-0.284359	0.302801
	H1426	H	0.709360	-0.214895	0.406877
	H1427	H	0.677256	-0.214546	0.401795
	H1428	H	0.626332	-0.374379	0.300319
	H1429	H	0.629114	-0.123653	0.413359
	H1430	H	0.501412	-0.125637	0.425396
	H1431	H	0.754295	-0.374117	0.288887
	H1432	H	0.578659	-0.284895	0.313860
	H1433	H	0.546527	-0.285623	0.310487
	H1434	H	0.549688	-0.215822	0.426746
	H1435	H	0.580964	-0.215506	0.411728
	H1436	H	0.546305	0.034327	0.311676
	H1437	H	0.578466	0.034799	0.314745
	H1438	H	0.581070	-0.535455	0.412335
	H1439	H	0.549757	-0.535942	0.427425
	H1440	H	0.677073	-0.534214	0.401339
	H1441	H	0.709162	-0.534524	0.406324
	H1442	H	0.674724	0.035406	0.302147
	H1443	H	0.706024	0.035892	0.287197
	Al1444	Al	0.627916	0.000591	0.356396
	Al1445	Al	0.627886	0.250400	0.356950
	Al1446	Al	0.497076	0.248751	0.268287
	Al1447	Al	0.497108	-0.000924	0.268035
	O1448	O	0.647695	0.041867	0.391102
	O1449	O	0.627196	0.125915	0.329251
	O1450	O	0.628367	0.375470	0.384492
	O1451	O	0.738710	0.041524	0.415922
	O1452	O	0.609549	0.040944	0.393260
	O1453	O	0.521334	0.040215	0.445582
	O1454	O	0.609649	0.208867	0.393784
	O1455	O	0.608145	0.291180	0.322284
	O1456	O	0.516988	0.289906	0.302764
	O1457	O	0.647713	0.210096	0.391711
	O1458	O	0.646322	0.291717	0.320554
	O1459	O	0.734575	0.291669	0.268537
	O1460	O	0.521345	0.208563	0.445646
	O1461	O	0.608190	0.459386	0.321853
	O1462	O	0.516952	0.458148	0.302538
	O1463	O	0.734588	0.459695	0.268457
	O1464	O	0.646472	0.460097	0.321059
	O1465	O	0.738626	0.209900	0.416343
	O1466	O	0.502338	0.374431	0.454602
	O1467	O	0.753443	0.126147	0.259181
	C1468	C	0.702283	0.215230	0.405635
	C1469	C	0.711565	0.125412	0.406705
	C1470	C	0.702233	0.035782	0.405098
	C1471	C	0.684121	0.036147	0.402005
	C1472	C	0.674849	0.125897	0.400692
	C1473	C	0.684181	0.215585	0.402621
	C1474	C	0.655391	0.125936	0.394064
	C1475	C	0.731021	0.125635	0.413272
	C1476	C	0.602216	0.124964	0.398539
	C1477	C	0.583461	0.124712	0.411222
	C1478	C	0.574369	0.214347	0.415836
	C1479	C	0.556683	0.214153	0.424469
	C1480	C	0.547575	0.124444	0.428785
	C1481	C	0.556701	0.034635	0.424406
	C1482	C	0.574389	0.034850	0.415830
	C1483	C	0.528727	0.124242	0.440784
	C1484	C	0.600484	0.375375	0.319619
	C1485	C	0.580923	0.375124	0.314320
	C1486	C	0.571572	0.464882	0.313479
	C1487	C	0.553460	0.464480	0.311645
	C1488	C	0.544193	0.374485	0.310433
	C1489	C	0.553546	0.284968	0.311257
	C1490	C	0.571666	0.285228	0.313093
	C1491	C	0.524643	0.374081	0.304936
	C1492	C	0.653773	0.375927	0.315872
	C1493	C	0.672568	0.375590	0.303671
	C1494	C	0.681660	0.285947	0.299196
	C1495	C	0.699324	0.285968	0.290518
	C1496	C	0.708400	0.375826	0.285990
	C1497	C	0.699282	0.465544	0.290301
	C1498	C	0.681631	0.465518	0.299023
	C1499	C	0.727173	0.375705	0.273456
	H1500	H	0.706151	0.215912	0.287180
	H1501	H	0.674865	0.215818	0.302688
	H1502	H	0.709273	0.284854	0.407237
	H1503	H	0.677204	0.285697	0.401732
	H1504	H	0.626105	0.126422	0.300056
	H1505	H	0.629064	0.375061	0.413782
	H1506	H	0.501581	0.373850	0.425291
	H1507	H	0.753978	0.126127	0.288554
	H1508	H	0.578676	0.215358	0.313817
	H1509	H	0.546559	0.215096	0.310698
	H1510	H	0.549882	0.284089	0.427885
	H1511	H	0.581138	0.284384	0.412419
	H1512	H	0.546425	0.534653	0.311306
	H1513	H	0.578560	0.534856	0.314633
	H1514	H	0.581202	-0.035283	0.412331
	H1515	H	0.549919	-0.035507	0.427708
	H1516	H	0.677093	-0.033614	0.400662
	H1517	H	0.709249	-0.034091	0.406066
	H1518	H	0.674793	0.535653	0.302267
	H1519	H	0.706083	0.535615	0.286761
	Al1520	Al	0.632828	-0.499238	0.578249
	Al1521	Al	0.632844	-0.249783	0.578465
	Al1522	Al	0.502965	-0.250569	0.482109
	Al1523	Al	0.502883	-0.500789	0.482094
	O1524	O	0.650518	-0.458487	0.619198
	O1525	O	0.632762	-0.374387	0.551405
	O1526	O	0.632432	-0.124342	0.605578
	O1527	O	0.724521	-0.457990	0.756302
	O1528	O	0.614017	-0.458294	0.613243
	O1529	O	0.526840	-0.459580	0.669509
	O1530	O	0.613780	-0.289766	0.612710
	O1531	O	0.613796	-0.208277	0.540701
	O1532	O	0.522788	-0.209686	0.516609
	O1533	O	0.650482	-0.290371	0.619527
	O1534	O	0.651758	-0.208990	0.544752
	O1535	O	0.738885	-0.208766	0.487352
	O1536	O	0.526734	-0.291226	0.669233
	O1537	O	0.613611	-0.040073	0.541225
	O1538	O	0.522717	-0.041426	0.516925
	O1539	O	0.738908	-0.040307	0.487697
	O1540	O	0.651819	-0.040471	0.544565
	O1541	O	0.724470	-0.289704	0.756253
	O1542	O	0.507902	-0.125143	0.676215
	O1543	O	0.757484	-0.374103	0.480226
	C1544	C	0.694812	-0.285380	0.701550
	C1545	C	0.702400	-0.374405	0.715348
	C1546	C	0.694864	-0.463506	0.701422
	C1547	C	0.680185	-0.463331	0.674190
	C1548	C	0.672610	-0.374339	0.660201
	C1549	C	0.680124	-0.285342	0.674309
	C1550	C	0.656746	-0.374431	0.630646
	C1551	C	0.718257	-0.373842	0.744868
	C1552	C	0.606608	-0.374313	0.618314
	C1553	C	0.588073	-0.374479	0.631721
	C1554	C	0.579069	-0.284988	0.636536
	C1555	C	0.561591	-0.285477	0.646629
	C1556	C	0.552713	-0.375152	0.652006
	C1557	C	0.561745	-0.464667	0.647685
	C1558	C	0.579219	-0.464223	0.637477
	C1559	C	0.534112	-0.375374	0.664617
	C1560	C	0.606068	-0.124444	0.538100
	C1561	C	0.586599	-0.124917	0.531773
	C1562	C	0.577248	-0.035286	0.530602
	C1563	C	0.559151	-0.035542	0.527765
	C1564	C	0.549884	-0.125444	0.525899
	C1565	C	0.559239	-0.215028	0.527314
	C1566	C	0.577346	-0.214756	0.530119
	C1567	C	0.530423	-0.125497	0.519539
	C1568	C	0.659090	-0.124956	0.539892
	C1569	C	0.677713	-0.124854	0.527097
	C1570	C	0.686682	-0.214419	0.522349
	C1571	C	0.704177	-0.214526	0.512052
	C1572	C	0.713060	-0.124645	0.506501
	C1573	C	0.704089	-0.035080	0.511735
	C1574	C	0.686627	-0.035027	0.521933
	C1575	C	0.731636	-0.124473	0.492796
	H1576	H	0.710990	-0.284044	0.508010
	H1577	H	0.679875	-0.283827	0.526583
	H1578	H	0.700496	-0.216205	0.712103
	H1579	H	0.674444	-0.216290	0.663730
	H1580	H	0.632301	-0.374053	0.522184
	H1581	H	0.631376	-0.124055	0.634825
	H1582	H	0.507259	-0.125253	0.647058
	H1583	H	0.756696	-0.374538	0.509559
	H1584	H	0.584404	-0.284410	0.530983
	H1585	H	0.552279	-0.285052	0.526050
	H1586	H	0.554769	-0.216150	0.650355
	H1587	H	0.585747	-0.215582	0.632196
	H1588	H	0.552142	0.034375	0.526861
	H1589	H	0.584259	0.034706	0.531992
	H1590	H	0.586051	-0.533722	0.633831
	H1591	H	0.555056	-0.534204	0.652191
	H1592	H	0.674565	-0.532384	0.663464
	H1593	H	0.700631	-0.532460	0.711949
	H1594	H	0.679890	0.034454	0.525666
	H1595	H	0.710757	0.034750	0.507434
	Al1596	Al	0.632934	0.000718	0.578184
	Al1597	Al	0.632881	0.250264	0.578092
	Al1598	Al	0.502928	0.249646	0.482049
	Al1599	Al	0.502924	-0.000412	0.482111
	O1600	O	0.650713	0.041635	0.618691
	O1601	O	0.632785	0.125424	0.550928
	O1602	O	0.632507	0.375521	0.605454
	O1603	O	0.724433	0.041802	0.756531
	O1604	O	0.614048	0.041554	0.612920
	O1605	O	0.526865	0.040657	0.669853
	O1606	O	0.613900	0.209744	0.612417
	O1607	O	0.613665	0.291387	0.540829
	O1608	O	0.522706	0.290333	0.516979
	O1609	O	0.650677	0.209616	0.618785
	O1610	O	0.651848	0.291247	0.544646
	O1611	O	0.738932	0.291643	0.487988
	O1612	O	0.526693	0.208626	0.668867
	O1613	O	0.613672	0.459756	0.540851
	O1614	O	0.522665	0.458452	0.516805
	O1615	O	0.738846	0.460286	0.487312
	O1616	O	0.651712	0.459963	0.544420
	O1617	O	0.724413	0.209841	0.756628
	O1618	O	0.507804	0.374620	0.675889
	O1619	O	0.757538	0.125977	0.480503
	C1620	C	0.694787	0.214948	0.701513
	C1621	C	0.702345	0.125942	0.715511
	C1622	C	0.694779	0.036959	0.701574
	C1623	C	0.680157	0.037006	0.674114
	C1624	C	0.672683	0.125882	0.659981
	C1625	C	0.680160	0.214945	0.674017
	C1626	C	0.656900	0.125641	0.630267
	C1627	C	0.718171	0.125879	0.745153
	C1628	C	0.606659	0.125493	0.617891
	C1629	C	0.588104	0.125236	0.631126
	C1630	C	0.579027	0.214570	0.635587
	C1631	C	0.561564	0.214638	0.646025
	C1632	C	0.552755	0.125095	0.651994
	C1633	C	0.561840	0.035736	0.647697
	C1634	C	0.579289	0.035643	0.637266
	C1635	C	0.534124	0.124750	0.664512
	C1636	C	0.606018	0.375665	0.538216
	C1637	C	0.586500	0.375329	0.532005
	C1638	C	0.577142	0.464883	0.530843
	C1639	C	0.559023	0.464564	0.528005
	C1640	C	0.549818	0.374638	0.526256
	C1641	C	0.559181	0.284993	0.527458
	C1642	C	0.577286	0.285350	0.530298
	C1643	C	0.530333	0.374514	0.519736
	C1644	C	0.659101	0.375746	0.539771
	C1645	C	0.677746	0.376093	0.527340
	C1646	C	0.686726	0.286291	0.522637
	C1647	C	0.704166	0.286324	0.512349
	C1648	C	0.713052	0.376031	0.506503
	C1649	C	0.704087	0.465951	0.511477
	C1650	C	0.686609	0.466064	0.521692
	C1651	C	0.731630	0.375915	0.492970
	H1652	H	0.710953	0.216769	0.508742
	H1653	H	0.680045	0.216699	0.527209
	H1654	H	0.700459	0.283903	0.712350
	H1655	H	0.674479	0.283644	0.663256
	H1656	H	0.632144	0.125655	0.521618
	H1657	H	0.631857	0.375638	0.634666
	H1658	H	0.507094	0.374375	0.646827
	H1659	H	0.756717	0.125478	0.509544
	H1660	H	0.584317	0.215556	0.531131
	H1661	H	0.552236	0.214895	0.526031
	H1662	H	0.554676	0.283931	0.649225
	H1663	H	0.585720	0.284499	0.630897
	H1664	H	0.551988	0.534539	0.526957
	H1665	H	0.584079	0.534840	0.532159
	H1666	H	0.586115	-0.034034	0.633722
	H1667	H	0.555159	-0.033791	0.652407
	H1668	H	0.674452	-0.032024	0.663390
	H1669	H	0.700404	-0.032075	0.712270
	H1670	H	0.679757	0.535625	0.525426
	H1671	H	0.710855	0.535400	0.506987
	Al1672	Al	0.617118	-0.500624	0.922362
	Al1673	Al	0.617165	-0.249709	0.922853
	Al1674	Al	0.507871	-0.249905	0.702987
	Al1675	Al	0.507840	-0.500647	0.703135
	O1676	O	0.636329	-0.459634	0.959760
	O1677	O	0.617659	-0.374991	0.895374
	O1678	O	0.617216	-0.125127	0.949712
	O1679	O	0.727288	-0.458176	0.983096
	O1680	O	0.598291	-0.458891	0.956295
	O1681	O	0.511061	-0.460080	1.012403
	O1682	O	0.598237	-0.290530	0.956290
	O1683	O	0.599494	-0.209306	0.881613
	O1684	O	0.525680	-0.209232	0.744024
	O1685	O	0.636217	-0.291071	0.960309
	O1686	O	0.636200	-0.209545	0.888273
	O1687	O	0.723181	-0.208516	0.830833
	O1688	O	0.511020	-0.291524	1.012445
	O1689	O	0.599385	-0.041367	0.881755
	O1690	O	0.525533	-0.041506	0.744568
	O1691	O	0.723230	-0.040388	0.831397
	O1692	O	0.636022	-0.041234	0.887830
	O1693	O	0.727319	-0.290086	0.983158
	O1694	O	0.492556	-0.126199	1.019910
	O1695	O	0.742050	-0.373901	0.824283
	C1696	C	0.690786	-0.284695	0.972801
	C1697	C	0.700161	-0.374391	0.974118
	C1698	C	0.690886	-0.464367	0.972253
	C1699	C	0.672748	-0.464719	0.969656
	C1700	C	0.663405	-0.375000	0.968782
	C1701	C	0.672661	-0.285052	0.970242
	C1702	C	0.643973	-0.375277	0.962654
	C1703	C	0.719603	-0.374209	0.980420
	C1704	C	0.590935	-0.374992	0.961014
	C1705	C	0.572263	-0.375163	0.973444
	C1706	C	0.563196	-0.285608	0.977757
	C1707	C	0.545694	-0.285804	0.987736
	C1708	C	0.536862	-0.375698	0.993560
	C1709	C	0.545876	-0.465308	0.988659
	C1710	C	0.563369	-0.465102	0.978674
	C1711	C	0.518287	-0.375998	1.007019
	C1712	C	0.593216	-0.125401	0.870128
	C1713	C	0.577446	-0.125798	0.840430
	C1714	C	0.569845	-0.036874	0.826793
	C1715	C	0.555182	-0.036616	0.799449
	C1716	C	0.547712	-0.125402	0.785147
	C1717	C	0.555327	-0.214286	0.798690
	C1718	C	0.569985	-0.214438	0.826003
	C1719	C	0.531890	-0.125318	0.755589
	C1720	C	0.643387	-0.125234	0.882752
	C1721	C	0.661936	-0.125078	0.869288
	C1722	C	0.670918	-0.214548	0.864111
	C1723	C	0.688374	-0.213806	0.853916
	C1724	C	0.697268	-0.124152	0.848832
	C1725	C	0.688277	-0.034790	0.853642
	C1726	C	0.670785	-0.035312	0.863734
	C1727	C	0.715900	-0.124655	0.836081
	H1728	H	0.695188	-0.282952	0.850048
	H1729	H	0.664224	-0.284359	0.868166
	H1730	H	0.697716	-0.214634	0.974194
	H1731	H	0.665606	-0.215321	0.969626
	H1732	H	0.618508	-0.374779	0.866228
	H1733	H	0.617744	-0.124529	0.978820
	H1734	H	0.493389	-0.126351	0.990750
	H1735	H	0.742505	-0.373681	0.853484
	H1736	H	0.575741	-0.283268	0.836353
	H1737	H	0.549735	-0.283186	0.787606
	H1738	H	0.538889	-0.216244	0.991408
	H1739	H	0.569904	-0.215972	0.973245
	H1740	H	0.549454	0.032376	0.788939
	H1741	H	0.575450	0.032226	0.837776
	H1742	H	0.570217	-0.534741	0.974909
	H1743	H	0.539178	-0.534911	0.992992
	H1744	H	0.665792	-0.534726	0.968512
	H1745	H	0.697882	-0.534191	0.973240
	H1746	H	0.663936	0.034066	0.867558
	H1747	H	0.695023	0.034814	0.849501
	Al1748	Al	0.617138	-0.000662	0.922495
	Al1749	Al	0.617103	0.250312	0.922175
	Al1750	Al	0.507893	0.250232	0.702975
	Al1751	Al	0.507919	-0.000861	0.703481
	O1752	O	0.636384	0.040575	0.959349
	O1753	O	0.617506	0.124880	0.895072
	O1754	O	0.617151	0.374723	0.949506
	O1755	O	0.727248	0.041699	0.983021
	O1756	O	0.598379	0.041116	0.956426
	O1757	O	0.511139	0.039814	1.012531
	O1758	O	0.598265	0.209543	0.956045
	O1759	O	0.599412	0.291228	0.881318
	O1760	O	0.525635	0.291099	0.743872
	O1761	O	0.636263	0.209146	0.959423
	O1762	O	0.636111	0.290617	0.887855
	O1763	O	0.723391	0.292250	0.831969
	O1764	O	0.511068	0.208202	1.012503
	O1765	O	0.599341	0.459391	0.881577
	O1766	O	0.525505	0.459170	0.744184
	O1767	O	0.723282	0.460405	0.831316
	O1768	O	0.636068	0.458935	0.887560
	O1769	O	0.727317	0.210028	0.983052
	O1770	O	0.492446	0.374080	1.019890
	O1771	O	0.742100	0.125839	0.824884
	C1772	C	0.690824	0.215652	0.972690
	C1773	C	0.700147	0.126056	0.973931
	C1774	C	0.690908	0.036182	0.972178
	C1775	C	0.672811	0.035908	0.969384
	C1776	C	0.663483	0.125539	0.968008
	C1777	C	0.672729	0.215530	0.969824
	C1778	C	0.643976	0.125163	0.962016
	C1779	C	0.719665	0.126122	0.980191
	C1780	C	0.590993	0.125278	0.961075
	C1781	C	0.572344	0.124838	0.973524
	C1782	C	0.563293	0.214464	0.978071
	C1783	C	0.545788	0.214336	0.988093
	C1784	C	0.536938	0.124388	0.993794
	C1785	C	0.545966	0.034804	0.988924
	C1786	C	0.563462	0.034963	0.978888
	C1787	C	0.518362	0.124171	1.007244
	C1788	C	0.593116	0.375332	0.870069
	C1789	C	0.577332	0.375394	0.840403
	C1790	C	0.569691	0.464466	0.826819
	C1791	C	0.555026	0.464506	0.799427
	C1792	C	0.547588	0.375303	0.785113
	C1793	C	0.555237	0.286084	0.798697
	C1794	C	0.569897	0.286033	0.826105
	C1795	C	0.531783	0.375205	0.755460
	C1796	C	0.643344	0.375071	0.882293
	C1797	C	0.661950	0.375136	0.869012
	C1798	C	0.670942	0.285495	0.864051
	C1799	C	0.688447	0.286008	0.854021
	C1800	C	0.697327	0.375953	0.848821
	C1801	C	0.688297	0.465504	0.853431
	C1802	C	0.670801	0.465090	0.863476
	C1803	C	0.716000	0.376371	0.836442
	H1804	H	0.695266	0.216612	0.850212
	H1805	H	0.664249	0.215478	0.868172
	H1806	H	0.697848	0.285452	0.973970
	H1807	H	0.665713	0.285224	0.968983
	H1808	H	0.618227	0.124518	0.866030
	H1809	H	0.617721	0.374932	0.978735
	H1810	H	0.493250	0.373849	0.990680
	H1811	H	0.743000	0.126077	0.854116
	H1812	H	0.575636	0.216766	0.836572
	H1813	H	0.549659	0.216758	0.787660
	H1814	H	0.538951	0.283902	0.991726
	H1815	H	0.570005	0.284117	0.973798
	H1816	H	0.549298	0.533553	0.789150
	H1817	H	0.575204	0.533548	0.838092
	H1818	H	0.570268	-0.034523	0.975163
	H1819	H	0.539217	-0.035176	0.993179
	H1820	H	0.665823	-0.034254	0.968228
	H1821	H	0.697939	-0.033692	0.973151
	H1822	H	0.663946	0.534657	0.867194
	H1823	H	0.694985	0.535209	0.849227
	Al1824	Al	0.877854	-0.499327	0.106944
	Al1825	Al	0.877894	-0.249202	0.107080
	Al1826	Al	0.747157	-0.249225	0.017817
	Al1827	Al	0.747081	-0.499119	0.017718
	O1828	O	0.897554	-0.458104	0.142301
	O1829	O	0.877190	-0.374101	0.079719
	O1830	O	0.878348	-0.124426	0.134581
	O1831	O	0.988654	-0.459533	0.165621
	O1832	O	0.859270	-0.459246	0.142952
	O1833	O	0.771240	-0.458165	0.195733
	O1834	O	0.859455	-0.291103	0.143651
	O1835	O	0.858100	-0.208808	0.072340
	O1836	O	0.766972	-0.208090	0.052222
	O1837	O	0.897688	-0.289877	0.141681
	O1838	O	0.896262	-0.208003	0.070689
	O1839	O	0.984541	-0.209014	0.018852
	O1840	O	0.771282	-0.290096	0.195844
	O1841	O	0.858083	-0.040445	0.072387
	O1842	O	0.767044	-0.039722	0.051984
	O1843	O	0.984553	-0.040670	0.018527
	O1844	O	0.896381	-0.039805	0.071161
	O1845	O	0.988736	-0.291259	0.165395
	O1846	O	0.752304	-0.123929	0.204819
	O1847	O	1.003464	-0.374920	0.009660
	C1848	C	0.952248	-0.285131	0.155372
	C1849	C	0.961515	-0.375005	0.156695
	C1850	C	0.952171	-0.464586	0.155346
	C1851	C	0.934057	-0.464406	0.152658
	C1852	C	0.924779	-0.374481	0.151224
	C1853	C	0.934129	-0.284822	0.152700
	C1854	C	0.905272	-0.374222	0.144754
	C1855	C	0.981012	-0.375402	0.162782
	C1856	C	0.852006	-0.375120	0.148366
	C1857	C	0.833189	-0.374916	0.160725
	C1858	C	0.824216	-0.285004	0.165747
	C1859	C	0.806528	-0.284596	0.174439
	C1860	C	0.797399	-0.374296	0.178801
	C1861	C	0.806428	-0.464278	0.174137
	C1862	C	0.824093	-0.464664	0.165369
	C1863	C	0.778602	-0.374122	0.190730
	C1864	C	0.850431	-0.124588	0.069905
	C1865	C	0.830889	-0.124457	0.064510
	C1866	C	0.821597	-0.034497	0.063533
	C1867	C	0.803467	-0.034345	0.061459
	C1868	C	0.794157	-0.124281	0.060267
	C1869	C	0.803440	-0.214338	0.061374
	C1870	C	0.821581	-0.214381	0.063251
	C1871	C	0.774663	-0.124038	0.054675
	C1872	C	0.903684	-0.124056	0.066071
	C1873	C	0.922532	-0.124047	0.053763
	C1874	C	0.931532	-0.214034	0.048924
	C1875	C	0.949205	-0.214256	0.040202
	C1876	C	0.958386	-0.124575	0.035980
	C1877	C	0.949364	-0.034522	0.040739
	C1878	C	0.931693	-0.034281	0.049540
	C1879	C	0.977160	-0.124715	0.023737
	H1880	H	0.955909	-0.284427	0.036399
	H1881	H	0.924638	-0.283977	0.051873
	H1882	H	0.959284	-0.215212	0.156572
	H1883	H	0.927140	-0.214588	0.151787
	H1884	H	0.876031	-0.374675	0.050408
	H1885	H	0.878848	-0.124432	0.163832
	H1886	H	0.751493	-0.124526	0.175560
	H1887	H	1.004221	-0.374907	0.038831
	H1888	H	0.828554	-0.284374	0.063838
	H1889	H	0.796437	-0.284149	0.060771
	H1890	H	0.799815	-0.214331	0.177916
	H1891	H	0.831115	-0.215063	0.162726
	H1892	H	0.796460	0.035921	0.060895
	H1893	H	0.828645	0.035395	0.064230
	H1894	H	0.830905	-0.534952	0.162104
	H1895	H	0.799585	-0.534239	0.177544
	H1896	H	0.927061	-0.534142	0.151810
	H1897	H	0.959128	-0.534828	0.156500
	H1898	H	0.924916	0.035886	0.052902
	H1899	H	0.956197	0.035569	0.037362
	Al1900	Al	0.877905	0.000842	0.107226
	Al1901	Al	0.877911	0.250852	0.107319
	Al1902	Al	0.747102	0.250810	0.017792
	Al1903	Al	0.747075	0.000785	0.017728
	O1904	O	0.897644	0.042028	0.142211
	O1905	O	0.877232	0.125810	0.079919
	O1906	O	0.878453	0.375987	0.134531
	O1907	O	0.988777	0.041094	0.165392
	O1908	O	0.859474	0.041337	0.143675
	O1909	O	0.771296	0.041814	0.195518
	O1910	O	0.859649	0.209598	0.144330
	O1911	O	0.858073	0.290890	0.072806
	O1912	O	0.766927	0.291779	0.052767
	O1913	O	0.897823	0.210506	0.141620
	O1914	O	0.896148	0.291834	0.070580
	O1915	O	0.984471	0.291044	0.018500
	O1916	O	0.771246	0.209934	0.195251
	O1917	O	0.858153	0.459034	0.071917
	O1918	O	0.766916	0.460109	0.052374
	O1919	O	0.984561	0.459293	0.018708
	O1920	O	0.896404	0.460352	0.070919
	O1921	O	0.988796	0.209308	0.165121
	O1922	O	0.752260	0.375762	0.204213
	O1923	O	1.003357	0.125277	0.009604
	C1924	C	0.952325	0.215386	0.154844
	C1925	C	0.961582	0.125415	0.156445
	C1926	C	0.952248	0.035936	0.155151
	C1927	C	0.934113	0.036208	0.152450
	C1928	C	0.924872	0.126024	0.150906
	C1929	C	0.934214	0.215597	0.152190
	C1930	C	0.905404	0.126020	0.144617
	C1931	C	0.981090	0.125283	0.162487
	C1932	C	0.852176	0.125578	0.148944
	C1933	C	0.833391	0.125446	0.161221
	C1934	C	0.824284	0.215154	0.165740
	C1935	C	0.806584	0.215295	0.174144
	C1936	C	0.797467	0.125536	0.178383
	C1937	C	0.806605	0.035790	0.174116
	C1938	C	0.824306	0.035655	0.165691
	C1939	C	0.778657	0.125809	0.190472
	C1940	C	0.850397	0.375125	0.070004
	C1941	C	0.830882	0.375349	0.064525
	C1942	C	0.821582	0.465337	0.063255
	C1943	C	0.803452	0.465486	0.061345
	C1944	C	0.794121	0.375700	0.060432
	C1945	C	0.803387	0.285670	0.061783
	C1946	C	0.821524	0.285500	0.063701
	C1947	C	0.774602	0.376091	0.054862
	C1948	C	0.903672	0.375965	0.065877
	C1949	C	0.922500	0.375566	0.053859
	C1950	C	0.931505	0.285620	0.049059
	C1951	C	0.949184	0.285300	0.040340
	C1952	C	0.958363	0.375133	0.036152
	C1953	C	0.949373	0.465016	0.041210
	C1954	C	0.931695	0.465182	0.049862
	C1955	C	0.977142	0.375341	0.023699
	H1956	H	0.955928	0.215061	0.036664
	H1957	H	0.924632	0.215760	0.052106
	H1958	H	0.959321	0.285228	0.155731
	H1959	H	0.927286	0.285451	0.151055
	H1960	H	0.875907	0.125976	0.050815
	H1961	H	0.879322	0.376526	0.163703
	H1962	H	0.751244	0.376114	0.174868
	H1963	H	1.003905	0.124933	0.038911
	H1964	H	0.828486	0.215482	0.064462
	H1965	H	0.796355	0.215764	0.061019
	H1966	H	0.799770	0.285243	0.177393
	H1967	H	0.831095	0.285113	0.162517
	H1968	H	0.796481	0.535331	0.060326
	H1969	H	0.828571	0.535365	0.063786
	H1970	H	0.831134	-0.034399	0.162423
	H1971	H	0.799855	-0.034288	0.177454
	H1972	H	0.927082	-0.033715	0.151444
	H1973	H	0.959216	-0.033906	0.156347
	H1974	H	0.924932	0.535294	0.053456
	H1975	H	0.956246	0.535012	0.038357
	Al1976	Al	0.882811	-0.499200	0.327594
	Al1977	Al	0.882933	-0.249858	0.327751
	Al1978	Al	0.752875	-0.248849	0.232375
	Al1979	Al	0.752920	-0.499252	0.232080
	O1980	O	0.900506	-0.458126	0.368810
	O1981	O	0.882788	-0.374594	0.300452
	O1982	O	0.882489	-0.124394	0.354989
	O1983	O	0.974220	-0.457730	0.506635
	O1984	O	0.863928	-0.458239	0.362378
	O1985	O	0.776760	-0.457856	0.419120
	O1986	O	0.863967	-0.290017	0.362410
	O1987	O	0.863688	-0.209077	0.290699
	O1988	O	0.772676	-0.207732	0.267048
	O1989	O	0.900510	-0.290138	0.368668
	O1990	O	0.901802	-0.208336	0.293988
	O1991	O	0.988913	-0.208509	0.237287
	O1992	O	0.776809	-0.289688	0.419318
	O1993	O	0.863848	-0.040613	0.290252
	O1994	O	0.772709	-0.039701	0.266701
	O1995	O	0.988905	-0.040241	0.237330
	O1996	O	0.901760	-0.040089	0.293994
	O1997	O	0.974422	-0.289767	0.505934
	O1998	O	0.757879	-0.123889	0.425938
	O1999	O	1.007481	-0.374806	0.229844
	C2000	C	0.944777	-0.284740	0.451047
	C2001	C	0.952296	-0.373701	0.465125
	C2002	C	0.944617	-0.462507	0.451604
	C2003	C	0.929944	-0.462646	0.424294
	C2004	C	0.922535	-0.373892	0.409930
	C2005	C	0.930107	-0.284889	0.423799
	C2006	C	0.906724	-0.374060	0.380246
	C2007	C	0.968072	-0.373743	0.494823
	C2008	C	0.856689	-0.374152	0.367753
	C2009	C	0.838126	-0.374002	0.381261
	C2010	C	0.829240	-0.284298	0.386720
	C2011	C	0.811745	-0.284178	0.396941
	C2012	C	0.802748	-0.373656	0.401813
	C2013	C	0.811665	-0.463208	0.396498
	C2014	C	0.829140	-0.463420	0.386354
	C2015	C	0.784112	-0.373694	0.414299
	C2016	C	0.856117	-0.124676	0.287659
	C2017	C	0.836622	-0.124218	0.281495
	C2018	C	0.827346	-0.034183	0.279900
	C2019	C	0.809187	-0.034084	0.277177
	C2020	C	0.799874	-0.123836	0.275797
	C2021	C	0.809173	-0.213727	0.277616
	C2022	C	0.827313	-0.213694	0.280405
	C2023	C	0.780354	-0.123750	0.269539
	C2024	C	0.909099	-0.124305	0.289192
	C2025	C	0.927735	-0.124296	0.276749
	C2026	C	0.936679	-0.214022	0.271389
	C2027	C	0.954138	-0.214085	0.261116
	C2028	C	0.963097	-0.124255	0.256178
	C2029	C	0.954182	-0.034617	0.261764
	C2030	C	0.936700	-0.034682	0.271946
	C2031	C	0.981653	-0.124566	0.242640
	H2032	H	0.960832	-0.283645	0.256783
	H2033	H	0.929887	-0.283634	0.275221
	H2034	H	0.950411	-0.215828	0.461788
	H2035	H	0.924449	-0.216037	0.413001
	H2036	H	0.882077	-0.374448	0.271246
	H2037	H	0.881643	-0.124673	0.384137
	H2038	H	0.757492	-0.123146	0.396608
	H2039	H	1.006618	-0.374437	0.259073
	H2040	H	0.834227	-0.283857	0.281804
	H2041	H	0.802199	-0.283512	0.276967
	H2042	H	0.805038	-0.214732	0.401160
	H2043	H	0.836035	-0.214781	0.382679
	H2044	H	0.802200	0.035885	0.276207
	H2045	H	0.834342	0.035949	0.280930
	H2046	H	0.835839	-0.533167	0.381940
	H2047	H	0.804905	-0.532923	0.400251
	H2048	H	0.924157	-0.531498	0.414018
	H2049	H	0.950117	-0.531374	0.462877
	H2050	H	0.929961	0.034708	0.276274
	H2051	H	0.960983	0.034855	0.257801
	Al2052	Al	0.882856	0.000966	0.327746
	Al2053	Al	0.882819	0.250393	0.327743
	Al2054	Al	0.752880	0.250866	0.231552
	Al2055	Al	0.752934	0.001059	0.231881
	O2056	O	0.900418	0.042420	0.368927
	O2057	O	0.882851	0.125616	0.300607
	O2058	O	0.882425	0.375635	0.354865
	O2059	O	0.974355	0.041977	0.506171
	O2060	O	0.863879	0.041312	0.362230
	O2061	O	0.776831	0.041708	0.419660
	O2062	O	0.863929	0.210092	0.362388
	O2063	O	0.863608	0.290821	0.290593
	O2064	O	0.772628	0.291559	0.266786
	O2065	O	0.900504	0.210505	0.368858
	O2066	O	0.901749	0.291436	0.294049
	O2067	O	0.988867	0.290824	0.237073
	O2068	O	0.776706	0.210291	0.419297
	O2069	O	0.863651	0.459132	0.290346
	O2070	O	0.772669	0.459834	0.266660
	O2071	O	0.988902	0.459326	0.237423
	O2072	O	0.901752	0.459529	0.293954
	O2073	O	0.974452	0.210094	0.505767
	O2074	O	0.757802	0.375804	0.425881
	O2075	O	1.007458	0.124931	0.230051
	C2076	C	0.944925	0.215057	0.450699
	C2077	C	0.952305	0.126159	0.464988
	C2078	C	0.944606	0.037465	0.451451
	C2079	C	0.929879	0.037389	0.424280
	C2080	C	0.922513	0.126326	0.409899
	C2081	C	0.930195	0.215147	0.423466
	C2082	C	0.906712	0.126471	0.380305
	C2083	C	0.968183	0.125863	0.494456
	C2084	C	0.856643	0.125788	0.367651
	C2085	C	0.838071	0.125846	0.381180
	C2086	C	0.829207	0.215687	0.386872
	C2087	C	0.811732	0.215753	0.397258
	C2088	C	0.802744	0.126024	0.402053
	C2089	C	0.811630	0.036118	0.396918
	C2090	C	0.829100	0.036161	0.386480
	C2091	C	0.784090	0.126006	0.414610
	C2092	C	0.855938	0.375117	0.287973
	C2093	C	0.836462	0.375291	0.281762
	C2094	C	0.827157	0.464937	0.280117
	C2095	C	0.809057	0.465300	0.277371
	C2096	C	0.799732	0.375621	0.276233
	C2097	C	0.809023	0.285826	0.277660
	C2098	C	0.827132	0.285572	0.280408
	C2099	C	0.780298	0.375678	0.269493
	C2100	C	0.909068	0.375464	0.289332
	C2101	C	0.927752	0.375392	0.276929
	C2102	C	0.936662	0.285726	0.271795
	C2103	C	0.954143	0.285639	0.261475
	C2104	C	0.963099	0.375106	0.256294
	C2105	C	0.954162	0.464880	0.261507
	C2106	C	0.936687	0.464919	0.271799
	C2107	C	0.981637	0.375120	0.242710
	H2108	H	0.960896	0.216016	0.257338
	H2109	H	0.929872	0.216264	0.275633
	H2110	H	0.950776	0.284099	0.460910
	H2111	H	0.924688	0.284275	0.412443
	H2112	H	0.882157	0.126222	0.271481
	H2113	H	0.881720	0.375186	0.384219
	H2114	H	0.757490	0.375527	0.396681
	H2115	H	1.006608	0.125149	0.259365
	H2116	H	0.834090	0.215872	0.281481
	H2117	H	0.801984	0.215993	0.276534
	H2118	H	0.805000	0.285426	0.401499
	H2119	H	0.836031	0.285333	0.383080
	H2120	H	0.802109	0.535272	0.275921
	H2121	H	0.834169	0.534893	0.281008
	H2122	H	0.835749	-0.033747	0.382398
	H2123	H	0.804803	-0.033223	0.400818
	H2124	H	0.924115	-0.031620	0.413931
	H2125	H	0.950162	-0.031659	0.462338
	H2126	H	0.929902	0.534344	0.275674
	H2127	H	0.960889	0.534386	0.257297
	Al2128	Al	0.867142	-0.499496	0.672623
	Al2129	Al	0.867129	-0.248652	0.672416
	Al2130	Al	0.757899	-0.248840	0.452931
	Al2131	Al	0.757864	-0.499419	0.452848
	O2132	O	0.886229	-0.458148	0.710176
	O2133	O	0.867721	-0.373976	0.645169
	O2134	O	0.867174	-0.123876	0.699565
	O2135	O	0.977324	-0.457992	0.733573
	O2136	O	0.848310	-0.458115	0.706520
	O2137	O	0.761152	-0.458357	0.762849
	O2138	O	0.848299	-0.289689	0.706522
	O2139	O	0.849432	-0.208074	0.631476
	O2140	O	0.775500	-0.208331	0.494345
	O2141	O	0.886439	-0.289473	0.709166
	O2142	O	0.886071	-0.207904	0.637791
	O2143	O	0.973153	-0.208515	0.580848
	O2144	O	0.761086	-0.289770	0.762686
	O2145	O	0.849472	-0.039934	0.631238
	O2146	O	0.775430	-0.039996	0.494614
	O2147	O	0.973252	-0.040343	0.580806
	O2148	O	0.886006	-0.039518	0.637573
	O2149	O	0.977308	-0.289599	0.733764
	O2150	O	0.742563	-0.123804	0.770232
	O2151	O	0.992142	-0.373913	0.574328
	C2152	C	0.940885	-0.284013	0.722370
	C2153	C	0.950185	-0.373957	0.724205
	C2154	C	0.940913	-0.463962	0.722238
	C2155	C	0.922811	-0.463957	0.719547
	C2156	C	0.913486	-0.374160	0.718516
	C2157	C	0.922776	-0.284159	0.719694
	C2158	C	0.893976	-0.374025	0.712552
	C2159	C	0.969654	-0.373774	0.730848
	C2160	C	0.840990	-0.373923	0.711363
	C2161	C	0.822304	-0.374167	0.723833
	C2162	C	0.813382	-0.284294	0.728613
	C2163	C	0.795863	-0.284137	0.738664
	C2164	C	0.786936	-0.373855	0.744088
	C2165	C	0.795832	-0.463562	0.738758
	C2166	C	0.813324	-0.463677	0.728696
	C2167	C	0.768341	-0.373860	0.757475
	C2168	C	0.843221	-0.124230	0.619992
	C2169	C	0.827446	-0.124012	0.590083
	C2170	C	0.819897	-0.034932	0.576319
	C2171	C	0.805148	-0.035083	0.549140
	C2172	C	0.797584	-0.124260	0.535288
	C2173	C	0.805123	-0.213312	0.549084
	C2174	C	0.819853	-0.213135	0.576323
	C2175	C	0.781720	-0.124098	0.505772
	C2176	C	0.893298	-0.123720	0.632350
	C2177	C	0.911882	-0.123495	0.618946
	C2178	C	0.920843	-0.213158	0.613946
	C2179	C	0.938307	-0.213272	0.603605
	C2180	C	0.947246	-0.123692	0.598214
	C2181	C	0.938293	-0.034058	0.603194
	C2182	C	0.920842	-0.033918	0.613563
	C2183	C	0.965859	-0.124418	0.585516
	H2184	H	0.945077	-0.282938	0.599482
	H2185	H	0.914100	-0.282689	0.618291
	H2186	H	0.947952	-0.214238	0.723148
	H2187	H	0.915802	-0.214316	0.718414
	H2188	H	0.868992	-0.374103	0.616090
	H2189	H	0.867954	-0.123617	0.728512
	H2190	H	0.743244	-0.123703	0.741168
	H2191	H	0.992766	-0.373803	0.603540
	H2192	H	0.825430	-0.282331	0.587084
	H2193	H	0.799471	-0.282418	0.538567
	H2194	H	0.789090	-0.214437	0.742619
	H2195	H	0.820189	-0.214915	0.724584
	H2196	H	0.799429	0.034075	0.538691
	H2197	H	0.825482	0.034276	0.587181
	H2198	H	0.820065	-0.533175	0.724725
	H2199	H	0.789045	-0.533086	0.742663
	H2200	H	0.915798	-0.533680	0.718078
	H2201	H	0.947886	-0.533837	0.722857
	H2202	H	0.914079	0.035808	0.617526
	H2203	H	0.945051	0.035485	0.598749
	Al2204	Al	0.867086	0.000646	0.672407
	Al2205	Al	0.867071	0.251194	0.672524
	Al2206	Al	0.757871	0.251242	0.453243
	Al2207	Al	0.757823	0.000590	0.453301
	O2208	O	0.886231	0.041915	0.709949
	O2209	O	0.867555	0.125927	0.645197
	O2210	O	0.867049	0.375725	0.699682
	O2211	O	0.977226	0.041894	0.733238
	O2212	O	0.848196	0.041470	0.706055
	O2213	O	0.761103	0.041978	0.763452
	O2214	O	0.848212	0.209693	0.706275
	O2215	O	0.849410	0.292175	0.631552
	O2216	O	0.775643	0.292213	0.493884
	O2217	O	0.886225	0.209962	0.709862
	O2218	O	0.885997	0.292309	0.637984
	O2219	O	0.973104	0.291578	0.580759
	O2220	O	0.761152	0.210190	0.763599
	O2221	O	0.849435	0.460156	0.631688
	O2222	O	0.775605	0.460316	0.493871
	O2223	O	0.973248	0.460011	0.581167
	O2224	O	0.886101	0.460693	0.637868
	O2225	O	0.977292	0.210011	0.733053
	O2226	O	0.742603	0.375802	0.770453
	O2227	O	0.992053	0.125837	0.574122
	C2228	C	0.940810	0.215441	0.722756
	C2229	C	0.950097	0.125885	0.724017
	C2230	C	0.940805	0.036164	0.722622
	C2231	C	0.922680	0.036080	0.719996
	C2232	C	0.913410	0.125805	0.718637
	C2233	C	0.922696	0.215524	0.720167
	C2234	C	0.893894	0.126032	0.712499
	C2235	C	0.969616	0.125960	0.730433
	C2236	C	0.840851	0.125609	0.710972
	C2237	C	0.822221	0.125554	0.723440
	C2238	C	0.813366	0.215311	0.728819
	C2239	C	0.795894	0.215635	0.739021
	C2240	C	0.786895	0.126060	0.744236
	C2241	C	0.795741	0.036181	0.738584
	C2242	C	0.813234	0.035998	0.728353
	C2243	C	0.768384	0.126048	0.757998
	C2244	C	0.843157	0.376135	0.620197
	C2245	C	0.827321	0.376472	0.590646
	C2246	C	0.819796	0.465542	0.576647
	C2247	C	0.805171	0.465429	0.549199
	C2248	C	0.797615	0.376346	0.535127
	C2249	C	0.805207	0.287332	0.548973
	C2250	C	0.819837	0.287367	0.576397
	C2251	C	0.781873	0.376442	0.505284
	C2252	C	0.893291	0.376329	0.632588
	C2253	C	0.911848	0.376408	0.619135
	C2254	C	0.920726	0.286620	0.613696
	C2255	C	0.938192	0.286444	0.603478
	C2256	C	0.947200	0.375970	0.598514
	C2257	C	0.938278	0.465829	0.603451
	C2258	C	0.920798	0.466122	0.613690
	C2259	C	0.965846	0.375980	0.585976
	H2260	H	0.944916	0.216939	0.599601
	H2261	H	0.913933	0.217041	0.617733
	H2262	H	0.947780	0.285535	0.724005
	H2263	H	0.915699	0.285319	0.719318
	H2264	H	0.868639	0.125747	0.616022
	H2265	H	0.867315	0.375690	0.728924
	H2266	H	0.743658	0.375057	0.741425
	H2267	H	0.992404	0.124937	0.603391
	H2268	H	0.825643	0.218495	0.586750
	H2269	H	0.799678	0.218466	0.537887
	H2270	H	0.789221	0.285460	0.743066
	H2271	H	0.820199	0.284737	0.724929
	H2272	H	0.799551	0.534470	0.538372
	H2273	H	0.825524	0.534434	0.587280
	H2274	H	0.819936	-0.033607	0.724091
	H2275	H	0.788895	-0.033090	0.742400
	H2276	H	0.915719	-0.033911	0.719075
	H2277	H	0.947798	-0.033572	0.723739
	H2278	H	0.914054	0.535626	0.617760
	H2279	H	0.945107	0.535349	0.599564
	Al2280	Al	0.872143	-0.498960	0.892691
	Al2281	Al	0.872141	-0.249086	0.892860
	Al2282	Al	0.742094	-0.249016	0.797272
	Al2283	Al	0.742148	-0.498647	0.797383
	O2284	O	0.891906	-0.457911	0.927586
	O2285	O	0.871495	-0.374170	0.865310
	O2286	O	0.872763	-0.123977	0.920241
	O2287	O	0.983116	-0.458863	0.947406
	O2288	O	0.853716	-0.458360	0.928991
	O2289	O	0.765466	-0.458118	0.981191
	O2290	O	0.853795	-0.290192	0.929443
	O2291	O	0.852273	-0.208688	0.858442
	O2292	O	0.761209	-0.208686	0.834946
	O2293	O	0.892008	-0.289726	0.927325
	O2294	O	0.890464	-0.208255	0.856236
	O2295	O	0.978748	-0.208463	0.804754
	O2296	O	0.765596	-0.289802	0.981458
	O2297	O	0.852270	-0.040563	0.858174
	O2298	O	0.761219	-0.040271	0.835132
	O2299	O	0.978743	-0.040130	0.804474
	O2300	O	0.890456	-0.040173	0.856220
	O2301	O	0.983080	-0.290577	0.947505
	O2302	O	0.746516	-0.124590	0.990336
	O2303	O	0.997732	-0.374027	0.795677
	C2304	C	0.946654	-0.284745	0.938005
	C2305	C	0.955888	-0.374803	0.939289
	C2306	C	0.946566	-0.464617	0.938552
	C2307	C	0.928417	-0.464265	0.936699
	C2308	C	0.919176	-0.374195	0.935140
	C2309	C	0.928510	-0.284442	0.936109
	C2310	C	0.899643	-0.373954	0.929937
	C2311	C	0.975424	-0.374893	0.944702
	C2312	C	0.846351	-0.374291	0.933984
	C2313	C	0.827536	-0.374073	0.946155
	C2314	C	0.818442	-0.284334	0.951014
	C2315	C	0.800766	-0.284477	0.959670
	C2316	C	0.791681	-0.374367	0.963906
	C2317	C	0.800771	-0.464221	0.959250
	C2318	C	0.818454	-0.464057	0.950565
	C2319	C	0.772885	-0.374134	0.976364
	C2320	C	0.844610	-0.124597	0.855491
	C2321	C	0.825114	-0.124717	0.849038
	C2322	C	0.815812	-0.034894	0.847463
	C2323	C	0.797679	-0.034749	0.844727
	C2324	C	0.788395	-0.124625	0.843447
	C2325	C	0.797702	-0.214351	0.845072
	C2326	C	0.815822	-0.214535	0.847763
	C2327	C	0.768900	-0.124617	0.837637
	C2328	C	0.897811	-0.124051	0.851158
	C2329	C	0.916604	-0.124228	0.838886
	C2330	C	0.925694	-0.214083	0.834389
	C2331	C	0.943364	-0.214072	0.825790
	C2332	C	0.952498	-0.124264	0.821348
	C2333	C	0.943400	-0.034502	0.825632
	C2334	C	0.925721	-0.034529	0.834288
	C2335	C	0.971323	-0.124305	0.809378
	H2336	H	0.950182	-0.284095	0.822485
	H2337	H	0.918870	-0.284047	0.837700
	H2338	H	0.953686	-0.214919	0.938613
	H2339	H	0.921579	-0.214261	0.935549
	H2340	H	0.870621	-0.374283	0.836117
	H2341	H	0.873910	-0.123478	0.949323
	H2342	H	0.745904	-0.124897	0.961213
	H2343	H	0.998356	-0.374448	0.824838
	H2344	H	0.822806	-0.284587	0.849009
	H2345	H	0.790679	-0.284064	0.844403
	H2346	H	0.793968	-0.214568	0.963249
	H2347	H	0.825300	-0.214121	0.948158
	H2348	H	0.790724	0.035306	0.843772
	H2349	H	0.822836	0.034753	0.848365
	H2350	H	0.825291	-0.534119	0.947214
	H2351	H	0.793953	-0.534108	0.962533
	H2352	H	0.921381	-0.534185	0.936543
	H2353	H	0.953481	-0.534487	0.939606
	H2354	H	0.918887	0.035415	0.837511
	H2355	H	0.950211	0.035472	0.822183
	Al2356	Al	0.872080	0.001001	0.892800
	Al2357	Al	0.872100	0.250703	0.892703
	Al2358	Al	0.742127	0.250563	0.797785
	Al2359	Al	0.742073	0.001093	0.797695
	O2360	O	0.891847	0.041960	0.927785
	O2361	O	0.871480	0.125569	0.865235
	O2362	O	0.872805	0.375833	0.920211
	O2363	O	0.983022	0.040972	0.947482
	O2364	O	0.853639	0.041703	0.929058
	O2365	O	0.765446	0.041698	0.981308
	O2366	O	0.853632	0.209818	0.929084
	O2367	O	0.852330	0.291675	0.858219
	O2368	O	0.761326	0.291379	0.835016
	O2369	O	0.891912	0.210276	0.927227
	O2370	O	0.890518	0.291678	0.856357
	O2371	O	0.978813	0.291764	0.804601
	O2372	O	0.765436	0.209860	0.981151
	O2373	O	0.852309	0.459845	0.858116
	O2374	O	0.761274	0.459911	0.834856
	O2375	O	0.978741	0.459784	0.804413
	O2376	O	0.890525	0.459957	0.856061
	O2377	O	0.982968	0.208993	0.947622
	O2378	O	0.746454	0.375765	0.990529
	O2379	O	0.997663	0.125978	0.795375
	C2380	C	0.946559	0.215167	0.938417
	C2381	C	0.955821	0.125146	0.939512
	C2382	C	0.946450	0.035484	0.938726
	C2383	C	0.928312	0.035671	0.936808
	C2384	C	0.919048	0.125731	0.935611
	C2385	C	0.928416	0.215386	0.936525
	C2386	C	0.899546	0.125923	0.929826
	C2387	C	0.975316	0.124989	0.945130
	C2388	C	0.846256	0.125690	0.933689
	C2389	C	0.827422	0.125715	0.945952
	C2390	C	0.818372	0.215702	0.950730
	C2391	C	0.800703	0.215772	0.959459
	C2392	C	0.791579	0.125874	0.963699
	C2393	C	0.800639	0.036073	0.959009
	C2394	C	0.818311	0.035980	0.950310
	C2395	C	0.772770	0.125870	0.976176
	C2396	C	0.844645	0.375715	0.855339
	C2397	C	0.825193	0.375711	0.848894
	C2398	C	0.815907	0.465431	0.847227
	C2399	C	0.797791	0.465405	0.844525
	C2400	C	0.788468	0.375689	0.843492
	C2401	C	0.797765	0.285924	0.844868
	C2402	C	0.815894	0.285829	0.847543
	C2403	C	0.768989	0.375765	0.837372
	C2404	C	0.897887	0.375879	0.851326
	C2405	C	0.916642	0.375676	0.838919
	C2406	C	0.925730	0.285937	0.834506
	C2407	C	0.943424	0.285684	0.825951
	C2408	C	0.952558	0.375362	0.821493
	C2409	C	0.943449	0.465139	0.825838
	C2410	C	0.925772	0.465396	0.834377
	C2411	C	0.971383	0.375612	0.809310
	H2412	H	0.950221	0.215713	0.822797
	H2413	H	0.918908	0.215944	0.837880
	H2414	H	0.953607	0.285212	0.939302
	H2415	H	0.921464	0.285567	0.935680
	H2416	H	0.870643	0.125317	0.836196
	H2417	H	0.873819	0.376238	0.949304
	H2418	H	0.745703	0.376071	0.961233
	H2419	H	0.998574	0.125384	0.824698
	H2420	H	0.822891	0.215923	0.848902
	H2421	H	0.790794	0.216185	0.844237
	H2422	H	0.793903	0.285700	0.963146
	H2423	H	0.825199	0.285705	0.947572
	H2424	H	0.790786	0.535188	0.843432
	H2425	H	0.822874	0.535383	0.848263
	H2426	H	0.825141	-0.034110	0.946917
	H2427	H	0.793871	-0.034040	0.962278
	H2428	H	0.921282	-0.033939	0.936139
	H2429	H	0.953435	-0.034490	0.939779
	H2430	H	0.919064	0.535725	0.837737
	H2431	H	0.950308	0.534860	0.822506
