data_Molecule from HDF5

_cell_length_a		78.624394
_cell_length_b		13.339280
_cell_length_c		25.180274
_cell_angle_alpha	90.027568
_cell_angle_beta	89.994953
_cell_angle_gamma	89.809880
_symmetry_space_group_name_H-M	'P 1'
_symmetry_Int_Tables_number		1

loop_
	_symmetry_equiv_pos_as_xyz
	x,y,z

loop_
	_atom_site_label
	_atom_site_type_symbol
	_atom_site_fract_x
	_atom_site_fract_y
	_atom_site_fract_z
	Al0	Al	0.124982	-0.498835	0.125173
	Al1	Al	0.125017	-0.248845	0.124869
	Al2	Al	-0.000031	-0.248959	0.000072
	Al3	Al	-0.000021	-0.498897	-0.000111
	O4	O	0.143567	-0.458664	0.169335
	O5	O	0.124920	-0.374026	0.090975
	O6	O	0.124960	-0.123541	0.159079
	O7	O	0.231605	-0.458352	0.205558
	O8	O	0.106596	-0.457481	0.170144
	O9	O	0.018566	-0.458942	0.206066
	O10	O	0.106403	-0.288998	0.169289
	O11	O	0.106600	-0.207160	0.080130
	O12	O	0.018510	-0.208639	0.044325
	O13	O	0.143435	-0.290208	0.169615
	O14	O	0.143497	-0.208686	0.080623
	O15	O	0.231611	-0.207701	0.045074
	O16	O	0.018346	-0.290768	0.205217
	O17	O	0.106452	-0.039126	0.080594
	O18	O	0.018289	-0.040323	0.045342
	O19	O	0.231385	-0.039207	0.044378
	O20	O	0.143282	-0.040462	0.080060
	O21	O	0.231457	-0.289791	0.205812
	O22	O	0.000064	-0.124325	0.215959
	O23	O	0.250125	-0.373735	0.034017
	C24	C	0.196301	-0.284026	0.190341
	C25	C	0.205378	-0.374120	0.192414
	C26	C	0.196434	-0.464316	0.189678
	C27	C	0.178839	-0.464421	0.185304
	C28	C	0.169734	-0.374278	0.183016
	C29	C	0.178713	-0.284123	0.185827
	C30	C	0.150910	-0.374262	0.173480
	C31	C	0.224148	-0.374155	0.201773
	C32	C	0.099123	-0.373216	0.173690
	C33	C	0.080346	-0.373682	0.182909
	C34	C	0.071200	-0.283706	0.184704
	C35	C	0.053585	-0.283908	0.189161
	C36	C	0.044694	-0.374266	0.192177
	C37	C	0.053868	-0.464208	0.190607
	C38	C	0.071462	-0.463902	0.186168
	C39	C	0.025855	-0.374743	0.201621
	C40	C	0.099127	-0.123205	0.076211
	C41	C	0.080312	-0.123420	0.066952
	C42	C	0.071131	-0.033498	0.065298
	C43	C	0.053543	-0.033950	0.060873
	C44	C	0.044620	-0.124284	0.057811
	C45	C	0.053787	-0.214158	0.059639
	C46	C	0.071378	-0.213748	0.063992
	C47	C	0.025817	-0.124459	0.048723
	C48	C	0.150789	-0.124439	0.076295
	C49	C	0.169627	-0.124192	0.067022
	C50	C	0.178729	-0.214204	0.064735
	C51	C	0.196331	-0.214032	0.060441
	C52	C	0.205287	-0.123825	0.058170
	C53	C	0.196168	-0.033813	0.060075
	C54	C	0.178565	-0.033942	0.064261
	C55	C	0.224135	-0.123641	0.048922
	H56	H	0.203157	-0.284497	0.058923
	H57	H	0.171974	-0.284148	0.066463
	H58	H	0.203063	-0.213857	0.192249
	H59	H	0.171869	-0.213712	0.184175
	H60	H	0.124915	-0.374725	0.054360
	H61	H	0.124722	-0.123438	0.195741
	H62	H	0.000368	-0.124778	0.179229
	H63	H	0.250158	-0.373318	0.070842
	H64	H	0.078306	-0.283894	0.065294
	H65	H	0.047121	-0.284828	0.057730
	H66	H	0.046655	-0.214035	0.190383
	H67	H	0.077893	-0.213208	0.182625
	H68	H	0.046617	0.036234	0.059920
	H69	H	0.077804	0.037038	0.067616
	H70	H	0.078330	-0.534080	0.185161
	H71	H	0.047179	-0.534603	0.192855
	H72	H	0.172088	-0.534697	0.183443
	H73	H	0.203279	-0.534518	0.191115
	H74	H	0.171689	0.036092	0.065431
	H75	H	0.202879	0.036576	0.058311
	Al76	Al	0.124967	0.001325	0.125202
	Al77	Al	0.124996	0.251249	0.124871
	Al78	Al	0.000035	0.250992	0.000200
	Al79	Al	0.000023	0.000812	0.000080
	O80	O	0.143643	0.041446	0.168980
	O81	O	0.124912	0.125998	0.091045
	O82	O	0.125063	0.376106	0.159035
	O83	O	0.231651	0.042138	0.205262
	O84	O	0.106638	0.042494	0.170407
	O85	O	0.018608	0.041085	0.206183
	O86	O	0.106388	0.210785	0.169118
	O87	O	0.106638	0.292787	0.079810
	O88	O	0.018584	0.291927	0.044225
	O89	O	0.143418	0.209859	0.169840
	O90	O	0.143593	0.291392	0.080612
	O91	O	0.231697	0.293332	0.045148
	O92	O	0.018303	0.209294	0.205189
	O93	O	0.106396	0.460937	0.080880
	O94	O	0.018401	0.460260	0.044676
	O95	O	0.231462	0.461657	0.044139
	O96	O	0.143396	0.459736	0.080125
	O97	O	0.231496	0.210517	0.206135
	O98	O	0.000141	0.375654	0.216327
	O99	O	0.250056	0.126373	0.033912
	C100	C	0.196275	0.216277	0.190056
	C101	C	0.205390	0.126237	0.192146
	C102	C	0.196467	0.035961	0.189344
	C103	C	0.178884	0.035814	0.184991
	C104	C	0.169769	0.125984	0.182903
	C105	C	0.178698	0.216144	0.185670
	C106	C	0.150928	0.125695	0.173620
	C107	C	0.224206	0.126378	0.201557
	C108	C	0.099142	0.126501	0.173814
	C109	C	0.080314	0.126300	0.183159
	C110	C	0.071177	0.216257	0.184844
	C111	C	0.053579	0.215975	0.188982
	C112	C	0.044650	0.125720	0.191915
	C113	C	0.053787	0.035710	0.190167
	C114	C	0.071389	0.035939	0.186033
	C115	C	0.025827	0.125377	0.201570
	C116	C	0.099127	0.376695	0.076324
	C117	C	0.080315	0.376526	0.066934
	C118	C	0.071248	0.466661	0.065014
	C119	C	0.053670	0.466499	0.060763
	C120	C	0.044684	0.376345	0.057862
	C121	C	0.053760	0.286153	0.059868
	C122	C	0.071348	0.286330	0.064221
	C123	C	0.025910	0.376169	0.048583
	C124	C	0.150891	0.375784	0.076369
	C125	C	0.169684	0.375862	0.066897
	C126	C	0.178857	0.286019	0.065255
	C127	C	0.196475	0.286665	0.060927
	C128	C	0.205383	0.376996	0.058065
	C129	C	0.196193	0.466729	0.059713
	C130	C	0.178602	0.466218	0.063987
	C131	C	0.224193	0.377237	0.048750
	H132	H	0.203406	0.216653	0.059498
	H133	H	0.172184	0.215575	0.067026
	H134	H	0.202969	0.286651	0.191853
	H135	H	0.171824	0.286237	0.184396
	H136	H	0.124872	0.126015	0.054522
	H137	H	0.125000	0.376268	0.195740
	H138	H	0.000627	0.375648	0.179803
	H139	H	0.250433	0.126648	0.070710
	H140	H	0.078240	0.216182	0.065352
	H141	H	0.047010	0.215678	0.057872
	H142	H	0.046741	0.286117	0.190115
	H143	H	0.077926	0.286712	0.182732
	H144	H	0.046820	0.536874	0.059326
	H145	H	0.077949	0.537095	0.066865
	H146	H	0.078269	-0.034147	0.184888
	H147	H	0.047023	-0.034634	0.192236
	H148	H	0.172126	-0.034400	0.183146
	H149	H	0.203356	-0.034471	0.190635
	H150	H	0.171745	0.536203	0.064855
	H151	H	0.202861	0.537223	0.057389
	Al152	Al	0.124956	-0.499316	0.374915
	Al153	Al	0.124985	-0.249513	0.375100
	Al154	Al	-0.000040	-0.249352	0.250201
	Al155	Al	0.000024	-0.499517	0.250381
	O156	O	0.143553	-0.458908	0.419395
	O157	O	0.124970	-0.374559	0.341041
	O158	O	0.124933	-0.124274	0.409164
	O159	O	0.231593	-0.457901	0.455154
	O160	O	0.106623	-0.457838	0.420091
	O161	O	0.018556	-0.459116	0.455950
	O162	O	0.106356	-0.289804	0.419258
	O163	O	0.106646	-0.208101	0.330333
	O164	O	0.018577	-0.209147	0.294153
	O165	O	0.143369	-0.290721	0.420034
	O166	O	0.143551	-0.209067	0.330634
	O167	O	0.231515	-0.208548	0.294916
	O168	O	0.018368	-0.290916	0.455235
	O169	O	0.106482	-0.039902	0.330599
	O170	O	0.018361	-0.040793	0.295040
	O171	O	0.231452	-0.039821	0.294528
	O172	O	0.143387	-0.040538	0.330150
	O173	O	0.231413	-0.289405	0.456112
	O174	O	0.000020	-0.124785	0.466147
	O175	O	0.250016	-0.374364	0.284423
	C176	C	0.196181	-0.284028	0.440114
	C177	C	0.205301	-0.374164	0.442201
	C178	C	0.196419	-0.464367	0.439348
	C179	C	0.178825	-0.464447	0.435161
	C180	C	0.169695	-0.374447	0.433072
	C181	C	0.178587	-0.284103	0.435842
	C182	C	0.150831	-0.374821	0.423773
	C183	C	0.224097	-0.373652	0.451698
	C184	C	0.099093	-0.374063	0.423803
	C185	C	0.080305	-0.374238	0.433097
	C186	C	0.071183	-0.284342	0.434894
	C187	C	0.053584	-0.284640	0.439134
	C188	C	0.044662	-0.374936	0.442077
	C189	C	0.053813	-0.464806	0.440329
	C190	C	0.071401	-0.464523	0.436027
	C191	C	0.025838	-0.374960	0.451561
	C192	C	0.099160	-0.124001	0.326303
	C193	C	0.080330	-0.124171	0.317401
	C194	C	0.071188	-0.034111	0.315395
	C195	C	0.053563	-0.034366	0.311115
	C196	C	0.044679	-0.124812	0.308064
	C197	C	0.053834	-0.214794	0.310091
	C198	C	0.071417	-0.214564	0.314415
	C199	C	0.025866	-0.124885	0.298820
	C200	C	0.150867	-0.124647	0.326430
	C201	C	0.169693	-0.124632	0.317155
	C202	C	0.178822	-0.214586	0.315101
	C203	C	0.196416	-0.214321	0.310675
	C204	C	0.205323	-0.123923	0.308194
	C205	C	0.196201	-0.033893	0.309995
	C206	C	0.178580	-0.034123	0.314333
	C207	C	0.224098	-0.124232	0.298653
	H208	H	0.203249	-0.284478	0.309432
	H209	H	0.172151	-0.285084	0.317049
	H210	H	0.202920	-0.213691	0.441786
	H211	H	0.171699	-0.214079	0.434301
	H212	H	0.124958	-0.374558	0.304312
	H213	H	0.124857	-0.124031	0.445880
	H214	H	0.000058	-0.124625	0.429381
	H215	H	0.250001	-0.374908	0.321224
	H216	H	0.078268	-0.284943	0.315571
	H217	H	0.047112	-0.285197	0.308320
	H218	H	0.046722	-0.214616	0.440392
	H219	H	0.077900	-0.213961	0.433098
	H220	H	0.046667	0.035732	0.310140
	H221	H	0.077940	0.036290	0.317246
	H222	H	0.078251	-0.534572	0.434966
	H223	H	0.047101	-0.535018	0.442455
	H224	H	0.172142	-0.534915	0.433105
	H225	H	0.203265	-0.534302	0.440428
	H226	H	0.171707	0.036075	0.315674
	H227	H	0.202914	0.036308	0.308064
	Al228	Al	0.124955	0.000641	0.375108
	Al229	Al	0.125077	0.250505	0.374947
	Al230	Al	-0.000067	0.250584	0.250196
	Al231	Al	-0.000065	0.000621	0.250156
	O232	O	0.143523	0.041293	0.419461
	O233	O	0.125057	0.125409	0.340853
	O234	O	0.124940	0.375398	0.409107
	O235	O	0.231547	0.041621	0.455372
	O236	O	0.106545	0.041901	0.419921
	O237	O	0.018574	0.040484	0.455966
	O238	O	0.106404	0.210030	0.419073
	O239	O	0.106651	0.291792	0.329945
	O240	O	0.018582	0.291016	0.294381
	O241	O	0.143518	0.209600	0.419679
	O242	O	0.143546	0.291054	0.330534
	O243	O	0.231625	0.291919	0.295145
	O244	O	0.018349	0.208875	0.455032
	O245	O	0.106395	0.460375	0.330784
	O246	O	0.018368	0.459236	0.295303
	O247	O	0.231420	0.460060	0.294379
	O248	O	0.143308	0.459383	0.330010
	O249	O	0.231445	0.210128	0.456136
	O250	O	0.000096	0.375150	0.465856
	O251	O	0.250103	0.126053	0.284237
	C252	C	0.196223	0.216025	0.440257
	C253	C	0.205311	0.125959	0.442443
	C254	C	0.196408	0.035549	0.439541
	C255	C	0.178831	0.035407	0.435160
	C256	C	0.169740	0.125515	0.432958
	C257	C	0.178637	0.215953	0.435752
	C258	C	0.150909	0.125331	0.423575
	C259	C	0.224125	0.126054	0.451589
	C260	C	0.099103	0.126104	0.423739
	C261	C	0.080289	0.126066	0.433084
	C262	C	0.071130	0.215963	0.434531
	C263	C	0.053551	0.215277	0.438891
	C264	C	0.044646	0.125129	0.441969
	C265	C	0.053785	0.035219	0.440345
	C266	C	0.071385	0.035834	0.436133
	C267	C	0.025852	0.124716	0.451586
	C268	C	0.099100	0.375854	0.326482
	C269	C	0.080332	0.375783	0.316986
	C270	C	0.071206	0.465749	0.315473
	C271	C	0.053618	0.465349	0.311211
	C272	C	0.044688	0.375265	0.308031
	C273	C	0.053793	0.285119	0.309626
	C274	C	0.071426	0.285536	0.314000
	C275	C	0.025875	0.375179	0.298702
	C276	C	0.150801	0.375249	0.326293
	C277	C	0.169632	0.375507	0.317076
	C278	C	0.178752	0.285481	0.315186
	C279	C	0.196346	0.285617	0.310961
	C280	C	0.205312	0.375656	0.308137
	C281	C	0.196202	0.465787	0.310150
	C282	C	0.178615	0.465609	0.314338
	C283	C	0.224149	0.376030	0.298947
	H284	H	0.203214	0.215363	0.309597
	H285	H	0.172033	0.215196	0.317022
	H286	H	0.202983	0.286447	0.442277
	H287	H	0.171786	0.286138	0.434535
	H288	H	0.124975	0.124901	0.304108
	H289	H	0.124918	0.375578	0.445645
	H290	H	0.000077	0.374863	0.429058
	H291	H	0.250203	0.126036	0.321019
	H292	H	0.078324	0.215532	0.315203
	H293	H	0.047092	0.214420	0.307482
	H294	H	0.046612	0.285311	0.439544
	H295	H	0.077731	0.286526	0.431850
	H296	H	0.046770	0.535793	0.310109
	H297	H	0.077819	0.536428	0.317615
	H298	H	0.078296	-0.034385	0.434619
	H299	H	0.047087	-0.035218	0.442021
	H300	H	0.172084	-0.034631	0.433475
	H301	H	0.203257	-0.034742	0.440962
	H302	H	0.171743	0.535835	0.315383
	H303	H	0.202953	0.536110	0.308286
	Al304	Al	0.124978	-0.498994	0.625191
	Al305	Al	0.124962	-0.249145	0.625167
	Al306	Al	-0.000053	-0.249740	0.500136
	Al307	Al	-0.000034	-0.499720	0.499882
	O308	O	0.143546	-0.458610	0.669710
	O309	O	0.124967	-0.374081	0.591262
	O310	O	0.125003	-0.124305	0.659165
	O311	O	0.231549	-0.457655	0.705089
	O312	O	0.106513	-0.457913	0.669983
	O313	O	0.018520	-0.458919	0.705842
	O314	O	0.106455	-0.289340	0.669758
	O315	O	0.106570	-0.208260	0.580167
	O316	O	0.018526	-0.209739	0.544570
	O317	O	0.143333	-0.290301	0.670115
	O318	O	0.143434	-0.208582	0.580385
	O319	O	0.231590	-0.208278	0.545213
	O320	O	0.018378	-0.290540	0.705381
	O321	O	0.106392	-0.039951	0.581118
	O322	O	0.018312	-0.041371	0.545341
	O323	O	0.231412	-0.039952	0.544601
	O324	O	0.143372	-0.040545	0.580275
	O325	O	0.231442	-0.289275	0.705509
	O326	O	0.000039	-0.124072	0.715949
	O327	O	0.250025	-0.374883	0.534387
	C328	C	0.196175	-0.283648	0.690395
	C329	C	0.205297	-0.373657	0.692394
	C330	C	0.196335	-0.463924	0.689744
	C331	C	0.178738	-0.464091	0.685308
	C332	C	0.169645	-0.373957	0.683174
	C333	C	0.178581	-0.283806	0.685990
	C334	C	0.150815	-0.374353	0.674041
	C335	C	0.224110	-0.373438	0.701531
	C336	C	0.099114	-0.373573	0.673938
	C337	C	0.080339	-0.373593	0.683511
	C338	C	0.071182	-0.283730	0.684977
	C339	C	0.053595	-0.284026	0.689266
	C340	C	0.044657	-0.374305	0.692137
	C341	C	0.053826	-0.464170	0.690544
	C342	C	0.071412	-0.463981	0.686266
	C343	C	0.025848	-0.374724	0.701667
	C344	C	0.099081	-0.124004	0.576540
	C345	C	0.080269	-0.124215	0.567149
	C346	C	0.071103	-0.034304	0.565581
	C347	C	0.053495	-0.034645	0.561275
	C348	C	0.044634	-0.125060	0.558220
	C349	C	0.053781	-0.214873	0.559736
	C350	C	0.071378	-0.214368	0.564021
	C351	C	0.025818	-0.125281	0.549035
	C352	C	0.150804	-0.124499	0.576294
	C353	C	0.169660	-0.124609	0.567254
	C354	C	0.178793	-0.214544	0.565013
	C355	C	0.196360	-0.214195	0.560914
	C356	C	0.205316	-0.124187	0.558392
	C357	C	0.196209	-0.034162	0.560304
	C358	C	0.178608	-0.034426	0.564590
	C359	C	0.224134	-0.124131	0.549008
	H360	H	0.203235	-0.284255	0.559756
	H361	H	0.172146	-0.285042	0.566773
	H362	H	0.202889	-0.213110	0.691907
	H363	H	0.171750	-0.213592	0.684454
	H364	H	0.124823	-0.374373	0.554436
	H365	H	0.125163	-0.124614	0.695756
	H366	H	0.000099	-0.124414	0.679430
	H367	H	0.250285	-0.375303	0.571102
	H368	H	0.078253	-0.284668	0.564895
	H369	H	0.047126	-0.285373	0.557269
	H370	H	0.046740	-0.213846	0.690484
	H371	H	0.077877	-0.213517	0.682837
	H372	H	0.046623	0.035385	0.560034
	H373	H	0.077802	0.036166	0.567652
	H374	H	0.078331	-0.534011	0.685029
	H375	H	0.047084	-0.534363	0.692836
	H376	H	0.171987	-0.534157	0.683130
	H377	H	0.203196	-0.534160	0.690740
	H378	H	0.171696	0.035770	0.565994
	H379	H	0.202956	0.036052	0.558583
	Al380	Al	0.124956	0.000963	0.625362
	Al381	Al	0.124971	0.250730	0.624958
	Al382	Al	0.000051	0.250210	0.499999
	Al383	Al	-0.000036	0.000011	0.500226
	O384	O	0.143589	0.041257	0.669257
	O385	O	0.125001	0.125734	0.591070
	O386	O	0.125050	0.375820	0.659272
	O387	O	0.231631	0.042533	0.704826
	O388	O	0.106579	0.041888	0.670274
	O389	O	0.018540	0.040960	0.705763
	O390	O	0.106453	0.210457	0.669597
	O391	O	0.106578	0.291750	0.580643
	O392	O	0.018581	0.290490	0.544278
	O393	O	0.143393	0.209718	0.669665
	O394	O	0.143515	0.291088	0.580685
	O395	O	0.231584	0.292044	0.545278
	O396	O	0.018332	0.209454	0.705078
	O397	O	0.106500	0.460201	0.580722
	O398	O	0.018388	0.458828	0.544803
	O399	O	0.231430	0.460172	0.544637
	O400	O	0.143384	0.459491	0.580324
	O401	O	0.231416	0.210980	0.705626
	O402	O	0.000031	0.375847	0.716266
	O403	O	0.249912	0.125534	0.534689
	C404	C	0.196192	0.216561	0.690372
	C405	C	0.205324	0.126526	0.692328
	C406	C	0.196381	0.036297	0.689596
	C407	C	0.178797	0.035954	0.685265
	C408	C	0.169665	0.125931	0.683340
	C409	C	0.178613	0.216162	0.686088
	C410	C	0.150870	0.125531	0.673639
	C411	C	0.224109	0.126703	0.701380
	C412	C	0.099164	0.126088	0.674178
	C413	C	0.080289	0.126025	0.683178
	C414	C	0.071181	0.216201	0.684880
	C415	C	0.053573	0.216087	0.689198
	C416	C	0.044672	0.125665	0.692395
	C417	C	0.053782	0.035511	0.690380
	C418	C	0.071372	0.035612	0.686113
	C419	C	0.025829	0.125523	0.701266
	C420	C	0.099146	0.376121	0.576739
	C421	C	0.080331	0.375880	0.567308
	C422	C	0.071206	0.465802	0.565418
	C423	C	0.053611	0.465412	0.561025
	C424	C	0.044705	0.375164	0.558016
	C425	C	0.053858	0.285290	0.559455
	C426	C	0.071447	0.285677	0.564056
	C427	C	0.025884	0.374647	0.548621
	C428	C	0.150850	0.375364	0.576473
	C429	C	0.169647	0.375577	0.567271
	C430	C	0.178741	0.285577	0.565172
	C431	C	0.196335	0.285761	0.560889
	C432	C	0.205275	0.375967	0.558080
	C433	C	0.196172	0.465934	0.560136
	C434	C	0.178602	0.465727	0.564408
	C435	C	0.224073	0.376026	0.548994
	H436	H	0.203189	0.215631	0.559775
	H437	H	0.171992	0.215315	0.567027
	H438	H	0.202894	0.286665	0.692177
	H439	H	0.171757	0.286243	0.684646
	H440	H	0.125177	0.125475	0.554435
	H441	H	0.125297	0.375950	0.695936
	H442	H	0.000219	0.375802	0.679544
	H443	H	0.249875	0.125911	0.571324
	H444	H	0.078324	0.215586	0.565097
	H445	H	0.047200	0.214689	0.556929
	H446	H	0.046676	0.286133	0.690060
	H447	H	0.077962	0.286377	0.682863
	H448	H	0.046759	0.535647	0.559780
	H449	H	0.077885	0.536128	0.567446
	H450	H	0.078194	-0.034501	0.684848
	H451	H	0.047073	-0.035051	0.692205
	H452	H	0.172101	-0.034415	0.683054
	H453	H	0.203260	-0.033890	0.690805
	H454	H	0.171781	0.535889	0.565724
	H455	H	0.202907	0.536337	0.558503
	Al456	Al	0.124950	-0.498410	0.875188
	Al457	Al	0.124990	-0.248392	0.875118
	Al458	Al	0.000041	-0.249182	0.750079
	Al459	Al	-0.000004	-0.499144	0.750175
	O460	O	0.143505	-0.458364	0.919418
	O461	O	0.124945	-0.373228	0.840976
	O462	O	0.125004	-0.123393	0.909263
	O463	O	0.231626	-0.457383	0.955130
	O464	O	0.106646	-0.456586	0.920410
	O465	O	0.018563	-0.458964	0.955464
	O466	O	0.106465	-0.288453	0.919237
	O467	O	0.106654	-0.206737	0.829886
	O468	O	0.018590	-0.208582	0.794428
	O469	O	0.143364	-0.289856	0.919884
	O470	O	0.143548	-0.207915	0.830844
	O471	O	0.231623	-0.207230	0.794746
	O472	O	0.018347	-0.290512	0.954796
	O473	O	0.106374	-0.038192	0.831150
	O474	O	0.018384	-0.040348	0.794886
	O475	O	0.231384	-0.038481	0.793966
	O476	O	0.143398	-0.039408	0.830568
	O477	O	0.231547	-0.289137	0.955151
	O478	O	0.000051	-0.123853	0.966101
	O479	O	0.250004	-0.374059	0.784097
	C480	C	0.196186	-0.283317	0.939648
	C481	C	0.205343	-0.373199	0.941771
	C482	C	0.196399	-0.463535	0.938977
	C483	C	0.178789	-0.463921	0.934777
	C484	C	0.169639	-0.373994	0.933052
	C485	C	0.178581	-0.283624	0.935445
	C486	C	0.150817	-0.374190	0.923640
	C487	C	0.224191	-0.373136	0.951173
	C488	C	0.099180	-0.372625	0.923912
	C489	C	0.080363	-0.373041	0.933403
	C490	C	0.071123	-0.283253	0.935220
	C491	C	0.053524	-0.283901	0.939327
	C492	C	0.044660	-0.374209	0.942015
	C493	C	0.053891	-0.464095	0.940605
	C494	C	0.071499	-0.463563	0.936387
	C495	C	0.025860	-0.374644	0.951162
	C496	C	0.099134	-0.122640	0.826535
	C497	C	0.080333	-0.122952	0.817569
	C498	C	0.071150	-0.033034	0.815856
	C499	C	0.053563	-0.033454	0.811397
	C500	C	0.044688	-0.123995	0.808324
	C501	C	0.053905	-0.213824	0.809841
	C502	C	0.071458	-0.213349	0.814267
	C503	C	0.025884	-0.124500	0.798866
	C504	C	0.150879	-0.123567	0.826644
	C505	C	0.169680	-0.123561	0.817127
	C506	C	0.178787	-0.213729	0.814939
	C507	C	0.196390	-0.213674	0.810495
	C508	C	0.205323	-0.123256	0.807932
	C509	C	0.196199	-0.033136	0.809941
	C510	C	0.178616	-0.033298	0.814405
	C511	C	0.224110	-0.123005	0.798450
	H512	H	0.203235	-0.283840	0.808870
	H513	H	0.172018	-0.284108	0.816561
	H514	H	0.202900	-0.212909	0.941510
	H515	H	0.171724	-0.213366	0.933933
	H516	H	0.124740	-0.373154	0.804301
	H517	H	0.125311	-0.123494	0.946029
	H518	H	0.000232	-0.123910	0.929288
	H519	H	0.250016	-0.374469	0.820766
	H520	H	0.078348	-0.283511	0.815381
	H521	H	0.047178	-0.284209	0.807667
	H522	H	0.046608	-0.213802	0.940343
	H523	H	0.077785	-0.212629	0.933211
	H524	H	0.046617	0.036528	0.810245
	H525	H	0.077893	0.037233	0.818113
	H526	H	0.078460	-0.533459	0.935363
	H527	H	0.047192	-0.534509	0.942706
	H528	H	0.172085	-0.534318	0.932737
	H529	H	0.203248	-0.533707	0.940222
	H530	H	0.171756	0.037112	0.815658
	H531	H	0.202932	0.037216	0.807902
	Al532	Al	0.124976	0.001493	0.875362
	Al533	Al	0.124943	0.251599	0.875431
	Al534	Al	-0.000047	0.250722	0.750081
	Al535	Al	-0.000012	0.000700	0.749910
	O536	O	0.143520	0.042224	0.919640
	O537	O	0.124927	0.126363	0.841176
	O538	O	0.125004	0.376768	0.909332
	O539	O	0.231661	0.042394	0.955065
	O540	O	0.106562	0.042666	0.920247
	O541	O	0.018612	0.041178	0.955956
	O542	O	0.106438	0.210996	0.919726
	O543	O	0.106556	0.292483	0.830376
	O544	O	0.018545	0.291035	0.794709
	O545	O	0.143435	0.210475	0.920104
	O546	O	0.143568	0.291479	0.831169
	O547	O	0.231623	0.292744	0.794874
	O548	O	0.018395	0.209400	0.955233
	O549	O	0.106436	0.460889	0.830655
	O550	O	0.018344	0.459585	0.794975
	O551	O	0.231405	0.461045	0.793866
	O552	O	0.143371	0.460098	0.829968
	O553	O	0.231440	0.210650	0.955479
	O554	O	0.000052	0.375769	0.965906
	O555	O	0.249916	0.126385	0.784084
	C556	C	0.196273	0.216159	0.939922
	C557	C	0.205336	0.126001	0.942173
	C558	C	0.196409	0.035949	0.939129
	C559	C	0.178788	0.036092	0.934867
	C560	C	0.169700	0.126252	0.932994
	C561	C	0.178661	0.216229	0.935574
	C562	C	0.150886	0.126347	0.923877
	C563	C	0.224148	0.126390	0.951225
	C564	C	0.099128	0.126879	0.923959
	C565	C	0.080322	0.126463	0.933350
	C566	C	0.071171	0.216324	0.934979
	C567	C	0.053571	0.215980	0.939150
	C568	C	0.044686	0.125671	0.942137
	C569	C	0.053830	0.035869	0.940418
	C570	C	0.071422	0.036244	0.936167
	C571	C	0.025873	0.125544	0.951347
	C572	C	0.099085	0.376821	0.826526
	C573	C	0.080267	0.376506	0.817160
	C574	C	0.071107	0.466444	0.815595
	C575	C	0.053515	0.466084	0.811246
	C576	C	0.044626	0.375846	0.808394
	C577	C	0.053758	0.285886	0.809889
	C578	C	0.071370	0.286205	0.814289
	C579	C	0.025820	0.375506	0.798924
	C580	C	0.150833	0.375941	0.826474
	C581	C	0.169656	0.375974	0.817082
	C582	C	0.178773	0.285786	0.815104
	C583	C	0.196359	0.285984	0.810896
	C584	C	0.205311	0.376370	0.808042
	C585	C	0.196197	0.466519	0.810273
	C586	C	0.178619	0.466314	0.814527
	C587	C	0.224132	0.376754	0.798574
	H588	H	0.203239	0.216056	0.809505
	H589	H	0.172030	0.215503	0.816929
	H590	H	0.202993	0.286425	0.941897
	H591	H	0.171821	0.286655	0.934377
	H592	H	0.124588	0.126351	0.804582
	H593	H	0.125361	0.376632	0.945974
	H594	H	0.000172	0.375661	0.929209
	H595	H	0.249669	0.126085	0.820748
	H596	H	0.078287	0.216229	0.815207
	H597	H	0.047076	0.215427	0.807531
	H598	H	0.046744	0.286273	0.940706
	H599	H	0.077903	0.286693	0.933373
	H600	H	0.046656	0.536223	0.810154
	H601	H	0.077733	0.537083	0.817725
	H602	H	0.078278	-0.033977	0.935529
	H603	H	0.047128	-0.034457	0.942934
	H604	H	0.172082	-0.034236	0.933172
	H605	H	0.203250	-0.034477	0.940237
	H606	H	0.171717	0.536536	0.815908
	H607	H	0.202935	0.536860	0.808429
	Al608	Al	0.375026	-0.499948	0.125137
	Al609	Al	0.374992	-0.250058	0.124904
	Al610	Al	0.250002	-0.248528	-0.000068
	Al611	Al	0.250069	-0.498419	0.000021
	O612	O	0.393509	-0.459508	0.169610
	O613	O	0.374903	-0.375213	0.090951
	O614	O	0.375002	-0.125159	0.158899
	O615	O	0.481566	-0.459961	0.205365
	O616	O	0.356562	-0.458666	0.169892
	O617	O	0.268601	-0.458946	0.205918
	O618	O	0.356458	-0.290350	0.169431
	O619	O	0.356692	-0.209115	0.079611
	O620	O	0.268531	-0.208027	0.044347
	O621	O	0.393491	-0.291226	0.169459
	O622	O	0.393573	-0.210034	0.080400
	O623	O	0.481599	-0.209380	0.044325
	O624	O	0.268431	-0.290580	0.205415
	O625	O	0.356542	-0.040691	0.080362
	O626	O	0.268465	-0.039608	0.044944
	O627	O	0.481453	-0.040916	0.044014
	O628	O	0.393464	-0.041284	0.080185
	O629	O	0.481538	-0.291440	0.205270
	O630	O	0.249994	-0.124410	0.216177
	O631	O	0.500078	-0.375955	0.033750
	C632	C	0.446254	-0.285548	0.190092
	C633	C	0.455346	-0.375723	0.191968
	C634	C	0.446367	-0.465798	0.189262
	C635	C	0.428762	-0.465508	0.185079
	C636	C	0.419704	-0.375350	0.182948
	C637	C	0.428670	-0.285262	0.185810
	C638	C	0.400893	-0.375424	0.173674
	C639	C	0.474172	-0.375546	0.201377
	C640	C	0.349109	-0.374578	0.173685
	C641	C	0.330307	-0.374640	0.182925
	C642	C	0.321193	-0.284682	0.184941
	C643	C	0.303621	-0.284787	0.189324
	C644	C	0.294675	-0.375050	0.192120
	C645	C	0.303777	-0.465161	0.190100
	C646	C	0.321377	-0.464956	0.185720
	C647	C	0.275891	-0.374699	0.201515
	C648	C	0.349231	-0.124928	0.076162
	C649	C	0.330369	-0.124687	0.067126
	C650	C	0.321286	-0.034424	0.065107
	C651	C	0.303673	-0.034407	0.060813
	C652	C	0.294715	-0.124503	0.058228
	C653	C	0.303801	-0.214695	0.060157
	C654	C	0.321396	-0.214745	0.064519
	C655	C	0.275898	-0.124067	0.048652
	C656	C	0.400846	-0.125648	0.076101
	C657	C	0.419701	-0.125687	0.066813
	C658	C	0.428806	-0.215979	0.064991
	C659	C	0.446412	-0.215891	0.060744
	C660	C	0.455318	-0.125482	0.057776
	C661	C	0.446234	-0.035207	0.060036
	C662	C	0.428628	-0.035361	0.064224
	C663	C	0.474148	-0.125203	0.048259
	H664	H	0.453315	-0.286065	0.059330
	H665	H	0.422057	-0.286119	0.066818
	H666	H	0.453006	-0.215337	0.191663
	H667	H	0.421826	-0.214970	0.183967
	H668	H	0.374572	-0.375348	0.054267
	H669	H	0.374900	-0.125085	0.195635
	H670	H	0.250033	-0.124634	0.179448
	H671	H	0.500256	-0.375527	0.070287
	H672	H	0.328254	-0.285010	0.065775
	H673	H	0.297080	-0.284984	0.058323
	H674	H	0.296785	-0.214404	0.190559
	H675	H	0.327941	-0.214302	0.183045
	H676	H	0.296798	0.035552	0.059406
	H677	H	0.328009	0.035898	0.066924
	H678	H	0.328255	-0.535123	0.184278
	H679	H	0.297021	-0.535552	0.192014
	H680	H	0.422020	-0.535676	0.182924
	H681	H	0.453219	-0.535906	0.190089
	H682	H	0.421751	0.034808	0.065492
	H683	H	0.452974	0.035057	0.058206
	Al684	Al	0.375027	0.000177	0.124953
	Al685	Al	0.375016	0.250164	0.125120
	Al686	Al	0.250011	0.251195	-0.000180
	Al687	Al	0.250030	0.001295	0.000066
	O688	O	0.393460	0.040520	0.169887
	O689	O	0.375018	0.125194	0.091076
	O690	O	0.374945	0.375428	0.159422
	O691	O	0.481519	0.040281	0.205760
	O692	O	0.356574	0.041416	0.169757
	O693	O	0.268597	0.040925	0.205773
	O694	O	0.356474	0.209601	0.169556
	O695	O	0.356550	0.291235	0.080534
	O696	O	0.268515	0.291674	0.044325
	O697	O	0.393393	0.208844	0.170255
	O698	O	0.393624	0.290240	0.081134
	O699	O	0.481553	0.290409	0.044171
	O700	O	0.268479	0.209392	0.205119
	O701	O	0.356535	0.459523	0.080585
	O702	O	0.268490	0.459958	0.044794
	O703	O	0.481501	0.458610	0.044257
	O704	O	0.393416	0.458430	0.080432
	O705	O	0.481544	0.208401	0.205202
	O706	O	0.250083	0.375947	0.216083
	O707	O	0.500095	0.124046	0.033979
	C708	C	0.446265	0.214318	0.189950
	C709	C	0.455345	0.124261	0.192052
	C710	C	0.446378	0.034253	0.189090
	C711	C	0.428782	0.034405	0.184757
	C712	C	0.419673	0.124351	0.183205
	C713	C	0.428666	0.214198	0.185641
	C714	C	0.400866	0.124633	0.173692
	C715	C	0.474135	0.124300	0.201276
	C716	C	0.349135	0.125458	0.173744
	C717	C	0.330326	0.125440	0.183135
	C718	C	0.321226	0.215418	0.185099
	C719	C	0.303646	0.215332	0.189510
	C720	C	0.294707	0.125190	0.192174
	C721	C	0.303784	0.035157	0.190330
	C722	C	0.321363	0.035319	0.186089
	C723	C	0.275916	0.125200	0.201473
	C724	C	0.349140	0.375488	0.076439
	C725	C	0.330359	0.375672	0.067091
	C726	C	0.321246	0.465608	0.065005
	C727	C	0.303677	0.465581	0.060535
	C728	C	0.294730	0.375579	0.057490
	C729	C	0.303831	0.285629	0.059803
	C730	C	0.321427	0.285504	0.064308
	C731	C	0.275925	0.375681	0.048629
	C732	C	0.400901	0.374397	0.076534
	C733	C	0.419659	0.374305	0.066727
	C734	C	0.428772	0.284320	0.064692
	C735	C	0.446333	0.284660	0.060138
	C736	C	0.455302	0.374755	0.057394
	C737	C	0.446204	0.464689	0.059626
	C738	C	0.428608	0.464406	0.064070
	C739	C	0.474100	0.374586	0.047962
	H740	H	0.453152	0.214424	0.058785
	H741	H	0.422042	0.213824	0.066748
	H742	H	0.452974	0.284553	0.192603
	H743	H	0.421790	0.284433	0.184904
	H744	H	0.375135	0.124804	0.054178
	H745	H	0.374737	0.375317	0.196164
	H746	H	0.250013	0.376133	0.179188
	H747	H	0.500470	0.124174	0.070561
	H748	H	0.328283	0.215271	0.065390
	H749	H	0.297071	0.215449	0.057723
	H750	H	0.296778	0.285424	0.190765
	H751	H	0.327967	0.285567	0.183040
	H752	H	0.296863	0.535860	0.059223
	H753	H	0.327978	0.535800	0.066901
	H754	H	0.328202	-0.034728	0.184831
	H755	H	0.297068	-0.035254	0.192116
	H756	H	0.421992	-0.035827	0.183288
	H757	H	0.453173	-0.036044	0.190888
	H758	H	0.421757	0.534603	0.065652
	H759	H	0.452964	0.535006	0.057846
	Al760	Al	0.375015	-0.500285	0.375028
	Al761	Al	0.375014	-0.250489	0.375023
	Al762	Al	0.249950	-0.249279	0.250274
	Al763	Al	0.249996	-0.499464	0.250271
	O764	O	0.393527	-0.459907	0.419553
	O765	O	0.374988	-0.375287	0.341008
	O766	O	0.375024	-0.125212	0.408884
	O767	O	0.481626	-0.459491	0.455214
	O768	O	0.356602	-0.459139	0.419885
	O769	O	0.268586	-0.459347	0.455934
	O770	O	0.356498	-0.290670	0.419765
	O771	O	0.356493	-0.209539	0.330356
	O772	O	0.268465	-0.208893	0.294842
	O773	O	0.393399	-0.291394	0.419975
	O774	O	0.393507	-0.209901	0.330371
	O775	O	0.481499	-0.210253	0.294677
	O776	O	0.268383	-0.290887	0.455135
	O777	O	0.356470	-0.041085	0.330353
	O778	O	0.268402	-0.040713	0.295108
	O779	O	0.481515	-0.041915	0.294773
	O780	O	0.393398	-0.041558	0.330058
	O781	O	0.481425	-0.291169	0.455630
	O782	O	0.250026	-0.124569	0.466455
	O783	O	0.499936	-0.375962	0.284164
	C784	C	0.446203	-0.285445	0.439732
	C785	C	0.455290	-0.375520	0.441936
	C786	C	0.446320	-0.465850	0.439547
	C787	C	0.428708	-0.465847	0.435354
	C788	C	0.419655	-0.375699	0.433212
	C789	C	0.428603	-0.285483	0.435538
	C790	C	0.400863	-0.375666	0.423521
	C791	C	0.474130	-0.375350	0.451241
	C792	C	0.349159	-0.374988	0.423907
	C793	C	0.330320	-0.374832	0.433265
	C794	C	0.321221	-0.284629	0.435267
	C795	C	0.303618	-0.284641	0.439444
	C796	C	0.294680	-0.374878	0.442077
	C797	C	0.303786	-0.465142	0.440252
	C798	C	0.321383	-0.465055	0.436138
	C799	C	0.275857	-0.374909	0.451273
	C800	C	0.349119	-0.125179	0.326266
	C801	C	0.330289	-0.124934	0.316993
	C802	C	0.321225	-0.034722	0.315112
	C803	C	0.303639	-0.034579	0.310820
	C804	C	0.294637	-0.124556	0.308060
	C805	C	0.303703	-0.214833	0.310066
	C806	C	0.321294	-0.214990	0.314287
	C807	C	0.275828	-0.124996	0.298972
	C808	C	0.400835	-0.125843	0.326020
	C809	C	0.419659	-0.125884	0.316950
	C810	C	0.428721	-0.216068	0.314982
	C811	C	0.446308	-0.215810	0.310766
	C812	C	0.455291	-0.125796	0.308166
	C813	C	0.446209	-0.035665	0.310068
	C814	C	0.428620	-0.035710	0.314262
	C815	C	0.474089	-0.125967	0.298731
	H816	H	0.453193	-0.285994	0.309421
	H817	H	0.422018	-0.286291	0.316814
	H818	H	0.452961	-0.215393	0.441721
	H819	H	0.421817	-0.214949	0.434091
	H820	H	0.374946	-0.375294	0.304331
	H821	H	0.374814	-0.125332	0.445567
	H822	H	0.249852	-0.124454	0.429780
	H823	H	0.500194	-0.376912	0.320919
	H824	H	0.328155	-0.285456	0.315643
	H825	H	0.296892	-0.284844	0.308177
	H826	H	0.296734	-0.214694	0.440634
	H827	H	0.327895	-0.214025	0.433349
	H828	H	0.296823	0.035735	0.309550
	H829	H	0.327984	0.035430	0.316998
	H830	H	0.328287	-0.534999	0.435011
	H831	H	0.297071	-0.535538	0.441986
	H832	H	0.421913	-0.535898	0.433776
	H833	H	0.453115	-0.536152	0.441256
	H834	H	0.421775	0.034159	0.315485
	H835	H	0.452935	0.034668	0.308252
	Al836	Al	0.374956	-0.000340	0.374883
	Al837	Al	0.375003	0.249542	0.374981
	Al838	Al	0.250017	0.250848	0.250066
	Al839	Al	0.249978	0.000617	0.250285
	O840	O	0.393506	0.039716	0.419573
	O841	O	0.375010	0.124426	0.340915
	O842	O	0.374994	0.374510	0.408947
	O843	O	0.481503	0.040123	0.455378
	O844	O	0.356637	0.040627	0.419879
	O845	O	0.268529	0.040693	0.456181
	O846	O	0.356478	0.209044	0.419531
	O847	O	0.356583	0.290938	0.330196
	O848	O	0.268590	0.290829	0.294389
	O849	O	0.393371	0.207989	0.419823
	O850	O	0.393461	0.290176	0.330486
	O851	O	0.481509	0.289918	0.294108
	O852	O	0.268436	0.208746	0.455309
	O853	O	0.356413	0.459639	0.330633
	O854	O	0.268444	0.459327	0.295089
	O855	O	0.481510	0.458036	0.294394
	O856	O	0.393457	0.458480	0.330397
	O857	O	0.481416	0.208488	0.455557
	O858	O	0.249992	0.375223	0.466335
	O859	O	0.499946	0.124323	0.283888
	C860	C	0.446228	0.214487	0.440062
	C861	C	0.455283	0.124166	0.442170
	C862	C	0.446315	0.034183	0.439589
	C863	C	0.428725	0.033979	0.435269
	C864	C	0.419659	0.124209	0.432995
	C865	C	0.428632	0.214323	0.435764
	C866	C	0.400829	0.123974	0.423816
	C867	C	0.474108	0.124314	0.451413
	C868	C	0.349177	0.124835	0.423751
	C869	C	0.330373	0.124785	0.433347
	C870	C	0.321253	0.214754	0.435290
	C871	C	0.303656	0.214735	0.439593
	C872	C	0.294679	0.124412	0.442276
	C873	C	0.303831	0.034522	0.440438
	C874	C	0.321398	0.034700	0.435982
	C875	C	0.275868	0.124698	0.451580
	C876	C	0.349103	0.375162	0.326368
	C877	C	0.330299	0.375131	0.317219
	C878	C	0.321232	0.465389	0.315144
	C879	C	0.303657	0.465436	0.310836
	C880	C	0.294704	0.375142	0.308110
	C881	C	0.303772	0.284868	0.310298
	C882	C	0.321341	0.284893	0.314707
	C883	C	0.275895	0.375189	0.298633
	C884	C	0.400843	0.374244	0.326312
	C885	C	0.419675	0.374144	0.317303
	C886	C	0.428769	0.284162	0.315259
	C887	C	0.446357	0.284035	0.310839
	C888	C	0.455303	0.374232	0.307865
	C889	C	0.446240	0.464273	0.310092
	C890	C	0.428641	0.464335	0.314520
	C891	C	0.474115	0.374107	0.298374
	H892	H	0.453171	0.213803	0.309633
	H893	H	0.421992	0.213938	0.317261
	H894	H	0.452969	0.285076	0.441422
	H895	H	0.421721	0.284189	0.434090
	H896	H	0.375332	0.124846	0.304169
	H897	H	0.374724	0.374370	0.445571
	H898	H	0.249942	0.375139	0.429469
	H899	H	0.500058	0.124460	0.320515
	H900	H	0.328157	0.214737	0.316237
	H901	H	0.297041	0.214835	0.308521
	H902	H	0.296877	0.285068	0.441167
	H903	H	0.328092	0.284637	0.433443
	H904	H	0.296774	0.535687	0.309511
	H905	H	0.328008	0.535572	0.317116
	H906	H	0.328264	-0.035821	0.434649
	H907	H	0.297093	-0.035491	0.442572
	H908	H	0.422075	-0.036552	0.433174
	H909	H	0.453184	-0.035804	0.440634
	H910	H	0.421804	0.534627	0.315675
	H911	H	0.453006	0.534278	0.308172
	Al912	Al	0.374907	-0.500249	0.625270
	Al913	Al	0.375043	-0.249996	0.625173
	Al914	Al	0.249966	-0.249440	0.500546
	Al915	Al	0.249985	-0.499569	0.500151
	O916	O	0.393469	-0.459506	0.669877
	O917	O	0.375031	-0.375225	0.591249
	O918	O	0.374994	-0.124955	0.659173
	O919	O	0.481629	-0.459783	0.705416
	O920	O	0.356512	-0.458907	0.670122
	O921	O	0.268548	-0.458490	0.705742
	O922	O	0.356456	-0.290553	0.669330
	O923	O	0.356598	-0.208839	0.580215
	O924	O	0.268570	-0.209707	0.544544
	O925	O	0.393530	-0.291053	0.669749
	O926	O	0.393540	-0.210018	0.580812
	O927	O	0.481599	-0.209717	0.545021
	O928	O	0.268418	-0.290378	0.705232
	O929	O	0.356427	-0.040420	0.580632
	O930	O	0.268374	-0.041211	0.545335
	O931	O	0.481435	-0.041345	0.544340
	O932	O	0.393384	-0.041698	0.580550
	O933	O	0.481432	-0.291370	0.705918
	O934	O	0.249975	-0.123774	0.715797
	O935	O	0.500043	-0.375762	0.533902
	C936	C	0.446257	-0.285522	0.689726
	C937	C	0.455347	-0.375722	0.691988
	C938	C	0.446374	-0.465857	0.689565
	C939	C	0.428782	-0.465801	0.685215
	C940	C	0.419697	-0.375682	0.682899
	C941	C	0.428665	-0.285465	0.685214
	C942	C	0.400914	-0.375416	0.673496
	C943	C	0.474134	-0.375614	0.701520
	C944	C	0.349115	-0.374598	0.673913
	C945	C	0.330313	-0.374458	0.683255
	C946	C	0.321219	-0.284289	0.685388
	C947	C	0.303633	-0.284482	0.689601
	C948	C	0.294640	-0.374649	0.692226
	C949	C	0.303722	-0.464839	0.689874
	C950	C	0.321328	-0.464734	0.685637
	C951	C	0.275834	-0.374432	0.701410
	C952	C	0.349137	-0.124773	0.576524
	C953	C	0.330299	-0.125289	0.567500
	C954	C	0.321216	-0.035182	0.565448
	C955	C	0.303595	-0.034802	0.561165
	C956	C	0.294643	-0.124881	0.558586
	C957	C	0.303731	-0.215001	0.560634
	C958	C	0.321338	-0.215374	0.565067
	C959	C	0.275855	-0.125400	0.548932
	C960	C	0.400829	-0.125750	0.576376
	C961	C	0.419685	-0.125684	0.567125
	C962	C	0.428757	-0.215813	0.565015
	C963	C	0.446373	-0.215790	0.560662
	C964	C	0.455333	-0.125720	0.558167
	C965	C	0.446258	-0.035490	0.560307
	C966	C	0.428649	-0.035609	0.564616
	C967	C	0.474144	-0.125617	0.548675
	H968	H	0.453182	-0.285992	0.559404
	H969	H	0.422032	-0.285936	0.566945
	H970	H	0.453035	-0.215211	0.691571
	H971	H	0.421860	-0.215200	0.683451
	H972	H	0.375251	-0.375707	0.554603
	H973	H	0.375264	-0.125171	0.695975
	H974	H	0.249987	-0.123806	0.679114
	H975	H	0.499941	-0.375074	0.570718
	H976	H	0.328120	-0.285704	0.566592
	H977	H	0.297000	-0.285328	0.558771
	H978	H	0.296816	-0.213943	0.690876
	H979	H	0.328006	-0.214213	0.683647
	H980	H	0.296744	0.035610	0.559729
	H981	H	0.327995	0.035041	0.567108
	H982	H	0.328134	-0.535077	0.683989
	H983	H	0.296908	-0.534867	0.691327
	H984	H	0.422018	-0.535835	0.683546
	H985	H	0.453195	-0.536169	0.691242
	H986	H	0.421822	0.034756	0.566350
	H987	H	0.452987	0.034851	0.558732
	Al988	Al	0.374908	-0.000043	0.625154
	Al989	Al	0.375031	0.249967	0.625162
	Al990	Al	0.250009	0.250000	0.500502
	Al991	Al	0.249976	0.000503	0.500466
	O992	O	0.393543	0.040726	0.669443
	O993	O	0.375034	0.125114	0.591051
	O994	O	0.375001	0.375019	0.659277
	O995	O	0.481661	0.040293	0.705230
	O996	O	0.356584	0.040945	0.670176
	O997	O	0.268562	0.041445	0.705499
	O998	O	0.356544	0.209211	0.669921
	O999	O	0.356539	0.290972	0.580539
	O1000	O	0.268502	0.290678	0.544829
	O1001	O	0.393503	0.208981	0.670004
	O1002	O	0.393513	0.290131	0.580784
	O1003	O	0.481577	0.290265	0.544956
	O1004	O	0.268387	0.209629	0.704920
	O1005	O	0.356362	0.459370	0.580891
	O1006	O	0.268334	0.459047	0.545297
	O1007	O	0.481489	0.458717	0.544577
	O1008	O	0.393359	0.458623	0.580334
	O1009	O	0.481473	0.208627	0.706118
	O1010	O	0.249960	0.375958	0.715699
	O1011	O	0.499973	0.124397	0.534061
	C1012	C	0.446243	0.214385	0.689974
	C1013	C	0.455348	0.124277	0.692345
	C1014	C	0.446379	0.034168	0.689591
	C1015	C	0.428810	0.034142	0.685117
	C1016	C	0.419717	0.124302	0.682987
	C1017	C	0.428699	0.214384	0.685586
	C1018	C	0.400895	0.124676	0.673763
	C1019	C	0.474180	0.124383	0.701505
	C1020	C	0.349159	0.125128	0.674109
	C1021	C	0.330341	0.125423	0.683222
	C1022	C	0.321294	0.215626	0.685375
	C1023	C	0.303688	0.215805	0.689429
	C1024	C	0.294693	0.125775	0.691936
	C1025	C	0.303734	0.035706	0.689753
	C1026	C	0.321324	0.035541	0.685655
	C1027	C	0.275891	0.125703	0.701095
	C1028	C	0.349080	0.375073	0.576591
	C1029	C	0.330276	0.375110	0.567293
	C1030	C	0.321203	0.465320	0.565198
	C1031	C	0.303620	0.465271	0.560784
	C1032	C	0.294636	0.375149	0.558178
	C1033	C	0.303711	0.285036	0.560399
	C1034	C	0.321317	0.285001	0.564721
	C1035	C	0.275806	0.374953	0.549047
	C1036	C	0.400839	0.374434	0.576407
	C1037	C	0.419648	0.374463	0.566985
	C1038	C	0.428757	0.284278	0.564997
	C1039	C	0.446347	0.284240	0.560648
	C1040	C	0.455300	0.374457	0.557969
	C1041	C	0.446222	0.464621	0.560012
	C1042	C	0.428628	0.464682	0.564324
	C1043	C	0.474136	0.374548	0.548695
	H1044	H	0.453183	0.213814	0.559142
	H1045	H	0.421987	0.214131	0.566815
	H1046	H	0.452984	0.284482	0.691812
	H1047	H	0.421850	0.284416	0.684226
	H1048	H	0.375211	0.124793	0.554303
	H1049	H	0.374986	0.374922	0.696043
	H1050	H	0.250117	0.375402	0.679066
	H1051	H	0.500107	0.124971	0.570750
	H1052	H	0.328151	0.214733	0.566241
	H1053	H	0.296940	0.215022	0.558624
	H1054	H	0.296822	0.285915	0.690770
	H1055	H	0.328048	0.285929	0.683847
	H1056	H	0.296800	0.535570	0.559434
	H1057	H	0.327947	0.535501	0.567030
	H1058	H	0.328167	-0.034534	0.684299
	H1059	H	0.297032	-0.034681	0.691277
	H1060	H	0.422006	-0.036025	0.683264
	H1061	H	0.453241	-0.035880	0.691095
	H1062	H	0.421822	0.534965	0.565828
	H1063	H	0.453002	0.534739	0.558106
	Al1064	Al	0.375018	-0.499379	0.875078
	Al1065	Al	0.375011	-0.249430	0.875122
	Al1066	Al	0.250012	-0.248538	0.750012
	Al1067	Al	0.250000	-0.498845	0.749614
	O1068	O	0.393522	-0.459285	0.919695
	O1069	O	0.374936	-0.374259	0.841186
	O1070	O	0.374998	-0.124573	0.909148
	O1071	O	0.481648	-0.459404	0.954719
	O1072	O	0.356555	-0.458283	0.919704
	O1073	O	0.268545	-0.458209	0.955531
	O1074	O	0.356478	-0.290030	0.919708
	O1075	O	0.356473	-0.208854	0.830433
	O1076	O	0.268500	-0.208568	0.794232
	O1077	O	0.393456	-0.290902	0.919893
	O1078	O	0.393462	-0.209487	0.830562
	O1079	O	0.481579	-0.209774	0.795011
	O1080	O	0.268442	-0.289976	0.955233
	O1081	O	0.356446	-0.040368	0.830296
	O1082	O	0.268423	-0.039847	0.794715
	O1083	O	0.481451	-0.041255	0.794927
	O1084	O	0.393446	-0.041208	0.830329
	O1085	O	0.481578	-0.291012	0.955080
	O1086	O	0.250048	-0.123627	0.965800
	O1087	O	0.500067	-0.376277	0.784312
	C1088	C	0.446323	-0.285044	0.939503
	C1089	C	0.455378	-0.375239	0.941764
	C1090	C	0.446410	-0.465329	0.939318
	C1091	C	0.428792	-0.465166	0.935096
	C1092	C	0.419747	-0.375002	0.932802
	C1093	C	0.428716	-0.284893	0.935305
	C1094	C	0.400913	-0.375065	0.923782
	C1095	C	0.474202	-0.375197	0.950667
	C1096	C	0.349117	-0.374082	0.923789
	C1097	C	0.330316	-0.374377	0.932920
	C1098	C	0.321264	-0.284167	0.934834
	C1099	C	0.303679	-0.284071	0.939161
	C1100	C	0.294683	-0.374118	0.941845
	C1101	C	0.303736	-0.464374	0.939821
	C1102	C	0.321320	-0.464568	0.935669
	C1103	C	0.275857	-0.374007	0.951347
	C1104	C	0.349087	-0.124463	0.826380
	C1105	C	0.330259	-0.124449	0.817137
	C1106	C	0.321215	-0.034055	0.814513
	C1107	C	0.303626	-0.033904	0.810085
	C1108	C	0.294654	-0.124255	0.807945
	C1109	C	0.303717	-0.214617	0.809793
	C1110	C	0.321323	-0.214742	0.814236
	C1111	C	0.275840	-0.124235	0.798471
	C1112	C	0.400846	-0.125432	0.826230
	C1113	C	0.419648	-0.125507	0.816934
	C1114	C	0.428716	-0.215530	0.814574
	C1115	C	0.446331	-0.215648	0.810390
	C1116	C	0.455315	-0.125402	0.808115
	C1117	C	0.446224	-0.035414	0.810097
	C1118	C	0.428626	-0.035338	0.814280
	C1119	C	0.474114	-0.125700	0.798797
	H1120	H	0.453135	-0.285938	0.808986
	H1121	H	0.421935	-0.285687	0.816217
	H1122	H	0.453072	-0.214731	0.941103
	H1123	H	0.421925	-0.214634	0.933929
	H1124	H	0.374792	-0.374638	0.804790
	H1125	H	0.375303	-0.124170	0.945834
	H1126	H	0.250098	-0.123701	0.929012
	H1127	H	0.500266	-0.376824	0.820980
	H1128	H	0.328195	-0.284737	0.815880
	H1129	H	0.296954	-0.285029	0.808155
	H1130	H	0.296820	-0.213685	0.940244
	H1131	H	0.328053	-0.214020	0.932819
	H1132	H	0.296759	0.036347	0.808742
	H1133	H	0.327952	0.036378	0.816519
	H1134	H	0.328129	-0.534948	0.934151
	H1135	H	0.296952	-0.534275	0.941427
	H1136	H	0.422012	-0.535358	0.933557
	H1137	H	0.453233	-0.535421	0.940736
	H1138	H	0.421841	0.034967	0.815560
	H1139	H	0.452962	0.034821	0.808631
	Al1140	Al	0.374985	-0.000007	0.874784
	Al1141	Al	0.375061	0.250325	0.874866
	Al1142	Al	0.250011	0.251461	0.750051
	Al1143	Al	0.249989	0.001419	0.749764
	O1144	O	0.393507	0.040793	0.919602
	O1145	O	0.374900	0.125014	0.840862
	O1146	O	0.375043	0.375202	0.909040
	O1147	O	0.481614	0.040222	0.955381
	O1148	O	0.356601	0.041099	0.919894
	O1149	O	0.268537	0.041047	0.955280
	O1150	O	0.356535	0.209457	0.919817
	O1151	O	0.356607	0.291468	0.830096
	O1152	O	0.268592	0.291324	0.793972
	O1153	O	0.393583	0.208983	0.919297
	O1154	O	0.393475	0.291113	0.830497
	O1155	O	0.481578	0.290420	0.795356
	O1156	O	0.268459	0.209433	0.955305
	O1157	O	0.356483	0.459774	0.830669
	O1158	O	0.268412	0.459822	0.794472
	O1159	O	0.481410	0.458507	0.794759
	O1160	O	0.393410	0.459282	0.830185
	O1161	O	0.481539	0.208667	0.955108
	O1162	O	0.249982	0.376175	0.965903
	O1163	O	0.500080	0.123921	0.784435
	C1164	C	0.446324	0.214422	0.939484
	C1165	C	0.455379	0.124358	0.941833
	C1166	C	0.446397	0.034226	0.939440
	C1167	C	0.428825	0.034200	0.935114
	C1168	C	0.419742	0.124366	0.932808
	C1169	C	0.428743	0.214433	0.935074
	C1170	C	0.400924	0.124593	0.923344
	C1171	C	0.474184	0.124487	0.951073
	C1172	C	0.349182	0.125312	0.924002
	C1173	C	0.330348	0.125400	0.933266
	C1174	C	0.321279	0.215377	0.935271
	C1175	C	0.303660	0.215327	0.939442
	C1176	C	0.294693	0.125201	0.941925
	C1177	C	0.303775	0.035207	0.940039
	C1178	C	0.321404	0.035188	0.935790
	C1179	C	0.275878	0.125253	0.951297
	C1180	C	0.349146	0.375558	0.826519
	C1181	C	0.330307	0.375612	0.817433
	C1182	C	0.321233	0.465846	0.815012
	C1183	C	0.303623	0.465847	0.810442
	C1184	C	0.294678	0.375616	0.807931
	C1185	C	0.303768	0.285374	0.810088
	C1186	C	0.321351	0.285338	0.814630
	C1187	C	0.275855	0.375588	0.798331
	C1188	C	0.400848	0.375070	0.826277
	C1189	C	0.419652	0.374954	0.816840
	C1190	C	0.428699	0.284801	0.814479
	C1191	C	0.446298	0.284575	0.810423
	C1192	C	0.455277	0.374494	0.808160
	C1193	C	0.446251	0.464717	0.810631
	C1194	C	0.428658	0.464797	0.814761
	C1195	C	0.474095	0.374409	0.798920
	H1196	H	0.453119	0.214287	0.808712
	H1197	H	0.421978	0.214461	0.815846
	H1198	H	0.453077	0.284472	0.941272
	H1199	H	0.421902	0.284632	0.933482
	H1200	H	0.374506	0.125104	0.804003
	H1201	H	0.375165	0.375143	0.945709
	H1202	H	0.249824	0.376432	0.929340
	H1203	H	0.500316	0.123714	0.821257
	H1204	H	0.328153	0.215021	0.816234
	H1205	H	0.297035	0.214932	0.808291
	H1206	H	0.296855	0.285711	0.940624
	H1207	H	0.328000	0.285877	0.933399
	H1208	H	0.296769	0.536134	0.808843
	H1209	H	0.327996	0.536105	0.816753
	H1210	H	0.328248	-0.035082	0.934123
	H1211	H	0.297040	-0.035084	0.941624
	H1212	H	0.422063	-0.036104	0.933629
	H1213	H	0.453209	-0.036001	0.941086
	H1214	H	0.421808	0.535072	0.816367
	H1215	H	0.453004	0.534708	0.809048
	Al1216	Al	0.625028	-0.501293	0.125427
	Al1217	Al	0.624981	-0.251185	0.125239
	Al1218	Al	0.500048	-0.250870	-0.000293
	Al1219	Al	0.500031	-0.500637	-0.000402
	O1220	O	0.643575	-0.460927	0.169776
	O1221	O	0.624966	-0.376236	0.091254
	O1222	O	0.625007	-0.125815	0.159119
	O1223	O	0.731530	-0.459490	0.205152
	O1224	O	0.606678	-0.459436	0.170229
	O1225	O	0.518522	-0.459908	0.205440
	O1226	O	0.606464	-0.291057	0.169559
	O1227	O	0.606657	-0.210102	0.080019
	O1228	O	0.518560	-0.210520	0.044105
	O1229	O	0.643380	-0.292433	0.170059
	O1230	O	0.643625	-0.211217	0.081095
	O1231	O	0.731632	-0.208859	0.044938
	O1232	O	0.518446	-0.291653	0.205386
	O1233	O	0.606479	-0.041802	0.080726
	O1234	O	0.518429	-0.041905	0.044660
	O1235	O	0.731396	-0.040507	0.044115
	O1236	O	0.643329	-0.042762	0.079812
	O1237	O	0.731472	-0.291424	0.205305
	O1238	O	0.500009	-0.126021	0.216121
	O1239	O	0.749965	-0.375429	0.033964
	C1240	C	0.696183	-0.285515	0.189890
	C1241	C	0.705291	-0.375403	0.191858
	C1242	C	0.696378	-0.465743	0.188954
	C1243	C	0.678808	-0.466150	0.184732
	C1244	C	0.669670	-0.376241	0.182992
	C1245	C	0.678608	-0.285893	0.185568
	C1246	C	0.650883	-0.376582	0.173822
	C1247	C	0.724125	-0.375409	0.201013
	C1248	C	0.599191	-0.375474	0.173855
	C1249	C	0.580388	-0.375711	0.183237
	C1250	C	0.571273	-0.285659	0.184888
	C1251	C	0.553661	-0.285760	0.189174
	C1252	C	0.544713	-0.376003	0.191990
	C1253	C	0.553850	-0.466071	0.190109
	C1254	C	0.571445	-0.465985	0.185978
	C1255	C	0.525860	-0.375914	0.201450
	C1256	C	0.599189	-0.126013	0.076153
	C1257	C	0.580340	-0.125739	0.066838
	C1258	C	0.571231	-0.035713	0.065172
	C1259	C	0.553628	-0.035891	0.060748
	C1260	C	0.544709	-0.126139	0.057624
	C1261	C	0.553789	-0.216207	0.059821
	C1262	C	0.571405	-0.215944	0.064135
	C1263	C	0.525899	-0.126284	0.048284
	C1264	C	0.650844	-0.126741	0.076499
	C1265	C	0.669663	-0.126175	0.067125
	C1266	C	0.678834	-0.215866	0.065348
	C1267	C	0.696414	-0.215513	0.060904
	C1268	C	0.705291	-0.125232	0.058108
	C1269	C	0.696150	-0.035393	0.059847
	C1270	C	0.678538	-0.035854	0.064276
	C1271	C	0.724126	-0.124756	0.048499
	H1272	H	0.703284	-0.285716	0.059581
	H1273	H	0.672188	-0.286287	0.067396
	H1274	H	0.702911	-0.215235	0.191996
	H1275	H	0.671683	-0.215871	0.184682
	H1276	H	0.624754	-0.376408	0.054573
	H1277	H	0.624836	-0.126105	0.195764
	H1278	H	0.499891	-0.126597	0.179404
	H1279	H	0.750128	-0.375296	0.070605
	H1280	H	0.578263	-0.286140	0.065334
	H1281	H	0.547059	-0.286729	0.057835
	H1282	H	0.546753	-0.215662	0.190299
	H1283	H	0.577968	-0.215192	0.182611
	H1284	H	0.546823	0.034275	0.059451
	H1285	H	0.577938	0.034813	0.067146
	H1286	H	0.578295	-0.536218	0.184770
	H1287	H	0.547147	-0.536239	0.191997
	H1288	H	0.672113	-0.536443	0.183247
	H1289	H	0.703247	-0.535906	0.190460
	H1290	H	0.671671	0.034023	0.065586
	H1291	H	0.702836	0.035054	0.057579
	Al1292	Al	0.625029	-0.001170	0.124990
	Al1293	Al	0.625013	0.248804	0.125069
	Al1294	Al	0.500010	0.249142	-0.000317
	Al1295	Al	0.500002	-0.000816	-0.000138
	O1296	O	0.643591	0.039340	0.169311
	O1297	O	0.624970	0.123877	0.090954
	O1298	O	0.624996	0.373750	0.159399
	O1299	O	0.731601	0.040480	0.204968
	O1300	O	0.606581	0.040127	0.169739
	O1301	O	0.518570	0.039219	0.205683
	O1302	O	0.606474	0.208470	0.169454
	O1303	O	0.606583	0.290138	0.080322
	O1304	O	0.518473	0.289813	0.044417
	O1305	O	0.643381	0.207477	0.169979
	O1306	O	0.643639	0.288441	0.080993
	O1307	O	0.731605	0.290635	0.044856
	O1308	O	0.518455	0.207489	0.205319
	O1309	O	0.606468	0.458289	0.080929
	O1310	O	0.518338	0.458101	0.044834
	O1311	O	0.731414	0.458893	0.044213
	O1312	O	0.643350	0.456654	0.080259
	O1313	O	0.731495	0.208887	0.205375
	O1314	O	0.500036	0.374193	0.215543
	O1315	O	0.750018	0.124848	0.034087
	C1316	C	0.696225	0.214490	0.190014
	C1317	C	0.705370	0.124452	0.191684
	C1318	C	0.696431	0.034215	0.189237
	C1319	C	0.678822	0.033859	0.184999
	C1320	C	0.669690	0.123889	0.182903
	C1321	C	0.678615	0.214080	0.185766
	C1322	C	0.650884	0.123415	0.173641
	C1323	C	0.724161	0.124690	0.201145
	C1324	C	0.599147	0.124261	0.173710
	C1325	C	0.580356	0.124268	0.183194
	C1326	C	0.571217	0.214202	0.184971
	C1327	C	0.553635	0.213956	0.189109
	C1328	C	0.544696	0.123590	0.192132
	C1329	C	0.553831	0.033531	0.190137
	C1330	C	0.571425	0.033912	0.185876
	C1331	C	0.525898	0.123375	0.201285
	C1332	C	0.599143	0.374293	0.076383
	C1333	C	0.580328	0.374329	0.067012
	C1334	C	0.571189	0.464366	0.065478
	C1335	C	0.553582	0.463947	0.061017
	C1336	C	0.544646	0.373748	0.057842
	C1337	C	0.553795	0.283730	0.059914
	C1338	C	0.571387	0.284106	0.064284
	C1339	C	0.525808	0.373861	0.048518
	C1340	C	0.650863	0.372889	0.076278
	C1341	C	0.669680	0.373386	0.066993
	C1342	C	0.678846	0.283551	0.065193
	C1343	C	0.696483	0.284018	0.060889
	C1344	C	0.705311	0.374528	0.057872
	C1345	C	0.696132	0.464366	0.059695
	C1346	C	0.678522	0.463830	0.063924
	C1347	C	0.724121	0.374736	0.048630
	H1348	H	0.703422	0.214144	0.059875
	H1349	H	0.672180	0.213073	0.067238
	H1350	H	0.702893	0.284771	0.191819
	H1351	H	0.671759	0.284284	0.184375
	H1352	H	0.624962	0.123722	0.054400
	H1353	H	0.624956	0.373464	0.195962
	H1354	H	0.499653	0.374187	0.178979
	H1355	H	0.750276	0.124648	0.070614
	H1356	H	0.578272	0.213877	0.065460
	H1357	H	0.547130	0.213511	0.057969
	H1358	H	0.546773	0.283968	0.190221
	H1359	H	0.577955	0.284418	0.183082
	H1360	H	0.546688	0.534001	0.059825
	H1361	H	0.577893	0.534702	0.067615
	H1362	H	0.578319	-0.036152	0.184619
	H1363	H	0.547084	-0.036726	0.192004
	H1364	H	0.672129	-0.036292	0.183135
	H1365	H	0.703313	-0.035705	0.190533
	H1366	H	0.671640	0.534199	0.065037
	H1367	H	0.702799	0.534993	0.057849
	Al1368	Al	0.624999	-0.500939	0.374903
	Al1369	Al	0.625027	-0.251361	0.374717
	Al1370	Al	0.499991	-0.250872	0.250201
	Al1371	Al	0.499953	-0.501019	0.249666
	O1372	O	0.643593	-0.460761	0.419010
	O1373	O	0.625002	-0.375960	0.340900
	O1374	O	0.625035	-0.126038	0.409060
	O1375	O	0.731600	-0.459591	0.455717
	O1376	O	0.606733	-0.459501	0.420460
	O1377	O	0.518535	-0.460608	0.455520
	O1378	O	0.606500	-0.291116	0.419142
	O1379	O	0.606627	-0.209409	0.329976
	O1380	O	0.518458	-0.210162	0.295005
	O1381	O	0.643455	-0.292408	0.419499
	O1382	O	0.643562	-0.210519	0.330530
	O1383	O	0.731625	-0.209124	0.294614
	O1384	O	0.518429	-0.291975	0.455099
	O1385	O	0.606403	-0.041065	0.330940
	O1386	O	0.518396	-0.041878	0.295190
	O1387	O	0.731467	-0.040860	0.294296
	O1388	O	0.643441	-0.042092	0.330104
	O1389	O	0.731495	-0.291098	0.455670
	O1390	O	0.499899	-0.125525	0.465867
	O1391	O	0.749941	-0.375418	0.283965
	C1392	C	0.696200	-0.285742	0.440380
	C1393	C	0.705352	-0.375786	0.442238
	C1394	C	0.696440	-0.466196	0.439197
	C1395	C	0.678834	-0.466566	0.434772
	C1396	C	0.669717	-0.376450	0.432902
	C1397	C	0.678618	-0.286050	0.435998
	C1398	C	0.650909	-0.376590	0.423441
	C1399	C	0.724163	-0.375590	0.451594
	C1400	C	0.599205	-0.375423	0.423782
	C1401	C	0.580365	-0.375564	0.433364
	C1402	C	0.571219	-0.285597	0.435151
	C1403	C	0.553610	-0.285988	0.439488
	C1404	C	0.544709	-0.376286	0.442162
	C1405	C	0.553834	-0.466268	0.440238
	C1406	C	0.571441	-0.465945	0.436003
	C1407	C	0.525894	-0.376222	0.451436
	C1408	C	0.599179	-0.125372	0.326397
	C1409	C	0.580306	-0.125482	0.317184
	C1410	C	0.571120	-0.035507	0.315455
	C1411	C	0.553532	-0.035751	0.311229
	C1412	C	0.544639	-0.126256	0.308221
	C1413	C	0.553815	-0.216180	0.310044
	C1414	C	0.571396	-0.215868	0.314264
	C1415	C	0.525789	-0.126115	0.299131
	C1416	C	0.650878	-0.126237	0.326432
	C1417	C	0.669682	-0.126142	0.317069
	C1418	C	0.678861	-0.216053	0.315152
	C1419	C	0.696412	-0.215696	0.310765
	C1420	C	0.705331	-0.125364	0.307863
	C1421	C	0.696159	-0.035353	0.309832
	C1422	C	0.678579	-0.035675	0.314156
	C1423	C	0.724150	-0.125042	0.298501
	H1424	H	0.703327	-0.285563	0.309271
	H1425	H	0.672199	-0.286498	0.316931
	H1426	H	0.702898	-0.215505	0.442499
	H1427	H	0.671774	-0.215843	0.434982
	H1428	H	0.625131	-0.375532	0.304001
	H1429	H	0.625134	-0.126303	0.445603
	H1430	H	0.499610	-0.125270	0.429196
	H1431	H	0.749836	-0.375379	0.320785
	H1432	H	0.578260	-0.286118	0.315113
	H1433	H	0.547023	-0.286224	0.307733
	H1434	H	0.546726	-0.215897	0.440824
	H1435	H	0.577918	-0.214851	0.433200
	H1436	H	0.546680	0.034390	0.309848
	H1437	H	0.577902	0.034841	0.317183
	H1438	H	0.578341	-0.536098	0.434528
	H1439	H	0.547169	-0.536657	0.442130
	H1440	H	0.672103	-0.536801	0.432568
	H1441	H	0.703307	-0.536414	0.440266
	H1442	H	0.671645	0.034364	0.315339
	H1443	H	0.702911	0.034900	0.307735
	Al1444	Al	0.625004	-0.001196	0.375122
	Al1445	Al	0.624882	0.249178	0.374997
	Al1446	Al	0.499979	0.249073	0.249469
	Al1447	Al	0.500021	-0.000935	0.250229
	O1448	O	0.643655	0.039187	0.419029
	O1449	O	0.624959	0.124086	0.341034
	O1450	O	0.624991	0.373984	0.409266
	O1451	O	0.731610	0.040580	0.455513
	O1452	O	0.606677	0.040289	0.420230
	O1453	O	0.518497	0.039553	0.455775
	O1454	O	0.606459	0.208852	0.419709
	O1455	O	0.606508	0.290392	0.330425
	O1456	O	0.518466	0.289871	0.294355
	O1457	O	0.643371	0.207726	0.419890
	O1458	O	0.643534	0.289107	0.330800
	O1459	O	0.731505	0.290624	0.294390
	O1460	O	0.518381	0.207939	0.455058
	O1461	O	0.606356	0.458614	0.330817
	O1462	O	0.518409	0.458087	0.294604
	O1463	O	0.731455	0.458991	0.294308
	O1464	O	0.643326	0.457483	0.330001
	O1465	O	0.731436	0.208963	0.455906
	O1466	O	0.499974	0.374374	0.465846
	O1467	O	0.749955	0.124205	0.284076
	C1468	C	0.696222	0.214676	0.440049
	C1469	C	0.705355	0.124587	0.442010
	C1470	C	0.696421	0.034388	0.439207
	C1471	C	0.678836	0.034026	0.434851
	C1472	C	0.669701	0.124030	0.432961
	C1473	C	0.678606	0.214437	0.435776
	C1474	C	0.650875	0.123605	0.423503
	C1475	C	0.724144	0.124812	0.451559
	C1476	C	0.599181	0.124421	0.423991
	C1477	C	0.580362	0.124092	0.433219
	C1478	C	0.571191	0.214063	0.434992
	C1479	C	0.553583	0.214019	0.439164
	C1480	C	0.544667	0.123696	0.441959
	C1481	C	0.553812	0.033765	0.440173
	C1482	C	0.571445	0.033798	0.436049
	C1483	C	0.525813	0.123655	0.451121
	C1484	C	0.599002	0.374541	0.326637
	C1485	C	0.580209	0.374540	0.317274
	C1486	C	0.571092	0.464490	0.315391
	C1487	C	0.553491	0.464177	0.310932
	C1488	C	0.544616	0.373961	0.307911
	C1489	C	0.553723	0.284015	0.309905
	C1490	C	0.571314	0.284396	0.314467
	C1491	C	0.525834	0.373982	0.298418
	C1492	C	0.650825	0.373536	0.326294
	C1493	C	0.669667	0.374073	0.317034
	C1494	C	0.678776	0.284289	0.314868
	C1495	C	0.696363	0.284786	0.310522
	C1496	C	0.705278	0.374961	0.307738
	C1497	C	0.696140	0.464815	0.309896
	C1498	C	0.678570	0.464374	0.314329
	C1499	C	0.724080	0.374884	0.298424
	H1500	H	0.703253	0.214826	0.309284
	H1501	H	0.672043	0.214012	0.316974
	H1502	H	0.702940	0.285098	0.441942
	H1503	H	0.671704	0.284442	0.434403
	H1504	H	0.625283	0.124303	0.304249
	H1505	H	0.625103	0.373976	0.445842
	H1506	H	0.500138	0.374350	0.429205
	H1507	H	0.749714	0.124356	0.320980
	H1508	H	0.578241	0.214450	0.315710
	H1509	H	0.547054	0.213489	0.307671
	H1510	H	0.546745	0.284212	0.440263
	H1511	H	0.577929	0.284307	0.433161
	H1512	H	0.546601	0.534169	0.309710
	H1513	H	0.577704	0.535200	0.317554
	H1514	H	0.578315	-0.036464	0.435026
	H1515	H	0.547042	-0.036717	0.442086
	H1516	H	0.672179	-0.036461	0.433060
	H1517	H	0.703300	-0.035977	0.440656
	H1518	H	0.671734	0.534694	0.315773
	H1519	H	0.702830	0.535273	0.308234
	Al1520	Al	0.625005	-0.501566	0.625460
	Al1521	Al	0.624954	-0.251407	0.625515
	Al1522	Al	0.500012	-0.250775	0.499800
	Al1523	Al	0.499993	-0.500815	0.500040
	O1524	O	0.643626	-0.461261	0.669515
	O1525	O	0.624959	-0.376263	0.591363
	O1526	O	0.625073	-0.126113	0.659409
	O1527	O	0.731689	-0.459447	0.704662
	O1528	O	0.606610	-0.459789	0.670437
	O1529	O	0.518587	-0.460946	0.706084
	O1530	O	0.606437	-0.291408	0.670060
	O1531	O	0.606621	-0.210131	0.580729
	O1532	O	0.518488	-0.210526	0.544111
	O1533	O	0.643376	-0.292705	0.670358
	O1534	O	0.643500	-0.210966	0.581005
	O1535	O	0.731504	-0.209635	0.544779
	O1536	O	0.518362	-0.292586	0.705376
	O1537	O	0.606476	-0.041734	0.581162
	O1538	O	0.518424	-0.042100	0.544797
	O1539	O	0.731373	-0.041211	0.544488
	O1540	O	0.643401	-0.042473	0.580219
	O1541	O	0.731454	-0.291314	0.705652
	O1542	O	0.499936	-0.126246	0.716420
	O1543	O	0.749944	-0.375527	0.534601
	C1544	C	0.696169	-0.285480	0.689922
	C1545	C	0.705312	-0.375355	0.691919
	C1546	C	0.696393	-0.465617	0.689113
	C1547	C	0.678801	-0.466137	0.684868
	C1548	C	0.669660	-0.376325	0.683281
	C1549	C	0.678562	-0.286097	0.685857
	C1550	C	0.650885	-0.376682	0.673879
	C1551	C	0.724172	-0.375575	0.701235
	C1552	C	0.599131	-0.375560	0.674064
	C1553	C	0.580284	-0.375799	0.683205
	C1554	C	0.571156	-0.285854	0.684916
	C1555	C	0.553564	-0.286106	0.689343
	C1556	C	0.544655	-0.376538	0.692267
	C1557	C	0.553772	-0.466434	0.690125
	C1558	C	0.571344	-0.466080	0.685708
	C1559	C	0.525846	-0.376619	0.701733
	C1560	C	0.599162	-0.126011	0.576731
	C1561	C	0.580313	-0.126150	0.567369
	C1562	C	0.571219	-0.036120	0.565202
	C1563	C	0.553619	-0.036405	0.560719
	C1564	C	0.544674	-0.126608	0.557935
	C1565	C	0.553789	-0.216629	0.559883
	C1566	C	0.571385	-0.216383	0.564402
	C1567	C	0.525863	-0.126489	0.548508
	C1568	C	0.650819	-0.126852	0.576562
	C1569	C	0.669621	-0.126684	0.567242
	C1570	C	0.678769	-0.216598	0.565254
	C1571	C	0.696341	-0.216066	0.561034
	C1572	C	0.705255	-0.125581	0.558162
	C1573	C	0.696089	-0.035623	0.560037
	C1574	C	0.678518	-0.036181	0.564321
	C1575	C	0.724047	-0.125334	0.548884
	H1576	H	0.703257	-0.286030	0.559621
	H1577	H	0.672030	-0.286883	0.567019
	H1578	H	0.702859	-0.214876	0.691775
	H1579	H	0.671689	-0.216193	0.684441
	H1580	H	0.625055	-0.376017	0.554644
	H1581	H	0.625386	-0.125778	0.696038
	H1582	H	0.499538	-0.126960	0.679710
	H1583	H	0.750187	-0.375539	0.571088
	H1584	H	0.578214	-0.286758	0.565461
	H1585	H	0.547071	-0.286818	0.557757
	H1586	H	0.546746	-0.215716	0.690618
	H1587	H	0.577934	-0.215413	0.682845
	H1588	H	0.546813	0.034130	0.559286
	H1589	H	0.577975	0.034062	0.566926
	H1590	H	0.578181	-0.536553	0.684346
	H1591	H	0.547040	-0.536578	0.692038
	H1592	H	0.672160	-0.536553	0.682773
	H1593	H	0.703286	-0.535677	0.690448
	H1594	H	0.671571	0.033766	0.565314
	H1595	H	0.702787	0.034727	0.557985
	Al1596	Al	0.625034	-0.001184	0.625265
	Al1597	Al	0.624946	0.248590	0.625319
	Al1598	Al	0.499965	0.249301	0.499843
	Al1599	Al	0.499992	-0.000836	0.500098
	O1600	O	0.643594	0.038997	0.669862
	O1601	O	0.624997	0.123500	0.591249
	O1602	O	0.625062	0.373685	0.659722
	O1603	O	0.731617	0.040304	0.705343
	O1604	O	0.606632	0.040602	0.670123
	O1605	O	0.518547	0.039095	0.706166
	O1606	O	0.606414	0.208657	0.669712
	O1607	O	0.606600	0.289990	0.580499
	O1608	O	0.518535	0.289743	0.544265
	O1609	O	0.643438	0.207321	0.670027
	O1610	O	0.643446	0.289172	0.580778
	O1611	O	0.731508	0.290324	0.544995
	O1612	O	0.518404	0.207604	0.705418
	O1613	O	0.606393	0.458216	0.581815
	O1614	O	0.518384	0.457990	0.544885
	O1615	O	0.731384	0.458882	0.544593
	O1616	O	0.643360	0.457488	0.580024
	O1617	O	0.731521	0.208603	0.705327
	O1618	O	0.500000	0.373594	0.716292
	O1619	O	0.749892	0.124437	0.534388
	C1620	C	0.696226	0.214280	0.690037
	C1621	C	0.705368	0.124309	0.691968
	C1622	C	0.696462	0.033996	0.689121
	C1623	C	0.678887	0.033560	0.684912
	C1624	C	0.669733	0.123561	0.683142
	C1625	C	0.678633	0.213932	0.685921
	C1626	C	0.650917	0.123383	0.674070
	C1627	C	0.724205	0.124474	0.701175
	C1628	C	0.599111	0.124489	0.674008
	C1629	C	0.580309	0.124107	0.683294
	C1630	C	0.571137	0.213981	0.685187
	C1631	C	0.553548	0.213677	0.689419
	C1632	C	0.544645	0.123519	0.692315
	C1633	C	0.553793	0.033669	0.690326
	C1634	C	0.571375	0.034003	0.686100
	C1635	C	0.525861	0.123284	0.701611
	C1636	C	0.599100	0.373907	0.577031
	C1637	C	0.580304	0.374244	0.567434
	C1638	C	0.571181	0.464370	0.565220
	C1639	C	0.553595	0.464150	0.560849
	C1640	C	0.544639	0.373950	0.558087
	C1641	C	0.553763	0.283793	0.560135
	C1642	C	0.571349	0.284101	0.564552
	C1643	C	0.525853	0.373902	0.548676
	C1644	C	0.650804	0.373101	0.576383
	C1645	C	0.669628	0.373456	0.567062
	C1646	C	0.678785	0.283455	0.565347
	C1647	C	0.696396	0.283984	0.560965
	C1648	C	0.705253	0.374426	0.558100
	C1649	C	0.696112	0.464408	0.559849
	C1650	C	0.678518	0.463852	0.564217
	C1651	C	0.724051	0.374727	0.548513
	H1652	H	0.703290	0.214122	0.559936
	H1653	H	0.672076	0.213018	0.567621
	H1654	H	0.702963	0.284696	0.691904
	H1655	H	0.671760	0.284081	0.684856
	H1656	H	0.625003	0.123313	0.554481
	H1657	H	0.625104	0.373704	0.696230
	H1658	H	0.500046	0.373105	0.679516
	H1659	H	0.749892	0.124027	0.571038
	H1660	H	0.578273	0.214195	0.565875
	H1661	H	0.547061	0.213466	0.558139
	H1662	H	0.546648	0.283713	0.690459
	H1663	H	0.577803	0.284420	0.683170
	H1664	H	0.546695	0.534041	0.559440
	H1665	H	0.577919	0.534648	0.567021
	H1666	H	0.578279	-0.035983	0.684693
	H1667	H	0.547102	-0.036587	0.691968
	H1668	H	0.672171	-0.036805	0.683244
	H1669	H	0.703377	-0.036195	0.690389
	H1670	H	0.671653	0.533879	0.565681
	H1671	H	0.702820	0.534666	0.558021
	Al1672	Al	0.625077	-0.501491	0.874326
	Al1673	Al	0.625046	-0.251655	0.874793
	Al1674	Al	0.499996	-0.251568	0.750298
	Al1675	Al	0.499999	-0.501410	0.750383
	O1676	O	0.643677	-0.461158	0.918789
	O1677	O	0.624909	-0.376606	0.840371
	O1678	O	0.625026	-0.126610	0.908634
	O1679	O	0.731712	-0.458966	0.954723
	O1680	O	0.606561	-0.460217	0.919104
	O1681	O	0.518500	-0.460072	0.954862
	O1682	O	0.606455	-0.291858	0.919281
	O1683	O	0.606645	-0.210073	0.829739
	O1684	O	0.518574	-0.211133	0.794652
	O1685	O	0.643462	-0.292661	0.919480
	O1686	O	0.643536	-0.210892	0.830468
	O1687	O	0.731668	-0.209726	0.794952
	O1688	O	0.518499	-0.291830	0.955209
	O1689	O	0.606479	-0.041877	0.830380
	O1690	O	0.518356	-0.042609	0.795424
	O1691	O	0.731402	-0.041330	0.794156
	O1692	O	0.643441	-0.042655	0.829412
	O1693	O	0.731472	-0.290557	0.955512
	O1694	O	0.500066	-0.125902	0.965634
	O1695	O	0.749882	-0.375962	0.784135
	C1696	C	0.696185	-0.285721	0.940046
	C1697	C	0.705383	-0.375455	0.941793
	C1698	C	0.696500	-0.465999	0.938841
	C1699	C	0.678894	-0.466720	0.934370
	C1700	C	0.669743	-0.376700	0.932716
	C1701	C	0.678614	-0.286333	0.935598
	C1702	C	0.650955	-0.376978	0.923195
	C1703	C	0.724193	-0.374899	0.951201
	C1704	C	0.599101	-0.376213	0.923088
	C1705	C	0.580307	-0.376021	0.932838
	C1706	C	0.571215	-0.285938	0.934781
	C1707	C	0.553625	-0.286073	0.939161
	C1708	C	0.544715	-0.376160	0.941880
	C1709	C	0.553806	-0.466251	0.939985
	C1710	C	0.571383	-0.466142	0.935500
	C1711	C	0.525898	-0.376053	0.951033
	C1712	C	0.599177	-0.126119	0.825872
	C1713	C	0.580314	-0.126158	0.816916
	C1714	C	0.571193	-0.036169	0.814982
	C1715	C	0.553605	-0.036549	0.810864
	C1716	C	0.544682	-0.126700	0.808168
	C1717	C	0.553795	-0.216820	0.810059
	C1718	C	0.571391	-0.216432	0.814127
	C1719	C	0.525860	-0.126895	0.798963
	C1720	C	0.650878	-0.126983	0.825906
	C1721	C	0.669694	-0.126734	0.816721
	C1722	C	0.678853	-0.216700	0.814980
	C1723	C	0.696423	-0.216532	0.810620
	C1724	C	0.705346	-0.126271	0.807833
	C1725	C	0.696192	-0.036266	0.809521
	C1726	C	0.678603	-0.036610	0.813749
	C1727	C	0.724153	-0.125701	0.798605
	H1728	H	0.703385	-0.286537	0.809340
	H1729	H	0.672188	-0.287219	0.816894
	H1730	H	0.702828	-0.214920	0.942260
	H1731	H	0.671749	-0.216233	0.934306
	H1732	H	0.624618	-0.376639	0.803651
	H1733	H	0.625327	-0.126180	0.945167
	H1734	H	0.499948	-0.125768	0.929166
	H1735	H	0.749749	-0.375780	0.820822
	H1736	H	0.578276	-0.286429	0.815392
	H1737	H	0.547055	-0.287082	0.808355
	H1738	H	0.546733	-0.216103	0.940462
	H1739	H	0.577936	-0.215628	0.932861
	H1740	H	0.546722	0.033417	0.809768
	H1741	H	0.577876	0.034214	0.816899
	H1742	H	0.578241	-0.536257	0.934121
	H1743	H	0.547115	-0.536588	0.941818
	H1744	H	0.672200	-0.536957	0.932184
	H1745	H	0.703418	-0.535833	0.940102
	H1746	H	0.671634	0.033124	0.814673
	H1747	H	0.702825	0.034403	0.807409
	Al1748	Al	0.625066	-0.001387	0.874363
	Al1749	Al	0.625040	0.248524	0.874467
	Al1750	Al	0.500027	0.248765	0.750374
	Al1751	Al	0.499949	-0.001325	0.750374
	O1752	O	0.643555	0.038433	0.918983
	O1753	O	0.624990	0.123661	0.840382
	O1754	O	0.625110	0.373700	0.908471
	O1755	O	0.731669	0.040927	0.954989
	O1756	O	0.606702	0.040097	0.919423
	O1757	O	0.518586	0.039564	0.955437
	O1758	O	0.606443	0.208389	0.918708
	O1759	O	0.606662	0.290379	0.829574
	O1760	O	0.518565	0.289034	0.794665
	O1761	O	0.643361	0.207042	0.919850
	O1762	O	0.643591	0.289215	0.830170
	O1763	O	0.731625	0.290482	0.794937
	O1764	O	0.518541	0.207889	0.954956
	O1765	O	0.606465	0.458501	0.830064
	O1766	O	0.518393	0.457208	0.795281
	O1767	O	0.731459	0.458796	0.794403
	O1768	O	0.643473	0.457429	0.829500
	O1769	O	0.731367	0.209386	0.955999
	O1770	O	0.500024	0.373933	0.965542
	O1771	O	0.749956	0.124153	0.784174
	C1772	C	0.696134	0.214282	0.940044
	C1773	C	0.705312	0.124343	0.941819
	C1774	C	0.696427	0.033944	0.938874
	C1775	C	0.678832	0.033542	0.934518
	C1776	C	0.669668	0.123444	0.932678
	C1777	C	0.678507	0.214007	0.935725
	C1778	C	0.650837	0.122996	0.923585
	C1779	C	0.724107	0.124937	0.951297
	C1780	C	0.599180	0.124145	0.923211
	C1781	C	0.580389	0.123842	0.932592
	C1782	C	0.571303	0.214016	0.934507
	C1783	C	0.553696	0.214055	0.939015
	C1784	C	0.544780	0.123755	0.942039
	C1785	C	0.553878	0.033747	0.940093
	C1786	C	0.571483	0.033688	0.935583
	C1787	C	0.525956	0.123612	0.951193
	C1788	C	0.599161	0.374425	0.825924
	C1789	C	0.580357	0.374234	0.816661
	C1790	C	0.571219	0.464168	0.814973
	C1791	C	0.553606	0.463891	0.810826
	C1792	C	0.544702	0.373473	0.808077
	C1793	C	0.553813	0.283572	0.809933
	C1794	C	0.571410	0.284072	0.814079
	C1795	C	0.525879	0.373288	0.798875
	C1796	C	0.650917	0.373387	0.825915
	C1797	C	0.669762	0.373287	0.816824
	C1798	C	0.678916	0.283525	0.815174
	C1799	C	0.696502	0.283986	0.810962
	C1800	C	0.705370	0.374374	0.807857
	C1801	C	0.696233	0.464095	0.809583
	C1802	C	0.678643	0.463646	0.813991
	C1803	C	0.724170	0.374560	0.798772
	H1804	H	0.703321	0.213565	0.809829
	H1805	H	0.672168	0.213194	0.817061
	H1806	H	0.702828	0.284712	0.941922
	H1807	H	0.671577	0.283832	0.934492
	H1808	H	0.624931	0.123526	0.803619
	H1809	H	0.624925	0.374043	0.945342
	H1810	H	0.500017	0.374252	0.928571
	H1811	H	0.750062	0.124791	0.820879
	H1812	H	0.578249	0.213726	0.815129
	H1813	H	0.547134	0.213200	0.807966
	H1814	H	0.546897	0.284576	0.939990
	H1815	H	0.578050	0.284137	0.932310
	H1816	H	0.546705	0.533801	0.809475
	H1817	H	0.577968	0.534350	0.816698
	H1818	H	0.578293	-0.036489	0.934150
	H1819	H	0.547090	-0.036392	0.941939
	H1820	H	0.672187	-0.036923	0.932517
	H1821	H	0.703312	-0.036179	0.939767
	H1822	H	0.671799	0.534024	0.814826
	H1823	H	0.702981	0.534361	0.807295
	Al1824	Al	0.875004	-0.499842	0.125175
	Al1825	Al	0.875042	-0.249752	0.125187
	Al1826	Al	0.749968	-0.250507	0.000027
	Al1827	Al	0.749961	-0.500774	-0.000114
	O1828	O	0.893636	-0.459223	0.169399
	O1829	O	0.875014	-0.374559	0.091253
	O1830	O	0.874947	-0.124501	0.159296
	O1831	O	0.981670	-0.458395	0.205372
	O1832	O	0.856671	-0.458493	0.170337
	O1833	O	0.768536	-0.460159	0.205587
	O1834	O	0.856482	-0.290148	0.169632
	O1835	O	0.856596	-0.208610	0.080273
	O1836	O	0.768599	-0.210078	0.043990
	O1837	O	0.893414	-0.290812	0.169935
	O1838	O	0.893575	-0.209037	0.080995
	O1839	O	0.981642	-0.207609	0.045290
	O1840	O	0.768380	-0.291693	0.204784
	O1841	O	0.856377	-0.040281	0.081131
	O1842	O	0.768361	-0.041693	0.045353
	O1843	O	0.981407	-0.039184	0.044374
	O1844	O	0.893398	-0.040772	0.080283
	O1845	O	0.981452	-0.289914	0.205969
	O1846	O	0.750075	-0.125396	0.215599
	O1847	O	1.000000	-0.373982	0.033953
	C1848	C	0.946222	-0.284122	0.190042
	C1849	C	0.955364	-0.374172	0.192005
	C1850	C	0.946442	-0.464316	0.189009
	C1851	C	0.928856	-0.464676	0.184591
	C1852	C	0.919712	-0.374733	0.183015
	C1853	C	0.928624	-0.284454	0.185771
	C1854	C	0.900918	-0.375103	0.173753
	C1855	C	0.974175	-0.374150	0.201514
	C1856	C	0.849206	-0.374564	0.174032
	C1857	C	0.830375	-0.374684	0.183324
	C1858	C	0.821245	-0.284684	0.185151
	C1859	C	0.803643	-0.285199	0.189427
	C1860	C	0.794717	-0.375480	0.192156
	C1861	C	0.803852	-0.465556	0.190053
	C1862	C	0.821463	-0.465080	0.185828
	C1863	C	0.775883	-0.375983	0.201246
	C1864	C	0.849116	-0.124559	0.076565
	C1865	C	0.830264	-0.124804	0.067358
	C1866	C	0.821116	-0.034812	0.065552
	C1867	C	0.803544	-0.035047	0.061259
	C1868	C	0.794645	-0.125512	0.058028
	C1869	C	0.803747	-0.215504	0.059829
	C1870	C	0.821347	-0.215233	0.064295
	C1871	C	0.775818	-0.125679	0.048805
	C1872	C	0.900875	-0.124842	0.076599
	C1873	C	0.919680	-0.124340	0.067091
	C1874	C	0.928821	-0.214143	0.065231
	C1875	C	0.946433	-0.214148	0.061066
	C1876	C	0.955320	-0.123930	0.058284
	C1877	C	0.946172	-0.033940	0.059700
	C1878	C	0.928586	-0.033992	0.063990
	C1879	C	0.974158	-0.123578	0.048960
	H1880	H	0.953274	-0.284160	0.059840
	H1881	H	0.922080	-0.284604	0.067113
	H1882	H	0.952916	-0.213724	0.192050
	H1883	H	0.921746	-0.214472	0.184599
	H1884	H	0.875115	-0.374226	0.054485
	H1885	H	0.874732	-0.124799	0.195973
	H1886	H	0.750170	-0.125291	0.178882
	H1887	H	0.999949	-0.374165	0.070886
	H1888	H	0.828228	-0.285422	0.065338
	H1889	H	0.796985	-0.285707	0.057759
	H1890	H	0.796753	-0.215239	0.190612
	H1891	H	0.827928	-0.214140	0.183299
	H1892	H	0.796689	0.035106	0.060339
	H1893	H	0.827806	0.035461	0.067608
	H1894	H	0.828395	-0.534852	0.184588
	H1895	H	0.797207	-0.536029	0.191800
	H1896	H	0.922185	-0.535032	0.182731
	H1897	H	0.953320	-0.534444	0.190200
	H1898	H	0.921711	0.036121	0.064867
	H1899	H	0.952879	0.036407	0.057332
	Al1900	Al	0.874997	0.000378	0.125189
	Al1901	Al	0.874984	0.250310	0.125028
	Al1902	Al	0.749966	0.249584	0.000129
	Al1903	Al	0.749984	-0.000172	0.000154
	O1904	O	0.893602	0.040806	0.169328
	O1905	O	0.874963	0.125004	0.091003
	O1906	O	0.874992	0.375172	0.159032
	O1907	O	0.981607	0.042149	0.205017
	O1908	O	0.856640	0.041626	0.170088
	O1909	O	0.768575	0.039906	0.205299
	O1910	O	0.856479	0.209765	0.169553
	O1911	O	0.856638	0.291659	0.080042
	O1912	O	0.768537	0.290051	0.044514
	O1913	O	0.893349	0.209141	0.169821
	O1914	O	0.893568	0.290931	0.080809
	O1915	O	0.981635	0.292558	0.045132
	O1916	O	0.768417	0.208365	0.204987
	O1917	O	0.856429	0.459863	0.081024
	O1918	O	0.768357	0.458428	0.045119
	O1919	O	0.981422	0.460828	0.044289
	O1920	O	0.893317	0.458969	0.079787
	O1921	O	0.981375	0.210441	0.206001
	O1922	O	0.749990	0.374065	0.215813
	O1923	O	0.999935	0.126158	0.034206
	C1924	C	0.946146	0.215933	0.190011
	C1925	C	0.955284	0.126057	0.192042
	C1926	C	0.946367	0.035911	0.189184
	C1927	C	0.928777	0.035433	0.184742
	C1928	C	0.919654	0.125336	0.182873
	C1929	C	0.928561	0.215508	0.185614
	C1930	C	0.900867	0.125196	0.173670
	C1931	C	0.974114	0.126162	0.201488
	C1932	C	0.849141	0.125694	0.173944
	C1933	C	0.830347	0.125506	0.182953
	C1934	C	0.821196	0.215499	0.184884
	C1935	C	0.803597	0.215039	0.189216
	C1936	C	0.794682	0.124456	0.191962
	C1937	C	0.803840	0.034555	0.190079
	C1938	C	0.821426	0.034955	0.185902
	C1939	C	0.775900	0.124114	0.201160
	C1940	C	0.849165	0.375765	0.076452
	C1941	C	0.830331	0.375218	0.067206
	C1942	C	0.821173	0.465091	0.065410
	C1943	C	0.803586	0.465020	0.061102
	C1944	C	0.794645	0.374839	0.058487
	C1945	C	0.803811	0.285003	0.060331
	C1946	C	0.821387	0.285252	0.064571
	C1947	C	0.775843	0.374264	0.048670
	C1948	C	0.900843	0.375221	0.076184
	C1949	C	0.919647	0.375396	0.067080
	C1950	C	0.928839	0.285698	0.065211
	C1951	C	0.946415	0.285967	0.060988
	C1952	C	0.955339	0.376205	0.058165
	C1953	C	0.946174	0.465962	0.059715
	C1954	C	0.928558	0.465544	0.064061
	C1955	C	0.974132	0.376474	0.048859
	H1956	H	0.953306	0.215703	0.059970
	H1957	H	0.922162	0.215273	0.067036
	H1958	H	0.952875	0.286211	0.191771
	H1959	H	0.921703	0.285938	0.184045
	H1960	H	0.874915	0.124765	0.054393
	H1961	H	0.874908	0.374739	0.195785
	H1962	H	0.749722	0.374389	0.179184
	H1963	H	0.999643	0.126491	0.071118
	H1964	H	0.828248	0.215199	0.066092
	H1965	H	0.797113	0.214408	0.058530
	H1966	H	0.796731	0.285073	0.190023
	H1967	H	0.827944	0.285806	0.182638
	H1968	H	0.796665	0.534966	0.060029
	H1969	H	0.827881	0.535479	0.067646
	H1970	H	0.828284	-0.035507	0.184451
	H1971	H	0.797106	-0.035716	0.191724
	H1972	H	0.922075	-0.034895	0.182551
	H1973	H	0.953249	-0.034265	0.190258
	H1974	H	0.921641	0.535453	0.065155
	H1975	H	0.952882	0.536330	0.057817
	Al1976	Al	0.874934	-0.500131	0.374785
	Al1977	Al	0.875003	-0.250296	0.375151
	Al1978	Al	0.750049	-0.250722	0.249854
	Al1979	Al	0.749968	-0.500610	0.249832
	O1980	O	0.893547	-0.460416	0.419260
	O1981	O	0.874942	-0.375164	0.340958
	O1982	O	0.874939	-0.125342	0.409253
	O1983	O	0.981627	-0.458718	0.454748
	O1984	O	0.856567	-0.458975	0.420035
	O1985	O	0.768517	-0.460329	0.456036
	O1986	O	0.856338	-0.290270	0.419173
	O1987	O	0.856659	-0.208658	0.330035
	O1988	O	0.768513	-0.210300	0.294499
	O1989	O	0.893371	-0.291878	0.419802
	O1990	O	0.893536	-0.210176	0.330737
	O1991	O	0.981539	-0.208097	0.294916
	O1992	O	0.768380	-0.292139	0.455582
	O1993	O	0.856453	-0.040377	0.330549
	O1994	O	0.768491	-0.041970	0.294445
	O1995	O	0.981337	-0.039769	0.294062
	O1996	O	0.893290	-0.041975	0.329680
	O1997	O	0.981448	-0.290284	0.455735
	O1998	O	0.750046	-0.125867	0.466180
	O1999	O	1.000043	-0.374631	0.284353
	C2000	C	0.946162	-0.284828	0.439942
	C2001	C	0.955298	-0.374779	0.442012
	C2002	C	0.946420	-0.465125	0.439160
	C2003	C	0.928805	-0.465477	0.434797
	C2004	C	0.919667	-0.375577	0.432830
	C2005	C	0.928542	-0.285103	0.435573
	C2006	C	0.900825	-0.376111	0.423584
	C2007	C	0.974141	-0.374516	0.451154
	C2008	C	0.849068	-0.374881	0.423595
	C2009	C	0.830239	-0.375176	0.432886
	C2010	C	0.821097	-0.285166	0.434825
	C2011	C	0.803516	-0.285543	0.439264
	C2012	C	0.794650	-0.376031	0.442226
	C2013	C	0.803751	-0.466079	0.440027
	C2014	C	0.821337	-0.465565	0.435446
	C2015	C	0.775821	-0.376363	0.451814
	C2016	C	0.849164	-0.124603	0.326289
	C2017	C	0.830310	-0.124929	0.316786
	C2018	C	0.821170	-0.034900	0.314896
	C2019	C	0.803552	-0.035220	0.310755
	C2020	C	0.794695	-0.125714	0.307946
	C2021	C	0.803833	-0.215591	0.310065
	C2022	C	0.821428	-0.215218	0.314226
	C2023	C	0.775885	-0.126094	0.298615
	C2024	C	0.900816	-0.125879	0.326210
	C2025	C	0.919626	-0.125554	0.316980
	C2026	C	0.928803	-0.215387	0.315088
	C2027	C	0.946409	-0.214850	0.310772
	C2028	C	0.955272	-0.124363	0.307890
	C2029	C	0.946104	-0.034558	0.309532
	C2030	C	0.928511	-0.035049	0.313901
	C2031	C	0.974052	-0.124002	0.298637
	H2032	H	0.953238	-0.284983	0.309496
	H2033	H	0.922110	-0.285695	0.316964
	H2034	H	0.952873	-0.214445	0.441842
	H2035	H	0.921713	-0.215035	0.434288
	H2036	H	0.874961	-0.374655	0.304439
	H2037	H	0.874620	-0.125224	0.446092
	H2038	H	0.750313	-0.126263	0.429441
	H2039	H	1.000119	-0.374836	0.321073
	H2040	H	0.828279	-0.285454	0.315363
	H2041	H	0.797148	-0.286180	0.308152
	H2042	H	0.796556	-0.215536	0.440714
	H2043	H	0.827725	-0.214505	0.432925
	H2044	H	0.796640	0.035017	0.309380
	H2045	H	0.827898	0.035337	0.316480
	H2046	H	0.828249	-0.535482	0.433982
	H2047	H	0.797095	-0.536612	0.442066
	H2048	H	0.922111	-0.535843	0.432779
	H2049	H	0.953299	-0.535128	0.440324
	H2050	H	0.921614	0.035335	0.314799
	H2051	H	0.952808	0.035631	0.307399
	Al2052	Al	0.874983	-0.000263	0.375005
	Al2053	Al	0.874989	0.249763	0.374722
	Al2054	Al	0.750026	0.249338	0.249862
	Al2055	Al	0.750000	-0.000532	0.249806
	O2056	O	0.893573	0.040185	0.418755
	O2057	O	0.875013	0.124753	0.340787
	O2058	O	0.874846	0.374737	0.408805
	O2059	O	0.981638	0.041691	0.454954
	O2060	O	0.856639	0.041572	0.420236
	O2061	O	0.768577	0.039634	0.456090
	O2062	O	0.856403	0.209577	0.419181
	O2063	O	0.856578	0.291260	0.329836
	O2064	O	0.768490	0.290069	0.294802
	O2065	O	0.893404	0.208489	0.419498
	O2066	O	0.893517	0.289939	0.330502
	O2067	O	0.981565	0.291741	0.295167
	O2068	O	0.768313	0.207999	0.455856
	O2069	O	0.856346	0.459679	0.330721
	O2070	O	0.768373	0.458354	0.294614
	O2071	O	0.981440	0.460098	0.294792
	O2072	O	0.893275	0.458116	0.329654
	O2073	O	0.981438	0.209898	0.455740
	O2074	O	0.750018	0.374468	0.466468
	O2075	O	0.999898	0.125266	0.284187
	C2076	C	0.946092	0.215037	0.440017
	C2077	C	0.955306	0.125389	0.442173
	C2078	C	0.946397	0.035026	0.439257
	C2079	C	0.928801	0.034865	0.434830
	C2080	C	0.919606	0.124621	0.432902
	C2081	C	0.928511	0.214952	0.435594
	C2082	C	0.900832	0.124279	0.423415
	C2083	C	0.974131	0.125634	0.451258
	C2084	C	0.849099	0.125485	0.423724
	C2085	C	0.830289	0.125239	0.432997
	C2086	C	0.821134	0.215091	0.434826
	C2087	C	0.803553	0.214563	0.439237
	C2088	C	0.794629	0.124204	0.442193
	C2089	C	0.803777	0.034388	0.440214
	C2090	C	0.821356	0.034936	0.435826
	C2091	C	0.775833	0.124070	0.451659
	C2092	C	0.849073	0.375379	0.326192
	C2093	C	0.830283	0.375142	0.316899
	C2094	C	0.821123	0.465126	0.315108
	C2095	C	0.803556	0.464953	0.310834
	C2096	C	0.794627	0.374562	0.307974
	C2097	C	0.803763	0.284459	0.309934
	C2098	C	0.821367	0.284729	0.314115
	C2099	C	0.775825	0.374219	0.298614
	C2100	C	0.900806	0.374264	0.325906
	C2101	C	0.919616	0.374550	0.316774
	C2102	C	0.928777	0.284801	0.314879
	C2103	C	0.946369	0.285229	0.310834
	C2104	C	0.955273	0.375452	0.308264
	C2105	C	0.946086	0.465275	0.309754
	C2106	C	0.928484	0.464925	0.313799
	C2107	C	0.974100	0.375889	0.298957
	H2108	H	0.953262	0.215269	0.309899
	H2109	H	0.922130	0.214149	0.316922
	H2110	H	0.952797	0.285384	0.441843
	H2111	H	0.921603	0.285071	0.434362
	H2112	H	0.874992	0.124426	0.304001
	H2113	H	0.874531	0.374724	0.445596
	H2114	H	0.750250	0.374471	0.429594
	H2115	H	0.999863	0.125019	0.320824
	H2116	H	0.828301	0.214641	0.315490
	H2117	H	0.796974	0.214216	0.308245
	H2118	H	0.796702	0.284704	0.440418
	H2119	H	0.827879	0.285503	0.432771
	H2120	H	0.796693	0.535176	0.309848
	H2121	H	0.827806	0.535493	0.317307
	H2122	H	0.828202	-0.035223	0.434567
	H2123	H	0.797030	-0.035824	0.441961
	H2124	H	0.922091	-0.035498	0.432910
	H2125	H	0.953285	-0.035037	0.440512
	H2126	H	0.921563	0.535029	0.315023
	H2127	H	0.952743	0.535744	0.307836
	Al2128	Al	0.874979	-0.499975	0.625134
	Al2129	Al	0.875021	-0.250036	0.625345
	Al2130	Al	0.749915	-0.250552	0.500275
	Al2131	Al	0.749970	-0.500324	0.500510
	O2132	O	0.893686	-0.459932	0.669188
	O2133	O	0.874992	-0.375065	0.591106
	O2134	O	0.874962	-0.125084	0.659368
	O2135	O	0.981584	-0.457959	0.705483
	O2136	O	0.856660	-0.458624	0.670543
	O2137	O	0.768610	-0.460913	0.705649
	O2138	O	0.856453	-0.290239	0.669249
	O2139	O	0.856637	-0.208646	0.580334
	O2140	O	0.768522	-0.210528	0.544543
	O2141	O	0.893389	-0.291281	0.670111
	O2142	O	0.893573	-0.210102	0.581219
	O2143	O	0.981572	-0.208174	0.544839
	O2144	O	0.768370	-0.292462	0.705070
	O2145	O	0.856433	-0.040488	0.580850
	O2146	O	0.768391	-0.041871	0.545296
	O2147	O	0.981338	-0.039964	0.544399
	O2148	O	0.893289	-0.041768	0.580315
	O2149	O	0.981435	-0.289618	0.705811
	O2150	O	0.749944	-0.126131	0.716043
	O2151	O	0.999916	-0.374717	0.534085
	C2152	C	0.946194	-0.284025	0.690200
	C2153	C	0.955306	-0.374095	0.692389
	C2154	C	0.946458	-0.464660	0.689208
	C2155	C	0.928853	-0.465162	0.684655
	C2156	C	0.919723	-0.375065	0.682917
	C2157	C	0.928616	-0.284626	0.685730
	C2158	C	0.900906	-0.375278	0.673719
	C2159	C	0.974155	-0.373813	0.701470
	C2160	C	0.849145	-0.374440	0.674010
	C2161	C	0.830366	-0.374766	0.683232
	C2162	C	0.821158	-0.284882	0.685033
	C2163	C	0.803575	-0.285600	0.689173
	C2164	C	0.794708	-0.376018	0.691980
	C2165	C	0.803912	-0.465949	0.689952
	C2166	C	0.821514	-0.465219	0.685711
	C2167	C	0.775905	-0.376595	0.701364
	C2168	C	0.849127	-0.124583	0.576614
	C2169	C	0.830326	-0.125037	0.567164
	C2170	C	0.821178	-0.035042	0.565186
	C2171	C	0.803579	-0.035344	0.560738
	C2172	C	0.794662	-0.125767	0.558206
	C2173	C	0.803815	-0.215592	0.559829
	C2174	C	0.821408	-0.215283	0.564238
	C2175	C	0.775870	-0.126097	0.548674
	C2176	C	0.900793	-0.125663	0.576480
	C2177	C	0.919605	-0.125615	0.567067
	C2178	C	0.928780	-0.215472	0.565151
	C2179	C	0.946387	-0.215187	0.560739
	C2180	C	0.955267	-0.124726	0.557881
	C2181	C	0.946109	-0.034811	0.559840
	C2182	C	0.928507	-0.035275	0.564197
	C2183	C	0.974078	-0.124105	0.548779
	H2184	H	0.953244	-0.285331	0.559492
	H2185	H	0.922093	-0.285986	0.567201
	H2186	H	0.952893	-0.213378	0.692369
	H2187	H	0.921710	-0.214603	0.684564
	H2188	H	0.875105	-0.375192	0.554465
	H2189	H	0.874933	-0.125476	0.696029
	H2190	H	0.749855	-0.125893	0.679349
	H2191	H	0.999768	-0.374487	0.570791
	H2192	H	0.828326	-0.285369	0.565766
	H2193	H	0.797126	-0.286073	0.557880
	H2194	H	0.796617	-0.215613	0.690414
	H2195	H	0.827789	-0.214058	0.683203
	H2196	H	0.796688	0.034664	0.559377
	H2197	H	0.827883	0.035278	0.567264
	H2198	H	0.828489	-0.534992	0.684354
	H2199	H	0.797253	-0.536517	0.691838
	H2200	H	0.922152	-0.535437	0.682828
	H2201	H	0.953379	-0.534667	0.690586
	H2202	H	0.921658	0.034705	0.565553
	H2203	H	0.952799	0.035539	0.557857
	Al2204	Al	0.874965	-0.000036	0.625311
	Al2205	Al	0.875011	0.249903	0.625074
	Al2206	Al	0.749917	0.249595	0.500558
	Al2207	Al	0.749977	-0.000903	0.500314
	O2208	O	0.893621	0.040238	0.669420
	O2209	O	0.874972	0.124794	0.591193
	O2210	O	0.874971	0.374753	0.659304
	O2211	O	0.981623	0.041905	0.705146
	O2212	O	0.856604	0.041596	0.670223
	O2213	O	0.768607	0.038793	0.705936
	O2214	O	0.856314	0.209900	0.669181
	O2215	O	0.856690	0.291701	0.579997
	O2216	O	0.768511	0.289979	0.544809
	O2217	O	0.893335	0.208428	0.670125
	O2218	O	0.893624	0.289635	0.581055
	O2219	O	0.981610	0.291893	0.544778
	O2220	O	0.768369	0.207218	0.705220
	O2221	O	0.856412	0.460075	0.580854
	O2222	O	0.768371	0.458265	0.545186
	O2223	O	0.981376	0.460380	0.544289
	O2224	O	0.893292	0.458050	0.580068
	O2225	O	0.981485	0.210436	0.705551
	O2226	O	0.749900	0.374207	0.716043
	O2227	O	1.000056	0.125154	0.534099
	C2228	C	0.946178	0.215609	0.690116
	C2229	C	0.955359	0.125719	0.691924
	C2230	C	0.946454	0.035537	0.689049
	C2231	C	0.928864	0.035185	0.684641
	C2232	C	0.919679	0.125048	0.682997
	C2233	C	0.928574	0.215231	0.685743
	C2234	C	0.900870	0.124370	0.673686
	C2235	C	0.974151	0.126178	0.701405
	C2236	C	0.849078	0.125408	0.673787
	C2237	C	0.830268	0.124906	0.683173
	C2238	C	0.821116	0.214749	0.685072
	C2239	C	0.803528	0.214096	0.689392
	C2240	C	0.794673	0.123515	0.692297
	C2241	C	0.803819	0.033691	0.690208
	C2242	C	0.821402	0.034348	0.685854
	C2243	C	0.775866	0.123179	0.701648
	C2244	C	0.849155	0.375732	0.576161
	C2245	C	0.830289	0.375228	0.567149
	C2246	C	0.821131	0.465012	0.565117
	C2247	C	0.803528	0.464543	0.560959
	C2248	C	0.794638	0.374172	0.558129
	C2249	C	0.803781	0.284346	0.560205
	C2250	C	0.821396	0.284798	0.564311
	C2251	C	0.775802	0.374137	0.549154
	C2252	C	0.900818	0.374184	0.576542
	C2253	C	0.919610	0.374597	0.566879
	C2254	C	0.928765	0.284640	0.565104
	C2255	C	0.946366	0.285106	0.560787
	C2256	C	0.955286	0.375525	0.558175
	C2257	C	0.946115	0.465450	0.559816
	C2258	C	0.928513	0.464993	0.564128
	C2259	C	0.974095	0.375843	0.548586
	H2260	H	0.953275	0.215028	0.559364
	H2261	H	0.922098	0.213998	0.567065
	H2262	H	0.952864	0.285889	0.692095
	H2263	H	0.921684	0.285398	0.684330
	H2264	H	0.875137	0.124451	0.554526
	H2265	H	0.875057	0.374596	0.695993
	H2266	H	0.749918	0.374351	0.679183
	H2267	H	0.999984	0.125241	0.570790
	H2268	H	0.828253	0.214716	0.565208
	H2269	H	0.797063	0.214122	0.558357
	H2270	H	0.796627	0.284416	0.690297
	H2271	H	0.827824	0.285019	0.682879
	H2272	H	0.796638	0.534775	0.559830
	H2273	H	0.827806	0.535388	0.566825
	H2274	H	0.828259	-0.035966	0.684233
	H2275	H	0.797108	-0.036458	0.691749
	H2276	H	0.922151	-0.035135	0.682399
	H2277	H	0.953309	-0.034572	0.690221
	H2278	H	0.921606	0.534865	0.565343
	H2279	H	0.952791	0.535959	0.557600
	Al2280	Al	0.874960	-0.499613	0.875056
	Al2281	Al	0.874995	-0.249739	0.874747
	Al2282	Al	0.750019	-0.250995	0.749982
	Al2283	Al	0.750037	-0.501056	0.749835
	O2284	O	0.893575	-0.459332	0.919201
	O2285	O	0.875016	-0.374714	0.840902
	O2286	O	0.875011	-0.124637	0.908807
	O2287	O	0.981519	-0.458050	0.955289
	O2288	O	0.856660	-0.458300	0.920280
	O2289	O	0.768572	-0.460254	0.955465
	O2290	O	0.856415	-0.289979	0.919269
	O2291	O	0.856618	-0.208306	0.829872
	O2292	O	0.768644	-0.211256	0.794213
	O2293	O	0.893370	-0.290910	0.919974
	O2294	O	0.893520	-0.209204	0.830458
	O2295	O	0.981614	-0.207997	0.794908
	O2296	O	0.768387	-0.292066	0.955243
	O2297	O	0.856436	-0.040018	0.830597
	O2298	O	0.768336	-0.042913	0.795037
	O2299	O	0.981445	-0.039689	0.794552
	O2300	O	0.893402	-0.040892	0.829883
	O2301	O	0.981445	-0.289532	0.955724
	O2302	O	0.750022	-0.124950	0.966041
	O2303	O	0.999942	-0.373868	0.784210
	C2304	C	0.946126	-0.283926	0.940419
	C2305	C	0.955269	-0.373915	0.942236
	C2306	C	0.946377	-0.464332	0.939371
	C2307	C	0.928783	-0.464879	0.934934
	C2308	C	0.919664	-0.374799	0.933150
	C2309	C	0.928547	-0.284386	0.936059
	C2310	C	0.900853	-0.374917	0.923528
	C2311	C	0.974107	-0.373635	0.951586
	C2312	C	0.849145	-0.374147	0.924001
	C2313	C	0.830342	-0.374485	0.933384
	C2314	C	0.821146	-0.284848	0.935030
	C2315	C	0.803560	-0.285564	0.939297
	C2316	C	0.794712	-0.375949	0.942333
	C2317	C	0.803879	-0.465803	0.940434
	C2318	C	0.821487	-0.464938	0.936105
	C2319	C	0.775886	-0.376070	0.951308
	C2320	C	0.849138	-0.124168	0.826409
	C2321	C	0.830301	-0.124665	0.817103
	C2322	C	0.821101	-0.035002	0.815138
	C2323	C	0.803514	-0.035897	0.810816
	C2324	C	0.794668	-0.126354	0.808167
	C2325	C	0.803845	-0.216186	0.809969
	C2326	C	0.821444	-0.215227	0.814335
	C2327	C	0.775863	-0.126934	0.798698
	C2328	C	0.900855	-0.124973	0.826148
	C2329	C	0.919690	-0.124569	0.817075
	C2330	C	0.928844	-0.214419	0.815095
	C2331	C	0.946448	-0.214168	0.810995
	C2332	C	0.955339	-0.123760	0.808362
	C2333	C	0.946218	-0.033815	0.810494
	C2334	C	0.928611	-0.034298	0.814592
	C2335	C	0.974173	-0.123844	0.799124
	H2336	H	0.953286	-0.284276	0.809396
	H2337	H	0.922105	-0.284736	0.816486
	H2338	H	0.952844	-0.213689	0.942671
	H2339	H	0.921655	-0.214070	0.935004
	H2340	H	0.875042	-0.374851	0.803955
	H2341	H	0.874921	-0.124507	0.945629
	H2342	H	0.750049	-0.125412	0.929222
	H2343	H	0.999851	-0.374231	0.820811
	H2344	H	0.828349	-0.285037	0.815382
	H2345	H	0.797200	-0.286706	0.807896
	H2346	H	0.796645	-0.215258	0.940384
	H2347	H	0.827748	-0.214115	0.933100
	H2348	H	0.796613	0.034105	0.809395
	H2349	H	0.827793	0.035386	0.816904
	H2350	H	0.828419	-0.534825	0.934902
	H2351	H	0.797222	-0.536199	0.942371
	H2352	H	0.922067	-0.535166	0.932888
	H2353	H	0.953243	-0.534343	0.940837
	H2354	H	0.921787	0.036068	0.815512
	H2355	H	0.952974	0.036603	0.808439
	Al2356	Al	0.875057	0.000352	0.874811
	Al2357	Al	0.874979	0.250420	0.875148
	Al2358	Al	0.749988	0.249198	0.749925
	Al2359	Al	0.750006	-0.001218	0.750105
	O2360	O	0.893536	0.040437	0.919338
	O2361	O	0.875059	0.125125	0.840967
	O2362	O	0.875070	0.375481	0.909232
	O2363	O	0.981636	0.042202	0.954956
	O2364	O	0.856669	0.041735	0.919948
	O2365	O	0.768674	0.039759	0.956244
	O2366	O	0.856329	0.210127	0.919027
	O2367	O	0.856657	0.291993	0.830050
	O2368	O	0.768599	0.289519	0.794080
	O2369	O	0.893347	0.208716	0.920290
	O2370	O	0.893569	0.290674	0.830754
	O2371	O	0.981581	0.292140	0.794972
	O2372	O	0.768368	0.207961	0.955282
	O2373	O	0.856411	0.460425	0.831010
	O2374	O	0.768342	0.457705	0.794995
	O2375	O	0.981367	0.460441	0.794327
	O2376	O	0.893279	0.458948	0.829606
	O2377	O	0.981447	0.210416	0.955911
	O2378	O	0.750056	0.374397	0.965912
	O2379	O	0.999965	0.125592	0.784022
	C2380	C	0.946161	0.215868	0.940411
	C2381	C	0.955315	0.125986	0.942353
	C2382	C	0.946413	0.035697	0.939470
	C2383	C	0.928823	0.035081	0.935094
	C2384	C	0.919641	0.124969	0.933238
	C2385	C	0.928541	0.215287	0.936101
	C2386	C	0.900828	0.124583	0.923989
	C2387	C	0.974153	0.126339	0.951379
	C2388	C	0.849143	0.125570	0.923543
	C2389	C	0.830367	0.125262	0.933181
	C2390	C	0.821208	0.215200	0.934851
	C2391	C	0.803629	0.214793	0.939329
	C2392	C	0.794720	0.124397	0.942490
	C2393	C	0.803855	0.034476	0.940327
	C2394	C	0.821433	0.034944	0.935823
	C2395	C	0.775911	0.124155	0.951779
	C2396	C	0.849139	0.376027	0.826387
	C2397	C	0.830329	0.375593	0.817133
	C2398	C	0.821147	0.465266	0.814906
	C2399	C	0.803566	0.464525	0.810504
	C2400	C	0.794703	0.374224	0.807882
	C2401	C	0.803894	0.284395	0.809870
	C2402	C	0.821491	0.285018	0.814167
	C2403	C	0.775879	0.373785	0.798496
	C2404	C	0.900829	0.375051	0.826144
	C2405	C	0.919667	0.375347	0.817016
	C2406	C	0.928830	0.285340	0.815238
	C2407	C	0.946422	0.285671	0.811047
	C2408	C	0.955318	0.375975	0.808308
	C2409	C	0.946191	0.466011	0.810038
	C2410	C	0.928583	0.465563	0.814286
	C2411	C	0.974112	0.376209	0.798715
	H2412	H	0.953297	0.215709	0.809936
	H2413	H	0.922148	0.214819	0.817220
	H2414	H	0.952838	0.286341	0.942188
	H2415	H	0.921614	0.285389	0.935004
	H2416	H	0.874753	0.125306	0.804516
	H2417	H	0.875014	0.375306	0.945950
	H2418	H	0.750357	0.373947	0.929155
	H2419	H	1.000179	0.124884	0.820743
	H2420	H	0.828412	0.214902	0.815509
	H2421	H	0.797257	0.213860	0.808195
	H2422	H	0.796748	0.284939	0.940801
	H2423	H	0.827947	0.285646	0.932819
	H2424	H	0.796641	0.534526	0.809372
	H2425	H	0.827799	0.535873	0.816981
	H2426	H	0.828310	-0.035294	0.934580
	H2427	H	0.797147	-0.036092	0.942481
	H2428	H	0.922181	-0.035591	0.933055
	H2429	H	0.953298	-0.034388	0.940592
	H2430	H	0.921681	0.535618	0.815435
	H2431	H	0.952857	0.536480	0.808066
