data_Molecule from HDF5

_cell_length_a		109.207213
_cell_length_b		13.364097
_cell_length_c		56.876177
_cell_angle_alpha	90.005512
_cell_angle_beta	85.975189
_cell_angle_gamma	89.997704
_symmetry_space_group_name_H-M	'P 1'
_symmetry_Int_Tables_number		1

loop_
	_symmetry_equiv_pos_as_xyz
	x,y,z

loop_
	_atom_site_label
	_atom_site_type_symbol
	_atom_site_fract_x
	_atom_site_fract_y
	_atom_site_fract_z
	Al0	Al	0.097730	-0.500321	0.157261
	Al1	Al	0.097690	-0.249185	0.157320
	Al2	Al	0.014348	-0.250154	0.073965
	Al3	Al	0.014398	-0.499396	0.074005
	O4	O	0.110189	-0.458707	0.177020
	O5	O	0.097916	-0.374738	0.142326
	O6	O	0.097055	-0.124827	0.172214
	O7	O	0.168470	-0.459276	0.220582
	O8	O	0.083517	-0.459417	0.176875
	O9	O	0.019641	-0.459618	0.174398
	O10	O	0.083511	-0.290863	0.177019
	O11	O	0.085124	-0.208779	0.137136
	O12	O	0.026901	-0.208931	0.093509
	O13	O	0.110292	-0.290537	0.176734
	O14	O	0.110584	-0.208780	0.134871
	O15	O	0.161693	-0.208671	0.053666
	O16	O	0.019610	-0.291602	0.174324
	O17	O	0.085134	-0.040474	0.137146
	O18	O	0.026893	-0.040718	0.093507
	O19	O	0.161636	-0.040533	0.053456
	O20	O	0.110629	-0.041030	0.134927
	O21	O	0.168531	-0.291014	0.220316
	O22	O	0.006001	-0.124972	0.177102
	O23	O	0.174050	-0.374830	0.043065
	C24	C	0.145411	-0.285288	0.201991
	C25	C	0.151336	-0.375172	0.206453
	C26	C	0.145281	-0.464906	0.202371
	C27	C	0.133591	-0.464604	0.194240
	C28	C	0.127633	-0.374733	0.189892
	C29	C	0.133708	-0.285115	0.193842
	C30	C	0.115145	-0.374545	0.180488
	C31	C	0.163703	-0.375119	0.216444
	C32	C	0.078082	-0.375152	0.177210
	C33	C	0.064359	-0.375154	0.177306
	C34	C	0.057881	-0.285211	0.176315
	C35	C	0.045267	-0.285178	0.174565
	C36	C	0.038782	-0.375159	0.173857
	C37	C	0.045243	-0.465076	0.174694
	C38	C	0.057867	-0.464949	0.176396
	C39	C	0.025042	-0.375577	0.174113
	C40	C	0.080287	-0.124418	0.133170
	C41	C	0.067974	-0.124474	0.123125
	C42	C	0.061984	-0.034635	0.118927
	C43	C	0.050268	-0.034782	0.110752
	C44	C	0.044275	-0.124544	0.106617
	C45	C	0.050286	-0.214253	0.110750
	C46	C	0.061991	-0.214171	0.118908
	C47	C	0.031823	-0.124774	0.097124
	C48	C	0.114991	-0.124939	0.128379
	C49	C	0.126057	-0.124876	0.111156
	C50	C	0.131309	-0.213559	0.102890
	C51	C	0.141460	-0.213340	0.086703
	C52	C	0.146626	-0.124545	0.078381
	C53	C	0.141417	-0.035805	0.086779
	C54	C	0.131268	-0.035938	0.103008
	C55	C	0.157410	-0.124496	0.060496
	H56	H	0.145373	-0.282089	0.080372
	H57	H	0.127410	-0.282491	0.109153
	H58	H	0.149967	-0.215366	0.205043
	H59	H	0.129198	-0.215406	0.190521
	H60	H	0.098061	-0.374869	0.126228
	H61	H	0.095930	-0.124759	0.188468
	H62	H	0.007320	-0.125659	0.160996
	H63	H	0.174775	-0.374786	0.058938
	H64	H	0.066446	-0.284150	0.122193
	H65	H	0.045746	-0.284170	0.107635
	H66	H	0.040401	-0.215310	0.173950
	H67	H	0.062743	-0.215005	0.176972
	H68	H	0.045731	0.034979	0.107614
	H69	H	0.066456	0.035437	0.122194
	H70	H	0.062751	-0.535140	0.177168
	H71	H	0.040359	-0.534904	0.174134
	H72	H	0.128988	-0.534430	0.191220
	H73	H	0.149730	-0.534615	0.205734
	H74	H	0.127363	0.032830	0.109369
	H75	H	0.145317	0.033159	0.080507
	Al76	Al	0.097694	-0.000322	0.157308
	Al77	Al	0.097706	0.250788	0.157377
	Al78	Al	0.014377	0.249496	0.073968
	Al79	Al	0.014368	0.000764	0.073924
	O80	O	0.110293	0.041170	0.176793
	O81	O	0.097958	0.125470	0.142386
	O82	O	0.097067	0.375340	0.172263
	O83	O	0.168507	0.040845	0.220505
	O84	O	0.083549	0.041483	0.177031
	O85	O	0.019728	0.040263	0.174557
	O86	O	0.083515	0.209809	0.176980
	O87	O	0.085186	0.291074	0.137126
	O88	O	0.026936	0.290962	0.093431
	O89	O	0.110307	0.209377	0.176772
	O90	O	0.110619	0.291385	0.134912
	O91	O	0.161646	0.290752	0.053512
	O92	O	0.019625	0.208494	0.174143
	O93	O	0.085155	0.459397	0.137134
	O94	O	0.026871	0.459290	0.093627
	O95	O	0.161675	0.458964	0.053558
	O96	O	0.110696	0.459266	0.134986
	O97	O	0.168606	0.209081	0.220160
	O98	O	0.006042	0.374824	0.177051
	O99	O	0.174116	0.125131	0.043117
	C100	C	0.145434	0.214455	0.202058
	C101	C	0.151358	0.124912	0.206440
	C102	C	0.145318	0.035554	0.202433
	C103	C	0.133613	0.035635	0.194244
	C104	C	0.127696	0.125217	0.189888
	C105	C	0.133734	0.214507	0.193896
	C106	C	0.115213	0.125259	0.180456
	C107	C	0.163723	0.124975	0.216408
	C108	C	0.078111	0.125485	0.177227
	C109	C	0.064395	0.125319	0.177275
	C110	C	0.057912	0.215073	0.176290
	C111	C	0.045295	0.214913	0.174533
	C112	C	0.038822	0.124820	0.173781
	C113	C	0.045310	0.035053	0.174752
	C114	C	0.057939	0.035199	0.176442
	C115	C	0.025110	0.124589	0.174070
	C116	C	0.080322	0.375174	0.133228
	C117	C	0.067979	0.375376	0.123119
	C118	C	0.061969	0.465145	0.118880
	C119	C	0.050273	0.465099	0.110728
	C120	C	0.044261	0.375176	0.106683
	C121	C	0.050316	0.285496	0.110686
	C122	C	0.062007	0.285546	0.118829
	C123	C	0.031800	0.375174	0.097111
	C124	C	0.115057	0.375174	0.128410
	C125	C	0.126062	0.374931	0.111035
	C126	C	0.131276	0.285882	0.102835
	C127	C	0.141421	0.286001	0.086631
	C128	C	0.146637	0.374894	0.078334
	C129	C	0.141473	0.463731	0.086696
	C130	C	0.131331	0.463644	0.102876
	C131	C	0.157423	0.374985	0.060380
	H132	H	0.145336	0.217005	0.080283
	H133	H	0.127379	0.217029	0.109237
	H134	H	0.149971	0.284039	0.205108
	H135	H	0.129246	0.284329	0.190706
	H136	H	0.098063	0.124797	0.126214
	H137	H	0.095445	0.375161	0.188238
	H138	H	0.007488	0.374572	0.160946
	H139	H	0.174757	0.125028	0.059146
	H140	H	0.066535	0.215853	0.122126
	H141	H	0.045800	0.216010	0.107547
	H142	H	0.040406	0.284733	0.173774
	H143	H	0.062765	0.285121	0.177000
	H144	H	0.045742	0.534855	0.107543
	H145	H	0.066457	0.534956	0.122214
	H146	H	0.062812	-0.035009	0.177161
	H147	H	0.040455	-0.034823	0.174064
	H148	H	0.129028	-0.033762	0.191304
	H149	H	0.149777	-0.034391	0.205835
	H150	H	0.127472	0.532333	0.109306
	H151	H	0.145361	0.532584	0.080415
	Al152	Al	0.088298	-0.500081	0.275410
	Al153	Al	0.088319	-0.249992	0.275291
	Al154	Al	0.004953	-0.250441	0.192228
	Al155	Al	0.004939	-0.500474	0.192169
	O156	O	0.100308	-0.458988	0.296792
	O157	O	0.089440	-0.375105	0.260302
	O158	O	0.087234	-0.125059	0.290402
	O159	O	0.159646	-0.459072	0.337464
	O160	O	0.073623	-0.459050	0.293105
	O161	O	0.009737	-0.459001	0.290320
	O162	O	0.073630	-0.290981	0.293088
	O163	O	0.076319	-0.208857	0.253900
	O164	O	0.016930	-0.209318	0.213573
	O165	O	0.100316	-0.290920	0.296679
	O166	O	0.103049	-0.208923	0.257552
	O167	O	0.166934	-0.209567	0.260185
	O168	O	0.009730	-0.290813	0.290040
	O169	O	0.076325	-0.040801	0.253773
	O170	O	0.016934	-0.041261	0.213618
	O171	O	0.166985	-0.041383	0.260439
	O172	O	0.103076	-0.040666	0.257742
	O173	O	0.159702	-0.291311	0.337395
	O174	O	-0.003794	-0.124995	0.292806
	O175	O	0.180475	-0.374646	0.255419
	C176	C	0.135944	-0.285054	0.320687
	C177	C	0.142092	-0.374970	0.324521
	C178	C	0.135921	-0.464644	0.320786
	C179	C	0.123978	-0.464620	0.313645
	C180	C	0.117822	-0.374792	0.309864
	C181	C	0.123996	-0.285050	0.313546
	C182	C	0.105255	-0.374858	0.300448
	C183	C	0.154726	-0.375145	0.333771
	C184	C	0.068182	-0.374995	0.293394
	C185	C	0.054451	-0.374723	0.293540
	C186	C	0.047963	-0.285041	0.292510
	C187	C	0.035368	-0.285167	0.290718
	C188	C	0.028883	-0.375090	0.289933
	C189	C	0.035366	-0.464874	0.290842
	C190	C	0.047985	-0.464781	0.292692
	C191	C	0.015160	-0.374868	0.289993
	C192	C	0.071370	-0.124861	0.250203
	C193	C	0.058767	-0.125003	0.240895
	C194	C	0.052565	-0.035253	0.237379
	C195	C	0.040610	-0.035374	0.230262
	C196	C	0.034476	-0.125277	0.226531
	C197	C	0.040698	-0.215059	0.229992
	C198	C	0.052649	-0.214853	0.237116
	C199	C	0.021898	-0.125294	0.217193
	C200	C	0.108468	-0.124834	0.257432
	C201	C	0.122198	-0.124920	0.257148
	C202	C	0.128666	-0.214754	0.257880
	C203	C	0.141278	-0.214703	0.259598
	C204	C	0.147769	-0.124971	0.260529
	C205	C	0.141279	-0.035081	0.259682
	C206	C	0.128669	-0.035037	0.257972
	C207	C	0.161521	-0.125360	0.260527
	H208	H	0.146118	-0.284675	0.260186
	H209	H	0.123780	-0.284550	0.257180
	H210	H	0.140565	-0.214771	0.323313
	H211	H	0.119438	-0.214661	0.310762
	H212	H	0.091229	-0.375008	0.244224
	H213	H	0.085773	-0.125137	0.306427
	H214	H	-0.002129	-0.125435	0.276760
	H215	H	0.179128	-0.373844	0.271559
	H216	H	0.057272	-0.285214	0.239758
	H217	H	0.036160	-0.285313	0.227185
	H218	H	0.030556	-0.215266	0.289907
	H219	H	0.052835	-0.214925	0.293166
	H220	H	0.036015	0.034720	0.227620
	H221	H	0.057099	0.035022	0.240251
	H222	H	0.052867	-0.534955	0.293374
	H223	H	0.030483	-0.534943	0.290159
	H224	H	0.119358	-0.534824	0.310870
	H225	H	0.140457	-0.534869	0.323474
	H226	H	0.123800	0.035166	0.257386
	H227	H	0.146137	0.034761	0.260436
	Al228	Al	0.088330	-0.000135	0.275413
	Al229	Al	0.088287	0.249903	0.275444
	Al230	Al	0.004970	0.249682	0.192067
	Al231	Al	0.004933	-0.000170	0.192131
	O232	O	0.100253	0.041315	0.296942
	O233	O	0.089411	0.124797	0.260304
	O234	O	0.087179	0.374891	0.290394
	O235	O	0.159611	0.040881	0.337548
	O236	O	0.073590	0.040602	0.293114
	O237	O	0.009674	0.040638	0.290218
	O238	O	0.073586	0.208808	0.293109
	O239	O	0.076299	0.290663	0.253972
	O240	O	0.017035	0.290072	0.213428
	O241	O	0.100350	0.209301	0.296733
	O242	O	0.103028	0.290827	0.257637
	O243	O	0.166876	0.290736	0.260102
	O244	O	0.009709	0.209020	0.290141
	O245	O	0.076377	0.458559	0.253808
	O246	O	0.016982	0.458255	0.213444
	O247	O	0.166973	0.458965	0.260399
	O248	O	0.103019	0.459062	0.257698
	O249	O	0.159699	0.208776	0.337361
	O250	O	-0.003833	0.375179	0.292850
	O251	O	0.180456	0.125284	0.255395
	C252	C	0.135987	0.214852	0.320526
	C253	C	0.142090	0.124947	0.324441
	C254	C	0.135940	0.035274	0.320622
	C255	C	0.123996	0.035214	0.313506
	C256	C	0.117830	0.125102	0.309870
	C257	C	0.124036	0.214785	0.313425
	C258	C	0.105222	0.125129	0.300546
	C259	C	0.154710	0.124916	0.333707
	C260	C	0.068149	0.124729	0.293380
	C261	C	0.054407	0.124747	0.293529
	C262	C	0.047944	0.214745	0.292528
	C263	C	0.035322	0.214696	0.290706
	C264	C	0.028859	0.124744	0.289861
	C265	C	0.035344	0.034893	0.290851
	C266	C	0.047955	0.034826	0.292666
	C267	C	0.015099	0.124745	0.289981
	C268	C	0.071422	0.374780	0.250126
	C269	C	0.058759	0.374868	0.241126
	C270	C	0.052590	0.464663	0.237341
	C271	C	0.040647	0.464603	0.230225
	C272	C	0.034530	0.374555	0.226483
	C273	C	0.040695	0.284770	0.230218
	C274	C	0.052644	0.284869	0.237302
	C275	C	0.021909	0.374424	0.217271
	C276	C	0.108456	0.374991	0.257435
	C277	C	0.122192	0.375080	0.257149
	C278	C	0.128694	0.285275	0.257999
	C279	C	0.141307	0.285441	0.259717
	C280	C	0.147771	0.375451	0.260569
	C281	C	0.141281	0.465256	0.259778
	C282	C	0.128669	0.465026	0.258033
	C283	C	0.161485	0.374948	0.260507
	H284	H	0.146211	0.215585	0.260301
	H285	H	0.123853	0.215261	0.257220
	H286	H	0.140551	0.285141	0.323209
	H287	H	0.119452	0.285005	0.310715
	H288	H	0.090766	0.124765	0.244116
	H289	H	0.085709	0.374838	0.306465
	H290	H	-0.002154	0.375087	0.276841
	H291	H	0.179286	0.125377	0.271454
	H292	H	0.057244	0.214559	0.240053
	H293	H	0.036092	0.214542	0.227635
	H294	H	0.030439	0.284687	0.289864
	H295	H	0.052811	0.284893	0.293099
	H296	H	0.036026	0.534707	0.227608
	H297	H	0.057142	0.534814	0.240089
	H298	H	0.052813	-0.035438	0.293389
	H299	H	0.030512	-0.035488	0.290151
	H300	H	0.119427	-0.035196	0.310882
	H301	H	0.140560	-0.035013	0.323359
	H302	H	0.123776	0.534930	0.257271
	H303	H	0.146124	0.535412	0.260402
	Al304	Al	0.078340	-0.499727	0.391264
	Al305	Al	0.078345	-0.249740	0.391134
	Al306	Al	-0.004984	-0.250062	0.307876
	Al307	Al	-0.004989	-0.499872	0.307952
	O308	O	0.090286	-0.458706	0.412843
	O309	O	0.079435	-0.374888	0.376096
	O310	O	0.077209	-0.124699	0.406213
	O311	O	0.149632	-0.458877	0.453046
	O312	O	0.063627	-0.459250	0.408875
	O313	O	-0.000237	-0.459207	0.406333
	O314	O	0.063628	-0.290787	0.408908
	O315	O	0.066359	-0.209113	0.369734
	O316	O	0.007010	-0.209350	0.329304
	O317	O	0.090293	-0.291021	0.412692
	O318	O	0.093067	-0.208785	0.373581
	O319	O	0.156931	-0.208863	0.376446
	O320	O	-0.000229	-0.291048	0.406372
	O321	O	0.066386	-0.041173	0.369664
	O322	O	0.006960	-0.041399	0.329529
	O323	O	0.156927	-0.040546	0.376442
	O324	O	0.093105	-0.040753	0.373489
	O325	O	0.149641	-0.290775	0.453014
	O326	O	-0.013827	-0.125185	0.411223
	O327	O	0.170466	-0.375083	0.373850
	C328	C	0.125905	-0.284970	0.436510
	C329	C	0.132111	-0.374743	0.440118
	C330	C	0.125946	-0.464519	0.436317
	C331	C	0.114044	-0.464471	0.429208
	C332	C	0.107837	-0.374770	0.425644
	C333	C	0.113986	-0.285116	0.429459
	C334	C	0.095242	-0.374744	0.416462
	C335	C	0.144690	-0.374876	0.449424
	C336	C	0.058224	-0.375005	0.409176
	C337	C	0.044454	-0.375052	0.409622
	C338	C	0.037993	-0.285205	0.408769
	C339	C	0.025393	-0.285129	0.407034
	C340	C	0.018922	-0.374989	0.406168
	C341	C	0.025380	-0.464982	0.407076
	C342	C	0.037986	-0.464952	0.408819
	C343	C	0.005194	-0.375066	0.406058
	C344	C	0.061416	-0.125042	0.366085
	C345	C	0.048770	-0.125316	0.356958
	C346	C	0.042588	-0.035650	0.353288
	C347	C	0.030670	-0.035660	0.346216
	C348	C	0.024504	-0.125342	0.342475
	C349	C	0.030687	-0.215074	0.346123
	C350	C	0.042607	-0.214939	0.353222
	C351	C	0.011920	-0.125431	0.333163
	C352	C	0.098501	-0.124766	0.373347
	C353	C	0.112203	-0.124739	0.373298
	C354	C	0.118667	-0.214765	0.374219
	C355	C	0.131275	-0.214723	0.375936
	C356	C	0.137786	-0.124780	0.376748
	C357	C	0.131317	-0.034775	0.375745
	C358	C	0.118694	-0.034763	0.374021
	C359	C	0.151512	-0.124654	0.376647
	H360	H	0.136126	-0.284965	0.376720
	H361	H	0.113769	-0.284755	0.373568
	H362	H	0.130513	-0.214897	0.439226
	H363	H	0.109371	-0.215100	0.426758
	H364	H	0.080973	-0.374719	0.360018
	H365	H	0.075821	-0.124459	0.422170
	H366	H	-0.012683	-0.125150	0.395207
	H367	H	0.168754	-0.375207	0.389853
	H368	H	0.047218	-0.284813	0.355932
	H369	H	0.026118	-0.285235	0.343336
	H370	H	0.020552	-0.214990	0.406435
	H371	H	0.042878	-0.215166	0.409580
	H372	H	0.026047	0.034229	0.343509
	H373	H	0.047170	0.034368	0.355993
	H374	H	0.042851	-0.534860	0.409641
	H375	H	0.020497	-0.534900	0.406459
	H376	H	0.109469	-0.534461	0.426245
	H377	H	0.130576	-0.534546	0.438871
	H378	H	0.113826	0.035295	0.373332
	H379	H	0.136209	0.035179	0.376407
	Al380	Al	0.078379	0.000270	0.391149
	Al381	Al	0.078344	0.249975	0.391229
	Al382	Al	-0.005001	0.250029	0.307871
	Al383	Al	-0.004992	0.000012	0.307930
	O384	O	0.090296	0.041584	0.412680
	O385	O	0.079477	0.125378	0.376130
	O386	O	0.077114	0.375196	0.406254
	O387	O	0.149680	0.040987	0.452988
	O388	O	0.063663	0.040743	0.408869
	O389	O	-0.000241	0.040607	0.406340
	O390	O	0.063714	0.208682	0.409227
	O391	O	0.066230	0.290841	0.369970
	O392	O	0.006967	0.291309	0.329360
	O393	O	0.090371	0.209337	0.412512
	O394	O	0.092990	0.291707	0.373330
	O395	O	0.156919	0.290612	0.376503
	O396	O	-0.000262	0.208753	0.406248
	O397	O	0.066338	0.458759	0.369768
	O398	O	0.006947	0.459134	0.329418
	O399	O	0.156933	0.458664	0.376572
	O400	O	0.093087	0.459748	0.373830
	O401	O	0.149688	0.208890	0.453003
	O402	O	-0.013776	0.375090	0.411102
	O403	O	0.170575	0.125080	0.373825
	C404	C	0.125933	0.214830	0.436641
	C405	C	0.132104	0.125053	0.440387
	C406	C	0.125948	0.035303	0.436583
	C407	C	0.113984	0.035354	0.429533
	C408	C	0.107821	0.125153	0.425820
	C409	C	0.113988	0.214987	0.429557
	C410	C	0.095245	0.125283	0.416456
	C411	C	0.144744	0.124923	0.449373
	C412	C	0.058247	0.124743	0.409217
	C413	C	0.044493	0.125004	0.409569
	C414	C	0.038006	0.214832	0.408597
	C415	C	0.025385	0.214582	0.406791
	C416	C	0.018908	0.124731	0.405947
	C417	C	0.025390	0.035121	0.406964
	C418	C	0.037989	0.035217	0.408792
	C419	C	0.005203	0.124687	0.405986
	C420	C	0.061309	0.374869	0.366266
	C421	C	0.048713	0.374869	0.357059
	C422	C	0.042584	0.464495	0.353235
	C423	C	0.030650	0.464719	0.346085
	C424	C	0.024473	0.375033	0.342423
	C425	C	0.030629	0.285258	0.346052
	C426	C	0.042568	0.285128	0.353211
	C427	C	0.011874	0.375248	0.333138
	C428	C	0.098464	0.375540	0.373353
	C429	C	0.112187	0.375220	0.373363
	C430	C	0.118654	0.285121	0.374126
	C431	C	0.131256	0.285050	0.375994
	C432	C	0.137760	0.374884	0.376906
	C433	C	0.131301	0.464942	0.375972
	C434	C	0.118695	0.465073	0.374129
	C435	C	0.151491	0.374644	0.376776
	H436	H	0.136127	0.214920	0.376711
	H437	H	0.113771	0.215220	0.373323
	H438	H	0.130553	0.285166	0.439306
	H439	H	0.109370	0.285198	0.427002
	H440	H	0.081001	0.125301	0.360096
	H441	H	0.075653	0.374934	0.422277
	H442	H	-0.012536	0.375619	0.394959
	H443	H	0.168930	0.124890	0.389792
	H444	H	0.047136	0.214511	0.355824
	H445	H	0.026041	0.215175	0.343195
	H446	H	0.020473	0.284511	0.406227
	H447	H	0.042853	0.284702	0.409387
	H448	H	0.026101	0.534978	0.343289
	H449	H	0.047184	0.534652	0.355893
	H450	H	0.042816	-0.034942	0.409794
	H451	H	0.020546	-0.035203	0.406524
	H452	H	0.109401	-0.035135	0.426932
	H453	H	0.130526	-0.034717	0.439226
	H454	H	0.113859	0.535157	0.373325
	H455	H	0.136163	0.534987	0.376685
	Al456	Al	0.068942	-0.499394	0.509290
	Al457	Al	0.068948	-0.250296	0.509251
	Al458	Al	-0.014396	-0.249613	0.426089
	Al459	Al	-0.014408	-0.500624	0.426018
	O460	O	0.081542	-0.458731	0.529289
	O461	O	0.069628	-0.374899	0.494374
	O462	O	0.068691	-0.125057	0.524379
	O463	O	0.139643	-0.458866	0.573314
	O464	O	0.056044	-0.458496	0.531654
	O465	O	0.005062	-0.458564	0.613036
	O466	O	0.056018	-0.290498	0.531635
	O467	O	0.056370	-0.208861	0.489796
	O468	O	-0.001827	-0.208840	0.446238
	O469	O	0.081483	-0.290632	0.529529
	O470	O	0.083080	-0.209125	0.489425
	O471	O	0.146931	-0.208934	0.492289
	O472	O	0.005109	-0.290204	0.613198
	O473	O	0.056341	-0.040600	0.489970
	O474	O	-0.001893	-0.040568	0.446454
	O475	O	0.146947	-0.040900	0.492188
	O476	O	0.083078	-0.040932	0.489646
	O477	O	0.139666	-0.290560	0.573328
	O478	O	-0.007394	-0.125013	0.623564
	O479	O	0.160541	-0.374955	0.489557
	C480	C	0.116317	-0.285093	0.556098
	C481	C	0.122319	-0.374695	0.560172
	C482	C	0.116324	-0.464263	0.556113
	C483	C	0.104644	-0.464145	0.547882
	C484	C	0.098660	-0.374626	0.543606
	C485	C	0.104642	-0.284947	0.547872
	C486	C	0.086320	-0.374519	0.533437
	C487	C	0.134746	-0.374523	0.569666
	C488	C	0.051647	-0.374485	0.538237
	C489	C	0.040628	-0.374226	0.555525
	C490	C	0.035466	-0.284927	0.563834
	C491	C	0.025331	-0.285011	0.580076
	C492	C	0.020142	-0.374114	0.588393
	C493	C	0.025306	-0.463162	0.580053
	C494	C	0.035435	-0.463244	0.563811
	C495	C	0.009319	-0.374298	0.606172
	C496	C	0.051477	-0.124634	0.486178
	C497	C	0.039026	-0.124854	0.476679
	C498	C	0.032999	-0.034986	0.472643
	C499	C	0.021311	-0.034946	0.464484
	C500	C	0.015355	-0.124682	0.460131
	C501	C	0.021346	-0.214546	0.464403
	C502	C	0.033052	-0.214668	0.472531
	C503	C	0.002967	-0.124700	0.450274
	C504	C	0.088508	-0.125037	0.489322
	C505	C	0.102225	-0.124913	0.489338
	C506	C	0.108694	-0.214735	0.490293
	C507	C	0.121300	-0.214627	0.492039
	C508	C	0.127767	-0.124705	0.492834
	C509	C	0.121290	-0.034880	0.491949
	C510	C	0.108677	-0.034946	0.490213
	C511	C	0.141493	-0.124787	0.492527
	H512	H	0.126129	-0.284651	0.492850
	H513	H	0.103817	-0.284614	0.489689
	H514	H	0.120809	-0.215494	0.559324
	H515	H	0.100152	-0.215024	0.544644
	H516	H	0.071052	-0.375332	0.478289
	H517	H	0.068391	-0.125769	0.540586
	H518	H	-0.008067	-0.124885	0.607613
	H519	H	0.159207	-0.374508	0.505537
	H520	H	0.037611	-0.284177	0.475717
	H521	H	0.016848	-0.284151	0.461244
	H522	H	0.021433	-0.215939	0.586339
	H523	H	0.039351	-0.215822	0.557425
	H524	H	0.016780	0.034599	0.461363
	H525	H	0.037511	0.034537	0.475867
	H526	H	0.039287	-0.532310	0.557466
	H527	H	0.021362	-0.532067	0.586322
	H528	H	0.100117	-0.533791	0.544713
	H529	H	0.120810	-0.533662	0.559438
	H530	H	0.103803	0.035024	0.489518
	H531	H	0.126150	0.035084	0.492601
	Al532	Al	0.068934	0.000421	0.509428
	Al533	Al	0.068910	0.249694	0.509569
	Al534	Al	-0.014384	0.250140	0.425821
	Al535	Al	-0.014427	-0.000756	0.426127
	O536	O	0.081496	0.040850	0.529433
	O537	O	0.069471	0.125198	0.494545
	O538	O	0.068752	0.375475	0.524426
	O539	O	0.139632	0.041440	0.573458
	O540	O	0.055978	0.040972	0.531839
	O541	O	0.004975	0.040755	0.613165
	O542	O	0.056072	0.208764	0.531898
	O543	O	0.056335	0.290877	0.490107
	O544	O	-0.001767	0.290296	0.445984
	O545	O	0.081446	0.209141	0.529717
	O546	O	0.083136	0.290434	0.489888
	O547	O	0.146953	0.291005	0.492219
	O548	O	0.004935	0.208903	0.613017
	O549	O	0.056391	0.459109	0.489850
	O550	O	-0.001823	0.458760	0.446284
	O551	O	0.146933	0.459532	0.492144
	O552	O	0.083026	0.458768	0.489513
	O553	O	0.139643	0.209515	0.573256
	O554	O	-0.007296	0.375290	0.623457
	O555	O	0.160514	0.124981	0.489533
	C556	C	0.116376	0.214726	0.555758
	C557	C	0.122309	0.125019	0.560120
	C558	C	0.116262	0.035368	0.556239
	C559	C	0.104597	0.035145	0.547961
	C560	C	0.098667	0.124702	0.543420
	C561	C	0.104698	0.214315	0.547527
	C562	C	0.086329	0.124967	0.533484
	C563	C	0.134725	0.125270	0.569647
	C564	C	0.051661	0.124975	0.538525
	C565	C	0.040581	0.125012	0.555698
	C566	C	0.035361	0.213719	0.563935
	C567	C	0.025210	0.213797	0.580113
	C568	C	0.020045	0.124834	0.588475
	C569	C	0.025246	0.036142	0.580156
	C570	C	0.035386	0.036227	0.563985
	C571	C	0.009210	0.124828	0.606254
	C572	C	0.051473	0.374852	0.486289
	C573	C	0.039017	0.374990	0.476797
	C574	C	0.033056	0.464720	0.472470
	C575	C	0.021379	0.464877	0.464296
	C576	C	0.015387	0.374899	0.460100
	C577	C	0.021329	0.285195	0.464595
	C578	C	0.033007	0.285160	0.472815
	C579	C	0.002993	0.374666	0.450109
	C580	C	0.088499	0.374826	0.489459
	C581	C	0.102200	0.375485	0.489463
	C582	C	0.108659	0.285488	0.490294
	C583	C	0.121283	0.285416	0.492040
	C584	C	0.127771	0.375290	0.492909
	C585	C	0.121281	0.465282	0.492126
	C586	C	0.108661	0.465474	0.490403
	C587	C	0.141503	0.375223	0.492435
	H588	H	0.126132	0.215436	0.492689
	H589	H	0.103788	0.215537	0.489736
	H590	H	0.120924	0.284671	0.558721
	H591	H	0.100217	0.284285	0.544178
	H592	H	0.070760	0.125337	0.478440
	H593	H	0.068846	0.376008	0.540594
	H594	H	-0.007932	0.375318	0.607525
	H595	H	0.159056	0.124784	0.505520
	H596	H	0.037456	0.215556	0.476223
	H597	H	0.016773	0.215212	0.461501
	H598	H	0.021306	0.282701	0.586429
	H599	H	0.039342	0.282652	0.557731
	H600	H	0.016864	0.535007	0.461008
	H601	H	0.037616	0.534310	0.475551
	H602	H	0.039360	-0.032707	0.557798
	H603	H	0.021346	-0.032802	0.586472
	H604	H	0.100075	-0.034857	0.544941
	H605	H	0.120778	-0.034307	0.559616
	H606	H	0.103777	0.535450	0.489942
	H607	H	0.126137	0.535294	0.492909
	Al608	Al	0.076646	-0.499833	0.721605
	Al609	Al	0.076641	-0.249717	0.721579
	Al610	Al	-0.006598	-0.249980	0.638110
	Al611	Al	-0.006641	-0.499762	0.638067
	O612	O	0.090158	-0.458955	0.738622
	O613	O	0.075836	-0.374909	0.707044
	O614	O	0.077331	-0.124662	0.736185
	O615	O	0.146478	-0.459060	0.787656
	O616	O	0.065157	-0.459084	0.746975
	O617	O	0.018050	-0.458905	0.836836
	O618	O	0.065176	-0.291156	0.747080
	O619	O	0.063124	-0.208948	0.704569
	O620	O	0.006859	-0.208912	0.655280
	O621	O	0.090140	-0.290653	0.738518
	O622	O	0.088259	-0.209134	0.696487
	O623	O	0.139315	-0.208192	0.615223
	O624	O	0.018136	-0.290969	0.836956
	O625	O	0.063236	-0.040395	0.704348
	O626	O	0.006804	-0.040550	0.655136
	O627	O	0.139356	-0.040389	0.615295
	O628	O	0.088326	-0.041036	0.696567
	O629	O	0.146490	-0.290734	0.787611
	O630	O	0.005855	-0.124880	0.847651
	O631	O	0.152061	-0.374775	0.607804
	C632	C	0.123996	-0.285836	0.767868
	C633	C	0.129711	-0.375005	0.772835
	C634	C	0.123957	-0.464008	0.767920
	C635	C	0.112686	-0.463949	0.758194
	C636	C	0.106939	-0.374802	0.753352
	C637	C	0.112712	-0.285615	0.758139
	C638	C	0.094911	-0.374796	0.742583
	C639	C	0.141763	-0.374895	0.783537
	C640	C	0.061170	-0.375061	0.754451
	C641	C	0.051090	-0.375050	0.773858
	C642	C	0.046291	-0.286036	0.782970
	C643	C	0.036958	-0.286053	0.800903
	C644	C	0.032151	-0.374934	0.810061
	C645	C	0.036932	-0.463944	0.800925
	C646	C	0.046266	-0.464029	0.783001
	C647	C	0.022072	-0.375023	0.829464
	C648	C	0.058478	-0.124735	0.700353
	C649	C	0.046422	-0.124585	0.689528
	C650	C	0.040740	-0.035098	0.684429
	C651	C	0.029451	-0.035168	0.674643
	C652	C	0.023690	-0.124517	0.669821
	C653	C	0.029396	-0.213856	0.674934
	C654	C	0.040649	-0.213808	0.684750
	C655	C	0.011574	-0.124641	0.659197
	C656	C	0.092543	-0.124941	0.689660
	C657	C	0.103358	-0.124879	0.671793
	C658	C	0.108477	-0.213732	0.663274
	C659	C	0.118624	-0.213583	0.647080
	C660	C	0.123898	-0.124447	0.639055
	C661	C	0.118720	-0.035617	0.647383
	C662	C	0.108584	-0.035737	0.663602
	C663	C	0.134944	-0.124334	0.621818
	H664	H	0.122498	-0.282492	0.640620
	H665	H	0.104510	-0.283063	0.669423
	H666	H	0.128433	-0.217447	0.771606
	H667	H	0.108371	-0.217041	0.754074
	H668	H	0.074976	-0.375338	0.691110
	H669	H	0.078015	-0.124733	0.752156
	H670	H	0.004905	-0.124909	0.831568
	H671	H	0.152116	-0.374411	0.624009
	H672	H	0.044959	-0.283005	0.688785
	H673	H	0.025000	-0.282626	0.671285
	H674	H	0.033335	-0.216902	0.807950
	H675	H	0.049872	-0.216927	0.775946
	H676	H	0.025058	0.033679	0.670704
	H677	H	0.045206	0.033495	0.688166
	H678	H	0.049857	-0.532972	0.775977
	H679	H	0.033317	-0.532971	0.807883
	H680	H	0.108341	-0.532895	0.754266
	H681	H	0.128356	-0.532877	0.771661
	H682	H	0.104695	0.033433	0.670050
	H683	H	0.122641	0.033666	0.641183
	Al684	Al	0.076657	0.000452	0.721541
	Al685	Al	0.076700	0.249898	0.721517
	Al686	Al	-0.006687	0.250155	0.638079
	Al687	Al	-0.006692	0.000175	0.638156
	O688	O	0.090222	0.040767	0.738500
	O689	O	0.075950	0.125340	0.706954
	O690	O	0.077389	0.374900	0.736151
	O691	O	0.146580	0.041260	0.787503
	O692	O	0.065178	0.041292	0.746861
	O693	O	0.018092	0.041064	0.836765
	O694	O	0.065186	0.209326	0.746863
	O695	O	0.063189	0.290683	0.704512
	O696	O	0.006766	0.290895	0.655355
	O697	O	0.090164	0.209155	0.738644
	O698	O	0.088374	0.291256	0.696617
	O699	O	0.139224	0.291147	0.615050
	O700	O	0.018173	0.209291	0.836780
	O701	O	0.063194	0.458896	0.704465
	O702	O	0.006881	0.459179	0.655063
	O703	O	0.139371	0.458990	0.615247
	O704	O	0.088342	0.459232	0.696649
	O705	O	0.146546	0.209659	0.787622
	O706	O	0.005913	0.374997	0.847680
	O707	O	0.151961	0.125596	0.607835
	C708	C	0.124017	0.214717	0.767833
	C709	C	0.129753	0.125339	0.772823
	C710	C	0.123975	0.035750	0.768116
	C711	C	0.112703	0.035548	0.758328
	C712	C	0.107002	0.125089	0.753286
	C713	C	0.112766	0.214487	0.758094
	C714	C	0.094930	0.125043	0.742587
	C715	C	0.141806	0.125398	0.783567
	C716	C	0.061208	0.125337	0.754362
	C717	C	0.051133	0.125340	0.773654
	C718	C	0.046273	0.214374	0.782730
	C719	C	0.036920	0.214259	0.800691
	C720	C	0.032193	0.125204	0.809930
	C721	C	0.037013	0.036146	0.800784
	C722	C	0.046365	0.036353	0.782821
	C723	C	0.022135	0.125201	0.829354
	C724	C	0.058451	0.374827	0.700427
	C725	C	0.046398	0.374583	0.689668
	C726	C	0.040735	0.463953	0.684419
	C727	C	0.029449	0.464110	0.674669
	C728	C	0.023627	0.374806	0.669993
	C729	C	0.029309	0.285475	0.675171
	C730	C	0.040583	0.285392	0.684934
	C731	C	0.011549	0.374950	0.659299
	C732	C	0.092620	0.375327	0.689739
	C733	C	0.103427	0.375454	0.671901
	C734	C	0.108536	0.286513	0.663422
	C735	C	0.118628	0.286453	0.647169
	C736	C	0.123889	0.375382	0.638998
	C737	C	0.118748	0.464396	0.647350
	C738	C	0.108660	0.464375	0.663610
	C739	C	0.134919	0.375124	0.621773
	H740	H	0.122459	0.217386	0.640664
	H741	H	0.104579	0.217694	0.669749
	H742	H	0.128368	0.283740	0.771690
	H743	H	0.108399	0.283469	0.754176
	H744	H	0.075327	0.124947	0.691055
	H745	H	0.078102	0.374837	0.752065
	H746	H	0.005161	0.375145	0.831776
	H747	H	0.151915	0.126011	0.624046
	H748	H	0.044907	0.216572	0.688967
	H749	H	0.024867	0.216458	0.671562
	H750	H	0.033320	0.283294	0.807635
	H751	H	0.049839	0.283437	0.775697
	H752	H	0.025107	0.532826	0.670636
	H753	H	0.045181	0.532864	0.687992
	H754	H	0.049982	-0.032794	0.775869
	H755	H	0.033451	-0.032928	0.807832
	H756	H	0.108268	-0.033404	0.754626
	H757	H	0.128334	-0.033511	0.772168
	H758	H	0.104804	0.533279	0.670048
	H759	H	0.122731	0.533185	0.641015
	Al760	Al	0.089972	-0.499788	0.945175
	Al761	Al	0.089998	-0.249790	0.945287
	Al762	Al	0.006603	-0.249971	0.862163
	Al763	Al	0.006626	-0.500053	0.862181
	O764	O	0.103409	-0.459149	0.962508
	O765	O	0.089244	-0.374910	0.930699
	O766	O	0.090743	-0.124781	0.959792
	O767	O	0.159867	-0.458792	1.011492
	O768	O	0.078328	-0.458785	0.970249
	O769	O	0.027352	-0.458742	1.051722
	O770	O	0.078369	-0.290700	0.970475
	O771	O	0.076452	-0.209284	0.928263
	O772	O	0.020004	-0.208764	0.879573
	O773	O	0.103488	-0.290883	0.962278
	O774	O	0.101452	-0.209078	0.919842
	O775	O	0.148553	-0.208869	0.830051
	O776	O	0.027339	-0.290832	1.051729
	O777	O	0.076536	-0.041031	0.928155
	O778	O	0.020090	-0.040491	0.879236
	O779	O	0.148561	-0.040768	0.830085
	O780	O	0.101454	-0.041135	0.919850
	O781	O	0.159876	-0.290747	1.011303
	O782	O	0.014502	-0.124916	1.058941
	O783	O	0.160731	-0.374881	0.819172
	C784	C	0.137279	-0.286061	0.991843
	C785	C	0.143006	-0.374964	0.996875
	C786	C	0.137182	-0.463910	0.992229
	C787	C	0.125874	-0.463909	0.982534
	C788	C	0.120208	-0.375069	0.977337
	C789	C	0.125993	-0.286061	0.982127
	C790	C	0.108169	-0.374960	0.966543
	C791	C	0.155116	-0.374698	1.007403
	C792	C	0.074107	-0.374854	0.977306
	C793	C	0.063307	-0.374999	0.995115
	C794	C	0.058157	-0.285938	1.003520
	C795	C	0.048000	-0.286117	1.019628
	C796	C	0.042740	-0.375081	1.027777
	C797	C	0.047931	-0.464237	1.019459
	C798	C	0.058076	-0.463975	1.003312
	C799	C	0.031706	-0.374940	1.045103
	C800	C	0.071756	-0.125132	0.924192
	C801	C	0.059675	-0.124702	0.913547
	C802	C	0.053976	-0.035401	0.908535
	C803	C	0.042692	-0.035479	0.898834
	C804	C	0.036885	-0.124697	0.894105
	C805	C	0.042603	-0.213923	0.899095
	C806	C	0.053897	-0.213961	0.908775
	C807	C	0.024804	-0.124698	0.883424
	C808	C	0.105438	-0.124862	0.912381
	C809	C	0.115572	-0.125049	0.893105
	C810	C	0.120359	-0.213797	0.883923
	C811	C	0.129722	-0.213626	0.866042
	C812	C	0.134506	-0.124706	0.856896
	C813	C	0.129741	-0.035823	0.866118
	C814	C	0.120377	-0.035942	0.884003
	C815	C	0.144568	-0.124813	0.837570
	H816	H	0.133288	-0.282579	0.859006
	H817	H	0.116740	-0.282818	0.890773
	H818	H	0.141703	-0.217468	0.995505
	H819	H	0.121660	-0.217314	0.978265
	H820	H	0.088531	-0.374830	0.914687
	H821	H	0.091468	-0.124673	0.975788
	H822	H	0.014388	-0.124463	1.042731
	H823	H	0.161348	-0.374426	0.835202
	H824	H	0.058277	-0.282707	0.912694
	H825	H	0.038220	-0.282599	0.895294
	H826	H	0.044124	-0.217002	1.026093
	H827	H	0.062138	-0.216901	0.997293
	H828	H	0.038348	0.033606	0.894803
	H829	H	0.058396	0.033708	0.912233
	H830	H	0.061999	-0.533099	0.996943
	H831	H	0.043986	-0.533276	1.025766
	H832	H	0.121391	-0.532649	0.978965
	H833	H	0.141513	-0.532733	0.996295
	H834	H	0.116751	0.032919	0.891009
	H835	H	0.133327	0.033558	0.859174
	Al836	Al	0.089973	0.000175	0.945294
	Al837	Al	0.090011	0.250444	0.945127
	Al838	Al	0.006643	0.249890	0.862167
	Al839	Al	0.006656	0.000038	0.862101
	O840	O	0.103417	0.040855	0.962489
	O841	O	0.089281	0.125029	0.930622
	O842	O	0.090737	0.375237	0.959571
	O843	O	0.159877	0.041294	1.011410
	O844	O	0.078306	0.041169	0.970323
	O845	O	0.027269	0.041776	1.051547
	O846	O	0.078416	0.209230	0.970301
	O847	O	0.076486	0.290917	0.928114
	O848	O	0.020047	0.291166	0.879448
	O849	O	0.103481	0.209390	0.962363
	O850	O	0.101440	0.290989	0.919695
	O851	O	0.148699	0.291418	0.830132
	O852	O	0.027314	0.209309	1.051662
	O853	O	0.076561	0.459409	0.927917
	O854	O	0.020049	0.459527	0.879440
	O855	O	0.148614	0.459649	0.830151
	O856	O	0.101486	0.459085	0.919845
	O857	O	0.159825	0.209720	1.011427
	O858	O	0.014531	0.375318	1.058998
	O859	O	0.160749	0.125236	0.819193
	C860	C	0.137288	0.214250	0.991759
	C861	C	0.142993	0.125023	0.996889
	C862	C	0.137206	0.035780	0.992128
	C863	C	0.125932	0.035790	0.982406
	C864	C	0.120216	0.125029	0.977331
	C865	C	0.125984	0.214408	0.982064
	C866	C	0.108155	0.125000	0.966601
	C867	C	0.155116	0.125564	1.007451
	C868	C	0.074105	0.125532	0.977225
	C869	C	0.063328	0.125732	0.995106
	C870	C	0.058161	0.214532	1.003529
	C871	C	0.048016	0.214405	1.019679
	C872	C	0.042762	0.125693	1.027841
	C873	C	0.047955	0.036968	1.019467
	C874	C	0.058108	0.036883	1.003334
	C875	C	0.031675	0.125588	1.044976
	C876	C	0.071766	0.375216	0.924056
	C877	C	0.059658	0.375149	0.913532
	C878	C	0.053984	0.464471	0.908418
	C879	C	0.042681	0.464625	0.898780
	C880	C	0.036859	0.375286	0.894166
	C881	C	0.042540	0.285927	0.899301
	C882	C	0.053833	0.285798	0.908933
	C883	C	0.024767	0.375138	0.883524
	C884	C	0.105453	0.375029	0.912355
	C885	C	0.115565	0.375155	0.893029
	C886	C	0.120366	0.286156	0.883882
	C887	C	0.129741	0.286135	0.866003
	C888	C	0.134553	0.375187	0.856873
	C889	C	0.129732	0.464075	0.866005
	C890	C	0.120352	0.464151	0.883858
	C891	C	0.144697	0.375396	0.837636
	H892	H	0.133412	0.216914	0.859157
	H893	H	0.116761	0.217034	0.890859
	H894	H	0.141697	0.282928	0.995466
	H895	H	0.121615	0.283302	0.978068
	H896	H	0.088530	0.125299	0.914670
	H897	H	0.091465	0.375267	0.975443
	H898	H	0.014487	0.375489	1.042819
	H899	H	0.161563	0.125254	0.835135
	H900	H	0.058179	0.216847	0.912911
	H901	H	0.038082	0.217118	0.895657
	H902	H	0.044095	0.283113	1.025941
	H903	H	0.062093	0.283401	0.997221
	H904	H	0.038359	0.533409	0.894696
	H905	H	0.058461	0.533236	0.912061
	H906	H	0.061997	-0.032087	0.996882
	H907	H	0.043980	-0.031942	1.025651
	H908	H	0.121506	-0.033169	0.978681
	H909	H	0.141554	-0.033038	0.996209
	H910	H	0.116754	0.533334	0.890766
	H911	H	0.133375	0.533242	0.859112
	Al912	Al	0.256703	-0.499979	0.111904
	Al913	Al	0.256688	-0.250001	0.111827
	Al914	Al	0.173315	-0.249713	0.028521
	Al915	Al	0.173318	-0.499994	0.028550
	O916	O	0.270135	-0.459157	0.129094
	O917	O	0.255914	-0.374917	0.097268
	O918	O	0.257319	-0.124964	0.126361
	O919	O	0.326551	-0.459138	0.178086
	O920	O	0.245054	-0.459316	0.136944
	O921	O	0.194036	-0.458853	0.218257
	O922	O	0.245028	-0.291047	0.136971
	O923	O	0.243181	-0.209488	0.094694
	O924	O	0.186729	-0.208812	0.045699
	O925	O	0.270114	-0.291009	0.128940
	O926	O	0.268204	-0.208737	0.086486
	O927	O	0.315230	-0.208865	-0.003342
	O928	O	0.193978	-0.290803	0.218038
	O929	O	0.243185	-0.041066	0.094765
	O930	O	0.186734	-0.040544	0.045853
	O931	O	0.315272	-0.040768	-0.003342
	O932	O	0.268106	-0.040842	0.086477
	O933	O	0.326534	-0.290958	0.178177
	O934	O	0.181240	-0.124591	0.225563
	O935	O	0.327453	-0.375128	-0.014218
	C936	C	0.303937	-0.285600	0.158514
	C937	C	0.309672	-0.374745	0.163565
	C938	C	0.303917	-0.463803	0.158772
	C939	C	0.292634	-0.463739	0.149013
	C940	C	0.286916	-0.374548	0.143905
	C941	C	0.292676	-0.285448	0.148739
	C942	C	0.274856	-0.374952	0.133122
	C943	C	0.321778	-0.374955	0.174123
	C944	C	0.240783	-0.375256	0.143793
	C945	C	0.230000	-0.375170	0.161622
	C946	C	0.224777	-0.286218	0.169813
	C947	C	0.214618	-0.286212	0.185941
	C948	C	0.209445	-0.375076	0.194291
	C949	C	0.214694	-0.464083	0.186195
	C950	C	0.224857	-0.464147	0.170028
	C951	C	0.198400	-0.374946	0.211540
	C952	C	0.238428	-0.125222	0.090751
	C953	C	0.226318	-0.125116	0.080148
	C954	C	0.220528	-0.035726	0.075405
	C955	C	0.209223	-0.035559	0.065698
	C956	C	0.203516	-0.125037	0.060626
	C957	C	0.209312	-0.214419	0.065346
	C958	C	0.220607	-0.214383	0.075056
	C959	C	0.191480	-0.124507	0.049768
	C960	C	0.272154	-0.124993	0.079052
	C961	C	0.282236	-0.124745	0.059676
	C962	C	0.287018	-0.213925	0.050534
	C963	C	0.296369	-0.213770	0.032596
	C964	C	0.301151	-0.124695	0.023414
	C965	C	0.296382	-0.035638	0.032613
	C966	C	0.287019	-0.035725	0.050523
	C967	C	0.311221	-0.124798	0.004088
	H968	H	0.299926	-0.282856	0.025665
	H969	H	0.283444	-0.283143	0.057515
	H970	H	0.308345	-0.216605	0.162214
	H971	H	0.288340	-0.216591	0.144803
	H972	H	0.255102	-0.375167	0.081342
	H973	H	0.257931	-0.125115	0.142278
	H974	H	0.181147	-0.125241	0.209374
	H975	H	0.328278	-0.375291	0.001731
	H976	H	0.225029	-0.283597	0.078780
	H977	H	0.205044	-0.283499	0.061152
	H978	H	0.210655	-0.217384	0.192073
	H979	H	0.228635	-0.217219	0.163425
	H980	H	0.204873	0.033330	0.061789
	H981	H	0.224899	0.033253	0.079341
	H982	H	0.228824	-0.532976	0.163790
	H983	H	0.210796	-0.533013	0.192571
	H984	H	0.288234	-0.532585	0.145186
	H985	H	0.308316	-0.532372	0.162676
	H986	H	0.283464	0.033381	0.057492
	H987	H	0.299966	0.033503	0.025558
	Al988	Al	0.256667	0.000210	0.111884
	Al989	Al	0.256702	0.250017	0.111871
	Al990	Al	0.173330	0.250051	0.028497
	Al991	Al	0.173324	0.000142	0.028559
	O992	O	0.270156	0.040498	0.129052
	O993	O	0.255965	0.124918	0.097290
	O994	O	0.257368	0.374859	0.126453
	O995	O	0.326480	0.040899	0.178213
	O996	O	0.245080	0.041300	0.137004
	O997	O	0.194050	0.041302	0.218243
	O998	O	0.245005	0.209356	0.136836
	O999	O	0.243195	0.290754	0.094791
	O1000	O	0.186741	0.291177	0.045841
	O1001	O	0.270170	0.208719	0.128990
	O1002	O	0.268219	0.290542	0.086540
	O1003	O	0.315174	0.291048	-0.003487
	O1004	O	0.194012	0.209252	0.218252
	O1005	O	0.243163	0.459012	0.094924
	O1006	O	0.186831	0.459441	0.045673
	O1007	O	0.315200	0.459010	-0.003399
	O1008	O	0.268174	0.458751	0.086539
	O1009	O	0.326537	0.209331	0.177994
	O1010	O	0.181321	0.375364	0.225531
	O1011	O	0.327413	0.124867	-0.014165
	C1012	C	0.303986	0.214495	0.158350
	C1013	C	0.309664	0.125161	0.163524
	C1014	C	0.303877	0.036045	0.158858
	C1015	C	0.292617	0.035875	0.149052
	C1016	C	0.286936	0.124968	0.143863
	C1017	C	0.292712	0.214338	0.148556
	C1018	C	0.274889	0.124582	0.133107
	C1019	C	0.321753	0.125111	0.174140
	C1020	C	0.240777	0.125306	0.143764
	C1021	C	0.229944	0.125087	0.161551
	C1022	C	0.224681	0.214065	0.169637
	C1023	C	0.214561	0.214089	0.185893
	C1024	C	0.209414	0.125254	0.194341
	C1025	C	0.214702	0.036267	0.186337
	C1026	C	0.224828	0.036132	0.170073
	C1027	C	0.198427	0.125366	0.211667
	C1028	C	0.238403	0.374624	0.090918
	C1029	C	0.226333	0.374824	0.080220
	C1030	C	0.220533	0.463939	0.075573
	C1031	C	0.209276	0.464221	0.065718
	C1032	C	0.203576	0.375218	0.060605
	C1033	C	0.209331	0.286137	0.065467
	C1034	C	0.220589	0.285783	0.075268
	C1035	C	0.191534	0.375512	0.049780
	C1036	C	0.272190	0.374764	0.079102
	C1037	C	0.282247	0.374879	0.059731
	C1038	C	0.287024	0.285783	0.050525
	C1039	C	0.296360	0.285726	0.032587
	C1040	C	0.301151	0.375013	0.023445
	C1041	C	0.296399	0.464189	0.032682
	C1042	C	0.287064	0.464124	0.050632
	C1043	C	0.311190	0.375052	0.003993
	H1044	H	0.299956	0.216474	0.025530
	H1045	H	0.283443	0.216637	0.057511
	H1046	H	0.308412	0.283396	0.162051
	H1047	H	0.288336	0.283118	0.144488
	H1048	H	0.255024	0.124936	0.081365
	H1049	H	0.258010	0.374954	0.142414
	H1050	H	0.181342	0.375125	0.209319
	H1051	H	0.328089	0.125325	0.001813
	H1052	H	0.224955	0.216743	0.079164
	H1053	H	0.204949	0.217612	0.061570
	H1054	H	0.210610	0.283052	0.192079
	H1055	H	0.228538	0.282886	0.163128
	H1056	H	0.204868	0.532840	0.062012
	H1057	H	0.224858	0.532832	0.079655
	H1058	H	0.228805	-0.032845	0.163924
	H1059	H	0.210857	-0.032876	0.192871
	H1060	H	0.288221	-0.033126	0.145393
	H1061	H	0.308219	-0.032527	0.162907
	H1062	H	0.283505	0.533039	0.057656
	H1063	H	0.300004	0.533254	0.025740
	Al1064	Al	0.264409	-0.500740	0.324130
	Al1065	Al	0.264435	-0.249956	0.324196
	Al1066	Al	0.181110	-0.250311	0.240411
	Al1067	Al	0.181122	-0.499317	0.240604
	O1068	O	0.277000	-0.459255	0.343579
	O1069	O	0.264607	-0.375062	0.309139
	O1070	O	0.263854	-0.125147	0.339118
	O1071	O	0.335158	-0.459005	0.387363
	O1072	O	0.250216	-0.459410	0.343705
	O1073	O	0.186349	-0.459325	0.340874
	O1074	O	0.250267	-0.291259	0.343735
	O1075	O	0.251883	-0.208865	0.304018
	O1076	O	0.193770	-0.208940	0.259782
	O1077	O	0.276997	-0.290931	0.343657
	O1078	O	0.277324	-0.208996	0.301662
	O1079	O	0.328332	-0.209248	0.220187
	O1080	O	0.186335	-0.291107	0.341056
	O1081	O	0.251888	-0.040734	0.303996
	O1082	O	0.193687	-0.040774	0.260160
	O1083	O	0.328343	-0.041233	0.220195
	O1084	O	0.277354	-0.041034	0.301792
	O1085	O	0.335180	-0.291013	0.387321
	O1086	O	0.172755	-0.125036	0.343786
	O1087	O	0.340748	-0.375149	0.209801
	C1088	C	0.312075	-0.285367	0.368803
	C1089	C	0.318042	-0.374960	0.373171
	C1090	C	0.312020	-0.464739	0.369134
	C1091	C	0.300333	-0.464919	0.360920
	C1092	C	0.294356	-0.375265	0.356639
	C1093	C	0.300392	-0.285512	0.360583
	C1094	C	0.281894	-0.375205	0.347252
	C1095	C	0.330357	-0.375152	0.383330
	C1096	C	0.244818	-0.375293	0.343982
	C1097	C	0.231082	-0.374771	0.343912
	C1098	C	0.224593	-0.284914	0.343046
	C1099	C	0.211978	-0.285093	0.341352
	C1100	C	0.205514	-0.375061	0.340541
	C1101	C	0.211996	-0.464800	0.341383
	C1102	C	0.224620	-0.464734	0.343082
	C1103	C	0.191756	-0.375128	0.340746
	C1104	C	0.247081	-0.124654	0.300002
	C1105	C	0.234702	-0.125033	0.289934
	C1106	C	0.228723	-0.035241	0.285587
	C1107	C	0.217055	-0.035122	0.277381
	C1108	C	0.211056	-0.124876	0.273201
	C1109	C	0.217041	-0.214798	0.277394
	C1110	C	0.228704	-0.214738	0.285653
	C1111	C	0.198622	-0.124932	0.263600
	C1112	C	0.281723	-0.125161	0.295103
	C1113	C	0.292728	-0.124948	0.277828
	C1114	C	0.297912	-0.214058	0.269464
	C1115	C	0.308055	-0.214106	0.253196
	C1116	C	0.313291	-0.125115	0.244941
	C1117	C	0.308124	-0.036023	0.253373
	C1118	C	0.297971	-0.035931	0.269622
	C1119	C	0.324084	-0.125325	0.227091
	H1120	H	0.311916	-0.283293	0.246810
	H1121	H	0.293944	-0.283229	0.275724
	H1122	H	0.316597	-0.215624	0.371880
	H1123	H	0.295874	-0.215985	0.357236
	H1124	H	0.264845	-0.374680	0.292868
	H1125	H	0.262567	-0.125105	0.355155
	H1126	H	0.174139	-0.125045	0.327677
	H1127	H	0.341140	-0.375274	0.225840
	H1128	H	0.233246	-0.284615	0.288817
	H1129	H	0.212530	-0.284558	0.274023
	H1130	H	0.207107	-0.214903	0.340525
	H1131	H	0.229456	-0.214801	0.343700
	H1132	H	0.212580	0.034601	0.274057
	H1133	H	0.233258	0.034566	0.288744
	H1134	H	0.229496	-0.534648	0.343765
	H1135	H	0.207128	-0.534791	0.340643
	H1136	H	0.295790	-0.534945	0.357914
	H1137	H	0.316515	-0.534438	0.372530
	H1138	H	0.294102	0.033225	0.276011
	H1139	H	0.312070	0.032840	0.247109
	Al1140	Al	0.264467	-0.000577	0.324208
	Al1141	Al	0.264471	0.250376	0.324012
	Al1142	Al	0.181082	0.250024	0.240520
	Al1143	Al	0.181136	0.000547	0.240609
	O1144	O	0.277032	0.041678	0.343649
	O1145	O	0.264681	0.124995	0.309106
	O1146	O	0.263817	0.374925	0.339020
	O1147	O	0.335203	0.040840	0.387279
	O1148	O	0.250288	0.041106	0.343972
	O1149	O	0.186358	0.041222	0.341000
	O1150	O	0.250301	0.209442	0.343668
	O1151	O	0.251888	0.291093	0.303871
	O1152	O	0.193662	0.291020	0.260017
	O1153	O	0.277102	0.209836	0.343378
	O1154	O	0.277285	0.290888	0.301454
	O1155	O	0.328403	0.290881	0.220080
	O1156	O	0.186344	0.209290	0.341000
	O1157	O	0.251790	0.459301	0.303990
	O1158	O	0.193648	0.459125	0.260115
	O1159	O	0.328402	0.458974	0.220247
	O1160	O	0.277344	0.458877	0.301618
	O1161	O	0.335212	0.209059	0.387417
	O1162	O	0.172844	0.375061	0.343721
	O1163	O	0.340741	0.124911	0.209690
	C1164	C	0.312118	0.215077	0.368875
	C1165	C	0.318050	0.125276	0.373404
	C1166	C	0.312023	0.035522	0.369250
	C1167	C	0.300349	0.035418	0.361053
	C1168	C	0.294402	0.125227	0.356725
	C1169	C	0.300463	0.214932	0.360663
	C1170	C	0.281952	0.125787	0.347208
	C1171	C	0.330407	0.124777	0.383365
	C1172	C	0.244869	0.125316	0.344040
	C1173	C	0.231129	0.125378	0.344015
	C1174	C	0.224638	0.215348	0.343100
	C1175	C	0.212027	0.215266	0.341421
	C1176	C	0.205537	0.125359	0.340711
	C1177	C	0.212032	0.035524	0.341499
	C1178	C	0.224646	0.035544	0.343219
	C1179	C	0.191801	0.125286	0.340783
	C1180	C	0.247011	0.375129	0.300017
	C1181	C	0.234708	0.374851	0.289788
	C1182	C	0.228722	0.464452	0.285503
	C1183	C	0.217027	0.464466	0.277344
	C1184	C	0.211015	0.374831	0.273276
	C1185	C	0.217025	0.285197	0.277422
	C1186	C	0.228711	0.285196	0.285602
	C1187	C	0.198551	0.375026	0.263739
	C1188	C	0.281718	0.375084	0.294913
	C1189	C	0.292771	0.374631	0.277709
	C1190	C	0.297973	0.285690	0.269449
	C1191	C	0.308139	0.285627	0.253222
	C1192	C	0.313374	0.374576	0.244979
	C1193	C	0.308246	0.463528	0.253372
	C1194	C	0.298073	0.463457	0.269548
	C1195	C	0.324116	0.374841	0.227068
	H1196	H	0.311963	0.216608	0.246814
	H1197	H	0.294038	0.216568	0.275673
	H1198	H	0.316690	0.284672	0.371972
	H1199	H	0.295968	0.284572	0.357312
	H1200	H	0.264939	0.124478	0.293005
	H1201	H	0.262231	0.375231	0.355068
	H1202	H	0.174703	0.375210	0.327678
	H1203	H	0.341372	0.125308	0.225726
	H1204	H	0.233200	0.215503	0.288894
	H1205	H	0.212494	0.215528	0.274315
	H1206	H	0.207121	0.285172	0.340693
	H1207	H	0.229514	0.285231	0.343705
	H1208	H	0.212474	0.534025	0.274195
	H1209	H	0.233206	0.534015	0.288737
	H1210	H	0.229520	-0.034480	0.343904
	H1211	H	0.207178	-0.034491	0.340770
	H1212	H	0.295802	-0.033885	0.358000
	H1213	H	0.316520	-0.034361	0.372554
	H1214	H	0.294186	0.532567	0.275891
	H1215	H	0.312104	0.532303	0.246999
	Al1216	Al	0.255061	-0.499913	0.442143
	Al1217	Al	0.254957	-0.249557	0.442234
	Al1218	Al	0.171672	-0.249938	0.358842
	Al1219	Al	0.171661	-0.499962	0.358793
	O1220	O	0.266969	-0.458861	0.463625
	O1221	O	0.256187	-0.374590	0.427156
	O1222	O	0.253860	-0.124630	0.457285
	O1223	O	0.326369	-0.458683	0.504044
	O1224	O	0.240288	-0.458781	0.459792
	O1225	O	0.176420	-0.458844	0.457097
	O1226	O	0.240281	-0.290496	0.459841
	O1227	O	0.243004	-0.208766	0.420800
	O1228	O	0.183643	-0.208711	0.380394
	O1229	O	0.266926	-0.290916	0.463611
	O1230	O	0.269696	-0.208952	0.424343
	O1231	O	0.333504	-0.209075	0.427316
	O1232	O	0.176404	-0.290546	0.456813
	O1233	O	0.243005	-0.040715	0.420735
	O1234	O	0.183737	-0.040743	0.380025
	O1235	O	0.333562	-0.040679	0.427183
	O1236	O	0.269713	-0.040720	0.424337
	O1237	O	0.326364	-0.290645	0.504041
	O1238	O	0.162769	-0.124857	0.459432
	O1239	O	0.347101	-0.374874	0.422527
	C1240	C	0.302624	-0.284678	0.487510
	C1241	C	0.308828	-0.374423	0.491010
	C1242	C	0.302680	-0.464327	0.487151
	C1243	C	0.290711	-0.464343	0.480105
	C1244	C	0.284513	-0.374616	0.476499
	C1245	C	0.290648	-0.284664	0.480447
	C1246	C	0.271897	-0.374634	0.467348
	C1247	C	0.321410	-0.374691	0.500349
	C1248	C	0.234863	-0.374611	0.459975
	C1249	C	0.221143	-0.374542	0.460062
	C1250	C	0.214667	-0.284405	0.459093
	C1251	C	0.202059	-0.284209	0.457341
	C1252	C	0.195559	-0.374378	0.456662
	C1253	C	0.202045	-0.464371	0.457432
	C1254	C	0.214661	-0.464533	0.459156
	C1255	C	0.181811	-0.374666	0.456762
	C1256	C	0.238081	-0.124609	0.417019
	C1257	C	0.225479	-0.124823	0.407651
	C1258	C	0.219356	-0.034986	0.403832
	C1259	C	0.207422	-0.034914	0.396725
	C1260	C	0.201246	-0.124685	0.393079
	C1261	C	0.207383	-0.214528	0.396855
	C1262	C	0.219302	-0.214434	0.403946
	C1263	C	0.188638	-0.124634	0.383860
	C1264	C	0.275127	-0.124780	0.424085
	C1265	C	0.288848	-0.125022	0.423783
	C1266	C	0.295350	-0.214889	0.424693
	C1267	C	0.307952	-0.214996	0.426474
	C1268	C	0.314410	-0.124938	0.427357
	C1269	C	0.307921	-0.034917	0.426318
	C1270	C	0.295319	-0.034938	0.424510
	C1271	C	0.328114	-0.124720	0.427421
	H1272	H	0.312808	-0.284794	0.427281
	H1273	H	0.290487	-0.285175	0.424124
	H1274	H	0.307230	-0.214495	0.490283
	H1275	H	0.286072	-0.214452	0.477819
	H1276	H	0.257837	-0.374553	0.411204
	H1277	H	0.251935	-0.124588	0.473240
	H1278	H	0.164581	-0.125317	0.443425
	H1279	H	0.345788	-0.374664	0.438573
	H1280	H	0.223878	-0.284764	0.406681
	H1281	H	0.202776	-0.284514	0.394187
	H1282	H	0.197165	-0.214087	0.456498
	H1283	H	0.219544	-0.214302	0.459708
	H1284	H	0.202847	0.035330	0.394021
	H1285	H	0.223958	0.035258	0.406515
	H1286	H	0.219517	-0.534716	0.459798
	H1287	H	0.197192	-0.534620	0.456672
	H1288	H	0.286176	-0.534475	0.477213
	H1289	H	0.307300	-0.534469	0.489622
	H1290	H	0.290424	0.034935	0.423774
	H1291	H	0.312799	0.035120	0.427013
	Al1292	Al	0.255015	0.000110	0.442132
	Al1293	Al	0.254995	0.250046	0.442101
	Al1294	Al	0.171640	0.250001	0.358818
	Al1295	Al	0.171679	-0.000020	0.358771
	O1296	O	0.267013	0.041116	0.463499
	O1297	O	0.256118	0.125163	0.427040
	O1298	O	0.253907	0.375031	0.457180
	O1299	O	0.326337	0.041019	0.504034
	O1300	O	0.240271	0.040703	0.459815
	O1301	O	0.176403	0.040743	0.456855
	O1302	O	0.240284	0.209278	0.459822
	O1303	O	0.243041	0.291372	0.420578
	O1304	O	0.183676	0.291254	0.380260
	O1305	O	0.266920	0.209038	0.463699
	O1306	O	0.269711	0.291137	0.424415
	O1307	O	0.333571	0.290925	0.427202
	O1308	O	0.176436	0.208996	0.456866
	O1309	O	0.243060	0.459434	0.420608
	O1310	O	0.183700	0.459244	0.380191
	O1311	O	0.333625	0.459331	0.427302
	O1312	O	0.269742	0.459238	0.424476
	O1313	O	0.326333	0.209055	0.504180
	O1314	O	0.162723	0.375063	0.459408
	O1315	O	0.347118	0.124952	0.422514
	C1316	C	0.302592	0.214629	0.487474
	C1317	C	0.308789	0.124972	0.490989
	C1318	C	0.302615	0.035278	0.487153
	C1319	C	0.290680	0.035360	0.480104
	C1320	C	0.284528	0.125286	0.476514
	C1321	C	0.290663	0.214897	0.480410
	C1322	C	0.271921	0.125120	0.467276
	C1323	C	0.321399	0.125111	0.500411
	C1324	C	0.234871	0.124996	0.460024
	C1325	C	0.221152	0.124997	0.460023
	C1326	C	0.214638	0.215045	0.459251
	C1327	C	0.202034	0.214905	0.457455
	C1328	C	0.195590	0.124797	0.456552
	C1329	C	0.202074	0.034786	0.457443
	C1330	C	0.214679	0.034853	0.459242
	C1331	C	0.181858	0.124834	0.456634
	C1332	C	0.238095	0.375355	0.416962
	C1333	C	0.225518	0.375285	0.407675
	C1334	C	0.219325	0.465144	0.404135
	C1335	C	0.207352	0.465010	0.397034
	C1336	C	0.201215	0.375201	0.393310
	C1337	C	0.207398	0.285366	0.396874
	C1338	C	0.219373	0.285435	0.403934
	C1339	C	0.188609	0.375083	0.383926
	C1340	C	0.275158	0.374964	0.424184
	C1341	C	0.288891	0.375400	0.423906
	C1342	C	0.295381	0.285513	0.424674
	C1343	C	0.307988	0.285300	0.426461
	C1344	C	0.314471	0.375233	0.427375
	C1345	C	0.308003	0.465226	0.426367
	C1346	C	0.295397	0.465395	0.424619
	C1347	C	0.328168	0.375245	0.427465
	H1348	H	0.312803	0.215366	0.427303
	H1349	H	0.290482	0.215567	0.424125
	H1350	H	0.307158	0.284806	0.490315
	H1351	H	0.286028	0.284939	0.477804
	H1352	H	0.257592	0.125154	0.410974
	H1353	H	0.252017	0.374433	0.473222
	H1354	H	0.164211	0.374871	0.443300
	H1355	H	0.345701	0.124913	0.438593
	H1356	H	0.223959	0.214947	0.406509
	H1357	H	0.202856	0.215101	0.393974
	H1358	H	0.197163	0.285127	0.456639
	H1359	H	0.219514	0.285131	0.459918
	H1360	H	0.202777	0.535273	0.394248
	H1361	H	0.223890	0.535351	0.406866
	H1362	H	0.219529	-0.035228	0.459963
	H1363	H	0.197191	-0.035088	0.456598
	H1364	H	0.286094	-0.034750	0.477245
	H1365	H	0.307233	-0.035024	0.489736
	H1366	H	0.290528	0.535524	0.424032
	H1367	H	0.312896	0.535216	0.427262
	Al1368	Al	0.244981	-0.499745	0.557971
	Al1369	Al	0.244940	-0.250082	0.558059
	Al1370	Al	0.161648	-0.249916	0.474521
	Al1371	Al	0.161639	-0.499952	0.474563
	O1372	O	0.256983	-0.458854	0.579254
	O1373	O	0.246140	-0.374737	0.542926
	O1374	O	0.243840	-0.124714	0.572992
	O1375	O	0.316383	-0.459156	0.619819
	O1376	O	0.230250	-0.458882	0.575717
	O1377	O	0.166357	-0.458713	0.572798
	O1378	O	0.230226	-0.290656	0.575733
	O1379	O	0.232928	-0.209226	0.536635
	O1380	O	0.173649	-0.208963	0.495936
	O1381	O	0.257052	-0.290558	0.579297
	O1382	O	0.259708	-0.209145	0.540317
	O1383	O	0.323629	-0.209149	0.543360
	O1384	O	0.166358	-0.290412	0.573119
	O1385	O	0.233013	-0.041259	0.536421
	O1386	O	0.173658	-0.040877	0.495877
	O1387	O	0.323615	-0.041129	0.543458
	O1388	O	0.259696	-0.041045	0.539972
	O1389	O	0.316352	-0.291233	0.619783
	O1390	O	0.152834	-0.124539	0.578015
	O1391	O	0.337182	-0.374602	0.540646
	C1392	C	0.292581	-0.285570	0.603348
	C1393	C	0.298772	-0.375389	0.606974
	C1394	C	0.292614	-0.465275	0.603211
	C1395	C	0.280692	-0.465009	0.596050
	C1396	C	0.274530	-0.375111	0.592299
	C1397	C	0.280669	-0.285311	0.596193
	C1398	C	0.261938	-0.374733	0.583018
	C1399	C	0.311424	-0.375341	0.616126
	C1400	C	0.224821	-0.374689	0.576004
	C1401	C	0.211088	-0.374784	0.576353
	C1402	C	0.204590	-0.284838	0.575664
	C1403	C	0.191999	-0.284984	0.573881
	C1404	C	0.185517	-0.374846	0.572860
	C1405	C	0.192023	-0.464878	0.573738
	C1406	C	0.204619	-0.464813	0.575534
	C1407	C	0.171787	-0.374621	0.572797
	C1408	C	0.228042	-0.125221	0.532821
	C1409	C	0.215401	-0.125071	0.523687
	C1410	C	0.209211	-0.035276	0.520047
	C1411	C	0.197284	-0.035071	0.512890
	C1412	C	0.191149	-0.124819	0.509006
	C1413	C	0.197314	-0.214720	0.512797
	C1414	C	0.209249	-0.214769	0.519913
	C1415	C	0.178558	-0.124767	0.499712
	C1416	C	0.265135	-0.125085	0.540019
	C1417	C	0.278862	-0.125048	0.539870
	C1418	C	0.285332	-0.214860	0.541041
	C1419	C	0.297954	-0.214794	0.542863
	C1420	C	0.304462	-0.124943	0.543605
	C1421	C	0.297984	-0.035148	0.542555
	C1422	C	0.285379	-0.035248	0.540694
	C1423	C	0.318171	-0.125122	0.543545
	H1424	H	0.302793	-0.284835	0.543654
	H1425	H	0.280440	-0.284885	0.540413
	H1426	H	0.297187	-0.215388	0.606172
	H1427	H	0.276054	-0.215072	0.593614
	H1428	H	0.247759	-0.374313	0.526920
	H1429	H	0.242325	-0.124456	0.589084
	H1430	H	0.154297	-0.125044	0.561962
	H1431	H	0.335498	-0.374668	0.556701
	H1432	H	0.213841	-0.284989	0.522666
	H1433	H	0.192729	-0.284839	0.510115
	H1434	H	0.187096	-0.214972	0.573228
	H1435	H	0.209472	-0.214724	0.576398
	H1436	H	0.192668	0.035187	0.510303
	H1437	H	0.213782	0.034992	0.522843
	H1438	H	0.209521	-0.534775	0.576085
	H1439	H	0.187172	-0.534761	0.572938
	H1440	H	0.276075	-0.535368	0.593354
	H1441	H	0.297236	-0.535427	0.605885
	H1442	H	0.280543	0.034896	0.539831
	H1443	H	0.302879	0.034767	0.543109
	Al1444	Al	0.245002	0.000077	0.557799
	Al1445	Al	0.244971	0.250402	0.557954
	Al1446	Al	0.161655	0.250127	0.474443
	Al1447	Al	0.161637	-0.000256	0.474487
	O1448	O	0.257018	0.040632	0.579178
	O1449	O	0.246103	0.125175	0.542799
	O1450	O	0.243900	0.375327	0.573016
	O1451	O	0.316322	0.041100	0.619806
	O1452	O	0.230306	0.041408	0.575575
	O1453	O	0.166416	0.040869	0.573223
	O1454	O	0.230264	0.209458	0.575664
	O1455	O	0.233008	0.291682	0.536488
	O1456	O	0.173632	0.290882	0.495866
	O1457	O	0.256945	0.208897	0.579275
	O1458	O	0.259712	0.290860	0.540331
	O1459	O	0.323621	0.291144	0.543413
	O1460	O	0.166420	0.209240	0.573085
	O1461	O	0.232925	0.459731	0.536601
	O1462	O	0.173596	0.458879	0.495953
	O1463	O	0.323583	0.459338	0.543240
	O1464	O	0.259706	0.459168	0.540224
	O1465	O	0.316301	0.209029	0.620003
	O1466	O	0.152884	0.375404	0.577898
	O1467	O	0.337262	0.124829	0.540671
	C1468	C	0.292511	0.215104	0.603406
	C1469	C	0.298752	0.125348	0.606924
	C1470	C	0.292596	0.035661	0.603070
	C1471	C	0.280690	0.035462	0.595882
	C1472	C	0.274494	0.125176	0.592276
	C1473	C	0.280595	0.214965	0.596240
	C1474	C	0.261895	0.124880	0.582983
	C1475	C	0.311364	0.125307	0.616216
	C1476	C	0.224849	0.125227	0.575925
	C1477	C	0.211131	0.124948	0.576188
	C1478	C	0.204671	0.214838	0.575386
	C1479	C	0.192035	0.214944	0.573675
	C1480	C	0.185564	0.125200	0.572779
	C1481	C	0.192008	0.035246	0.573718
	C1482	C	0.204644	0.035212	0.575428
	C1483	C	0.171838	0.125027	0.572940
	C1484	C	0.228034	0.375484	0.532826
	C1485	C	0.215419	0.375297	0.523544
	C1486	C	0.209250	0.464869	0.519738
	C1487	C	0.197330	0.464842	0.512623
	C1488	C	0.191159	0.375056	0.508941
	C1489	C	0.197319	0.285414	0.512758
	C1490	C	0.209253	0.285598	0.519849
	C1491	C	0.178572	0.374888	0.499603
	C1492	C	0.265146	0.374954	0.539998
	C1493	C	0.278864	0.374973	0.539929
	C1494	C	0.285326	0.284912	0.541051
	C1495	C	0.297943	0.285056	0.542919
	C1496	C	0.304447	0.375142	0.543542
	C1497	C	0.297989	0.465124	0.542304
	C1498	C	0.285365	0.464978	0.540425
	C1499	C	0.318189	0.375143	0.543511
	H1500	H	0.302794	0.215002	0.544027
	H1501	H	0.280451	0.214889	0.540631
	H1502	H	0.297089	0.285417	0.606158
	H1503	H	0.275968	0.285007	0.593505
	H1504	H	0.247785	0.125413	0.526743
	H1505	H	0.242421	0.375710	0.589084
	H1506	H	0.154283	0.374781	0.561937
	H1507	H	0.335760	0.124746	0.556715
	H1508	H	0.213851	0.215482	0.522519
	H1509	H	0.192717	0.215263	0.509986
	H1510	H	0.187213	0.285144	0.572925
	H1511	H	0.209520	0.284823	0.576050
	H1512	H	0.192760	0.534887	0.509837
	H1513	H	0.213886	0.534812	0.522404
	H1514	H	0.209471	-0.034938	0.576086
	H1515	H	0.187157	-0.034838	0.572985
	H1516	H	0.276150	-0.034777	0.592914
	H1517	H	0.297226	-0.034659	0.605612
	H1518	H	0.280479	0.534940	0.539520
	H1519	H	0.302842	0.535196	0.542908
	Al1520	Al	0.235612	-0.499712	0.676093
	Al1521	Al	0.235602	-0.250351	0.675885
	Al1522	Al	0.152231	-0.249157	0.592942
	Al1523	Al	0.152224	-0.500152	0.592757
	O1524	O	0.248160	-0.458824	0.696277
	O1525	O	0.236249	-0.374992	0.661139
	O1526	O	0.235473	-0.124870	0.690899
	O1527	O	0.306373	-0.458955	0.739899
	O1528	O	0.222739	-0.458719	0.698395
	O1529	O	0.171668	-0.458730	0.779660
	O1530	O	0.222676	-0.290723	0.698239
	O1531	O	0.223080	-0.208824	0.656365
	O1532	O	0.164896	-0.208795	0.612908
	O1533	O	0.248131	-0.290261	0.696155
	O1534	O	0.249803	-0.208750	0.656276
	O1535	O	0.313638	-0.208902	0.658826
	O1536	O	0.171636	-0.290655	0.779630
	O1537	O	0.223061	-0.040653	0.656419
	O1538	O	0.164714	-0.040484	0.613140
	O1539	O	0.313652	-0.040709	0.658799
	O1540	O	0.249790	-0.040166	0.656256
	O1541	O	0.306384	-0.290727	0.739828
	O1542	O	0.159297	-0.124939	0.790114
	O1543	O	0.327239	-0.375057	0.656249
	C1544	C	0.283011	-0.284707	0.722639
	C1545	C	0.289005	-0.374530	0.726696
	C1546	C	0.282952	-0.464105	0.722711
	C1547	C	0.271270	-0.464135	0.714543
	C1548	C	0.265327	-0.374389	0.710169
	C1549	C	0.271329	-0.284565	0.714433
	C1550	C	0.252966	-0.374509	0.700186
	C1551	C	0.301485	-0.374949	0.736221
	C1552	C	0.218314	-0.374699	0.704926
	C1553	C	0.207283	-0.374781	0.722166
	C1554	C	0.202051	-0.285863	0.730440
	C1555	C	0.191904	-0.285983	0.746657
	C1556	C	0.186722	-0.374761	0.754993
	C1557	C	0.191959	-0.463680	0.746747
	C1558	C	0.202101	-0.463708	0.730536
	C1559	C	0.175922	-0.374734	0.772830
	C1560	C	0.218150	-0.124618	0.652821
	C1561	C	0.205693	-0.124629	0.643373
	C1562	C	0.199681	-0.034847	0.639294
	C1563	C	0.187995	-0.034736	0.631155
	C1564	C	0.181984	-0.124265	0.626933
	C1565	C	0.187959	-0.214099	0.631217
	C1566	C	0.199646	-0.214175	0.639327
	C1567	C	0.169619	-0.124519	0.616945
	C1568	C	0.255206	-0.124443	0.656066
	C1569	C	0.268932	-0.124502	0.656027
	C1570	C	0.275371	-0.214420	0.657172
	C1571	C	0.287981	-0.214560	0.658886
	C1572	C	0.294477	-0.124580	0.659512
	C1573	C	0.288011	-0.034580	0.658745
	C1574	C	0.275404	-0.034516	0.657017
	C1575	C	0.308229	-0.124754	0.659114
	H1576	H	0.292844	-0.284445	0.659632
	H1577	H	0.270505	-0.284648	0.656558
	H1578	H	0.287578	-0.215215	0.725851
	H1579	H	0.266807	-0.214588	0.711332
	H1580	H	0.237470	-0.375552	0.644993
	H1581	H	0.235539	-0.124406	0.707087
	H1582	H	0.158825	-0.124369	0.774029
	H1583	H	0.325817	-0.375139	0.672395
	H1584	H	0.204154	-0.284109	0.642554
	H1585	H	0.183431	-0.283644	0.628048
	H1586	H	0.188029	-0.217023	0.753098
	H1587	H	0.205932	-0.217136	0.724128
	H1588	H	0.183474	0.034933	0.627970
	H1589	H	0.204225	0.034766	0.642503
	H1590	H	0.206095	-0.532685	0.724386
	H1591	H	0.188130	-0.532555	0.753248
	H1592	H	0.266711	-0.533653	0.711509
	H1593	H	0.287433	-0.533875	0.725966
	H1594	H	0.270542	0.035580	0.656244
	H1595	H	0.292889	0.035528	0.659342
	Al1596	Al	0.235604	0.000722	0.675922
	Al1597	Al	0.235592	0.249347	0.675871
	Al1598	Al	0.152232	0.250741	0.592759
	Al1599	Al	0.152205	0.000053	0.592834
	O1600	O	0.248088	0.041477	0.696303
	O1601	O	0.236191	0.125095	0.660983
	O1602	O	0.235450	0.374857	0.691023
	O1603	O	0.306366	0.041145	0.740167
	O1604	O	0.222711	0.041084	0.698287
	O1605	O	0.171684	0.041050	0.779628
	O1606	O	0.222655	0.209131	0.698284
	O1607	O	0.222996	0.290965	0.656447
	O1608	O	0.164777	0.290930	0.613042
	O1609	O	0.248214	0.209325	0.696020
	O1610	O	0.249676	0.291187	0.656029
	O1611	O	0.313638	0.291135	0.659064
	O1612	O	0.171690	0.209075	0.779622
	O1613	O	0.222990	0.459139	0.656663
	O1614	O	0.164831	0.458969	0.612861
	O1615	O	0.313655	0.459154	0.658937
	O1616	O	0.249756	0.459668	0.656274
	O1617	O	0.306389	0.209364	0.739645
	O1618	O	0.159277	0.375060	0.790128
	O1619	O	0.327215	0.124915	0.656248
	C1620	C	0.283074	0.214999	0.722506
	C1621	C	0.289040	0.125135	0.726677
	C1622	C	0.282969	0.035636	0.722815
	C1623	C	0.271279	0.035875	0.714635
	C1624	C	0.265352	0.125483	0.710198
	C1625	C	0.271395	0.215091	0.714318
	C1626	C	0.252987	0.125438	0.700034
	C1627	C	0.301500	0.125068	0.736242
	C1628	C	0.218305	0.125192	0.704890
	C1629	C	0.207299	0.124913	0.722186
	C1630	C	0.201992	0.214101	0.730238
	C1631	C	0.191849	0.214231	0.746410
	C1632	C	0.186744	0.124983	0.754875
	C1633	C	0.192005	0.035648	0.746719
	C1634	C	0.202139	0.035725	0.730515
	C1635	C	0.175939	0.125226	0.772778
	C1636	C	0.218090	0.375076	0.652984
	C1637	C	0.205644	0.375176	0.643513
	C1638	C	0.199663	0.464685	0.639304
	C1639	C	0.187971	0.464801	0.631173
	C1640	C	0.181972	0.375146	0.627026
	C1641	C	0.187930	0.285657	0.631379
	C1642	C	0.199627	0.285459	0.639517
	C1643	C	0.169623	0.374870	0.616928
	C1644	C	0.255143	0.375167	0.656048
	C1645	C	0.268862	0.375031	0.656083
	C1646	C	0.275345	0.285028	0.656855
	C1647	C	0.287976	0.284886	0.658683
	C1648	C	0.294450	0.374939	0.659571
	C1649	C	0.287945	0.464867	0.658806
	C1650	C	0.275328	0.464910	0.657070
	C1651	C	0.308187	0.375214	0.659324
	H1652	H	0.292837	0.214707	0.659220
	H1653	H	0.270483	0.215257	0.655925
	H1654	H	0.287599	0.284568	0.725649
	H1655	H	0.266929	0.285108	0.710989
	H1656	H	0.237647	0.124727	0.644837
	H1657	H	0.235628	0.374659	0.707196
	H1658	H	0.158575	0.375210	0.774134
	H1659	H	0.325796	0.124829	0.672233
	H1660	H	0.204155	0.215705	0.642782
	H1661	H	0.183411	0.215873	0.628171
	H1662	H	0.187876	0.283340	0.752592
	H1663	H	0.205834	0.283187	0.723730
	H1664	H	0.183514	0.534361	0.627822
	H1665	H	0.204200	0.534401	0.642373
	H1666	H	0.206088	-0.033548	0.724343
	H1667	H	0.188155	-0.032914	0.753233
	H1668	H	0.266720	-0.034056	0.711575
	H1669	H	0.287438	-0.034039	0.726190
	H1670	H	0.270486	0.535070	0.656314
	H1671	H	0.292835	0.534862	0.659390
	Al1672	Al	0.243355	-0.500042	0.888044
	Al1673	Al	0.243339	-0.249851	0.887876
	Al1674	Al	0.159923	-0.249761	0.804685
	Al1675	Al	0.160019	-0.499848	0.804729
	O1676	O	0.256854	-0.458886	0.905096
	O1677	O	0.242565	-0.375030	0.873435
	O1678	O	0.244021	-0.124838	0.902340
	O1679	O	0.313175	-0.458690	0.954100
	O1680	O	0.231918	-0.459070	0.913409
	O1681	O	0.184713	-0.458712	1.003150
	O1682	O	0.231951	-0.291109	0.913504
	O1683	O	0.229886	-0.209126	0.870649
	O1684	O	0.173410	-0.208684	0.821907
	O1685	O	0.256837	-0.290565	0.904945
	O1686	O	0.254974	-0.209105	0.862796
	O1687	O	0.306013	-0.208838	0.781676
	O1688	O	0.184831	-0.290640	1.003238
	O1689	O	0.229905	-0.040683	0.870802
	O1690	O	0.173455	-0.040308	0.821832
	O1691	O	0.306078	-0.040706	0.781859
	O1692	O	0.254928	-0.040777	0.862798
	O1693	O	0.313203	-0.290384	0.954205
	O1694	O	0.172572	-0.124811	1.014027
	O1695	O	0.318819	-0.374739	0.774319
	C1696	C	0.290655	-0.285378	0.934461
	C1697	C	0.296393	-0.374532	0.939402
	C1698	C	0.290677	-0.463915	0.934508
	C1699	C	0.279380	-0.463885	0.924764
	C1700	C	0.273638	-0.374573	0.919854
	C1701	C	0.279389	-0.285298	0.924721
	C1702	C	0.261600	-0.374709	0.909078
	C1703	C	0.308455	-0.374540	0.950097
	C1704	C	0.227958	-0.375172	0.920863
	C1705	C	0.217859	-0.375173	0.940244
	C1706	C	0.213118	-0.286288	0.949489
	C1707	C	0.203766	-0.286279	0.967371
	C1708	C	0.198883	-0.375128	0.976392
	C1709	C	0.203622	-0.463883	0.967110
	C1710	C	0.212976	-0.464090	0.949216
	C1711	C	0.188773	-0.374774	0.995753
	C1712	C	0.225161	-0.124895	0.866701
	C1713	C	0.213070	-0.124687	0.856015
	C1714	C	0.207359	-0.035357	0.851066
	C1715	C	0.196056	-0.035174	0.841365
	C1716	C	0.190273	-0.124511	0.836521
	C1717	C	0.196010	-0.213876	0.841409
	C1718	C	0.207295	-0.213908	0.851110
	C1719	C	0.178158	-0.124587	0.825941
	C1720	C	0.259246	-0.124831	0.855998
	C1721	C	0.270050	-0.124529	0.838246
	C1722	C	0.275249	-0.213438	0.829884
	C1723	C	0.285405	-0.213616	0.813763
	C1724	C	0.290647	-0.124654	0.805616
	C1725	C	0.285402	-0.035682	0.813842
	C1726	C	0.275236	-0.035496	0.829975
	C1727	C	0.301688	-0.124809	0.788395
	H1728	H	0.289326	-0.282664	0.807418
	H1729	H	0.271303	-0.282343	0.836213
	H1730	H	0.295028	-0.216191	0.938193
	H1731	H	0.275058	-0.216220	0.920754
	H1732	H	0.241923	-0.375887	0.857538
	H1733	H	0.244754	-0.124905	0.918341
	H1734	H	0.171668	-0.124902	0.998173
	H1735	H	0.318874	-0.374611	0.790417
	H1736	H	0.211662	-0.282914	0.854975
	H1737	H	0.191612	-0.282673	0.837639
	H1738	H	0.200184	-0.217132	0.974323
	H1739	H	0.216801	-0.217184	0.942641
	H1740	H	0.191660	0.033756	0.837520
	H1741	H	0.211792	0.033457	0.854917
	H1742	H	0.216543	-0.533060	0.942173
	H1743	H	0.199913	-0.532773	0.974016
	H1744	H	0.274997	-0.532690	0.920954
	H1745	H	0.295091	-0.532662	0.938392
	H1746	H	0.271347	0.033383	0.836372
	H1747	H	0.289394	0.033224	0.807583
	Al1748	Al	0.243337	0.000196	0.887908
	Al1749	Al	0.243325	0.250250	0.888041
	Al1750	Al	0.160064	0.250148	0.804705
	Al1751	Al	0.159995	0.000076	0.804649
	O1752	O	0.256810	0.041001	0.905077
	O1753	O	0.242607	0.125330	0.873382
	O1754	O	0.244073	0.375114	0.902666
	O1755	O	0.313125	0.040389	0.954355
	O1756	O	0.231864	0.040840	0.913244
	O1757	O	0.184747	0.041163	1.003118
	O1758	O	0.231932	0.208967	0.913392
	O1759	O	0.229846	0.290654	0.871050
	O1760	O	0.173563	0.290958	0.821691
	O1761	O	0.256838	0.208933	0.905050
	O1762	O	0.255026	0.291359	0.863073
	O1763	O	0.305963	0.291445	0.781620
	O1764	O	0.184833	0.209392	1.003228
	O1765	O	0.229904	0.458849	0.870847
	O1766	O	0.173483	0.459367	0.821751
	O1767	O	0.306068	0.459074	0.781715
	O1768	O	0.255071	0.459273	0.863148
	O1769	O	0.313229	0.208647	0.954118
	O1770	O	0.172597	0.375137	1.014050
	O1771	O	0.318766	0.125322	0.774347
	C1772	C	0.290697	0.213888	0.934365
	C1773	C	0.296391	0.124877	0.939484
	C1774	C	0.290639	0.035672	0.934651
	C1775	C	0.279383	0.035558	0.924854
	C1776	C	0.273663	0.124565	0.919806
	C1777	C	0.279412	0.213643	0.924625
	C1778	C	0.261586	0.124835	0.909107
	C1779	C	0.308446	0.124563	0.950194
	C1780	C	0.227916	0.124685	0.920762
	C1781	C	0.217858	0.124861	0.940181
	C1782	C	0.213095	0.214009	0.949333
	C1783	C	0.203731	0.214087	0.967222
	C1784	C	0.198891	0.125086	0.976383
	C1785	C	0.203682	0.036044	0.967281
	C1786	C	0.213029	0.036038	0.949357
	C1787	C	0.188782	0.125288	0.995716
	C1788	C	0.225156	0.374826	0.866871
	C1789	C	0.213086	0.375108	0.856139
	C1790	C	0.207396	0.464428	0.851111
	C1791	C	0.196121	0.464371	0.841331
	C1792	C	0.190321	0.375250	0.836511
	C1793	C	0.196029	0.285903	0.841506
	C1794	C	0.207293	0.285868	0.851314
	C1795	C	0.178244	0.375224	0.825806
	C1796	C	0.259275	0.375172	0.856165
	C1797	C	0.270076	0.375645	0.838339
	C1798	C	0.275220	0.287101	0.829918
	C1799	C	0.285348	0.287103	0.813677
	C1800	C	0.290559	0.375854	0.805518
	C1801	C	0.285394	0.464515	0.813876
	C1802	C	0.275263	0.464423	0.830122
	C1803	C	0.301615	0.375511	0.788251
	H1804	H	0.289221	0.218211	0.807298
	H1805	H	0.271319	0.218066	0.836151
	H1806	H	0.295121	0.282673	0.938110
	H1807	H	0.275081	0.282385	0.920571
	H1808	H	0.241881	0.124905	0.857362
	H1809	H	0.244882	0.375254	0.918551
	H1810	H	0.171732	0.374807	0.998050
	H1811	H	0.318598	0.125435	0.790547
	H1812	H	0.211670	0.216962	0.855239
	H1813	H	0.191604	0.217221	0.837785
	H1814	H	0.200085	0.283015	0.974175
	H1815	H	0.216692	0.283087	0.942363
	H1816	H	0.191742	0.533177	0.837492
	H1817	H	0.211803	0.533525	0.854766
	H1818	H	0.216624	-0.033002	0.942364
	H1819	H	0.200057	-0.032967	0.974144
	H1820	H	0.274991	-0.033271	0.921070
	H1821	H	0.294978	-0.033033	0.938586
	H1822	H	0.271397	0.533396	0.836470
	H1823	H	0.289296	0.533506	0.807586
	Al1824	Al	0.409983	-0.500299	0.054593
	Al1825	Al	0.410081	-0.250087	0.054638
	Al1826	Al	0.326685	-0.249885	-0.028624
	Al1827	Al	0.326667	-0.499994	-0.028863
	O1828	O	0.423469	-0.459260	0.071765
	O1829	O	0.409374	-0.375093	0.040074
	O1830	O	0.410803	-0.124892	0.069161
	O1831	O	0.479807	-0.459594	0.121336
	O1832	O	0.398486	-0.459169	0.079922
	O1833	O	0.351533	-0.458834	0.169882
	O1834	O	0.398579	-0.290863	0.079980
	O1835	O	0.396596	-0.209687	0.037608
	O1836	O	0.340164	-0.209211	-0.011446
	O1837	O	0.423550	-0.290891	0.071808
	O1838	O	0.421771	-0.209036	0.029714
	O1839	O	0.472773	-0.209229	-0.051673
	O1840	O	0.351571	-0.290652	0.169924
	O1841	O	0.396677	-0.041358	0.037149
	O1842	O	0.340268	-0.040870	-0.011634
	O1843	O	0.472729	-0.041154	-0.051728
	O1844	O	0.421752	-0.041015	0.029581
	O1845	O	0.479880	-0.291286	0.120955
	O1846	O	0.339244	-0.124962	0.180601
	O1847	O	0.485456	-0.374586	-0.059130
	C1848	C	0.457450	-0.286196	0.100923
	C1849	C	0.463099	-0.375527	0.106121
	C1850	C	0.457294	-0.464620	0.101451
	C1851	C	0.446015	-0.464512	0.091603
	C1852	C	0.440355	-0.375224	0.086450
	C1853	C	0.446174	-0.285942	0.091092
	C1854	C	0.428267	-0.375318	0.075758
	C1855	C	0.475137	-0.375450	0.116977
	C1856	C	0.394562	-0.374714	0.087428
	C1857	C	0.384519	-0.374638	0.106832
	C1858	C	0.379777	-0.285453	0.116051
	C1859	C	0.370435	-0.285536	0.133972
	C1860	C	0.365638	-0.374572	0.143135
	C1861	C	0.370391	-0.463631	0.133928
	C1862	C	0.379729	-0.463692	0.116003
	C1863	C	0.355526	-0.374835	0.162416
	C1864	C	0.391885	-0.125441	0.033330
	C1865	C	0.379812	-0.125394	0.022651
	C1866	C	0.374113	-0.036104	0.017583
	C1867	C	0.362844	-0.035981	0.007848
	C1868	C	0.357030	-0.125076	0.003144
	C1869	C	0.362689	-0.214414	0.008257
	C1870	C	0.373983	-0.214524	0.017993
	C1871	C	0.344959	-0.125140	-0.007536
	C1872	C	0.425998	-0.124998	0.022776
	C1873	C	0.436806	-0.125194	0.004903
	C1874	C	0.441977	-0.214118	-0.003492
	C1875	C	0.452100	-0.214048	-0.019763
	C1876	C	0.457342	-0.125056	-0.027850
	C1877	C	0.452172	-0.036104	-0.019493
	C1878	C	0.442025	-0.036250	-0.003239
	C1879	C	0.468384	-0.125021	-0.045135
	H1880	H	0.456017	-0.282956	-0.026139
	H1881	H	0.438054	-0.283148	0.002712
	H1882	H	0.461834	-0.217117	0.104627
	H1883	H	0.441877	-0.216936	0.087052
	H1884	H	0.408866	-0.374709	0.024046
	H1885	H	0.411809	-0.124626	0.085014
	H1886	H	0.338313	-0.125168	0.164621
	H1887	H	0.485609	-0.373658	-0.043014
	H1888	H	0.378371	-0.283275	0.022075
	H1889	H	0.358216	-0.283106	0.004597
	H1890	H	0.366813	-0.216473	0.140904
	H1891	H	0.383350	-0.216298	0.109002
	H1892	H	0.358518	0.033086	0.003883
	H1893	H	0.378516	0.032894	0.021256
	H1894	H	0.383282	-0.532639	0.108890
	H1895	H	0.366785	-0.532602	0.140916
	H1896	H	0.441614	-0.533393	0.087811
	H1897	H	0.461640	-0.533607	0.105547
	H1898	H	0.438144	0.032644	0.003155
	H1899	H	0.456120	0.032895	-0.025635
	Al1900	Al	0.409994	-0.000058	0.054566
	Al1901	Al	0.409950	0.249906	0.054562
	Al1902	Al	0.326694	0.250018	-0.028805
	Al1903	Al	0.326722	-0.000052	-0.028714
	O1904	O	0.423467	0.041550	0.071775
	O1905	O	0.409321	0.124828	0.039982
	O1906	O	0.410715	0.374938	0.069121
	O1907	O	0.479767	0.041215	0.121189
	O1908	O	0.398469	0.040914	0.079826
	O1909	O	0.351498	0.041208	0.169931
	O1910	O	0.398519	0.209019	0.079928
	O1911	O	0.396480	0.290950	0.037528
	O1912	O	0.340136	0.291156	-0.011573
	O1913	O	0.423493	0.209849	0.071715
	O1914	O	0.421634	0.291067	0.029512
	O1915	O	0.472736	0.291266	-0.051543
	O1916	O	0.351564	0.209112	0.169876
	O1917	O	0.396588	0.459371	0.037267
	O1918	O	0.340192	0.459478	-0.011852
	O1919	O	0.472752	0.459028	-0.051558
	O1920	O	0.421660	0.458854	0.029506
	O1921	O	0.479843	0.209747	0.120995
	O1922	O	0.339333	0.374733	0.180592
	O1923	O	0.485463	0.125043	-0.059116
	C1924	C	0.457373	0.214801	0.100977
	C1925	C	0.463069	0.125651	0.106047
	C1926	C	0.457317	0.036451	0.101175
	C1927	C	0.446066	0.036310	0.091353
	C1928	C	0.440339	0.125553	0.086388
	C1929	C	0.446111	0.214695	0.091160
	C1930	C	0.428251	0.125629	0.075705
	C1931	C	0.475105	0.125475	0.116978
	C1932	C	0.394538	0.125071	0.087385
	C1933	C	0.384483	0.124954	0.106802
	C1934	C	0.379767	0.214151	0.116138
	C1935	C	0.370454	0.213997	0.134087
	C1936	C	0.365613	0.124818	0.143157
	C1937	C	0.370352	0.035713	0.133858
	C1938	C	0.379661	0.035829	0.115904
	C1939	C	0.355531	0.125013	0.162498
	C1940	C	0.391795	0.375200	0.033371
	C1941	C	0.379754	0.375357	0.022564
	C1942	C	0.374110	0.464683	0.017378
	C1943	C	0.362807	0.464696	0.007638
	C1944	C	0.356994	0.375193	0.003036
	C1945	C	0.362657	0.286028	0.008203
	C1946	C	0.373932	0.286004	0.017923
	C1947	C	0.344893	0.375187	-0.007642
	C1948	C	0.425913	0.374983	0.022696
	C1949	C	0.436765	0.374939	0.004977
	C1950	C	0.441936	0.286199	-0.003318
	C1951	C	0.452097	0.286438	-0.019494
	C1952	C	0.457329	0.375373	-0.027617
	C1953	C	0.452126	0.464150	-0.019398
	C1954	C	0.441971	0.463914	-0.003220
	C1955	C	0.468367	0.375136	-0.044904
	H1956	H	0.455996	0.217656	-0.025841
	H1957	H	0.438000	0.217114	0.002919
	H1958	H	0.461789	0.283526	0.104820
	H1959	H	0.441751	0.283455	0.087169
	H1960	H	0.408842	0.125082	0.024051
	H1961	H	0.411807	0.374950	0.084986
	H1962	H	0.338519	0.374068	0.164625
	H1963	H	0.485449	0.125635	-0.042949
	H1964	H	0.378212	0.216996	0.022015
	H1965	H	0.358234	0.216875	0.004549
	H1966	H	0.366891	0.283185	0.141184
	H1967	H	0.383488	0.283461	0.109304
	H1968	H	0.358438	0.533379	0.003550
	H1969	H	0.378591	0.533621	0.021150
	H1970	H	0.383268	-0.033267	0.108871
	H1971	H	0.366702	-0.033385	0.140793
	H1972	H	0.441690	-0.032695	0.087469
	H1973	H	0.461645	-0.032368	0.105130
	H1974	H	0.438082	0.532878	0.003122
	H1975	H	0.456025	0.533406	-0.025635
	Al1976	Al	0.423354	-0.500219	0.278898
	Al1977	Al	0.423331	-0.249824	0.278777
	Al1978	Al	0.340075	-0.250194	0.195153
	Al1979	Al	0.340086	-0.500219	0.195162
	O1980	O	0.436800	-0.459134	0.296033
	O1981	O	0.422592	-0.375156	0.264281
	O1982	O	0.424000	-0.124806	0.293376
	O1983	O	0.493129	-0.459303	0.345121
	O1984	O	0.411683	-0.459289	0.303821
	O1985	O	0.360594	-0.459510	0.385111
	O1986	O	0.411666	-0.291038	0.303859
	O1987	O	0.409868	-0.209552	0.261626
	O1988	O	0.353416	-0.209118	0.212481
	O1989	O	0.436776	-0.290754	0.295899
	O1990	O	0.434794	-0.209170	0.253503
	O1991	O	0.481797	-0.209830	0.163534
	O1992	O	0.360572	-0.291442	0.385102
	O1993	O	0.409857	-0.041116	0.261645
	O1994	O	0.353517	-0.040705	0.212359
	O1995	O	0.481876	-0.041573	0.163585
	O1996	O	0.434861	-0.040871	0.253587
	O1997	O	0.493201	-0.291130	0.345014
	O1998	O	0.347900	-0.125045	0.392564
	O1999	O	0.494015	-0.375107	0.152762
	C2000	C	0.470669	-0.285636	0.325280
	C2001	C	0.476382	-0.374885	0.330301
	C2002	C	0.470588	-0.464066	0.325604
	C2003	C	0.459313	-0.464131	0.315807
	C2004	C	0.453620	-0.374860	0.310713
	C2005	C	0.459393	-0.285631	0.315531
	C2006	C	0.441558	-0.374668	0.299965
	C2007	C	0.488426	-0.375211	0.341082
	C2008	C	0.407417	-0.375406	0.310673
	C2009	C	0.396607	-0.375309	0.328539
	C2010	C	0.391434	-0.286166	0.336870
	C2011	C	0.381280	-0.286129	0.353069
	C2012	C	0.376024	-0.375399	0.361236
	C2013	C	0.381195	-0.464570	0.352913
	C2014	C	0.391354	-0.464572	0.336700
	C2015	C	0.364934	-0.375362	0.378511
	C2016	C	0.405136	-0.125195	0.257610
	C2017	C	0.393059	-0.125458	0.246908
	C2018	C	0.387361	-0.035991	0.241835
	C2019	C	0.376087	-0.036083	0.232048
	C2020	C	0.370287	-0.125331	0.227276
	C2021	C	0.375961	-0.214807	0.232478
	C2022	C	0.387252	-0.214863	0.242215
	C2023	C	0.358217	-0.124984	0.216478
	C2024	C	0.438793	-0.124924	0.246129
	C2025	C	0.448853	-0.125109	0.226703
	C2026	C	0.453586	-0.214409	0.217454
	C2027	C	0.462900	-0.214368	0.199525
	C2028	C	0.467757	-0.125229	0.190379
	C2029	C	0.463026	-0.036100	0.199633
	C2030	C	0.453698	-0.036044	0.217555
	C2031	C	0.477795	-0.125553	0.170982
	H2032	H	0.466416	-0.283672	0.192433
	H2033	H	0.449915	-0.283545	0.224409
	H2034	H	0.475050	-0.216588	0.329055
	H2035	H	0.455040	-0.216654	0.311588
	H2036	H	0.421763	-0.376130	0.248335
	H2037	H	0.424784	-0.125181	0.309334
	H2038	H	0.347962	-0.125295	0.376360
	H2039	H	0.494655	-0.375305	0.168769
	H2040	H	0.391602	-0.283863	0.246237
	H2041	H	0.371541	-0.283462	0.228771
	H2042	H	0.377366	-0.217110	0.359404
	H2043	H	0.395333	-0.216980	0.330640
	H2044	H	0.371735	0.032764	0.228092
	H2045	H	0.391784	0.033085	0.245567
	H2046	H	0.395209	-0.533511	0.330317
	H2047	H	0.377215	-0.534033	0.359067
	H2048	H	0.454900	-0.533323	0.312106
	H2049	H	0.474941	-0.533090	0.329631
	H2050	H	0.450144	0.033128	0.224634
	H2051	H	0.466644	0.033026	0.192641
	Al2052	Al	0.423380	0.000206	0.278859
	Al2053	Al	0.423302	0.249945	0.278850
	Al2054	Al	0.340055	0.249836	0.195087
	Al2055	Al	0.340048	-0.000264	0.195253
	O2056	O	0.436782	0.040762	0.296115
	O2057	O	0.422634	0.124896	0.264253
	O2058	O	0.424036	0.374687	0.293329
	O2059	O	0.493169	0.040188	0.344994
	O2060	O	0.411638	0.041156	0.303706
	O2061	O	0.360607	0.041172	0.385122
	O2062	O	0.411637	0.209168	0.303797
	O2063	O	0.409819	0.290552	0.261629
	O2064	O	0.353446	0.290609	0.212517
	O2065	O	0.436853	0.208964	0.295893
	O2066	O	0.434787	0.290809	0.253458
	O2067	O	0.481837	0.290750	0.163598
	O2068	O	0.360652	0.208809	0.385209
	O2069	O	0.409865	0.458877	0.261767
	O2070	O	0.353546	0.458731	0.212296
	O2071	O	0.481877	0.458825	0.163635
	O2072	O	0.434827	0.458780	0.253488
	O2073	O	0.493244	0.208661	0.344904
	O2074	O	0.347903	0.374970	0.392550
	O2075	O	0.494012	0.124728	0.152747
	C2076	C	0.470679	0.214073	0.325308
	C2077	C	0.476364	0.124783	0.330387
	C2078	C	0.470591	0.035618	0.325604
	C2079	C	0.459312	0.035671	0.315888
	C2080	C	0.453607	0.124863	0.310840
	C2081	C	0.459387	0.214145	0.315591
	C2082	C	0.441562	0.124761	0.300074
	C2083	C	0.488448	0.124540	0.341010
	C2084	C	0.407358	0.125201	0.310584
	C2085	C	0.396565	0.125085	0.328395
	C2086	C	0.391397	0.214159	0.336821
	C2087	C	0.381244	0.214122	0.353000
	C2088	C	0.376018	0.124938	0.361225
	C2089	C	0.381229	0.035801	0.352876
	C2090	C	0.391364	0.035937	0.336690
	C2091	C	0.365014	0.124893	0.378511
	C2092	C	0.405119	0.374871	0.257650
	C2093	C	0.393024	0.374796	0.246971
	C2094	C	0.387336	0.464095	0.241860
	C2095	C	0.376057	0.464170	0.232103
	C2096	C	0.370279	0.374735	0.227329
	C2097	C	0.375966	0.285435	0.232469
	C2098	C	0.387239	0.285478	0.242224
	C2099	C	0.358248	0.374622	0.216463
	C2100	C	0.438796	0.374866	0.246027
	C2101	C	0.448794	0.375045	0.226536
	C2102	C	0.453571	0.285899	0.217365
	C2103	C	0.462908	0.285870	0.199416
	C2104	C	0.467737	0.374991	0.190286
	C2105	C	0.462999	0.464196	0.199553
	C2106	C	0.453665	0.464214	0.217494
	C2107	C	0.477853	0.374894	0.170946
	H2108	H	0.466518	0.216843	0.192410
	H2109	H	0.450001	0.216733	0.224371
	H2110	H	0.475096	0.282912	0.329047
	H2111	H	0.455043	0.282932	0.311581
	H2112	H	0.421688	0.124425	0.248306
	H2113	H	0.424759	0.374614	0.309255
	H2114	H	0.347744	0.374637	0.376377
	H2115	H	0.494949	0.124145	0.168686
	H2116	H	0.391593	0.216360	0.246117
	H2117	H	0.371592	0.216302	0.228677
	H2118	H	0.377346	0.283380	0.359450
	H2119	H	0.395295	0.283481	0.330460
	H2120	H	0.371713	0.533067	0.228063
	H2121	H	0.391784	0.532942	0.245517
	H2122	H	0.395240	-0.033206	0.330200
	H2123	H	0.377315	-0.033609	0.359154
	H2124	H	0.454923	-0.033321	0.312099
	H2125	H	0.474918	-0.033374	0.329615
	H2126	H	0.450152	0.533429	0.224617
	H2127	H	0.466682	0.533220	0.192681
	Al2128	Al	0.431081	-0.500646	0.490904
	Al2129	Al	0.431117	-0.249542	0.490662
	Al2130	Al	0.347673	-0.250660	0.407570
	Al2131	Al	0.347751	-0.499372	0.407490
	O2132	O	0.443646	-0.459142	0.510368
	O2133	O	0.431250	-0.375492	0.475798
	O2134	O	0.430409	-0.125067	0.505621
	O2135	O	0.501711	-0.458808	0.554205
	O2136	O	0.416940	-0.458768	0.510641
	O2137	O	0.353039	-0.458623	0.507823
	O2138	O	0.416911	-0.290517	0.510412
	O2139	O	0.418577	-0.209129	0.470395
	O2140	O	0.360269	-0.209055	0.426968
	O2141	O	0.443583	-0.290992	0.510218
	O2142	O	0.444019	-0.209112	0.468284
	O2143	O	0.494979	-0.209222	0.387180
	O2144	O	0.353055	-0.290312	0.507976
	O2145	O	0.418384	-0.041025	0.470779
	O2146	O	0.360218	-0.040811	0.427202
	O2147	O	0.495046	-0.041334	0.387142
	O2148	O	0.443928	-0.041560	0.468477
	O2149	O	0.501849	-0.290725	0.553916
	O2150	O	0.339365	-0.125018	0.510563
	O2151	O	0.507374	-0.375296	0.376689
	C2152	C	0.478667	-0.285020	0.535778
	C2153	C	0.484637	-0.374725	0.540131
	C2154	C	0.478651	-0.464399	0.535801
	C2155	C	0.466985	-0.464352	0.527619
	C2156	C	0.460955	-0.374682	0.523499
	C2157	C	0.466978	-0.285140	0.527595
	C2158	C	0.448529	-0.374904	0.513938
	C2159	C	0.496951	-0.374691	0.550185
	C2160	C	0.411500	-0.374693	0.510767
	C2161	C	0.397796	-0.374782	0.510743
	C2162	C	0.391343	-0.284710	0.509786
	C2163	C	0.378726	-0.284649	0.507992
	C2164	C	0.372218	-0.374547	0.507173
	C2165	C	0.378708	-0.464526	0.507924
	C2166	C	0.391315	-0.464715	0.509724
	C2167	C	0.358477	-0.374474	0.507592
	C2168	C	0.413689	-0.125289	0.466595
	C2169	C	0.401317	-0.125388	0.456598
	C2170	C	0.395323	-0.035607	0.452415
	C2171	C	0.383644	-0.035513	0.444225
	C2172	C	0.377647	-0.125091	0.440037
	C2173	C	0.383648	-0.214885	0.444171
	C2174	C	0.395327	-0.214990	0.452348
	C2175	C	0.365194	-0.124881	0.430647
	C2176	C	0.448364	-0.125014	0.461764
	C2177	C	0.459398	-0.125028	0.444563
	C2178	C	0.464606	-0.213964	0.436281
	C2179	C	0.474744	-0.213877	0.420079
	C2180	C	0.479962	-0.124952	0.411845
	C2181	C	0.474853	-0.036011	0.420317
	C2182	C	0.464703	-0.036232	0.436513
	C2183	C	0.490766	-0.125194	0.394014
	H2184	H	0.478633	-0.283035	0.413719
	H2185	H	0.460675	-0.283278	0.442572
	H2186	H	0.483172	-0.215495	0.538977
	H2187	H	0.462433	-0.215587	0.524300
	H2188	H	0.431333	-0.376591	0.459599
	H2189	H	0.429006	-0.125078	0.521620
	H2190	H	0.340537	-0.125607	0.494438
	H2191	H	0.508070	-0.375335	0.392675
	H2192	H	0.399850	-0.284785	0.455495
	H2193	H	0.379140	-0.284835	0.440984
	H2194	H	0.373866	-0.214572	0.507237
	H2195	H	0.396225	-0.214688	0.510371
	H2196	H	0.379099	0.034147	0.441083
	H2197	H	0.399808	0.034147	0.455681
	H2198	H	0.396192	-0.534836	0.510270
	H2199	H	0.373830	-0.534638	0.507085
	H2200	H	0.462473	-0.534050	0.524414
	H2201	H	0.483151	-0.534225	0.539011
	H2202	H	0.460855	0.032783	0.442979
	H2203	H	0.478800	0.032921	0.414136
	Al2204	Al	0.431022	-0.000555	0.490770
	Al2205	Al	0.431072	0.249953	0.490749
	Al2206	Al	0.347761	0.249574	0.407624
	Al2207	Al	0.347733	0.000710	0.407537
	O2208	O	0.443631	0.040278	0.510164
	O2209	O	0.431125	0.124768	0.475774
	O2210	O	0.430418	0.374543	0.505726
	O2211	O	0.501820	0.040462	0.553979
	O2212	O	0.416917	0.040733	0.510721
	O2213	O	0.353007	0.041157	0.507685
	O2214	O	0.416891	0.209030	0.510463
	O2215	O	0.418513	0.290987	0.470620
	O2216	O	0.360309	0.291027	0.427179
	O2217	O	0.443601	0.208473	0.510249
	O2218	O	0.444018	0.290167	0.468582
	O2219	O	0.494940	0.290619	0.387080
	O2220	O	0.353028	0.209309	0.507895
	O2221	O	0.418530	0.459256	0.470723
	O2222	O	0.360309	0.459384	0.426968
	O2223	O	0.494991	0.458664	0.387172
	O2224	O	0.443972	0.458155	0.468503
	O2225	O	0.501797	0.208526	0.553814
	O2226	O	0.339387	0.375116	0.510484
	O2227	O	0.507365	0.125130	0.376618
	C2228	C	0.478600	0.214232	0.535816
	C2229	C	0.484633	0.124612	0.539970
	C2230	C	0.478698	0.034959	0.535537
	C2231	C	0.467024	0.034926	0.527330
	C2232	C	0.460956	0.124488	0.523367
	C2233	C	0.466924	0.214080	0.527638
	C2234	C	0.448515	0.124337	0.513828
	C2235	C	0.496958	0.124407	0.550048
	C2236	C	0.411474	0.124817	0.510788
	C2237	C	0.397741	0.124683	0.510704
	C2238	C	0.391266	0.214555	0.509796
	C2239	C	0.378658	0.214816	0.508003
	C2240	C	0.372169	0.125057	0.507070
	C2241	C	0.378658	0.035107	0.507809
	C2242	C	0.391249	0.034819	0.509669
	C2243	C	0.358442	0.125255	0.507441
	C2244	C	0.413709	0.375222	0.466712
	C2245	C	0.401353	0.375420	0.456641
	C2246	C	0.395396	0.465245	0.452228
	C2247	C	0.383725	0.465225	0.444066
	C2248	C	0.377677	0.375375	0.440130
	C2249	C	0.383668	0.285499	0.444257
	C2250	C	0.395356	0.285554	0.452421
	C2251	C	0.365208	0.375363	0.430705
	C2252	C	0.448351	0.374268	0.461901
	C2253	C	0.459341	0.374396	0.444562
	C2254	C	0.464587	0.285508	0.436344
	C2255	C	0.474704	0.285606	0.420153
	C2256	C	0.479887	0.374557	0.411785
	C2257	C	0.474691	0.463459	0.420102
	C2258	C	0.464577	0.463383	0.436329
	C2259	C	0.490671	0.374569	0.393947
	H2260	H	0.478603	0.216676	0.413724
	H2261	H	0.460665	0.216410	0.442688
	H2262	H	0.483080	0.283984	0.539274
	H2263	H	0.462378	0.283504	0.524568
	H2264	H	0.431089	0.124581	0.459710
	H2265	H	0.429026	0.374272	0.521742
	H2266	H	0.340794	0.374971	0.494449
	H2267	H	0.507792	0.124835	0.392699
	H2268	H	0.399859	0.215779	0.455595
	H2269	H	0.379136	0.216129	0.440999
	H2270	H	0.373792	0.284631	0.507255
	H2271	H	0.396136	0.284446	0.510440
	H2272	H	0.379244	0.535023	0.440701
	H2273	H	0.399960	0.534927	0.455312
	H2274	H	0.396133	-0.035220	0.510271
	H2275	H	0.373777	-0.034832	0.506966
	H2276	H	0.462517	-0.034542	0.523986
	H2277	H	0.483228	-0.034603	0.538779
	H2278	H	0.460636	0.532239	0.442627
	H2279	H	0.478602	0.532225	0.413802
	Al2280	Al	0.421626	-0.499817	0.608781
	Al2281	Al	0.421682	-0.250008	0.608784
	Al2282	Al	0.338350	-0.249920	0.525623
	Al2283	Al	0.338319	-0.499423	0.525539
	O2284	O	0.433645	-0.458976	0.630240
	O2285	O	0.422777	-0.375017	0.593761
	O2286	O	0.420503	-0.125045	0.623914
	O2287	O	0.493011	-0.459025	0.670655
	O2288	O	0.406892	-0.459421	0.626388
	O2289	O	0.343034	-0.458857	0.623396
	O2290	O	0.406984	-0.291342	0.626552
	O2291	O	0.409698	-0.209405	0.587333
	O2292	O	0.350322	-0.208746	0.546956
	O2293	O	0.433654	-0.291118	0.630208
	O2294	O	0.436365	-0.208545	0.591014
	O2295	O	0.500246	-0.209200	0.593825
	O2296	O	0.343129	-0.290761	0.623566
	O2297	O	0.409689	-0.041416	0.587374
	O2298	O	0.350381	-0.040766	0.546908
	O2299	O	0.500215	-0.041016	0.593846
	O2300	O	0.436416	-0.040127	0.591302
	O2301	O	0.492957	-0.290985	0.670850
	O2302	O	0.329457	-0.125075	0.626038
	O2303	O	0.513717	-0.375433	0.589100
	C2304	C	0.469312	-0.285142	0.654001
	C2305	C	0.475458	-0.375091	0.657682
	C2306	C	0.469318	-0.464688	0.653849
	C2307	C	0.457406	-0.464557	0.646708
	C2308	C	0.451234	-0.374836	0.643086
	C2309	C	0.457406	-0.285059	0.646833
	C2310	C	0.438627	-0.374980	0.633808
	C2311	C	0.488050	-0.375024	0.667042
	C2312	C	0.401508	-0.375187	0.626703
	C2313	C	0.387800	-0.375175	0.626897
	C2314	C	0.381336	-0.285366	0.625932
	C2315	C	0.368736	-0.285359	0.624079
	C2316	C	0.362232	-0.375146	0.623253
	C2317	C	0.368705	-0.464979	0.624230
	C2318	C	0.381321	-0.465091	0.626066
	C2319	C	0.348506	-0.375072	0.623297
	C2320	C	0.404797	-0.125508	0.583584
	C2321	C	0.392142	-0.125113	0.574452
	C2322	C	0.386029	-0.035087	0.570680
	C2323	C	0.374086	-0.034806	0.563539
	C2324	C	0.367938	-0.124679	0.559811
	C2325	C	0.374049	-0.214631	0.563628
	C2326	C	0.385999	-0.214832	0.570713
	C2327	C	0.355261	-0.124743	0.550756
	C2328	C	0.441802	-0.124558	0.590929
	C2329	C	0.455541	-0.124544	0.590511
	C2330	C	0.461997	-0.214603	0.591433
	C2331	C	0.474602	-0.214925	0.593180
	C2332	C	0.481086	-0.125142	0.594043
	C2333	C	0.474646	-0.035151	0.592974
	C2334	C	0.462045	-0.034786	0.591224
	C2335	C	0.494801	-0.125152	0.594127
	H2336	H	0.479428	-0.284716	0.593819
	H2337	H	0.457126	-0.284431	0.590608
	H2338	H	0.473866	-0.214932	0.656881
	H2339	H	0.452789	-0.214994	0.644192
	H2340	H	0.424296	-0.374417	0.577752
	H2341	H	0.418808	-0.125796	0.639914
	H2342	H	0.331038	-0.125216	0.609954
	H2343	H	0.512374	-0.375258	0.605182
	H2344	H	0.390605	-0.285196	0.573172
	H2345	H	0.369482	-0.284745	0.560902
	H2346	H	0.363896	-0.215106	0.623282
	H2347	H	0.386197	-0.215252	0.626535
	H2348	H	0.369546	0.035658	0.560716
	H2349	H	0.390708	0.035063	0.573083
	H2350	H	0.386168	-0.535355	0.626897
	H2351	H	0.363840	-0.534999	0.623615
	H2352	H	0.452821	-0.534960	0.644075
	H2353	H	0.473911	-0.534817	0.656680
	H2354	H	0.457198	0.035109	0.590338
	H2355	H	0.479546	0.034768	0.593503
	Al2356	Al	0.421655	0.000045	0.608937
	Al2357	Al	0.421652	0.250038	0.608849
	Al2358	Al	0.338339	0.250296	0.525609
	Al2359	Al	0.338339	0.000298	0.525530
	O2360	O	0.433614	0.041200	0.630331
	O2361	O	0.422790	0.125214	0.593796
	O2362	O	0.420543	0.374998	0.623906
	O2363	O	0.493102	0.041507	0.670535
	O2364	O	0.406877	0.040624	0.626345
	O2365	O	0.343025	0.040998	0.623424
	O2366	O	0.406942	0.208791	0.626610
	O2367	O	0.409682	0.290850	0.587454
	O2368	O	0.350340	0.291424	0.546881
	O2369	O	0.433620	0.209128	0.630284
	O2370	O	0.436349	0.290883	0.591029
	O2371	O	0.500253	0.290485	0.593971
	O2372	O	0.343010	0.209320	0.623568
	O2373	O	0.409690	0.458934	0.587302
	O2374	O	0.350330	0.459447	0.547050
	O2375	O	0.500242	0.458747	0.593838
	O2376	O	0.436368	0.459148	0.591183
	O2377	O	0.493002	0.209572	0.670498
	O2378	O	0.329457	0.374955	0.626156
	O2379	O	0.513722	0.124627	0.589030
	C2380	C	0.469310	0.214803	0.653920
	C2381	C	0.475467	0.125100	0.657620
	C2382	C	0.469309	0.035253	0.653977
	C2383	C	0.457368	0.035152	0.646972
	C2384	C	0.451214	0.124959	0.643206
	C2385	C	0.457368	0.214818	0.646954
	C2386	C	0.438560	0.125291	0.633998
	C2387	C	0.488128	0.125239	0.666828
	C2388	C	0.401473	0.124911	0.626674
	C2389	C	0.387732	0.125100	0.626818
	C2390	C	0.381255	0.215082	0.625936
	C2391	C	0.368642	0.215288	0.624120
	C2392	C	0.362158	0.125283	0.623199
	C2393	C	0.368630	0.035384	0.624033
	C2394	C	0.381246	0.035190	0.625894
	C2395	C	0.348426	0.125310	0.623351
	C2396	C	0.404728	0.374825	0.583753
	C2397	C	0.392166	0.374518	0.574304
	C2398	C	0.386040	0.464314	0.570540
	C2399	C	0.374119	0.464500	0.563357
	C2400	C	0.367911	0.374926	0.559804
	C2401	C	0.374006	0.285017	0.563643
	C2402	C	0.385941	0.284799	0.570817
	C2403	C	0.355305	0.375248	0.550579
	C2404	C	0.441806	0.374938	0.590786
	C2405	C	0.455513	0.374703	0.590582
	C2406	C	0.461972	0.284723	0.591397
	C2407	C	0.474590	0.284459	0.593190
	C2408	C	0.481087	0.374291	0.593970
	C2409	C	0.474625	0.464197	0.593128
	C2410	C	0.462011	0.464444	0.591361
	C2411	C	0.494809	0.374571	0.594139
	H2412	H	0.479457	0.214611	0.593975
	H2413	H	0.457103	0.214691	0.590679
	H2414	H	0.473926	0.284848	0.656581
	H2415	H	0.452764	0.284985	0.644266
	H2416	H	0.424361	0.125052	0.577736
	H2417	H	0.418952	0.374284	0.639933
	H2418	H	0.331193	0.375085	0.610089
	H2419	H	0.512435	0.125086	0.605100
	H2420	H	0.390484	0.214503	0.573619
	H2421	H	0.369394	0.215004	0.560886
	H2422	H	0.363781	0.285424	0.623319
	H2423	H	0.386127	0.284999	0.626614
	H2424	H	0.369629	0.534921	0.560389
	H2425	H	0.390659	0.534584	0.573062
	H2426	H	0.386094	-0.034947	0.626490
	H2427	H	0.363781	-0.034742	0.623138
	H2428	H	0.452715	-0.034948	0.644315
	H2429	H	0.473888	-0.034838	0.656710
	H2430	H	0.457134	0.534662	0.590544
	H2431	H	0.479504	0.534177	0.593896
	Al2432	Al	0.411722	-0.499917	0.724481
	Al2433	Al	0.411676	-0.250164	0.724507
	Al2434	Al	0.328378	-0.249773	0.641210
	Al2435	Al	0.328356	-0.499905	0.641166
	O2436	O	0.423659	-0.459423	0.745943
	O2437	O	0.412825	-0.375161	0.709414
	O2438	O	0.410529	-0.124846	0.739458
	O2439	O	0.482999	-0.459657	0.786395
	O2440	O	0.396939	-0.458964	0.742098
	O2441	O	0.333132	-0.459144	0.739553
	O2442	O	0.396976	-0.290640	0.742168
	O2443	O	0.399673	-0.208790	0.703084
	O2444	O	0.340335	-0.208523	0.662645
	O2445	O	0.423601	-0.291476	0.746040
	O2446	O	0.426369	-0.209002	0.706846
	O2447	O	0.490328	-0.208168	0.710036
	O2448	O	0.333115	-0.290794	0.739411
	O2449	O	0.399665	-0.040813	0.703084
	O2450	O	0.340369	-0.040599	0.662492
	O2451	O	0.490233	-0.040274	0.709823
	O2452	O	0.426406	-0.040775	0.706679
	O2453	O	0.483032	-0.291482	0.786276
	O2454	O	0.319544	-0.124721	0.744478
	O2455	O	0.503827	-0.375053	0.707196
	C2456	C	0.459282	-0.285441	0.769741
	C2457	C	0.465459	-0.375171	0.773482
	C2458	C	0.459221	-0.465042	0.770063
	C2459	C	0.447298	-0.464969	0.762952
	C2460	C	0.441180	-0.375190	0.758914
	C2461	C	0.447352	-0.285319	0.762668
	C2462	C	0.428585	-0.375391	0.749650
	C2463	C	0.478061	-0.375403	0.782677
	C2464	C	0.391522	-0.374772	0.742462
	C2465	C	0.377793	-0.374724	0.742933
	C2466	C	0.371299	-0.284872	0.742305
	C2467	C	0.358705	-0.284924	0.740525
	C2468	C	0.352248	-0.374810	0.739414
	C2469	C	0.358719	-0.464785	0.740184
	C2470	C	0.371339	-0.464758	0.741942
	C2471	C	0.338548	-0.374947	0.739201
	C2472	C	0.394732	-0.124893	0.699410
	C2473	C	0.382134	-0.124737	0.690172
	C2474	C	0.376014	-0.034856	0.686345
	C2475	C	0.364094	-0.034895	0.679233
	C2476	C	0.357895	-0.124661	0.675547
	C2477	C	0.364037	-0.214493	0.679348
	C2478	C	0.375959	-0.214522	0.686502
	C2479	C	0.345282	-0.124532	0.666281
	C2480	C	0.431820	-0.125045	0.706590
	C2481	C	0.445536	-0.124959	0.706511
	C2482	C	0.452042	-0.214861	0.707294
	C2483	C	0.464646	-0.214841	0.709144
	C2484	C	0.471114	-0.124879	0.710125
	C2485	C	0.464602	-0.035167	0.709455
	C2486	C	0.451994	-0.035089	0.707589
	C2487	C	0.484828	-0.124480	0.710142
	H2488	H	0.469506	-0.284911	0.709730
	H2489	H	0.447171	-0.284818	0.706375
	H2490	H	0.463920	-0.215124	0.772493
	H2491	H	0.442774	-0.215102	0.759910
	H2492	H	0.414195	-0.374529	0.693284
	H2493	H	0.408865	-0.125348	0.755479
	H2494	H	0.320842	-0.124811	0.728492
	H2495	H	0.502186	-0.374963	0.723293
	H2496	H	0.380552	-0.284609	0.689254
	H2497	H	0.359452	-0.284515	0.676673
	H2498	H	0.353854	-0.214700	0.740028
	H2499	H	0.376155	-0.214953	0.743318
	H2500	H	0.359519	0.035372	0.676421
	H2501	H	0.380643	0.035197	0.688965
	H2502	H	0.376216	-0.534673	0.742601
	H2503	H	0.353843	-0.534593	0.739406
	H2504	H	0.442640	-0.534927	0.760339
	H2505	H	0.463794	-0.535200	0.772959
	H2506	H	0.447140	0.035058	0.706905
	H2507	H	0.469478	0.034733	0.710339
	Al2508	Al	0.411653	0.000164	0.724445
	Al2509	Al	0.411710	0.250201	0.724401
	Al2510	Al	0.328298	0.250031	0.641364
	Al2511	Al	0.328346	0.000138	0.641076
	O2512	O	0.423681	0.040954	0.745801
	O2513	O	0.412887	0.125285	0.709367
	O2514	O	0.410532	0.375053	0.739421
	O2515	O	0.482988	0.041099	0.786356
	O2516	O	0.396975	0.041040	0.742365
	O2517	O	0.333132	0.040724	0.739585
	O2518	O	0.397029	0.209390	0.742229
	O2519	O	0.399738	0.291138	0.702959
	O2520	O	0.340363	0.291151	0.662677
	O2521	O	0.423605	0.209104	0.746002
	O2522	O	0.426434	0.290639	0.706746
	O2523	O	0.490271	0.291136	0.709723
	O2524	O	0.333086	0.209204	0.739554
	O2525	O	0.399694	0.459108	0.703026
	O2526	O	0.340412	0.459195	0.662509
	O2527	O	0.490269	0.459091	0.709932
	O2528	O	0.426391	0.458776	0.706804
	O2529	O	0.482959	0.209153	0.786535
	O2530	O	0.319579	0.375266	0.744368
	O2531	O	0.503892	0.125462	0.707051
	C2532	C	0.459242	0.214957	0.769757
	C2533	C	0.465406	0.125159	0.773488
	C2534	C	0.459228	0.035313	0.769809
	C2535	C	0.447303	0.035347	0.762737
	C2536	C	0.441163	0.125194	0.758897
	C2537	C	0.447318	0.214990	0.762680
	C2538	C	0.428557	0.125117	0.749644
	C2539	C	0.478027	0.125090	0.782688
	C2540	C	0.391583	0.125289	0.742507
	C2541	C	0.377827	0.125330	0.742935
	C2542	C	0.371350	0.215285	0.742110
	C2543	C	0.358718	0.215270	0.740348
	C2544	C	0.352238	0.125370	0.739372
	C2545	C	0.358712	0.035442	0.740225
	C2546	C	0.371339	0.035530	0.741945
	C2547	C	0.338542	0.125060	0.739383
	C2548	C	0.394774	0.375057	0.699315
	C2549	C	0.382145	0.375039	0.690113
	C2550	C	0.376033	0.464834	0.686334
	C2551	C	0.364079	0.464956	0.679246
	C2552	C	0.357913	0.375253	0.675577
	C2553	C	0.364009	0.285521	0.679464
	C2554	C	0.375962	0.285499	0.686535
	C2555	C	0.345297	0.375239	0.666411
	C2556	C	0.431858	0.374888	0.706551
	C2557	C	0.445577	0.375112	0.706421
	C2558	C	0.452061	0.285203	0.707240
	C2559	C	0.464684	0.285313	0.709108
	C2560	C	0.471125	0.375267	0.710105
	C2561	C	0.464627	0.465262	0.709497
	C2562	C	0.452023	0.464924	0.707628
	C2563	C	0.484849	0.375151	0.710040
	H2564	H	0.469585	0.215467	0.709680
	H2565	H	0.447235	0.214902	0.706296
	H2566	H	0.463846	0.285038	0.772399
	H2567	H	0.442695	0.284926	0.759951
	H2568	H	0.414557	0.125836	0.693283
	H2569	H	0.408923	0.374565	0.755514
	H2570	H	0.320796	0.375266	0.728223
	H2571	H	0.502313	0.125791	0.723075
	H2572	H	0.380569	0.215064	0.689150
	H2573	H	0.359420	0.215296	0.676812
	H2574	H	0.353844	0.285259	0.739764
	H2575	H	0.376223	0.285547	0.742927
	H2576	H	0.359541	0.535199	0.676330
	H2577	H	0.380664	0.535263	0.688760
	H2578	H	0.376222	-0.034654	0.742609
	H2579	H	0.353864	-0.034656	0.739559
	H2580	H	0.442701	-0.034931	0.760093
	H2581	H	0.463835	-0.034801	0.772485
	H2582	H	0.447119	0.535043	0.707075
	H2583	H	0.469435	0.535443	0.710368
	Al2584	Al	0.402294	-0.499662	0.842535
	Al2585	Al	0.402272	-0.250134	0.842519
	Al2586	Al	0.318963	-0.249553	0.759267
	Al2587	Al	0.318975	-0.500575	0.759337
	O2588	O	0.414784	-0.459477	0.862850
	O2589	O	0.402893	-0.374866	0.827684
	O2590	O	0.402083	-0.124669	0.857585
	O2591	O	0.472999	-0.459504	0.906503
	O2592	O	0.389443	-0.458844	0.864927
	O2593	O	0.338330	-0.459402	0.946131
	O2594	O	0.389365	-0.290668	0.864951
	O2595	O	0.389694	-0.209100	0.823063
	O2596	O	0.331531	-0.208898	0.779447
	O2597	O	0.414844	-0.291021	0.862560
	O2598	O	0.416435	-0.208590	0.822828
	O2599	O	0.480318	-0.209550	0.825499
	O2600	O	0.338329	-0.291214	0.946242
	O2601	O	0.389708	-0.040865	0.823086
	O2602	O	0.331482	-0.040540	0.779642
	O2603	O	0.480323	-0.041357	0.825546
	O2604	O	0.416448	-0.040391	0.822753
	O2605	O	0.472977	-0.291078	0.906538
	O2606	O	0.326080	-0.125063	0.956777
	O2607	O	0.493919	-0.375377	0.822812
	C2608	C	0.449673	-0.285570	0.889057
	C2609	C	0.455668	-0.375274	0.893201
	C2610	C	0.449625	-0.465066	0.889210
	C2611	C	0.437957	-0.464935	0.880979
	C2612	C	0.432007	-0.375211	0.876590
	C2613	C	0.437998	-0.285406	0.880841
	C2614	C	0.419638	-0.375205	0.866592
	C2615	C	0.468096	-0.375409	0.902786
	C2616	C	0.385014	-0.374992	0.871519
	C2617	C	0.373967	-0.375260	0.888747
	C2618	C	0.368749	-0.286375	0.897021
	C2619	C	0.358612	-0.286301	0.913196
	C2620	C	0.353377	-0.375286	0.921428
	C2621	C	0.358581	-0.464258	0.913163
	C2622	C	0.368720	-0.464298	0.896970
	C2623	C	0.342578	-0.375263	0.939380
	C2624	C	0.384783	-0.124961	0.819457
	C2625	C	0.372351	-0.124667	0.809982
	C2626	C	0.366352	-0.034839	0.805881
	C2627	C	0.354660	-0.034942	0.797792
	C2628	C	0.348645	-0.124705	0.793632
	C2629	C	0.354637	-0.214317	0.797862
	C2630	C	0.366333	-0.214262	0.805937
	C2631	C	0.336329	-0.124687	0.783501
	C2632	C	0.421859	-0.124505	0.822576
	C2633	C	0.435571	-0.124913	0.822524
	C2634	C	0.442013	-0.214831	0.823401
	C2635	C	0.454643	-0.214997	0.825199
	C2636	C	0.461151	-0.125301	0.826138
	C2637	C	0.454680	-0.035414	0.825419
	C2638	C	0.442060	-0.035169	0.823631
	C2639	C	0.474892	-0.125406	0.825738
	H2640	H	0.459464	-0.285022	0.825894
	H2641	H	0.437102	-0.284814	0.822758
	H2642	H	0.454197	-0.215788	0.892254
	H2643	H	0.433483	-0.215728	0.877590
	H2644	H	0.404154	-0.374746	0.811684
	H2645	H	0.401983	-0.124586	0.873795
	H2646	H	0.325487	-0.124799	0.940788
	H2647	H	0.492356	-0.375239	0.838893
	H2648	H	0.370850	-0.283707	0.809231
	H2649	H	0.350153	-0.284199	0.794697
	H2650	H	0.354731	-0.217305	0.919681
	H2651	H	0.372704	-0.217097	0.890833
	H2652	H	0.350162	0.034675	0.794429
	H2653	H	0.370892	0.034760	0.809006
	H2654	H	0.372645	-0.533502	0.890641
	H2655	H	0.354684	-0.533209	0.919593
	H2656	H	0.433435	-0.534502	0.877823
	H2657	H	0.454127	-0.534727	0.892515
	H2658	H	0.437240	0.035172	0.823141
	H2659	H	0.459568	0.034419	0.826285
	Al2660	Al	0.402334	0.000632	0.842475
	Al2661	Al	0.402283	0.249539	0.842458
	Al2662	Al	0.318915	0.250464	0.759222
	Al2663	Al	0.318982	-0.000385	0.759506
	O2664	O	0.414804	0.041061	0.862759
	O2665	O	0.402821	0.125211	0.827535
	O2666	O	0.402148	0.375139	0.857465
	O2667	O	0.473081	0.040797	0.906356
	O2668	O	0.389386	0.041237	0.864806
	O2669	O	0.338327	0.041160	0.946121
	O2670	O	0.389373	0.209125	0.864941
	O2671	O	0.389667	0.291565	0.823111
	O2672	O	0.331439	0.291275	0.779414
	O2673	O	0.414924	0.209210	0.862425
	O2674	O	0.416414	0.291061	0.822594
	O2675	O	0.480289	0.290458	0.825583
	O2676	O	0.338402	0.209207	0.946243
	O2677	O	0.389665	0.459722	0.823153
	O2678	O	0.331519	0.459596	0.779498
	O2679	O	0.480299	0.458837	0.825448
	O2680	O	0.416410	0.459465	0.822711
	O2681	O	0.473059	0.208944	0.906466
	O2682	O	0.325931	0.375007	0.956648
	O2683	O	0.493988	0.124783	0.822894
	C2684	C	0.449722	0.214035	0.889030
	C2685	C	0.455745	0.124632	0.893134
	C2686	C	0.449691	0.035135	0.889126
	C2687	C	0.438008	0.035294	0.880955
	C2688	C	0.432045	0.124817	0.876612
	C2689	C	0.438037	0.214224	0.880877
	C2690	C	0.419690	0.124983	0.866609
	C2691	C	0.468177	0.125059	0.902728
	C2692	C	0.384990	0.124930	0.871471
	C2693	C	0.373975	0.124908	0.888757
	C2694	C	0.368803	0.213931	0.897110
	C2695	C	0.358653	0.214123	0.913335
	C2696	C	0.353424	0.125009	0.921475
	C2697	C	0.358544	0.035860	0.913017
	C2698	C	0.368671	0.035801	0.896774
	C2699	C	0.342628	0.125054	0.939306
	C2700	C	0.384745	0.375682	0.819585
	C2701	C	0.372291	0.375394	0.810087
	C2702	C	0.366290	0.464851	0.805822
	C2703	C	0.354626	0.464590	0.797578
	C2704	C	0.348634	0.374851	0.793454
	C2705	C	0.354623	0.285435	0.797851
	C2706	C	0.366296	0.285679	0.806084
	C2707	C	0.336324	0.375123	0.783376
	C2708	C	0.421832	0.375267	0.822433
	C2709	C	0.435557	0.374934	0.822636
	C2710	C	0.442011	0.284952	0.823433
	C2711	C	0.454640	0.285050	0.825240
	C2712	C	0.461131	0.374879	0.826147
	C2713	C	0.454658	0.464830	0.825350
	C2714	C	0.442040	0.464779	0.823564
	C2715	C	0.474869	0.374593	0.825845
	H2716	H	0.459517	0.215108	0.825943
	H2717	H	0.437195	0.214747	0.822644
	H2718	H	0.454216	0.283547	0.892344
	H2719	H	0.433551	0.284067	0.877741
	H2720	H	0.404138	0.125625	0.811418
	H2721	H	0.402314	0.374811	0.873683
	H2722	H	0.325269	0.375444	0.940625
	H2723	H	0.492733	0.124468	0.839059
	H2724	H	0.370812	0.216149	0.809497
	H2725	H	0.350072	0.215442	0.794851
	H2726	H	0.354784	0.282987	0.919786
	H2727	H	0.372728	0.283135	0.890877
	H2728	H	0.350159	0.534355	0.794225
	H2729	H	0.370816	0.534379	0.808990
	H2730	H	0.372507	-0.033436	0.890253
	H2731	H	0.354569	-0.033303	0.919169
	H2732	H	0.433448	-0.034132	0.877838
	H2733	H	0.454168	-0.034391	0.892510
	H2734	H	0.437161	0.534628	0.822864
	H2735	H	0.459487	0.535093	0.826090
	Al2736	Al	0.568926	-0.499693	0.009474
	Al2737	Al	0.568935	-0.250546	0.009292
	Al2738	Al	0.485602	-0.249663	-0.074247
	Al2739	Al	0.485629	-0.500202	-0.074015
	O2740	O	0.581422	-0.459384	0.029720
	O2741	O	0.569610	-0.375158	-0.005539
	O2742	O	0.568795	-0.124959	0.024262
	O2743	O	0.639688	-0.459672	0.073087
	O2744	O	0.556047	-0.458836	0.031786
	O2745	O	0.505000	-0.458913	0.113185
	O2746	O	0.555975	-0.290872	0.031709
	O2747	O	0.556355	-0.209434	-0.010084
	O2748	O	0.498217	-0.209441	-0.054038
	O2749	O	0.581529	-0.291127	0.029317
	O2750	O	0.583120	-0.209053	-0.010285
	O2751	O	0.646954	-0.209721	-0.007827
	O2752	O	0.504974	-0.290801	0.113201
	O2753	O	0.556331	-0.041137	-0.009945
	O2754	O	0.498104	-0.041290	-0.053834
	O2755	O	0.646978	-0.041294	-0.007579
	O2756	O	0.583116	-0.040764	-0.010546
	O2757	O	0.639664	-0.291431	0.073315
	O2758	O	0.492529	-0.125504	0.123637
	O2759	O	0.660629	-0.375492	-0.010399
	C2760	C	0.616327	-0.285584	0.056009
	C2761	C	0.622317	-0.375281	0.060099
	C2762	C	0.616325	-0.465038	0.055939
	C2763	C	0.604628	-0.464929	0.047764
	C2764	C	0.598646	-0.375184	0.043519
	C2765	C	0.604622	-0.285439	0.047831
	C2766	C	0.586291	-0.375233	0.033452
	C2767	C	0.634790	-0.375446	0.069569
	C2768	C	0.551667	-0.375164	0.038443
	C2769	C	0.540658	-0.375020	0.055806
	C2770	C	0.535403	-0.286032	0.064028
	C2771	C	0.525282	-0.285984	0.080230
	C2772	C	0.520067	-0.374786	0.088555
	C2773	C	0.525279	-0.463831	0.080232
	C2774	C	0.535409	-0.463980	0.064046
	C2775	C	0.509278	-0.374827	0.106405
	C2776	C	0.551434	-0.125156	-0.013649
	C2777	C	0.538976	-0.125149	-0.023161
	C2778	C	0.532938	-0.035453	-0.027275
	C2779	C	0.521255	-0.035566	-0.035553
	C2780	C	0.515322	-0.125319	-0.039881
	C2781	C	0.521297	-0.215006	-0.035506
	C2782	C	0.532976	-0.214879	-0.027238
	C2783	C	0.503008	-0.125223	-0.050026
	C2784	C	0.588546	-0.124823	-0.010670
	C2785	C	0.602242	-0.125038	-0.010633
	C2786	C	0.608700	-0.215023	-0.009573
	C2787	C	0.621294	-0.215345	-0.007747
	C2788	C	0.627792	-0.125347	-0.006973
	C2789	C	0.621315	-0.035301	-0.007858
	C2790	C	0.608710	-0.035090	-0.009732
	C2791	C	0.641550	-0.125467	-0.007415
	H2792	H	0.626148	-0.285295	-0.006949
	H2793	H	0.603840	-0.285112	-0.010240
	H2794	H	0.620831	-0.215953	0.059216
	H2795	H	0.600120	-0.215347	0.044635
	H2796	H	0.571131	-0.375529	-0.021548
	H2797	H	0.568705	-0.125414	0.040319
	H2798	H	0.491986	-0.125710	0.107637
	H2799	H	0.659268	-0.375845	0.005646
	H2800	H	0.537446	-0.284331	-0.023954
	H2801	H	0.516826	-0.284770	-0.038747
	H2802	H	0.521383	-0.217278	0.086629
	H2803	H	0.539334	-0.217326	0.057731
	H2804	H	0.516768	0.034120	-0.038877
	H2805	H	0.537441	0.034298	-0.024012
	H2806	H	0.539365	-0.532721	0.057801
	H2807	H	0.521377	-0.532560	0.086632
	H2808	H	0.600119	-0.534795	0.044612
	H2809	H	0.620836	-0.534896	0.059071
	H2810	H	0.603847	0.034934	-0.010529
	H2811	H	0.626197	0.034724	-0.007097
	Al2812	Al	0.568980	0.000404	0.009414
	Al2813	Al	0.568892	0.249314	0.009454
	Al2814	Al	0.485619	0.250662	-0.074046
	Al2815	Al	0.485625	-0.000252	-0.073988
	O2816	O	0.581491	0.040341	0.029617
	O2817	O	0.569530	0.125030	-0.005458
	O2818	O	0.568814	0.374772	0.024401
	O2819	O	0.639729	0.040609	0.073139
	O2820	O	0.556059	0.040606	0.031813
	O2821	O	0.504967	0.040571	0.113258
	O2822	O	0.555964	0.208561	0.031663
	O2823	O	0.556381	0.290788	-0.010140
	O2824	O	0.498175	0.290965	-0.053885
	O2825	O	0.581527	0.208755	0.029553
	O2826	O	0.583075	0.290901	-0.010225
	O2827	O	0.646951	0.290489	-0.007841
	O2828	O	0.504986	0.208593	0.113277
	O2829	O	0.556420	0.458772	-0.010116
	O2830	O	0.498175	0.459209	-0.053740
	O2831	O	0.646979	0.458630	-0.007925
	O2832	O	0.583073	0.459192	-0.010333
	O2833	O	0.639767	0.208824	0.073038
	O2834	O	0.492699	0.374704	0.123646
	O2835	O	0.660585	0.124935	-0.010304
	C2836	C	0.616336	0.214589	0.055988
	C2837	C	0.622366	0.124860	0.059978
	C2838	C	0.616368	0.035228	0.055887
	C2839	C	0.604669	0.035073	0.047735
	C2840	C	0.598686	0.124718	0.043532
	C2841	C	0.604630	0.214468	0.047862
	C2842	C	0.586325	0.124346	0.033515
	C2843	C	0.634841	0.124821	0.069503
	C2844	C	0.551621	0.124391	0.038311
	C2845	C	0.540644	0.124583	0.055746
	C2846	C	0.535367	0.213693	0.063961
	C2847	C	0.525223	0.213666	0.080239
	C2848	C	0.520078	0.124517	0.088655
	C2849	C	0.525325	0.035561	0.080378
	C2850	C	0.535466	0.035584	0.064098
	C2851	C	0.509250	0.124624	0.106449
	C2852	C	0.551515	0.374919	-0.013818
	C2853	C	0.539053	0.374694	-0.023331
	C2854	C	0.533037	0.464251	-0.027435
	C2855	C	0.521334	0.464272	-0.035574
	C2856	C	0.515347	0.374742	-0.039792
	C2857	C	0.521344	0.285118	-0.035580
	C2858	C	0.533049	0.285132	-0.027404
	C2859	C	0.502988	0.374869	-0.049841
	C2860	C	0.588496	0.375040	-0.010478
	C2861	C	0.602216	0.374810	-0.010472
	C2862	C	0.608658	0.284946	-0.009516
	C2863	C	0.621280	0.284754	-0.007810
	C2864	C	0.627798	0.374582	-0.007099
	C2865	C	0.621337	0.464356	-0.007928
	C2866	C	0.608718	0.464538	-0.009597
	C2867	C	0.641539	0.374569	-0.007627
	H2868	H	0.626146	0.214810	-0.006995
	H2869	H	0.603780	0.215082	-0.010042
	H2870	H	0.620813	0.284339	0.059280
	H2871	H	0.600107	0.284284	0.044767
	H2872	H	0.570685	0.125251	-0.021380
	H2873	H	0.569051	0.375416	0.040514
	H2874	H	0.492204	0.374238	0.107690
	H2875	H	0.659187	0.124295	0.005823
	H2876	H	0.537563	0.215427	-0.024225
	H2877	H	0.516846	0.215334	-0.038719
	H2878	H	0.521278	0.283132	0.086505
	H2879	H	0.539178	0.283060	0.057485
	H2880	H	0.516845	0.534167	-0.038766
	H2881	H	0.537516	0.533913	-0.024189
	H2882	H	0.539360	-0.033550	0.057735
	H2883	H	0.521490	-0.033781	0.086747
	H2884	H	0.600173	-0.034578	0.044572
	H2885	H	0.620923	-0.034206	0.059006
	H2886	H	0.603871	0.534433	-0.010159
	H2887	H	0.626189	0.534473	-0.007257
	Al2888	Al	0.576649	-0.500185	0.221471
	Al2889	Al	0.576570	-0.250185	0.221488
	Al2890	Al	0.493283	-0.250571	0.138238
	Al2891	Al	0.493332	-0.500248	0.138258
	O2892	O	0.590145	-0.458918	0.238585
	O2893	O	0.575908	-0.375380	0.207003
	O2894	O	0.577367	-0.125127	0.236068
	O2895	O	0.646496	-0.459001	0.287658
	O2896	O	0.565119	-0.459161	0.246741
	O2897	O	0.518101	-0.459171	0.336771
	O2898	O	0.565186	-0.291101	0.246960
	O2899	O	0.563131	-0.209213	0.204336
	O2900	O	0.506766	-0.208996	0.155307
	O2901	O	0.590116	-0.290947	0.238422
	O2902	O	0.588252	-0.209620	0.196413
	O2903	O	0.639362	-0.209510	0.115249
	O2904	O	0.518122	-0.291165	0.336772
	O2905	O	0.563204	-0.040967	0.204175
	O2906	O	0.506790	-0.040688	0.155210
	O2907	O	0.639300	-0.041578	0.115197
	O2908	O	0.588360	-0.041251	0.196598
	O2909	O	0.646472	-0.290813	0.287725
	O2910	O	0.506023	-0.125311	0.347576
	O2911	O	0.652162	-0.374958	0.107632
	C2912	C	0.624066	-0.285483	0.267634
	C2913	C	0.629737	-0.374810	0.272727
	C2914	C	0.623997	-0.464212	0.267813
	C2915	C	0.612731	-0.464052	0.258059
	C2916	C	0.606998	-0.374821	0.253072
	C2917	C	0.612783	-0.285478	0.257856
	C2918	C	0.594893	-0.374695	0.242505
	C2919	C	0.641760	-0.375037	0.283612
	C2920	C	0.561196	-0.375151	0.254358
	C2921	C	0.551107	-0.375089	0.273682
	C2922	C	0.546346	-0.285948	0.282965
	C2923	C	0.537005	-0.286005	0.300863
	C2924	C	0.532167	-0.375085	0.309981
	C2925	C	0.536894	-0.464264	0.300681
	C2926	C	0.546245	-0.464152	0.282800
	C2927	C	0.522102	-0.375208	0.329323
	C2928	C	0.558409	-0.125098	0.200184
	C2929	C	0.546351	-0.124826	0.189495
	C2930	C	0.540694	-0.035513	0.184411
	C2931	C	0.529419	-0.035773	0.174650
	C2932	C	0.523612	-0.124860	0.169862
	C2933	C	0.529310	-0.214067	0.174853
	C2934	C	0.540578	-0.213935	0.184627
	C2935	C	0.511489	-0.125006	0.159293
	C2936	C	0.592527	-0.125324	0.189628
	C2937	C	0.603321	-0.125411	0.171805
	C2938	C	0.608421	-0.214596	0.163319
	C2939	C	0.618577	-0.214549	0.147147
	C2940	C	0.623850	-0.125334	0.139036
	C2941	C	0.618679	-0.036035	0.147368
	C2942	C	0.608538	-0.036041	0.163571
	C2943	C	0.634932	-0.125592	0.121897
	H2944	H	0.622469	-0.283999	0.140776
	H2945	H	0.604451	-0.284047	0.169513
	H2946	H	0.628528	-0.216675	0.271414
	H2947	H	0.608439	-0.216514	0.253906
	H2948	H	0.575292	-0.375812	0.191046
	H2949	H	0.578113	-0.125176	0.252043
	H2950	H	0.505221	-0.125562	0.331658
	H2951	H	0.652076	-0.374987	0.123885
	H2952	H	0.544938	-0.282672	0.188482
	H2953	H	0.524903	-0.282739	0.171050
	H2954	H	0.533400	-0.217160	0.307966
	H2955	H	0.549991	-0.216813	0.276080
	H2956	H	0.525026	0.032731	0.170738
	H2957	H	0.545106	0.033470	0.188215
	H2958	H	0.549874	-0.533308	0.275751
	H2959	H	0.533289	-0.533247	0.307658
	H2960	H	0.608345	-0.533154	0.254239
	H2961	H	0.628320	-0.533399	0.271710
	H2962	H	0.604680	0.033004	0.169965
	H2963	H	0.622644	0.033228	0.141163
	Al2964	Al	0.576665	-0.000092	0.221465
	Al2965	Al	0.576741	0.249856	0.221509
	Al2966	Al	0.493305	0.249671	0.138284
	Al2967	Al	0.493279	-0.000146	0.138184
	O2968	O	0.590134	0.040886	0.238579
	O2969	O	0.575991	0.125071	0.206921
	O2970	O	0.577430	0.374893	0.235987
	O2971	O	0.646490	0.040446	0.287817
	O2972	O	0.565169	0.040894	0.246801
	O2973	O	0.518054	0.041253	0.336596
	O2974	O	0.565324	0.208934	0.246908
	O2975	O	0.563186	0.289963	0.204446
	O2976	O	0.506821	0.290480	0.155334
	O2977	O	0.590211	0.208997	0.238563
	O2978	O	0.588362	0.291016	0.196546
	O2979	O	0.639291	0.290787	0.115025
	O2980	O	0.518158	0.209174	0.336742
	O2981	O	0.563260	0.458603	0.204089
	O2982	O	0.506816	0.458812	0.155428
	O2983	O	0.639331	0.459090	0.115046
	O2984	O	0.588391	0.459370	0.196571
	O2985	O	0.646507	0.208563	0.287742
	O2986	O	0.505966	0.375083	0.347568
	O2987	O	0.652022	0.125070	0.107750
	C2988	C	0.624022	0.213789	0.267882
	C2989	C	0.629760	0.124632	0.272814
	C2990	C	0.624037	0.035436	0.267872
	C2991	C	0.612743	0.035501	0.258147
	C2992	C	0.607020	0.124817	0.253217
	C2993	C	0.612739	0.213866	0.258168
	C2994	C	0.594929	0.124929	0.242545
	C2995	C	0.641788	0.124561	0.283639
	C2996	C	0.561232	0.124999	0.254317
	C2997	C	0.551121	0.125208	0.273569
	C2998	C	0.546357	0.214248	0.282820
	C2999	C	0.536997	0.214289	0.300686
	C3000	C	0.532180	0.125177	0.309828
	C3001	C	0.536926	0.036156	0.300541
	C3002	C	0.546291	0.036137	0.282672
	C3003	C	0.522076	0.125152	0.329163
	C3004	C	0.558502	0.374483	0.200199
	C3005	C	0.546460	0.374396	0.189377
	C3006	C	0.540743	0.463695	0.184436
	C3007	C	0.529446	0.463601	0.174749
	C3008	C	0.523674	0.374406	0.169928
	C3009	C	0.529398	0.285104	0.174871
	C3010	C	0.540693	0.285128	0.184604
	C3011	C	0.511563	0.374626	0.159389
	C3012	C	0.592611	0.374972	0.189698
	C3013	C	0.603429	0.375225	0.171882
	C3014	C	0.608508	0.286040	0.163335
	C3015	C	0.618619	0.285715	0.147059
	C3016	C	0.623893	0.374877	0.138972
	C3017	C	0.618781	0.464061	0.147430
	C3018	C	0.608678	0.464350	0.163708
	C3019	C	0.634942	0.375069	0.121675
	H3020	H	0.622434	0.216619	0.140523
	H3021	H	0.604493	0.217014	0.169561
	H3022	H	0.628369	0.282988	0.271643
	H3023	H	0.608361	0.282709	0.254328
	H3024	H	0.575328	0.124923	0.190913
	H3025	H	0.578388	0.374541	0.251937
	H3026	H	0.505223	0.374573	0.331599
	H3027	H	0.652001	0.125246	0.123812
	H3028	H	0.545045	0.216753	0.188621
	H3029	H	0.524987	0.216426	0.171069
	H3030	H	0.533386	0.283199	0.307672
	H3031	H	0.550002	0.283548	0.275948
	H3032	H	0.525074	0.532546	0.170928
	H3033	H	0.545128	0.532411	0.188295
	H3034	H	0.549886	-0.033144	0.275629
	H3035	H	0.533269	-0.032849	0.307466
	H3036	H	0.608351	-0.033411	0.254341
	H3037	H	0.628466	-0.033395	0.271736
	H3038	H	0.604829	0.533374	0.170152
	H3039	H	0.622743	0.532849	0.141177
	Al3040	Al	0.590010	-0.500170	0.445430
	Al3041	Al	0.589945	-0.250080	0.445448
	Al3042	Al	0.506688	-0.250140	0.362167
	Al3043	Al	0.506673	-0.500056	0.362075
	O3044	O	0.603453	-0.459089	0.462565
	O3045	O	0.589166	-0.375217	0.430829
	O3046	O	0.590716	-0.125091	0.459950
	O3047	O	0.659769	-0.459116	0.511647
	O3048	O	0.578295	-0.458732	0.470368
	O3049	O	0.527223	-0.458911	0.551742
	O3050	O	0.578209	-0.290727	0.470405
	O3051	O	0.576496	-0.209323	0.428320
	O3052	O	0.520118	-0.209609	0.379302
	O3053	O	0.603389	-0.290669	0.462554
	O3054	O	0.601466	-0.209417	0.420226
	O3055	O	0.648445	-0.209438	0.330264
	O3056	O	0.527323	-0.291086	0.551750
	O3057	O	0.576485	-0.040974	0.428335
	O3058	O	0.520199	-0.041131	0.379054
	O3059	O	0.648557	-0.041318	0.330324
	O3060	O	0.601476	-0.041315	0.420191
	O3061	O	0.659803	-0.290596	0.511595
	O3062	O	0.514604	-0.125225	0.559139
	O3063	O	0.660620	-0.375054	0.319463
	C3064	C	0.637217	-0.285474	0.492040
	C3065	C	0.642968	-0.374733	0.496969
	C3066	C	0.637237	-0.463929	0.492064
	C3067	C	0.625991	-0.463784	0.482215
	C3068	C	0.620224	-0.374498	0.477358
	C3069	C	0.625953	-0.285269	0.482201
	C3070	C	0.608175	-0.374919	0.466555
	C3071	C	0.655035	-0.374906	0.507675
	C3072	C	0.574024	-0.374863	0.477299
	C3073	C	0.563251	-0.375273	0.495133
	C3074	C	0.558024	-0.286410	0.503399
	C3075	C	0.547897	-0.286328	0.519642
	C3076	C	0.542690	-0.375318	0.527845
	C3077	C	0.547943	-0.464144	0.519673
	C3078	C	0.558089	-0.464069	0.503462
	C3079	C	0.531685	-0.375232	0.545196
	C3080	C	0.571755	-0.125088	0.424307
	C3081	C	0.559688	-0.125255	0.413596
	C3082	C	0.554003	-0.036021	0.408475
	C3083	C	0.542748	-0.036037	0.398705
	C3084	C	0.536970	-0.125160	0.393920
	C3085	C	0.542672	-0.214469	0.398996
	C3086	C	0.553943	-0.214528	0.408775
	C3087	C	0.524891	-0.125369	0.383289
	C3088	C	0.605419	-0.125429	0.412697
	C3089	C	0.615490	-0.125096	0.393290
	C3090	C	0.620176	-0.214121	0.383885
	C3091	C	0.629506	-0.214175	0.365938
	C3092	C	0.634382	-0.125079	0.357034
	C3093	C	0.629669	-0.036057	0.366344
	C3094	C	0.620338	-0.035883	0.384259
	C3095	C	0.644493	-0.125362	0.337696
	H3096	H	0.633041	-0.283187	0.358808
	H3097	H	0.616442	-0.283156	0.390685
	H3098	H	0.641645	-0.216757	0.495721
	H3099	H	0.621586	-0.216376	0.478358
	H3100	H	0.588189	-0.375216	0.414979
	H3101	H	0.591586	-0.125583	0.475915
	H3102	H	0.514669	-0.125175	0.542923
	H3103	H	0.661295	-0.374425	0.335481
	H3104	H	0.558279	-0.283296	0.412812
	H3105	H	0.538202	-0.283246	0.395268
	H3106	H	0.543958	-0.217383	0.525948
	H3107	H	0.561894	-0.217500	0.497033
	H3108	H	0.538410	0.032999	0.394778
	H3109	H	0.558400	0.032748	0.412238
	H3110	H	0.561975	-0.533234	0.497147
	H3111	H	0.544041	-0.533071	0.526003
	H3112	H	0.621632	-0.532603	0.478390
	H3113	H	0.641605	-0.532686	0.495886
	H3114	H	0.616792	0.033421	0.391312
	H3115	H	0.633380	0.032724	0.359489
	Al3116	Al	0.589927	-0.000292	0.445551
	Al3117	Al	0.589946	0.249802	0.445434
	Al3118	Al	0.506705	0.250091	0.362061
	Al3119	Al	0.506705	0.000096	0.362065
	O3120	O	0.603408	0.040719	0.462657
	O3121	O	0.589229	0.124683	0.430967
	O3122	O	0.590713	0.374732	0.460022
	O3123	O	0.659834	0.040324	0.511630
	O3124	O	0.578227	0.040946	0.470412
	O3125	O	0.527274	0.040918	0.551817
	O3126	O	0.578337	0.208957	0.470608
	O3127	O	0.576487	0.290577	0.428480
	O3128	O	0.520198	0.290432	0.379149
	O3129	O	0.603419	0.208853	0.462554
	O3130	O	0.601381	0.290229	0.420003
	O3131	O	0.648559	0.290269	0.330259
	O3132	O	0.527212	0.208844	0.551565
	O3133	O	0.576551	0.458946	0.428163
	O3134	O	0.520177	0.458799	0.379105
	O3135	O	0.648576	0.458295	0.330268
	O3136	O	0.601491	0.458431	0.420155
	O3137	O	0.659765	0.208659	0.511791
	O3138	O	0.514537	0.374748	0.559143
	O3139	O	0.660745	0.124665	0.319418
	C3140	C	0.637203	0.213661	0.492305
	C3141	C	0.642992	0.124621	0.497029
	C3142	C	0.637290	0.035466	0.491960
	C3143	C	0.626028	0.035670	0.482126
	C3144	C	0.620225	0.124832	0.477401
	C3145	C	0.625939	0.213852	0.482520
	C3146	C	0.608182	0.124784	0.466558
	C3147	C	0.655047	0.124392	0.507726
	C3148	C	0.573992	0.124926	0.477325
	C3149	C	0.563204	0.124779	0.495173
	C3150	C	0.558040	0.213711	0.503516
	C3151	C	0.547906	0.213839	0.519646
	C3152	C	0.542639	0.124858	0.527790
	C3153	C	0.547854	0.036088	0.519545
	C3154	C	0.557986	0.035807	0.503409
	C3155	C	0.531627	0.124973	0.545055
	C3156	C	0.571809	0.374570	0.424261
	C3157	C	0.559742	0.374455	0.413546
	C3158	C	0.554055	0.463993	0.408517
	C3159	C	0.542780	0.464217	0.398722
	C3160	C	0.537000	0.374760	0.393909
	C3161	C	0.542663	0.285337	0.399108
	C3162	C	0.553927	0.285100	0.408861
	C3163	C	0.524908	0.374730	0.383199
	C3164	C	0.605428	0.374550	0.412597
	C3165	C	0.615529	0.374470	0.393281
	C3166	C	0.620193	0.285589	0.383899
	C3167	C	0.629535	0.285663	0.365976
	C3168	C	0.634446	0.374425	0.357037
	C3169	C	0.629743	0.463466	0.366330
	C3170	C	0.620387	0.463434	0.384256
	C3171	C	0.644566	0.374169	0.337712
	H3172	H	0.633026	0.216874	0.358788
	H3173	H	0.616494	0.216491	0.390579
	H3174	H	0.641549	0.282880	0.496298
	H3175	H	0.621563	0.282626	0.478747
	H3176	H	0.588577	0.124386	0.415034
	H3177	H	0.591466	0.374400	0.475976
	H3178	H	0.514660	0.375202	0.542922
	H3179	H	0.661727	0.125001	0.335264
	H3180	H	0.558223	0.215913	0.412895
	H3181	H	0.538229	0.216448	0.395454
	H3182	H	0.543987	0.282983	0.525992
	H3183	H	0.561975	0.282640	0.497174
	H3184	H	0.538421	0.533287	0.394787
	H3185	H	0.558488	0.532870	0.412298
	H3186	H	0.561855	-0.033098	0.497005
	H3187	H	0.543860	-0.032919	0.525735
	H3188	H	0.621706	-0.033048	0.477932
	H3189	H	0.641713	-0.033280	0.495675
	H3190	H	0.616870	0.532397	0.391383
	H3191	H	0.633423	0.532188	0.359574
	Al3192	Al	0.597689	-0.500610	0.657453
	Al3193	Al	0.597728	-0.249590	0.657252
	Al3194	Al	0.514400	-0.250611	0.574198
	Al3195	Al	0.514310	-0.499717	0.574192
	O3196	O	0.610263	-0.459300	0.676987
	O3197	O	0.597890	-0.375077	0.642389
	O3198	O	0.597125	-0.125056	0.672143
	O3199	O	0.668517	-0.459527	0.720516
	O3200	O	0.583514	-0.459417	0.677051
	O3201	O	0.519698	-0.459156	0.674401
	O3202	O	0.583576	-0.290970	0.677054
	O3203	O	0.585078	-0.209484	0.637316
	O3204	O	0.526869	-0.209323	0.593746
	O3205	O	0.610286	-0.290931	0.676937
	O3206	O	0.610659	-0.208731	0.634845
	O3207	O	0.661635	-0.208819	0.553639
	O3208	O	0.519669	-0.290924	0.674344
	O3209	O	0.585264	-0.041333	0.636865
	O3210	O	0.526937	-0.041029	0.593677
	O3211	O	0.661714	-0.040895	0.553696
	O3212	O	0.610639	-0.040815	0.634992
	O3213	O	0.668431	-0.291388	0.720821
	O3214	O	0.506071	-0.125061	0.677077
	O3215	O	0.674085	-0.375467	0.543219
	C3216	C	0.645338	-0.285646	0.702369
	C3217	C	0.651266	-0.375370	0.706768
	C3218	C	0.645259	-0.464967	0.702599
	C3219	C	0.633574	-0.464898	0.694442
	C3220	C	0.627587	-0.375202	0.690301
	C3221	C	0.633665	-0.285561	0.694192
	C3222	C	0.615153	-0.375062	0.680656
	C3223	C	0.663660	-0.375720	0.716739
	C3224	C	0.578126	-0.375034	0.677221
	C3225	C	0.564398	-0.375088	0.677220
	C3226	C	0.557940	-0.285298	0.676214
	C3227	C	0.545311	-0.285316	0.674554
	C3228	C	0.538841	-0.375139	0.673816
	C3229	C	0.545314	-0.465087	0.674569
	C3230	C	0.557957	-0.465106	0.676250
	C3231	C	0.525114	-0.375004	0.674101
	C3232	C	0.580342	-0.125470	0.633166
	C3233	C	0.567959	-0.125166	0.623319
	C3234	C	0.561933	-0.035507	0.619246
	C3235	C	0.550245	-0.035412	0.611123
	C3236	C	0.544241	-0.125171	0.606922
	C3237	C	0.550311	-0.214822	0.610786
	C3238	C	0.561988	-0.214888	0.618933
	C3239	C	0.531816	-0.125270	0.597364
	C3240	C	0.615052	-0.124782	0.628342
	C3241	C	0.626099	-0.124591	0.611135
	C3242	C	0.631328	-0.213535	0.602967
	C3243	C	0.641485	-0.213548	0.586745
	C3244	C	0.646668	-0.124599	0.578420
	C3245	C	0.641495	-0.035520	0.586698
	C3246	C	0.631347	-0.035726	0.602911
	C3247	C	0.657405	-0.124718	0.560519
	H3248	H	0.645351	-0.282590	0.580388
	H3249	H	0.627412	-0.282759	0.609190
	H3250	H	0.649885	-0.215624	0.705471
	H3251	H	0.629177	-0.216016	0.690816
	H3252	H	0.597684	-0.375956	0.626221
	H3253	H	0.595899	-0.125000	0.688297
	H3254	H	0.507641	-0.125686	0.661026
	H3255	H	0.674772	-0.376006	0.559356
	H3256	H	0.566593	-0.284738	0.621945
	H3257	H	0.545851	-0.284348	0.607374
	H3258	H	0.540428	-0.215313	0.673866
	H3259	H	0.562777	-0.215209	0.676810
	H3260	H	0.545699	0.034343	0.607908
	H3261	H	0.566468	0.034287	0.622460
	H3262	H	0.562829	-0.535023	0.676962
	H3263	H	0.540473	-0.535187	0.673990
	H3264	H	0.629056	-0.534639	0.691301
	H3265	H	0.649756	-0.534904	0.705903
	H3266	H	0.627402	0.033285	0.609156
	H3267	H	0.645355	0.033871	0.580305
	Al3268	Al	0.597715	-0.000669	0.657242
	Al3269	Al	0.597713	0.250456	0.657643
	Al3270	Al	0.514368	0.249108	0.574028
	Al3271	Al	0.514389	0.000142	0.574102
	O3272	O	0.610298	0.040420	0.676746
	O3273	O	0.597885	0.125087	0.642494
	O3274	O	0.597006	0.375010	0.672387
	O3275	O	0.668503	0.040853	0.720597
	O3276	O	0.583536	0.039935	0.677068
	O3277	O	0.519712	0.040505	0.674478
	O3278	O	0.583527	0.208526	0.677317
	O3279	O	0.585079	0.290791	0.637414
	O3280	O	0.526975	0.290558	0.593435
	O3281	O	0.610243	0.208662	0.677069
	O3282	O	0.610629	0.290891	0.635163
	O3283	O	0.661628	0.290738	0.553748
	O3284	O	0.519674	0.208831	0.674239
	O3285	O	0.585102	0.459035	0.637250
	O3286	O	0.526921	0.458835	0.593596
	O3287	O	0.661565	0.458947	0.553666
	O3288	O	0.610576	0.458690	0.635048
	O3289	O	0.668449	0.208987	0.720786
	O3290	O	0.506104	0.375342	0.676972
	O3291	O	0.674052	0.124731	0.543250
	C3292	C	0.645292	0.214365	0.702360
	C3293	C	0.651276	0.124780	0.706763
	C3294	C	0.645338	0.035062	0.702384
	C3295	C	0.633657	0.035061	0.694158
	C3296	C	0.627601	0.124589	0.690144
	C3297	C	0.633633	0.214297	0.694127
	C3298	C	0.615157	0.124567	0.680597
	C3299	C	0.663648	0.124914	0.716810
	C3300	C	0.578123	0.124283	0.677448
	C3301	C	0.564408	0.124332	0.677493
	C3302	C	0.557980	0.214349	0.676437
	C3303	C	0.545367	0.214619	0.674668
	C3304	C	0.538851	0.124701	0.673909
	C3305	C	0.545311	0.034609	0.674601
	C3306	C	0.557925	0.034507	0.676385
	C3307	C	0.525129	0.124715	0.674073
	C3308	C	0.580289	0.374681	0.633361
	C3309	C	0.567938	0.374568	0.623245
	C3310	C	0.561941	0.464200	0.619013
	C3311	C	0.550259	0.464223	0.610799
	C3312	C	0.544298	0.374499	0.606625
	C3313	C	0.550321	0.284773	0.610644
	C3314	C	0.561994	0.284643	0.618899
	C3315	C	0.531827	0.374740	0.597204
	C3316	C	0.615017	0.374810	0.628503
	C3317	C	0.626029	0.375072	0.611180
	C3318	C	0.631253	0.286282	0.602957
	C3319	C	0.641378	0.286108	0.586729
	C3320	C	0.646572	0.374875	0.578418
	C3321	C	0.641378	0.463907	0.586721
	C3322	C	0.631261	0.463901	0.602937
	C3323	C	0.657346	0.374773	0.560592
	H3324	H	0.645316	0.217140	0.580429
	H3325	H	0.627354	0.217505	0.609349
	H3326	H	0.649758	0.284265	0.705599
	H3327	H	0.629102	0.283893	0.690841
	H3328	H	0.597875	0.126152	0.626182
	H3329	H	0.595611	0.375739	0.688311
	H3330	H	0.507519	0.375527	0.660869
	H3331	H	0.674540	0.123991	0.559318
	H3332	H	0.566510	0.214653	0.622083
	H3333	H	0.545801	0.215226	0.607408
	H3334	H	0.540535	0.285002	0.673997
	H3335	H	0.562911	0.284218	0.677127
	H3336	H	0.545734	0.533853	0.607683
	H3337	H	0.566419	0.534114	0.622318
	H3338	H	0.562757	-0.035540	0.677079
	H3339	H	0.540419	-0.035313	0.673876
	H3340	H	0.629193	-0.034382	0.690907
	H3341	H	0.649847	-0.034680	0.705685
	H3342	H	0.627362	0.532976	0.609248
	H3343	H	0.645319	0.532723	0.580470
	Al3344	Al	0.588277	-0.499941	0.775419
	Al3345	Al	0.588321	-0.249723	0.775448
	Al3346	Al	0.504962	-0.249991	0.692170
	Al3347	Al	0.504986	-0.500241	0.692118
	O3348	O	0.600287	-0.458381	0.796736
	O3349	O	0.589488	-0.374923	0.760411
	O3350	O	0.587275	-0.124721	0.790452
	O3351	O	0.659676	-0.459048	0.837325
	O3352	O	0.573554	-0.458992	0.793161
	O3353	O	0.509707	-0.459117	0.789970
	O3354	O	0.573558	-0.290588	0.792928
	O3355	O	0.576357	-0.208387	0.753960
	O3356	O	0.516969	-0.208971	0.713576
	O3357	O	0.600349	-0.290440	0.796853
	O3358	O	0.603032	-0.208864	0.757607
	O3359	O	0.666837	-0.209463	0.760537
	O3360	O	0.509694	-0.291041	0.789928
	O3361	O	0.576267	-0.040420	0.754058
	O3362	O	0.516958	-0.040931	0.713570
	O3363	O	0.666874	-0.040982	0.760576
	O3364	O	0.603054	-0.040880	0.757674
	O3365	O	0.659641	-0.291002	0.837239
	O3366	O	0.496163	-0.125015	0.792607
	O3367	O	0.680376	-0.375332	0.755679
	C3368	C	0.635997	-0.285381	0.820423
	C3369	C	0.642137	-0.375164	0.824156
	C3370	C	0.635981	-0.464958	0.820476
	C3371	C	0.624061	-0.464670	0.813339
	C3372	C	0.617929	-0.374834	0.809523
	C3373	C	0.624077	-0.285108	0.813315
	C3374	C	0.605284	-0.374713	0.800385
	C3375	C	0.654737	-0.375181	0.833587
	C3376	C	0.568136	-0.374809	0.793264
	C3377	C	0.554422	-0.374934	0.793432
	C3378	C	0.547946	-0.284857	0.792608
	C3379	C	0.535341	-0.285008	0.790741
	C3380	C	0.528861	-0.374997	0.789771
	C3381	C	0.535339	-0.465099	0.790614
	C3382	C	0.547942	-0.464948	0.792514
	C3383	C	0.515138	-0.375029	0.789724
	C3384	C	0.571362	-0.124627	0.750303
	C3385	C	0.558755	-0.124671	0.741042
	C3386	C	0.552611	-0.034951	0.737161
	C3387	C	0.540685	-0.035191	0.730022
	C3388	C	0.534500	-0.125003	0.726467
	C3389	C	0.540650	-0.214721	0.730223
	C3390	C	0.552588	-0.214452	0.737370
	C3391	C	0.521916	-0.125052	0.717256
	C3392	C	0.608474	-0.124904	0.757322
	C3393	C	0.622205	-0.125046	0.757187
	C3394	C	0.628684	-0.215136	0.757815
	C3395	C	0.641282	-0.215260	0.759680
	C3396	C	0.647752	-0.125220	0.760803
	C3397	C	0.641275	-0.035172	0.759894
	C3398	C	0.628691	-0.034986	0.758025
	C3399	C	0.661447	-0.125117	0.760786
	H3400	H	0.646164	-0.285126	0.760376
	H3401	H	0.623780	-0.285079	0.757029
	H3402	H	0.640592	-0.215002	0.823123
	H3403	H	0.619522	-0.214980	0.810564
	H3404	H	0.591320	-0.375223	0.744381
	H3405	H	0.585785	-0.124551	0.806430
	H3406	H	0.497699	-0.125387	0.776505
	H3407	H	0.678952	-0.375222	0.771651
	H3408	H	0.557198	-0.284374	0.740168
	H3409	H	0.536110	-0.285019	0.727494
	H3410	H	0.530458	-0.214718	0.790029
	H3411	H	0.552812	-0.214998	0.793473
	H3412	H	0.536109	0.034958	0.727111
	H3413	H	0.557218	0.035394	0.739698
	H3414	H	0.552829	-0.535298	0.793310
	H3415	H	0.530471	-0.535175	0.789779
	H3416	H	0.619468	-0.534879	0.810711
	H3417	H	0.640573	-0.535182	0.823344
	H3418	H	0.623802	0.035023	0.757380
	H3419	H	0.646164	0.034797	0.760769
	Al3420	Al	0.588328	0.000167	0.775435
	Al3421	Al	0.588329	0.250213	0.775478
	Al3422	Al	0.505010	0.249989	0.691942
	Al3423	Al	0.504980	0.000353	0.692121
	O3424	O	0.600290	0.041415	0.797037
	O3425	O	0.589417	0.125317	0.760337
	O3426	O	0.587199	0.374974	0.790570
	O3427	O	0.659661	0.040786	0.837401
	O3428	O	0.573628	0.041160	0.793051
	O3429	O	0.509721	0.040990	0.789944
	O3430	O	0.573587	0.209444	0.793196
	O3431	O	0.576287	0.291007	0.754221
	O3432	O	0.517021	0.290816	0.713364
	O3433	O	0.600394	0.209531	0.796678
	O3434	O	0.602980	0.291234	0.757386
	O3435	O	0.666885	0.290694	0.760468
	O3436	O	0.509761	0.209128	0.790171
	O3437	O	0.576390	0.459009	0.753856
	O3438	O	0.516952	0.458737	0.713568
	O3439	O	0.666877	0.458939	0.760580
	O3440	O	0.603047	0.459498	0.757623
	O3441	O	0.659690	0.208834	0.837264
	O3442	O	0.496122	0.374672	0.792754
	O3443	O	0.680418	0.124604	0.755771
	C3444	C	0.636024	0.214885	0.820460
	C3445	C	0.642157	0.124968	0.824217
	C3446	C	0.636031	0.035126	0.820471
	C3447	C	0.624076	0.035175	0.813364
	C3448	C	0.617942	0.125130	0.809641
	C3449	C	0.624068	0.214970	0.813311
	C3450	C	0.605295	0.125438	0.800523
	C3451	C	0.654760	0.124872	0.833559
	C3452	C	0.568179	0.125251	0.793218
	C3453	C	0.554455	0.125252	0.793283
	C3454	C	0.547960	0.215262	0.792549
	C3455	C	0.535340	0.215196	0.790807
	C3456	C	0.528885	0.125105	0.789809
	C3457	C	0.535366	0.035030	0.790491
	C3458	C	0.547997	0.035070	0.792272
	C3459	C	0.515154	0.124988	0.789837
	C3460	C	0.571401	0.374962	0.750284
	C3461	C	0.558803	0.375071	0.740988
	C3462	C	0.552631	0.464717	0.737254
	C3463	C	0.540701	0.464735	0.730123
	C3464	C	0.534550	0.374922	0.726365
	C3465	C	0.540725	0.285289	0.730125
	C3466	C	0.552651	0.285215	0.737258
	C3467	C	0.521932	0.374956	0.717149
	C3468	C	0.608454	0.375208	0.757291
	C3469	C	0.622162	0.375095	0.757023
	C3470	C	0.628632	0.285249	0.757938
	C3471	C	0.641240	0.285094	0.759759
	C3472	C	0.647740	0.374927	0.760676
	C3473	C	0.641279	0.464880	0.759825
	C3474	C	0.628662	0.464960	0.757964
	C3475	C	0.661442	0.374735	0.760761
	H3476	H	0.646093	0.214911	0.760497
	H3477	H	0.623736	0.215289	0.757171
	H3478	H	0.640627	0.285180	0.823175
	H3479	H	0.619490	0.285370	0.810662
	H3480	H	0.590629	0.125061	0.744184
	H3481	H	0.585379	0.375137	0.806627
	H3482	H	0.497652	0.374456	0.776676
	H3483	H	0.679062	0.124561	0.771933
	H3484	H	0.557280	0.215089	0.739970
	H3485	H	0.536136	0.215059	0.727383
	H3486	H	0.530475	0.285240	0.790299
	H3487	H	0.552829	0.285444	0.793476
	H3488	H	0.536109	0.534867	0.727413
	H3489	H	0.557227	0.534793	0.739974
	H3490	H	0.552862	-0.035103	0.792977
	H3491	H	0.530494	-0.035203	0.789731
	H3492	H	0.619458	-0.035093	0.810682
	H3493	H	0.640576	-0.035247	0.823208
	H3494	H	0.623808	0.535034	0.757238
	H3495	H	0.646166	0.534804	0.760638
	Al3496	Al	0.578346	-0.500022	0.891194
	Al3497	Al	0.578396	-0.250238	0.891141
	Al3498	Al	0.495039	-0.250220	0.807708
	Al3499	Al	0.494997	-0.500426	0.807810
	O3500	O	0.590367	-0.458840	0.912612
	O3501	O	0.579480	-0.374875	0.876107
	O3502	O	0.577168	-0.125090	0.906186
	O3503	O	0.649706	-0.459389	0.953050
	O3504	O	0.563671	-0.459495	0.908827
	O3505	O	0.499796	-0.459512	0.906276
	O3506	O	0.563672	-0.291489	0.909013
	O3507	O	0.566308	-0.209483	0.869811
	O3508	O	0.507025	-0.208751	0.829139
	O3509	O	0.590326	-0.291027	0.912642
	O3510	O	0.593058	-0.209224	0.873421
	O3511	O	0.656954	-0.209148	0.876332
	O3512	O	0.499738	-0.291492	0.906008
	O3513	O	0.566338	-0.041227	0.869773
	O3514	O	0.506983	-0.040658	0.829213
	O3515	O	0.656942	-0.040716	0.876599
	O3516	O	0.593040	-0.040908	0.873508
	O3517	O	0.649717	-0.291448	0.953028
	O3518	O	0.486243	-0.124932	0.910966
	O3519	O	0.670530	-0.375025	0.873706
	C3520	C	0.625987	-0.285291	0.936508
	C3521	C	0.632134	-0.375117	0.940236
	C3522	C	0.625963	-0.464754	0.936521
	C3523	C	0.614029	-0.464693	0.929375
	C3524	C	0.607913	-0.374918	0.925570
	C3525	C	0.614062	-0.285167	0.929318
	C3526	C	0.595295	-0.374853	0.916373
	C3527	C	0.644759	-0.375436	0.949398
	C3528	C	0.558216	-0.375456	0.909232
	C3529	C	0.544500	-0.375485	0.909436
	C3530	C	0.537999	-0.285751	0.908679
	C3531	C	0.525390	-0.285699	0.906892
	C3532	C	0.518913	-0.375380	0.905943
	C3533	C	0.525395	-0.465157	0.906866
	C3534	C	0.538017	-0.465200	0.908624
	C3535	C	0.505212	-0.375361	0.905883
	C3536	C	0.561426	-0.125360	0.866029
	C3537	C	0.548792	-0.125063	0.856788
	C3538	C	0.542662	-0.035127	0.853087
	C3539	C	0.530714	-0.034816	0.845912
	C3540	C	0.524573	-0.124537	0.842120
	C3541	C	0.530686	-0.214524	0.845859
	C3542	C	0.542620	-0.214907	0.853059
	C3543	C	0.511917	-0.124704	0.832908
	C3544	C	0.598476	-0.125175	0.873275
	C3545	C	0.612227	-0.125139	0.873031
	C3546	C	0.618717	-0.214971	0.873905
	C3547	C	0.631318	-0.214711	0.875676
	C3548	C	0.637791	-0.124801	0.876693
	C3549	C	0.631287	-0.034953	0.875859
	C3550	C	0.618677	-0.035206	0.874037
	C3551	C	0.651535	-0.124972	0.876583
	H3552	H	0.636199	-0.284861	0.876361
	H3553	H	0.613862	-0.285323	0.873201
	H3554	H	0.630591	-0.215179	0.939173
	H3555	H	0.609471	-0.214939	0.926635
	H3556	H	0.581042	-0.375495	0.860040
	H3557	H	0.575555	-0.125373	0.922243
	H3558	H	0.487516	-0.124619	0.894761
	H3559	H	0.668639	-0.375150	0.889656
	H3560	H	0.547114	-0.285685	0.855833
	H3561	H	0.526049	-0.284711	0.843164
	H3562	H	0.520514	-0.215659	0.906142
	H3563	H	0.542843	-0.215569	0.909383
	H3564	H	0.526166	0.035711	0.843242
	H3565	H	0.547281	0.034952	0.855866
	H3566	H	0.542906	-0.535204	0.909323
	H3567	H	0.520560	-0.535269	0.906158
	H3568	H	0.609425	-0.534717	0.926722
	H3569	H	0.630535	-0.535223	0.939256
	H3570	H	0.613770	0.034775	0.873413
	H3571	H	0.636143	0.035214	0.876669
	Al3572	Al	0.578385	-0.000073	0.891090
	Al3573	Al	0.578372	0.249826	0.891095
	Al3574	Al	0.495016	0.249895	0.807788
	Al3575	Al	0.494993	-0.000153	0.807724
	O3576	O	0.590451	0.041046	0.912320
	O3577	O	0.579425	0.125023	0.875970
	O3578	O	0.577196	0.374824	0.906171
	O3579	O	0.649602	0.040498	0.953438
	O3580	O	0.563613	0.040637	0.908684
	O3581	O	0.499799	0.041011	0.906234
	O3582	O	0.563696	0.208812	0.908885
	O3583	O	0.566341	0.290711	0.869795
	O3584	O	0.507006	0.291011	0.829194
	O3585	O	0.590398	0.209046	0.912347
	O3586	O	0.593097	0.291137	0.873448
	O3587	O	0.657022	0.291311	0.876485
	O3588	O	0.499752	0.209341	0.906047
	O3589	O	0.566442	0.458741	0.869559
	O3590	O	0.507020	0.459071	0.829136
	O3591	O	0.656970	0.459541	0.876341
	O3592	O	0.593093	0.459306	0.873579
	O3593	O	0.649689	0.208414	0.953260
	O3594	O	0.486208	0.374971	0.911076
	O3595	O	0.670575	0.124876	0.873765
	C3596	C	0.625997	0.214734	0.936485
	C3597	C	0.632109	0.124907	0.940342
	C3598	C	0.625925	0.035329	0.936580
	C3599	C	0.614041	0.035614	0.929350
	C3600	C	0.607926	0.125306	0.925438
	C3601	C	0.614106	0.214973	0.929211
	C3602	C	0.595355	0.125178	0.916109
	C3603	C	0.644707	0.124637	0.949628
	C3604	C	0.558228	0.124910	0.909072
	C3605	C	0.544494	0.124963	0.909306
	C3606	C	0.538029	0.214931	0.908642
	C3607	C	0.525401	0.215233	0.906894
	C3608	C	0.518927	0.125375	0.905842
	C3609	C	0.525377	0.035283	0.906769
	C3610	C	0.538000	0.035043	0.908491
	C3611	C	0.505184	0.125397	0.905859
	C3612	C	0.561427	0.374813	0.866070
	C3613	C	0.548841	0.374666	0.856725
	C3614	C	0.542725	0.464476	0.852787
	C3615	C	0.530797	0.464558	0.845668
	C3616	C	0.524542	0.374996	0.842238
	C3617	C	0.530648	0.285141	0.846188
	C3618	C	0.542573	0.285057	0.853367
	C3619	C	0.511964	0.374977	0.832823
	C3620	C	0.598522	0.375282	0.873311
	C3621	C	0.612263	0.375244	0.873165
	C3622	C	0.618749	0.285131	0.873995
	C3623	C	0.631372	0.284924	0.875815
	C3624	C	0.637863	0.374955	0.876728
	C3625	C	0.631379	0.465097	0.875873
	C3626	C	0.618773	0.465188	0.874089
	C3627	C	0.651585	0.375262	0.876619
	H3628	H	0.636219	0.214817	0.876605
	H3629	H	0.613847	0.215143	0.873275
	H3630	H	0.630642	0.284925	0.939266
	H3631	H	0.609550	0.285215	0.926461
	H3632	H	0.580870	0.124931	0.859948
	H3633	H	0.575567	0.374128	0.922192
	H3634	H	0.487331	0.374548	0.894931
	H3635	H	0.668949	0.125391	0.889838
	H3636	H	0.547123	0.215103	0.856389
	H3637	H	0.526036	0.214783	0.843655
	H3638	H	0.520564	0.285418	0.906239
	H3639	H	0.542914	0.284959	0.909408
	H3640	H	0.526223	0.534632	0.842623
	H3641	H	0.547304	0.534556	0.855368
	H3642	H	0.542802	-0.035155	0.909060
	H3643	H	0.520490	-0.034622	0.905911
	H3644	H	0.609409	-0.034556	0.926753
	H3645	H	0.630466	-0.035064	0.939433
	H3646	H	0.613924	0.535373	0.873424
	H3647	H	0.636260	0.535238	0.876723
	Al3648	Al	0.744980	-0.500278	0.057959
	Al3649	Al	0.745032	-0.250418	0.057996
	Al3650	Al	0.661681	-0.250510	-0.025412
	Al3651	Al	0.661742	-0.500237	-0.025538
	O3652	O	0.757096	-0.459153	0.079307
	O3653	O	0.746133	-0.375351	0.042890
	O3654	O	0.743946	-0.125336	0.072989
	O3655	O	0.816419	-0.459566	0.119896
	O3656	O	0.730255	-0.459345	0.075659
	O3657	O	0.666391	-0.459006	0.072842
	O3658	O	0.730330	-0.291039	0.075695
	O3659	O	0.733072	-0.209514	0.036470
	O3660	O	0.673693	-0.209502	-0.004057
	O3661	O	0.757045	-0.291230	0.079454
	O3662	O	0.759758	-0.209776	0.040328
	O3663	O	0.823583	-0.209775	0.043191
	O3664	O	0.666446	-0.290539	0.072955
	O3665	O	0.733034	-0.041451	0.036429
	O3666	O	0.673599	-0.041481	-0.003773
	O3667	O	0.823634	-0.041227	0.043183
	O3668	O	0.759745	-0.041471	0.040278
	O3669	O	0.816426	-0.291561	0.119760
	O3670	O	0.652792	-0.125140	0.077962
	O3671	O	0.837151	-0.375361	0.040615
	C3672	C	0.792715	-0.285565	0.103196
	C3673	C	0.798841	-0.375411	0.106963
	C3674	C	0.792701	-0.465147	0.103237
	C3675	C	0.780766	-0.465331	0.096066
	C3676	C	0.774626	-0.375354	0.092363
	C3677	C	0.780774	-0.285708	0.096060
	C3678	C	0.762019	-0.375270	0.083096
	C3679	C	0.811481	-0.375542	0.116122
	C3680	C	0.724869	-0.375186	0.075930
	C3681	C	0.711149	-0.374942	0.076269
	C3682	C	0.704679	-0.285033	0.075365
	C3683	C	0.692075	-0.285003	0.073590
	C3684	C	0.685576	-0.374855	0.072786
	C3685	C	0.692044	-0.464681	0.073703
	C3686	C	0.704640	-0.464744	0.075446
	C3687	C	0.671843	-0.374844	0.072776
	C3688	C	0.728095	-0.125446	0.032842
	C3689	C	0.715488	-0.125320	0.023500
	C3690	C	0.709301	-0.035629	0.019829
	C3691	C	0.697368	-0.035613	0.012702
	C3692	C	0.691206	-0.125401	0.008976
	C3693	C	0.697391	-0.215071	0.012647
	C3694	C	0.709331	-0.214963	0.019753
	C3695	C	0.678611	-0.125405	-0.000268
	C3696	C	0.765182	-0.125546	0.040059
	C3697	C	0.778918	-0.125202	0.039929
	C3698	C	0.785391	-0.215190	0.040741
	C3699	C	0.798011	-0.215261	0.042521
	C3700	C	0.804472	-0.125221	0.043423
	C3701	C	0.798001	-0.035187	0.042600
	C3702	C	0.785375	-0.035186	0.040854
	C3703	C	0.818192	-0.125537	0.043377
	H3704	H	0.802881	-0.285320	0.043198
	H3705	H	0.780546	-0.285490	0.040055
	H3706	H	0.797286	-0.215436	0.105836
	H3707	H	0.776185	-0.215513	0.093338
	H3708	H	0.747715	-0.375280	0.026841
	H3709	H	0.742631	-0.124820	0.089118
	H3710	H	0.654073	-0.124602	0.061908
	H3711	H	0.835504	-0.375018	0.056712
	H3712	H	0.713947	-0.284973	0.022393
	H3713	H	0.692840	-0.285389	0.009794
	H3714	H	0.687220	-0.215183	0.072788
	H3715	H	0.709565	-0.215029	0.075948
	H3716	H	0.692780	0.034584	0.009833
	H3717	H	0.713890	0.034927	0.022497
	H3718	H	0.709540	-0.534833	0.076084
	H3719	H	0.687174	-0.534632	0.072985
	H3720	H	0.776195	-0.535739	0.093425
	H3721	H	0.797282	-0.535548	0.106006
	H3722	H	0.780497	0.034978	0.040244
	H3723	H	0.802833	0.034794	0.043438
	Al3724	Al	0.745021	-0.000419	0.057827
	Al3725	Al	0.745006	0.249611	0.058002
	Al3726	Al	0.661701	0.249791	-0.025401
	Al3727	Al	0.661650	-0.000261	-0.025308
	O3728	O	0.757057	0.040640	0.079188
	O3729	O	0.746114	0.124565	0.042825
	O3730	O	0.743890	0.374546	0.073016
	O3731	O	0.816283	0.040823	0.120112
	O3732	O	0.730284	0.040087	0.075645
	O3733	O	0.666371	0.040310	0.073071
	O3734	O	0.730262	0.208396	0.075538
	O3735	O	0.733097	0.290535	0.036438
	O3736	O	0.673751	0.290341	-0.004114
	O3737	O	0.757051	0.208789	0.079370
	O3738	O	0.759733	0.290130	0.040160
	O3739	O	0.823627	0.290394	0.043304
	O3740	O	0.666422	0.208536	0.073118
	O3741	O	0.732964	0.458579	0.036696
	O3742	O	0.673684	0.458404	-0.004039
	O3743	O	0.823555	0.458630	0.043220
	O3744	O	0.759704	0.458418	0.040224
	O3745	O	0.816280	0.209052	0.119941
	O3746	O	0.652861	0.374860	0.077798
	O3747	O	0.837228	0.124501	0.040528
	C3748	C	0.792634	0.214209	0.103210
	C3749	C	0.798774	0.124394	0.107051
	C3750	C	0.792631	0.034584	0.103304
	C3751	C	0.780740	0.034516	0.096130
	C3752	C	0.774577	0.124351	0.092420
	C3753	C	0.780741	0.214209	0.096026
	C3754	C	0.761964	0.124647	0.083059
	C3755	C	0.811387	0.125057	0.116333
	C3756	C	0.724867	0.124183	0.075849
	C3757	C	0.711125	0.124133	0.076206
	C3758	C	0.704649	0.213936	0.075381
	C3759	C	0.692020	0.214010	0.073646
	C3760	C	0.685534	0.124111	0.072852
	C3761	C	0.691999	0.034133	0.073788
	C3762	C	0.704628	0.034166	0.075531
	C3763	C	0.671815	0.124373	0.072860
	C3764	C	0.728097	0.374458	0.032839
	C3765	C	0.715441	0.374301	0.023737
	C3766	C	0.709292	0.464131	0.019986
	C3767	C	0.697348	0.464240	0.012845
	C3768	C	0.691250	0.374404	0.008921
	C3769	C	0.697392	0.284520	0.012676
	C3770	C	0.709337	0.284477	0.019847
	C3771	C	0.678614	0.374395	-0.000230
	C3772	C	0.765158	0.374358	0.039911
	C3773	C	0.778882	0.374359	0.039827
	C3774	C	0.785369	0.284282	0.040565
	C3775	C	0.797961	0.283995	0.042352
	C3776	C	0.804452	0.373980	0.043461
	C3777	C	0.797945	0.464079	0.042744
	C3778	C	0.785358	0.464462	0.040928
	C3779	C	0.818181	0.374331	0.043380
	H3780	H	0.802828	0.213933	0.043008
	H3781	H	0.780429	0.214639	0.039759
	H3782	H	0.797226	0.284215	0.105972
	H3783	H	0.776155	0.284237	0.093228
	H3784	H	0.747580	0.125052	0.026851
	H3785	H	0.742529	0.374461	0.089131
	H3786	H	0.654085	0.374821	0.061760
	H3787	H	0.835874	0.124685	0.056761
	H3788	H	0.713971	0.214314	0.022262
	H3789	H	0.692847	0.214173	0.009863
	H3790	H	0.687154	0.283876	0.072990
	H3791	H	0.709500	0.284129	0.076085
	H3792	H	0.692780	0.534551	0.010104
	H3793	H	0.713914	0.534379	0.022554
	H3794	H	0.709498	-0.035806	0.076331
	H3795	H	0.687132	-0.035888	0.073161
	H3796	H	0.776126	-0.035512	0.093311
	H3797	H	0.797182	-0.035672	0.106159
	H3798	H	0.780514	0.534451	0.040418
	H3799	H	0.802845	0.534207	0.043699
	Al3800	Al	0.735517	-0.499941	0.176191
	Al3801	Al	0.735527	-0.250911	0.176068
	Al3802	Al	0.652271	-0.249486	0.092730
	Al3803	Al	0.652275	-0.500412	0.092677
	O3804	O	0.748103	-0.459294	0.196455
	O3805	O	0.736185	-0.375555	0.161221
	O3806	O	0.735382	-0.125559	0.191010
	O3807	O	0.806275	-0.459284	0.239987
	O3808	O	0.722659	-0.459282	0.198514
	O3809	O	0.671637	-0.458958	0.279924
	O3810	O	0.722561	-0.291454	0.198299
	O3811	O	0.723012	-0.209376	0.156710
	O3812	O	0.664754	-0.208919	0.112910
	O3813	O	0.748096	-0.291264	0.196328
	O3814	O	0.749741	-0.209684	0.156429
	O3815	O	0.813605	-0.209542	0.158883
	O3816	O	0.671626	-0.291078	0.279801
	O3817	O	0.723057	-0.041059	0.156412
	O3818	O	0.664906	-0.040475	0.112862
	O3819	O	0.813652	-0.041266	0.159104
	O3820	O	0.749695	-0.041383	0.156361
	O3821	O	0.806357	-0.291188	0.239902
	O3822	O	0.659276	-0.125088	0.290326
	O3823	O	0.827307	-0.375286	0.156370
	C3824	C	0.782961	-0.285360	0.222655
	C3825	C	0.789008	-0.374918	0.226648
	C3826	C	0.783021	-0.464648	0.222516
	C3827	C	0.771336	-0.464683	0.214373
	C3828	C	0.765323	-0.375027	0.210157
	C3829	C	0.771269	-0.285297	0.214499
	C3830	C	0.752937	-0.375201	0.200272
	C3831	C	0.801424	-0.374855	0.236241
	C3832	C	0.718235	-0.375353	0.205004
	C3833	C	0.707220	-0.375285	0.222268
	C3834	C	0.702016	-0.286304	0.230554
	C3835	C	0.691883	-0.286391	0.246792
	C3836	C	0.686659	-0.375180	0.255092
	C3837	C	0.691870	-0.464109	0.246797
	C3838	C	0.702002	-0.464024	0.230565
	C3839	C	0.675891	-0.375030	0.272959
	C3840	C	0.718148	-0.125209	0.152872
	C3841	C	0.705658	-0.125626	0.143390
	C3842	C	0.699679	-0.035814	0.139274
	C3843	C	0.688000	-0.035554	0.131123
	C3844	C	0.681998	-0.125214	0.126809
	C3845	C	0.687941	-0.215125	0.131140
	C3846	C	0.699638	-0.215423	0.139326
	C3847	C	0.669635	-0.124918	0.116816
	C3848	C	0.755146	-0.125414	0.156197
	C3849	C	0.768869	-0.125166	0.156277
	C3850	C	0.775337	-0.214984	0.157084
	C3851	C	0.787971	-0.214964	0.158790
	C3852	C	0.794461	-0.125163	0.159657
	C3853	C	0.787979	-0.035263	0.158913
	C3854	C	0.775361	-0.035277	0.157210
	C3855	C	0.808213	-0.125382	0.159279
	H3856	H	0.792847	-0.284988	0.159392
	H3857	H	0.770483	-0.285232	0.156469
	H3858	H	0.787434	-0.216126	0.226009
	H3859	H	0.766770	-0.215535	0.211410
	H3860	H	0.737561	-0.375715	0.145266
	H3861	H	0.735423	-0.126203	0.207221
	H3862	H	0.658648	-0.124989	0.274359
	H3863	H	0.825957	-0.374662	0.172464
	H3864	H	0.704165	-0.285127	0.142470
	H3865	H	0.683404	-0.284731	0.127957
	H3866	H	0.687985	-0.217297	0.253219
	H3867	H	0.705926	-0.217456	0.224220
	H3868	H	0.683561	0.034443	0.127903
	H3869	H	0.704249	0.033748	0.142369
	H3870	H	0.705942	-0.533001	0.224295
	H3871	H	0.687980	-0.533113	0.253164
	H3872	H	0.766810	-0.534266	0.211140
	H3873	H	0.787552	-0.534409	0.225682
	H3874	H	0.770496	0.034801	0.156581
	H3875	H	0.792852	0.035028	0.159574
	Al3876	Al	0.735560	-0.000076	0.176120
	Al3877	Al	0.735584	0.249395	0.176099
	Al3878	Al	0.652235	0.250501	0.092695
	Al3879	Al	0.652225	-0.000814	0.092834
	O3880	O	0.748083	0.040842	0.196493
	O3881	O	0.736234	0.124611	0.161142
	O3882	O	0.735416	0.374371	0.191073
	O3883	O	0.806355	0.040345	0.239868
	O3884	O	0.722600	0.040412	0.198295
	O3885	O	0.671652	0.041126	0.279912
	O3886	O	0.722695	0.208223	0.198491
	O3887	O	0.722919	0.290309	0.156881
	O3888	O	0.664758	0.291383	0.112882
	O3889	O	0.748219	0.209088	0.196073
	O3890	O	0.749727	0.290647	0.156212
	O3891	O	0.813606	0.290539	0.159031
	O3892	O	0.671713	0.209291	0.279791
	O3893	O	0.722932	0.458470	0.156761
	O3894	O	0.664839	0.459460	0.112713
	O3895	O	0.813636	0.458592	0.159075
	O3896	O	0.749697	0.458795	0.156377
	O3897	O	0.806427	0.208602	0.239850
	O3898	O	0.659212	0.374952	0.290315
	O3899	O	0.827211	0.124781	0.156346
	C3900	C	0.783004	0.214645	0.222888
	C3901	C	0.789054	0.124962	0.226774
	C3902	C	0.783040	0.035118	0.222650
	C3903	C	0.771359	0.035210	0.214459
	C3904	C	0.765355	0.124959	0.210257
	C3905	C	0.771323	0.214769	0.214672
	C3906	C	0.752987	0.124942	0.200190
	C3907	C	0.801494	0.124555	0.236252
	C3908	C	0.718248	0.124353	0.204942
	C3909	C	0.707231	0.124372	0.222251
	C3910	C	0.702032	0.213521	0.230476
	C3911	C	0.691907	0.213546	0.246720
	C3912	C	0.686725	0.124916	0.255091
	C3913	C	0.691926	0.035901	0.246899
	C3914	C	0.702056	0.035665	0.230644
	C3915	C	0.675923	0.124963	0.272984
	C3916	C	0.718031	0.374290	0.153234
	C3917	C	0.705609	0.374349	0.143666
	C3918	C	0.699697	0.464151	0.139347
	C3919	C	0.688029	0.464316	0.131064
	C3920	C	0.681972	0.374922	0.126875
	C3921	C	0.687892	0.285040	0.131213
	C3922	C	0.699564	0.284821	0.139507
	C3923	C	0.669617	0.375288	0.116774
	C3924	C	0.755163	0.374788	0.156098
	C3925	C	0.768889	0.374808	0.156186
	C3926	C	0.775361	0.284791	0.157138
	C3927	C	0.787973	0.284824	0.158905
	C3928	C	0.794475	0.374682	0.159734
	C3929	C	0.788001	0.464581	0.158799
	C3930	C	0.775386	0.464639	0.157024
	C3931	C	0.808213	0.374592	0.159369
	H3932	H	0.792822	0.214851	0.159661
	H3933	H	0.770483	0.214700	0.156451
	H3934	H	0.787467	0.284048	0.226324
	H3935	H	0.766801	0.284439	0.211533
	H3936	H	0.737572	0.124486	0.145130
	H3937	H	0.735391	0.374664	0.207256
	H3938	H	0.658541	0.374963	0.274394
	H3939	H	0.825642	0.124531	0.172390
	H3940	H	0.704045	0.215061	0.142731
	H3941	H	0.683378	0.215410	0.127950
	H3942	H	0.688003	0.282504	0.252951
	H3943	H	0.705947	0.282436	0.224149
	H3944	H	0.683565	0.534040	0.127721
	H3945	H	0.704273	0.533820	0.142468
	H3946	H	0.705941	-0.033502	0.224408
	H3947	H	0.688032	-0.032756	0.253348
	H3948	H	0.766870	-0.034645	0.211132
	H3949	H	0.787560	-0.034526	0.225802
	H3950	H	0.770507	0.534553	0.156246
	H3951	H	0.792890	0.534284	0.159490
	Al3952	Al	0.743336	-0.500265	0.388172
	Al3953	Al	0.743333	-0.250548	0.388035
	Al3954	Al	0.659980	-0.249896	0.304837
	Al3955	Al	0.659991	-0.500216	0.304892
	O3956	O	0.756871	-0.459334	0.405222
	O3957	O	0.742625	-0.375619	0.373640
	O3958	O	0.744038	-0.125633	0.402625
	O3959	O	0.813205	-0.459181	0.454380
	O3960	O	0.731899	-0.459543	0.413507
	O3961	O	0.684742	-0.459661	0.503273
	O3962	O	0.731808	-0.291351	0.413342
	O3963	O	0.729944	-0.209798	0.370846
	O3964	O	0.673468	-0.209469	0.321823
	O3965	O	0.756798	-0.290873	0.405317
	O3966	O	0.755045	-0.209429	0.363171
	O3967	O	0.806020	-0.209386	0.281790
	O3968	O	0.684803	-0.291472	0.503379
	O3969	O	0.729845	-0.041292	0.371026
	O3970	O	0.673505	-0.041123	0.321842
	O3971	O	0.806001	-0.041538	0.281746
	O3972	O	0.754962	-0.041309	0.363044
	O3973	O	0.813199	-0.290933	0.454326
	O3974	O	0.672617	-0.125528	0.514079
	O3975	O	0.818771	-0.375189	0.274388
	C3976	C	0.790695	-0.285874	0.434580
	C3977	C	0.796465	-0.375124	0.439301
	C3978	C	0.790696	-0.464230	0.434438
	C3979	C	0.779415	-0.464144	0.424724
	C3980	C	0.773695	-0.374923	0.419774
	C3981	C	0.779397	-0.285890	0.424856
	C3982	C	0.761604	-0.374895	0.409210
	C3983	C	0.808496	-0.374923	0.450190
	C3984	C	0.727869	-0.375551	0.420879
	C3985	C	0.717794	-0.375727	0.440241
	C3986	C	0.712977	-0.286552	0.449356
	C3987	C	0.703634	-0.286582	0.467316
	C3988	C	0.698850	-0.375730	0.476460
	C3989	C	0.703687	-0.464933	0.467384
	C3990	C	0.713034	-0.464998	0.449444
	C3991	C	0.688756	-0.375771	0.495919
	C3992	C	0.725178	-0.125735	0.366865
	C3993	C	0.713097	-0.125787	0.356159
	C3994	C	0.707322	-0.036371	0.351400
	C3995	C	0.696053	-0.036363	0.341587
	C3996	C	0.690336	-0.125427	0.336467
	C3997	C	0.696090	-0.214833	0.341264
	C3998	C	0.707369	-0.214863	0.351039
	C3999	C	0.678259	-0.125364	0.325785
	C4000	C	0.759239	-0.125225	0.356161
	C4001	C	0.770026	-0.125200	0.338325
	C4002	C	0.775253	-0.214094	0.330067
	C4003	C	0.785357	-0.214263	0.313862
	C4004	C	0.790519	-0.125455	0.305495
	C4005	C	0.785240	-0.036622	0.313608
	C4006	C	0.775139	-0.036346	0.329834
	C4007	C	0.801588	-0.125675	0.288313
	H4008	H	0.789314	-0.283311	0.307546
	H4009	H	0.771372	-0.283088	0.336441
	H4010	H	0.795042	-0.217254	0.438561
	H4011	H	0.774967	-0.217070	0.421113
	H4012	H	0.742112	-0.376519	0.357564
	H4013	H	0.744833	-0.126559	0.418513
	H4014	H	0.671572	-0.124961	0.498272
	H4015	H	0.818590	-0.375124	0.290605
	H4016	H	0.711803	-0.283790	0.354707
	H4017	H	0.691743	-0.283823	0.337262
	H4018	H	0.700034	-0.217415	0.474333
	H4019	H	0.716593	-0.217174	0.442416
	H4020	H	0.691649	0.032647	0.337775
	H4021	H	0.711691	0.032456	0.355303
	H4022	H	0.716661	-0.534384	0.442615
	H4023	H	0.700130	-0.534168	0.474421
	H4024	H	0.775021	-0.533021	0.420861
	H4025	H	0.795061	-0.532755	0.438373
	H4026	H	0.771155	0.032635	0.336000
	H4027	H	0.789104	0.032242	0.307104
	Al4028	Al	0.743288	-0.000227	0.388055
	Al4029	Al	0.743366	0.249883	0.388039
	Al4030	Al	0.660019	0.249848	0.304823
	Al4031	Al	0.659974	-0.000366	0.304931
	O4032	O	0.756792	0.040502	0.405228
	O4033	O	0.742680	0.124998	0.373502
	O4034	O	0.744064	0.374606	0.402622
	O4035	O	0.813243	0.040616	0.454304
	O4036	O	0.731860	0.040401	0.413430
	O4037	O	0.684791	0.040852	0.503312
	O4038	O	0.731857	0.208320	0.413410
	O4039	O	0.729904	0.290591	0.370846
	O4040	O	0.673517	0.290615	0.321701
	O4041	O	0.756879	0.208837	0.405034
	O4042	O	0.755019	0.290838	0.363059
	O4043	O	0.806008	0.290475	0.281646
	O4044	O	0.684773	0.208930	0.503295
	O4045	O	0.729876	0.458950	0.371081
	O4046	O	0.673541	0.458742	0.321790
	O4047	O	0.806016	0.458565	0.281721
	O4048	O	0.755057	0.459150	0.363108
	O4049	O	0.813172	0.208877	0.454386
	O4050	O	0.672512	0.374563	0.514263
	O4051	O	0.818739	0.124490	0.274371
	C4052	C	0.790658	0.213811	0.434702
	C4053	C	0.796384	0.124500	0.439654
	C4054	C	0.790647	0.035193	0.434669
	C4055	C	0.779366	0.035115	0.424907
	C4056	C	0.773621	0.124502	0.419995
	C4057	C	0.779401	0.213686	0.424894
	C4058	C	0.761568	0.124470	0.409196
	C4059	C	0.808451	0.124543	0.450352
	C4060	C	0.727859	0.124598	0.420883
	C4061	C	0.717811	0.124472	0.440250
	C4062	C	0.713001	0.213745	0.449355
	C4063	C	0.703636	0.213826	0.467265
	C4064	C	0.698833	0.124878	0.476431
	C4065	C	0.703656	0.035587	0.467345
	C4066	C	0.713019	0.035476	0.449431
	C4067	C	0.688778	0.124744	0.495846
	C4068	C	0.725146	0.374788	0.366963
	C4069	C	0.713091	0.374876	0.356178
	C4070	C	0.707323	0.463904	0.351316
	C4071	C	0.696068	0.463983	0.341549
	C4072	C	0.690343	0.374812	0.336518
	C4073	C	0.696141	0.285849	0.341267
	C4074	C	0.707418	0.285627	0.351024
	C4075	C	0.678251	0.374736	0.325861
	C4076	C	0.759293	0.374926	0.356259
	C4077	C	0.770086	0.375077	0.338356
	C4078	C	0.775298	0.285796	0.330165
	C4079	C	0.785424	0.285706	0.313908
	C4080	C	0.790574	0.374557	0.305529
	C4081	C	0.785306	0.463687	0.313631
	C4082	C	0.775162	0.464113	0.329858
	C4083	C	0.801649	0.374415	0.288353
	H4084	H	0.789420	0.216290	0.307788
	H4085	H	0.771463	0.216940	0.336666
	H4086	H	0.795060	0.282621	0.438589
	H4087	H	0.775036	0.282552	0.420986
	H4088	H	0.742072	0.124538	0.357478
	H4089	H	0.744922	0.373977	0.418505
	H4090	H	0.671593	0.375302	0.498496
	H4091	H	0.818548	0.124390	0.290555
	H4092	H	0.711823	0.216889	0.354818
	H4093	H	0.691751	0.217171	0.337330
	H4094	H	0.700022	0.282946	0.474151
	H4095	H	0.716557	0.283023	0.442330
	H4096	H	0.691667	0.532940	0.337892
	H4097	H	0.711662	0.532982	0.355378
	H4098	H	0.716608	-0.033624	0.442450
	H4099	H	0.700043	-0.033679	0.474317
	H4100	H	0.774962	-0.033950	0.420982
	H4101	H	0.795025	-0.033886	0.438528
	H4102	H	0.771244	0.533399	0.336106
	H4103	H	0.789213	0.532821	0.307325
	Al4104	Al	0.756706	-0.500205	0.612038
	Al4105	Al	0.756714	-0.249990	0.611998
	Al4106	Al	0.673352	-0.250257	0.528656
	Al4107	Al	0.673277	-0.500375	0.528761
	O4108	O	0.770152	-0.459588	0.629193
	O4109	O	0.755925	-0.375071	0.597511
	O4110	O	0.757374	-0.125126	0.626514
	O4111	O	0.826496	-0.459641	0.678456
	O4112	O	0.745041	-0.458933	0.637060
	O4113	O	0.693920	-0.459008	0.718390
	O4114	O	0.745042	-0.290977	0.637082
	O4115	O	0.743225	-0.209444	0.594885
	O4116	O	0.686769	-0.209328	0.546007
	O4117	O	0.770179	-0.290927	0.629174
	O4118	O	0.768160	-0.209145	0.586577
	O4119	O	0.815223	-0.209029	0.496802
	O4120	O	0.693943	-0.291188	0.718331
	O4121	O	0.743167	-0.041185	0.595069
	O4122	O	0.686811	-0.041039	0.545886
	O4123	O	0.815193	-0.040897	0.496728
	O4124	O	0.768119	-0.041029	0.586555
	O4125	O	0.826521	-0.291195	0.678443
	O4126	O	0.681163	-0.125041	0.725824
	O4127	O	0.827369	-0.374835	0.486064
	C4128	C	0.803985	-0.285646	0.658703
	C4129	C	0.809707	-0.375134	0.663692
	C4130	C	0.803958	-0.464677	0.658797
	C4131	C	0.792696	-0.464864	0.648998
	C4132	C	0.786945	-0.375486	0.644064
	C4133	C	0.792710	-0.286025	0.648921
	C4134	C	0.774912	-0.375313	0.633249
	C4135	C	0.821765	-0.375220	0.674463
	C4136	C	0.740805	-0.375163	0.643959
	C4137	C	0.729993	-0.375173	0.661773
	C4138	C	0.724715	-0.286387	0.669895
	C4139	C	0.714556	-0.286646	0.686059
	C4140	C	0.709407	-0.375336	0.694531
	C4141	C	0.714719	-0.464100	0.686469
	C4142	C	0.724893	-0.463965	0.670289
	C4143	C	0.698362	-0.375196	0.711750
	C4144	C	0.738431	-0.125514	0.591039
	C4145	C	0.726329	-0.125514	0.580457
	C4146	C	0.720593	-0.036383	0.575486
	C4147	C	0.709328	-0.036217	0.565667
	C4148	C	0.703574	-0.125321	0.560879
	C4149	C	0.709321	-0.214453	0.565842
	C4150	C	0.720600	-0.214570	0.575567
	C4151	C	0.691523	-0.125327	0.550036
	C4152	C	0.772170	-0.125030	0.579234
	C4153	C	0.782203	-0.125123	0.559768
	C4154	C	0.786985	-0.214266	0.550618
	C4155	C	0.796348	-0.213905	0.532716
	C4156	C	0.801170	-0.124775	0.523624
	C4157	C	0.796366	-0.035690	0.532734
	C4158	C	0.787021	-0.035881	0.550662
	C4159	C	0.811220	-0.125004	0.504217
	H4160	H	0.799932	-0.283071	0.525766
	H4161	H	0.783421	-0.283526	0.557686
	H4162	H	0.808374	-0.216561	0.662575
	H4163	H	0.788325	-0.217033	0.644952
	H4164	H	0.754869	-0.374857	0.581724
	H4165	H	0.757635	-0.125098	0.642588
	H4166	H	0.681104	-0.124680	0.709598
	H4167	H	0.828172	-0.374806	0.501916
	H4168	H	0.724981	-0.283582	0.579367
	H4169	H	0.704938	-0.283123	0.561993
	H4170	H	0.710584	-0.217571	0.692269
	H4171	H	0.728512	-0.217099	0.663382
	H4172	H	0.704997	0.032449	0.561688
	H4173	H	0.725018	0.032267	0.579227
	H4174	H	0.728863	-0.532931	0.664121
	H4175	H	0.710934	-0.533161	0.693005
	H4176	H	0.788317	-0.534165	0.645100
	H4177	H	0.808336	-0.533599	0.662721
	H4178	H	0.783465	0.033402	0.557754
	H4179	H	0.799978	0.033505	0.525764
	Al4180	Al	0.756730	0.000030	0.612019
	Al4181	Al	0.756649	0.249867	0.612024
	Al4182	Al	0.673292	0.249578	0.528788
	Al4183	Al	0.673407	-0.000422	0.528659
	O4184	O	0.770140	0.040989	0.629156
	O4185	O	0.755891	0.124655	0.597465
	O4186	O	0.757315	0.374694	0.626571
	O4187	O	0.826497	0.040713	0.678263
	O4188	O	0.745021	0.040560	0.637079
	O4189	O	0.693962	0.040576	0.718533
	O4190	O	0.744916	0.208587	0.636971
	O4191	O	0.743188	0.290816	0.594924
	O4192	O	0.686703	0.291060	0.545980
	O4193	O	0.770068	0.209104	0.629331
	O4194	O	0.768113	0.290741	0.586698
	O4195	O	0.815230	0.290986	0.496825
	O4196	O	0.693957	0.208393	0.718462
	O4197	O	0.743198	0.458963	0.594859
	O4198	O	0.686767	0.459313	0.545949
	O4199	O	0.815200	0.459025	0.496817
	O4200	O	0.768113	0.458844	0.586646
	O4201	O	0.826518	0.208982	0.678224
	O4202	O	0.681281	0.374704	0.725872
	O4203	O	0.827414	0.124916	0.486050
	C4204	C	0.803920	0.214340	0.658698
	C4205	C	0.809663	0.125044	0.663634
	C4206	C	0.803907	0.035703	0.658797
	C4207	C	0.792633	0.035678	0.649007
	C4208	C	0.786910	0.124998	0.644070
	C4209	C	0.792645	0.214240	0.648957
	C4210	C	0.774858	0.124996	0.633249
	C4211	C	0.821776	0.124807	0.674255
	C4212	C	0.740703	0.124655	0.643950
	C4213	C	0.729958	0.124387	0.661843
	C4214	C	0.724701	0.213400	0.670097
	C4215	C	0.714572	0.213315	0.686346
	C4216	C	0.709397	0.124356	0.694657
	C4217	C	0.714656	0.035482	0.686419
	C4218	C	0.724800	0.035450	0.670215
	C4219	C	0.698350	0.124288	0.711876
	C4220	C	0.738431	0.374819	0.590906
	C4221	C	0.726339	0.374994	0.580211
	C4222	C	0.720602	0.464204	0.575218
	C4223	C	0.709318	0.464214	0.565518
	C4224	C	0.703543	0.374990	0.560669
	C4225	C	0.709243	0.285813	0.565736
	C4226	C	0.720537	0.285873	0.575471
	C4227	C	0.691483	0.375048	0.549990
	C4228	C	0.772114	0.374727	0.579218
	C4229	C	0.782204	0.374910	0.559871
	C4230	C	0.787011	0.285906	0.550701
	C4231	C	0.796359	0.285806	0.532780
	C4232	C	0.801178	0.374922	0.523715
	C4233	C	0.796352	0.463859	0.532829
	C4234	C	0.787011	0.464015	0.550763
	C4235	C	0.811209	0.375033	0.504273
	H4236	H	0.799908	0.216585	0.525747
	H4237	H	0.783349	0.216973	0.557589
	H4238	H	0.808318	0.283391	0.662501
	H4239	H	0.788275	0.283116	0.645046
	H4240	H	0.755041	0.124738	0.581414
	H4241	H	0.757847	0.374430	0.642524
	H4242	H	0.681214	0.374776	0.709744
	H4243	H	0.827991	0.124511	0.502039
	H4244	H	0.724893	0.216852	0.579524
	H4245	H	0.704824	0.216922	0.561992
	H4246	H	0.710615	0.282456	0.692488
	H4247	H	0.728560	0.282400	0.663631
	H4248	H	0.704929	0.532900	0.561673
	H4249	H	0.724966	0.533384	0.579047
	H4250	H	0.728670	-0.033878	0.663874
	H4251	H	0.710753	-0.033626	0.692793
	H4252	H	0.788257	-0.033459	0.645080
	H4253	H	0.808320	-0.033131	0.662634
	H4254	H	0.783373	0.533102	0.557660
	H4255	H	0.799919	0.532832	0.525784
	Al4256	Al	0.764400	-0.500530	0.824183
	Al4257	Al	0.764403	-0.249342	0.824120
	Al4258	Al	0.681042	-0.250509	0.740802
	Al4259	Al	0.681051	-0.499757	0.740792
	O4260	O	0.776913	-0.458911	0.843748
	O4261	O	0.764553	-0.375100	0.809141
	O4262	O	0.763785	-0.124923	0.839034
	O4263	O	0.835125	-0.459037	0.887336
	O4264	O	0.750233	-0.459419	0.843954
	O4265	O	0.686381	-0.459095	0.841042
	O4266	O	0.750224	-0.290966	0.843864
	O4267	O	0.751875	-0.208900	0.803861
	O4268	O	0.693570	-0.209461	0.760360
	O4269	O	0.776996	-0.290814	0.843610
	O4270	O	0.777340	-0.208956	0.801638
	O4271	O	0.828392	-0.208971	0.720478
	O4272	O	0.686411	-0.290797	0.841084
	O4273	O	0.751871	-0.040697	0.803816
	O4274	O	0.693510	-0.041249	0.760476
	O4275	O	0.828382	-0.041052	0.720396
	O4276	O	0.777323	-0.041113	0.801650
	O4277	O	0.835236	-0.291013	0.887151
	O4278	O	0.672764	-0.124887	0.843668
	O4279	O	0.840719	-0.374891	0.709902
	C4280	C	0.812037	-0.285226	0.868899
	C4281	C	0.818010	-0.374925	0.873256
	C4282	C	0.812022	-0.464684	0.869028
	C4283	C	0.800325	-0.464714	0.860915
	C4284	C	0.794304	-0.375009	0.856792
	C4285	C	0.800339	-0.285155	0.860728
	C4286	C	0.781838	-0.374888	0.847322
	C4287	C	0.830364	-0.374898	0.883322
	C4288	C	0.744804	-0.375268	0.844010
	C4289	C	0.731076	-0.375111	0.843993
	C4290	C	0.724611	-0.285072	0.842963
	C4291	C	0.712024	-0.284996	0.841156
	C4292	C	0.705542	-0.374994	0.840406
	C4293	C	0.712017	-0.465117	0.841150
	C4294	C	0.724597	-0.464986	0.842957
	C4295	C	0.691816	-0.375041	0.840730
	C4296	C	0.747049	-0.124860	0.799889
	C4297	C	0.734692	-0.125088	0.789779
	C4298	C	0.728707	-0.035444	0.785445
	C4299	C	0.717001	-0.035299	0.777360
	C4300	C	0.710949	-0.125158	0.773310
	C4301	C	0.716987	-0.214765	0.777427
	C4302	C	0.728695	-0.214871	0.785507
	C4303	C	0.698447	-0.125295	0.764045
	C4304	C	0.781694	-0.125115	0.794991
	C4305	C	0.792747	-0.125000	0.777792
	C4306	C	0.797945	-0.214117	0.769500
	C4307	C	0.808101	-0.213782	0.753358
	C4308	C	0.813334	-0.124708	0.745101
	C4309	C	0.808143	-0.035829	0.753419
	C4310	C	0.797995	-0.035980	0.769579
	C4311	C	0.824104	-0.124823	0.727236
	H4312	H	0.811956	-0.282615	0.746863
	H4313	H	0.793985	-0.282886	0.775674
	H4314	H	0.816581	-0.215611	0.872037
	H4315	H	0.795854	-0.215561	0.857518
	H4316	H	0.764551	-0.374794	0.793024
	H4317	H	0.762435	-0.124567	0.855129
	H4318	H	0.674367	-0.125176	0.827630
	H4319	H	0.841319	-0.375316	0.725896
	H4320	H	0.733192	-0.284769	0.788805
	H4321	H	0.712389	-0.284316	0.774384
	H4322	H	0.707134	-0.214967	0.840594
	H4323	H	0.729483	-0.215103	0.843832
	H4324	H	0.712476	0.034336	0.774290
	H4325	H	0.733268	0.033940	0.788597
	H4326	H	0.729480	-0.534793	0.843755
	H4327	H	0.707107	-0.534844	0.840516
	H4328	H	0.795803	-0.534269	0.857810
	H4329	H	0.816513	-0.534766	0.872249
	H4330	H	0.794010	0.032798	0.775785
	H4331	H	0.811989	0.033386	0.747020
	Al4332	Al	0.764431	-0.000611	0.824002
	Al4333	Al	0.764394	0.250508	0.824330
	Al4334	Al	0.681073	0.249342	0.740884
	Al4335	Al	0.681016	0.000216	0.740871
	O4336	O	0.776994	0.040699	0.843562
	O4337	O	0.764666	0.125028	0.809115
	O4338	O	0.763777	0.375151	0.839123
	O4339	O	0.835257	0.040903	0.887086
	O4340	O	0.750246	0.040229	0.843676
	O4341	O	0.686373	0.040618	0.841085
	O4342	O	0.750258	0.208528	0.843883
	O4343	O	0.751840	0.290625	0.804175
	O4344	O	0.693641	0.290801	0.760345
	O4345	O	0.776901	0.209021	0.843962
	O4346	O	0.777309	0.291479	0.801769
	O4347	O	0.828272	0.290748	0.720317
	O4348	O	0.686393	0.208633	0.840848
	O4349	O	0.751859	0.458869	0.803886
	O4350	O	0.693636	0.458963	0.760291
	O4351	O	0.828377	0.458918	0.720344
	O4352	O	0.777308	0.459244	0.801802
	O4353	O	0.835211	0.209161	0.887184
	O4354	O	0.672754	0.374890	0.843591
	O4355	O	0.840731	0.125226	0.709896
	C4356	C	0.812001	0.214138	0.869062
	C4357	C	0.818009	0.124583	0.873233
	C4358	C	0.812033	0.034908	0.869001
	C4359	C	0.800317	0.035095	0.860899
	C4360	C	0.794293	0.124721	0.856922
	C4361	C	0.800299	0.214388	0.860974
	C4362	C	0.781832	0.124952	0.847418
	C4363	C	0.830420	0.124899	0.883228
	C4364	C	0.744839	0.124362	0.843924
	C4365	C	0.731120	0.124443	0.843912
	C4366	C	0.724667	0.214335	0.842892
	C4367	C	0.712057	0.214381	0.841141
	C4368	C	0.705563	0.124493	0.840429
	C4369	C	0.712008	0.034763	0.841346
	C4370	C	0.724628	0.034552	0.843075
	C4371	C	0.691810	0.124568	0.840719
	C4372	C	0.747060	0.374641	0.799989
	C4373	C	0.734718	0.374501	0.789876
	C4374	C	0.728752	0.464388	0.785580
	C4375	C	0.717050	0.464613	0.777433
	C4376	C	0.711017	0.374841	0.773384
	C4377	C	0.717010	0.284897	0.777476
	C4378	C	0.728719	0.284730	0.785645
	C4379	C	0.698563	0.374845	0.763866
	C4380	C	0.781710	0.375479	0.795145
	C4381	C	0.792718	0.375509	0.777812
	C4382	C	0.797914	0.286467	0.769546
	C4383	C	0.808063	0.286313	0.753327
	C4384	C	0.813267	0.375148	0.745006
	C4385	C	0.808130	0.464274	0.753409
	C4386	C	0.798007	0.464387	0.769647
	C4387	C	0.824082	0.375027	0.727200
	H4388	H	0.811987	0.217150	0.747097
	H4389	H	0.794029	0.217490	0.775868
	H4390	H	0.816478	0.284187	0.872313
	H4391	H	0.795786	0.283965	0.857834
	H4392	H	0.764792	0.125644	0.792884
	H4393	H	0.762320	0.375501	0.855223
	H4394	H	0.674106	0.375232	0.827421
	H4395	H	0.841329	0.124657	0.725926
	H4396	H	0.733239	0.215026	0.788790
	H4397	H	0.712506	0.215086	0.774271
	H4398	H	0.707213	0.284652	0.840344
	H4399	H	0.729557	0.284458	0.843473
	H4400	H	0.712529	0.534169	0.774118
	H4401	H	0.733284	0.534170	0.788652
	H4402	H	0.729439	-0.035595	0.843811
	H4403	H	0.707113	-0.035217	0.840758
	H4404	H	0.795833	-0.034445	0.857592
	H4405	H	0.816559	-0.034717	0.872125
	H4406	H	0.794115	0.533618	0.776023
	H4407	H	0.812086	0.533432	0.747169
	Al4408	Al	0.754968	-0.500050	0.942258
	Al4409	Al	0.755029	-0.250198	0.942147
	Al4410	Al	0.671677	-0.249955	0.858688
	Al4411	Al	0.671701	-0.500163	0.858693
	O4412	O	0.767050	-0.459437	0.963560
	O4413	O	0.756128	-0.375219	0.927142
	O4414	O	0.753887	-0.125097	0.957278
	O4415	O	0.826332	-0.459389	1.004085
	O4416	O	0.740279	-0.458751	0.960073
	O4417	O	0.676445	-0.459379	0.956840
	O4418	O	0.740252	-0.290434	0.959721
	O4419	O	0.743071	-0.208856	0.920650
	O4420	O	0.683670	-0.208786	0.880181
	O4421	O	0.767012	-0.291327	0.963624
	O4422	O	0.769746	-0.209700	0.924372
	O4423	O	0.833628	-0.208928	0.927211
	O4424	O	0.676377	-0.291317	0.956825
	O4425	O	0.742996	-0.040710	0.920785
	O4426	O	0.683668	-0.040997	0.880218
	O4427	O	0.833593	-0.040580	0.927205
	O4428	O	0.769687	-0.041542	0.924374
	O4429	O	0.826422	-0.291586	1.003942
	O4430	O	0.662839	-0.125011	0.959599
	O4431	O	0.847075	-0.374667	0.922343
	C4432	C	0.802701	-0.285458	0.987162
	C4433	C	0.808841	-0.375277	0.991019
	C4434	C	0.802659	-0.465059	0.987397
	C4435	C	0.790732	-0.465254	0.980314
	C4436	C	0.784577	-0.375448	0.976563
	C4437	C	0.790771	-0.285710	0.980094
	C4438	C	0.771988	-0.375447	0.967289
	C4439	C	0.821437	-0.375270	1.000348
	C4440	C	0.734839	-0.374728	0.960070
	C4441	C	0.721117	-0.375035	0.960190
	C4442	C	0.714643	-0.285119	0.959111
	C4443	C	0.702052	-0.285217	0.957257
	C4444	C	0.695565	-0.375186	0.956516
	C4445	C	0.702026	-0.465107	0.957586
	C4446	C	0.714635	-0.464961	0.959440
	C4447	C	0.681842	-0.375321	0.956618
	C4448	C	0.738109	-0.124761	0.917000
	C4449	C	0.725524	-0.125013	0.907714
	C4450	C	0.719348	-0.035239	0.904055
	C4451	C	0.707410	-0.035147	0.896926
	C4452	C	0.701236	-0.124916	0.893141
	C4453	C	0.707434	-0.214718	0.896745
	C4454	C	0.719380	-0.214841	0.903858
	C4455	C	0.688627	-0.124898	0.883903
	C4456	C	0.775154	-0.125445	0.924181
	C4457	C	0.788896	-0.125200	0.923949
	C4458	C	0.795395	-0.215082	0.924743
	C4459	C	0.808010	-0.214994	0.926449
	C4460	C	0.814469	-0.125122	0.927375
	C4461	C	0.807982	-0.035277	0.926494
	C4462	C	0.795360	-0.035317	0.924791
	C4463	C	0.828193	-0.124843	0.927394
	H4464	H	0.812915	-0.284863	0.927106
	H4465	H	0.790539	-0.284987	0.924000
	H4466	H	0.807329	-0.215419	0.989755
	H4467	H	0.786189	-0.215375	0.977230
	H4468	H	0.757684	-0.375584	0.911097
	H4469	H	0.752477	-0.125421	0.973405
	H4470	H	0.664384	-0.124950	0.943509
	H4471	H	0.845724	-0.374791	0.938488
	H4472	H	0.723972	-0.285029	0.906502
	H4473	H	0.702866	-0.284685	0.893981
	H4474	H	0.697191	-0.215173	0.956402
	H4475	H	0.719542	-0.215106	0.959667
	H4476	H	0.702794	0.035187	0.894257
	H4477	H	0.723955	0.034898	0.906831
	H4478	H	0.719494	-0.535210	0.960271
	H4479	H	0.697128	-0.535115	0.956998
	H4480	H	0.786116	-0.535333	0.977622
	H4481	H	0.807225	-0.535214	0.990172
	H4482	H	0.790478	0.034558	0.924087
	H4483	H	0.812802	0.034813	0.927231
	Al4484	Al	0.754959	-0.000182	0.942187
	Al4485	Al	0.755019	0.249722	0.942118
	Al4486	Al	0.671713	0.249803	0.858666
	Al4487	Al	0.671657	-0.000236	0.858897
	O4488	O	0.766986	0.040928	0.963481
	O4489	O	0.756110	0.125097	0.927083
	O4490	O	0.753863	0.374692	0.957165
	O4491	O	0.826287	0.040406	1.004180
	O4492	O	0.740263	0.040920	0.959873
	O4493	O	0.676394	0.040687	0.957009
	O4494	O	0.740272	0.209188	0.959765
	O4495	O	0.743033	0.290926	0.920758
	O4496	O	0.683692	0.290627	0.880034
	O4497	O	0.766959	0.209029	0.963708
	O4498	O	0.769708	0.290530	0.924306
	O4499	O	0.833561	0.290774	0.926986
	O4500	O	0.676425	0.208918	0.956930
	O4501	O	0.742984	0.459010	0.920836
	O4502	O	0.683711	0.458745	0.880009
	O4503	O	0.833544	0.458978	0.927258
	O4504	O	0.769697	0.458989	0.924352
	O4505	O	0.826395	0.208566	1.003863
	O4506	O	0.662870	0.374932	0.959360
	O4507	O	0.847119	0.125310	0.922304
	C4508	C	0.802651	0.214625	0.987300
	C4509	C	0.808816	0.124752	0.991008
	C4510	C	0.802634	0.035058	0.987382
	C4511	C	0.790687	0.034879	0.980223
	C4512	C	0.784551	0.124653	0.976473
	C4513	C	0.790696	0.214412	0.980194
	C4514	C	0.771910	0.124886	0.967309
	C4515	C	0.821386	0.124602	1.000366
	C4516	C	0.734851	0.125112	0.960031
	C4517	C	0.721128	0.124848	0.960108
	C4518	C	0.714649	0.214852	0.959192
	C4519	C	0.702033	0.214854	0.957381
	C4520	C	0.695560	0.124807	0.956523
	C4521	C	0.702047	0.034848	0.957412
	C4522	C	0.714654	0.034890	0.959190
	C4523	C	0.681827	0.124790	0.956769
	C4524	C	0.738094	0.374739	0.916969
	C4525	C	0.725456	0.374751	0.907730
	C4526	C	0.719312	0.464530	0.903973
	C4527	C	0.707375	0.464363	0.896768
	C4528	C	0.701239	0.374633	0.892975
	C4529	C	0.707428	0.284940	0.896560
	C4530	C	0.719372	0.284941	0.903771
	C4531	C	0.688651	0.374649	0.883683
	C4532	C	0.775112	0.374798	0.924074
	C4533	C	0.788838	0.374500	0.923806
	C4534	C	0.795310	0.284453	0.924539
	C4535	C	0.807922	0.284417	0.926308
	C4536	C	0.814394	0.374486	0.927279
	C4537	C	0.807916	0.464473	0.926429
	C4538	C	0.795301	0.464423	0.924669
	C4539	C	0.828126	0.374802	0.927350
	H4540	H	0.812792	0.214389	0.926939
	H4541	H	0.790462	0.214514	0.923836
	H4542	H	0.807237	0.285046	0.989784
	H4543	H	0.786120	0.284566	0.977275
	H4544	H	0.757383	0.124936	0.910985
	H4545	H	0.752232	0.374122	0.973174
	H4546	H	0.664461	0.374439	0.943315
	H4547	H	0.845801	0.125490	0.938408
	H4548	H	0.723963	0.214726	0.906482
	H4549	H	0.702887	0.214468	0.893919
	H4550	H	0.697159	0.284772	0.956586
	H4551	H	0.719504	0.284883	0.959853
	H4552	H	0.702751	0.534557	0.894268
	H4553	H	0.723846	0.534933	0.906876
	H4554	H	0.719539	-0.035189	0.959859
	H4555	H	0.697188	-0.035328	0.956597
	H4556	H	0.786120	-0.035535	0.977361
	H4557	H	0.807232	-0.035052	0.989920
	H4558	H	0.790451	0.534685	0.924055
	H4559	H	0.812782	0.534538	0.927176
	Al4560	Al	0.921672	-0.500014	0.108714
	Al4561	Al	0.921674	-0.249907	0.108745
	Al4562	Al	0.838334	-0.250268	0.025521
	Al4563	Al	0.838271	-0.500375	0.025545
	O4564	O	0.933708	-0.459387	0.130085
	O4565	O	0.922763	-0.374960	0.093719
	O4566	O	0.920497	-0.125352	0.123924
	O4567	O	0.992970	-0.459109	0.170767
	O4568	O	0.906967	-0.459270	0.126576
	O4569	O	0.843063	-0.458807	0.123619
	O4570	O	0.906955	-0.290741	0.126431
	O4571	O	0.909720	-0.208871	0.087153
	O4572	O	0.850247	-0.208730	0.047097
	O4573	O	0.933655	-0.291426	0.130205
	O4574	O	0.936391	-0.209054	0.091178
	O4575	O	1.000183	-0.208729	0.093673
	O4576	O	0.843123	-0.290628	0.123684
	O4577	O	0.909635	-0.040873	0.087493
	O4578	O	0.850320	-0.040805	0.046901
	O4579	O	1.000248	-0.040468	0.093746
	O4580	O	0.936316	-0.040941	0.091118
	O4581	O	0.992937	-0.291031	0.170863
	O4582	O	0.829459	-0.125096	0.126209
	O4583	O	1.013689	-0.374594	0.088965
	C4584	C	0.969318	-0.285448	0.153944
	C4585	C	0.975467	-0.375192	0.157745
	C4586	C	0.969298	-0.465007	0.154076
	C4587	C	0.957379	-0.465085	0.146926
	C4588	C	0.951250	-0.375419	0.143015
	C4589	C	0.957403	-0.285600	0.146749
	C4590	C	0.938623	-0.375437	0.133842
	C4591	C	0.988047	-0.375021	0.167084
	C4592	C	0.901548	-0.375133	0.126692
	C4593	C	0.887835	-0.375243	0.126815
	C4594	C	0.881363	-0.285242	0.125772
	C4595	C	0.868756	-0.285140	0.123972
	C4596	C	0.862261	-0.375203	0.123239
	C4597	C	0.868729	-0.465363	0.124198
	C4598	C	0.881337	-0.465337	0.126026
	C4599	C	0.848540	-0.374821	0.123337
	C4600	C	0.904757	-0.124918	0.083548
	C4601	C	0.892158	-0.124968	0.074273
	C4602	C	0.885972	-0.035190	0.070690
	C4603	C	0.874008	-0.035255	0.063599
	C4604	C	0.867888	-0.124982	0.059767
	C4605	C	0.874053	-0.214702	0.063348
	C4606	C	0.886030	-0.214780	0.070394
	C4607	C	0.855222	-0.124879	0.050702
	C4608	C	0.941772	-0.124754	0.090839
	C4609	C	0.955500	-0.124689	0.090578
	C4610	C	0.961990	-0.214552	0.091430
	C4611	C	0.974608	-0.214330	0.093137
	C4612	C	0.981060	-0.124334	0.093992
	C4613	C	0.974567	-0.034548	0.093007
	C4614	C	0.961949	-0.034783	0.091264
	C4615	C	0.994775	-0.124500	0.093931
	H4616	H	0.979501	-0.284226	0.093921
	H4617	H	0.957126	-0.284905	0.090806
	H4618	H	0.973976	-0.215503	0.156505
	H4619	H	0.952874	-0.215521	0.143857
	H4620	H	0.924086	-0.374960	0.077674
	H4621	H	0.918816	-0.125347	0.139978
	H4622	H	0.831188	-0.124960	0.110229
	H4623	H	1.012481	-0.375018	0.105053
	H4624	H	0.890618	-0.285373	0.072891
	H4625	H	0.869498	-0.284730	0.060523
	H4626	H	0.863891	-0.215068	0.123270
	H4627	H	0.886227	-0.215186	0.126526
	H4628	H	0.869414	0.035033	0.061012
	H4629	H	0.890534	0.034984	0.073451
	H4630	H	0.886209	-0.535560	0.126951
	H4631	H	0.863822	-0.535253	0.123693
	H4632	H	0.952759	-0.535233	0.144116
	H4633	H	0.973878	-0.535060	0.156752
	H4634	H	0.957057	0.035156	0.090499
	H4635	H	0.979398	0.035779	0.093650
	Al4636	Al	0.921646	-0.000161	0.108902
	Al4637	Al	0.921643	0.249855	0.108938
	Al4638	Al	0.838307	0.249694	0.025515
	Al4639	Al	0.838319	-0.000206	0.025496
	O4640	O	0.933598	0.040624	0.130380
	O4641	O	0.922747	0.124980	0.093873
	O4642	O	0.920480	0.375054	0.123828
	O4643	O	0.993011	0.041168	0.170609
	O4644	O	0.906943	0.040954	0.126608
	O4645	O	0.843029	0.040762	0.123423
	O4646	O	0.906889	0.209233	0.126550
	O4647	O	0.909730	0.290668	0.087148
	O4648	O	0.850313	0.290405	0.047060
	O4649	O	0.933538	0.208714	0.130501
	O4650	O	0.936342	0.290055	0.091149
	O4651	O	1.000240	0.290673	0.093646
	O4652	O	0.843059	0.208819	0.123672
	O4653	O	0.909646	0.458769	0.087387
	O4654	O	0.850355	0.458478	0.046885
	O4655	O	1.000201	0.459254	0.093652
	O4656	O	0.936351	0.458600	0.090788
	O4657	O	0.992936	0.209324	0.170657
	O4658	O	0.829506	0.374791	0.126270
	O4659	O	1.013726	0.125209	0.088837
	C4660	C	0.969256	0.214521	0.153699
	C4661	C	0.975416	0.124711	0.157626
	C4662	C	0.969228	0.034933	0.153953
	C4663	C	0.957313	0.034996	0.146893
	C4664	C	0.951155	0.124777	0.143092
	C4665	C	0.957333	0.214644	0.146644
	C4666	C	0.938517	0.124741	0.134103
	C4667	C	0.988027	0.125103	0.166895
	C4668	C	0.901508	0.124956	0.126740
	C4669	C	0.887781	0.124771	0.126903
	C4670	C	0.881311	0.214631	0.125805
	C4671	C	0.868697	0.214459	0.123993
	C4672	C	0.862209	0.124537	0.123321
	C4673	C	0.868692	0.034693	0.124300
	C4674	C	0.881311	0.034906	0.126089
	C4675	C	0.848480	0.124810	0.123411
	C4676	C	0.904736	0.374564	0.083610
	C4677	C	0.892137	0.374355	0.074372
	C4678	C	0.885921	0.464175	0.070929
	C4679	C	0.873978	0.464263	0.063783
	C4680	C	0.867834	0.374376	0.059972
	C4681	C	0.874045	0.284502	0.063436
	C4682	C	0.885992	0.284636	0.070509
	C4683	C	0.855267	0.374386	0.050630
	C4684	C	0.941776	0.374297	0.090650
	C4685	C	0.955495	0.374209	0.090511
	C4686	C	0.961981	0.284395	0.091380
	C4687	C	0.974586	0.284640	0.093190
	C4688	C	0.981064	0.374696	0.094080
	C4689	C	0.974580	0.464506	0.093023
	C4690	C	0.961981	0.464336	0.091157
	C4691	C	0.994794	0.374886	0.093904
	H4692	H	0.979461	0.214725	0.093974
	H4693	H	0.957093	0.214317	0.090765
	H4694	H	0.973874	0.284675	0.156238
	H4695	H	0.952706	0.284678	0.143857
	H4696	H	0.924165	0.124809	0.077773
	H4697	H	0.918814	0.375301	0.139961
	H4698	H	0.830995	0.374842	0.110206
	H4699	H	1.012482	0.125069	0.104875
	H4700	H	0.890615	0.214432	0.073163
	H4701	H	0.869504	0.214126	0.060616
	H4702	H	0.863820	0.284473	0.123208
	H4703	H	0.886155	0.284742	0.126540
	H4704	H	0.869384	0.534291	0.061141
	H4705	H	0.890469	0.534439	0.073862
	H4706	H	0.886173	-0.035194	0.126929
	H4707	H	0.863833	-0.035354	0.123714
	H4708	H	0.952698	-0.035130	0.144335
	H4709	H	0.973894	-0.035219	0.156725
	H4710	H	0.957111	0.534178	0.090345
	H4711	H	0.979448	0.534540	0.093664
	Al4712	Al	0.911666	-0.500199	0.224552
	Al4713	Al	0.911703	-0.250072	0.224660
	Al4714	Al	0.828371	-0.250142	0.141269
	Al4715	Al	0.828359	-0.500034	0.141404
	O4716	O	0.923740	-0.459377	0.245803
	O4717	O	0.912825	-0.374861	0.209513
	O4718	O	0.910688	-0.124804	0.239728
	O4719	O	0.982993	-0.459105	0.286532
	O4720	O	0.896965	-0.459073	0.242263
	O4721	O	0.833097	-0.459948	0.239602
	O4722	O	0.896972	-0.290757	0.242350
	O4723	O	0.899676	-0.209038	0.203277
	O4724	O	0.840347	-0.208890	0.162749
	O4725	O	0.923642	-0.291280	0.246062
	O4726	O	0.926351	-0.209102	0.206852
	O4727	O	0.990251	-0.209098	0.209985
	O4728	O	0.833115	-0.291539	0.239557
	O4729	O	0.899642	-0.041106	0.203318
	O4730	O	0.840352	-0.040856	0.162650
	O4731	O	0.990195	-0.040697	0.209695
	O4732	O	0.926358	-0.040917	0.206853
	O4733	O	0.982995	-0.291103	0.286509
	O4734	O	0.819534	-0.125418	0.244533
	O4735	O	1.003882	-0.375567	0.207250
	C4736	C	0.959268	-0.285457	0.269748
	C4737	C	0.965441	-0.375136	0.273505
	C4738	C	0.959275	-0.464917	0.269892
	C4739	C	0.947345	-0.465081	0.262717
	C4740	C	0.941188	-0.375305	0.258920
	C4741	C	0.947329	-0.285506	0.262633
	C4742	C	0.928625	-0.375283	0.249605
	C4743	C	0.978055	-0.375074	0.282805
	C4744	C	0.891550	-0.374903	0.242517
	C4745	C	0.877799	-0.375274	0.242847
	C4746	C	0.871320	-0.285363	0.242161
	C4747	C	0.858702	-0.285513	0.240411
	C4748	C	0.852238	-0.375493	0.239424
	C4749	C	0.858709	-0.465417	0.240271
	C4750	C	0.871326	-0.465350	0.242009
	C4751	C	0.838531	-0.375666	0.239378
	C4752	C	0.894738	-0.125120	0.199521
	C4753	C	0.882133	-0.125112	0.190316
	C4754	C	0.875983	-0.035205	0.186583
	C4755	C	0.864050	-0.035286	0.179477
	C4756	C	0.857884	-0.125054	0.175736
	C4757	C	0.864048	-0.215029	0.179415
	C4758	C	0.875975	-0.214926	0.186530
	C4759	C	0.845287	-0.124947	0.166375
	C4760	C	0.931800	-0.124982	0.206585
	C4761	C	0.945523	-0.124821	0.206563
	C4762	C	0.952021	-0.214677	0.207295
	C4763	C	0.964639	-0.214753	0.209137
	C4764	C	0.971086	-0.124876	0.210197
	C4765	C	0.964594	-0.034912	0.209504
	C4766	C	0.951976	-0.034846	0.207632
	C4767	C	0.984806	-0.125087	0.210034
	H4768	H	0.969475	-0.284819	0.209889
	H4769	H	0.947168	-0.284743	0.206548
	H4770	H	0.963860	-0.215403	0.272435
	H4771	H	0.942756	-0.215038	0.259930
	H4772	H	0.914419	-0.375323	0.193514
	H4773	H	0.909448	-0.125340	0.255867
	H4774	H	0.820637	-0.125181	0.228526
	H4775	H	1.002258	-0.374916	0.223251
	H4776	H	0.880530	-0.285133	0.189327
	H4777	H	0.859410	-0.284994	0.176783
	H4778	H	0.853772	-0.215514	0.239839
	H4779	H	0.876113	-0.215211	0.242994
	H4780	H	0.859396	0.034649	0.176979
	H4781	H	0.880556	0.034819	0.189448
	H4782	H	0.876222	-0.535007	0.242743
	H4783	H	0.853855	-0.535461	0.239604
	H4784	H	0.942744	-0.535135	0.260051
	H4785	H	0.963833	-0.535003	0.272707
	H4786	H	0.947092	0.035209	0.207166
	H4787	H	0.969445	0.034988	0.210535
	Al4788	Al	0.911636	-0.000062	0.224645
	Al4789	Al	0.911674	0.249732	0.224577
	Al4790	Al	0.828381	0.249923	0.141346
	Al4791	Al	0.828345	-0.000255	0.141271
	O4792	O	0.923718	0.040699	0.245998
	O4793	O	0.912810	0.125014	0.209519
	O4794	O	0.910598	0.374828	0.239596
	O4795	O	0.983073	0.041025	0.286377
	O4796	O	0.896961	0.041336	0.242317
	O4797	O	0.833072	0.040370	0.239735
	O4798	O	0.896914	0.209560	0.242230
	O4799	O	0.899777	0.291086	0.203002
	O4800	O	0.840372	0.290683	0.162822
	O4801	O	0.923620	0.208755	0.246142
	O4802	O	0.926401	0.290090	0.206721
	O4803	O	0.990292	0.290588	0.209861
	O4804	O	0.833066	0.208726	0.239713
	O4805	O	0.899593	0.459321	0.203459
	O4806	O	0.840407	0.458568	0.162746
	O4807	O	0.990260	0.458737	0.209910
	O4808	O	0.926369	0.458300	0.206729
	O4809	O	0.983007	0.209052	0.286523
	O4810	O	0.819511	0.374602	0.244403
	O4811	O	1.003865	0.124946	0.207130
	C4812	C	0.959283	0.214530	0.269925
	C4813	C	0.965441	0.124743	0.273719
	C4814	C	0.959291	0.034884	0.270046
	C4815	C	0.947343	0.035093	0.262953
	C4816	C	0.941178	0.124846	0.259184
	C4817	C	0.947345	0.214626	0.262814
	C4818	C	0.928578	0.124745	0.249846
	C4819	C	0.978088	0.124930	0.282767
	C4820	C	0.891521	0.125426	0.242521
	C4821	C	0.877767	0.125214	0.242934
	C4822	C	0.871263	0.214930	0.242264
	C4823	C	0.858635	0.214818	0.240537
	C4824	C	0.852195	0.124737	0.239516
	C4825	C	0.858699	0.035018	0.240316
	C4826	C	0.871329	0.035136	0.242068
	C4827	C	0.838498	0.124503	0.239535
	C4828	C	0.894755	0.375092	0.199494
	C4829	C	0.882166	0.374626	0.190313
	C4830	C	0.875998	0.464490	0.186633
	C4831	C	0.864062	0.464447	0.179491
	C4832	C	0.857951	0.374604	0.175694
	C4833	C	0.864122	0.284839	0.179338
	C4834	C	0.876071	0.284748	0.186453
	C4835	C	0.845326	0.374602	0.166473
	C4836	C	0.931816	0.374345	0.206602
	C4837	C	0.945535	0.374360	0.206557
	C4838	C	0.952041	0.284422	0.207279
	C4839	C	0.964655	0.284502	0.209125
	C4840	C	0.971115	0.374382	0.210291
	C4841	C	0.964590	0.464246	0.209569
	C4842	C	0.951984	0.464241	0.207742
	C4843	C	0.984844	0.374547	0.210037
	H4844	H	0.969552	0.214247	0.209595
	H4845	H	0.947223	0.214358	0.206389
	H4846	H	0.963877	0.284982	0.272490
	H4847	H	0.942756	0.284649	0.260001
	H4848	H	0.914528	0.125150	0.193440
	H4849	H	0.909043	0.375088	0.255601
	H4850	H	0.820810	0.374314	0.228323
	H4851	H	1.002333	0.125081	0.223133
	H4852	H	0.880667	0.214428	0.189175
	H4853	H	0.859537	0.214548	0.176591
	H4854	H	0.853795	0.284973	0.239936
	H4855	H	0.876132	0.284739	0.243099
	H4856	H	0.859460	0.534788	0.176879
	H4857	H	0.880574	0.534828	0.189371
	H4858	H	0.876206	-0.034822	0.242743
	H4859	H	0.853856	-0.035125	0.239649
	H4860	H	0.942768	-0.035182	0.260309
	H4861	H	0.963872	-0.035354	0.272730
	H4862	H	0.947092	0.534115	0.207168
	H4863	H	0.969425	0.534370	0.210417
	Al4864	Al	0.902223	-0.499673	0.342791
	Al4865	Al	0.902259	-0.250592	0.342639
	Al4866	Al	0.818962	-0.249781	0.259401
	Al4867	Al	0.818916	-0.501019	0.259390
	O4868	O	0.914748	-0.458977	0.363205
	O4869	O	0.902898	-0.375324	0.327901
	O4870	O	0.902073	-0.125380	0.357767
	O4871	O	0.973073	-0.459036	0.406503
	O4872	O	0.889348	-0.459146	0.365071
	O4873	O	0.838313	-0.459192	0.446404
	O4874	O	0.889335	-0.291095	0.364991
	O4875	O	0.889701	-0.209051	0.323239
	O4876	O	0.831464	-0.209444	0.279675
	O4877	O	0.914888	-0.290571	0.362711
	O4878	O	0.916372	-0.209262	0.322942
	O4879	O	0.980324	-0.209261	0.325703
	O4880	O	0.838345	-0.291019	0.446367
	O4881	O	0.889711	-0.040778	0.323189
	O4882	O	0.831521	-0.041517	0.279488
	O4883	O	0.980292	-0.040915	0.325656
	O4884	O	0.916402	-0.041149	0.323169
	O4885	O	0.973041	-0.290610	0.406566
	O4886	O	0.825977	-0.124998	0.456864
	O4887	O	0.993841	-0.374847	0.322954
	C4888	C	0.949646	-0.285080	0.389534
	C4889	C	0.955681	-0.374914	0.393520
	C4890	C	0.949686	-0.464659	0.389295
	C4891	C	0.937980	-0.464632	0.381143
	C4892	C	0.931980	-0.374722	0.377037
	C4893	C	0.937952	-0.284948	0.381355
	C4894	C	0.919629	-0.374891	0.366954
	C4895	C	0.968162	-0.374707	0.402958
	C4896	C	0.884973	-0.375090	0.371646
	C4897	C	0.873942	-0.375249	0.388907
	C4898	C	0.868708	-0.286243	0.397125
	C4899	C	0.858570	-0.286397	0.413299
	C4900	C	0.853425	-0.375460	0.421703
	C4901	C	0.858613	-0.464546	0.413386
	C4902	C	0.868754	-0.464420	0.397218
	C4903	C	0.842571	-0.375488	0.439452
	C4904	C	0.884817	-0.125077	0.319501
	C4905	C	0.872398	-0.125185	0.309897
	C4906	C	0.866417	-0.035573	0.305669
	C4907	C	0.854704	-0.035852	0.297561
	C4908	C	0.848691	-0.125709	0.293469
	C4909	C	0.854618	-0.215383	0.297996
	C4910	C	0.866330	-0.215012	0.306123
	C4911	C	0.836344	-0.125589	0.283468
	C4912	C	0.921825	-0.125301	0.322764
	C4913	C	0.935550	-0.125406	0.322737
	C4914	C	0.942031	-0.215318	0.323607
	C4915	C	0.954659	-0.215320	0.325340
	C4916	C	0.961157	-0.125324	0.326171
	C4917	C	0.954653	-0.035517	0.325500
	C4918	C	0.942046	-0.035517	0.323778
	C4919	C	0.974888	-0.125214	0.325916
	H4920	H	0.959531	-0.285442	0.326037
	H4921	H	0.937143	-0.285466	0.322953
	H4922	H	0.954174	-0.215792	0.392813
	H4923	H	0.933397	-0.215006	0.378265
	H4924	H	0.904084	-0.375493	0.311737
	H4925	H	0.902164	-0.125940	0.373931
	H4926	H	0.825497	-0.124707	0.440826
	H4927	H	0.992211	-0.374442	0.339134
	H4928	H	0.870806	-0.284544	0.309633
	H4929	H	0.850073	-0.285328	0.295099
	H4930	H	0.854615	-0.217469	0.419580
	H4931	H	0.872581	-0.217134	0.390730
	H4932	H	0.850211	0.033908	0.294312
	H4933	H	0.870929	0.034076	0.308770
	H4934	H	0.872664	-0.533587	0.390886
	H4935	H	0.854730	-0.533466	0.419792
	H4936	H	0.933491	-0.534293	0.377869
	H4937	H	0.954229	-0.534247	0.392344
	H4938	H	0.937172	0.034335	0.323280
	H4939	H	0.959507	0.034298	0.326358
	Al4940	Al	0.902246	0.000402	0.342848
	Al4941	Al	0.902289	0.249698	0.342708
	Al4942	Al	0.818973	0.249990	0.259334
	Al4943	Al	0.818945	-0.000899	0.259483
	O4944	O	0.914739	0.040741	0.363086
	O4945	O	0.902969	0.124898	0.327857
	O4946	O	0.902130	0.374944	0.357769
	O4947	O	0.973015	0.040838	0.406560
	O4948	O	0.889347	0.040893	0.365135
	O4949	O	0.838337	0.040816	0.446535
	O4950	O	0.889351	0.208662	0.365066
	O4951	O	0.889681	0.290606	0.323371
	O4952	O	0.831500	0.290963	0.279554
	O4953	O	0.914855	0.208961	0.362914
	O4954	O	0.916454	0.290976	0.323032
	O4955	O	0.980303	0.291079	0.325577
	O4956	O	0.838330	0.209038	0.446376
	O4957	O	0.889702	0.458905	0.323234
	O4958	O	0.831545	0.459185	0.279358
	O4959	O	0.980292	0.459080	0.325713
	O4960	O	0.916417	0.459371	0.323124
	O4961	O	0.972993	0.209251	0.406508
	O4962	O	0.825932	0.375036	0.456959
	O4963	O	0.993863	0.125109	0.322985
	C4964	C	0.949654	0.214349	0.389335
	C4965	C	0.955672	0.124576	0.393343
	C4966	C	0.949704	0.034619	0.389178
	C4967	C	0.938028	0.034828	0.380971
	C4968	C	0.932003	0.124607	0.376861
	C4969	C	0.937957	0.214498	0.381199
	C4970	C	0.919620	0.124725	0.366895
	C4971	C	0.968121	0.124768	0.402898
	C4972	C	0.884984	0.124874	0.371710
	C4973	C	0.873898	0.124650	0.388914
	C4974	C	0.868633	0.213558	0.396990
	C4975	C	0.858468	0.213666	0.413228
	C4976	C	0.853379	0.124566	0.421671
	C4977	C	0.858571	0.035656	0.413405
	C4978	C	0.868738	0.035580	0.397175
	C4979	C	0.842575	0.124898	0.439547
	C4980	C	0.884802	0.374939	0.319664
	C4981	C	0.872331	0.375016	0.310235
	C4982	C	0.866335	0.464787	0.306089
	C4983	C	0.854653	0.464888	0.297875
	C4984	C	0.848684	0.375084	0.293555
	C4985	C	0.854654	0.285341	0.297942
	C4986	C	0.866331	0.285315	0.306150
	C4987	C	0.836331	0.374973	0.283466
	C4988	C	0.921847	0.375337	0.322815
	C4989	C	0.935559	0.375186	0.322776
	C4990	C	0.942026	0.285286	0.323720
	C4991	C	0.954648	0.285199	0.325481
	C4992	C	0.961130	0.375092	0.326231
	C4993	C	0.954657	0.465026	0.325384
	C4994	C	0.942039	0.465044	0.323683
	C4995	C	0.974877	0.375108	0.325921
	H4996	H	0.959537	0.215250	0.326219
	H4997	H	0.937161	0.215246	0.323040
	H4998	H	0.954191	0.283926	0.392596
	H4999	H	0.933461	0.284419	0.378072
	H5000	H	0.904499	0.124954	0.311758
	H5001	H	0.902161	0.374441	0.373949
	H5002	H	0.825387	0.375526	0.440920
	H5003	H	0.992456	0.125577	0.339042
	H5004	H	0.870883	0.215488	0.309266
	H5005	H	0.850134	0.215811	0.294676
	H5006	H	0.854549	0.282995	0.419409
	H5007	H	0.872540	0.282668	0.390638
	H5008	H	0.850183	0.534750	0.294565
	H5009	H	0.870896	0.534315	0.309165
	H5010	H	0.872687	-0.033562	0.391087
	H5011	H	0.854717	-0.033487	0.419798
	H5012	H	0.933530	-0.035027	0.377702
	H5013	H	0.954231	-0.035252	0.392247
	H5014	H	0.937192	0.535114	0.322942
	H5015	H	0.959551	0.535053	0.326031
	Al5016	Al	0.910006	-0.500109	0.554724
	Al5017	Al	0.910020	-0.250025	0.554757
	Al5018	Al	0.826686	-0.250173	0.471407
	Al5019	Al	0.826655	-0.500003	0.471503
	O5020	O	0.923536	-0.459391	0.571825
	O5021	O	0.909366	-0.375050	0.540168
	O5022	O	0.910765	-0.124967	0.569230
	O5023	O	0.979906	-0.459115	0.620916
	O5024	O	0.898545	-0.459145	0.580168
	O5025	O	0.851451	-0.459257	0.670060
	O5026	O	0.898565	-0.291090	0.580178
	O5027	O	0.896526	-0.209247	0.537650
	O5028	O	0.840227	-0.209257	0.488335
	O5029	O	0.923505	-0.291266	0.571848
	O5030	O	0.921685	-0.209170	0.529703
	O5031	O	0.972675	-0.209139	0.448405
	O5032	O	0.851495	-0.291224	0.670149
	O5033	O	0.896523	-0.040938	0.537661
	O5034	O	0.840189	-0.040954	0.488576
	O5035	O	0.972720	-0.041182	0.448546
	O5036	O	0.921674	-0.040914	0.529820
	O5037	O	0.979949	-0.290969	0.620807
	O5038	O	0.839323	-0.125048	0.680765
	O5039	O	0.985512	-0.375073	0.441014
	C5040	C	0.957406	-0.285968	0.601042
	C5041	C	0.963114	-0.374995	0.606128
	C5042	C	0.957323	-0.464291	0.601484
	C5043	C	0.946020	-0.464534	0.591742
	C5044	C	0.940316	-0.375275	0.586647
	C5045	C	0.946124	-0.286166	0.591306
	C5046	C	0.928269	-0.375240	0.575847
	C5047	C	0.975176	-0.374903	0.616830
	C5048	C	0.894530	-0.375165	0.587545
	C5049	C	0.884468	-0.375140	0.606980
	C5050	C	0.879686	-0.286146	0.616195
	C5051	C	0.870376	-0.286231	0.634146
	C5052	C	0.865531	-0.375126	0.643244
	C5053	C	0.870323	-0.464171	0.634058
	C5054	C	0.879653	-0.464192	0.616133
	C5055	C	0.855490	-0.375361	0.662712
	C5056	C	0.891787	-0.124984	0.533595
	C5057	C	0.879734	-0.125108	0.522883
	C5058	C	0.873975	-0.035970	0.517943
	C5059	C	0.862729	-0.036027	0.508110
	C5060	C	0.857005	-0.125189	0.503180
	C5061	C	0.862752	-0.214367	0.508152
	C5062	C	0.874006	-0.214301	0.518006
	C5063	C	0.844963	-0.125175	0.492416
	C5064	C	0.925895	-0.124873	0.522879
	C5065	C	0.936688	-0.124778	0.504982
	C5066	C	0.941844	-0.213623	0.496659
	C5067	C	0.951967	-0.213566	0.480471
	C5068	C	0.957235	-0.124837	0.472261
	C5069	C	0.952027	-0.035899	0.480485
	C5070	C	0.941884	-0.035808	0.496671
	C5071	C	0.968302	-0.125142	0.455060
	H5072	H	0.955841	-0.282538	0.474162
	H5073	H	0.937928	-0.282763	0.502993
	H5074	H	0.961810	-0.216929	0.604659
	H5075	H	0.941825	-0.216953	0.587226
	H5076	H	0.908871	-0.374457	0.524144
	H5077	H	0.911702	-0.125133	0.585127
	H5078	H	0.838729	-0.125230	0.664788
	H5079	H	0.985599	-0.375105	0.457154
	H5080	H	0.878386	-0.283252	0.521923
	H5081	H	0.858384	-0.283301	0.504191
	H5082	H	0.866813	-0.217120	0.641204
	H5083	H	0.883303	-0.217159	0.609212
	H5084	H	0.858389	0.032954	0.504150
	H5085	H	0.878347	0.032888	0.521794
	H5086	H	0.883255	-0.533122	0.609133
	H5087	H	0.866760	-0.533162	0.641055
	H5088	H	0.941622	-0.533416	0.587948
	H5089	H	0.961702	-0.533036	0.605460
	H5090	H	0.937983	0.033094	0.503025
	H5091	H	0.955932	0.033071	0.474075
	Al5092	Al	0.910007	0.000165	0.554801
	Al5093	Al	0.909977	0.249987	0.554733
	Al5094	Al	0.826676	0.249977	0.471455
	Al5095	Al	0.826670	-0.000090	0.471454
	O5096	O	0.923426	0.040767	0.572058
	O5097	O	0.909327	0.124857	0.540228
	O5098	O	0.910684	0.374830	0.569261
	O5099	O	0.979855	0.040809	0.620959
	O5100	O	0.898519	0.040995	0.580104
	O5101	O	0.851492	0.040585	0.669993
	O5102	O	0.898471	0.209062	0.580157
	O5103	O	0.896539	0.290811	0.537559
	O5104	O	0.840163	0.291022	0.488571
	O5105	O	0.923523	0.209266	0.571728
	O5106	O	0.921725	0.290759	0.529854
	O5107	O	0.972696	0.291280	0.448306
	O5108	O	0.851505	0.208874	0.670142
	O5109	O	0.896577	0.459448	0.537617
	O5110	O	0.840221	0.459309	0.488469
	O5111	O	0.972667	0.459380	0.448328
	O5112	O	0.921708	0.459015	0.529761
	O5113	O	0.979818	0.209390	0.621107
	O5114	O	0.839295	0.375066	0.680840
	O5115	O	0.985396	0.124854	0.440978
	C5116	C	0.957367	0.214407	0.601077
	C5117	C	0.963091	0.125047	0.606078
	C5118	C	0.957322	0.035712	0.601323
	C5119	C	0.946047	0.035506	0.591559
	C5120	C	0.940309	0.124788	0.586530
	C5121	C	0.946084	0.214306	0.591312
	C5122	C	0.928215	0.125074	0.575902
	C5123	C	0.975115	0.125221	0.616984
	C5124	C	0.894507	0.124981	0.587547
	C5125	C	0.884459	0.124863	0.607031
	C5126	C	0.879614	0.213811	0.616129
	C5127	C	0.870291	0.213868	0.634067
	C5128	C	0.865537	0.124818	0.643267
	C5129	C	0.870347	0.035691	0.634116
	C5130	C	0.879681	0.035628	0.616165
	C5131	C	0.855519	0.124880	0.662685
	C5132	C	0.891813	0.375263	0.533629
	C5133	C	0.879731	0.375177	0.522929
	C5134	C	0.874010	0.464580	0.518026
	C5135	C	0.862754	0.464572	0.508181
	C5136	C	0.856990	0.375251	0.503326
	C5137	C	0.862728	0.285855	0.508167
	C5138	C	0.873993	0.285744	0.518014
	C5139	C	0.844922	0.375101	0.492553
	C5140	C	0.925975	0.374819	0.522978
	C5141	C	0.936741	0.374822	0.505130
	C5142	C	0.941980	0.285950	0.496778
	C5143	C	0.952083	0.286040	0.480522
	C5144	C	0.957270	0.375126	0.472224
	C5145	C	0.952029	0.463991	0.480570
	C5146	C	0.941913	0.463850	0.496791
	C5147	C	0.968316	0.375214	0.454955
	H5148	H	0.956067	0.217392	0.474258
	H5149	H	0.938117	0.217126	0.503230
	H5150	H	0.961738	0.283361	0.604954
	H5151	H	0.941674	0.282943	0.587373
	H5152	H	0.908806	0.125329	0.524179
	H5153	H	0.911336	0.375148	0.585182
	H5154	H	0.838357	0.375420	0.664989
	H5155	H	0.985323	0.124758	0.457174
	H5156	H	0.878385	0.216840	0.521832
	H5157	H	0.858344	0.216762	0.504340
	H5158	H	0.866673	0.283043	0.641049
	H5159	H	0.883176	0.282922	0.609061
	H5160	H	0.858351	0.533326	0.504312
	H5161	H	0.878420	0.533603	0.521733
	H5162	H	0.883275	-0.033463	0.609139
	H5163	H	0.866745	-0.033355	0.641150
	H5164	H	0.941654	-0.033750	0.587865
	H5165	H	0.961653	-0.032819	0.605405
	H5166	H	0.938005	0.532656	0.503202
	H5167	H	0.955967	0.532960	0.474284
	Al5168	Al	0.923333	-0.500199	0.778625
	Al5169	Al	0.923322	-0.249905	0.778762
	Al5170	Al	0.840009	-0.249623	0.695445
	Al5171	Al	0.840030	-0.499718	0.695422
	O5172	O	0.936780	-0.459133	0.795875
	O5173	O	0.922581	-0.375122	0.764221
	O5174	O	0.924085	-0.125087	0.793304
	O5175	O	0.993177	-0.459193	0.844897
	O5176	O	0.911632	-0.459097	0.803617
	O5177	O	0.860642	-0.458860	0.885118
	O5178	O	0.911683	-0.291088	0.803805
	O5179	O	0.909837	-0.208553	0.761683
	O5180	O	0.853598	-0.209172	0.712335
	O5181	O	0.936782	-0.290749	0.795878
	O5182	O	0.934796	-0.209164	0.753479
	O5183	O	0.981856	-0.209075	0.663445
	O5184	O	0.860648	-0.290800	0.885047
	O5185	O	0.909850	-0.040443	0.761647
	O5186	O	0.853463	-0.040887	0.712403
	O5187	O	0.981815	-0.040994	0.663458
	O5188	O	0.934904	-0.041207	0.753477
	O5189	O	0.993114	-0.290533	0.845004
	O5190	O	0.847885	-0.124632	0.892469
	O5191	O	0.994088	-0.374802	0.652641
	C5192	C	0.970610	-0.285672	0.825286
	C5193	C	0.976319	-0.374978	0.830289
	C5194	C	0.970570	-0.464594	0.825478
	C5195	C	0.959271	-0.464610	0.815670
	C5196	C	0.953570	-0.374963	0.810726
	C5197	C	0.959344	-0.285603	0.815577
	C5198	C	0.941509	-0.374889	0.799921
	C5199	C	0.988396	-0.374847	0.841025
	C5200	C	0.907384	-0.375175	0.810598
	C5201	C	0.896595	-0.375197	0.828433
	C5202	C	0.891387	-0.286396	0.836649
	C5203	C	0.881239	-0.286242	0.852865
	C5204	C	0.876047	-0.375106	0.861201
	C5205	C	0.881284	-0.464188	0.853085
	C5206	C	0.891419	-0.464278	0.836862
	C5207	C	0.865019	-0.374960	0.878493
	C5208	C	0.905062	-0.124675	0.757764
	C5209	C	0.892996	-0.124636	0.747033
	C5210	C	0.887281	-0.035370	0.742052
	C5211	C	0.876009	-0.035324	0.732235
	C5212	C	0.870272	-0.124493	0.727363
	C5213	C	0.875981	-0.213605	0.732431
	C5214	C	0.887248	-0.213672	0.742221
	C5215	C	0.858253	-0.124983	0.716466
	C5216	C	0.938842	-0.125055	0.746063
	C5217	C	0.948856	-0.125377	0.726598
	C5218	C	0.953605	-0.214355	0.717320
	C5219	C	0.962903	-0.214419	0.699337
	C5220	C	0.967731	-0.125379	0.690200
	C5221	C	0.963017	-0.036349	0.699542
	C5222	C	0.953725	-0.036366	0.717532
	C5223	C	0.977831	-0.125015	0.670910
	H5224	H	0.966550	-0.283408	0.692311
	H5225	H	0.950017	-0.283275	0.724338
	H5226	H	0.974970	-0.216377	0.829152
	H5227	H	0.955043	-0.216483	0.811744
	H5228	H	0.921565	-0.375212	0.748306
	H5229	H	0.924669	-0.124810	0.809348
	H5230	H	0.847782	-0.124512	0.876349
	H5231	H	0.994913	-0.374701	0.668570
	H5232	H	0.891532	-0.282680	0.746200
	H5233	H	0.871584	-0.282451	0.728670
	H5234	H	0.877297	-0.217308	0.859065
	H5235	H	0.895239	-0.217290	0.830289
	H5236	H	0.871628	0.033200	0.728308
	H5237	H	0.891684	0.033341	0.745983
	H5238	H	0.895327	-0.533352	0.830603
	H5239	H	0.877383	-0.533082	0.859410
	H5240	H	0.954819	-0.533416	0.811834
	H5241	H	0.974926	-0.533572	0.829479
	H5242	H	0.950242	0.032603	0.724759
	H5243	H	0.966733	0.032536	0.692779
	Al5244	Al	0.923394	-0.000111	0.778694
	Al5245	Al	0.923416	0.250055	0.778708
	Al5246	Al	0.839990	0.250137	0.695467
	Al5247	Al	0.840020	0.000133	0.695281
	O5248	O	0.936834	0.040816	0.795902
	O5249	O	0.922619	0.125047	0.764183
	O5250	O	0.924075	0.375197	0.793218
	O5251	O	0.993224	0.041035	0.844933
	O5252	O	0.911712	0.041520	0.803691
	O5253	O	0.860625	0.041648	0.884951
	O5254	O	0.911660	0.209720	0.803694
	O5255	O	0.909899	0.290664	0.761582
	O5256	O	0.853405	0.290888	0.712810
	O5257	O	0.936849	0.209258	0.795826
	O5258	O	0.934865	0.290961	0.753383
	O5259	O	0.981835	0.291168	0.663348
	O5260	O	0.860680	0.209586	0.885001
	O5261	O	0.909929	0.459061	0.761299
	O5262	O	0.853483	0.459374	0.712536
	O5263	O	0.981941	0.459194	0.663463
	O5264	O	0.934864	0.459064	0.753468
	O5265	O	0.993149	0.209369	0.845093
	O5266	O	0.847839	0.375266	0.892469
	O5267	O	0.994046	0.125226	0.652700
	C5268	C	0.970623	0.214191	0.825427
	C5269	C	0.976357	0.124948	0.830353
	C5270	C	0.970573	0.035788	0.825531
	C5271	C	0.959325	0.035761	0.815710
	C5272	C	0.953602	0.124961	0.810761
	C5273	C	0.959355	0.214225	0.815619
	C5274	C	0.941587	0.124838	0.799880
	C5275	C	0.988440	0.125049	0.841028
	C5276	C	0.907467	0.125731	0.810574
	C5277	C	0.896657	0.125606	0.828431
	C5278	C	0.891460	0.214734	0.836686
	C5279	C	0.881339	0.214653	0.852885
	C5280	C	0.876081	0.125566	0.861115
	C5281	C	0.881270	0.036476	0.852778
	C5282	C	0.891391	0.036533	0.836585
	C5283	C	0.865047	0.125570	0.878358
	C5284	C	0.905163	0.374838	0.757472
	C5285	C	0.893069	0.374441	0.746781
	C5286	C	0.887376	0.463832	0.741752
	C5287	C	0.876075	0.464036	0.732025
	C5288	C	0.870267	0.374926	0.727379
	C5289	C	0.875967	0.285491	0.732397
	C5290	C	0.887277	0.285316	0.742082
	C5291	C	0.858185	0.375097	0.716664
	C5292	C	0.938830	0.375037	0.745937
	C5293	C	0.948899	0.375099	0.726529
	C5294	C	0.953637	0.286084	0.717256
	C5295	C	0.962965	0.286353	0.699293
	C5296	C	0.967830	0.375336	0.690219
	C5297	C	0.963092	0.464265	0.699510
	C5298	C	0.953761	0.464007	0.717461
	C5299	C	0.977896	0.375314	0.670810
	H5300	H	0.966476	0.217416	0.692266
	H5301	H	0.949981	0.217031	0.724127
	H5302	H	0.975039	0.283106	0.829275
	H5303	H	0.954969	0.283041	0.811630
	H5304	H	0.921788	0.124576	0.748187
	H5305	H	0.924535	0.375375	0.809252
	H5306	H	0.847863	0.375454	0.876295
	H5307	H	0.994852	0.124916	0.668509
	H5308	H	0.891634	0.216470	0.746027
	H5309	H	0.871540	0.216379	0.728704
	H5310	H	0.877448	0.283731	0.859211
	H5311	H	0.895370	0.283776	0.830241
	H5312	H	0.871765	0.533059	0.728034
	H5313	H	0.891806	0.532574	0.745419
	H5314	H	0.895249	-0.032493	0.830078
	H5315	H	0.877310	-0.032399	0.859036
	H5316	H	0.954959	-0.033052	0.811873
	H5317	H	0.974943	-0.033220	0.829343
	H5318	H	0.950178	0.533227	0.724525
	H5319	H	0.966754	0.533274	0.692591
	Al5320	Al	0.931005	-0.500208	0.990674
	Al5321	Al	0.931029	-0.249070	0.990819
	Al5322	Al	0.847743	-0.250046	0.907382
	Al5323	Al	0.847699	-0.499552	0.907542
	O5324	O	0.943578	-0.459082	1.010264
	O5325	O	0.931205	-0.374854	0.975752
	O5326	O	0.930442	-0.124782	1.005738
	O5327	O	1.001854	-0.458572	1.053791
	O5328	O	0.916835	-0.459089	1.010335
	O5329	O	0.852987	-0.459234	1.007797
	O5330	O	0.916869	-0.290668	1.010474
	O5331	O	0.918426	-0.208965	0.970595
	O5332	O	0.860248	-0.209002	0.927037
	O5333	O	0.943535	-0.290677	1.010465
	O5334	O	0.943926	-0.208455	0.968484
	O5335	O	0.994965	-0.208639	0.887101
	O5336	O	0.853002	-0.290987	1.007922
	O5337	O	0.918405	-0.040772	0.970760
	O5338	O	0.860289	-0.040666	0.927025
	O5339	O	0.994940	-0.040646	0.887070
	O5340	O	0.943912	-0.040630	0.968374
	O5341	O	1.001797	-0.290405	1.053778
	O5342	O	0.839379	-0.125482	1.010421
	O5343	O	1.007324	-0.375015	0.876716
	C5344	C	0.978616	-0.285408	1.035766
	C5345	C	0.984596	-0.375126	1.040008
	C5346	C	0.978628	-0.464879	1.035668
	C5347	C	0.966923	-0.464651	1.027542
	C5348	C	0.960911	-0.374916	1.023548
	C5349	C	0.966915	-0.285227	1.027634
	C5350	C	0.948447	-0.375012	1.013951
	C5351	C	0.996989	-0.374677	1.049920
	C5352	C	0.911430	-0.374808	1.010649
	C5353	C	0.897699	-0.374831	1.010790
	C5354	C	0.891225	-0.285005	1.009730
	C5355	C	0.878630	-0.285062	1.007969
	C5356	C	0.872139	-0.375086	1.007351
	C5357	C	0.878634	-0.465060	1.007984
	C5358	C	0.891238	-0.464770	1.009746
	C5359	C	0.858426	-0.375068	1.007533
	C5360	C	0.913603	-0.124943	0.966691
	C5361	C	0.901243	-0.125192	0.956691
	C5362	C	0.895268	-0.035546	0.952492
	C5363	C	0.883579	-0.035121	0.944334
	C5364	C	0.877613	-0.124888	0.940157
	C5365	C	0.883606	-0.214590	0.944305
	C5366	C	0.895281	-0.215011	0.952489
	C5367	C	0.865171	-0.124850	0.930676
	C5368	C	0.948331	-0.124753	0.961830
	C5369	C	0.959400	-0.124744	0.944631
	C5370	C	0.964673	-0.213557	0.936453
	C5371	C	0.974825	-0.213685	0.920261
	C5372	C	0.980000	-0.124797	0.911946
	C5373	C	0.974757	-0.036014	0.920148
	C5374	C	0.964605	-0.035979	0.936313
	C5375	C	0.990725	-0.124643	0.893948
	H5376	H	0.978753	-0.282670	0.913934
	H5377	H	0.960782	-0.282615	0.942717
	H5378	H	0.983120	-0.215503	1.038970
	H5379	H	0.962367	-0.215729	1.024399
	H5380	H	0.931158	-0.374645	0.959523
	H5381	H	0.929170	-0.124935	1.021871
	H5382	H	0.840725	-0.125483	0.994293
	H5383	H	1.008194	-0.374540	0.892614
	H5384	H	0.899755	-0.284636	0.955812
	H5385	H	0.879054	-0.284125	0.941187
	H5386	H	0.873732	-0.215029	1.007346
	H5387	H	0.896067	-0.215222	1.010527
	H5388	H	0.879033	0.034447	0.941275
	H5389	H	0.899752	0.034093	0.955773
	H5390	H	0.896149	-0.534938	1.010476
	H5391	H	0.873751	-0.535140	1.007370
	H5392	H	0.962429	-0.534314	1.024236
	H5393	H	0.983136	-0.534613	1.038823
	H5394	H	0.960631	0.032886	0.942478
	H5395	H	0.978591	0.033110	0.913721
	Al5396	Al	0.931031	-0.000152	0.990849
	Al5397	Al	0.930977	0.250730	0.990869
	Al5398	Al	0.847767	0.249806	0.907333
	Al5399	Al	0.847777	0.000690	0.907471
	O5400	O	0.943566	0.041120	1.010307
	O5401	O	0.931213	0.125542	0.975841
	O5402	O	0.930442	0.375297	1.005684
	O5403	O	1.001766	0.040761	1.053711
	O5404	O	0.916848	0.040623	1.010525
	O5405	O	0.853002	0.041067	1.007722
	O5406	O	0.916836	0.209168	1.010586
	O5407	O	0.918440	0.290935	0.970600
	O5408	O	0.860285	0.290843	0.926939
	O5409	O	0.943562	0.209424	1.010340
	O5410	O	0.943904	0.290785	0.968449
	O5411	O	0.995000	0.291023	0.887255
	O5412	O	0.852993	0.209368	1.007730
	O5413	O	0.918429	0.459227	0.970590
	O5414	O	0.860290	0.459194	0.926840
	O5415	O	0.994921	0.459172	0.887131
	O5416	O	0.943917	0.458815	0.968424
	O5417	O	1.001799	0.209003	1.053757
	O5418	O	0.839357	0.374688	1.010512
	O5419	O	1.007352	0.125037	0.876648
	C5420	C	0.978586	0.215164	1.035799
	C5421	C	0.984592	0.125214	1.039920
	C5422	C	0.978628	0.035464	1.035462
	C5423	C	0.966947	0.035766	1.027272
	C5424	C	0.960905	0.125568	1.023416
	C5425	C	0.966906	0.215362	1.027618
	C5426	C	0.948480	0.125441	1.013917
	C5427	C	0.996940	0.124993	1.049795
	C5428	C	0.911418	0.124909	1.010761
	C5429	C	0.897705	0.124795	1.010766
	C5430	C	0.891250	0.214803	1.009746
	C5431	C	0.878635	0.214705	1.007977
	C5432	C	0.872149	0.124841	1.007227
	C5433	C	0.878623	0.034965	1.008063
	C5434	C	0.891227	0.034926	1.009853
	C5435	C	0.858435	0.125166	1.007461
	C5436	C	0.913627	0.374918	0.966651
	C5437	C	0.901251	0.375107	0.956654
	C5438	C	0.895305	0.464951	0.952272
	C5439	C	0.883615	0.464854	0.944054
	C5440	C	0.877615	0.375041	0.940029
	C5441	C	0.883586	0.285216	0.944256
	C5442	C	0.895278	0.285244	0.952463
	C5443	C	0.865175	0.374967	0.930552
	C5444	C	0.948304	0.374815	0.961851
	C5445	C	0.959346	0.374889	0.944647
	C5446	C	0.964592	0.285866	0.936469
	C5447	C	0.974741	0.285900	0.920259
	C5448	C	0.979934	0.374959	0.911902
	C5449	C	0.974716	0.464030	0.920215
	C5450	C	0.964555	0.464086	0.936388
	C5451	C	0.990713	0.375161	0.894039
	H5452	H	0.978657	0.216694	0.913851
	H5453	H	0.960657	0.216843	0.942767
	H5454	H	0.983125	0.284761	1.038934
	H5455	H	0.962369	0.285238	1.024576
	H5456	H	0.931217	0.125267	0.959655
	H5457	H	0.929087	0.375624	1.021897
	H5458	H	0.840825	0.374765	0.994290
	H5459	H	1.008022	0.125334	0.892647
	H5460	H	0.899749	0.215514	0.955748
	H5461	H	0.879075	0.215679	0.941207
	H5462	H	0.873755	0.284608	1.007291
	H5463	H	0.896091	0.284714	1.010509
	H5464	H	0.879113	0.534662	0.940718
	H5465	H	0.899844	0.534603	0.955409
	H5466	H	0.896085	-0.035019	1.010744
	H5467	H	0.873720	-0.034830	1.007494
	H5468	H	0.962458	-0.033891	1.023823
	H5469	H	0.983177	-0.034426	1.038416
	H5470	H	0.960626	0.532972	0.942637
	H5471	H	0.978587	0.533105	0.913781
