data_Molecule from HDF5

_cell_length_a		106.319031
_cell_length_b		13.365203
_cell_length_c		63.455816
_cell_angle_alpha	90.008407
_cell_angle_beta	86.514949
_cell_angle_gamma	89.983712
_symmetry_space_group_name_H-M	'P 1'
_symmetry_Int_Tables_number		1

loop_
	_symmetry_equiv_pos_as_xyz
	x,y,z

loop_
	_atom_site_label
	_atom_site_type_symbol
	_atom_site_fract_x
	_atom_site_fract_y
	_atom_site_fract_z
	Al0	Al	0.092589	-0.499571	0.121070
	Al1	Al	0.092563	-0.249524	0.120933
	Al2	Al	0.009247	-0.249791	0.037587
	Al3	Al	0.009271	-0.499530	0.037605
	O4	O	0.106023	-0.458378	0.137601
	O5	O	0.092109	-0.374692	0.107856
	O6	O	0.093007	-0.124771	0.134039
	O7	O	0.162384	-0.458591	0.187873
	O8	O	0.080108	-0.458782	0.142524
	O9	O	0.025793	-0.458664	0.210099
	O10	O	0.080017	-0.290448	0.142298
	O11	O	0.079108	-0.208725	0.104290
	O12	O	0.022715	-0.209169	0.054142
	O13	O	0.106048	-0.290115	0.137512
	O14	O	0.104800	-0.209023	0.099205
	O15	O	0.154622	-0.209082	0.022058
	O16	O	0.025756	-0.290691	0.210067
	O17	O	0.079025	-0.040281	0.104563
	O18	O	0.022717	-0.040910	0.054182
	O19	O	0.154644	-0.041028	0.022129
	O20	O	0.104810	-0.040854	0.099083
	O21	O	0.162463	-0.290415	0.187842
	O22	O	0.012582	-0.124453	0.215522
	O23	O	0.167231	-0.375247	0.012979
	C24	C	0.139815	-0.285221	0.167749
	C25	C	0.145565	-0.374435	0.172908
	C26	C	0.139810	-0.463728	0.167876
	C27	C	0.128574	-0.463565	0.157867
	C28	C	0.122820	-0.374436	0.152708
	C29	C	0.128565	-0.285154	0.157755
	C30	C	0.110765	-0.374098	0.141773
	C31	C	0.157672	-0.374469	0.183733
	C32	C	0.075535	-0.374529	0.148096
	C33	C	0.064003	-0.374528	0.162936
	C34	C	0.058536	-0.285677	0.169968
	C35	C	0.047761	-0.285575	0.183461
	C36	C	0.042144	-0.374562	0.190201
	C37	C	0.047666	-0.463441	0.183319
	C38	C	0.058456	-0.463286	0.169876
	C39	C	0.030406	-0.374585	0.204568
	C40	C	0.074295	-0.124396	0.100387
	C41	C	0.062251	-0.124704	0.089424
	C42	C	0.056483	-0.035747	0.084286
	C43	C	0.045230	-0.035520	0.074314
	C44	C	0.039486	-0.124906	0.069359
	C45	C	0.045327	-0.213997	0.074291
	C46	C	0.056581	-0.214033	0.084291
	C47	C	0.027427	-0.125027	0.058331
	C48	C	0.109027	-0.125033	0.092816
	C49	C	0.119726	-0.125140	0.076223
	C50	C	0.124797	-0.214383	0.068409
	C51	C	0.134667	-0.214150	0.052987
	C52	C	0.139744	-0.124993	0.045135
	C53	C	0.134686	-0.035771	0.052972
	C54	C	0.124802	-0.035895	0.068363
	C55	C	0.150409	-0.124929	0.028395
	H56	H	0.138451	-0.283237	0.046941
	H57	H	0.120969	-0.283562	0.074357
	H58	H	0.144190	-0.216063	0.171716
	H59	H	0.124210	-0.216239	0.153748
	H60	H	0.091372	-0.374929	0.093572
	H61	H	0.093333	-0.125242	0.148352
	H62	H	0.012954	-0.125051	0.201010
	H63	H	0.167923	-0.375362	0.027256
	H64	H	0.060932	-0.282898	0.088282
	H65	H	0.040980	-0.283140	0.070214
	H66	H	0.043628	-0.216953	0.188823
	H67	H	0.062766	-0.216947	0.164804
	H68	H	0.040885	0.033256	0.070305
	H69	H	0.060818	0.032992	0.088240
	H70	H	0.062642	-0.531989	0.164607
	H71	H	0.043450	-0.532387	0.188574
	H72	H	0.124234	-0.532375	0.153961
	H73	H	0.144157	-0.532658	0.171878
	H74	H	0.120953	0.033442	0.074299
	H75	H	0.138443	0.033704	0.046859
	Al76	Al	0.092597	0.000030	0.120933
	Al77	Al	0.092590	0.250382	0.120937
	Al78	Al	0.009306	0.250385	0.037569
	Al79	Al	0.009305	0.000566	0.037608
	O80	O	0.106020	0.041213	0.137539
	O81	O	0.092127	0.125010	0.107822
	O82	O	0.093006	0.375450	0.134139
	O83	O	0.162315	0.040485	0.188099
	O84	O	0.080143	0.041297	0.142404
	O85	O	0.025725	0.041378	0.209804
	O86	O	0.080167	0.209131	0.142433
	O87	O	0.079038	0.291246	0.104608
	O88	O	0.022770	0.291393	0.054049
	O89	O	0.106084	0.209273	0.137540
	O90	O	0.104759	0.291519	0.099101
	O91	O	0.154551	0.290992	0.021966
	O92	O	0.025767	0.209311	0.209834
	O93	O	0.078998	0.459622	0.104557
	O94	O	0.022753	0.459622	0.054127
	O95	O	0.154567	0.458999	0.022095
	O96	O	0.104805	0.459533	0.099184
	O97	O	0.162364	0.208738	0.187873
	O98	O	0.012572	0.375836	0.215468
	O99	O	0.167281	0.125021	0.012945
	C100	C	0.139798	0.213506	0.167843
	C101	C	0.145553	0.124409	0.172918
	C102	C	0.139859	0.035259	0.167784
	C103	C	0.128615	0.035496	0.157743
	C104	C	0.122856	0.124620	0.152683
	C105	C	0.128575	0.213600	0.157800
	C106	C	0.110804	0.125135	0.141695
	C107	C	0.157599	0.124430	0.183860
	C108	C	0.075644	0.125458	0.148181
	C109	C	0.064177	0.125338	0.163164
	C110	C	0.058639	0.214299	0.170100
	C111	C	0.047811	0.214211	0.183472
	C112	C	0.042220	0.125383	0.190233
	C113	C	0.047781	0.036502	0.183332
	C114	C	0.058602	0.036486	0.169992
	C115	C	0.030439	0.125208	0.204424
	C116	C	0.074269	0.375379	0.100469
	C117	C	0.062216	0.375282	0.089505
	C118	C	0.056473	0.464569	0.084475
	C119	C	0.045243	0.464397	0.074415
	C120	C	0.039515	0.375299	0.069259
	C121	C	0.045249	0.285988	0.074317
	C122	C	0.056485	0.286092	0.084360
	C123	C	0.027508	0.375643	0.058198
	C124	C	0.109020	0.375604	0.092782
	C125	C	0.119686	0.375597	0.076147
	C126	C	0.124805	0.286351	0.068453
	C127	C	0.134688	0.285989	0.053029
	C128	C	0.139757	0.375032	0.045104
	C129	C	0.134715	0.464235	0.052905
	C130	C	0.124824	0.464552	0.068307
	C131	C	0.150359	0.374915	0.028433
	H132	H	0.138505	0.216622	0.047076
	H133	H	0.121033	0.217443	0.074619
	H134	H	0.144118	0.282460	0.171809
	H135	H	0.124218	0.282529	0.153891
	H136	H	0.091472	0.124985	0.093524
	H137	H	0.093188	0.374657	0.148455
	H138	H	0.012977	0.375635	0.201057
	H139	H	0.167836	0.125150	0.027255
	H140	H	0.060861	0.217355	0.088330
	H141	H	0.040987	0.216978	0.070231
	H142	H	0.043612	0.283064	0.188670
	H143	H	0.062827	0.282959	0.164843
	H144	H	0.040876	0.533406	0.070375
	H145	H	0.060787	0.533764	0.088501
	H146	H	0.062739	-0.032421	0.164648
	H147	H	0.043570	-0.032303	0.188557
	H148	H	0.124270	-0.033066	0.153803
	H149	H	0.144254	-0.033545	0.171792
	H150	H	0.121062	0.533787	0.074345
	H151	H	0.138547	0.533210	0.046870
	Al152	Al	0.095371	-0.500088	0.312483
	Al153	Al	0.095394	-0.249166	0.312276
	Al154	Al	0.012087	-0.249788	0.229070
	Al155	Al	0.012088	-0.498982	0.228994
	O156	O	0.107972	-0.458553	0.330796
	O157	O	0.095876	-0.374869	0.298920
	O158	O	0.094441	-0.124792	0.325674
	O159	O	0.166283	-0.458856	0.376277
	O160	O	0.080552	-0.458231	0.329063
	O161	O	0.015424	-0.459551	0.318709
	O162	O	0.080452	-0.289921	0.328800
	O163	O	0.082942	-0.208393	0.293058
	O164	O	0.024582	-0.207980	0.247593
	O165	O	0.107962	-0.290495	0.330665
	O166	O	0.109040	-0.208639	0.293247
	O167	O	0.163448	-0.209306	0.225878
	O168	O	0.015322	-0.291316	0.318418
	O169	O	0.082896	-0.040076	0.293199
	O170	O	0.024596	-0.039898	0.247428
	O171	O	0.163493	-0.040991	0.225819
	O172	O	0.109073	-0.040563	0.293243
	O173	O	0.166220	-0.290684	0.376536
	O174	O	0.001419	-0.124595	0.320028
	O175	O	0.176374	-0.374929	0.217471
	C176	C	0.143143	-0.284781	0.357328
	C177	C	0.149105	-0.374479	0.361956
	C178	C	0.143070	-0.464084	0.357463
	C179	C	0.131376	-0.463980	0.348807
	C180	C	0.125373	-0.374326	0.344375
	C181	C	0.131443	-0.284706	0.348655
	C182	C	0.112911	-0.374341	0.334490
	C183	C	0.161442	-0.374827	0.372337
	C184	C	0.074938	-0.374247	0.328476
	C185	C	0.060930	-0.374880	0.326759
	C186	C	0.054318	-0.285040	0.325157
	C187	C	0.041526	-0.285139	0.321967
	C188	C	0.034947	-0.374994	0.320381
	C189	C	0.041557	-0.464826	0.322003
	C190	C	0.054349	-0.464873	0.325197
	C191	C	0.020918	-0.375270	0.318947
	C192	C	0.078103	-0.124244	0.289067
	C193	C	0.065775	-0.124014	0.278607
	C194	C	0.059780	-0.034394	0.274127
	C195	C	0.048074	-0.034423	0.265490
	C196	C	0.042003	-0.124026	0.261138
	C197	C	0.048039	-0.213674	0.265514
	C198	C	0.059752	-0.213558	0.274116
	C199	C	0.029497	-0.123984	0.251253
	C200	C	0.113717	-0.124728	0.287808
	C201	C	0.125508	-0.124482	0.273542
	C202	C	0.131145	-0.213780	0.266927
	C203	C	0.141973	-0.213992	0.253527
	C204	C	0.147430	-0.124755	0.246440
	C205	C	0.141841	-0.035464	0.253158
	C206	C	0.131018	-0.035248	0.266541
	C207	C	0.158944	-0.125128	0.231524
	H208	H	0.146226	-0.283070	0.248420
	H209	H	0.127008	-0.282831	0.272296
	H210	H	0.147675	-0.215014	0.360665
	H211	H	0.126944	-0.215023	0.345224
	H212	H	0.096543	-0.375699	0.284359
	H213	H	0.092572	-0.124993	0.339932
	H214	H	0.003156	-0.124431	0.305732
	H215	H	0.176680	-0.374181	0.231768
	H216	H	0.064272	-0.283222	0.277548
	H217	H	0.043519	-0.283408	0.262178
	H218	H	0.036556	-0.215219	0.320678
	H219	H	0.059260	-0.215119	0.326401
	H220	H	0.043504	0.035286	0.262150
	H221	H	0.064254	0.035456	0.277501
	H222	H	0.059311	-0.534879	0.326447
	H223	H	0.036613	-0.534565	0.320759
	H224	H	0.126794	-0.533715	0.345503
	H225	H	0.147541	-0.533960	0.360885
	H226	H	0.126757	0.033870	0.271546
	H227	H	0.145955	0.033627	0.247679
	Al228	Al	0.095448	-0.000127	0.312304
	Al229	Al	0.095460	0.250878	0.312449
	Al230	Al	0.012094	0.249754	0.228785
	Al231	Al	0.012108	0.001241	0.228852
	O232	O	0.107943	0.041197	0.330838
	O233	O	0.095940	0.125710	0.298938
	O234	O	0.094451	0.375284	0.325796
	O235	O	0.166304	0.041491	0.376398
	O236	O	0.080630	0.041263	0.328958
	O237	O	0.015424	0.040656	0.318875
	O238	O	0.080535	0.209539	0.328920
	O239	O	0.082943	0.291402	0.293278
	O240	O	0.024697	0.291174	0.247315
	O241	O	0.107993	0.209570	0.330965
	O242	O	0.109123	0.291442	0.293566
	O243	O	0.163320	0.291357	0.225770
	O244	O	0.015423	0.208909	0.318560
	O245	O	0.082841	0.459364	0.293429
	O246	O	0.024624	0.459347	0.247389
	O247	O	0.163367	0.459273	0.225818
	O248	O	0.109028	0.459562	0.293409
	O249	O	0.166234	0.209588	0.376550
	O250	O	0.001408	0.375227	0.320085
	O251	O	0.176301	0.125293	0.217530
	C252	C	0.143144	0.214870	0.357347
	C253	C	0.149124	0.125254	0.361970
	C254	C	0.143093	0.035454	0.357620
	C255	C	0.131383	0.035514	0.348957
	C256	C	0.125368	0.125257	0.344524
	C257	C	0.131434	0.214927	0.348691
	C258	C	0.112900	0.125235	0.334651
	C259	C	0.161426	0.125458	0.372425
	C260	C	0.075014	0.125161	0.328477
	C261	C	0.060991	0.124815	0.326755
	C262	C	0.054383	0.214757	0.325257
	C263	C	0.041572	0.214763	0.322136
	C264	C	0.034988	0.124858	0.320500
	C265	C	0.041587	0.034836	0.321929
	C266	C	0.054393	0.034905	0.325045
	C267	C	0.020952	0.124886	0.319124
	C268	C	0.078064	0.375274	0.289219
	C269	C	0.065782	0.375409	0.278668
	C270	C	0.059744	0.464939	0.274211
	C271	C	0.048066	0.464842	0.265439
	C272	C	0.042065	0.375263	0.260938
	C273	C	0.048148	0.285686	0.265215
	C274	C	0.059827	0.285856	0.274001
	C275	C	0.029600	0.375294	0.251052
	C276	C	0.113707	0.375469	0.288030
	C277	C	0.125436	0.375059	0.273669
	C278	C	0.131005	0.286046	0.266919
	C279	C	0.141800	0.286251	0.253450
	C280	C	0.147285	0.375304	0.246441
	C281	C	0.141780	0.463987	0.253383
	C282	C	0.130970	0.464024	0.266826
	C283	C	0.158813	0.375163	0.231563
	H284	H	0.145986	0.217415	0.248239
	H285	H	0.126945	0.217401	0.272290
	H286	H	0.147640	0.284686	0.360673
	H287	H	0.126906	0.284718	0.345292
	H288	H	0.096152	0.125582	0.284456
	H289	H	0.092622	0.375214	0.340041
	H290	H	0.003069	0.375635	0.305731
	H291	H	0.176812	0.126245	0.231949
	H292	H	0.064345	0.216342	0.277383
	H293	H	0.043691	0.216218	0.261695
	H294	H	0.036601	0.284710	0.320923
	H295	H	0.059330	0.284822	0.326541
	H296	H	0.043545	0.534217	0.262059
	H297	H	0.064214	0.534758	0.277666
	H298	H	0.059348	-0.034976	0.326162
	H299	H	0.036647	-0.035364	0.320591
	H300	H	0.126805	-0.034342	0.345767
	H301	H	0.147565	-0.034381	0.361148
	H302	H	0.126823	0.533204	0.272197
	H303	H	0.145937	0.533203	0.248045
	Al304	Al	0.083358	-0.500003	0.416869
	Al305	Al	0.083359	-0.249928	0.416768
	Al306	Al	-0.000020	-0.249745	0.333419
	Al307	Al	0.000029	-0.499778	0.333461
	O308	O	0.095305	-0.458944	0.436955
	O309	O	0.084646	-0.375276	0.403400
	O310	O	0.081834	-0.125102	0.430206
	O311	O	0.154741	-0.459337	0.479924
	O312	O	0.067948	-0.459106	0.431628
	O313	O	0.002864	-0.459464	0.421239
	O314	O	0.067948	-0.290900	0.431581
	O315	O	0.071434	-0.209102	0.396517
	O316	O	0.011930	-0.209039	0.353452
	O317	O	0.095202	-0.290941	0.437035
	O318	O	0.098724	-0.209386	0.402030
	O319	O	0.163839	-0.208257	0.412292
	O320	O	0.002853	-0.291374	0.421192
	O321	O	0.071379	-0.041066	0.396617
	O322	O	0.011811	-0.041357	0.353871
	O323	O	0.163832	-0.039990	0.412097
	O324	O	0.098686	-0.041415	0.401912
	O325	O	0.154801	-0.291415	0.479983
	O326	O	-0.011063	-0.125367	0.424477
	O327	O	0.177703	-0.374753	0.408858
	C328	C	0.130995	-0.285239	0.462396
	C329	C	0.137210	-0.375033	0.466347
	C330	C	0.131019	-0.464496	0.462235
	C331	C	0.119033	-0.464177	0.454530
	C332	C	0.112842	-0.374543	0.450552
	C333	C	0.118996	-0.284932	0.454705
	C334	C	0.100219	-0.374786	0.440865
	C335	C	0.149823	-0.375307	0.476098
	C336	C	0.062408	-0.375004	0.431170
	C337	C	0.048392	-0.375257	0.429690
	C338	C	0.041789	-0.285403	0.428184
	C339	C	0.028983	-0.285348	0.424995
	C340	C	0.022430	-0.375367	0.423311
	C341	C	0.029006	-0.465229	0.425117
	C342	C	0.041815	-0.465203	0.428283
	C343	C	0.008409	-0.375464	0.421669
	C344	C	0.066479	-0.125125	0.392679
	C345	C	0.053820	-0.125236	0.383029
	C346	C	0.047631	-0.035614	0.379000
	C347	C	0.035646	-0.035414	0.371284
	C348	C	0.029497	-0.125179	0.367164
	C349	C	0.035636	-0.214908	0.371302
	C350	C	0.047619	-0.214970	0.379002
	C351	C	0.016828	-0.125112	0.357530
	C352	C	0.104263	-0.125290	0.402306
	C353	C	0.118291	-0.124885	0.403708
	C354	C	0.124913	-0.214567	0.405298
	C355	C	0.137727	-0.214305	0.408475
	C356	C	0.144283	-0.124329	0.410016
	C357	C	0.137675	-0.034599	0.408252
	C358	C	0.124848	-0.034901	0.405081
	C359	C	0.158294	-0.124120	0.411726
	H360	H	0.142696	-0.284151	0.409836
	H361	H	0.120014	-0.285054	0.404126
	H362	H	0.135608	-0.215073	0.465357
	H363	H	0.114396	-0.214789	0.451731
	H364	H	0.086020	-0.375401	0.389076
	H365	H	0.079775	-0.125482	0.444465
	H366	H	-0.009299	-0.125966	0.410177
	H367	H	0.175896	-0.374502	0.423163
	H368	H	0.052204	-0.285143	0.381984
	H369	H	0.031024	-0.285223	0.368423
	H370	H	0.024043	-0.215441	0.423688
	H371	H	0.046728	-0.215336	0.429295
	H372	H	0.031052	0.034811	0.368323
	H373	H	0.052217	0.034734	0.381857
	H374	H	0.046748	-0.535288	0.429557
	H375	H	0.024076	-0.535275	0.423896
	H376	H	0.114444	-0.534220	0.451465
	H377	H	0.135601	-0.534954	0.465038
	H378	H	0.119890	0.035082	0.403751
	H379	H	0.142562	0.035648	0.409445
	Al380	Al	0.083362	-0.000215	0.416706
	Al381	Al	0.083332	0.249840	0.416762
	Al382	Al	-0.000009	0.250355	0.333399
	Al383	Al	0.000022	0.000246	0.333525
	O384	O	0.095280	0.040971	0.436853
	O385	O	0.084768	0.125074	0.403251
	O386	O	0.081899	0.374962	0.430213
	O387	O	0.154702	0.040538	0.480046
	O388	O	0.067946	0.040850	0.431466
	O389	O	0.002862	0.040510	0.421204
	O390	O	0.068008	0.209092	0.431495
	O391	O	0.071513	0.291254	0.396429
	O392	O	0.011922	0.291389	0.353480
	O393	O	0.095260	0.208935	0.436928
	O394	O	0.098773	0.290555	0.402116
	O395	O	0.163891	0.291444	0.412120
	O396	O	0.002911	0.208895	0.421296
	O397	O	0.071388	0.459391	0.396635
	O398	O	0.011842	0.459199	0.353814
	O399	O	0.163868	0.459447	0.411989
	O400	O	0.098698	0.458686	0.402013
	O401	O	0.154768	0.208723	0.479753
	O402	O	-0.011029	0.374277	0.424494
	O403	O	0.177871	0.125360	0.408962
	C404	C	0.130980	0.214548	0.462362
	C405	C	0.137166	0.124731	0.466369
	C406	C	0.130997	0.035062	0.462330
	C407	C	0.119022	0.035101	0.454538
	C408	C	0.112860	0.124884	0.450401
	C409	C	0.119000	0.214609	0.454573
	C410	C	0.100234	0.125028	0.440739
	C411	C	0.149783	0.124593	0.476119
	C412	C	0.062424	0.125118	0.431100
	C413	C	0.048391	0.125168	0.429794
	C414	C	0.041811	0.214980	0.428112
	C415	C	0.029002	0.214648	0.424948
	C416	C	0.022424	0.124606	0.423502
	C417	C	0.028999	0.034789	0.425142
	C418	C	0.041822	0.035066	0.428261
	C419	C	0.008426	0.124583	0.421745
	C420	C	0.066529	0.375160	0.392630
	C421	C	0.053900	0.375003	0.382887
	C422	C	0.047707	0.464674	0.378941
	C423	C	0.035692	0.464606	0.371313
	C424	C	0.029483	0.374923	0.367260
	C425	C	0.035689	0.285290	0.371258
	C426	C	0.047690	0.285286	0.378901
	C427	C	0.016830	0.375268	0.357507
	C428	C	0.104306	0.374709	0.402412
	C429	C	0.118327	0.375097	0.403680
	C430	C	0.124925	0.285367	0.405235
	C431	C	0.137749	0.285375	0.408377
	C432	C	0.144313	0.375182	0.409891
	C433	C	0.137713	0.464966	0.408382
	C434	C	0.124897	0.464945	0.405236
	C435	C	0.158295	0.375409	0.411599
	H436	H	0.142649	0.215088	0.409607
	H437	H	0.120004	0.215560	0.403952
	H438	H	0.135578	0.284710	0.465251
	H439	H	0.114419	0.284966	0.451527
	H440	H	0.086703	0.125239	0.389020
	H441	H	0.080130	0.374352	0.444399
	H442	H	-0.009258	0.373943	0.410161
	H443	H	0.176160	0.125324	0.423180
	H444	H	0.052292	0.215030	0.381845
	H445	H	0.031082	0.215060	0.368397
	H446	H	0.024059	0.284578	0.423578
	H447	H	0.046718	0.285275	0.429238
	H448	H	0.031065	0.534858	0.368430
	H449	H	0.052305	0.534935	0.381890
	H450	H	0.046773	-0.034974	0.429479
	H451	H	0.024057	-0.035279	0.423939
	H452	H	0.114452	-0.035250	0.451503
	H453	H	0.135629	-0.035227	0.465184
	H454	H	0.120007	0.535150	0.404038
	H455	H	0.142661	0.534868	0.409586
	Al456	Al	0.071296	-0.500084	0.521123
	Al457	Al	0.071227	-0.250885	0.521165
	Al458	Al	-0.012035	-0.250047	0.437811
	Al459	Al	-0.012010	-0.501239	0.437853
	O460	O	0.083758	-0.459594	0.540338
	O461	O	0.072228	-0.375371	0.507842
	O462	O	0.070835	-0.125698	0.534608
	O463	O	0.142052	-0.459531	0.586067
	O464	O	0.057634	-0.459458	0.540100
	O465	O	0.003227	-0.459577	0.607494
	O466	O	0.057631	-0.291400	0.540146
	O467	O	0.058703	-0.209582	0.502701
	O468	O	0.000438	-0.209488	0.457007
	O469	O	0.083760	-0.291472	0.540361
	O470	O	0.086171	-0.209739	0.504634
	O471	O	0.151268	-0.209953	0.514968
	O472	O	0.003291	-0.291304	0.607642
	O473	O	0.058680	-0.041303	0.502761
	O474	O	0.000493	-0.041213	0.456890
	O475	O	0.151326	-0.041689	0.515019
	O476	O	0.086148	-0.041452	0.504567
	O477	O	0.142128	-0.291401	0.585879
	O478	O	-0.009636	-0.125258	0.615858
	O479	O	0.165228	-0.375192	0.513626
	C480	C	0.118642	-0.285487	0.567997
	C481	C	0.124652	-0.375281	0.572358
	C482	C	0.118607	-0.464962	0.568089
	C483	C	0.106889	-0.464953	0.559443
	C484	C	0.100923	-0.375296	0.554794
	C485	C	0.106911	-0.285643	0.559360
	C486	C	0.088574	-0.375573	0.544418
	C487	C	0.137176	-0.375527	0.582209
	C488	C	0.052966	-0.375537	0.545525
	C489	C	0.041247	-0.375581	0.559901
	C490	C	0.035667	-0.286614	0.566741
	C491	C	0.024840	-0.286555	0.580133
	C492	C	0.019307	-0.375480	0.587031
	C493	C	0.024860	-0.464450	0.580164
	C494	C	0.035682	-0.464423	0.566756
	C495	C	0.007788	-0.375352	0.601854
	C496	C	0.053833	-0.125365	0.498840
	C497	C	0.041334	-0.125522	0.489018
	C498	C	0.035311	-0.035674	0.484759
	C499	C	0.023614	-0.035630	0.476038
	C500	C	0.017626	-0.125468	0.471406
	C501	C	0.023637	-0.215401	0.475889
	C502	C	0.035319	-0.215457	0.484597
	C503	C	0.005313	-0.125412	0.461037
	C504	C	0.091731	-0.125532	0.505054
	C505	C	0.105749	-0.125358	0.506682
	C506	C	0.112311	-0.215221	0.508418
	C507	C	0.125112	-0.215360	0.511629
	C508	C	0.131732	-0.125452	0.513075
	C509	C	0.125165	-0.035489	0.511440
	C510	C	0.112337	-0.035431	0.508275
	C511	C	0.145750	-0.125649	0.514532
	H512	H	0.130011	-0.285536	0.513040
	H513	H	0.107374	-0.285539	0.507266
	H514	H	0.123185	-0.215864	0.571276
	H515	H	0.102439	-0.215625	0.555987
	H516	H	0.073993	-0.375575	0.493549
	H517	H	0.070521	-0.126036	0.549250
	H518	H	-0.009956	-0.125452	0.601473
	H519	H	0.163559	-0.375240	0.527917
	H520	H	0.039889	-0.285045	0.487842
	H521	H	0.019179	-0.285421	0.472464
	H522	H	0.020642	-0.217748	0.585453
	H523	H	0.039827	-0.217803	0.561462
	H524	H	0.019097	0.034281	0.472679
	H525	H	0.039867	0.034102	0.488097
	H526	H	0.039868	-0.533173	0.561466
	H527	H	0.020705	-0.533129	0.585422
	H528	H	0.102369	-0.534457	0.556134
	H529	H	0.123103	-0.534687	0.571480
	H530	H	0.107406	0.034629	0.506977
	H531	H	0.130116	0.034553	0.512721
	Al532	Al	0.071281	-0.000087	0.521200
	Al533	Al	0.071320	0.248832	0.521200
	Al534	Al	-0.011990	0.249804	0.437868
	Al535	Al	-0.012042	-0.001061	0.437700
	O536	O	0.083741	0.039864	0.540440
	O537	O	0.072234	0.124282	0.507822
	O538	O	0.070839	0.374440	0.534555
	O539	O	0.142121	0.040338	0.585847
	O540	O	0.057648	0.040515	0.540267
	O541	O	0.003214	0.040771	0.607504
	O542	O	0.057633	0.208664	0.540174
	O543	O	0.058828	0.290416	0.502662
	O544	O	0.000470	0.290295	0.457047
	O545	O	0.083717	0.208090	0.540407
	O546	O	0.086226	0.290074	0.504605
	O547	O	0.151209	0.290106	0.514649
	O548	O	0.003267	0.209035	0.607630
	O549	O	0.058768	0.458622	0.502659
	O550	O	0.000509	0.458520	0.456947
	O551	O	0.151287	0.458382	0.514855
	O552	O	0.086167	0.458412	0.504550
	O553	O	0.142122	0.208605	0.585861
	O554	O	-0.009708	0.374700	0.615880
	O555	O	0.165142	0.124647	0.513437
	C556	C	0.118613	0.213925	0.568020
	C557	C	0.124685	0.124512	0.572356
	C558	C	0.118593	0.034881	0.568210
	C559	C	0.106873	0.034521	0.559605
	C560	C	0.100899	0.124030	0.554962
	C561	C	0.106887	0.213755	0.559440
	C562	C	0.088546	0.124080	0.544522
	C563	C	0.137203	0.124432	0.582127
	C564	C	0.052988	0.124690	0.545624
	C565	C	0.041213	0.124981	0.559899
	C566	C	0.035685	0.214116	0.566819
	C567	C	0.024866	0.214001	0.580227
	C568	C	0.019296	0.124883	0.586983
	C569	C	0.024773	0.035854	0.579946
	C570	C	0.035596	0.035798	0.566546
	C571	C	0.007785	0.124780	0.601878
	C572	C	0.053855	0.374366	0.498918
	C573	C	0.041375	0.374345	0.489078
	C574	C	0.035316	0.463899	0.484737
	C575	C	0.023620	0.463800	0.476027
	C576	C	0.017625	0.374208	0.471524
	C577	C	0.023665	0.284593	0.475965
	C578	C	0.035366	0.284726	0.484647
	C579	C	0.005296	0.374358	0.461165
	C580	C	0.091749	0.374364	0.505062
	C581	C	0.105731	0.374509	0.506920
	C582	C	0.112306	0.284456	0.508648
	C583	C	0.125114	0.284584	0.511794
	C584	C	0.131690	0.374728	0.513177
	C585	C	0.125115	0.464687	0.511508
	C586	C	0.112308	0.464581	0.508369
	C587	C	0.145704	0.374483	0.514429
	H588	H	0.130065	0.214487	0.513117
	H589	H	0.107362	0.214402	0.507421
	H590	H	0.123145	0.283730	0.571314
	H591	H	0.102377	0.283649	0.556041
	H592	H	0.074066	0.124379	0.493542
	H593	H	0.070255	0.373872	0.549156
	H594	H	-0.009822	0.374387	0.601505
	H595	H	0.163026	0.124569	0.527730
	H596	H	0.039901	0.215183	0.488052
	H597	H	0.019203	0.214919	0.472591
	H598	H	0.020724	0.283311	0.585583
	H599	H	0.039903	0.283143	0.561622
	H600	H	0.019091	0.533543	0.472748
	H601	H	0.039793	0.533549	0.488209
	H602	H	0.039734	-0.033154	0.561158
	H603	H	0.020574	-0.033274	0.585110
	H604	H	0.102354	-0.035279	0.556350
	H605	H	0.123112	-0.034793	0.571691
	H606	H	0.107344	0.534902	0.506981
	H607	H	0.130062	0.535020	0.512657
	Al608	Al	0.074047	-0.500170	0.712209
	Al609	Al	0.074105	-0.250240	0.712235
	Al610	Al	-0.009220	-0.250103	0.628948
	Al611	Al	-0.009265	-0.500467	0.628957
	O612	O	0.087552	-0.459306	0.728788
	O613	O	0.073712	-0.375106	0.699047
	O614	O	0.074547	-0.125221	0.725256
	O615	O	0.143931	-0.459330	0.779234
	O616	O	0.061832	-0.459037	0.734010
	O617	O	0.012034	-0.458967	0.811073
	O618	O	0.061879	-0.291313	0.733980
	O619	O	0.060615	-0.209582	0.695738
	O620	O	0.004221	-0.209465	0.645605
	O621	O	0.087598	-0.290961	0.728798
	O622	O	0.086597	-0.209408	0.690697
	O623	O	0.140965	-0.209075	0.623225
	O624	O	0.012013	-0.290961	0.811122
	O625	O	0.060681	-0.041248	0.695637
	O626	O	0.004255	-0.041091	0.645403
	O627	O	0.140935	-0.041066	0.623255
	O628	O	0.086538	-0.041343	0.690728
	O629	O	0.143937	-0.291094	0.779079
	O630	O	-0.000639	-0.124822	0.820213
	O631	O	0.154152	-0.375402	0.617793
	C632	C	0.121419	-0.286053	0.758796
	C633	C	0.127196	-0.375263	0.763860
	C634	C	0.121483	-0.464688	0.758739
	C635	C	0.110226	-0.465080	0.748710
	C636	C	0.104453	-0.375694	0.743664
	C637	C	0.110182	-0.286441	0.748799
	C638	C	0.092332	-0.375430	0.732850
	C639	C	0.139222	-0.375032	0.774918
	C640	C	0.057624	-0.375089	0.740376
	C641	C	0.046960	-0.374989	0.756998
	C642	C	0.041797	-0.286225	0.764674
	C643	C	0.031920	-0.286128	0.780054
	C644	C	0.026927	-0.374912	0.788079
	C645	C	0.032121	-0.463723	0.780435
	C646	C	0.041998	-0.463917	0.765055
	C647	C	0.016270	-0.374791	0.804734
	C648	C	0.055893	-0.125553	0.691578
	C649	C	0.043851	-0.125313	0.680606
	C650	C	0.038110	-0.036181	0.675534
	C651	C	0.026832	-0.036129	0.665588
	C652	C	0.021052	-0.125193	0.660566
	C653	C	0.026804	-0.214314	0.665600
	C654	C	0.038076	-0.214261	0.675552
	C655	C	0.008968	-0.125243	0.649647
	C656	C	0.091138	-0.125333	0.685045
	C657	C	0.102690	-0.125293	0.670321
	C658	C	0.108237	-0.214103	0.663419
	C659	C	0.119046	-0.213861	0.649988
	C660	C	0.124634	-0.125083	0.643194
	C661	C	0.119036	-0.036082	0.649928
	C662	C	0.108204	-0.036238	0.663333
	C663	C	0.136315	-0.125123	0.628792
	H664	H	0.123174	-0.282790	0.644668
	H665	H	0.104103	-0.282856	0.668632
	H666	H	0.125718	-0.216845	0.762798
	H667	H	0.105800	-0.217504	0.744900
	H668	H	0.073617	-0.375031	0.684693
	H669	H	0.074980	-0.124934	0.739661
	H670	H	-0.001143	-0.124970	0.805771
	H671	H	0.153498	-0.375170	0.632297
	H672	H	0.042408	-0.283308	0.679524
	H673	H	0.022460	-0.283252	0.661687
	H674	H	0.028063	-0.217165	0.785955
	H675	H	0.045543	-0.217057	0.758534
	H676	H	0.022467	0.032595	0.661642
	H677	H	0.042452	0.032699	0.679538
	H678	H	0.045910	-0.532974	0.759235
	H679	H	0.028423	-0.532527	0.786620
	H680	H	0.105843	-0.533832	0.744731
	H681	H	0.125909	-0.533311	0.762703
	H682	H	0.104017	0.032505	0.668547
	H683	H	0.123179	0.032756	0.644566
	Al684	Al	0.074136	-0.000244	0.712201
	Al685	Al	0.074034	0.249612	0.712278
	Al686	Al	-0.009277	0.249834	0.628985
	Al687	Al	-0.009233	-0.000145	0.628929
	O688	O	0.087613	0.040574	0.728816
	O689	O	0.073675	0.124761	0.699101
	O690	O	0.074505	0.374839	0.725326
	O691	O	0.144021	0.041065	0.778899
	O692	O	0.061887	0.040743	0.734043
	O693	O	0.011978	0.041103	0.811154
	O694	O	0.061822	0.208809	0.734012
	O695	O	0.060611	0.290511	0.695695
	O696	O	0.004262	0.290573	0.645498
	O697	O	0.087527	0.208873	0.728954
	O698	O	0.086552	0.290464	0.690807
	O699	O	0.141022	0.290594	0.623417
	O700	O	0.011937	0.209235	0.810936
	O701	O	0.060583	0.458970	0.695724
	O702	O	0.004214	0.458771	0.645469
	O703	O	0.140945	0.458441	0.623507
	O704	O	0.086491	0.458564	0.690774
	O705	O	0.143998	0.209100	0.779008
	O706	O	-0.000710	0.374999	0.820239
	O707	O	0.154187	0.124633	0.617726
	C708	C	0.121488	0.213941	0.758704
	C709	C	0.127230	0.124899	0.763811
	C710	C	0.121487	0.035541	0.758839
	C711	C	0.110221	0.035790	0.748914
	C712	C	0.104443	0.124801	0.743834
	C713	C	0.110213	0.214067	0.748768
	C714	C	0.092336	0.124633	0.733019
	C715	C	0.139285	0.125129	0.774794
	C716	C	0.057620	0.124685	0.740326
	C717	C	0.046924	0.124410	0.756960
	C718	C	0.041770	0.213262	0.764747
	C719	C	0.031864	0.213437	0.780086
	C720	C	0.026811	0.124664	0.787953
	C721	C	0.032021	0.035838	0.780283
	C722	C	0.041920	0.035550	0.764931
	C723	C	0.016192	0.125165	0.804646
	C724	C	0.055863	0.374564	0.691560
	C725	C	0.043811	0.374744	0.680568
	C726	C	0.038069	0.463835	0.675508
	C727	C	0.026839	0.463853	0.665498
	C728	C	0.021055	0.374792	0.660491
	C729	C	0.026796	0.285538	0.665521
	C730	C	0.038035	0.285701	0.675518
	C731	C	0.008986	0.374786	0.649587
	C732	C	0.091063	0.374436	0.685070
	C733	C	0.102589	0.374805	0.670238
	C734	C	0.108110	0.285835	0.663320
	C735	C	0.118917	0.285757	0.649896
	C736	C	0.124536	0.374504	0.643179
	C737	C	0.118966	0.463454	0.649991
	C738	C	0.108153	0.463548	0.663392
	C739	C	0.136306	0.374439	0.628885
	H740	H	0.123070	0.216944	0.644636
	H741	H	0.103905	0.216798	0.668562
	H742	H	0.125881	0.282827	0.762622
	H743	H	0.105846	0.282912	0.744815
	H744	H	0.073272	0.124286	0.684712
	H745	H	0.074993	0.375021	0.739681
	H746	H	-0.001586	0.374931	0.805988
	H747	H	0.153885	0.124527	0.632212
	H748	H	0.042426	0.216836	0.679496
	H749	H	0.022440	0.216778	0.661538
	H750	H	0.028011	0.282146	0.786012
	H751	H	0.045564	0.282492	0.758702
	H752	H	0.022494	0.532881	0.661483
	H753	H	0.042435	0.532863	0.679455
	H754	H	0.045851	-0.033426	0.759072
	H755	H	0.028289	-0.033070	0.786401
	H756	H	0.105846	-0.033325	0.745066
	H757	H	0.125837	-0.033523	0.762828
	H758	H	0.103984	0.532561	0.668695
	H759	H	0.123166	0.532203	0.644759
	Al760	Al	0.083308	-0.499988	0.916530
	Al761	Al	0.083398	-0.249863	0.916585
	Al762	Al	-0.000040	-0.249956	0.833325
	Al763	Al	-0.000002	-0.499922	0.833236
	O764	O	0.096914	-0.459247	0.932754
	O765	O	0.082715	-0.375011	0.903535
	O766	O	0.083926	-0.124778	0.929612
	O767	O	0.152990	-0.459175	0.983740
	O768	O	0.071300	-0.458640	0.938807
	O769	O	0.021443	-0.458400	1.015842
	O770	O	0.071313	-0.290843	0.938748
	O771	O	0.069753	-0.208997	0.900367
	O772	O	0.013627	-0.209173	0.849475
	O773	O	0.096969	-0.290877	0.932666
	O774	O	0.095331	-0.208851	0.894419
	O775	O	0.145217	-0.209202	0.817412
	O776	O	0.021458	-0.290445	1.015817
	O777	O	0.069723	-0.041173	0.900409
	O778	O	0.013594	-0.041075	0.849448
	O779	O	0.145211	-0.041206	0.817337
	O780	O	0.095389	-0.040961	0.894387
	O781	O	0.152980	-0.290786	0.983789
	O782	O	0.008737	-0.124473	1.024457
	O783	O	0.157862	-0.375083	0.808790
	C784	C	0.130551	-0.285556	0.963333
	C785	C	0.136252	-0.374875	0.968523
	C786	C	0.130544	-0.463968	0.963360
	C787	C	0.119357	-0.464099	0.953188
	C788	C	0.113653	-0.374957	0.948006
	C789	C	0.119372	-0.285680	0.953116
	C790	C	0.101651	-0.375191	0.936924
	C791	C	0.148266	-0.374924	0.979524
	C792	C	0.067099	-0.374668	0.945154
	C793	C	0.056446	-0.374425	0.961799
	C794	C	0.051365	-0.285685	0.969679
	C795	C	0.041462	-0.285589	0.985075
	C796	C	0.036393	-0.374357	0.992926
	C797	C	0.041449	-0.463147	0.985039
	C798	C	0.051355	-0.463172	0.969650
	C799	C	0.025716	-0.374356	1.009479
	C800	C	0.064992	-0.125039	0.896198
	C801	C	0.053026	-0.124997	0.885053
	C802	C	0.047262	-0.035977	0.880023
	C803	C	0.036063	-0.035809	0.869866
	C804	C	0.030400	-0.124882	0.864573
	C805	C	0.036156	-0.213796	0.869641
	C806	C	0.047334	-0.214017	0.879825
	C807	C	0.018359	-0.125037	0.853605
	C808	C	0.099589	-0.125091	0.887990
	C809	C	0.110257	-0.125315	0.871400
	C810	C	0.115282	-0.214364	0.863392
	C811	C	0.125182	-0.214284	0.848072
	C812	C	0.130315	-0.125196	0.840327
	C813	C	0.125289	-0.036173	0.848309
	C814	C	0.115402	-0.036461	0.863638
	C815	C	0.140992	-0.125127	0.823760
	H816	H	0.128944	-0.283256	0.841991
	H817	H	0.111351	-0.283427	0.869271
	H818	H	0.134927	-0.216642	0.967297
	H819	H	0.115042	-0.216903	0.948984
	H820	H	0.082166	-0.374895	0.889274
	H821	H	0.084507	-0.125416	0.943980
	H822	H	0.007896	-0.125007	1.010229
	H823	H	0.158298	-0.374876	0.823172
	H824	H	0.051632	-0.283101	0.883794
	H825	H	0.031850	-0.282925	0.865601
	H826	H	0.037641	-0.216713	0.991029
	H827	H	0.055164	-0.217135	0.963691
	H828	H	0.031679	0.032692	0.865946
	H829	H	0.051555	0.032899	0.884230
	H830	H	0.055118	-0.532182	0.963655
	H831	H	0.037641	-0.532253	0.990985
	H832	H	0.115052	-0.532948	0.949195
	H833	H	0.134876	-0.532752	0.967378
	H834	H	0.111615	0.032593	0.869667
	H835	H	0.129159	0.032908	0.842367
	Al836	Al	0.083344	-0.000013	0.916540
	Al837	Al	0.083315	0.250031	0.916513
	Al838	Al	-0.000009	0.250253	0.833294
	Al839	Al	-0.000024	0.000046	0.833300
	O840	O	0.096913	0.041237	0.932726
	O841	O	0.082766	0.124847	0.903534
	O842	O	0.083835	0.375182	0.929515
	O843	O	0.153021	0.040951	0.983770
	O844	O	0.071332	0.041118	0.938684
	O845	O	0.021501	0.041273	1.015812
	O846	O	0.071320	0.209203	0.938748
	O847	O	0.069739	0.291009	0.900272
	O848	O	0.013616	0.290918	0.849442
	O849	O	0.096956	0.209605	0.932700
	O850	O	0.095283	0.290992	0.894230
	O851	O	0.145227	0.290679	0.817393
	O852	O	0.021448	0.209173	1.015700
	O853	O	0.069708	0.459376	0.900280
	O854	O	0.013664	0.459307	0.849343
	O855	O	0.145268	0.458661	0.817432
	O856	O	0.095388	0.459167	0.894478
	O857	O	0.153002	0.209190	0.983683
	O858	O	0.008795	0.375550	1.024418
	O859	O	0.157875	0.124269	0.808672
	C860	C	0.130608	0.213719	0.963210
	C861	C	0.136275	0.124856	0.968450
	C862	C	0.130547	0.036056	0.963289
	C863	C	0.119368	0.036417	0.953084
	C864	C	0.113692	0.125295	0.947889
	C865	C	0.119425	0.214010	0.953010
	C866	C	0.101650	0.125512	0.936908
	C867	C	0.148289	0.124999	0.979544
	C868	C	0.067104	0.125000	0.945066
	C869	C	0.056489	0.125027	0.961814
	C870	C	0.051436	0.213825	0.969676
	C871	C	0.041552	0.213771	0.985042
	C872	C	0.036427	0.125006	0.992827
	C873	C	0.041504	0.036060	0.985002
	C874	C	0.051395	0.036181	0.969633
	C875	C	0.025714	0.125182	1.009366
	C876	C	0.064978	0.375071	0.896150
	C877	C	0.052963	0.375055	0.885144
	C878	C	0.047253	0.464524	0.880043
	C879	C	0.036058	0.464675	0.869896
	C880	C	0.030361	0.375266	0.864739
	C881	C	0.036083	0.285753	0.869822
	C882	C	0.047301	0.285565	0.879956
	C883	C	0.018369	0.375150	0.853593
	C884	C	0.099533	0.375205	0.888025
	C885	C	0.110218	0.375203	0.871373
	C886	C	0.115228	0.286087	0.863409
	C887	C	0.125141	0.285941	0.848068
	C888	C	0.130295	0.374839	0.840333
	C889	C	0.125277	0.463897	0.848287
	C890	C	0.115371	0.464107	0.863641
	C891	C	0.141020	0.374820	0.823776
	H892	H	0.128920	0.216802	0.842037
	H893	H	0.111374	0.217128	0.869339
	H894	H	0.134973	0.282288	0.967152
	H895	H	0.115110	0.282942	0.949000
	H896	H	0.082324	0.124552	0.889176
	H897	H	0.084404	0.374217	0.943826
	H898	H	0.008397	0.374934	1.010060
	H899	H	0.158178	0.124592	0.823100
	H900	H	0.051684	0.216399	0.883944
	H901	H	0.031756	0.216903	0.865744
	H902	H	0.037735	0.282811	0.991020
	H903	H	0.055217	0.282830	0.963685
	H904	H	0.031737	0.533892	0.865809
	H905	H	0.051539	0.533652	0.883997
	H906	H	0.055163	-0.032668	0.963506
	H907	H	0.037681	-0.032672	0.990948
	H908	H	0.114994	-0.032175	0.949104
	H909	H	0.134866	-0.032730	0.967399
	H910	H	0.111624	0.533032	0.869740
	H911	H	0.129172	0.533029	0.842397
	Al912	Al	0.250005	-0.499938	0.083396
	Al913	Al	0.249929	-0.250031	0.083348
	Al914	Al	0.166603	-0.250115	-0.000109
	Al915	Al	0.166605	-0.500074	-0.000075
	O916	O	0.263614	-0.458986	0.099525
	O917	O	0.249331	-0.374989	0.070436
	O918	O	0.250504	-0.125113	0.096415
	O919	O	0.319709	-0.459077	0.150397
	O920	O	0.238021	-0.459081	0.105580
	O921	O	0.188163	-0.459106	0.182555
	O922	O	0.237978	-0.291206	0.105513
	O923	O	0.236283	-0.209343	0.067138
	O924	O	0.180256	-0.209070	0.015987
	O925	O	0.263599	-0.290854	0.099540
	O926	O	0.261977	-0.209015	0.061230
	O927	O	0.311868	-0.208955	-0.015762
	O928	O	0.188123	-0.291219	0.182559
	O929	O	0.236316	-0.041032	0.067167
	O930	O	0.180272	-0.040870	0.016073
	O931	O	0.311869	-0.040924	-0.015865
	O932	O	0.261957	-0.041078	0.061242
	O933	O	0.319748	-0.290856	0.150431
	O934	O	0.175500	-0.124696	0.191280
	O935	O	0.324482	-0.375518	-0.024501
	C936	C	0.297220	-0.285722	0.130217
	C937	C	0.302967	-0.374921	0.135287
	C938	C	0.297282	-0.464360	0.130147
	C939	C	0.286091	-0.464138	0.119950
	C940	C	0.280375	-0.374917	0.114763
	C941	C	0.286044	-0.285669	0.120002
	C942	C	0.268359	-0.374947	0.103733
	C943	C	0.314988	-0.374941	0.146272
	C944	C	0.233815	-0.375111	0.111896
	C945	C	0.223115	-0.375105	0.128499
	C946	C	0.218063	-0.286185	0.136414
	C947	C	0.208174	-0.286224	0.151768
	C948	C	0.203040	-0.374871	0.159543
	C949	C	0.208134	-0.463551	0.151698
	C950	C	0.218033	-0.463749	0.136373
	C951	C	0.192346	-0.375104	0.176118
	C952	C	0.231592	-0.125124	0.062976
	C953	C	0.219571	-0.125012	0.051859
	C954	C	0.213925	-0.035895	0.046546
	C955	C	0.202745	-0.035842	0.036332
	C956	C	0.197014	-0.124918	0.031271
	C957	C	0.202659	-0.213990	0.036537
	C958	C	0.213851	-0.214114	0.046752
	C959	C	0.185010	-0.125057	0.020195
	C960	C	0.266196	-0.124993	0.054836
	C961	C	0.276847	-0.125015	0.038179
	C962	C	0.281982	-0.213906	0.030385
	C963	C	0.291898	-0.213805	0.015059
	C964	C	0.296963	-0.124868	0.007155
	C965	C	0.291863	-0.035931	0.015014
	C966	C	0.281955	-0.036084	0.030352
	C967	C	0.307620	-0.125021	-0.009466
	H968	H	0.295753	-0.282963	0.009106
	H969	H	0.278206	-0.283058	0.036447
	H970	H	0.301530	-0.216750	0.134311
	H971	H	0.281704	-0.216708	0.115984
	H972	H	0.248636	-0.375141	0.056095
	H973	H	0.251138	-0.125693	0.110723
	H974	H	0.174904	-0.124726	0.176981
	H975	H	0.325097	-0.375060	-0.010193
	H976	H	0.218161	-0.282848	0.050833
	H977	H	0.198278	-0.282746	0.032582
	H978	H	0.204360	-0.217229	0.157737
	H979	H	0.221945	-0.217423	0.130503
	H980	H	0.198471	0.033125	0.032205
	H981	H	0.218299	0.032823	0.050462
	H982	H	0.221905	-0.532635	0.130448
	H983	H	0.204315	-0.532167	0.157622
	H984	H	0.281775	-0.533261	0.115919
	H985	H	0.301584	-0.533340	0.134244
	H986	H	0.278137	0.032885	0.036451
	H987	H	0.295675	0.033279	0.009062
	Al988	Al	0.249952	-0.000183	0.083372
	Al989	Al	0.249965	0.249880	0.083397
	Al990	Al	0.166646	0.250171	-0.000151
	Al991	Al	0.166661	-0.000230	-0.000102
	O992	O	0.263611	0.040695	0.099501
	O993	O	0.249385	0.124929	0.070356
	O994	O	0.250607	0.374999	0.096377
	O995	O	0.319646	0.040323	0.150417
	O996	O	0.237921	0.040960	0.105495
	O997	O	0.188076	0.041158	0.182596
	O998	O	0.237990	0.209059	0.105615
	O999	O	0.236306	0.290989	0.067248
	O1000	O	0.180274	0.290923	0.016030
	O1001	O	0.263674	0.209000	0.099378
	O1002	O	0.261942	0.290629	0.061140
	O1003	O	0.311869	0.290647	-0.015780
	O1004	O	0.188070	0.209230	0.182499
	O1005	O	0.236375	0.459075	0.067185
	O1006	O	0.180240	0.459064	0.016108
	O1007	O	0.311877	0.458571	-0.015701
	O1008	O	0.262023	0.458750	0.061239
	O1009	O	0.319646	0.208619	0.150447
	O1010	O	0.175434	0.375227	0.191224
	O1011	O	0.324486	0.124758	-0.024402
	C1012	C	0.297258	0.213793	0.129964
	C1013	C	0.302946	0.124661	0.135178
	C1014	C	0.297237	0.035422	0.130042
	C1015	C	0.286045	0.035332	0.119889
	C1016	C	0.280359	0.124474	0.114712
	C1017	C	0.286072	0.213742	0.119820
	C1018	C	0.268342	0.124848	0.103676
	C1019	C	0.314939	0.124341	0.146274
	C1020	C	0.233743	0.125021	0.111955
	C1021	C	0.223077	0.125046	0.128575
	C1022	C	0.218072	0.213881	0.136538
	C1023	C	0.208148	0.213987	0.151870
	C1024	C	0.203024	0.125048	0.159654
	C1025	C	0.208000	0.036146	0.151587
	C1026	C	0.217923	0.036100	0.136254
	C1027	C	0.192323	0.125120	0.176184
	C1028	C	0.231610	0.375037	0.063009
	C1029	C	0.219627	0.375237	0.051881
	C1030	C	0.213906	0.464431	0.046706
	C1031	C	0.202734	0.464517	0.036489
	C1032	C	0.197024	0.375224	0.031282
	C1033	C	0.202714	0.286189	0.036559
	C1034	C	0.213875	0.286095	0.046796
	C1035	C	0.184992	0.375269	0.020218
	C1036	C	0.266224	0.374538	0.054831
	C1037	C	0.276845	0.374417	0.038161
	C1038	C	0.281972	0.285519	0.030388
	C1039	C	0.291884	0.285353	0.015057
	C1040	C	0.296930	0.374314	0.007126
	C1041	C	0.291808	0.463243	0.014911
	C1042	C	0.281893	0.463374	0.030254
	C1043	C	0.307629	0.374471	-0.009424
	H1044	H	0.295738	0.216391	0.009113
	H1045	H	0.278182	0.216730	0.036471
	H1046	H	0.301570	0.282919	0.133992
	H1047	H	0.281711	0.282400	0.115792
	H1048	H	0.248919	0.125128	0.055974
	H1049	H	0.251375	0.374780	0.110733
	H1050	H	0.175007	0.374992	0.176865
	H1051	H	0.324656	0.124759	-0.010049
	H1052	H	0.218198	0.216844	0.050898
	H1053	H	0.198344	0.217269	0.032680
	H1054	H	0.204397	0.283050	0.157902
	H1055	H	0.221928	0.282860	0.130562
	H1056	H	0.198373	0.533318	0.032479
	H1057	H	0.218234	0.533325	0.050753
	H1058	H	0.221646	-0.033010	0.130105
	H1059	H	0.204079	-0.032901	0.157368
	H1060	H	0.281695	-0.033724	0.115947
	H1061	H	0.301560	-0.033372	0.134144
	H1062	H	0.278043	0.532246	0.036240
	H1063	H	0.295629	0.532330	0.008928
	Al1064	Al	0.259191	-0.500031	0.287726
	Al1065	Al	0.259270	-0.249826	0.287634
	Al1066	Al	0.175920	-0.249800	0.204387
	Al1067	Al	0.175867	-0.499995	0.204361
	O1068	O	0.272698	-0.459248	0.304103
	O1069	O	0.258710	-0.375161	0.274497
	O1070	O	0.259770	-0.125060	0.300759
	O1071	O	0.329011	-0.458883	0.354603
	O1072	O	0.246820	-0.458476	0.309092
	O1073	O	0.192405	-0.458593	0.376609
	O1074	O	0.246720	-0.290341	0.309050
	O1075	O	0.245738	-0.208649	0.271262
	O1076	O	0.189404	-0.208887	0.221016
	O1077	O	0.272703	-0.291163	0.304230
	O1078	O	0.271456	-0.209439	0.265744
	O1079	O	0.321322	-0.209564	0.188699
	O1080	O	0.192444	-0.290536	0.376766
	O1081	O	0.245744	-0.040335	0.271203
	O1082	O	0.189348	-0.040643	0.221084
	O1083	O	0.321312	-0.041507	0.188691
	O1084	O	0.271515	-0.041529	0.265735
	O1085	O	0.328962	-0.290460	0.354582
	O1086	O	0.179208	-0.124778	0.382163
	O1087	O	0.333924	-0.374889	0.179614
	C1088	C	0.306455	-0.285987	0.334406
	C1089	C	0.312202	-0.375125	0.339533
	C1090	C	0.306475	-0.464365	0.334425
	C1091	C	0.295246	-0.464441	0.324385
	C1092	C	0.289485	-0.375241	0.319320
	C1093	C	0.295226	-0.285921	0.324387
	C1094	C	0.277463	-0.375464	0.308305
	C1095	C	0.324249	-0.374618	0.350467
	C1096	C	0.242257	-0.374379	0.314815
	C1097	C	0.230716	-0.374514	0.329647
	C1098	C	0.225158	-0.285581	0.336525
	C1099	C	0.214365	-0.285435	0.349996
	C1100	C	0.208810	-0.374416	0.356898
	C1101	C	0.214381	-0.463352	0.350027
	C1102	C	0.225164	-0.463428	0.336544
	C1103	C	0.197098	-0.374522	0.371264
	C1104	C	0.240999	-0.124806	0.267098
	C1105	C	0.228930	-0.124555	0.256245
	C1106	C	0.223168	-0.035470	0.251216
	C1107	C	0.211905	-0.035692	0.241231
	C1108	C	0.206187	-0.124957	0.236130
	C1109	C	0.211921	-0.214186	0.241251
	C1110	C	0.223181	-0.213935	0.251250
	C1111	C	0.194121	-0.124765	0.225193
	C1112	C	0.275744	-0.125394	0.259416
	C1113	C	0.286426	-0.125510	0.242812
	C1114	C	0.291531	-0.214475	0.235018
	C1115	C	0.301423	-0.214512	0.219666
	C1116	C	0.306454	-0.125426	0.211770
	C1117	C	0.301320	-0.036472	0.219516
	C1118	C	0.291414	-0.036440	0.234842
	C1119	C	0.317123	-0.125497	0.195141
	H1120	H	0.305291	-0.283550	0.213775
	H1121	H	0.287738	-0.283524	0.241131
	H1122	H	0.310838	-0.217087	0.338265
	H1123	H	0.290873	-0.216750	0.320354
	H1124	H	0.258097	-0.375196	0.260150
	H1125	H	0.260092	-0.124780	0.315071
	H1126	H	0.179651	-0.125006	0.367689
	H1127	H	0.334296	-0.374628	0.194016
	H1128	H	0.227517	-0.282737	0.255266
	H1129	H	0.207616	-0.283169	0.237340
	H1130	H	0.210202	-0.216460	0.355210
	H1131	H	0.229355	-0.216786	0.331217
	H1132	H	0.207520	0.033256	0.237312
	H1133	H	0.227488	0.033377	0.255185
	H1134	H	0.229339	-0.532321	0.331327
	H1135	H	0.210197	-0.532362	0.355321
	H1136	H	0.290934	-0.533556	0.320320
	H1137	H	0.310920	-0.533363	0.338251
	H1138	H	0.287533	0.032746	0.240749
	H1139	H	0.305107	0.032711	0.213556
	Al1140	Al	0.259342	-0.000098	0.287615
	Al1141	Al	0.259205	0.250174	0.287731
	Al1142	Al	0.175800	0.250082	0.204359
	Al1143	Al	0.175943	0.000155	0.204425
	O1144	O	0.272804	0.040798	0.304211
	O1145	O	0.258854	0.124900	0.274531
	O1146	O	0.259653	0.374985	0.300874
	O1147	O	0.329067	0.040840	0.354615
	O1148	O	0.246819	0.040223	0.308988
	O1149	O	0.192450	0.040751	0.376634
	O1150	O	0.246799	0.208705	0.309122
	O1151	O	0.245776	0.290858	0.271117
	O1152	O	0.189359	0.291089	0.220816
	O1153	O	0.272725	0.209038	0.304225
	O1154	O	0.271498	0.291286	0.265999
	O1155	O	0.321298	0.291160	0.188876
	O1156	O	0.192482	0.208868	0.376625
	O1157	O	0.245638	0.458738	0.271383
	O1158	O	0.189325	0.459189	0.220925
	O1159	O	0.321327	0.459050	0.188855
	O1160	O	0.271460	0.459288	0.265960
	O1161	O	0.329071	0.209181	0.354645
	O1162	O	0.179250	0.375020	0.382103
	O1163	O	0.333836	0.124802	0.179583
	C1164	C	0.306490	0.214415	0.334553
	C1165	C	0.312245	0.125192	0.339615
	C1166	C	0.306552	0.036082	0.334513
	C1167	C	0.295315	0.036131	0.324451
	C1168	C	0.289558	0.125259	0.319389
	C1169	C	0.295264	0.214552	0.324444
	C1170	C	0.277509	0.125031	0.308370
	C1171	C	0.324321	0.125130	0.350536
	C1172	C	0.242264	0.124390	0.314736
	C1173	C	0.230740	0.124383	0.329605
	C1174	C	0.225214	0.213413	0.336523
	C1175	C	0.214417	0.213606	0.349968
	C1176	C	0.208851	0.124573	0.356779
	C1177	C	0.214421	0.035377	0.350002
	C1178	C	0.225226	0.035363	0.336530
	C1179	C	0.197098	0.124825	0.371156
	C1180	C	0.240948	0.374781	0.267122
	C1181	C	0.228885	0.374626	0.256221
	C1182	C	0.223121	0.463720	0.251151
	C1183	C	0.211879	0.464037	0.241133
	C1184	C	0.206149	0.375099	0.235939
	C1185	C	0.211904	0.285965	0.240994
	C1186	C	0.223156	0.285700	0.251021
	C1187	C	0.194080	0.375050	0.225012
	C1188	C	0.275664	0.375252	0.259543
	C1189	C	0.286340	0.375322	0.242909
	C1190	C	0.291437	0.286481	0.235118
	C1191	C	0.301342	0.286736	0.219765
	C1192	C	0.306369	0.375560	0.211859
	C1193	C	0.301317	0.464347	0.219749
	C1194	C	0.291411	0.464230	0.235110
	C1195	C	0.317067	0.375285	0.195207
	H1196	H	0.305182	0.217719	0.213873
	H1197	H	0.287636	0.217504	0.241024
	H1198	H	0.310853	0.283252	0.338431
	H1199	H	0.290905	0.283581	0.320518
	H1200	H	0.258191	0.125451	0.260275
	H1201	H	0.260074	0.375546	0.315249
	H1202	H	0.179614	0.375173	0.367578
	H1203	H	0.334491	0.125424	0.193888
	H1204	H	0.227498	0.216459	0.254954
	H1205	H	0.207533	0.217262	0.236966
	H1206	H	0.210241	0.282625	0.355252
	H1207	H	0.229371	0.282539	0.331235
	H1208	H	0.207515	0.533115	0.237338
	H1209	H	0.227442	0.532606	0.255189
	H1210	H	0.229399	-0.033624	0.331275
	H1211	H	0.210248	-0.033579	0.355333
	H1212	H	0.290997	-0.032984	0.320481
	H1213	H	0.310910	-0.032773	0.338396
	H1214	H	0.287566	0.533059	0.241039
	H1215	H	0.305109	0.533147	0.213785
	Al1216	Al	0.262077	-0.500052	0.479042
	Al1217	Al	0.262074	-0.249026	0.478912
	Al1218	Al	0.178727	-0.250156	0.395676
	Al1219	Al	0.178794	-0.499366	0.395536
	O1220	O	0.274581	-0.458882	0.497632
	O1221	O	0.262669	-0.374671	0.465571
	O1222	O	0.261066	-0.124532	0.492301
	O1223	O	0.332944	-0.459017	0.543223
	O1224	O	0.247234	-0.458744	0.495492
	O1225	O	0.182088	-0.459108	0.485359
	O1226	O	0.247205	-0.290553	0.495496
	O1227	O	0.249622	-0.208727	0.459779
	O1228	O	0.191251	-0.208682	0.414139
	O1229	O	0.274627	-0.290546	0.497380
	O1230	O	0.275732	-0.208293	0.459966
	O1231	O	0.330060	-0.208301	0.392444
	O1232	O	0.182068	-0.290985	0.485413
	O1233	O	0.249564	-0.040427	0.459607
	O1234	O	0.191275	-0.040608	0.414093
	O1235	O	0.330095	-0.040280	0.392491
	O1236	O	0.275699	-0.040515	0.459957
	O1237	O	0.332897	-0.290917	0.543264
	O1238	O	0.168117	-0.125248	0.486696
	O1239	O	0.342892	-0.374803	0.384131
	C1240	C	0.309769	-0.285106	0.524102
	C1241	C	0.315740	-0.374831	0.528742
	C1242	C	0.309739	-0.464400	0.524194
	C1243	C	0.298067	-0.464348	0.515524
	C1244	C	0.292016	-0.374757	0.511178
	C1245	C	0.298093	-0.285121	0.515399
	C1246	C	0.279525	-0.374824	0.501317
	C1247	C	0.328106	-0.374977	0.539161
	C1248	C	0.241658	-0.374665	0.495076
	C1249	C	0.227649	-0.374643	0.493448
	C1250	C	0.221067	-0.284706	0.491705
	C1251	C	0.208247	-0.284731	0.488592
	C1252	C	0.201637	-0.374825	0.487217
	C1253	C	0.208232	-0.464830	0.488825
	C1254	C	0.221057	-0.464615	0.491957
	C1255	C	0.187626	-0.375079	0.485808
	C1256	C	0.244752	-0.124667	0.455592
	C1257	C	0.232465	-0.124804	0.445138
	C1258	C	0.226401	-0.035188	0.440812
	C1259	C	0.214690	-0.035479	0.432193
	C1260	C	0.208703	-0.124979	0.427683
	C1261	C	0.214783	-0.214721	0.431856
	C1262	C	0.226503	-0.214428	0.440506
	C1263	C	0.196195	-0.124635	0.417939
	C1264	C	0.280373	-0.124230	0.454506
	C1265	C	0.292122	-0.124149	0.440216
	C1266	C	0.297686	-0.213158	0.433333
	C1267	C	0.308482	-0.213275	0.419894
	C1268	C	0.314033	-0.124311	0.413025
	C1269	C	0.308533	-0.035410	0.420042
	C1270	C	0.297727	-0.035247	0.433483
	C1271	C	0.325526	-0.124218	0.398103
	H1272	H	0.312633	-0.282138	0.414473
	H1273	H	0.293500	-0.282257	0.438531
	H1274	H	0.314321	-0.215445	0.527437
	H1275	H	0.293558	-0.215778	0.511890
	H1276	H	0.263337	-0.374639	0.451065
	H1277	H	0.259205	-0.124342	0.506591
	H1278	H	0.169970	-0.125773	0.472368
	H1279	H	0.343259	-0.374419	0.398510
	H1280	H	0.231048	-0.284079	0.443849
	H1281	H	0.210305	-0.284594	0.428417
	H1282	H	0.203286	-0.214777	0.487218
	H1283	H	0.225995	-0.214430	0.492789
	H1284	H	0.210096	0.034400	0.428966
	H1285	H	0.230771	0.035025	0.444365
	H1286	H	0.226032	-0.534488	0.493253
	H1287	H	0.203341	-0.535203	0.487695
	H1288	H	0.293554	-0.533799	0.512179
	H1289	H	0.314250	-0.534310	0.527612
	H1290	H	0.293561	0.033712	0.438700
	H1291	H	0.312696	0.033639	0.414747
	Al1292	Al	0.262023	0.000320	0.478887
	Al1293	Al	0.261988	0.250700	0.479091
	Al1294	Al	0.178801	0.249728	0.395588
	Al1295	Al	0.178742	0.000749	0.395574
	O1296	O	0.274572	0.041155	0.497364
	O1297	O	0.262500	0.125659	0.465596
	O1298	O	0.261086	0.375295	0.492395
	O1299	O	0.332998	0.041621	0.542940
	O1300	O	0.247152	0.040859	0.495442
	O1301	O	0.181994	0.040851	0.485120
	O1302	O	0.247128	0.209034	0.495678
	O1303	O	0.249480	0.291192	0.460071
	O1304	O	0.191343	0.291352	0.413988
	O1305	O	0.274607	0.209344	0.497477
	O1306	O	0.275676	0.291028	0.459991
	O1307	O	0.330081	0.290647	0.392337
	O1308	O	0.182020	0.208908	0.485383
	O1309	O	0.249588	0.459302	0.459870
	O1310	O	0.191292	0.459365	0.414049
	O1311	O	0.329965	0.458798	0.392343
	O1312	O	0.275773	0.458964	0.460094
	O1313	O	0.332854	0.209953	0.543218
	O1314	O	0.168117	0.374890	0.486683
	O1315	O	0.343066	0.124891	0.384091
	C1316	C	0.309724	0.214423	0.524034
	C1317	C	0.315765	0.125081	0.528617
	C1318	C	0.309811	0.035175	0.524038
	C1319	C	0.298111	0.035137	0.515406
	C1320	C	0.292006	0.124681	0.511081
	C1321	C	0.298041	0.214387	0.515400
	C1322	C	0.279493	0.125080	0.501237
	C1323	C	0.328127	0.125531	0.538959
	C1324	C	0.241578	0.124933	0.495107
	C1325	C	0.227587	0.124978	0.493398
	C1326	C	0.220978	0.214743	0.491702
	C1327	C	0.208180	0.214560	0.488510
	C1328	C	0.201596	0.124617	0.486966
	C1329	C	0.208216	0.034885	0.488605
	C1330	C	0.221022	0.034969	0.491815
	C1331	C	0.187548	0.124728	0.485638
	C1332	C	0.244753	0.375351	0.455771
	C1333	C	0.232401	0.375449	0.445383
	C1334	C	0.226379	0.465131	0.440954
	C1335	C	0.214680	0.465271	0.432203
	C1336	C	0.208734	0.375591	0.427638
	C1337	C	0.214753	0.285914	0.431982
	C1338	C	0.226441	0.285786	0.440711
	C1339	C	0.196246	0.375374	0.417789
	C1340	C	0.280401	0.374844	0.454610
	C1341	C	0.292136	0.374748	0.440260
	C1342	C	0.297700	0.285722	0.433487
	C1343	C	0.308511	0.285585	0.420011
	C1344	C	0.313987	0.374441	0.412995
	C1345	C	0.308477	0.463600	0.419968
	C1346	C	0.297681	0.463773	0.433488
	C1347	C	0.325486	0.374440	0.398063
	H1348	H	0.312637	0.216457	0.414768
	H1349	H	0.293651	0.216701	0.438914
	H1350	H	0.314244	0.284335	0.527277
	H1351	H	0.293504	0.283983	0.511980
	H1352	H	0.262997	0.125733	0.451000
	H1353	H	0.259397	0.375389	0.506608
	H1354	H	0.169997	0.374649	0.472342
	H1355	H	0.343271	0.125074	0.398471
	H1356	H	0.230944	0.215633	0.443925
	H1357	H	0.210287	0.216189	0.428546
	H1358	H	0.203229	0.284584	0.487206
	H1359	H	0.225903	0.284749	0.492966
	H1360	H	0.210151	0.535004	0.428941
	H1361	H	0.230871	0.534830	0.444404
	H1362	H	0.225952	-0.035141	0.493139
	H1363	H	0.203266	-0.035180	0.487467
	H1364	H	0.293588	-0.034572	0.511959
	H1365	H	0.314405	-0.034444	0.527286
	H1366	H	0.293582	0.532917	0.438819
	H1367	H	0.312552	0.532807	0.414637
	Al1368	Al	0.250069	-0.500118	0.583247
	Al1369	Al	0.250009	-0.250344	0.583308
	Al1370	Al	0.166669	-0.250503	0.500217
	Al1371	Al	0.166663	-0.500296	0.500098
	O1372	O	0.262015	-0.459367	0.603327
	O1373	O	0.251518	-0.375139	0.569881
	O1374	O	0.248602	-0.125554	0.596878
	O1375	O	0.321365	-0.459313	0.646742
	O1376	O	0.234681	-0.459133	0.598105
	O1377	O	0.169546	-0.459913	0.588003
	O1378	O	0.234652	-0.291163	0.598068
	O1379	O	0.238055	-0.209090	0.563321
	O1380	O	0.178553	-0.209192	0.520324
	O1381	O	0.261851	-0.291475	0.603610
	O1382	O	0.265443	-0.209854	0.568651
	O1383	O	0.330589	-0.208798	0.578824
	O1384	O	0.169514	-0.291606	0.587685
	O1385	O	0.238035	-0.041247	0.563423
	O1386	O	0.178598	-0.041287	0.520116
	O1387	O	0.330508	-0.040480	0.578722
	O1388	O	0.265408	-0.041692	0.568616
	O1389	O	0.321434	-0.291207	0.646574
	O1390	O	0.155644	-0.125571	0.591051
	O1391	O	0.344552	-0.374807	0.575623
	C1392	C	0.297625	-0.285513	0.629013
	C1393	C	0.303850	-0.375249	0.633012
	C1394	C	0.297701	-0.465078	0.628886
	C1395	C	0.285721	-0.464762	0.621104
	C1396	C	0.279491	-0.375035	0.617051
	C1397	C	0.285626	-0.285341	0.621282
	C1398	C	0.266887	-0.375279	0.607358
	C1399	C	0.316466	-0.375184	0.642713
	C1400	C	0.229062	-0.375202	0.597705
	C1401	C	0.215045	-0.375349	0.596367
	C1402	C	0.208413	-0.285569	0.595012
	C1403	C	0.195612	-0.285666	0.591791
	C1404	C	0.189054	-0.375609	0.590025
	C1405	C	0.195624	-0.465531	0.591731
	C1406	C	0.208434	-0.465265	0.594913
	C1407	C	0.175071	-0.375680	0.588319
	C1408	C	0.233095	-0.125083	0.559544
	C1409	C	0.220486	-0.125208	0.549734
	C1410	C	0.214270	-0.035692	0.545720
	C1411	C	0.202287	-0.035376	0.537952
	C1412	C	0.196128	-0.125014	0.533846
	C1413	C	0.202358	-0.214632	0.537847
	C1414	C	0.214328	-0.214900	0.545595
	C1415	C	0.183510	-0.125147	0.524095
	C1416	C	0.270980	-0.125745	0.569081
	C1417	C	0.285017	-0.125540	0.570457
	C1418	C	0.291619	-0.215417	0.572045
	C1419	C	0.304453	-0.215029	0.575201
	C1420	C	0.310988	-0.125094	0.576754
	C1421	C	0.304411	-0.035174	0.575052
	C1422	C	0.291574	-0.035512	0.571936
	C1423	C	0.324995	-0.124739	0.578317
	H1424	H	0.309396	-0.285031	0.576476
	H1425	H	0.286735	-0.285935	0.570917
	H1426	H	0.302179	-0.215348	0.632054
	H1427	H	0.280971	-0.215182	0.618512
	H1428	H	0.253445	-0.375080	0.555555
	H1429	H	0.246749	-0.125871	0.611182
	H1430	H	0.157407	-0.125804	0.576742
	H1431	H	0.342905	-0.374416	0.590012
	H1432	H	0.218893	-0.285258	0.548479
	H1433	H	0.197757	-0.284681	0.534809
	H1434	H	0.190635	-0.215765	0.590530
	H1435	H	0.213328	-0.215560	0.596289
	H1436	H	0.197685	0.034868	0.535013
	H1437	H	0.218896	0.034455	0.548719
	H1438	H	0.213376	-0.535212	0.596134
	H1439	H	0.190696	-0.535531	0.590460
	H1440	H	0.281149	-0.535137	0.618161
	H1441	H	0.302330	-0.535196	0.631834
	H1442	H	0.286617	0.034672	0.570701
	H1443	H	0.309308	0.035054	0.576183
	Al1444	Al	0.250018	-0.000502	0.583478
	Al1445	Al	0.250015	0.249588	0.583440
	Al1446	Al	0.166645	0.249775	0.500062
	Al1447	Al	0.166671	-0.000585	0.500046
	O1448	O	0.261995	0.040390	0.603454
	O1449	O	0.251425	0.124512	0.569989
	O1450	O	0.248652	0.375097	0.596765
	O1451	O	0.321444	0.040449	0.646667
	O1452	O	0.234659	0.040669	0.598381
	O1453	O	0.169566	0.040402	0.587787
	O1454	O	0.234625	0.208980	0.598203
	O1455	O	0.238131	0.290799	0.563315
	O1456	O	0.178479	0.290739	0.520435
	O1457	O	0.261927	0.208273	0.603547
	O1458	O	0.265393	0.290016	0.568587
	O1459	O	0.330549	0.291515	0.578922
	O1460	O	0.169558	0.208582	0.587811
	O1461	O	0.238128	0.458823	0.563179
	O1462	O	0.178631	0.458860	0.520231
	O1463	O	0.330474	0.459892	0.578741
	O1464	O	0.265378	0.458306	0.568371
	O1465	O	0.321439	0.208276	0.646581
	O1466	O	0.155552	0.374478	0.591137
	O1467	O	0.344429	0.125512	0.575522
	C1468	C	0.297668	0.214054	0.629079
	C1469	C	0.303862	0.124375	0.633069
	C1470	C	0.297751	0.034669	0.628820
	C1471	C	0.285763	0.034826	0.621061
	C1472	C	0.279553	0.124512	0.617140
	C1473	C	0.285661	0.214125	0.621318
	C1474	C	0.266909	0.124327	0.607365
	C1475	C	0.316503	0.124281	0.642776
	C1476	C	0.229107	0.124743	0.597880
	C1477	C	0.215072	0.124655	0.596516
	C1478	C	0.208465	0.214598	0.595040
	C1479	C	0.195655	0.214479	0.591759
	C1480	C	0.189117	0.124406	0.590017
	C1481	C	0.195723	0.034478	0.591641
	C1482	C	0.208524	0.034537	0.594894
	C1483	C	0.175119	0.124405	0.588226
	C1484	C	0.233186	0.374784	0.559400
	C1485	C	0.220538	0.374816	0.549635
	C1486	C	0.214341	0.464432	0.545574
	C1487	C	0.202353	0.464319	0.537849
	C1488	C	0.196179	0.374525	0.533855
	C1489	C	0.202351	0.284955	0.537980
	C1490	C	0.214345	0.285129	0.545696
	C1491	C	0.183510	0.374703	0.524167
	C1492	C	0.270940	0.374267	0.568889
	C1493	C	0.284962	0.374542	0.570395
	C1494	C	0.291598	0.284876	0.571921
	C1495	C	0.304413	0.285397	0.575082
	C1496	C	0.310946	0.375508	0.576683
	C1497	C	0.304337	0.465235	0.575019
	C1498	C	0.291525	0.464778	0.571837
	C1499	C	0.324972	0.375596	0.578367
	H1500	H	0.309335	0.215301	0.576340
	H1501	H	0.286693	0.214658	0.570697
	H1502	H	0.302222	0.284038	0.632055
	H1503	H	0.281063	0.284549	0.618461
	H1504	H	0.253262	0.124652	0.555726
	H1505	H	0.246767	0.375753	0.611115
	H1506	H	0.157260	0.375088	0.576783
	H1507	H	0.342663	0.125863	0.589758
	H1508	H	0.218954	0.214829	0.548675
	H1509	H	0.197782	0.214636	0.535051
	H1510	H	0.190712	0.284716	0.590578
	H1511	H	0.213385	0.284656	0.596383
	H1512	H	0.197738	0.534700	0.534839
	H1513	H	0.218927	0.535025	0.548471
	H1514	H	0.213455	-0.035510	0.596146
	H1515	H	0.190820	-0.035778	0.590287
	H1516	H	0.281205	-0.035348	0.617941
	H1517	H	0.302371	-0.035831	0.631549
	H1518	H	0.286566	0.534630	0.570520
	H1519	H	0.309271	0.535300	0.576289
	Al1520	Al	0.237965	-0.500087	0.687771
	Al1521	Al	0.238000	-0.251041	0.687870
	Al1522	Al	0.154687	-0.250065	0.604280
	Al1523	Al	0.154606	-0.501106	0.604484
	O1524	O	0.250580	-0.460275	0.706761
	O1525	O	0.238977	-0.375535	0.674474
	O1526	O	0.237478	-0.124827	0.701165
	O1527	O	0.308773	-0.460132	0.752573
	O1528	O	0.224354	-0.459091	0.706860
	O1529	O	0.169842	-0.459358	0.774104
	O1530	O	0.224253	-0.290987	0.706827
	O1531	O	0.225422	-0.209572	0.669389
	O1532	O	0.167083	-0.209617	0.623562
	O1533	O	0.250414	-0.292066	0.707121
	O1534	O	0.252893	-0.210212	0.671389
	O1535	O	0.317964	-0.209494	0.681627
	O1536	O	0.169840	-0.291225	0.774084
	O1537	O	0.225414	-0.041573	0.669154
	O1538	O	0.167090	-0.041669	0.623626
	O1539	O	0.317971	-0.041161	0.681593
	O1540	O	0.252828	-0.041760	0.670977
	O1541	O	0.308795	-0.292001	0.752579
	O1542	O	0.157022	-0.125147	0.782476
	O1543	O	0.332054	-0.375137	0.680175
	C1544	C	0.285337	-0.286225	0.734555
	C1545	C	0.291364	-0.375875	0.738970
	C1546	C	0.285340	-0.465494	0.734604
	C1547	C	0.273678	-0.465580	0.725950
	C1548	C	0.267669	-0.375844	0.721406
	C1549	C	0.273654	-0.286282	0.725934
	C1550	C	0.255307	-0.376208	0.711010
	C1551	C	0.303877	-0.376013	0.748809
	C1552	C	0.219639	-0.375334	0.712302
	C1553	C	0.207859	-0.375583	0.726519
	C1554	C	0.202245	-0.286675	0.733203
	C1555	C	0.191405	-0.286646	0.746608
	C1556	C	0.185916	-0.375578	0.753577
	C1557	C	0.191489	-0.464662	0.746814
	C1558	C	0.202339	-0.464682	0.733426
	C1559	C	0.174350	-0.375382	0.768358
	C1560	C	0.220500	-0.125583	0.665512
	C1561	C	0.208002	-0.125949	0.655739
	C1562	C	0.201987	-0.036431	0.651261
	C1563	C	0.190291	-0.036469	0.642581
	C1564	C	0.184226	-0.125949	0.638139
	C1565	C	0.190217	-0.215521	0.642765
	C1566	C	0.201905	-0.215464	0.651491
	C1567	C	0.171899	-0.125792	0.627726
	C1568	C	0.258422	-0.125721	0.671679
	C1569	C	0.272417	-0.125491	0.673294
	C1570	C	0.279005	-0.215471	0.675141
	C1571	C	0.291809	-0.215346	0.678359
	C1572	C	0.298402	-0.125440	0.679759
	C1573	C	0.291804	-0.035521	0.678088
	C1574	C	0.278992	-0.035556	0.674858
	C1575	C	0.312394	-0.125293	0.681181
	H1576	H	0.296751	-0.285551	0.679622
	H1577	H	0.274078	-0.285623	0.673910
	H1578	H	0.289888	-0.216577	0.737884
	H1579	H	0.269108	-0.216427	0.722606
	H1580	H	0.240786	-0.375098	0.660188
	H1581	H	0.236793	-0.124870	0.715665
	H1582	H	0.156612	-0.124434	0.768085
	H1583	H	0.330444	-0.375443	0.694435
	H1584	H	0.206398	-0.285026	0.654948
	H1585	H	0.185670	-0.285357	0.639433
	H1586	H	0.187181	-0.217521	0.751752
	H1587	H	0.206376	-0.217486	0.727907
	H1588	H	0.185821	0.033560	0.639122
	H1589	H	0.206554	0.033164	0.654483
	H1590	H	0.206571	-0.533711	0.728253
	H1591	H	0.187310	-0.533615	0.752099
	H1592	H	0.269186	-0.535523	0.722518
	H1593	H	0.289903	-0.535044	0.737980
	H1594	H	0.274061	0.034473	0.673423
	H1595	H	0.296755	0.034749	0.679125
	Al1596	Al	0.238028	0.000022	0.687639
	Al1597	Al	0.237928	0.248981	0.687651
	Al1598	Al	0.154645	0.250065	0.604345
	Al1599	Al	0.154665	-0.000952	0.604323
	O1600	O	0.250580	0.040211	0.706633
	O1601	O	0.238898	0.124547	0.674260
	O1602	O	0.237432	0.374308	0.701111
	O1603	O	0.308753	0.040339	0.752450
	O1604	O	0.224285	0.040575	0.706665
	O1605	O	0.169950	0.040384	0.774196
	O1606	O	0.224264	0.208358	0.706539
	O1607	O	0.225471	0.290757	0.669012
	O1608	O	0.167151	0.289934	0.623553
	O1609	O	0.250398	0.208467	0.706953
	O1610	O	0.252887	0.290175	0.671234
	O1611	O	0.317963	0.290318	0.681581
	O1612	O	0.169902	0.208443	0.774170
	O1613	O	0.225411	0.458838	0.669296
	O1614	O	0.166999	0.458203	0.623808
	O1615	O	0.318010	0.458587	0.681603
	O1616	O	0.252860	0.458367	0.671131
	O1617	O	0.308725	0.208534	0.752666
	O1618	O	0.157004	0.374617	0.782413
	O1619	O	0.331960	0.124489	0.680313
	C1620	C	0.285250	0.214605	0.734720
	C1621	C	0.291297	0.124912	0.738989
	C1622	C	0.285341	0.035237	0.734469
	C1623	C	0.273644	0.035247	0.725800
	C1624	C	0.267628	0.124870	0.721428
	C1625	C	0.273552	0.214504	0.726080
	C1626	C	0.255292	0.124545	0.710974
	C1627	C	0.303816	0.124485	0.748749
	C1628	C	0.219635	0.124452	0.712120
	C1629	C	0.207894	0.124531	0.726459
	C1630	C	0.202325	0.213542	0.733234
	C1631	C	0.191517	0.213769	0.746709
	C1632	C	0.186024	0.124818	0.753679
	C1633	C	0.191556	0.035858	0.746759
	C1634	C	0.202365	0.035490	0.733293
	C1635	C	0.174454	0.124665	0.768426
	C1636	C	0.220515	0.374823	0.665368
	C1637	C	0.208007	0.374684	0.655558
	C1638	C	0.201955	0.464357	0.651256
	C1639	C	0.190219	0.464371	0.642629
	C1640	C	0.184233	0.374431	0.638142
	C1641	C	0.190252	0.284878	0.642580
	C1642	C	0.201982	0.284879	0.651194
	C1643	C	0.171903	0.374153	0.627813
	C1644	C	0.258420	0.374363	0.671635
	C1645	C	0.272427	0.374421	0.673347
	C1646	C	0.279002	0.284504	0.675088
	C1647	C	0.291824	0.284603	0.678282
	C1648	C	0.298424	0.374728	0.679702
	C1649	C	0.291844	0.464675	0.677962
	C1650	C	0.279030	0.464383	0.674775
	C1651	C	0.312454	0.374572	0.681156
	H1652	H	0.296756	0.214364	0.679685
	H1653	H	0.274057	0.214416	0.673883
	H1654	H	0.289737	0.284215	0.738173
	H1655	H	0.269036	0.284357	0.722742
	H1656	H	0.240475	0.124829	0.660020
	H1657	H	0.237039	0.373738	0.715629
	H1658	H	0.156571	0.375142	0.767981
	H1659	H	0.330081	0.124271	0.694643
	H1660	H	0.206495	0.215216	0.654554
	H1661	H	0.185793	0.214802	0.639221
	H1662	H	0.187344	0.283100	0.751905
	H1663	H	0.206505	0.282862	0.727878
	H1664	H	0.185690	0.534118	0.639277
	H1665	H	0.206445	0.534313	0.654601
	H1666	H	0.206518	-0.033881	0.727968
	H1667	H	0.187368	-0.033381	0.751975
	H1668	H	0.269176	-0.034497	0.722267
	H1669	H	0.289890	-0.034606	0.737647
	H1670	H	0.274107	0.534461	0.673326
	H1671	H	0.296766	0.534715	0.679077
	Al1672	Al	0.240699	-0.500176	0.878947
	Al1673	Al	0.240747	-0.250121	0.878937
	Al1674	Al	0.157423	-0.250339	0.795602
	Al1675	Al	0.157450	-0.500075	0.795643
	O1676	O	0.254195	-0.459551	0.895427
	O1677	O	0.240311	-0.375231	0.865755
	O1678	O	0.241247	-0.124952	0.892047
	O1679	O	0.310616	-0.459436	0.945712
	O1680	O	0.228492	-0.459401	0.900670
	O1681	O	0.178675	-0.458999	0.977847
	O1682	O	0.228596	-0.291228	0.900879
	O1683	O	0.227284	-0.209316	0.862429
	O1684	O	0.170974	-0.209380	0.812090
	O1685	O	0.254298	-0.291254	0.895352
	O1686	O	0.253293	-0.209523	0.857678
	O1687	O	0.307634	-0.209580	0.790067
	O1688	O	0.178619	-0.290662	0.977684
	O1689	O	0.227303	-0.041084	0.862389
	O1690	O	0.170964	-0.041236	0.812048
	O1691	O	0.307612	-0.041770	0.789951
	O1692	O	0.253248	-0.041254	0.857597
	O1693	O	0.310535	-0.291134	0.945762
	O1694	O	0.165976	-0.125129	0.986831
	O1695	O	0.320775	-0.375603	0.784480
	C1696	C	0.288097	-0.286718	0.925363
	C1697	C	0.293797	-0.375798	0.930584
	C1698	C	0.288062	-0.465034	0.925509
	C1699	C	0.276825	-0.464999	0.915483
	C1700	C	0.271062	-0.375842	0.910414
	C1701	C	0.276842	-0.286604	0.915339
	C1702	C	0.259005	-0.375692	0.899424
	C1703	C	0.305818	-0.375415	0.941585
	C1704	C	0.224323	-0.375151	0.907192
	C1705	C	0.213638	-0.374966	0.923813
	C1706	C	0.208543	-0.285903	0.931655
	C1707	C	0.198635	-0.286052	0.946941
	C1708	C	0.193572	-0.375081	0.954831
	C1709	C	0.198660	-0.464174	0.946961
	C1710	C	0.208554	-0.464024	0.931644
	C1711	C	0.182859	-0.374858	0.971389
	C1712	C	0.222585	-0.125161	0.858158
	C1713	C	0.210525	-0.124962	0.847243
	C1714	C	0.204774	-0.035894	0.842158
	C1715	C	0.193523	-0.036039	0.832187
	C1716	C	0.187794	-0.125164	0.827069
	C1717	C	0.193531	-0.214264	0.832166
	C1718	C	0.204793	-0.214146	0.842166
	C1719	C	0.175718	-0.125345	0.816174
	C1720	C	0.257795	-0.125411	0.851881
	C1721	C	0.269318	-0.125511	0.836991
	C1722	C	0.274901	-0.214700	0.830199
	C1723	C	0.285706	-0.214717	0.816756
	C1724	C	0.291204	-0.125695	0.809809
	C1725	C	0.285620	-0.036623	0.816564
	C1726	C	0.274815	-0.036524	0.830004
	C1727	C	0.302946	-0.125512	0.795446
	H1728	H	0.289922	-0.283970	0.811604
	H1729	H	0.270770	-0.283747	0.835537
	H1730	H	0.292447	-0.217827	0.929218
	H1731	H	0.272552	-0.217896	0.911196
	H1732	H	0.240136	-0.375184	0.851318
	H1733	H	0.242033	-0.125027	0.906390
	H1734	H	0.165310	-0.125277	0.972550
	H1735	H	0.320104	-0.375162	0.798969
	H1736	H	0.209209	-0.282700	0.846036
	H1737	H	0.189144	-0.282880	0.828234
	H1738	H	0.194767	-0.217185	0.952888
	H1739	H	0.212350	-0.216695	0.925676
	H1740	H	0.189142	0.032964	0.828259
	H1741	H	0.209148	0.032985	0.845968
	H1742	H	0.212366	-0.532893	0.925571
	H1743	H	0.194862	-0.533201	0.952990
	H1744	H	0.272504	-0.533845	0.911448
	H1745	H	0.292396	-0.534007	0.929519
	H1746	H	0.270606	0.032484	0.835156
	H1747	H	0.289757	0.032629	0.811225
	Al1748	Al	0.240701	0.000114	0.878964
	Al1749	Al	0.240736	0.249724	0.878864
	Al1750	Al	0.157487	0.249536	0.795669
	Al1751	Al	0.157477	-0.000221	0.795558
	O1752	O	0.254268	0.040708	0.895425
	O1753	O	0.240297	0.124832	0.865864
	O1754	O	0.241173	0.374596	0.892035
	O1755	O	0.310572	0.040734	0.945815
	O1756	O	0.228510	0.040810	0.900766
	O1757	O	0.178661	0.040992	0.977707
	O1758	O	0.228539	0.208947	0.900677
	O1759	O	0.227252	0.290435	0.862440
	O1760	O	0.170949	0.290492	0.812082
	O1761	O	0.254236	0.208786	0.895515
	O1762	O	0.253175	0.290820	0.857459
	O1763	O	0.307607	0.290518	0.790118
	O1764	O	0.178670	0.209124	0.977711
	O1765	O	0.227293	0.458635	0.862340
	O1766	O	0.170953	0.458784	0.812060
	O1767	O	0.307648	0.458437	0.790121
	O1768	O	0.253190	0.458977	0.857424
	O1769	O	0.310584	0.209071	0.945866
	O1770	O	0.166038	0.375070	0.986819
	O1771	O	0.320838	0.123944	0.784469
	C1772	C	0.288103	0.214044	0.925488
	C1773	C	0.293818	0.124904	0.930606
	C1774	C	0.288095	0.035600	0.925577
	C1775	C	0.276850	0.035783	0.915489
	C1776	C	0.271135	0.124858	0.910382
	C1777	C	0.276887	0.213977	0.915384
	C1778	C	0.259034	0.124923	0.899483
	C1779	C	0.305834	0.125038	0.941720
	C1780	C	0.224307	0.125009	0.907147
	C1781	C	0.213624	0.125129	0.923642
	C1782	C	0.208586	0.214308	0.931553
	C1783	C	0.198659	0.214306	0.946870
	C1784	C	0.193516	0.125338	0.954653
	C1785	C	0.198608	0.036329	0.946844
	C1786	C	0.208536	0.036403	0.931524
	C1787	C	0.182879	0.125145	0.971287
	C1788	C	0.222549	0.374575	0.858161
	C1789	C	0.210533	0.374637	0.847128
	C1790	C	0.204808	0.463860	0.842045
	C1791	C	0.193525	0.463980	0.832141
	C1792	C	0.187777	0.374831	0.827047
	C1793	C	0.193566	0.285858	0.832031
	C1794	C	0.204810	0.285756	0.841979
	C1795	C	0.175690	0.374657	0.816249
	C1796	C	0.257720	0.374846	0.851764
	C1797	C	0.269285	0.374597	0.836993
	C1798	C	0.274846	0.285596	0.830137
	C1799	C	0.285668	0.285773	0.816769
	C1800	C	0.291202	0.374783	0.809920
	C1801	C	0.285601	0.463638	0.816669
	C1802	C	0.274773	0.463561	0.830044
	C1803	C	0.302969	0.374574	0.795604
	H1804	H	0.289873	0.216722	0.811600
	H1805	H	0.270685	0.216740	0.835400
	H1806	H	0.292432	0.283059	0.929476
	H1807	H	0.272564	0.282903	0.911383
	H1808	H	0.240024	0.124720	0.851493
	H1809	H	0.241609	0.374490	0.906458
	H1810	H	0.165393	0.374791	0.972413
	H1811	H	0.320583	0.123801	0.798995
	H1812	H	0.209165	0.216903	0.845883
	H1813	H	0.189201	0.216837	0.828152
	H1814	H	0.194913	0.283329	0.952951
	H1815	H	0.212500	0.283371	0.925689
	H1816	H	0.189121	0.532844	0.828229
	H1817	H	0.209231	0.532641	0.846003
	H1818	H	0.212385	-0.032551	0.925653
	H1819	H	0.194780	-0.032446	0.952898
	H1820	H	0.272500	-0.033156	0.911537
	H1821	H	0.292379	-0.033285	0.929690
	H1822	H	0.270549	0.532603	0.835177
	H1823	H	0.289764	0.532611	0.811329
	Al1824	Al	0.407485	-0.500541	0.045481
	Al1825	Al	0.407422	-0.250610	0.045639
	Al1826	Al	0.324008	-0.250518	-0.037656
	Al1827	Al	0.324048	-0.500334	-0.037585
	O1828	O	0.421018	-0.459826	0.061911
	O1829	O	0.407090	-0.375496	0.032445
	O1830	O	0.407863	-0.125636	0.058807
	O1831	O	0.477258	-0.459313	0.112492
	O1832	O	0.395244	-0.459484	0.067318
	O1833	O	0.345419	-0.459616	0.144477
	O1834	O	0.395167	-0.291437	0.067326
	O1835	O	0.393948	-0.209968	0.029096
	O1836	O	0.337632	-0.209762	-0.021259
	O1837	O	0.420971	-0.291723	0.062103
	O1838	O	0.419937	-0.209269	0.024299
	O1839	O	0.474320	-0.209071	-0.043120
	O1840	O	0.345376	-0.291376	0.144385
	O1841	O	0.393893	-0.041743	0.029123
	O1842	O	0.337592	-0.041455	-0.021203
	O1843	O	0.474268	-0.041281	-0.043310
	O1844	O	0.419809	-0.041060	0.024083
	O1845	O	0.477206	-0.291104	0.112671
	O1846	O	0.332721	-0.125238	0.153450
	O1847	O	0.487413	-0.375945	-0.048786
	C1848	C	0.454770	-0.286294	0.092180
	C1849	C	0.460468	-0.375406	0.097357
	C1850	C	0.454764	-0.464545	0.092242
	C1851	C	0.443565	-0.464521	0.082114
	C1852	C	0.437836	-0.375571	0.076969
	C1853	C	0.443551	-0.286244	0.082021
	C1854	C	0.425750	-0.375512	0.066090
	C1855	C	0.472484	-0.375305	0.108388
	C1856	C	0.390980	-0.375853	0.073652
	C1857	C	0.380316	-0.375826	0.090318
	C1858	C	0.375194	-0.286608	0.098113
	C1859	C	0.365302	-0.286612	0.113502
	C1860	C	0.360236	-0.375769	0.121380
	C1861	C	0.365386	-0.465058	0.113613
	C1862	C	0.375281	-0.465059	0.098262
	C1863	C	0.349583	-0.375562	0.138006
	C1864	C	0.389190	-0.125628	0.024908
	C1865	C	0.377143	-0.125520	0.013938
	C1866	C	0.371390	-0.036124	0.008870
	C1867	C	0.360148	-0.036298	-0.001139
	C1868	C	0.354441	-0.125660	-0.006297
	C1869	C	0.360191	-0.214882	-0.001237
	C1870	C	0.371431	-0.214692	0.008740
	C1871	C	0.342352	-0.125750	-0.017120
	C1872	C	0.424397	-0.125154	0.018449
	C1873	C	0.435941	-0.125184	0.003658
	C1874	C	0.441471	-0.214059	-0.003281
	C1875	C	0.452282	-0.213933	-0.016669
	C1876	C	0.457854	-0.125077	-0.023493
	C1877	C	0.452248	-0.036197	-0.016732
	C1878	C	0.441434	-0.036279	-0.003318
	C1879	C	0.469644	-0.125142	-0.037727
	H1880	H	0.456481	-0.282803	-0.021919
	H1881	H	0.437282	-0.283033	0.001964
	H1882	H	0.459062	-0.217389	0.096193
	H1883	H	0.439203	-0.217498	0.077988
	H1884	H	0.406824	-0.375311	0.018002
	H1885	H	0.408363	-0.125154	0.073112
	H1886	H	0.332065	-0.124599	0.139140
	H1887	H	0.486823	-0.376705	-0.034235
	H1888	H	0.375803	-0.283552	0.012585
	H1889	H	0.355843	-0.283984	-0.005248
	H1890	H	0.361421	-0.217554	0.119412
	H1891	H	0.378975	-0.217643	0.092062
	H1892	H	0.355765	0.032803	-0.005012
	H1893	H	0.375742	0.032723	0.012990
	H1894	H	0.379125	-0.534221	0.092261
	H1895	H	0.361596	-0.534271	0.119636
	H1896	H	0.439229	-0.533813	0.078194
	H1897	H	0.459059	-0.533669	0.096265
	H1898	H	0.437219	0.032539	0.001929
	H1899	H	0.456395	0.032602	-0.021970
	Al1900	Al	0.407356	-0.000613	0.045561
	Al1901	Al	0.407408	0.249487	0.045584
	Al1902	Al	0.324143	0.249760	-0.037595
	Al1903	Al	0.324095	-0.000301	-0.037691
	O1904	O	0.420928	0.040448	0.061948
	O1905	O	0.407032	0.124538	0.032468
	O1906	O	0.407864	0.374714	0.058678
	O1907	O	0.477244	0.040719	0.112335
	O1908	O	0.395153	0.040667	0.067305
	O1909	O	0.345423	0.040580	0.144513
	O1910	O	0.395183	0.208846	0.067342
	O1911	O	0.393981	0.290350	0.029017
	O1912	O	0.337617	0.290687	-0.021152
	O1913	O	0.420988	0.208794	0.061933
	O1914	O	0.419975	0.290178	0.024198
	O1915	O	0.474394	0.289814	-0.043312
	O1916	O	0.345293	0.208728	0.144520
	O1917	O	0.393968	0.458849	0.028990
	O1918	O	0.337544	0.458924	-0.021076
	O1919	O	0.474326	0.457724	-0.043251
	O1920	O	0.419989	0.458314	0.024224
	O1921	O	0.477193	0.208908	0.112489
	O1922	O	0.332720	0.374796	0.153525
	O1923	O	0.487553	0.124115	-0.048780
	C1924	C	0.454664	0.213456	0.092239
	C1925	C	0.460434	0.124597	0.097281
	C1926	C	0.454710	0.035355	0.092123
	C1927	C	0.443497	0.035277	0.082010
	C1928	C	0.437753	0.124264	0.076968
	C1929	C	0.443468	0.213258	0.082169
	C1930	C	0.425721	0.124612	0.066041
	C1931	C	0.472484	0.124790	0.108249
	C1932	C	0.390954	0.124663	0.073651
	C1933	C	0.380275	0.125138	0.090337
	C1934	C	0.375174	0.214401	0.098149
	C1935	C	0.365306	0.214364	0.113548
	C1936	C	0.360265	0.125246	0.121511
	C1937	C	0.365366	0.036076	0.113684
	C1938	C	0.375227	0.036159	0.098286
	C1939	C	0.349596	0.124927	0.138137
	C1940	C	0.389227	0.374711	0.024874
	C1941	C	0.377145	0.374384	0.014020
	C1942	C	0.371377	0.463704	0.009029
	C1943	C	0.360139	0.463841	-0.000965
	C1944	C	0.354395	0.374909	-0.006102
	C1945	C	0.360166	0.285532	-0.001136
	C1946	C	0.371405	0.285252	0.008901
	C1947	C	0.342333	0.374879	-0.016979
	C1948	C	0.424494	0.374111	0.018468
	C1949	C	0.436040	0.373946	0.003645
	C1950	C	0.441571	0.284977	-0.003184
	C1951	C	0.452391	0.285092	-0.016594
	C1952	C	0.457929	0.373818	-0.023518
	C1953	C	0.452359	0.462817	-0.016776
	C1954	C	0.441559	0.462671	-0.003313
	C1955	C	0.469701	0.373643	-0.037812
	H1956	H	0.456589	0.216138	-0.021757
	H1957	H	0.437399	0.216075	0.002081
	H1958	H	0.458991	0.282334	0.096245
	H1959	H	0.439095	0.282197	0.078245
	H1960	H	0.406887	0.124138	0.017941
	H1961	H	0.408343	0.374793	0.073039
	H1962	H	0.332168	0.375249	0.139173
	H1963	H	0.487023	0.124000	-0.034183
	H1964	H	0.375816	0.216622	0.012748
	H1965	H	0.355790	0.216795	-0.005099
	H1966	H	0.361453	0.283448	0.119529
	H1967	H	0.378933	0.283623	0.092010
	H1968	H	0.355711	0.532820	-0.004785
	H1969	H	0.375729	0.532528	0.012905
	H1970	H	0.379064	-0.032977	0.092273
	H1971	H	0.361593	-0.032949	0.119752
	H1972	H	0.439148	-0.033557	0.077980
	H1973	H	0.459112	-0.033282	0.096093
	H1974	H	0.437362	0.531671	0.001887
	H1975	H	0.456502	0.531813	-0.022058
	Al1976	Al	0.416607	-0.500434	0.249993
	Al1977	Al	0.416627	-0.250301	0.250137
	Al1978	Al	0.333390	-0.249953	0.166498
	Al1979	Al	0.333395	-0.499762	0.166561
	O1980	O	0.430194	-0.459725	0.266220
	O1981	O	0.415963	-0.375037	0.236992
	O1982	O	0.417231	-0.125221	0.263183
	O1983	O	0.486316	-0.459457	0.317106
	O1984	O	0.404613	-0.459185	0.272295
	O1985	O	0.354694	-0.458925	0.349255
	O1986	O	0.404572	-0.291022	0.272181
	O1987	O	0.403012	-0.208840	0.233969
	O1988	O	0.347072	-0.209060	0.182637
	O1989	O	0.430284	-0.291562	0.266167
	O1990	O	0.428635	-0.209764	0.227988
	O1991	O	0.478560	-0.209622	0.150829
	O1992	O	0.354645	-0.290931	0.349156
	O1993	O	0.402974	-0.040609	0.233867
	O1994	O	0.346999	-0.041017	0.182711
	O1995	O	0.478422	-0.041529	0.150686
	O1996	O	0.428693	-0.041584	0.227929
	O1997	O	0.486343	-0.291310	0.316913
	O1998	O	0.342152	-0.124957	0.357951
	O1999	O	0.491283	-0.375217	0.142118
	C2000	C	0.463909	-0.286693	0.296572
	C2001	C	0.469606	-0.375706	0.301724
	C2002	C	0.463854	-0.464973	0.296760
	C2003	C	0.452655	-0.464918	0.286577
	C2004	C	0.446971	-0.375802	0.281354
	C2005	C	0.452703	-0.286616	0.286461
	C2006	C	0.434947	-0.375716	0.270369
	C2007	C	0.481598	-0.375690	0.312798
	C2008	C	0.400377	-0.374965	0.278602
	C2009	C	0.389755	-0.374971	0.295332
	C2010	C	0.384547	-0.286052	0.303014
	C2011	C	0.374636	-0.285892	0.318371
	C2012	C	0.369650	-0.374808	0.326364
	C2013	C	0.374804	-0.463796	0.318616
	C2014	C	0.384721	-0.463956	0.303248
	C2015	C	0.358907	-0.374981	0.342886
	C2016	C	0.398285	-0.124847	0.229711
	C2017	C	0.386277	-0.125130	0.218636
	C2018	C	0.380572	-0.035820	0.213493
	C2019	C	0.369401	-0.035646	0.203264
	C2020	C	0.363734	-0.124737	0.198021
	C2021	C	0.369423	-0.213997	0.203224
	C2022	C	0.380581	-0.214219	0.213490
	C2023	C	0.351765	-0.125065	0.186863
	C2024	C	0.432889	-0.125633	0.221551
	C2025	C	0.443551	-0.125844	0.204878
	C2026	C	0.448589	-0.214766	0.196899
	C2027	C	0.458466	-0.214952	0.181483
	C2028	C	0.463571	-0.125976	0.173707
	C2029	C	0.458421	-0.037138	0.181502
	C2030	C	0.448554	-0.036957	0.196887
	C2031	C	0.474280	-0.125667	0.157154
	H2032	H	0.462268	-0.283936	0.175427
	H2033	H	0.444727	-0.283693	0.202818
	H2034	H	0.468252	-0.217893	0.300503
	H2035	H	0.448374	-0.217945	0.282468
	H2036	H	0.415338	-0.375004	0.222708
	H2037	H	0.417912	-0.125685	0.277552
	H2038	H	0.341698	-0.125024	0.343448
	H2039	H	0.491859	-0.375364	0.156393
	H2040	H	0.384880	-0.283310	0.217511
	H2041	H	0.365091	-0.282788	0.199206
	H2042	H	0.370718	-0.216691	0.324188
	H2043	H	0.388223	-0.216937	0.296785
	H2044	H	0.365062	0.033346	0.199296
	H2045	H	0.384893	0.033130	0.217549
	H2046	H	0.388533	-0.532998	0.297242
	H2047	H	0.371002	-0.532740	0.324662
	H2048	H	0.448262	-0.533654	0.282710
	H2049	H	0.468164	-0.533877	0.300861
	H2050	H	0.444694	0.032148	0.202767
	H2051	H	0.462210	0.031808	0.175419
	Al2052	Al	0.416716	-0.000476	0.250114
	Al2053	Al	0.416617	0.249736	0.249927
	Al2054	Al	0.333255	0.250053	0.166654
	Al2055	Al	0.333355	-0.000157	0.166613
	O2056	O	0.430294	0.041164	0.266214
	O2057	O	0.416102	0.124449	0.236983
	O2058	O	0.417180	0.374422	0.263020
	O2059	O	0.486366	0.041177	0.316913
	O2060	O	0.404714	0.040813	0.272197
	O2061	O	0.354780	0.041189	0.349153
	O2062	O	0.404609	0.209071	0.272068
	O2063	O	0.403057	0.290708	0.233686
	O2064	O	0.346921	0.290586	0.182741
	O2065	O	0.430301	0.209390	0.266104
	O2066	O	0.428651	0.290817	0.227849
	O2067	O	0.478508	0.291153	0.150767
	O2068	O	0.354761	0.209467	0.349112
	O2069	O	0.402899	0.458984	0.233831
	O2070	O	0.346924	0.458804	0.182834
	O2071	O	0.478440	0.459064	0.150830
	O2072	O	0.428629	0.458968	0.227811
	O2073	O	0.486370	0.209230	0.317208
	O2074	O	0.342134	0.375017	0.357951
	O2075	O	0.491158	0.124675	0.142112
	C2076	C	0.463950	0.214541	0.296648
	C2077	C	0.469628	0.125689	0.301882
	C2078	C	0.463942	0.036660	0.296705
	C2079	C	0.452754	0.036528	0.286525
	C2080	C	0.447037	0.125353	0.281396
	C2081	C	0.452742	0.214364	0.286490
	C2082	C	0.435031	0.125490	0.270381
	C2083	C	0.481655	0.125422	0.312863
	C2084	C	0.400457	0.124909	0.278525
	C2085	C	0.389757	0.125171	0.295157
	C2086	C	0.384652	0.214343	0.302975
	C2087	C	0.374748	0.214252	0.318342
	C2088	C	0.369665	0.125092	0.326126
	C2089	C	0.374820	0.035923	0.318388
	C2090	C	0.384724	0.035882	0.303046
	C2091	C	0.358973	0.125239	0.342794
	C2092	C	0.398279	0.374836	0.229562
	C2093	C	0.386235	0.374156	0.218531
	C2094	C	0.380533	0.463375	0.213363
	C2095	C	0.369350	0.463596	0.203227
	C2096	C	0.363658	0.374475	0.198038
	C2097	C	0.369352	0.285297	0.203207
	C2098	C	0.380539	0.284957	0.213388
	C2099	C	0.351666	0.374414	0.186935
	C2100	C	0.432851	0.374867	0.221430
	C2101	C	0.443500	0.374888	0.204782
	C2102	C	0.448610	0.285884	0.197001
	C2103	C	0.458520	0.285651	0.181663
	C2104	C	0.463538	0.374639	0.173733
	C2105	C	0.458414	0.463688	0.181538
	C2106	C	0.448519	0.463841	0.196899
	C2107	C	0.474255	0.374907	0.157133
	H2108	H	0.462392	0.216731	0.175775
	H2109	H	0.444841	0.216830	0.203037
	H2110	H	0.468307	0.283539	0.300477
	H2111	H	0.448396	0.282921	0.282387
	H2112	H	0.415456	0.123987	0.222612
	H2113	H	0.417674	0.373970	0.277328
	H2114	H	0.341576	0.375162	0.343656
	H2115	H	0.491823	0.124872	0.156459
	H2116	H	0.384890	0.216178	0.217364
	H2117	H	0.365017	0.216458	0.199124
	H2118	H	0.370922	0.283394	0.324327
	H2119	H	0.388516	0.283259	0.297055
	H2120	H	0.365043	0.532573	0.199148
	H2121	H	0.384896	0.532222	0.217381
	H2122	H	0.388630	-0.033419	0.297253
	H2123	H	0.371072	-0.033110	0.324514
	H2124	H	0.448466	-0.032370	0.282579
	H2125	H	0.468294	-0.032064	0.300677
	H2126	H	0.444667	0.532758	0.202852
	H2127	H	0.462210	0.532701	0.175522
	Al2128	Al	0.425964	-0.499855	0.454281
	Al2129	Al	0.425878	-0.250227	0.454344
	Al2130	Al	0.342526	-0.250020	0.371055
	Al2131	Al	0.342525	-0.500065	0.371146
	O2132	O	0.439378	-0.458946	0.470891
	O2133	O	0.425492	-0.374982	0.441144
	O2134	O	0.426351	-0.125095	0.467367
	O2135	O	0.495699	-0.458628	0.521294
	O2136	O	0.413468	-0.458997	0.475722
	O2137	O	0.359107	-0.458583	0.543246
	O2138	O	0.413405	-0.291094	0.475696
	O2139	O	0.412353	-0.209134	0.437802
	O2140	O	0.356042	-0.209329	0.387575
	O2141	O	0.439384	-0.290836	0.470886
	O2142	O	0.438106	-0.208679	0.432501
	O2143	O	0.487877	-0.208705	0.355352
	O2144	O	0.359119	-0.290794	0.543229
	O2145	O	0.412347	-0.040982	0.437821
	O2146	O	0.356047	-0.041087	0.387552
	O2147	O	0.487983	-0.040446	0.355444
	O2148	O	0.438100	-0.040500	0.432431
	O2149	O	0.495711	-0.290168	0.521333
	O2150	O	0.345967	-0.124793	0.548819
	O2151	O	0.500473	-0.375036	0.346323
	C2152	C	0.473179	-0.285700	0.500994
	C2153	C	0.478874	-0.374472	0.506311
	C2154	C	0.473108	-0.463635	0.501370
	C2155	C	0.461864	-0.463797	0.491324
	C2156	C	0.456151	-0.374861	0.486095
	C2157	C	0.461932	-0.285762	0.490962
	C2158	C	0.444109	-0.374996	0.475113
	C2159	C	0.490951	-0.374403	0.517195
	C2160	C	0.408928	-0.375063	0.481453
	C2161	C	0.397404	-0.375287	0.496321
	C2162	C	0.391822	-0.286162	0.503062
	C2163	C	0.381007	-0.285861	0.516511
	C2164	C	0.375510	-0.375051	0.523456
	C2165	C	0.381079	-0.464424	0.516745
	C2166	C	0.391906	-0.464515	0.503290
	C2167	C	0.363786	-0.375089	0.537771
	C2168	C	0.407591	-0.125179	0.433769
	C2169	C	0.395529	-0.124934	0.422840
	C2170	C	0.389688	-0.035652	0.417959
	C2171	C	0.378452	-0.035998	0.407942
	C2172	C	0.372789	-0.125452	0.402747
	C2173	C	0.378559	-0.214641	0.407771
	C2174	C	0.389808	-0.214441	0.417757
	C2175	C	0.360794	-0.125073	0.391676
	C2176	C	0.442367	-0.124534	0.426182
	C2177	C	0.453034	-0.124430	0.409553
	C2178	C	0.458111	-0.213448	0.401621
	C2179	C	0.467972	-0.213348	0.386241
	C2180	C	0.473091	-0.124266	0.378465
	C2181	C	0.468037	-0.035148	0.386368
	C2182	C	0.458170	-0.035166	0.401750
	C2183	C	0.483721	-0.124413	0.361808
	H2184	H	0.471795	-0.282383	0.380149
	H2185	H	0.454312	-0.282497	0.407601
	H2186	H	0.477576	-0.217020	0.504739
	H2187	H	0.457627	-0.217146	0.486840
	H2188	H	0.424848	-0.374729	0.426816
	H2189	H	0.426981	-0.124876	0.481695
	H2190	H	0.346501	-0.125642	0.534265
	H2191	H	0.501176	-0.374984	0.360632
	H2192	H	0.394232	-0.283438	0.421640
	H2193	H	0.374269	-0.283847	0.403759
	H2194	H	0.376795	-0.216485	0.521686
	H2195	H	0.395931	-0.217023	0.497743
	H2196	H	0.374030	0.032864	0.404104
	H2197	H	0.394008	0.033339	0.422062
	H2198	H	0.396098	-0.533630	0.498126
	H2199	H	0.376928	-0.533396	0.522072
	H2200	H	0.457462	-0.532586	0.487524
	H2201	H	0.477434	-0.532395	0.505462
	H2202	H	0.454389	0.033840	0.407934
	H2203	H	0.471887	0.033773	0.380381
	Al2204	Al	0.425877	-0.000008	0.454224
	Al2205	Al	0.425886	0.249959	0.454244
	Al2206	Al	0.342620	0.249815	0.370994
	Al2207	Al	0.342548	-0.000080	0.371093
	O2208	O	0.439316	0.040621	0.470867
	O2209	O	0.425397	0.125052	0.441146
	O2210	O	0.426334	0.374868	0.467403
	O2211	O	0.495633	0.040868	0.521281
	O2212	O	0.413455	0.040803	0.475727
	O2213	O	0.359100	0.041353	0.543306
	O2214	O	0.413436	0.208767	0.475754
	O2215	O	0.412427	0.291393	0.437738
	O2216	O	0.356013	0.291671	0.387625
	O2217	O	0.439319	0.208885	0.470814
	O2218	O	0.438105	0.290650	0.432381
	O2219	O	0.488071	0.290809	0.355502
	O2220	O	0.359044	0.209293	0.543309
	O2221	O	0.412443	0.459467	0.437749
	O2222	O	0.355985	0.459777	0.387685
	O2223	O	0.488039	0.458989	0.355540
	O2224	O	0.438100	0.458999	0.432405
	O2225	O	0.495658	0.208983	0.521275
	O2226	O	0.345892	0.375413	0.548911
	O2227	O	0.500637	0.124893	0.346311
	C2228	C	0.473104	0.214170	0.501068
	C2229	C	0.478846	0.125209	0.506183
	C2230	C	0.473049	0.036161	0.501313
	C2231	C	0.461817	0.036166	0.491300
	C2232	C	0.456110	0.125008	0.485989
	C2233	C	0.461843	0.214078	0.491078
	C2234	C	0.444056	0.124793	0.475047
	C2235	C	0.490895	0.125014	0.517100
	C2236	C	0.408901	0.124675	0.481455
	C2237	C	0.397374	0.125017	0.496312
	C2238	C	0.391851	0.213947	0.503175
	C2239	C	0.381045	0.213958	0.516603
	C2240	C	0.375479	0.125206	0.523465
	C2241	C	0.381072	0.036272	0.516721
	C2242	C	0.391882	0.036286	0.503311
	C2243	C	0.363717	0.125217	0.537796
	C2244	C	0.407666	0.375270	0.433670
	C2245	C	0.395610	0.375687	0.422695
	C2246	C	0.389820	0.464629	0.417784
	C2247	C	0.378563	0.464616	0.407827
	C2248	C	0.372806	0.375653	0.402755
	C2249	C	0.378570	0.286530	0.407718
	C2250	C	0.389851	0.286594	0.417654
	C2251	C	0.360772	0.375684	0.391764
	C2252	C	0.442336	0.375004	0.426041
	C2253	C	0.452997	0.374662	0.409439
	C2254	C	0.458030	0.285662	0.401503
	C2255	C	0.467943	0.285780	0.386135
	C2256	C	0.473126	0.374873	0.378480
	C2257	C	0.468058	0.463736	0.386402
	C2258	C	0.458132	0.463702	0.401742
	C2259	C	0.483785	0.374784	0.361865
	H2260	H	0.471703	0.216693	0.379965
	H2261	H	0.454135	0.216327	0.407301
	H2262	H	0.477481	0.282801	0.505002
	H2263	H	0.457464	0.282830	0.487072
	H2264	H	0.424956	0.125526	0.426767
	H2265	H	0.426592	0.374550	0.481809
	H2266	H	0.346308	0.375362	0.534334
	H2267	H	0.501029	0.125137	0.360744
	H2268	H	0.394236	0.217658	0.421509
	H2269	H	0.374223	0.217382	0.403736
	H2270	H	0.376886	0.282789	0.521804
	H2271	H	0.396025	0.282575	0.497881
	H2272	H	0.374174	0.533697	0.403964
	H2273	H	0.394125	0.533719	0.421790
	H2274	H	0.396076	-0.032511	0.498122
	H2275	H	0.376925	-0.032806	0.522002
	H2276	H	0.457416	-0.032661	0.487555
	H2277	H	0.477360	-0.032598	0.505456
	H2278	H	0.454326	0.532531	0.407747
	H2279	H	0.471893	0.532977	0.380480
	Al2280	Al	0.428707	-0.499458	0.645784
	Al2281	Al	0.428752	-0.248755	0.645779
	Al2282	Al	0.345421	-0.250256	0.562340
	Al2283	Al	0.345426	-0.498862	0.562339
	O2284	O	0.441409	-0.458440	0.663938
	O2285	O	0.429179	-0.374062	0.632272
	O2286	O	0.427775	-0.124350	0.659087
	O2287	O	0.499553	-0.458459	0.710062
	O2288	O	0.413828	-0.458214	0.662455
	O2289	O	0.348765	-0.459338	0.651848
	O2290	O	0.413820	-0.290052	0.662358
	O2291	O	0.416204	-0.208642	0.626653
	O2292	O	0.357890	-0.208035	0.580908
	O2293	O	0.441373	-0.290254	0.664083
	O2294	O	0.442427	-0.208379	0.626820
	O2295	O	0.496771	-0.208667	0.559224
	O2296	O	0.348684	-0.291218	0.651759
	O2297	O	0.416303	-0.040322	0.626431
	O2298	O	0.357898	-0.040080	0.580888
	O2299	O	0.496743	-0.040633	0.559283
	O2300	O	0.442405	-0.040493	0.626817
	O2301	O	0.499551	-0.290153	0.710108
	O2302	O	0.334781	-0.125161	0.653342
	O2303	O	0.509716	-0.374492	0.550855
	C2304	C	0.476441	-0.284639	0.690898
	C2305	C	0.482440	-0.374300	0.695495
	C2306	C	0.476444	-0.464012	0.690945
	C2307	C	0.464809	-0.464033	0.682150
	C2308	C	0.458778	-0.374347	0.677727
	C2309	C	0.464791	-0.284644	0.682133
	C2310	C	0.446322	-0.374471	0.667834
	C2311	C	0.494727	-0.374267	0.705974
	C2312	C	0.408260	-0.374112	0.661998
	C2313	C	0.394259	-0.374114	0.660241
	C2314	C	0.387690	-0.284256	0.658431
	C2315	C	0.374888	-0.284538	0.655181
	C2316	C	0.368287	-0.374557	0.653771
	C2317	C	0.374867	-0.464341	0.655463
	C2318	C	0.387677	-0.464094	0.658713
	C2319	C	0.354273	-0.375047	0.652296
	C2320	C	0.411417	-0.124455	0.622441
	C2321	C	0.399082	-0.124447	0.612055
	C2322	C	0.393044	-0.034742	0.607690
	C2323	C	0.381328	-0.034673	0.599058
	C2324	C	0.375320	-0.124204	0.594565
	C2325	C	0.381411	-0.213820	0.598710
	C2326	C	0.393124	-0.213906	0.607349
	C2327	C	0.362838	-0.124009	0.584645
	C2328	C	0.447052	-0.124397	0.621358
	C2329	C	0.458771	-0.124687	0.606915
	C2330	C	0.464350	-0.213726	0.600182
	C2331	C	0.475157	-0.213757	0.586745
	C2332	C	0.480680	-0.124813	0.579789
	C2333	C	0.475156	-0.035807	0.586693
	C2334	C	0.464342	-0.035800	0.600125
	C2335	C	0.492219	-0.124877	0.564933
	H2336	H	0.479381	-0.282763	0.581541
	H2337	H	0.460214	-0.282646	0.605509
	H2338	H	0.480966	-0.214746	0.694333
	H2339	H	0.460264	-0.214926	0.678717
	H2340	H	0.429481	-0.374053	0.617741
	H2341	H	0.425978	-0.124303	0.673413
	H2342	H	0.336801	-0.125311	0.639124
	H2343	H	0.509889	-0.374380	0.565244
	H2344	H	0.397678	-0.283604	0.610547
	H2345	H	0.376960	-0.283545	0.595207
	H2346	H	0.369926	-0.214642	0.653671
	H2347	H	0.392588	-0.214015	0.659433
	H2348	H	0.376789	0.034833	0.595731
	H2349	H	0.397525	0.035094	0.611162
	H2350	H	0.392651	-0.533809	0.659952
	H2351	H	0.369974	-0.534456	0.654116
	H2352	H	0.460275	-0.533718	0.678722
	H2353	H	0.480939	-0.533778	0.694341
	H2354	H	0.460185	0.033274	0.605451
	H2355	H	0.479323	0.033226	0.581410
	Al2356	Al	0.428739	0.000174	0.645755
	Al2357	Al	0.428708	0.251389	0.645687
	Al2358	Al	0.345414	0.250067	0.562276
	Al2359	Al	0.345391	0.001019	0.562189
	O2360	O	0.441268	0.041768	0.664233
	O2361	O	0.429226	0.125710	0.632230
	O2362	O	0.427727	0.376020	0.659031
	O2363	O	0.499493	0.041860	0.710004
	O2364	O	0.413891	0.041346	0.662299
	O2365	O	0.348763	0.040451	0.652112
	O2366	O	0.413813	0.209936	0.662258
	O2367	O	0.416287	0.292016	0.626461
	O2368	O	0.358009	0.291058	0.580643
	O2369	O	0.441167	0.209725	0.664313
	O2370	O	0.442408	0.291737	0.626780
	O2371	O	0.496701	0.291919	0.559193
	O2372	O	0.348740	0.208691	0.652025
	O2373	O	0.416179	0.460182	0.626625
	O2374	O	0.357966	0.459340	0.580899
	O2375	O	0.496759	0.459630	0.559280
	O2376	O	0.442289	0.459521	0.626663
	O2377	O	0.499545	0.209949	0.709930
	O2378	O	0.334747	0.374942	0.653324
	O2379	O	0.509522	0.125287	0.550885
	C2380	C	0.476352	0.215840	0.690973
	C2381	C	0.482352	0.126159	0.695529
	C2382	C	0.476375	0.036610	0.690938
	C2383	C	0.464667	0.036479	0.682292
	C2384	C	0.458612	0.125996	0.678021
	C2385	C	0.464626	0.215736	0.682351
	C2386	C	0.446141	0.125918	0.668079
	C2387	C	0.494692	0.125947	0.705894
	C2388	C	0.408307	0.125445	0.661856
	C2389	C	0.394316	0.125194	0.660186
	C2390	C	0.387749	0.215228	0.658509
	C2391	C	0.374934	0.215247	0.655366
	C2392	C	0.368352	0.125038	0.653891
	C2393	C	0.374954	0.035069	0.655286
	C2394	C	0.387754	0.035104	0.658454
	C2395	C	0.354299	0.124672	0.652444
	C2396	C	0.411420	0.376127	0.622477
	C2397	C	0.399114	0.375383	0.611985
	C2398	C	0.393041	0.464877	0.607726
	C2399	C	0.381364	0.464751	0.599029
	C2400	C	0.375408	0.375222	0.594396
	C2401	C	0.381514	0.285684	0.598545
	C2402	C	0.393199	0.285765	0.607256
	C2403	C	0.362918	0.375339	0.584506
	C2404	C	0.447004	0.375982	0.621251
	C2405	C	0.458739	0.376077	0.606940
	C2406	C	0.464275	0.287241	0.600081
	C2407	C	0.475082	0.287290	0.586620
	C2408	C	0.480668	0.375924	0.579818
	C2409	C	0.475166	0.464894	0.586754
	C2410	C	0.464352	0.464850	0.600214
	C2411	C	0.492190	0.375883	0.564895
	H2412	H	0.479194	0.218645	0.581230
	H2413	H	0.460070	0.218557	0.605231
	H2414	H	0.480872	0.285708	0.694230
	H2415	H	0.460104	0.285548	0.678888
	H2416	H	0.429566	0.124986	0.617700
	H2417	H	0.425957	0.375831	0.673311
	H2418	H	0.336645	0.375109	0.638970
	H2419	H	0.509801	0.125260	0.565337
	H2420	H	0.397737	0.215947	0.610510
	H2421	H	0.377037	0.216186	0.594990
	H2422	H	0.369998	0.285366	0.654119
	H2423	H	0.392701	0.285290	0.659721
	H2424	H	0.376763	0.534406	0.595931
	H2425	H	0.397444	0.534583	0.611353
	H2426	H	0.392686	-0.035131	0.659682
	H2427	H	0.370022	-0.035049	0.653942
	H2428	H	0.460202	-0.033435	0.678743
	H2429	H	0.480930	-0.033433	0.694138
	H2430	H	0.460179	0.533594	0.605487
	H2431	H	0.479344	0.533560	0.581507
	Al2432	Al	0.416697	-0.500249	0.750068
	Al2433	Al	0.416696	-0.249889	0.749996
	Al2434	Al	0.333313	-0.250204	0.666744
	Al2435	Al	0.333371	-0.500163	0.666756
	O2436	O	0.428622	-0.458783	0.770291
	O2437	O	0.418081	-0.375105	0.736636
	O2438	O	0.415298	-0.125126	0.763503
	O2439	O	0.488164	-0.458947	0.813300
	O2440	O	0.401350	-0.459390	0.764791
	O2441	O	0.336271	-0.459936	0.754616
	O2442	O	0.401391	-0.291275	0.764853
	O2443	O	0.404762	-0.209041	0.729947
	O2444	O	0.345328	-0.209250	0.686752
	O2445	O	0.428572	-0.290933	0.770269
	O2446	O	0.432054	-0.208861	0.735272
	O2447	O	0.497147	-0.207839	0.745778
	O2448	O	0.336244	-0.291471	0.754586
	O2449	O	0.404776	-0.040973	0.729840
	O2450	O	0.345273	-0.041440	0.686828
	O2451	O	0.497106	-0.039751	0.745731
	O2452	O	0.432075	-0.040500	0.735292
	O2453	O	0.488094	-0.291104	0.813413
	O2454	O	0.322298	-0.125860	0.757723
	O2455	O	0.511055	-0.374467	0.742523
	C2456	C	0.464313	-0.285477	0.795635
	C2457	C	0.470547	-0.375067	0.799669
	C2458	C	0.464381	-0.464752	0.795519
	C2459	C	0.452400	-0.464822	0.787805
	C2460	C	0.446155	-0.375079	0.783847
	C2461	C	0.452327	-0.285405	0.787944
	C2462	C	0.433529	-0.374740	0.774182
	C2463	C	0.483163	-0.375072	0.809456
	C2464	C	0.395812	-0.375122	0.764409
	C2465	C	0.381778	-0.375229	0.763023
	C2466	C	0.375159	-0.285336	0.761485
	C2467	C	0.362346	-0.285486	0.758315
	C2468	C	0.355798	-0.375687	0.756688
	C2469	C	0.362398	-0.465603	0.758394
	C2470	C	0.375214	-0.465398	0.761573
	C2471	C	0.341803	-0.375644	0.755017
	C2472	C	0.399830	-0.124975	0.726055
	C2473	C	0.387198	-0.124928	0.716369
	C2474	C	0.381033	-0.035304	0.712211
	C2475	C	0.369046	-0.035572	0.704422
	C2476	C	0.362859	-0.125216	0.700389
	C2477	C	0.369015	-0.214729	0.704621
	C2478	C	0.380980	-0.214610	0.712425
	C2479	C	0.350229	-0.125247	0.690727
	C2480	C	0.437595	-0.124655	0.735779
	C2481	C	0.451629	-0.124292	0.737137
	C2482	C	0.458210	-0.214076	0.738834
	C2483	C	0.471010	-0.214044	0.742001
	C2484	C	0.477579	-0.124147	0.743473
	C2485	C	0.471015	-0.034331	0.741765
	C2486	C	0.458211	-0.034410	0.738588
	C2487	C	0.491567	-0.123837	0.745323
	H2488	H	0.475963	-0.284007	0.743200
	H2489	H	0.453274	-0.284183	0.737476
	H2490	H	0.468929	-0.215231	0.798564
	H2491	H	0.447698	-0.214981	0.785053
	H2492	H	0.419743	-0.375110	0.722282
	H2493	H	0.413528	-0.125155	0.777862
	H2494	H	0.324128	-0.125701	0.743432
	H2495	H	0.509375	-0.374666	0.756825
	H2496	H	0.385573	-0.284968	0.715344
	H2497	H	0.364431	-0.284814	0.701657
	H2498	H	0.357428	-0.215296	0.757106
	H2499	H	0.380113	-0.215258	0.762766
	H2500	H	0.364497	0.034606	0.701307
	H2501	H	0.385656	0.034912	0.714997
	H2502	H	0.380140	-0.535542	0.762936
	H2503	H	0.357445	-0.535791	0.757206
	H2504	H	0.447805	-0.535023	0.784788
	H2505	H	0.469043	-0.535032	0.798352
	H2506	H	0.453318	0.035882	0.737080
	H2507	H	0.475988	0.035885	0.742764
	Al2508	Al	0.416710	0.000088	0.750062
	Al2509	Al	0.416663	0.250126	0.750153
	Al2510	Al	0.333331	0.249639	0.666807
	Al2511	Al	0.333334	-0.000239	0.666826
	O2512	O	0.428636	0.041046	0.770308
	O2513	O	0.418123	0.125230	0.736727
	O2514	O	0.415251	0.374858	0.763571
	O2515	O	0.488229	0.041163	0.813202
	O2516	O	0.401268	0.040968	0.764931
	O2517	O	0.336201	0.040328	0.754494
	O2518	O	0.401306	0.209250	0.764875
	O2519	O	0.404727	0.290902	0.729988
	O2520	O	0.345268	0.291164	0.686901
	O2521	O	0.428575	0.209047	0.770397
	O2522	O	0.432065	0.290647	0.735314
	O2523	O	0.497161	0.291261	0.745604
	O2524	O	0.336160	0.208732	0.754683
	O2525	O	0.404799	0.458893	0.729856
	O2526	O	0.345289	0.458966	0.686849
	O2527	O	0.497110	0.459416	0.745764
	O2528	O	0.432034	0.458789	0.735207
	O2529	O	0.488176	0.209096	0.813106
	O2530	O	0.322217	0.374084	0.757768
	O2531	O	0.511089	0.125701	0.742324
	C2532	C	0.464381	0.214419	0.795674
	C2533	C	0.470579	0.124864	0.799673
	C2534	C	0.464421	0.035185	0.795576
	C2535	C	0.452416	0.035115	0.787896
	C2536	C	0.446226	0.124737	0.783862
	C2537	C	0.452368	0.214325	0.787977
	C2538	C	0.433539	0.125017	0.774264
	C2539	C	0.483245	0.125061	0.809294
	C2540	C	0.395735	0.125113	0.764488
	C2541	C	0.381725	0.125006	0.763034
	C2542	C	0.375122	0.214850	0.761331
	C2543	C	0.362321	0.214760	0.758208
	C2544	C	0.355728	0.124906	0.756716
	C2545	C	0.362313	0.035001	0.758526
	C2546	C	0.375126	0.035069	0.761653
	C2547	C	0.341743	0.124558	0.755070
	C2548	C	0.399818	0.374939	0.726051
	C2549	C	0.387192	0.374874	0.716372
	C2550	C	0.381027	0.464517	0.712207
	C2551	C	0.369043	0.464644	0.704474
	C2552	C	0.362824	0.375058	0.700577
	C2553	C	0.368998	0.285268	0.704657
	C2554	C	0.380985	0.285271	0.712424
	C2555	C	0.350215	0.375098	0.690814
	C2556	C	0.437604	0.374818	0.735668
	C2557	C	0.451630	0.375016	0.737073
	C2558	C	0.458225	0.285164	0.738742
	C2559	C	0.471034	0.284951	0.741933
	C2560	C	0.477602	0.374882	0.743544
	C2561	C	0.471029	0.464853	0.741791
	C2562	C	0.458209	0.464855	0.738608
	C2563	C	0.491606	0.375160	0.745218
	H2564	H	0.475976	0.214810	0.743143
	H2565	H	0.453284	0.215027	0.737398
	H2566	H	0.468997	0.284631	0.798420
	H2567	H	0.447809	0.284721	0.785005
	H2568	H	0.420128	0.125233	0.722418
	H2569	H	0.413365	0.374603	0.777927
	H2570	H	0.323847	0.373904	0.743543
	H2571	H	0.509555	0.125167	0.756739
	H2572	H	0.385575	0.215222	0.715440
	H2573	H	0.364395	0.214931	0.701759
	H2574	H	0.357366	0.284518	0.756841
	H2575	H	0.380060	0.285046	0.762401
	H2576	H	0.364467	0.534959	0.701430
	H2577	H	0.385634	0.534606	0.715091
	H2578	H	0.380088	-0.034985	0.762992
	H2579	H	0.357390	-0.035179	0.757420
	H2580	H	0.447848	-0.035069	0.784825
	H2581	H	0.469064	-0.034873	0.798286
	H2582	H	0.453300	0.534809	0.737197
	H2583	H	0.476007	0.534845	0.742925
	Al2584	Al	0.404610	-0.500410	0.854520
	Al2585	Al	0.404609	-0.251234	0.854472
	Al2586	Al	0.321323	-0.250092	0.771067
	Al2587	Al	0.321379	-0.501334	0.771064
	O2588	O	0.417146	-0.459744	0.873644
	O2589	O	0.405600	-0.375898	0.841153
	O2590	O	0.404150	-0.125841	0.867962
	O2591	O	0.475391	-0.460056	0.919220
	O2592	O	0.390888	-0.459890	0.873437
	O2593	O	0.336574	-0.459718	0.940998
	O2594	O	0.390958	-0.292032	0.873473
	O2595	O	0.392120	-0.209772	0.835991
	O2596	O	0.333794	-0.209562	0.790286
	O2597	O	0.417203	-0.291652	0.873442
	O2598	O	0.419524	-0.210144	0.837932
	O2599	O	0.484630	-0.209346	0.848379
	O2600	O	0.336521	-0.291763	0.941041
	O2601	O	0.392040	-0.041533	0.836066
	O2602	O	0.333812	-0.041341	0.790078
	O2603	O	0.484678	-0.041294	0.848249
	O2604	O	0.419549	-0.041708	0.837966
	O2605	O	0.475394	-0.291800	0.919363
	O2606	O	0.323669	-0.125756	0.949194
	O2607	O	0.498602	-0.375180	0.846960
	C2608	C	0.451980	-0.285902	0.901321
	C2609	C	0.457991	-0.375592	0.905699
	C2610	C	0.451952	-0.465484	0.901366
	C2611	C	0.440285	-0.465514	0.892662
	C2612	C	0.434315	-0.375712	0.888058
	C2613	C	0.440309	-0.285866	0.892617
	C2614	C	0.421970	-0.375736	0.877624
	C2615	C	0.470489	-0.375667	0.915502
	C2616	C	0.386268	-0.375675	0.878937
	C2617	C	0.374490	-0.375598	0.893195
	C2618	C	0.368934	-0.286785	0.900088
	C2619	C	0.358126	-0.286522	0.913566
	C2620	C	0.352613	-0.375323	0.920435
	C2621	C	0.358142	-0.464137	0.913479
	C2622	C	0.368939	-0.464332	0.900002
	C2623	C	0.341111	-0.375683	0.935340
	C2624	C	0.387135	-0.125754	0.832285
	C2625	C	0.374673	-0.125588	0.822409
	C2626	C	0.368627	-0.035814	0.818048
	C2627	C	0.356937	-0.035890	0.809344
	C2628	C	0.350939	-0.125627	0.804758
	C2629	C	0.356967	-0.215460	0.809233
	C2630	C	0.368656	-0.215367	0.817911
	C2631	C	0.338610	-0.125294	0.794339
	C2632	C	0.425078	-0.126070	0.838457
	C2633	C	0.439088	-0.125868	0.840154
	C2634	C	0.445692	-0.215536	0.841899
	C2635	C	0.458502	-0.215255	0.845041
	C2636	C	0.465075	-0.125169	0.846423
	C2637	C	0.458461	-0.035378	0.844845
	C2638	C	0.445654	-0.035793	0.841728
	C2639	C	0.479087	-0.125164	0.847932
	H2640	H	0.463483	-0.285436	0.846265
	H2641	H	0.440765	-0.285603	0.840627
	H2642	H	0.456516	-0.216359	0.904722
	H2643	H	0.435781	-0.216032	0.889330
	H2644	H	0.407547	-0.376042	0.826818
	H2645	H	0.403849	-0.126070	0.882509
	H2646	H	0.323358	-0.125549	0.934902
	H2647	H	0.496672	-0.374839	0.861203
	H2648	H	0.373180	-0.284893	0.821235
	H2649	H	0.352483	-0.285437	0.805768
	H2650	H	0.353996	-0.217467	0.918930
	H2651	H	0.373123	-0.218221	0.894902
	H2652	H	0.352430	0.033788	0.806000
	H2653	H	0.373155	0.033810	0.821562
	H2654	H	0.373120	-0.533349	0.894882
	H2655	H	0.354017	-0.532907	0.918782
	H2656	H	0.435754	-0.535414	0.889376
	H2657	H	0.456479	-0.535295	0.904762
	H2658	H	0.440729	0.034273	0.840301
	H2659	H	0.463387	0.034709	0.845943
	Al2660	Al	0.404624	-0.000152	0.854510
	Al2661	Al	0.404661	0.248603	0.854444
	Al2662	Al	0.321265	0.249772	0.771206
	Al2663	Al	0.321291	-0.001345	0.770963
	O2664	O	0.417133	0.039930	0.873716
	O2665	O	0.405646	0.124204	0.841090
	O2666	O	0.404091	0.374150	0.867978
	O2667	O	0.475374	0.039653	0.919391
	O2668	O	0.390978	0.040507	0.873436
	O2669	O	0.336544	0.040764	0.940907
	O2670	O	0.390878	0.208485	0.873347
	O2671	O	0.392143	0.290348	0.835882
	O2672	O	0.333773	0.290220	0.790322
	O2673	O	0.417126	0.208007	0.873760
	O2674	O	0.419542	0.290250	0.838067
	O2675	O	0.484661	0.290632	0.848000
	O2676	O	0.336610	0.208724	0.940959
	O2677	O	0.392135	0.458760	0.835966
	O2678	O	0.333804	0.458345	0.790259
	O2679	O	0.484621	0.459085	0.848288
	O2680	O	0.419560	0.458605	0.838113
	O2681	O	0.475432	0.207697	0.919418
	O2682	O	0.323645	0.374837	0.949265
	O2683	O	0.498642	0.125060	0.846733
	C2684	C	0.452032	0.213742	0.901278
	C2685	C	0.458028	0.124014	0.905688
	C2686	C	0.451965	0.034569	0.901364
	C2687	C	0.440263	0.034737	0.892706
	C2688	C	0.434269	0.124375	0.888208
	C2689	C	0.440313	0.213946	0.892612
	C2690	C	0.421949	0.124093	0.877800
	C2691	C	0.470486	0.123691	0.915576
	C2692	C	0.386255	0.124420	0.878846
	C2693	C	0.374566	0.124023	0.893272
	C2694	C	0.368978	0.212867	0.900017
	C2695	C	0.358169	0.213101	0.913465
	C2696	C	0.352659	0.124237	0.920418
	C2697	C	0.358208	0.035214	0.913564
	C2698	C	0.369015	0.035078	0.900083
	C2699	C	0.341103	0.124589	0.935234
	C2700	C	0.387208	0.374424	0.832163
	C2701	C	0.374686	0.374324	0.822317
	C2702	C	0.368627	0.463978	0.817998
	C2703	C	0.356929	0.463963	0.809336
	C2704	C	0.350955	0.374298	0.804805
	C2705	C	0.356999	0.284687	0.809263
	C2706	C	0.368704	0.284725	0.817904
	C2707	C	0.338627	0.374362	0.794369
	C2708	C	0.425112	0.374363	0.838611
	C2709	C	0.439106	0.374394	0.840216
	C2710	C	0.445689	0.284613	0.841862
	C2711	C	0.458506	0.284634	0.844950
	C2712	C	0.465087	0.374680	0.846416
	C2713	C	0.458536	0.464618	0.844822
	C2714	C	0.445710	0.464366	0.841717
	C2715	C	0.479100	0.374806	0.847756
	H2716	H	0.463479	0.214844	0.846186
	H2717	H	0.440770	0.214385	0.840612
	H2718	H	0.456582	0.283414	0.904588
	H2719	H	0.435856	0.283707	0.889103
	H2720	H	0.407247	0.124179	0.826747
	H2721	H	0.403579	0.374677	0.882503
	H2722	H	0.323422	0.374352	0.934828
	H2723	H	0.496760	0.125649	0.861044
	H2724	H	0.373294	0.215189	0.821163
	H2725	H	0.352575	0.214952	0.805765
	H2726	H	0.353946	0.282200	0.918649
	H2727	H	0.373103	0.281940	0.894663
	H2728	H	0.352393	0.533730	0.805971
	H2729	H	0.373139	0.533517	0.821360
	H2730	H	0.373161	-0.033737	0.894785
	H2731	H	0.354010	-0.033665	0.918813
	H2732	H	0.435796	-0.035294	0.889269
	H2733	H	0.456472	-0.035228	0.904736
	H2734	H	0.440746	0.534369	0.840377
	H2735	H	0.463462	0.534875	0.845957
	Al2736	Al	0.571247	-0.500356	0.021103
	Al2737	Al	0.571288	-0.251385	0.021055
	Al2738	Al	0.487952	-0.250278	-0.062199
	Al2739	Al	0.488000	-0.501464	-0.062285
	O2740	O	0.583780	-0.460086	0.040340
	O2741	O	0.572218	-0.375946	0.007756
	O2742	O	0.570796	-0.126195	0.034544
	O2743	O	0.642116	-0.459703	0.085842
	O2744	O	0.557604	-0.459556	0.040102
	O2745	O	0.503202	-0.459298	0.107685
	O2746	O	0.557587	-0.291803	0.039988
	O2747	O	0.558835	-0.209393	0.002564
	O2748	O	0.500491	-0.210155	-0.043170
	O2749	O	0.583774	-0.292052	0.040222
	O2750	O	0.586264	-0.210572	0.004596
	O2751	O	0.651294	-0.208932	0.015100
	O2752	O	0.503246	-0.291022	0.107602
	O2753	O	0.558712	-0.041143	0.002721
	O2754	O	0.500415	-0.041848	-0.042973
	O2755	O	0.651286	-0.040602	0.014966
	O2756	O	0.586185	-0.041925	0.004542
	O2757	O	0.642077	-0.291451	0.085931
	O2758	O	0.490322	-0.125273	0.115807
	O2759	O	0.665312	-0.374661	0.013531
	C2760	C	0.618553	-0.285967	0.068219
	C2761	C	0.624649	-0.375527	0.072379
	C2762	C	0.618642	-0.465117	0.067997
	C2763	C	0.606932	-0.465451	0.059373
	C2764	C	0.600931	-0.375922	0.054869
	C2765	C	0.606854	-0.286220	0.059546
	C2766	C	0.588593	-0.375832	0.044357
	C2767	C	0.637166	-0.375517	0.082123
	C2768	C	0.552929	-0.375544	0.045462
	C2769	C	0.541154	-0.375526	0.059768
	C2770	C	0.535520	-0.286884	0.066517
	C2771	C	0.524739	-0.286878	0.080063
	C2772	C	0.519286	-0.375684	0.087075
	C2773	C	0.524903	-0.464434	0.080299
	C2774	C	0.535679	-0.464382	0.066777
	C2775	C	0.507769	-0.375321	0.101966
	C2776	C	0.553829	-0.125529	-0.001128
	C2777	C	0.541347	-0.125605	-0.010948
	C2778	C	0.535235	-0.036063	-0.015228
	C2779	C	0.523544	-0.036325	-0.023882
	C2780	C	0.517605	-0.126135	-0.028567
	C2781	C	0.523645	-0.215689	-0.024037
	C2782	C	0.535332	-0.215312	-0.015354
	C2783	C	0.505275	-0.125903	-0.038944
	C2784	C	0.591774	-0.126157	0.005043
	C2785	C	0.605761	-0.125703	0.006782
	C2786	C	0.612347	-0.215703	0.008587
	C2787	C	0.625166	-0.215349	0.011762
	C2788	C	0.631717	-0.125182	0.013141
	C2789	C	0.625102	-0.035233	0.011523
	C2790	C	0.612302	-0.035588	0.008320
	C2791	C	0.645725	-0.124856	0.014584
	H2792	H	0.630150	-0.285349	0.013063
	H2793	H	0.607470	-0.285796	0.007401
	H2794	H	0.622980	-0.216223	0.071810
	H2795	H	0.602258	-0.216582	0.056270
	H2796	H	0.574184	-0.376048	-0.006347
	H2797	H	0.570341	-0.126315	0.049048
	H2798	H	0.489993	-0.125096	0.101416
	H2799	H	0.663416	-0.375112	0.027813
	H2800	H	0.539937	-0.284982	-0.012034
	H2801	H	0.519154	-0.285767	-0.027414
	H2802	H	0.520552	-0.217982	0.085284
	H2803	H	0.539665	-0.218050	0.061182
	H2804	H	0.518950	0.033495	-0.027094
	H2805	H	0.539712	0.033719	-0.011744
	H2806	H	0.539933	-0.533121	0.061677
	H2807	H	0.520831	-0.533275	0.085770
	H2808	H	0.602487	-0.535297	0.055971
	H2809	H	0.623187	-0.534873	0.071348
	H2810	H	0.607294	0.034267	0.006964
	H2811	H	0.629976	0.035029	0.012686
	Al2812	Al	0.571269	-0.000566	0.021116
	Al2813	Al	0.571234	0.248528	0.021187
	Al2814	Al	0.488016	0.249419	-0.062302
	Al2815	Al	0.487957	-0.001437	-0.062118
	O2816	O	0.583805	0.039774	0.040227
	O2817	O	0.572280	0.124219	0.007781
	O2818	O	0.570852	0.374315	0.034606
	O2819	O	0.642094	0.040096	0.085960
	O2820	O	0.557608	0.039843	0.040131
	O2821	O	0.503212	0.040501	0.107733
	O2822	O	0.557565	0.207911	0.040044
	O2823	O	0.558717	0.289953	0.002823
	O2824	O	0.500530	0.290203	-0.043309
	O2825	O	0.583707	0.207969	0.040448
	O2826	O	0.586169	0.290019	0.004673
	O2827	O	0.651246	0.290953	0.014994
	O2828	O	0.503188	0.208827	0.107643
	O2829	O	0.558714	0.458076	0.002676
	O2830	O	0.500466	0.458329	-0.042970
	O2831	O	0.651258	0.459365	0.015051
	O2832	O	0.586145	0.458313	0.004556
	O2833	O	0.642029	0.208479	0.086148
	O2834	O	0.490275	0.374757	0.115836
	O2835	O	0.665347	0.125155	0.013629
	C2836	C	0.618602	0.213790	0.068044
	C2837	C	0.624704	0.124140	0.072217
	C2838	C	0.618682	0.034422	0.067746
	C2839	C	0.607000	0.034139	0.059070
	C2840	C	0.600992	0.123982	0.054608
	C2841	C	0.606922	0.213769	0.059316
	C2842	C	0.588606	0.124053	0.044313
	C2843	C	0.637154	0.124123	0.082211
	C2844	C	0.552932	0.124075	0.045529
	C2845	C	0.541164	0.123957	0.059865
	C2846	C	0.535497	0.213167	0.066494
	C2847	C	0.524718	0.213543	0.079929
	C2848	C	0.519236	0.124513	0.087034
	C2849	C	0.524874	0.035286	0.080360
	C2850	C	0.535668	0.034976	0.066955
	C2851	C	0.507735	0.124547	0.101965
	C2852	C	0.553780	0.373891	-0.001013
	C2853	C	0.541293	0.373866	-0.010857
	C2854	C	0.535233	0.463602	-0.015074
	C2855	C	0.523531	0.463933	-0.023781
	C2856	C	0.517603	0.374220	-0.028443
	C2857	C	0.523621	0.284495	-0.024060
	C2858	C	0.535326	0.284204	-0.015377
	C2859	C	0.505285	0.374343	-0.038997
	C2860	C	0.591711	0.374220	0.005057
	C2861	C	0.605721	0.374458	0.006767
	C2862	C	0.612302	0.284517	0.008540
	C2863	C	0.625101	0.284805	0.011665
	C2864	C	0.631679	0.375068	0.013088
	C2865	C	0.625068	0.464831	0.011504
	C2866	C	0.612278	0.464547	0.008305
	C2867	C	0.645718	0.375130	0.014576
	H2868	H	0.630017	0.214609	0.013071
	H2869	H	0.607308	0.214596	0.007448
	H2870	H	0.623047	0.283506	0.071607
	H2871	H	0.602386	0.283708	0.056087
	H2872	H	0.574137	0.123956	-0.006503
	H2873	H	0.570584	0.374091	0.049077
	H2874	H	0.489701	0.375246	0.101479
	H2875	H	0.663489	0.125314	0.027899
	H2876	H	0.539836	0.214406	-0.012120
	H2877	H	0.519171	0.214269	-0.027606
	H2878	H	0.520460	0.282543	0.085019
	H2879	H	0.539617	0.282067	0.061100
	H2880	H	0.519024	0.533829	-0.027061
	H2881	H	0.539651	0.533405	-0.011590
	H2882	H	0.539937	-0.034076	0.061893
	H2883	H	0.520742	-0.033720	0.085834
	H2884	H	0.602509	-0.035789	0.055665
	H2885	H	0.623224	-0.035195	0.071066
	H2886	H	0.607349	0.534800	0.007012
	H2887	H	0.630023	0.534740	0.012722
	Al2888	Al	0.574100	-0.500312	0.212225
	Al2889	Al	0.574029	-0.250404	0.212280
	Al2890	Al	0.490751	-0.250172	0.128978
	Al2891	Al	0.490709	-0.500235	0.129011
	O2892	O	0.587631	-0.459602	0.228655
	O2893	O	0.573641	-0.375304	0.199080
	O2894	O	0.574547	-0.125194	0.225464
	O2895	O	0.643948	-0.459204	0.279047
	O2896	O	0.561848	-0.459345	0.234014
	O2897	O	0.512010	-0.459108	0.311154
	O2898	O	0.561913	-0.291538	0.234132
	O2899	O	0.560579	-0.209544	0.195711
	O2900	O	0.504308	-0.209103	0.145274
	O2901	O	0.587595	-0.291363	0.228696
	O2902	O	0.586574	-0.209429	0.190942
	O2903	O	0.640921	-0.209522	0.123328
	O2904	O	0.511950	-0.291105	0.311092
	O2905	O	0.560621	-0.041244	0.195729
	O2906	O	0.504201	-0.041130	0.145475
	O2907	O	0.640949	-0.041524	0.123436
	O2908	O	0.586569	-0.041466	0.190833
	O2909	O	0.643906	-0.290836	0.279074
	O2910	O	0.499392	-0.125014	0.320162
	O2911	O	0.654170	-0.375983	0.117818
	C2912	C	0.621387	-0.285981	0.258777
	C2913	C	0.627135	-0.375083	0.263939
	C2914	C	0.621421	-0.464422	0.258921
	C2915	C	0.610165	-0.464511	0.248882
	C2916	C	0.604412	-0.375370	0.243775
	C2917	C	0.610149	-0.286043	0.248788
	C2918	C	0.592348	-0.375623	0.232843
	C2919	C	0.639202	-0.375056	0.274873
	C2920	C	0.557691	-0.375471	0.240512
	C2921	C	0.546973	-0.375414	0.257060
	C2922	C	0.541883	-0.286386	0.264890
	C2923	C	0.531940	-0.286362	0.280229
	C2924	C	0.526837	-0.375195	0.288103
	C2925	C	0.531877	-0.464280	0.280180
	C2926	C	0.541814	-0.464373	0.264838
	C2927	C	0.516170	-0.375004	0.304767
	C2928	C	0.555871	-0.125288	0.191532
	C2929	C	0.543808	-0.125026	0.180621
	C2930	C	0.538007	-0.035946	0.175704
	C2931	C	0.526757	-0.036067	0.165700
	C2932	C	0.521059	-0.125119	0.160439
	C2933	C	0.526879	-0.214250	0.165277
	C2934	C	0.538131	-0.214149	0.175284
	C2935	C	0.509000	-0.124973	0.149500
	C2936	C	0.591117	-0.125379	0.185218
	C2937	C	0.602611	-0.125730	0.170318
	C2938	C	0.608163	-0.214736	0.163481
	C2939	C	0.618984	-0.214685	0.150030
	C2940	C	0.624530	-0.125765	0.143166
	C2941	C	0.618903	-0.036838	0.149874
	C2942	C	0.608077	-0.036649	0.163325
	C2943	C	0.636286	-0.125503	0.128852
	H2944	H	0.623171	-0.284034	0.144869
	H2945	H	0.604028	-0.283642	0.168833
	H2946	H	0.625723	-0.216691	0.262713
	H2947	H	0.605796	-0.216931	0.244814
	H2948	H	0.573287	-0.375299	0.184778
	H2949	H	0.575275	-0.125289	0.239744
	H2950	H	0.498928	-0.125179	0.305784
	H2951	H	0.653774	-0.376275	0.132367
	H2952	H	0.542568	-0.283089	0.179046
	H2953	H	0.522584	-0.283216	0.161093
	H2954	H	0.528149	-0.217358	0.286300
	H2955	H	0.545778	-0.217361	0.258996
	H2956	H	0.522386	0.032812	0.161829
	H2957	H	0.542318	0.033135	0.179740
	H2958	H	0.545599	-0.533554	0.258905
	H2959	H	0.528055	-0.533014	0.286184
	H2960	H	0.605833	-0.533681	0.244962
	H2961	H	0.625760	-0.533444	0.262952
	H2962	H	0.603902	0.032694	0.168508
	H2963	H	0.623050	0.032345	0.144545
	Al2964	Al	0.574078	-0.000197	0.212262
	Al2965	Al	0.574124	0.249485	0.212298
	Al2966	Al	0.490744	0.249621	0.128941
	Al2967	Al	0.490680	-0.000496	0.129011
	O2968	O	0.587672	0.040478	0.228701
	O2969	O	0.573770	0.124666	0.199177
	O2970	O	0.574478	0.374654	0.225407
	O2971	O	0.643968	0.041088	0.279195
	O2972	O	0.561858	0.040539	0.234029
	O2973	O	0.512028	0.040847	0.311107
	O2974	O	0.561876	0.208420	0.234027
	O2975	O	0.560652	0.290191	0.195704
	O2976	O	0.504246	0.290341	0.145484
	O2977	O	0.587622	0.208787	0.228902
	O2978	O	0.586672	0.290289	0.190915
	O2979	O	0.641046	0.290882	0.123537
	O2980	O	0.512025	0.208955	0.311091
	O2981	O	0.560614	0.458371	0.195816
	O2982	O	0.504251	0.458655	0.145384
	O2983	O	0.640938	0.458738	0.123343
	O2984	O	0.586537	0.458233	0.190825
	O2985	O	0.643969	0.209253	0.279113
	O2986	O	0.499409	0.375048	0.320259
	O2987	O	0.654123	0.124339	0.117988
	C2988	C	0.621444	0.213891	0.258885
	C2989	C	0.627215	0.124877	0.263948
	C2990	C	0.621458	0.035950	0.258961
	C2991	C	0.610227	0.035891	0.248948
	C2992	C	0.604472	0.124732	0.243799
	C2993	C	0.610179	0.213828	0.248894
	C2994	C	0.592419	0.124352	0.232906
	C2995	C	0.639252	0.125170	0.274944
	C2996	C	0.557625	0.124583	0.240365
	C2997	C	0.546892	0.124852	0.256902
	C2998	C	0.541853	0.213893	0.264798
	C2999	C	0.531957	0.214031	0.280160
	C3000	C	0.526867	0.125129	0.288021
	C3001	C	0.531978	0.036126	0.280272
	C3002	C	0.541858	0.036252	0.264917
	C3003	C	0.516214	0.124951	0.304639
	C3004	C	0.555869	0.374160	0.191653
	C3005	C	0.543858	0.374193	0.180614
	C3006	C	0.538028	0.463473	0.175759
	C3007	C	0.526787	0.463658	0.165713
	C3008	C	0.521100	0.374498	0.160416
	C3009	C	0.526924	0.285255	0.165309
	C3010	C	0.538166	0.285055	0.175320
	C3011	C	0.509006	0.374363	0.149560
	C3012	C	0.591154	0.374527	0.185174
	C3013	C	0.602651	0.374667	0.170310
	C3014	C	0.608213	0.285674	0.163436
	C3015	C	0.619003	0.285863	0.149991
	C3016	C	0.624555	0.374982	0.143166
	C3017	C	0.618933	0.463926	0.149888
	C3018	C	0.608139	0.463598	0.163316
	C3019	C	0.636305	0.374689	0.128834
	H3020	H	0.623216	0.217136	0.144692
	H3021	H	0.604026	0.216624	0.168665
	H3022	H	0.625782	0.282546	0.262899
	H3023	H	0.605823	0.282253	0.244852
	H3024	H	0.573500	0.124515	0.184775
	H3025	H	0.575027	0.375094	0.239743
	H3026	H	0.498797	0.375140	0.306003
	H3027	H	0.653624	0.124282	0.132487
	H3028	H	0.542554	0.215950	0.179100
	H3029	H	0.522599	0.216313	0.161310
	H3030	H	0.528155	0.282954	0.286191
	H3031	H	0.545680	0.282676	0.258861
	H3032	H	0.522339	0.532442	0.162060
	H3033	H	0.542317	0.532349	0.179965
	H3034	H	0.545726	-0.032923	0.258957
	H3035	H	0.528219	-0.033023	0.286346
	H3036	H	0.605888	-0.033066	0.244957
	H3037	H	0.625844	-0.032780	0.262961
	H3038	H	0.603917	0.532382	0.168482
	H3039	H	0.623063	0.532919	0.144514
	Al3040	Al	0.583338	-0.500027	0.416637
	Al3041	Al	0.583218	-0.249895	0.416621
	Al3042	Al	0.499925	-0.250016	0.333229
	Al3043	Al	0.499994	-0.500121	0.333281
	O3044	O	0.596968	-0.459025	0.432863
	O3045	O	0.582673	-0.374914	0.403619
	O3046	O	0.583802	-0.125065	0.429743
	O3047	O	0.652961	-0.459306	0.483901
	O3048	O	0.571300	-0.459534	0.438756
	O3049	O	0.521418	-0.459234	0.515784
	O3050	O	0.571288	-0.291346	0.438735
	O3051	O	0.569674	-0.208996	0.400391
	O3052	O	0.513551	-0.209150	0.349371
	O3053	O	0.596882	-0.290712	0.432837
	O3054	O	0.595259	-0.208709	0.394528
	O3055	O	0.645168	-0.208820	0.317560
	O3056	O	0.521433	-0.291185	0.515814
	O3057	O	0.569563	-0.040951	0.400437
	O3058	O	0.513602	-0.040935	0.349390
	O3059	O	0.645241	-0.040698	0.317698
	O3060	O	0.595248	-0.040702	0.394589
	O3061	O	0.653038	-0.291090	0.483936
	O3062	O	0.508783	-0.124702	0.524666
	O3063	O	0.657790	-0.375580	0.308851
	C3064	C	0.630529	-0.285393	0.463507
	C3065	C	0.636237	-0.374524	0.468688
	C3066	C	0.630547	-0.463524	0.463433
	C3067	C	0.619379	-0.463486	0.453231
	C3068	C	0.613666	-0.374417	0.448080
	C3069	C	0.619359	-0.285267	0.453283
	C3070	C	0.601628	-0.374650	0.437090
	C3071	C	0.648259	-0.374940	0.479718
	C3072	C	0.567080	-0.375400	0.445142
	C3073	C	0.556409	-0.375493	0.461770
	C3074	C	0.551335	-0.286532	0.469688
	C3075	C	0.541439	-0.286251	0.485029
	C3076	C	0.536341	-0.375366	0.492836
	C3077	C	0.541430	-0.464318	0.484971
	C3078	C	0.551334	-0.464440	0.469628
	C3079	C	0.525623	-0.375338	0.509376
	C3080	C	0.564875	-0.124883	0.396236
	C3081	C	0.552875	-0.125587	0.385167
	C3082	C	0.547128	-0.036532	0.380066
	C3083	C	0.535937	-0.036737	0.369896
	C3084	C	0.530286	-0.125637	0.364640
	C3085	C	0.536051	-0.214734	0.369675
	C3086	C	0.547237	-0.214571	0.379863
	C3087	C	0.518279	-0.125337	0.353580
	C3088	C	0.599437	-0.124754	0.388146
	C3089	C	0.610134	-0.124417	0.371507
	C3090	C	0.615188	-0.213429	0.363628
	C3091	C	0.625138	-0.213737	0.348319
	C3092	C	0.630257	-0.124608	0.340544
	C3093	C	0.625176	-0.035398	0.348340
	C3094	C	0.615205	-0.035351	0.363631
	C3095	C	0.640981	-0.124759	0.323978
	H3096	H	0.628915	-0.282917	0.342364
	H3097	H	0.611336	-0.282579	0.369553
	H3098	H	0.634873	-0.216576	0.467562
	H3099	H	0.615034	-0.216626	0.449237
	H3100	H	0.581961	-0.375000	0.389261
	H3101	H	0.584590	-0.124861	0.444020
	H3102	H	0.508242	-0.124968	0.510249
	H3103	H	0.658445	-0.375353	0.323305
	H3104	H	0.551592	-0.283366	0.383776
	H3105	H	0.531750	-0.283599	0.365614
	H3106	H	0.537575	-0.217075	0.490923
	H3107	H	0.555165	-0.217596	0.463713
	H3108	H	0.531562	0.031811	0.365927
	H3109	H	0.551414	0.031935	0.384166
	H3110	H	0.555186	-0.533392	0.463682
	H3111	H	0.537564	-0.533145	0.490900
	H3112	H	0.615057	-0.532434	0.449178
	H3113	H	0.634862	-0.532357	0.467467
	H3114	H	0.611359	0.033900	0.369546
	H3115	H	0.628995	0.033694	0.342318
	Al3116	Al	0.583219	0.000100	0.416701
	Al3117	Al	0.583247	0.250031	0.416573
	Al3118	Al	0.500035	0.250017	0.333250
	Al3119	Al	0.499983	0.000020	0.333185
	O3120	O	0.596841	0.040636	0.432865
	O3121	O	0.582622	0.124762	0.403618
	O3122	O	0.583969	0.374778	0.429711
	O3123	O	0.652919	0.040352	0.483885
	O3124	O	0.571248	0.041159	0.438859
	O3125	O	0.521357	0.041462	0.515867
	O3126	O	0.571213	0.209336	0.438774
	O3127	O	0.569767	0.291387	0.400383
	O3128	O	0.513631	0.290914	0.349566
	O3129	O	0.596889	0.208931	0.432807
	O3130	O	0.595306	0.290483	0.394459
	O3131	O	0.645261	0.290302	0.317570
	O3132	O	0.521427	0.209480	0.515962
	O3133	O	0.569712	0.459393	0.400373
	O3134	O	0.513599	0.459021	0.349543
	O3135	O	0.645139	0.458440	0.317411
	O3136	O	0.595360	0.458468	0.394551
	O3137	O	0.652883	0.208743	0.484002
	O3138	O	0.508791	0.375147	0.524604
	O3139	O	0.657881	0.124919	0.308836
	C3140	C	0.630466	0.213484	0.463468
	C3141	C	0.636188	0.124457	0.468611
	C3142	C	0.630475	0.035435	0.463517
	C3143	C	0.619298	0.035606	0.453331
	C3144	C	0.613604	0.124651	0.448096
	C3145	C	0.619293	0.213633	0.453272
	C3146	C	0.601579	0.124757	0.437052
	C3147	C	0.648206	0.124700	0.479670
	C3148	C	0.567032	0.125165	0.445253
	C3149	C	0.556356	0.125373	0.461847
	C3150	C	0.551281	0.214355	0.469710
	C3151	C	0.541373	0.214374	0.485073
	C3152	C	0.536315	0.125337	0.492955
	C3153	C	0.541438	0.036283	0.485155
	C3154	C	0.551342	0.036284	0.469784
	C3155	C	0.525619	0.125295	0.509504
	C3156	C	0.564990	0.375365	0.396208
	C3157	C	0.552985	0.375320	0.385193
	C3158	C	0.547233	0.464308	0.380140
	C3159	C	0.536028	0.464089	0.370033
	C3160	C	0.530331	0.375170	0.364850
	C3161	C	0.536094	0.286296	0.369898
	C3162	C	0.547292	0.286453	0.379995
	C3163	C	0.518326	0.375114	0.353771
	C3164	C	0.599548	0.374483	0.388143
	C3165	C	0.610219	0.374448	0.371484
	C3166	C	0.615259	0.285388	0.363577
	C3167	C	0.625149	0.285383	0.348218
	C3168	C	0.630239	0.374427	0.340380
	C3169	C	0.625199	0.463450	0.348280
	C3170	C	0.615311	0.463505	0.363643
	C3171	C	0.640979	0.374395	0.323903
	H3172	H	0.628966	0.216341	0.342248
	H3173	H	0.611453	0.216337	0.369563
	H3174	H	0.634797	0.282488	0.467385
	H3175	H	0.614948	0.282335	0.449278
	H3176	H	0.582174	0.124448	0.389220
	H3177	H	0.584736	0.374993	0.443975
	H3178	H	0.508279	0.375598	0.510264
	H3179	H	0.658366	0.125431	0.323172
	H3180	H	0.551667	0.217547	0.383856
	H3181	H	0.531768	0.217186	0.365878
	H3182	H	0.537583	0.283561	0.491130
	H3183	H	0.555084	0.283564	0.463696
	H3184	H	0.531659	0.532606	0.366079
	H3185	H	0.551591	0.532726	0.384214
	H3186	H	0.555228	-0.032840	0.463914
	H3187	H	0.537664	-0.032631	0.491183
	H3188	H	0.614931	-0.033067	0.449350
	H3189	H	0.634821	-0.033388	0.467566
	H3190	H	0.611513	0.532608	0.369694
	H3191	H	0.629035	0.532518	0.342351
	Al3192	Al	0.592478	-0.499579	0.621201
	Al3193	Al	0.592480	-0.249574	0.621147
	Al3194	Al	0.509278	-0.249656	0.537763
	Al3195	Al	0.509228	-0.499705	0.537815
	O3196	O	0.605919	-0.458958	0.637755
	O3197	O	0.592001	-0.374887	0.608076
	O3198	O	0.592902	-0.124703	0.634268
	O3199	O	0.662297	-0.458213	0.687958
	O3200	O	0.579986	-0.458278	0.642493
	O3201	O	0.525696	-0.458158	0.710257
	O3202	O	0.579978	-0.290319	0.642578
	O3203	O	0.579034	-0.207949	0.604677
	O3204	O	0.522699	-0.208081	0.554292
	O3205	O	0.605881	-0.290963	0.637757
	O3206	O	0.604750	-0.209119	0.599375
	O3207	O	0.654520	-0.209285	0.522267
	O3208	O	0.525682	-0.290200	0.710201
	O3209	O	0.579014	-0.040086	0.604709
	O3210	O	0.522755	-0.039848	0.554168
	O3211	O	0.654540	-0.041361	0.522361
	O3212	O	0.604688	-0.041062	0.599273
	O3213	O	0.662240	-0.290177	0.688047
	O3214	O	0.512511	-0.124103	0.715676
	O3215	O	0.667242	-0.375103	0.513124
	C3216	C	0.639748	-0.285579	0.667648
	C3217	C	0.645522	-0.374318	0.672764
	C3218	C	0.639760	-0.463172	0.667846
	C3219	C	0.628502	-0.463183	0.657860
	C3220	C	0.622760	-0.374406	0.652678
	C3221	C	0.628495	-0.285416	0.657655
	C3222	C	0.610666	-0.374899	0.641819
	C3223	C	0.657523	-0.374266	0.683831
	C3224	C	0.575414	-0.374320	0.648241
	C3225	C	0.563896	-0.374489	0.663094
	C3226	C	0.558374	-0.285833	0.670061
	C3227	C	0.547617	-0.285826	0.683586
	C3228	C	0.542048	-0.374402	0.690364
	C3229	C	0.547644	-0.463324	0.683619
	C3230	C	0.558423	-0.463136	0.670107
	C3231	C	0.530331	-0.374319	0.704708
	C3232	C	0.574266	-0.124101	0.600575
	C3233	C	0.562211	-0.124217	0.589676
	C3234	C	0.556471	-0.035154	0.584578
	C3235	C	0.545252	-0.035014	0.574521
	C3236	C	0.539500	-0.124162	0.569411
	C3237	C	0.545178	-0.213296	0.574679
	C3238	C	0.556420	-0.213409	0.584711
	C3239	C	0.527484	-0.124049	0.558383
	C3240	C	0.608965	-0.125116	0.592984
	C3241	C	0.619654	-0.125186	0.576397
	C3242	C	0.624716	-0.214273	0.568525
	C3243	C	0.634586	-0.214283	0.553101
	C3244	C	0.639670	-0.125169	0.545322
	C3245	C	0.634556	-0.036139	0.553072
	C3246	C	0.624682	-0.036063	0.568480
	C3247	C	0.650330	-0.125267	0.528731
	H3248	H	0.638451	-0.283238	0.547163
	H3249	H	0.620941	-0.283449	0.574504
	H3250	H	0.644113	-0.216859	0.671565
	H3251	H	0.624123	-0.216572	0.653661
	H3252	H	0.591441	-0.374767	0.593733
	H3253	H	0.593193	-0.124256	0.648684
	H3254	H	0.512917	-0.124296	0.701079
	H3255	H	0.667842	-0.375244	0.527440
	H3256	H	0.560721	-0.282351	0.588795
	H3257	H	0.540739	-0.282256	0.570766
	H3258	H	0.543482	-0.216938	0.688901
	H3259	H	0.562563	-0.217223	0.664798
	H3260	H	0.540950	0.033911	0.570560
	H3261	H	0.560842	0.033708	0.588523
	H3262	H	0.562622	-0.531877	0.664869
	H3263	H	0.543513	-0.531849	0.688983
	H3264	H	0.624116	-0.531882	0.654093
	H3265	H	0.644097	-0.531785	0.671975
	H3266	H	0.620854	0.033014	0.574344
	H3267	H	0.638353	0.033021	0.547100
	Al3268	Al	0.592553	0.000331	0.621195
	Al3269	Al	0.592516	0.250391	0.621161
	Al3270	Al	0.509221	0.250223	0.537786
	Al3271	Al	0.509213	0.000445	0.537696
	O3272	O	0.606080	0.041603	0.637604
	O3273	O	0.592104	0.125396	0.608027
	O3274	O	0.592850	0.375408	0.634245
	O3275	O	0.662285	0.041497	0.688146
	O3276	O	0.580091	0.040937	0.642658
	O3277	O	0.525650	0.041562	0.710062
	O3278	O	0.580086	0.209127	0.642577
	O3279	O	0.578948	0.290729	0.604768
	O3280	O	0.522650	0.290935	0.554343
	O3281	O	0.606031	0.209706	0.637681
	O3282	O	0.604651	0.291793	0.599315
	O3283	O	0.654473	0.291348	0.522235
	O3284	O	0.525724	0.209624	0.710077
	O3285	O	0.578970	0.459069	0.604597
	O3286	O	0.522694	0.459160	0.554210
	O3287	O	0.654523	0.459552	0.522366
	O3288	O	0.604679	0.459991	0.599428
	O3289	O	0.662400	0.209572	0.687969
	O3290	O	0.512608	0.375588	0.715658
	O3291	O	0.667064	0.125089	0.513240
	C3292	C	0.639766	0.214712	0.667972
	C3293	C	0.645526	0.125740	0.673055
	C3294	C	0.639806	0.036744	0.667966
	C3295	C	0.628587	0.036644	0.657872
	C3296	C	0.622829	0.125553	0.652794
	C3297	C	0.628556	0.214602	0.657918
	C3298	C	0.610804	0.125591	0.641792
	C3299	C	0.657585	0.125604	0.683960
	C3300	C	0.575592	0.125231	0.648296
	C3301	C	0.564052	0.125413	0.663249
	C3302	C	0.558468	0.214537	0.670067
	C3303	C	0.547682	0.214635	0.683515
	C3304	C	0.542130	0.125678	0.690367
	C3305	C	0.547697	0.036592	0.683536
	C3306	C	0.558493	0.036599	0.670106
	C3307	C	0.530374	0.125411	0.704649
	C3308	C	0.574221	0.374849	0.600531
	C3309	C	0.562179	0.375002	0.589623
	C3310	C	0.556425	0.464008	0.584588
	C3311	C	0.545196	0.463951	0.574521
	C3312	C	0.539439	0.374930	0.569455
	C3313	C	0.545217	0.285792	0.574492
	C3314	C	0.556441	0.285902	0.584504
	C3315	C	0.527414	0.374819	0.558444
	C3316	C	0.608905	0.375942	0.592997
	C3317	C	0.619587	0.375743	0.576442
	C3318	C	0.624708	0.286746	0.568641
	C3319	C	0.634597	0.286719	0.553262
	C3320	C	0.639683	0.375599	0.545392
	C3321	C	0.634627	0.464675	0.553246
	C3322	C	0.624729	0.464632	0.568636
	C3323	C	0.650301	0.375413	0.528715
	H3324	H	0.638445	0.217446	0.547328
	H3325	H	0.620937	0.217863	0.574673
	H3326	H	0.644093	0.283585	0.671991
	H3327	H	0.624215	0.283385	0.653990
	H3328	H	0.591664	0.125105	0.593596
	H3329	H	0.593127	0.375568	0.648589
	H3330	H	0.513119	0.375543	0.701195
	H3331	H	0.667564	0.124907	0.527604
	H3332	H	0.560853	0.217244	0.588323
	H3333	H	0.540908	0.216887	0.570475
	H3334	H	0.543488	0.283734	0.688723
	H3335	H	0.562629	0.283807	0.664720
	H3336	H	0.540847	0.532570	0.570521
	H3337	H	0.560778	0.532507	0.588431
	H3338	H	0.562668	-0.032660	0.664808
	H3339	H	0.543470	-0.032441	0.688738
	H3340	H	0.624211	-0.032269	0.653921
	H3341	H	0.644161	-0.032067	0.672018
	H3342	H	0.620928	0.533534	0.574707
	H3343	H	0.638446	0.533767	0.547254
	Al3344	Al	0.595380	-0.499782	0.812377
	Al3345	Al	0.595332	-0.248792	0.812336
	Al3346	Al	0.512020	-0.249678	0.729192
	Al3347	Al	0.511985	-0.498889	0.729192
	O3348	O	0.607949	-0.457919	0.830844
	O3349	O	0.595895	-0.374131	0.798939
	O3350	O	0.594439	-0.123828	0.825627
	O3351	O	0.666181	-0.458793	0.876690
	O3352	O	0.580500	-0.458420	0.828940
	O3353	O	0.515367	-0.459247	0.818559
	O3354	O	0.580455	-0.290008	0.828881
	O3355	O	0.582818	-0.208433	0.793272
	O3356	O	0.524545	-0.208506	0.747698
	O3357	O	0.607978	-0.289710	0.830725
	O3358	O	0.608989	-0.208104	0.793278
	O3359	O	0.663434	-0.208440	0.725908
	O3360	O	0.515331	-0.290911	0.818551
	O3361	O	0.582932	-0.040232	0.793013
	O3362	O	0.524512	-0.040425	0.747573
	O3363	O	0.663489	-0.040430	0.726023
	O3364	O	0.609053	-0.040152	0.793271
	O3365	O	0.666301	-0.290948	0.876392
	O3366	O	0.501376	-0.125086	0.820059
	O3367	O	0.676283	-0.374492	0.717537
	C3368	C	0.643090	-0.284843	0.857567
	C3369	C	0.649078	-0.374449	0.862026
	C3370	C	0.643067	-0.463965	0.857481
	C3371	C	0.631394	-0.463615	0.848782
	C3372	C	0.625365	-0.374024	0.844486
	C3373	C	0.631399	-0.284586	0.848916
	C3374	C	0.612883	-0.373778	0.834566
	C3375	C	0.661430	-0.374809	0.872431
	C3376	C	0.574910	-0.374245	0.828454
	C3377	C	0.560897	-0.374445	0.826748
	C3378	C	0.554330	-0.284630	0.824963
	C3379	C	0.541504	-0.284769	0.821821
	C3380	C	0.534933	-0.374843	0.820389
	C3381	C	0.541519	-0.464691	0.821949
	C3382	C	0.554327	-0.464491	0.825143
	C3383	C	0.520910	-0.375023	0.818972
	C3384	C	0.578072	-0.124281	0.789003
	C3385	C	0.565747	-0.124424	0.778586
	C3386	C	0.559737	-0.034887	0.774065
	C3387	C	0.548023	-0.034956	0.765472
	C3388	C	0.541953	-0.124430	0.761190
	C3389	C	0.547980	-0.214119	0.765559
	C3390	C	0.559712	-0.213991	0.774165
	C3391	C	0.529446	-0.124237	0.751394
	C3392	C	0.613686	-0.124187	0.787822
	C3393	C	0.625460	-0.124390	0.773624
	C3394	C	0.631072	-0.213544	0.766870
	C3395	C	0.641910	-0.213572	0.753489
	C3396	C	0.647422	-0.124400	0.746568
	C3397	C	0.641878	-0.035381	0.753475
	C3398	C	0.631053	-0.035339	0.766847
	C3399	C	0.658922	-0.124526	0.731686
	H3400	H	0.646103	-0.282641	0.748295
	H3401	H	0.626861	-0.282430	0.772048
	H3402	H	0.647620	-0.215206	0.860981
	H3403	H	0.626900	-0.214517	0.845583
	H3404	H	0.596652	-0.374474	0.784385
	H3405	H	0.592913	-0.123818	0.839951
	H3406	H	0.503090	-0.124831	0.805779
	H3407	H	0.676712	-0.373911	0.731860
	H3408	H	0.564220	-0.283787	0.777623
	H3409	H	0.543439	-0.283808	0.762325
	H3410	H	0.536575	-0.214638	0.820444
	H3411	H	0.559288	-0.214633	0.826092
	H3412	H	0.543468	0.034604	0.762168
	H3413	H	0.564223	0.034975	0.777490
	H3414	H	0.559249	-0.534552	0.826416
	H3415	H	0.536593	-0.535011	0.820737
	H3416	H	0.626861	-0.533144	0.845293
	H3417	H	0.647547	-0.533984	0.860808
	H3418	H	0.626847	0.033722	0.771999
	H3419	H	0.646065	0.033706	0.748284
	Al3420	Al	0.595383	0.000361	0.812298
	Al3421	Al	0.595401	0.251351	0.812460
	Al3422	Al	0.512066	0.250231	0.729083
	Al3423	Al	0.512039	0.001147	0.729062
	O3424	O	0.607957	0.041690	0.830773
	O3425	O	0.595855	0.126051	0.798905
	O3426	O	0.594489	0.376079	0.825756
	O3427	O	0.666239	0.041571	0.876543
	O3428	O	0.580530	0.041605	0.828932
	O3429	O	0.515412	0.040878	0.818625
	O3430	O	0.580474	0.209948	0.828877
	O3431	O	0.582878	0.291525	0.793375
	O3432	O	0.524600	0.290936	0.747608
	O3433	O	0.607932	0.209809	0.830878
	O3434	O	0.609040	0.291989	0.793412
	O3435	O	0.663370	0.291408	0.725770
	O3436	O	0.515422	0.209053	0.818573
	O3437	O	0.582928	0.459819	0.793187
	O3438	O	0.524574	0.459086	0.747584
	O3439	O	0.663386	0.459603	0.725775
	O3440	O	0.609058	0.459873	0.793452
	O3441	O	0.666190	0.209814	0.876724
	O3442	O	0.501395	0.375310	0.820000
	O3443	O	0.676385	0.125459	0.717551
	C3444	C	0.643058	0.215299	0.857608
	C3445	C	0.649090	0.125492	0.862016
	C3446	C	0.643138	0.035876	0.857289
	C3447	C	0.631457	0.035697	0.848584
	C3448	C	0.625385	0.125675	0.844359
	C3449	C	0.631377	0.215160	0.848935
	C3450	C	0.612872	0.125627	0.834593
	C3451	C	0.661427	0.125712	0.872461
	C3452	C	0.574945	0.125550	0.828452
	C3453	C	0.560958	0.124924	0.826862
	C3454	C	0.554379	0.214723	0.825015
	C3455	C	0.541573	0.214704	0.821863
	C3456	C	0.534982	0.124920	0.820457
	C3457	C	0.541586	0.034952	0.822126
	C3458	C	0.554412	0.034898	0.825305
	C3459	C	0.520960	0.124983	0.819020
	C3460	C	0.578084	0.375582	0.789208
	C3461	C	0.565743	0.375515	0.778730
	C3462	C	0.559724	0.465058	0.774276
	C3463	C	0.548020	0.464978	0.765630
	C3464	C	0.542007	0.375279	0.761273
	C3465	C	0.548109	0.285709	0.765413
	C3466	C	0.559809	0.285802	0.774064
	C3467	C	0.529498	0.375051	0.751378
	C3468	C	0.613683	0.375919	0.787907
	C3469	C	0.625407	0.375655	0.773573
	C3470	C	0.630964	0.286584	0.766702
	C3471	C	0.641770	0.286417	0.753233
	C3472	C	0.647335	0.375497	0.746396
	C3473	C	0.641836	0.464482	0.753347
	C3474	C	0.631027	0.464550	0.766840
	C3475	C	0.658852	0.375425	0.731521
	H3476	H	0.645928	0.217407	0.747952
	H3477	H	0.626789	0.217479	0.771914
	H3478	H	0.647510	0.285186	0.861092
	H3479	H	0.626816	0.284972	0.845593
	H3480	H	0.596052	0.125665	0.784347
	H3481	H	0.592752	0.376309	0.840031
	H3482	H	0.503196	0.376317	0.805769
	H3483	H	0.676642	0.125610	0.731979
	H3484	H	0.564321	0.215866	0.777376
	H3485	H	0.543652	0.215825	0.761945
	H3486	H	0.536605	0.284765	0.820609
	H3487	H	0.559283	0.284803	0.826184
	H3488	H	0.543491	0.534596	0.762348
	H3489	H	0.564197	0.535261	0.777716
	H3490	H	0.559362	-0.035197	0.826681
	H3491	H	0.536638	-0.035280	0.821090
	H3492	H	0.626977	-0.033996	0.844980
	H3493	H	0.647719	-0.033898	0.860518
	H3494	H	0.626868	0.533687	0.772132
	H3495	H	0.646049	0.533871	0.748144
	Al3496	Al	0.583317	-0.499866	0.916772
	Al3497	Al	0.583383	-0.249669	0.916670
	Al3498	Al	0.499993	-0.249904	0.833500
	Al3499	Al	0.500009	-0.499593	0.833547
	O3500	O	0.595320	-0.459008	0.936739
	O3501	O	0.584742	-0.374865	0.903402
	O3502	O	0.581879	-0.125026	0.930174
	O3503	O	0.654763	-0.458606	0.979997
	O3504	O	0.567986	-0.458728	0.931729
	O3505	O	0.502938	-0.460119	0.921327
	O3506	O	0.567998	-0.290603	0.931601
	O3507	O	0.571510	-0.208977	0.896458
	O3508	O	0.511949	-0.208771	0.853662
	O3509	O	0.595271	-0.290891	0.936866
	O3510	O	0.598840	-0.209300	0.902082
	O3511	O	0.663917	-0.208231	0.912326
	O3512	O	0.502837	-0.291638	0.921280
	O3513	O	0.571440	-0.041168	0.896598
	O3514	O	0.511941	-0.040764	0.853721
	O3515	O	0.663877	-0.039762	0.912288
	O3516	O	0.598763	-0.040770	0.902037
	O3517	O	0.654690	-0.290546	0.980164
	O3518	O	0.488899	-0.125933	0.924521
	O3519	O	0.677719	-0.374342	0.909073
	C3520	C	0.630933	-0.284928	0.962418
	C3521	C	0.637154	-0.374592	0.966509
	C3522	C	0.631002	-0.464540	0.962395
	C3523	C	0.619038	-0.464560	0.954690
	C3524	C	0.612849	-0.374797	0.950487
	C3525	C	0.618969	-0.284969	0.954679
	C3526	C	0.600185	-0.374959	0.940781
	C3527	C	0.649821	-0.374530	0.976098
	C3528	C	0.562450	-0.374660	0.931171
	C3529	C	0.548419	-0.374743	0.929713
	C3530	C	0.541815	-0.284962	0.928130
	C3531	C	0.529038	-0.285068	0.924947
	C3532	C	0.522458	-0.375174	0.923317
	C3533	C	0.529037	-0.465008	0.925061
	C3534	C	0.541832	-0.464930	0.928255
	C3535	C	0.508448	-0.375654	0.921756
	C3536	C	0.566521	-0.125068	0.892646
	C3537	C	0.553913	-0.125092	0.882953
	C3538	C	0.547689	-0.035350	0.879063
	C3539	C	0.535683	-0.035283	0.871377
	C3540	C	0.529510	-0.124831	0.867246
	C3541	C	0.535747	-0.214524	0.871141
	C3542	C	0.547737	-0.214616	0.878831
	C3543	C	0.516879	-0.124829	0.857600
	C3544	C	0.604339	-0.124908	0.902424
	C3545	C	0.618351	-0.124653	0.903948
	C3546	C	0.624957	-0.214553	0.905502
	C3547	C	0.637780	-0.214325	0.908573
	C3548	C	0.644323	-0.124073	0.910096
	C3549	C	0.637710	-0.034273	0.908398
	C3550	C	0.624906	-0.034325	0.905345
	C3551	C	0.658344	-0.124045	0.911813
	H3552	H	0.642705	-0.284400	0.909915
	H3553	H	0.619976	-0.284569	0.904383
	H3554	H	0.635545	-0.214774	0.965339
	H3555	H	0.614317	-0.214946	0.951815
	H3556	H	0.586459	-0.374936	0.889121
	H3557	H	0.579888	-0.125449	0.944408
	H3558	H	0.490777	-0.125842	0.910247
	H3559	H	0.675910	-0.373948	0.923262
	H3560	H	0.552376	-0.285102	0.881661
	H3561	H	0.531180	-0.284397	0.868073
	H3562	H	0.524063	-0.215050	0.923807
	H3563	H	0.546736	-0.214982	0.929489
	H3564	H	0.531068	0.035141	0.868519
	H3565	H	0.552293	0.034864	0.882071
	H3566	H	0.546795	-0.534811	0.929681
	H3567	H	0.524080	-0.535093	0.924001
	H3568	H	0.614392	-0.534684	0.951786
	H3569	H	0.635627	-0.534616	0.965322
	H3570	H	0.619974	0.035747	0.904052
	H3571	H	0.642672	0.035656	0.909631
	Al3572	Al	0.583318	-0.000060	0.916820
	Al3573	Al	0.583329	0.249716	0.916787
	Al3574	Al	0.500060	0.250196	0.833312
	Al3575	Al	0.500081	0.000070	0.833424
	O3576	O	0.595244	0.041299	0.937030
	O3577	O	0.584832	0.124782	0.903427
	O3578	O	0.581911	0.374899	0.930200
	O3579	O	0.654826	0.041345	0.979964
	O3580	O	0.567964	0.040581	0.931614
	O3581	O	0.502882	0.039411	0.921417
	O3582	O	0.567973	0.208946	0.931597
	O3583	O	0.571494	0.291065	0.896453
	O3584	O	0.511932	0.291301	0.853475
	O3585	O	0.595256	0.209349	0.937084
	O3586	O	0.598732	0.290570	0.901994
	O3587	O	0.663812	0.291276	0.912337
	O3588	O	0.502841	0.207711	0.921042
	O3589	O	0.571313	0.459196	0.896830
	O3590	O	0.511889	0.459327	0.853687
	O3591	O	0.663744	0.459866	0.912269
	O3592	O	0.598668	0.458974	0.901809
	O3593	O	0.654713	0.209281	0.980093
	O3594	O	0.488946	0.373923	0.924400
	O3595	O	0.677758	0.125587	0.909141
	C3596	C	0.630975	0.214681	0.962437
	C3597	C	0.637206	0.124964	0.966361
	C3598	C	0.630993	0.035325	0.962393
	C3599	C	0.619029	0.035280	0.954654
	C3600	C	0.612836	0.125046	0.950599
	C3601	C	0.619011	0.214733	0.954676
	C3602	C	0.600240	0.125295	0.940830
	C3603	C	0.649798	0.125225	0.976204
	C3604	C	0.562415	0.124797	0.931228
	C3605	C	0.548378	0.124767	0.929845
	C3606	C	0.541779	0.214562	0.928192
	C3607	C	0.528977	0.214143	0.925009
	C3608	C	0.522426	0.124195	0.923530
	C3609	C	0.529009	0.034347	0.925187
	C3610	C	0.541808	0.034804	0.928325
	C3611	C	0.508435	0.123610	0.921702
	C3612	C	0.566462	0.374992	0.892776
	C3613	C	0.553861	0.374932	0.883049
	C3614	C	0.547619	0.464610	0.879134
	C3615	C	0.535638	0.464749	0.871403
	C3616	C	0.529503	0.375030	0.867148
	C3617	C	0.535756	0.285216	0.870948
	C3618	C	0.547740	0.285275	0.878693
	C3619	C	0.516839	0.375308	0.857540
	C3620	C	0.604245	0.374946	0.902341
	C3621	C	0.618277	0.375172	0.903755
	C3622	C	0.624868	0.285110	0.905308
	C3623	C	0.637676	0.285221	0.908470
	C3624	C	0.644239	0.375292	0.910152
	C3625	C	0.637690	0.465487	0.908394
	C3626	C	0.624871	0.465266	0.905243
	C3627	C	0.658242	0.375476	0.911790
	H3628	H	0.642642	0.215364	0.909763
	H3629	H	0.619968	0.214672	0.904054
	H3630	H	0.635551	0.285203	0.965425
	H3631	H	0.614420	0.284862	0.951687
	H3632	H	0.587158	0.124985	0.889289
	H3633	H	0.580131	0.375160	0.944533
	H3634	H	0.490765	0.373783	0.910090
	H3635	H	0.675950	0.125328	0.923439
	H3636	H	0.552395	0.215043	0.881391
	H3637	H	0.531194	0.215200	0.867748
	H3638	H	0.523997	0.283967	0.923728
	H3639	H	0.546668	0.284634	0.929468
	H3640	H	0.531009	0.535104	0.868587
	H3641	H	0.552207	0.534818	0.882206
	H3642	H	0.546752	-0.035099	0.929687
	H3643	H	0.524084	-0.035784	0.924078
	H3644	H	0.614455	-0.034950	0.951636
	H3645	H	0.635612	-0.035061	0.965369
	H3646	H	0.619865	0.535175	0.903997
	H3647	H	0.642608	0.535508	0.909569
	Al3648	Al	0.750007	-0.499793	0.083530
	Al3649	Al	0.749999	-0.250089	0.083461
	Al3650	Al	0.666687	-0.249922	0.000171
	Al3651	Al	0.666689	-0.499864	0.000180
	O3652	O	0.762012	-0.458655	0.103548
	O3653	O	0.751353	-0.374843	0.070126
	O3654	O	0.748594	-0.124619	0.096781
	O3655	O	0.821580	-0.458917	0.146440
	O3656	O	0.734635	-0.458918	0.098331
	O3657	O	0.669535	-0.459862	0.087874
	O3658	O	0.734560	-0.290569	0.098167
	O3659	O	0.738129	-0.208799	0.063188
	O3660	O	0.678612	-0.209540	0.020415
	O3661	O	0.761887	-0.290761	0.103765
	O3662	O	0.765428	-0.209938	0.068803
	O3663	O	0.830562	-0.208688	0.078805
	O3664	O	0.669527	-0.291729	0.087877
	O3665	O	0.738158	-0.040908	0.063209
	O3666	O	0.678574	-0.041357	0.020331
	O3667	O	0.830506	-0.040161	0.078731
	O3668	O	0.765362	-0.041757	0.068497
	O3669	O	0.821491	-0.290875	0.146651
	O3670	O	0.655631	-0.125918	0.091147
	O3671	O	0.844489	-0.374414	0.075577
	C3672	C	0.797775	-0.285199	0.128881
	C3673	C	0.803946	-0.374970	0.132969
	C3674	C	0.797778	-0.464721	0.128886
	C3675	C	0.785776	-0.464493	0.121157
	C3676	C	0.779558	-0.374677	0.117194
	C3677	C	0.785769	-0.285009	0.121172
	C3678	C	0.766925	-0.374610	0.107447
	C3679	C	0.816554	-0.374999	0.142724
	C3680	C	0.729066	-0.374894	0.097824
	C3681	C	0.715067	-0.375041	0.096368
	C3682	C	0.708468	-0.285252	0.094633
	C3683	C	0.695669	-0.285633	0.091467
	C3684	C	0.689111	-0.375631	0.089992
	C3685	C	0.695706	-0.465356	0.091746
	C3686	C	0.708524	-0.465082	0.094898
	C3687	C	0.675098	-0.375716	0.088276
	C3688	C	0.733225	-0.124886	0.059247
	C3689	C	0.720571	-0.125051	0.049635
	C3690	C	0.714339	-0.035370	0.045567
	C3691	C	0.702363	-0.035581	0.037878
	C3692	C	0.696188	-0.125451	0.033798
	C3693	C	0.702443	-0.215080	0.037807
	C3694	C	0.714421	-0.215084	0.045534
	C3695	C	0.683530	-0.125360	0.024203
	C3696	C	0.770956	-0.125770	0.069082
	C3697	C	0.784982	-0.125626	0.070391
	C3698	C	0.791639	-0.215266	0.071887
	C3699	C	0.804455	-0.214959	0.075018
	C3700	C	0.810989	-0.124877	0.076663
	C3701	C	0.804344	-0.035135	0.075106
	C3702	C	0.791536	-0.035483	0.071962
	C3703	C	0.824973	-0.124515	0.078341
	H3704	H	0.809412	-0.284699	0.076171
	H3705	H	0.786702	-0.285331	0.070573
	H3706	H	0.802347	-0.215017	0.131917
	H3707	H	0.781157	-0.214637	0.118333
	H3708	H	0.753287	-0.374336	0.055897
	H3709	H	0.746489	-0.124466	0.111144
	H3710	H	0.657389	-0.125423	0.076806
	H3711	H	0.842705	-0.374152	0.089888
	H3712	H	0.719021	-0.285077	0.048587
	H3713	H	0.697825	-0.285076	0.034959
	H3714	H	0.690726	-0.215765	0.090109
	H3715	H	0.713352	-0.215042	0.095881
	H3716	H	0.697663	0.034686	0.035115
	H3717	H	0.718922	0.034757	0.048696
	H3718	H	0.713484	-0.535121	0.096365
	H3719	H	0.690758	-0.535369	0.090653
	H3720	H	0.781157	-0.534747	0.118289
	H3721	H	0.802348	-0.534917	0.131886
	H3722	H	0.786592	0.034522	0.070654
	H3723	H	0.809263	0.035021	0.076340
	Al3724	Al	0.750081	0.000222	0.083382
	Al3725	Al	0.750019	0.250306	0.083418
	Al3726	Al	0.666672	0.250242	0.000166
	Al3727	Al	0.666665	0.000190	0.000186
	O3728	O	0.761959	0.041128	0.103475
	O3729	O	0.751409	0.125090	0.069937
	O3730	O	0.748586	0.374985	0.096894
	O3731	O	0.821484	0.041226	0.146539
	O3732	O	0.734714	0.041222	0.098280
	O3733	O	0.669565	0.039803	0.088114
	O3734	O	0.734611	0.209479	0.098075
	O3735	O	0.738154	0.291323	0.063067
	O3736	O	0.678590	0.291170	0.020433
	O3737	O	0.761985	0.208971	0.103500
	O3738	O	0.765410	0.291188	0.068719
	O3739	O	0.830561	0.291923	0.078854
	O3740	O	0.669588	0.208133	0.087935
	O3741	O	0.738128	0.459219	0.063279
	O3742	O	0.678534	0.459285	0.020438
	O3743	O	0.830497	0.459893	0.078733
	O3744	O	0.765441	0.459464	0.068788
	O3745	O	0.821421	0.209026	0.146685
	O3746	O	0.655586	0.373964	0.091097
	O3747	O	0.844490	0.125629	0.075704
	C3748	C	0.797672	0.214560	0.128972
	C3749	C	0.803874	0.124872	0.133029
	C3750	C	0.797722	0.035122	0.128835
	C3751	C	0.785748	0.035184	0.121106
	C3752	C	0.779532	0.124891	0.117080
	C3753	C	0.785700	0.214612	0.121234
	C3754	C	0.766922	0.124980	0.107360
	C3755	C	0.816520	0.125098	0.142766
	C3756	C	0.729112	0.125129	0.097869
	C3757	C	0.715109	0.124339	0.096389
	C3758	C	0.708501	0.214206	0.094660
	C3759	C	0.695694	0.213919	0.091511
	C3760	C	0.689138	0.123793	0.090113
	C3761	C	0.695746	0.033888	0.091881
	C3762	C	0.708547	0.034243	0.095065
	C3763	C	0.675133	0.123894	0.088456
	C3764	C	0.733181	0.375399	0.059317
	C3765	C	0.720535	0.375406	0.049643
	C3766	C	0.714305	0.465006	0.045694
	C3767	C	0.702328	0.465023	0.038021
	C3768	C	0.696117	0.375274	0.034057
	C3769	C	0.702372	0.285530	0.037912
	C3770	C	0.714359	0.285623	0.045583
	C3771	C	0.683521	0.375206	0.024244
	C3772	C	0.770972	0.375263	0.069149
	C3773	C	0.784978	0.375495	0.070423
	C3774	C	0.791574	0.285445	0.071930
	C3775	C	0.804378	0.285730	0.075083
	C3776	C	0.810951	0.375701	0.076654
	C3777	C	0.804358	0.465635	0.075049
	C3778	C	0.791544	0.465343	0.071934
	C3779	C	0.824955	0.375809	0.078391
	H3780	H	0.809375	0.215726	0.076303
	H3781	H	0.786677	0.215112	0.070685
	H3782	H	0.802267	0.284733	0.131895
	H3783	H	0.781091	0.284807	0.118280
	H3784	H	0.753177	0.125073	0.055611
	H3785	H	0.746775	0.374677	0.111110
	H3786	H	0.657133	0.374092	0.076833
	H3787	H	0.842760	0.125681	0.089967
	H3788	H	0.719007	0.215523	0.048614
	H3789	H	0.697819	0.215294	0.034957
	H3790	H	0.690729	0.284020	0.090041
	H3791	H	0.713430	0.284357	0.095716
	H3792	H	0.697688	0.535146	0.035104
	H3793	H	0.718873	0.535326	0.048757
	H3794	H	0.713523	-0.035641	0.096369
	H3795	H	0.690814	-0.036537	0.090743
	H3796	H	0.781184	-0.035128	0.118073
	H3797	H	0.802383	-0.035107	0.131646
	H3798	H	0.786596	0.535542	0.070674
	H3799	H	0.809271	0.535741	0.076265
	Al3800	Al	0.737935	-0.500055	0.187888
	Al3801	Al	0.737960	-0.251196	0.187888
	Al3802	Al	0.654613	-0.250382	0.104323
	Al3803	Al	0.654672	-0.501298	0.104377
	O3804	O	0.750530	-0.459936	0.206914
	O3805	O	0.738943	-0.375452	0.174577
	O3806	O	0.737468	-0.125511	0.201252
	O3807	O	0.808766	-0.460052	0.252692
	O3808	O	0.724262	-0.459633	0.206909
	O3809	O	0.669833	-0.459017	0.274265
	O3810	O	0.724288	-0.291504	0.206834
	O3811	O	0.725455	-0.209385	0.169334
	O3812	O	0.667138	-0.209533	0.123569
	O3813	O	0.750458	-0.291666	0.207139
	O3814	O	0.752887	-0.209968	0.171459
	O3815	O	0.817978	-0.209118	0.181456
	O3816	O	0.669873	-0.290929	0.274361
	O3817	O	0.725342	-0.041316	0.169379
	O3818	O	0.667083	-0.041490	0.123701
	O3819	O	0.817955	-0.040847	0.181475
	O3820	O	0.752835	-0.041724	0.171220
	O3821	O	0.808749	-0.292065	0.252865
	O3822	O	0.657001	-0.125337	0.282630
	O3823	O	0.832017	-0.375231	0.180200
	C3824	C	0.785316	-0.285968	0.234798
	C3825	C	0.791357	-0.375572	0.239134
	C3826	C	0.785336	-0.465215	0.234844
	C3827	C	0.773622	-0.465191	0.226174
	C3828	C	0.767645	-0.375678	0.221580
	C3829	C	0.773595	-0.286023	0.226150
	C3830	C	0.755290	-0.375922	0.211208
	C3831	C	0.803860	-0.375899	0.249001
	C3832	C	0.719603	-0.375331	0.212299
	C3833	C	0.707832	-0.375217	0.226566
	C3834	C	0.702232	-0.286213	0.233296
	C3835	C	0.691410	-0.286210	0.246704
	C3836	C	0.685900	-0.375146	0.253664
	C3837	C	0.691437	-0.464081	0.246775
	C3838	C	0.702265	-0.464158	0.233346
	C3839	C	0.674376	-0.374887	0.268599
	C3840	C	0.720471	-0.125470	0.165658
	C3841	C	0.707968	-0.125323	0.155747
	C3842	C	0.701864	-0.035667	0.151555
	C3843	C	0.690157	-0.035725	0.142806
	C3844	C	0.684244	-0.125455	0.138161
	C3845	C	0.690321	-0.215174	0.142419
	C3846	C	0.702038	-0.215039	0.151140
	C3847	C	0.671904	-0.125660	0.127728
	C3848	C	0.758424	-0.125688	0.171838
	C3849	C	0.772401	-0.125429	0.173554
	C3850	C	0.778997	-0.215317	0.175165
	C3851	C	0.791800	-0.215006	0.178281
	C3852	C	0.798380	-0.124984	0.179754
	C3853	C	0.791771	-0.035042	0.178232
	C3854	C	0.778961	-0.035375	0.175109
	C3855	C	0.812412	-0.125004	0.181120
	H3856	H	0.796724	-0.285073	0.179556
	H3857	H	0.774061	-0.285178	0.173909
	H3858	H	0.789808	-0.216302	0.238220
	H3859	H	0.769078	-0.216134	0.222836
	H3860	H	0.740728	-0.375879	0.160250
	H3861	H	0.737032	-0.125658	0.215809
	H3862	H	0.656810	-0.125093	0.268126
	H3863	H	0.830238	-0.375244	0.194482
	H3864	H	0.706597	-0.284785	0.154271
	H3865	H	0.685905	-0.284968	0.138772
	H3866	H	0.687249	-0.217208	0.251935
	H3867	H	0.706379	-0.217308	0.227949
	H3868	H	0.685629	0.034468	0.139545
	H3869	H	0.706312	0.034109	0.155029
	H3870	H	0.706404	-0.533059	0.228102
	H3871	H	0.687282	-0.532731	0.252122
	H3872	H	0.769107	-0.535226	0.222900
	H3873	H	0.789833	-0.534952	0.238272
	H3874	H	0.774007	0.034540	0.173786
	H3875	H	0.796728	0.034918	0.179410
	Al3876	Al	0.737983	-0.000396	0.187732
	Al3877	Al	0.737973	0.248867	0.187847
	Al3878	Al	0.654692	0.249765	0.104450
	Al3879	Al	0.654600	-0.001286	0.104514
	O3880	O	0.750521	0.039953	0.206807
	O3881	O	0.738915	0.124454	0.174450
	O3882	O	0.737479	0.374475	0.201277
	O3883	O	0.808714	0.039979	0.252905
	O3884	O	0.724295	0.040702	0.206723
	O3885	O	0.669944	0.040561	0.274324
	O3886	O	0.724215	0.208774	0.206625
	O3887	O	0.725441	0.290717	0.169333
	O3888	O	0.667197	0.290054	0.123507
	O3889	O	0.750389	0.208197	0.207134
	O3890	O	0.752923	0.289917	0.171487
	O3891	O	0.817967	0.290774	0.181570
	O3892	O	0.669974	0.208491	0.274298
	O3893	O	0.725337	0.458787	0.169442
	O3894	O	0.667140	0.458146	0.123624
	O3895	O	0.817920	0.459207	0.181338
	O3896	O	0.752799	0.458366	0.171257
	O3897	O	0.808655	0.208204	0.253065
	O3898	O	0.657046	0.374458	0.282571
	O3899	O	0.831951	0.124907	0.180254
	C3900	C	0.785257	0.213633	0.234813
	C3901	C	0.791274	0.124048	0.239292
	C3902	C	0.785247	0.034354	0.234898
	C3903	C	0.773568	0.034374	0.226196
	C3904	C	0.767586	0.123951	0.221558
	C3905	C	0.773560	0.213654	0.226113
	C3906	C	0.755252	0.124009	0.211091
	C3907	C	0.803761	0.124061	0.249112
	C3908	C	0.719587	0.124556	0.212113
	C3909	C	0.707851	0.124540	0.226486
	C3910	C	0.702288	0.213574	0.233349
	C3911	C	0.691516	0.213530	0.246868
	C3912	C	0.686021	0.124434	0.253772
	C3913	C	0.691539	0.035324	0.246824
	C3914	C	0.702315	0.035422	0.233328
	C3915	C	0.674501	0.124508	0.268643
	C3916	C	0.720465	0.374561	0.165636
	C3917	C	0.707998	0.373910	0.155805
	C3918	C	0.701944	0.463664	0.151447
	C3919	C	0.690264	0.463646	0.142702
	C3920	C	0.684298	0.373968	0.138128
	C3921	C	0.690327	0.284121	0.142568
	C3922	C	0.702024	0.284077	0.151299
	C3923	C	0.671980	0.374213	0.127707
	C3924	C	0.758394	0.374446	0.171888
	C3925	C	0.772414	0.374791	0.173570
	C3926	C	0.778989	0.284753	0.175087
	C3927	C	0.791818	0.285180	0.178223
	C3928	C	0.798371	0.375119	0.179730
	C3929	C	0.791779	0.465153	0.178298
	C3930	C	0.778948	0.464836	0.175217
	C3931	C	0.812395	0.374928	0.181047
	H3932	H	0.796808	0.215316	0.179407
	H3933	H	0.774102	0.214476	0.173770
	H3934	H	0.789766	0.283315	0.238111
	H3935	H	0.769056	0.283261	0.222645
	H3936	H	0.740571	0.124407	0.160141
	H3937	H	0.736862	0.374341	0.215830
	H3938	H	0.656754	0.374701	0.268176
	H3939	H	0.830320	0.124472	0.194466
	H3940	H	0.706613	0.214569	0.154509
	H3941	H	0.685895	0.213979	0.138985
	H3942	H	0.687340	0.282329	0.252207
	H3943	H	0.706437	0.282740	0.228052
	H3944	H	0.685714	0.533576	0.139329
	H3945	H	0.706455	0.533495	0.154838
	H3946	H	0.706500	-0.033447	0.228021
	H3947	H	0.687384	-0.033643	0.252175
	H3948	H	0.769065	-0.035657	0.222836
	H3949	H	0.789760	-0.035591	0.238278
	H3950	H	0.773998	0.534709	0.173999
	H3951	H	0.796664	0.535366	0.179506
	Al3952	Al	0.740689	-0.500456	0.379110
	Al3953	Al	0.740726	-0.250330	0.379141
	Al3954	Al	0.657360	-0.250469	0.295788
	Al3955	Al	0.657387	-0.500674	0.295650
	O3956	O	0.754255	-0.459422	0.395662
	O3957	O	0.740276	-0.375443	0.366045
	O3958	O	0.741091	-0.124967	0.392311
	O3959	O	0.810626	-0.459451	0.445849
	O3960	O	0.728487	-0.459450	0.400926
	O3961	O	0.678571	-0.458887	0.477896
	O3962	O	0.728536	-0.291078	0.400938
	O3963	O	0.727225	-0.209658	0.362496
	O3964	O	0.670882	-0.209644	0.312309
	O3965	O	0.754202	-0.290995	0.395675
	O3966	O	0.753184	-0.209485	0.357782
	O3967	O	0.807503	-0.209761	0.290150
	O3968	O	0.678656	-0.290717	0.477967
	O3969	O	0.727252	-0.041523	0.362540
	O3970	O	0.670956	-0.041217	0.312160
	O3971	O	0.807568	-0.041717	0.290173
	O3972	O	0.753186	-0.041383	0.357763
	O3973	O	0.810641	-0.290936	0.445732
	O3974	O	0.665922	-0.124908	0.487110
	O3975	O	0.820758	-0.375927	0.284770
	C3976	C	0.788124	-0.286042	0.425570
	C3977	C	0.793846	-0.375288	0.430692
	C3978	C	0.788113	-0.464365	0.425601
	C3979	C	0.776847	-0.464531	0.415578
	C3980	C	0.771083	-0.375126	0.410598
	C3981	C	0.776865	-0.286016	0.415618
	C3982	C	0.758978	-0.375291	0.399743
	C3983	C	0.805876	-0.375094	0.441659
	C3984	C	0.724260	-0.374989	0.407240
	C3985	C	0.713553	-0.375083	0.423879
	C3986	C	0.708518	-0.286075	0.431729
	C3987	C	0.698604	-0.285944	0.447116
	C3988	C	0.693501	-0.374813	0.454874
	C3989	C	0.698534	-0.463818	0.447028
	C3990	C	0.708455	-0.463950	0.431650
	C3991	C	0.682832	-0.374726	0.471571
	C3992	C	0.722487	-0.125779	0.358371
	C3993	C	0.710439	-0.125603	0.347430
	C3994	C	0.704717	-0.036375	0.342349
	C3995	C	0.693492	-0.036177	0.332320
	C3996	C	0.687714	-0.125409	0.327301
	C3997	C	0.693454	-0.214816	0.332287
	C3998	C	0.704697	-0.214942	0.342329
	C3999	C	0.675684	-0.125558	0.316352
	C4000	C	0.757733	-0.125375	0.352107
	C4001	C	0.769243	-0.125315	0.337167
	C4002	C	0.774689	-0.214400	0.330014
	C4003	C	0.785479	-0.214414	0.316553
	C4004	C	0.791148	-0.125482	0.309921
	C4005	C	0.785646	-0.036370	0.316905
	C4006	C	0.774862	-0.036298	0.330365
	C4007	C	0.802898	-0.125535	0.295648
	H4008	H	0.789644	-0.283522	0.311113
	H4009	H	0.770447	-0.283421	0.335212
	H4010	H	0.792478	-0.217242	0.429417
	H4011	H	0.772520	-0.217271	0.411698
	H4012	H	0.739843	-0.375857	0.351637
	H4013	H	0.741451	-0.124811	0.406731
	H4014	H	0.665187	-0.124374	0.472780
	H4015	H	0.820381	-0.376057	0.299211
	H4016	H	0.709087	-0.283969	0.346247
	H4017	H	0.689112	-0.283722	0.328225
	H4018	H	0.694843	-0.216838	0.453114
	H4019	H	0.712331	-0.217264	0.425768
	H4020	H	0.689196	0.032891	0.328298
	H4021	H	0.709059	0.032816	0.346347
	H4022	H	0.712198	-0.533210	0.425630
	H4023	H	0.694685	-0.532847	0.452987
	H4024	H	0.772503	-0.533120	0.411559
	H4025	H	0.792504	-0.533134	0.429514
	H4026	H	0.770730	0.032701	0.335774
	H4027	H	0.789933	0.032606	0.311858
	Al4028	Al	0.740701	-0.000422	0.379133
	Al4029	Al	0.740677	0.249560	0.379064
	Al4030	Al	0.657464	0.249683	0.295655
	Al4031	Al	0.657397	-0.000277	0.295767
	O4032	O	0.754198	0.040683	0.395591
	O4033	O	0.740217	0.124498	0.366032
	O4034	O	0.741192	0.374518	0.392237
	O4035	O	0.810563	0.040886	0.445755
	O4036	O	0.728417	0.040646	0.400889
	O4037	O	0.678650	0.040692	0.478111
	O4038	O	0.728443	0.208823	0.400912
	O4039	O	0.727181	0.290626	0.362636
	O4040	O	0.671010	0.290745	0.312113
	O4041	O	0.754200	0.209098	0.395613
	O4042	O	0.753157	0.290238	0.357656
	O4043	O	0.807603	0.290058	0.290278
	O4044	O	0.678518	0.209055	0.477978
	O4045	O	0.727251	0.458667	0.362517
	O4046	O	0.670934	0.458981	0.312084
	O4047	O	0.807549	0.457756	0.290185
	O4048	O	0.753234	0.458427	0.357762
	O4049	O	0.810596	0.209045	0.445698
	O4050	O	0.665889	0.374788	0.487080
	O4051	O	0.820843	0.124231	0.284811
	C4052	C	0.788046	0.213603	0.425545
	C4053	C	0.793782	0.124428	0.430615
	C4054	C	0.788000	0.035245	0.425682
	C4055	C	0.776758	0.035456	0.415693
	C4056	C	0.771032	0.124628	0.410544
	C4057	C	0.776789	0.213681	0.415546
	C4058	C	0.758950	0.124761	0.399711
	C4059	C	0.805833	0.124927	0.441564
	C4060	C	0.724179	0.124764	0.407239
	C4061	C	0.713520	0.124994	0.423906
	C4062	C	0.708449	0.214019	0.431838
	C4063	C	0.698551	0.213887	0.447215
	C4064	C	0.693441	0.125020	0.455016
	C4065	C	0.698533	0.036037	0.447112
	C4066	C	0.708415	0.036095	0.431728
	C4067	C	0.682789	0.124917	0.471636
	C4068	C	0.722496	0.374661	0.358409
	C4069	C	0.710456	0.374916	0.347406
	C4070	C	0.704734	0.464235	0.342377
	C4071	C	0.693501	0.464280	0.332311
	C4072	C	0.687789	0.375040	0.327148
	C4073	C	0.693482	0.285777	0.332277
	C4074	C	0.704710	0.285723	0.342336
	C4075	C	0.675731	0.374951	0.316190
	C4076	C	0.757723	0.374188	0.351915
	C4077	C	0.769233	0.374045	0.337074
	C4078	C	0.774700	0.285033	0.330073
	C4079	C	0.785512	0.285037	0.316638
	C4080	C	0.791118	0.373901	0.309884
	C4081	C	0.785642	0.462922	0.316854
	C4082	C	0.774843	0.462929	0.330326
	C4083	C	0.802906	0.374019	0.295644
	H4084	H	0.789672	0.216054	0.311412
	H4085	H	0.770458	0.216362	0.335238
	H4086	H	0.792417	0.282597	0.429543
	H4087	H	0.772452	0.282221	0.411609
	H4088	H	0.739793	0.123728	0.351710
	H4089	H	0.741753	0.374377	0.406595
	H4090	H	0.665082	0.375015	0.472749
	H4091	H	0.820582	0.124519	0.299275
	H4092	H	0.709033	0.216308	0.346296
	H4093	H	0.689128	0.216814	0.328296
	H4094	H	0.694741	0.282689	0.453262
	H4095	H	0.712262	0.283175	0.425768
	H4096	H	0.689178	0.533267	0.328333
	H4097	H	0.709044	0.533210	0.346506
	H4098	H	0.712158	-0.032891	0.425561
	H4099	H	0.694695	-0.033011	0.453082
	H4100	H	0.772367	-0.033378	0.411853
	H4101	H	0.792287	-0.033727	0.429776
	H4102	H	0.770740	0.531577	0.335659
	H4103	H	0.789950	0.531639	0.311813
	Al4104	Al	0.749910	-0.499757	0.583421
	Al4105	Al	0.749929	-0.249723	0.583273
	Al4106	Al	0.666617	-0.250124	0.500180
	Al4107	Al	0.666533	-0.499850	0.500064
	O4108	O	0.763508	-0.458937	0.599610
	O4109	O	0.749377	-0.374891	0.570284
	O4110	O	0.750506	-0.124965	0.596398
	O4111	O	0.819669	-0.459156	0.650406
	O4112	O	0.737926	-0.458818	0.605559
	O4113	O	0.688034	-0.458486	0.682566
	O4114	O	0.737931	-0.290779	0.605427
	O4115	O	0.736384	-0.208619	0.567054
	O4116	O	0.680187	-0.209043	0.516377
	O4117	O	0.763621	-0.290838	0.599388
	O4118	O	0.761986	-0.209161	0.561121
	O4119	O	0.811858	-0.209483	0.484092
	O4120	O	0.687991	-0.290560	0.682476
	O4121	O	0.736309	-0.040638	0.567184
	O4122	O	0.680190	-0.040830	0.516327
	O4123	O	0.811883	-0.041747	0.484132
	O4124	O	0.762043	-0.041279	0.561183
	O4125	O	0.819655	-0.290928	0.650393
	O4126	O	0.675387	-0.124483	0.691292
	O4127	O	0.824579	-0.375334	0.475424
	C4128	C	0.797241	-0.286048	0.629929
	C4129	C	0.802919	-0.375220	0.635177
	C4130	C	0.797186	-0.464549	0.630067
	C4131	C	0.785982	-0.464440	0.619923
	C4132	C	0.780277	-0.375066	0.614775
	C4133	C	0.786051	-0.286022	0.619778
	C4134	C	0.768293	-0.374922	0.603688
	C4135	C	0.814915	-0.375028	0.646208
	C4136	C	0.733715	-0.374655	0.611866
	C4137	C	0.723098	-0.374329	0.628628
	C4138	C	0.717999	-0.285634	0.636494
	C4139	C	0.708086	-0.285641	0.651792
	C4140	C	0.702977	-0.374487	0.659625
	C4141	C	0.708093	-0.463192	0.651789
	C4142	C	0.718005	-0.463166	0.636506
	C4143	C	0.692275	-0.374707	0.676206
	C4144	C	0.731603	-0.124704	0.562931
	C4145	C	0.719584	-0.124622	0.551904
	C4146	C	0.713873	-0.035515	0.546749
	C4147	C	0.702675	-0.035860	0.536567
	C4148	C	0.696963	-0.125059	0.531481
	C4149	C	0.702629	-0.214130	0.536771
	C4150	C	0.713804	-0.213706	0.546945
	C4151	C	0.684944	-0.124918	0.520450
	C4152	C	0.766208	-0.125279	0.554716
	C4153	C	0.776874	-0.125443	0.538089
	C4154	C	0.781911	-0.214490	0.530223
	C4155	C	0.791828	-0.214508	0.514907
	C4156	C	0.796944	-0.125618	0.507078
	C4157	C	0.791938	-0.036502	0.515014
	C4158	C	0.782036	-0.036628	0.530344
	C4159	C	0.807641	-0.125553	0.490456
	H4160	H	0.795643	-0.283318	0.508827
	H4161	H	0.778056	-0.283382	0.536213
	H4162	H	0.801635	-0.217090	0.633798
	H4163	H	0.781746	-0.217000	0.615701
	H4164	H	0.748865	-0.375737	0.555876
	H4165	H	0.750975	-0.124678	0.610695
	H4166	H	0.674832	-0.124224	0.676993
	H4167	H	0.825019	-0.374398	0.489873
	H4168	H	0.718115	-0.282533	0.551078
	H4169	H	0.698328	-0.283447	0.532893
	H4170	H	0.704227	-0.216723	0.657797
	H4171	H	0.721826	-0.216823	0.630404
	H4172	H	0.698337	0.032894	0.532470
	H4173	H	0.718215	0.033354	0.550625
	H4174	H	0.721798	-0.532338	0.630501
	H4175	H	0.704253	-0.532298	0.657833
	H4176	H	0.781632	-0.533241	0.615971
	H4177	H	0.801508	-0.533459	0.634088
	H4178	H	0.778273	0.032138	0.536477
	H4179	H	0.795788	0.032425	0.509131
	Al4180	Al	0.750012	0.000237	0.583287
	Al4181	Al	0.749942	0.250070	0.583268
	Al4182	Al	0.666494	0.249979	0.500206
	Al4183	Al	0.666574	-0.000007	0.500138
	O4184	O	0.763583	0.040681	0.599618
	O4185	O	0.749422	0.125035	0.570173
	O4186	O	0.750539	0.374959	0.596319
	O4187	O	0.819691	0.040868	0.650449
	O4188	O	0.737970	0.041050	0.605470
	O4189	O	0.688112	0.041539	0.682594
	O4190	O	0.737920	0.209202	0.605376
	O4191	O	0.736290	0.290898	0.567152
	O4192	O	0.680127	0.290546	0.516304
	O4193	O	0.763614	0.209092	0.599397
	O4194	O	0.761904	0.291251	0.561064
	O4195	O	0.811829	0.290754	0.484101
	O4196	O	0.688126	0.209764	0.682473
	O4197	O	0.736277	0.459308	0.567131
	O4198	O	0.680194	0.458819	0.516266
	O4199	O	0.811924	0.458641	0.484225
	O4200	O	0.761974	0.459344	0.561231
	O4201	O	0.819672	0.209282	0.650417
	O4202	O	0.675399	0.375458	0.691322
	O4203	O	0.824430	0.124558	0.475417
	C4204	C	0.797305	0.214408	0.629875
	C4205	C	0.802971	0.125112	0.635131
	C4206	C	0.797193	0.035821	0.630188
	C4207	C	0.786004	0.035939	0.620055
	C4208	C	0.780354	0.125176	0.614717
	C4209	C	0.786086	0.214356	0.619748
	C4210	C	0.768348	0.124887	0.603624
	C4211	C	0.814986	0.125062	0.646205
	C4212	C	0.733725	0.125045	0.611792
	C4213	C	0.723068	0.125173	0.628503
	C4214	C	0.717964	0.214091	0.636333
	C4215	C	0.708076	0.214267	0.651697
	C4216	C	0.703014	0.125283	0.659582
	C4217	C	0.708119	0.036198	0.651798
	C4218	C	0.718011	0.036080	0.636403
	C4219	C	0.692352	0.125350	0.676230
	C4220	C	0.731544	0.375163	0.562996
	C4221	C	0.719553	0.374665	0.551876
	C4222	C	0.713855	0.463746	0.546613
	C4223	C	0.702683	0.463767	0.536407
	C4224	C	0.696925	0.374600	0.531419
	C4225	C	0.702604	0.285542	0.536652
	C4226	C	0.713799	0.285323	0.546842
	C4227	C	0.684901	0.374754	0.520378
	C4228	C	0.766137	0.375143	0.554732
	C4229	C	0.776817	0.375018	0.538101
	C4230	C	0.781860	0.285766	0.530182
	C4231	C	0.791796	0.285628	0.514844
	C4232	C	0.796918	0.374844	0.507072
	C4233	C	0.791899	0.463882	0.515002
	C4234	C	0.781990	0.463995	0.530349
	C4235	C	0.807639	0.374790	0.490498
	H4236	H	0.795560	0.216482	0.508789
	H4237	H	0.778025	0.216880	0.536169
	H4238	H	0.801718	0.283339	0.633717
	H4239	H	0.781807	0.283509	0.615514
	H4240	H	0.748906	0.125319	0.555783
	H4241	H	0.751101	0.374895	0.610710
	H4242	H	0.674855	0.375248	0.676955
	H4243	H	0.824888	0.125254	0.489753
	H4244	H	0.718087	0.216378	0.551034
	H4245	H	0.698180	0.216928	0.532819
	H4246	H	0.704282	0.283364	0.657739
	H4247	H	0.721750	0.283077	0.630318
	H4248	H	0.698384	0.532720	0.532299
	H4249	H	0.718215	0.532731	0.550450
	H4250	H	0.721861	-0.032788	0.630445
	H4251	H	0.704379	-0.032824	0.657902
	H4252	H	0.781684	-0.033121	0.616137
	H4253	H	0.801460	-0.033136	0.634280
	H4254	H	0.778257	0.533331	0.536409
	H4255	H	0.795786	0.532882	0.509002
	Al4256	Al	0.759275	-0.499626	0.787753
	Al4257	Al	0.759272	-0.249363	0.787746
	Al4258	Al	0.675851	-0.249669	0.704406
	Al4259	Al	0.675850	-0.499398	0.704463
	O4260	O	0.772760	-0.458593	0.804227
	O4261	O	0.758870	-0.374592	0.774693
	O4262	O	0.759625	-0.124521	0.800804
	O4263	O	0.829039	-0.458638	0.854583
	O4264	O	0.746790	-0.459063	0.809258
	O4265	O	0.692374	-0.458312	0.876731
	O4266	O	0.746825	-0.290671	0.809252
	O4267	O	0.745696	-0.209038	0.771264
	O4268	O	0.689347	-0.208591	0.720914
	O4269	O	0.772688	-0.290293	0.804415
	O4270	O	0.771504	-0.209122	0.765999
	O4271	O	0.821288	-0.208955	0.688787
	O4272	O	0.692416	-0.290280	0.876766
	O4273	O	0.745690	-0.041011	0.771288
	O4274	O	0.689316	-0.040624	0.720969
	O4275	O	0.821277	-0.040834	0.688857
	O4276	O	0.771393	-0.041127	0.765827
	O4277	O	0.829028	-0.290501	0.854615
	O4278	O	0.679293	-0.124469	0.882277
	O4279	O	0.833846	-0.375249	0.679744
	C4280	C	0.806447	-0.285219	0.834660
	C4281	C	0.812180	-0.374418	0.839665
	C4282	C	0.806482	-0.463460	0.834432
	C4283	C	0.795252	-0.463453	0.824400
	C4284	C	0.789494	-0.374265	0.819449
	C4285	C	0.795207	-0.285177	0.824616
	C4286	C	0.777425	-0.374581	0.808493
	C4287	C	0.824260	-0.374570	0.850549
	C4288	C	0.742266	-0.374586	0.814976
	C4289	C	0.730730	-0.374365	0.829775
	C4290	C	0.725177	-0.285135	0.836713
	C4291	C	0.714355	-0.285052	0.850096
	C4292	C	0.708793	-0.374176	0.856976
	C4293	C	0.714378	-0.463359	0.850129
	C4294	C	0.725201	-0.463371	0.836712
	C4295	C	0.697035	-0.374376	0.871257
	C4296	C	0.740945	-0.125074	0.767130
	C4297	C	0.728871	-0.124747	0.756289
	C4298	C	0.723125	-0.035923	0.751127
	C4299	C	0.711883	-0.035906	0.741138
	C4300	C	0.706128	-0.124744	0.736069
	C4301	C	0.711872	-0.213695	0.741180
	C4302	C	0.723145	-0.213712	0.751182
	C4303	C	0.694082	-0.124845	0.725128
	C4304	C	0.775663	-0.125099	0.759482
	C4305	C	0.786345	-0.124955	0.742891
	C4306	C	0.791371	-0.213865	0.734897
	C4307	C	0.801278	-0.213861	0.719555
	C4308	C	0.806432	-0.124760	0.711866
	C4309	C	0.801384	-0.035686	0.719778
	C4310	C	0.791485	-0.035807	0.735137
	C4311	C	0.817074	-0.124896	0.695176
	H4312	H	0.805064	-0.282976	0.713539
	H4313	H	0.787448	-0.283017	0.740637
	H4314	H	0.810801	-0.216386	0.838689
	H4315	H	0.790829	-0.216196	0.820767
	H4316	H	0.758370	-0.374678	0.760243
	H4317	H	0.759798	-0.124433	0.815118
	H4318	H	0.679721	-0.123928	0.867688
	H4319	H	0.834285	-0.374891	0.694234
	H4320	H	0.727525	-0.282577	0.755128
	H4321	H	0.707535	-0.282862	0.737200
	H4322	H	0.710160	-0.216147	0.855311
	H4323	H	0.729366	-0.215951	0.831388
	H4324	H	0.707567	0.033312	0.737160
	H4325	H	0.727456	0.033094	0.755042
	H4326	H	0.729396	-0.532637	0.831447
	H4327	H	0.710167	-0.532280	0.855352
	H4328	H	0.790906	-0.532308	0.820362
	H4329	H	0.810814	-0.532374	0.838286
	H4330	H	0.787621	0.033116	0.741030
	H4331	H	0.805266	0.033293	0.713878
	Al4332	Al	0.759209	0.000502	0.787716
	Al4333	Al	0.759229	0.250437	0.787629
	Al4334	Al	0.675895	0.250147	0.704417
	Al4335	Al	0.675873	0.000326	0.704488
	O4336	O	0.772727	0.041234	0.804125
	O4337	O	0.758741	0.125091	0.774558
	O4338	O	0.759648	0.375199	0.800788
	O4339	O	0.828995	0.041444	0.854598
	O4340	O	0.746683	0.041548	0.809046
	O4341	O	0.692425	0.041722	0.876903
	O4342	O	0.746736	0.209866	0.809129
	O4343	O	0.745719	0.291490	0.771225
	O4344	O	0.689308	0.292015	0.720970
	O4345	O	0.772682	0.209389	0.804203
	O4346	O	0.771449	0.290888	0.765803
	O4347	O	0.821320	0.290982	0.688835
	O4348	O	0.692396	0.209807	0.876728
	O4349	O	0.745802	0.459901	0.771056
	O4350	O	0.689336	0.460228	0.721079
	O4351	O	0.821310	0.459213	0.688832
	O4352	O	0.771502	0.459038	0.765998
	O4353	O	0.828951	0.209706	0.854688
	O4354	O	0.679216	0.375382	0.882312
	O4355	O	0.833854	0.125174	0.679687
	C4356	C	0.806361	0.214207	0.834700
	C4357	C	0.812196	0.125260	0.839546
	C4358	C	0.806498	0.036257	0.834368
	C4359	C	0.795269	0.036361	0.824336
	C4360	C	0.789460	0.125497	0.819386
	C4361	C	0.795130	0.214378	0.824717
	C4362	C	0.777438	0.125344	0.808383
	C4363	C	0.824243	0.125715	0.850481
	C4364	C	0.742218	0.125630	0.814824
	C4365	C	0.730686	0.125544	0.829728
	C4366	C	0.725215	0.214482	0.836843
	C4367	C	0.714438	0.214678	0.850341
	C4368	C	0.708830	0.125695	0.857041
	C4369	C	0.714337	0.036712	0.850068
	C4370	C	0.725122	0.036489	0.836598
	C4371	C	0.697062	0.125506	0.871333
	C4372	C	0.741008	0.375680	0.767022
	C4373	C	0.728899	0.375657	0.756231
	C4374	C	0.723179	0.464731	0.751071
	C4375	C	0.711922	0.464787	0.741092
	C4376	C	0.706146	0.375679	0.736047
	C4377	C	0.711866	0.286485	0.741231
	C4378	C	0.723128	0.286459	0.751210
	C4379	C	0.694069	0.375957	0.725191
	C4380	C	0.775699	0.374970	0.759507
	C4381	C	0.786339	0.375248	0.742853
	C4382	C	0.791427	0.285980	0.734978
	C4383	C	0.801350	0.285742	0.719621
	C4384	C	0.806426	0.374970	0.711769
	C4385	C	0.801359	0.464278	0.719645
	C4386	C	0.791434	0.464224	0.735001
	C4387	C	0.817112	0.374968	0.695203
	H4388	H	0.805172	0.216596	0.713649
	H4389	H	0.787594	0.216850	0.740940
	H4390	H	0.810664	0.283028	0.838774
	H4391	H	0.790710	0.283473	0.820994
	H4392	H	0.758277	0.124946	0.760211
	H4393	H	0.759819	0.374966	0.815289
	H4394	H	0.679939	0.375807	0.867783
	H4395	H	0.834576	0.125829	0.693980
	H4396	H	0.727462	0.217561	0.755253
	H4397	H	0.707481	0.217580	0.737371
	H4398	H	0.710311	0.283551	0.855713
	H4399	H	0.729469	0.283367	0.831740
	H4400	H	0.707575	0.533654	0.737098
	H4401	H	0.727578	0.533515	0.754973
	H4402	H	0.729276	-0.032442	0.831288
	H4403	H	0.710105	-0.032175	0.855239
	H4404	H	0.790900	-0.032585	0.820269
	H4405	H	0.810903	-0.032460	0.838251
	H4406	H	0.787630	0.533163	0.740976
	H4407	H	0.805169	0.533525	0.713702
	Al4408	Al	0.762012	-0.499410	0.979035
	Al4409	Al	0.762050	-0.248563	0.979183
	Al4410	Al	0.678765	-0.250158	0.895678
	Al4411	Al	0.678724	-0.498907	0.895739
	O4412	O	0.774561	-0.458467	0.997512
	O4413	O	0.762546	-0.373930	0.965719
	O4414	O	0.761102	-0.124004	0.992475
	O4415	O	0.832936	-0.458209	1.042990
	O4416	O	0.747094	-0.458415	0.995611
	O4417	O	0.682010	-0.459209	0.985385
	O4418	O	0.747100	-0.289988	0.995674
	O4419	O	0.749470	-0.208482	0.960054
	O4420	O	0.691279	-0.208821	0.914142
	O4421	O	0.774514	-0.290345	0.997708
	O4422	O	0.775678	-0.208138	0.960160
	O4423	O	0.830049	-0.209005	0.892540
	O4424	O	0.681972	-0.291224	0.985209
	O4425	O	0.749565	-0.040288	0.959790
	O4426	O	0.691276	-0.040550	0.914177
	O4427	O	0.830077	-0.040745	0.892584
	O4428	O	0.775688	-0.040184	0.960116
	O4429	O	0.832913	-0.289925	1.043067
	O4430	O	0.668104	-0.124938	0.986807
	O4431	O	0.843061	-0.374790	0.884180
	C4432	C	0.809699	-0.284601	1.024206
	C4433	C	0.815720	-0.374224	1.028661
	C4434	C	0.809760	-0.463830	1.024081
	C4435	C	0.798067	-0.464296	1.015447
	C4436	C	0.791995	-0.374663	1.011152
	C4437	C	0.797993	-0.285072	1.015573
	C4438	C	0.779461	-0.374482	1.001369
	C4439	C	0.828105	-0.374074	1.038976
	C4440	C	0.741563	-0.374202	0.995140
	C4441	C	0.727558	-0.374366	0.993530
	C4442	C	0.720963	-0.284739	0.991797
	C4443	C	0.708165	-0.284938	0.988586
	C4444	C	0.701580	-0.374902	0.987103
	C4445	C	0.708197	-0.464692	0.988683
	C4446	C	0.720996	-0.464278	0.991872
	C4447	C	0.687574	-0.375076	0.985660
	C4448	C	0.744690	-0.124348	0.955860
	C4449	C	0.732352	-0.124054	0.945446
	C4450	C	0.726376	-0.034315	0.940797
	C4451	C	0.714668	-0.034628	0.932118
	C4452	C	0.708627	-0.124465	0.927881
	C4453	C	0.714668	-0.214012	0.932280
	C4454	C	0.726371	-0.213761	0.940942
	C4455	C	0.696169	-0.124585	0.917965
	C4456	C	0.780377	-0.124333	0.954670
	C4457	C	0.792106	-0.124699	0.940292
	C4458	C	0.797664	-0.213717	0.933461
	C4459	C	0.808476	-0.213914	0.920029
	C4460	C	0.814028	-0.124884	0.913143
	C4461	C	0.808497	-0.035859	0.920028
	C4462	C	0.797690	-0.035763	0.933429
	C4463	C	0.825512	-0.125014	0.898261
	H4464	H	0.812624	-0.283064	0.914687
	H4465	H	0.793466	-0.282598	0.938711
	H4466	H	0.814164	-0.214450	1.027639
	H4467	H	0.793399	-0.215560	1.012332
	H4468	H	0.762983	-0.373775	0.951186
	H4469	H	0.759462	-0.123906	1.006871
	H4470	H	0.670065	-0.124689	0.972521
	H4471	H	0.843414	-0.374910	0.898581
	H4472	H	0.730891	-0.283505	0.944294
	H4473	H	0.710152	-0.283773	0.928908
	H4474	H	0.703173	-0.215113	0.987428
	H4475	H	0.725859	-0.214212	0.993130
	H4476	H	0.710157	0.034783	0.928720
	H4477	H	0.730897	0.035618	0.944063
	H4478	H	0.725998	-0.534036	0.993241
	H4479	H	0.703317	-0.534884	0.987607
	H4480	H	0.793589	-0.533933	1.012081
	H4481	H	0.814293	-0.533450	1.027411
	H4482	H	0.793500	0.033290	0.938693
	H4483	H	0.812649	0.032881	0.914720
	Al4484	Al	0.762023	0.000267	0.979043
	Al4485	Al	0.762069	0.251397	0.978966
	Al4486	Al	0.678720	0.250162	0.895793
	Al4487	Al	0.678736	0.000974	0.895765
	O4488	O	0.774621	0.041943	0.997472
	O4489	O	0.762549	0.125865	0.965573
	O4490	O	0.761081	0.375895	0.992340
	O4491	O	0.832936	0.041544	1.043172
	O4492	O	0.747134	0.041618	0.995541
	O4493	O	0.682012	0.041128	0.985386
	O4494	O	0.747126	0.210097	0.995476
	O4495	O	0.749515	0.291817	0.959834
	O4496	O	0.691254	0.291746	0.914150
	O4497	O	0.774647	0.210091	0.997425
	O4498	O	0.775722	0.291940	0.960048
	O4499	O	0.830134	0.291618	0.892648
	O4500	O	0.682035	0.209362	0.985263
	O4501	O	0.749611	0.460026	0.959753
	O4502	O	0.691323	0.460062	0.914114
	O4503	O	0.830161	0.459709	0.892580
	O4504	O	0.775718	0.459834	0.960088
	O4505	O	0.832865	0.209806	1.043294
	O4506	O	0.668078	0.375380	0.986708
	O4507	O	0.842990	0.125362	0.884232
	C4508	C	0.809739	0.215246	1.024245
	C4509	C	0.815744	0.125566	1.028755
	C4510	C	0.809807	0.035975	1.024037
	C4511	C	0.798126	0.035946	1.015322
	C4512	C	0.792044	0.125696	1.011080
	C4513	C	0.798067	0.215285	1.015544
	C4514	C	0.779557	0.125995	1.001211
	C4515	C	0.828097	0.125629	1.039133
	C4516	C	0.741583	0.125782	0.995100
	C4517	C	0.727575	0.125670	0.993465
	C4518	C	0.720987	0.215346	0.991762
	C4519	C	0.708176	0.214995	0.988650
	C4520	C	0.701587	0.124881	0.987233
	C4521	C	0.708198	0.035124	0.988703
	C4522	C	0.721008	0.035444	0.991802
	C4523	C	0.687589	0.125148	0.985696
	C4524	C	0.744756	0.376012	0.955748
	C4525	C	0.732371	0.375891	0.945417
	C4526	C	0.726342	0.465602	0.940927
	C4527	C	0.714662	0.465671	0.932263
	C4528	C	0.708681	0.375865	0.927800
	C4529	C	0.714685	0.286143	0.932307
	C4530	C	0.726378	0.285999	0.940969
	C4531	C	0.696189	0.375900	0.917960
	C4532	C	0.780409	0.376006	0.954601
	C4533	C	0.792097	0.376003	0.940251
	C4534	C	0.797704	0.287119	0.933520
	C4535	C	0.808542	0.287191	0.920106
	C4536	C	0.814063	0.375997	0.913164
	C4537	C	0.808489	0.464903	0.919935
	C4538	C	0.797653	0.464919	0.933378
	C4539	C	0.825584	0.375644	0.898347
	H4540	H	0.812725	0.218068	0.914946
	H4541	H	0.793577	0.217950	0.938822
	H4542	H	0.814247	0.284922	1.027739
	H4543	H	0.793559	0.285118	1.012250
	H4544	H	0.762997	0.126013	0.951141
	H4545	H	0.759345	0.375628	1.006621
	H4546	H	0.669776	0.376111	0.972425
	H4547	H	0.843414	0.125706	0.898606
	H4548	H	0.730889	0.216186	0.944388
	H4549	H	0.710125	0.216328	0.929047
	H4550	H	0.703225	0.285133	0.987466
	H4551	H	0.725958	0.285181	0.993116
	H4552	H	0.710090	0.535554	0.929036
	H4553	H	0.730830	0.535541	0.944335
	H4554	H	0.725903	-0.034599	0.993212
	H4555	H	0.703238	-0.034860	0.987599
	H4556	H	0.793626	-0.033417	1.011713
	H4557	H	0.814357	-0.033700	1.027316
	H4558	H	0.793470	0.533829	0.938579
	H4559	H	0.812644	0.533878	0.914637
	Al4560	Al	0.928829	-0.499815	0.145464
	Al4561	Al	0.928814	-0.248964	0.145452
	Al4562	Al	0.845438	-0.249952	0.062243
	Al4563	Al	0.845445	-0.498840	0.062174
	O4564	O	0.941388	-0.457948	0.163912
	O4565	O	0.929251	-0.374330	0.132027
	O4566	O	0.927774	-0.124443	0.158774
	O4567	O	0.999584	-0.458061	0.209952
	O4568	O	0.913932	-0.458354	0.161993
	O4569	O	0.848816	-0.459527	0.152108
	O4570	O	0.913918	-0.290130	0.162057
	O4571	O	0.916303	-0.208778	0.126297
	O4572	O	0.858014	-0.208803	0.080667
	O4573	O	0.941397	-0.289712	0.163854
	O4574	O	0.942403	-0.208126	0.126403
	O4575	O	0.996778	-0.208529	0.059068
	O4576	O	0.848781	-0.291131	0.151916
	O4577	O	0.916282	-0.040340	0.126319
	O4578	O	0.857937	-0.040573	0.080867
	O4579	O	0.996807	-0.040173	0.058995
	O4580	O	0.942439	-0.040163	0.126679
	O4581	O	0.999622	-0.289983	0.209862
	O4582	O	0.834813	-0.125086	0.153357
	O4583	O	1.009620	-0.374679	0.050677
	C4584	C	0.976425	-0.284217	0.190807
	C4585	C	0.982425	-0.373910	0.195322
	C4586	C	0.976442	-0.463414	0.190741
	C4587	C	0.964757	-0.463680	0.182030
	C4588	C	0.958746	-0.373961	0.177650
	C4589	C	0.964746	-0.284367	0.182090
	C4590	C	0.946304	-0.373844	0.167696
	C4591	C	0.994779	-0.374121	0.205714
	C4592	C	0.908344	-0.374218	0.161630
	C4593	C	0.894333	-0.374326	0.160048
	C4594	C	0.887733	-0.284597	0.158380
	C4595	C	0.874915	-0.284822	0.155257
	C4596	C	0.868365	-0.374947	0.153840
	C4597	C	0.874965	-0.464621	0.155395
	C4598	C	0.887795	-0.464324	0.158509
	C4599	C	0.854348	-0.375230	0.152430
	C4600	C	0.911489	-0.124718	0.122227
	C4601	C	0.899146	-0.124812	0.111841
	C4602	C	0.893132	-0.035109	0.107474
	C4603	C	0.881387	-0.035227	0.098857
	C4604	C	0.875423	-0.124877	0.094347
	C4605	C	0.881465	-0.214516	0.098538
	C4606	C	0.893204	-0.214507	0.107178
	C4607	C	0.862893	-0.124745	0.084558
	C4608	C	0.947093	-0.124155	0.121091
	C4609	C	0.958838	-0.124030	0.106769
	C4610	C	0.964433	-0.213282	0.099974
	C4611	C	0.975234	-0.213346	0.086547
	C4612	C	0.980760	-0.124216	0.079626
	C4613	C	0.975226	-0.034983	0.086537
	C4614	C	0.964432	-0.035076	0.100003
	C4615	C	0.992269	-0.124301	0.064723
	H4616	H	0.979444	-0.282388	0.081313
	H4617	H	0.960257	-0.282483	0.105211
	H4618	H	0.980938	-0.214194	0.194110
	H4619	H	0.960200	-0.214593	0.178697
	H4620	H	0.929608	-0.374567	0.117517
	H4621	H	0.925989	-0.124027	0.173019
	H4622	H	0.836613	-0.124889	0.139056
	H4623	H	1.009979	-0.374844	0.065069
	H4624	H	0.897725	-0.284419	0.110389
	H4625	H	0.876978	-0.284274	0.095042
	H4626	H	0.869950	-0.214894	0.153936
	H4627	H	0.892681	-0.214520	0.159483
	H4628	H	0.876840	0.034528	0.095650
	H4629	H	0.897598	0.034713	0.110901
	H4630	H	0.892767	-0.534420	0.159702
	H4631	H	0.870067	-0.534802	0.154212
	H4632	H	0.960274	-0.533132	0.178618
	H4633	H	0.980978	-0.533317	0.194047
	H4634	H	0.960248	0.033562	0.105284
	H4635	H	0.979448	0.033959	0.081336
	Al4636	Al	0.928733	0.000193	0.145554
	Al4637	Al	0.928750	0.251035	0.145635
	Al4638	Al	0.845399	0.250359	0.062343
	Al4639	Al	0.845440	0.001120	0.062336
	O4640	O	0.941253	0.041297	0.164109
	O4641	O	0.929281	0.125691	0.132141
	O4642	O	0.927862	0.375887	0.158837
	O4643	O	0.999546	0.041392	0.209766
	O4644	O	0.913809	0.041562	0.162004
	O4645	O	0.848757	0.040386	0.151903
	O4646	O	0.913849	0.209796	0.162033
	O4647	O	0.916294	0.291229	0.126407
	O4648	O	0.857939	0.292032	0.080904
	O4649	O	0.941265	0.209474	0.164125
	O4650	O	0.942447	0.291538	0.126540
	O4651	O	0.996788	0.291053	0.058912
	O4652	O	0.848670	0.208387	0.151896
	O4653	O	0.916383	0.459131	0.126267
	O4654	O	0.857995	0.460082	0.080625
	O4655	O	0.996803	0.459094	0.059001
	O4656	O	0.942486	0.459364	0.126540
	O4657	O	0.999573	0.209530	0.209648
	O4658	O	0.834805	0.374289	0.153386
	O4659	O	1.009750	0.125498	0.050624
	C4660	C	0.976399	0.215035	0.190735
	C4661	C	0.982450	0.125588	0.195074
	C4662	C	0.976520	0.035868	0.190451
	C4663	C	0.964819	0.035714	0.181802
	C4664	C	0.958746	0.125180	0.177542
	C4665	C	0.964708	0.214895	0.182051
	C4666	C	0.946202	0.125302	0.167811
	C4667	C	0.994752	0.125608	0.205601
	C4668	C	0.908278	0.125866	0.161611
	C4669	C	0.894266	0.125795	0.159974
	C4670	C	0.887647	0.215547	0.158266
	C4671	C	0.874828	0.215142	0.155115
	C4672	C	0.868281	0.124858	0.153679
	C4673	C	0.874913	0.035165	0.155344
	C4674	C	0.887713	0.035601	0.158525
	C4675	C	0.854255	0.124594	0.152247
	C4676	C	0.911511	0.375132	0.122209
	C4677	C	0.899149	0.375386	0.111875
	C4678	C	0.893154	0.464928	0.107430
	C4679	C	0.881449	0.465154	0.098824
	C4680	C	0.875397	0.375772	0.094388
	C4681	C	0.881430	0.286274	0.098691
	C4682	C	0.893139	0.286002	0.107283
	C4683	C	0.862897	0.376082	0.084585
	C4684	C	0.947110	0.375324	0.121067
	C4685	C	0.958845	0.375302	0.106738
	C4686	C	0.964394	0.286202	0.099885
	C4687	C	0.975206	0.286283	0.086428
	C4688	C	0.980770	0.375114	0.079561
	C4689	C	0.975206	0.464063	0.086460
	C4690	C	0.964402	0.464164	0.099894
	C4691	C	0.992244	0.375063	0.064642
	H4692	H	0.979329	0.217426	0.080972
	H4693	H	0.960160	0.217171	0.105114
	H4694	H	0.980847	0.284995	0.194313
	H4695	H	0.960139	0.284441	0.178813
	H4696	H	0.929772	0.125670	0.117639
	H4697	H	0.926262	0.376487	0.173231
	H4698	H	0.836570	0.374073	0.139023
	H4699	H	1.010007	0.125797	0.065035
	H4700	H	0.897683	0.216310	0.110531
	H4701	H	0.876900	0.216493	0.095291
	H4702	H	0.869817	0.284877	0.153772
	H4703	H	0.892536	0.285922	0.159501
	H4704	H	0.876914	0.534866	0.095529
	H4705	H	0.897693	0.534580	0.110803
	H4706	H	0.892681	-0.034198	0.159919
	H4707	H	0.870023	-0.035138	0.154240
	H4708	H	0.960346	-0.034194	0.178340
	H4709	H	0.981039	-0.033718	0.193777
	H4710	H	0.960212	0.533184	0.105073
	H4711	H	0.979326	0.532977	0.081084
	Al4712	Al	0.916694	-0.500052	0.250162
	Al4713	Al	0.916659	-0.249866	0.250182
	Al4714	Al	0.833370	-0.249744	0.166731
	Al4715	Al	0.833360	-0.499959	0.166759
	O4716	O	0.928644	-0.459590	0.270261
	O4717	O	0.918103	-0.375149	0.236761
	O4718	O	0.915280	-0.125176	0.263619
	O4719	O	0.988113	-0.458713	0.313243
	O4720	O	0.901312	-0.459739	0.264986
	O4721	O	0.836196	-0.459966	0.254920
	O4722	O	0.901305	-0.291412	0.264922
	O4723	O	0.904768	-0.208548	0.229838
	O4724	O	0.845310	-0.208847	0.186914
	O4725	O	0.928544	-0.291661	0.270350
	O4726	O	0.932077	-0.209039	0.235474
	O4727	O	0.997172	-0.207879	0.245542
	O4728	O	0.836195	-0.291537	0.254770
	O4729	O	0.904750	-0.040590	0.230075
	O4730	O	0.845190	-0.041239	0.187124
	O4731	O	0.997164	-0.039420	0.245232
	O4732	O	0.931998	-0.040860	0.235349
	O4733	O	0.988044	-0.290544	0.313318
	O4734	O	0.822207	-0.125712	0.257900
	O4735	O	1.011171	-0.374600	0.242415
	C4736	C	0.964323	-0.285435	0.295636
	C4737	C	0.970554	-0.375164	0.299606
	C4738	C	0.964364	-0.465026	0.295564
	C4739	C	0.952381	-0.465116	0.287848
	C4740	C	0.946164	-0.375234	0.283826
	C4741	C	0.952333	-0.285389	0.287942
	C4742	C	0.933540	-0.375693	0.274170
	C4743	C	0.983165	-0.374775	0.309337
	C4744	C	0.895774	-0.375657	0.264554
	C4745	C	0.881730	-0.375418	0.263164
	C4746	C	0.875155	-0.285389	0.261502
	C4747	C	0.862344	-0.285507	0.258451
	C4748	C	0.855753	-0.375498	0.256977
	C4749	C	0.862327	-0.465567	0.258709
	C4750	C	0.875118	-0.465422	0.261766
	C4751	C	0.841741	-0.375766	0.255342
	C4752	C	0.899813	-0.124477	0.226176
	C4753	C	0.887191	-0.124271	0.216419
	C4754	C	0.880974	-0.034574	0.212444
	C4755	C	0.868983	-0.034630	0.204702
	C4756	C	0.862812	-0.124363	0.200642
	C4757	C	0.869043	-0.214026	0.204640
	C4758	C	0.881025	-0.213960	0.212349
	C4759	C	0.850209	-0.124883	0.190917
	C4760	C	0.937590	-0.124811	0.235807
	C4761	C	0.951615	-0.124185	0.237253
	C4762	C	0.958210	-0.214079	0.238811
	C4763	C	0.971029	-0.213867	0.241886
	C4764	C	0.977597	-0.123963	0.243419
	C4765	C	0.971013	-0.034161	0.241727
	C4766	C	0.958189	-0.034277	0.238643
	C4767	C	0.991619	-0.123737	0.244944
	H4768	H	0.975966	-0.283872	0.243154
	H4769	H	0.953255	-0.284262	0.237727
	H4770	H	0.968924	-0.215253	0.298664
	H4771	H	0.947725	-0.215411	0.285090
	H4772	H	0.919993	-0.374961	0.222482
	H4773	H	0.913723	-0.125574	0.277979
	H4774	H	0.823800	-0.125949	0.243671
	H4775	H	1.009484	-0.374610	0.256646
	H4776	H	0.885666	-0.284176	0.215217
	H4777	H	0.864487	-0.284521	0.201587
	H4778	H	0.857382	-0.215680	0.257114
	H4779	H	0.880126	-0.215376	0.262575
	H4780	H	0.864376	0.035408	0.201743
	H4781	H	0.885571	0.035768	0.215305
	H4782	H	0.880098	-0.535405	0.263012
	H4783	H	0.857388	-0.535690	0.257495
	H4784	H	0.947776	-0.535268	0.284912
	H4785	H	0.968990	-0.535223	0.298501
	H4786	H	0.953225	0.035706	0.237474
	H4787	H	0.975921	0.035977	0.242942
	Al4788	Al	0.916631	0.000172	0.250266
	Al4789	Al	0.916681	0.250096	0.250182
	Al4790	Al	0.833336	0.249499	0.166807
	Al4791	Al	0.833352	-0.000111	0.166753
	O4792	O	0.928583	0.040801	0.270322
	O4793	O	0.918098	0.124931	0.236824
	O4794	O	0.915212	0.375048	0.263549
	O4795	O	0.988114	0.041389	0.313250
	O4796	O	0.901289	0.041146	0.265057
	O4797	O	0.836182	0.040507	0.254804
	O4798	O	0.901268	0.209293	0.264971
	O4799	O	0.904776	0.291016	0.229838
	O4800	O	0.845276	0.290540	0.186947
	O4801	O	0.928481	0.208546	0.270559
	O4802	O	0.932081	0.290870	0.235491
	O4803	O	0.997209	0.291550	0.245306
	O4804	O	0.836162	0.208790	0.254795
	O4805	O	0.904780	0.458973	0.229976
	O4806	O	0.845114	0.458339	0.187212
	O4807	O	0.997141	0.459488	0.245432
	O4808	O	0.932082	0.458938	0.235316
	O4809	O	0.988028	0.209262	0.313403
	O4810	O	0.822215	0.374143	0.257926
	O4811	O	1.011129	0.125788	0.242209
	C4812	C	0.964257	0.214770	0.295773
	C4813	C	0.970495	0.125252	0.299739
	C4814	C	0.964311	0.035654	0.295682
	C4815	C	0.952326	0.035623	0.287987
	C4816	C	0.946106	0.125059	0.283986
	C4817	C	0.952266	0.214703	0.288083
	C4818	C	0.933475	0.124873	0.274308
	C4819	C	0.983123	0.125322	0.309449
	C4820	C	0.895716	0.125331	0.264667
	C4821	C	0.881719	0.125310	0.263222
	C4822	C	0.875141	0.215306	0.261649
	C4823	C	0.862329	0.214997	0.258443
	C4824	C	0.855736	0.124877	0.256922
	C4825	C	0.862320	0.034979	0.258545
	C4826	C	0.875126	0.035321	0.261736
	C4827	C	0.841744	0.124717	0.255254
	C4828	C	0.899849	0.375053	0.226019
	C4829	C	0.887210	0.375161	0.216263
	C4830	C	0.880988	0.464646	0.212343
	C4831	C	0.868974	0.464764	0.204652
	C4832	C	0.862807	0.374987	0.200549
	C4833	C	0.869048	0.285531	0.204486
	C4834	C	0.881044	0.285415	0.212198
	C4835	C	0.850141	0.374656	0.190903
	C4836	C	0.937617	0.374932	0.235744
	C4837	C	0.951619	0.374850	0.237123
	C4838	C	0.958249	0.284916	0.238578
	C4839	C	0.971050	0.285023	0.241688
	C4840	C	0.977615	0.374977	0.243338
	C4841	C	0.970994	0.464814	0.241825
	C4842	C	0.958199	0.464710	0.238702
	C4843	C	0.991610	0.375384	0.244967
	H4844	H	0.976037	0.215051	0.242848
	H4845	H	0.953315	0.215049	0.237235
	H4846	H	0.968849	0.285020	0.298628
	H4847	H	0.947630	0.284732	0.285122
	H4848	H	0.919883	0.124489	0.222598
	H4849	H	0.913098	0.375545	0.277783
	H4850	H	0.823991	0.374001	0.243538
	H4851	H	1.009486	0.126264	0.256585
	H4852	H	0.885649	0.215170	0.215046
	H4853	H	0.864462	0.215409	0.201513
	H4854	H	0.857390	0.285108	0.257071
	H4855	H	0.880113	0.285228	0.262784
	H4856	H	0.864382	0.535134	0.201789
	H4857	H	0.885580	0.534720	0.215298
	H4858	H	0.880084	-0.034759	0.263047
	H4859	H	0.857387	-0.035134	0.257261
	H4860	H	0.947758	-0.034456	0.284973
	H4861	H	0.968984	-0.034431	0.298515
	H4862	H	0.953273	0.534996	0.237438
	H4863	H	0.975924	0.534758	0.243094
	Al4864	Al	0.904651	-0.500075	0.354425
	Al4865	Al	0.904659	-0.251009	0.354540
	Al4866	Al	0.821244	-0.250307	0.271348
	Al4867	Al	0.821253	-0.501457	0.271256
	O4868	O	0.917175	-0.459450	0.373611
	O4869	O	0.905599	-0.375637	0.341187
	O4870	O	0.904123	-0.125806	0.368022
	O4871	O	0.975430	-0.459512	0.419457
	O4872	O	0.890936	-0.459640	0.373352
	O4873	O	0.836583	-0.459372	0.440875
	O4874	O	0.890993	-0.291649	0.373456
	O4875	O	0.892028	-0.209648	0.336144
	O4876	O	0.833677	-0.209631	0.290570
	O4877	O	0.917174	-0.291355	0.373593
	O4878	O	0.919570	-0.210178	0.338104
	O4879	O	0.984636	-0.208709	0.348331
	O4880	O	0.836602	-0.291072	0.440787
	O4881	O	0.891978	-0.041374	0.336310
	O4882	O	0.833833	-0.041302	0.290252
	O4883	O	0.984612	-0.040348	0.348203
	O4884	O	0.919533	-0.041917	0.337805
	O4885	O	0.975393	-0.291488	0.419483
	O4886	O	0.823654	-0.125178	0.449089
	O4887	O	0.998626	-0.374771	0.346823
	C4888	C	0.951978	-0.285765	0.401455
	C4889	C	0.958017	-0.375353	0.405793
	C4890	C	0.952032	-0.464978	0.401342
	C4891	C	0.940340	-0.465122	0.392632
	C4892	C	0.934332	-0.375589	0.388143
	C4893	C	0.940285	-0.285937	0.392763
	C4894	C	0.921986	-0.375442	0.377728
	C4895	C	0.970518	-0.375498	0.415685
	C4896	C	0.886338	-0.375561	0.378870
	C4897	C	0.874559	-0.375713	0.393170
	C4898	C	0.868970	-0.286499	0.399917
	C4899	C	0.858159	-0.286383	0.413368
	C4900	C	0.852679	-0.375611	0.420357
	C4901	C	0.858183	-0.464703	0.413442
	C4902	C	0.869005	-0.464886	0.399999
	C4903	C	0.841145	-0.375371	0.435220
	C4904	C	0.887066	-0.125591	0.332455
	C4905	C	0.874619	-0.125624	0.322483
	C4906	C	0.868559	-0.036252	0.318113
	C4907	C	0.856894	-0.036344	0.309356
	C4908	C	0.850940	-0.125944	0.304895
	C4909	C	0.856996	-0.215504	0.309211
	C4910	C	0.868671	-0.215362	0.317948
	C4911	C	0.838585	-0.125794	0.294487
	C4912	C	0.925111	-0.126051	0.338499
	C4913	C	0.939077	-0.125786	0.340187
	C4914	C	0.945665	-0.215526	0.342024
	C4915	C	0.958478	-0.215154	0.345195
	C4916	C	0.965056	-0.124960	0.346553
	C4917	C	0.958452	-0.035439	0.344698
	C4918	C	0.945642	-0.035696	0.341535
	C4919	C	0.979071	-0.124557	0.347904
	H4920	H	0.963470	-0.285082	0.346461
	H4921	H	0.940734	-0.285839	0.340924
	H4922	H	0.956450	-0.216157	0.404958
	H4923	H	0.935765	-0.215977	0.389514
	H4924	H	0.907456	-0.375830	0.326942
	H4925	H	0.903570	-0.125817	0.382547
	H4926	H	0.823556	-0.125455	0.434703
	H4927	H	0.996930	-0.375174	0.361211
	H4928	H	0.873206	-0.285045	0.321290
	H4929	H	0.852510	-0.285461	0.305721
	H4930	H	0.853978	-0.217396	0.418612
	H4931	H	0.873130	-0.217281	0.394611
	H4932	H	0.852356	0.033404	0.305982
	H4933	H	0.872977	0.033435	0.321631
	H4934	H	0.873164	-0.533982	0.394758
	H4935	H	0.854033	-0.533775	0.418762
	H4936	H	0.935846	-0.534820	0.389304
	H4937	H	0.956593	-0.534694	0.404659
	H4938	H	0.940720	0.034547	0.340032
	H4939	H	0.963413	0.034806	0.345641
	Al4940	Al	0.904661	-0.000166	0.354547
	Al4941	Al	0.904668	0.248795	0.354555
	Al4942	Al	0.821247	0.249879	0.271349
	Al4943	Al	0.821301	-0.000979	0.271234
	O4944	O	0.917177	0.039611	0.373582
	O4945	O	0.905593	0.124225	0.341275
	O4946	O	0.904183	0.374608	0.367943
	O4947	O	0.975420	0.040112	0.419255
	O4948	O	0.890991	0.040929	0.373564
	O4949	O	0.836541	0.040940	0.440908
	O4950	O	0.890940	0.208758	0.373542
	O4951	O	0.892082	0.290317	0.336129
	O4952	O	0.833723	0.290353	0.290606
	O4953	O	0.917150	0.207869	0.373552
	O4954	O	0.919545	0.289749	0.338083
	O4955	O	0.984674	0.291128	0.348336
	O4956	O	0.836545	0.209051	0.440923
	O4957	O	0.892102	0.458488	0.335997
	O4958	O	0.833803	0.458419	0.290391
	O4959	O	0.984621	0.459400	0.348239
	O4960	O	0.919544	0.458087	0.337950
	O4961	O	0.975418	0.208447	0.419456
	O4962	O	0.823627	0.374863	0.449214
	O4963	O	0.998658	0.125467	0.346886
	C4964	C	0.952015	0.214048	0.401302
	C4965	C	0.958036	0.124442	0.405673
	C4966	C	0.952037	0.034648	0.401235
	C4967	C	0.940351	0.034650	0.392578
	C4968	C	0.934354	0.124263	0.388021
	C4969	C	0.940327	0.214015	0.392618
	C4970	C	0.921982	0.123806	0.377693
	C4971	C	0.970512	0.124366	0.415518
	C4972	C	0.886287	0.124753	0.378974
	C4973	C	0.874503	0.125084	0.393202
	C4974	C	0.868936	0.214063	0.399987
	C4975	C	0.858131	0.214005	0.413418
	C4976	C	0.852603	0.125089	0.420368
	C4977	C	0.858108	0.036016	0.413443
	C4978	C	0.868923	0.036148	0.400023
	C4979	C	0.841082	0.124958	0.435201
	C4980	C	0.887184	0.374354	0.332263
	C4981	C	0.874686	0.374059	0.322478
	C4982	C	0.868622	0.463836	0.318243
	C4983	C	0.856913	0.463973	0.309563
	C4984	C	0.850922	0.374232	0.304960
	C4985	C	0.856959	0.284410	0.309400
	C4986	C	0.868679	0.284312	0.318036
	C4987	C	0.838596	0.374295	0.294592
	C4988	C	0.925093	0.373910	0.338450
	C4989	C	0.939093	0.374050	0.340159
	C4990	C	0.945695	0.284375	0.341833
	C4991	C	0.958523	0.284754	0.344982
	C4992	C	0.965078	0.374796	0.346477
	C4993	C	0.958453	0.464384	0.344879
	C4994	C	0.945633	0.464060	0.341747
	C4995	C	0.979097	0.375210	0.347817
	H4996	H	0.963452	0.214923	0.346384
	H4997	H	0.940802	0.214337	0.340731
	H4998	H	0.956555	0.283874	0.404637
	H4999	H	0.935799	0.283622	0.389264
	H5000	H	0.907275	0.124152	0.326941
	H5001	H	0.903671	0.374621	0.382451
	H5002	H	0.823238	0.375071	0.434892
	H5003	H	0.996837	0.125760	0.361171
	H5004	H	0.873237	0.214415	0.321345
	H5005	H	0.852485	0.214569	0.305983
	H5006	H	0.853963	0.283094	0.418620
	H5007	H	0.873102	0.282803	0.394700
	H5008	H	0.852413	0.533822	0.306267
	H5009	H	0.873119	0.533735	0.321720
	H5010	H	0.873107	-0.032500	0.394759
	H5011	H	0.853912	-0.032775	0.418745
	H5012	H	0.935861	-0.035200	0.389205
	H5013	H	0.956633	-0.034952	0.404537
	H5014	H	0.940651	0.533877	0.340582
	H5015	H	0.963337	0.534456	0.346181
	Al5016	Al	0.907373	-0.500291	0.545574
	Al5017	Al	0.907388	-0.250158	0.545685
	Al5018	Al	0.824082	-0.250209	0.462195
	Al5019	Al	0.824121	-0.500327	0.462327
	O5020	O	0.920896	-0.459362	0.562057
	O5021	O	0.906962	-0.374983	0.532554
	O5022	O	0.907952	-0.125057	0.558750
	O5023	O	0.977255	-0.458784	0.612343
	O5024	O	0.895134	-0.459169	0.567403
	O5025	O	0.845280	-0.458334	0.644468
	O5026	O	0.895224	-0.291282	0.567570
	O5027	O	0.893883	-0.209376	0.529206
	O5028	O	0.837653	-0.209230	0.478578
	O5029	O	0.920890	-0.291076	0.562259
	O5030	O	0.919907	-0.209496	0.524330
	O5031	O	0.974320	-0.209408	0.456792
	O5032	O	0.845345	-0.290381	0.644479
	O5033	O	0.893966	-0.041076	0.529024
	O5034	O	0.837569	-0.040912	0.478782
	O5035	O	0.974236	-0.041346	0.456635
	O5036	O	0.919889	-0.041216	0.524270
	O5037	O	0.977207	-0.290737	0.612529
	O5038	O	0.832729	-0.124918	0.653592
	O5039	O	0.987542	-0.375414	0.451249
	C5040	C	0.954706	-0.286036	0.592109
	C5041	C	0.960443	-0.374873	0.597255
	C5042	C	0.954673	-0.464096	0.592288
	C5043	C	0.943448	-0.464089	0.582262
	C5044	C	0.937709	-0.375302	0.577121
	C5045	C	0.943473	-0.286121	0.582057
	C5046	C	0.925659	-0.375310	0.566255
	C5047	C	0.972488	-0.374747	0.608324
	C5048	C	0.890972	-0.375254	0.573834
	C5049	C	0.880289	-0.375050	0.590435
	C5050	C	0.875257	-0.285905	0.598336
	C5051	C	0.865347	-0.285679	0.613667
	C5052	C	0.860182	-0.374771	0.621421
	C5053	C	0.865224	-0.463980	0.613559
	C5054	C	0.875139	-0.464154	0.598224
	C5055	C	0.849553	-0.374434	0.638094
	C5056	C	0.889191	-0.125082	0.524930
	C5057	C	0.877137	-0.125042	0.513932
	C5058	C	0.871406	-0.035555	0.508847
	C5059	C	0.860155	-0.035658	0.498854
	C5060	C	0.854417	-0.125052	0.493767
	C5061	C	0.860121	-0.214588	0.498917
	C5062	C	0.871363	-0.214439	0.508953
	C5063	C	0.842353	-0.125034	0.482824
	C5064	C	0.924413	-0.125559	0.518535
	C5065	C	0.935938	-0.125426	0.503659
	C5066	C	0.941471	-0.214363	0.496772
	C5067	C	0.952302	-0.214404	0.483325
	C5068	C	0.957829	-0.125386	0.476437
	C5069	C	0.952293	-0.036354	0.483370
	C5070	C	0.941479	-0.036445	0.496823
	C5071	C	0.969601	-0.125195	0.462187
	H5072	H	0.956488	-0.283549	0.478079
	H5073	H	0.937320	-0.283319	0.502106
	H5074	H	0.959044	-0.217119	0.596152
	H5075	H	0.939119	-0.217351	0.578068
	H5076	H	0.906607	-0.374966	0.518232
	H5077	H	0.908676	-0.125263	0.573150
	H5078	H	0.832302	-0.124934	0.639226
	H5079	H	0.987060	-0.375426	0.465703
	H5080	H	0.875708	-0.283562	0.513043
	H5081	H	0.855728	-0.283851	0.495051
	H5082	H	0.861612	-0.216419	0.619748
	H5083	H	0.879147	-0.216972	0.592398
	H5084	H	0.855768	0.033547	0.494927
	H5085	H	0.875744	0.033577	0.512831
	H5086	H	0.878944	-0.533275	0.592263
	H5087	H	0.861407	-0.533156	0.619604
	H5088	H	0.939101	-0.533255	0.578443
	H5089	H	0.958958	-0.532855	0.596424
	H5090	H	0.937323	0.032367	0.502175
	H5091	H	0.956454	0.032732	0.478186
	Al5092	Al	0.907411	-0.000135	0.545701
	Al5093	Al	0.907403	0.249758	0.545687
	Al5094	Al	0.824053	0.249735	0.462303
	Al5095	Al	0.824026	-0.000376	0.462216
	O5096	O	0.920956	0.040673	0.562115
	O5097	O	0.906989	0.124989	0.532564
	O5098	O	0.907841	0.375008	0.558769
	O5099	O	0.977306	0.040835	0.612353
	O5100	O	0.895209	0.040804	0.567446
	O5101	O	0.845311	0.041268	0.644522
	O5102	O	0.895242	0.208876	0.567530
	O5103	O	0.893861	0.290422	0.529194
	O5104	O	0.837605	0.290626	0.478815
	O5105	O	0.920899	0.208950	0.562231
	O5106	O	0.919918	0.290340	0.524262
	O5107	O	0.974278	0.290773	0.456760
	O5108	O	0.845424	0.209470	0.644533
	O5109	O	0.893924	0.458753	0.529077
	O5110	O	0.837647	0.458794	0.478671
	O5111	O	0.974299	0.458815	0.456796
	O5112	O	0.919851	0.458575	0.524183
	O5113	O	0.977307	0.209163	0.612342
	O5114	O	0.832715	0.374843	0.653572
	O5115	O	0.987452	0.124353	0.451166
	C5116	C	0.954780	0.213710	0.592134
	C5117	C	0.960504	0.124740	0.597262
	C5118	C	0.954748	0.035544	0.592283
	C5119	C	0.943489	0.035536	0.582287
	C5120	C	0.937764	0.124654	0.577218
	C5121	C	0.943534	0.213612	0.582164
	C5122	C	0.925692	0.124812	0.566251
	C5123	C	0.972550	0.125011	0.608237
	C5124	C	0.890996	0.124842	0.573850
	C5125	C	0.880285	0.124719	0.590368
	C5126	C	0.875272	0.213778	0.598318
	C5127	C	0.865359	0.214040	0.613732
	C5128	C	0.860219	0.124888	0.621491
	C5129	C	0.865233	0.035754	0.613546
	C5130	C	0.875131	0.035704	0.598129
	C5131	C	0.849593	0.125180	0.638143
	C5132	C	0.889156	0.374455	0.524967
	C5133	C	0.877138	0.374831	0.513976
	C5134	C	0.871447	0.464214	0.508754
	C5135	C	0.860211	0.464162	0.498717
	C5136	C	0.854456	0.374719	0.493736
	C5137	C	0.860174	0.285439	0.498886
	C5138	C	0.871416	0.285391	0.508945
	C5139	C	0.842389	0.374688	0.482850
	C5140	C	0.924431	0.374646	0.518555
	C5141	C	0.935966	0.374633	0.503719
	C5142	C	0.941511	0.285552	0.496824
	C5143	C	0.952299	0.285800	0.483368
	C5144	C	0.957887	0.374749	0.476596
	C5145	C	0.952267	0.463740	0.483314
	C5146	C	0.941461	0.463734	0.496769
	C5147	C	0.969617	0.374861	0.462256
	H5148	H	0.956489	0.217001	0.478087
	H5149	H	0.937339	0.216296	0.502108
	H5150	H	0.959155	0.282599	0.595961
	H5151	H	0.939239	0.282419	0.578115
	H5152	H	0.906681	0.125038	0.518241
	H5153	H	0.908369	0.375190	0.573109
	H5154	H	0.832191	0.375096	0.639258
	H5155	H	0.986947	0.124366	0.465666
	H5156	H	0.875749	0.216351	0.512934
	H5157	H	0.855845	0.216609	0.494928
	H5158	H	0.861581	0.283066	0.619810
	H5159	H	0.879131	0.282855	0.592414
	H5160	H	0.855880	0.532965	0.494717
	H5161	H	0.875808	0.533162	0.512633
	H5162	H	0.878905	-0.033192	0.592068
	H5163	H	0.861348	-0.033255	0.619467
	H5164	H	0.939084	-0.033447	0.578347
	H5165	H	0.959135	-0.033364	0.596277
	H5166	H	0.937256	0.532649	0.502030
	H5167	H	0.956412	0.532739	0.478001
	Al5168	Al	0.916615	-0.499806	0.750005
	Al5169	Al	0.916647	-0.249814	0.749954
	Al5170	Al	0.833293	-0.249949	0.666640
	Al5171	Al	0.833292	-0.499979	0.666618
	O5172	O	0.930262	-0.459132	0.766254
	O5173	O	0.916109	-0.374935	0.736959
	O5174	O	0.917221	-0.124949	0.763013
	O5175	O	0.986348	-0.458669	0.817074
	O5176	O	0.904654	-0.458383	0.772175
	O5177	O	0.854738	-0.458496	0.849162
	O5178	O	0.904620	-0.290553	0.772167
	O5179	O	0.902976	-0.209368	0.733825
	O5180	O	0.846868	-0.208925	0.682944
	O5181	O	0.930261	-0.290746	0.766249
	O5182	O	0.928686	-0.208877	0.727771
	O5183	O	0.978605	-0.209303	0.650896
	O5184	O	0.854752	-0.290440	0.849183
	O5185	O	0.903011	-0.041033	0.733691
	O5186	O	0.847004	-0.040715	0.682685
	O5187	O	0.978513	-0.041133	0.650798
	O5188	O	0.928625	-0.040795	0.727824
	O5189	O	0.986364	-0.290593	0.817128
	O5190	O	0.842102	-0.124484	0.858032
	O5191	O	0.991155	-0.375477	0.642074
	C5192	C	0.963891	-0.285401	0.796616
	C5193	C	0.969610	-0.374665	0.801788
	C5194	C	0.963890	-0.463970	0.796775
	C5195	C	0.952686	-0.464005	0.786662
	C5196	C	0.946994	-0.374699	0.781420
	C5197	C	0.952705	-0.285330	0.786457
	C5198	C	0.934989	-0.374976	0.770350
	C5199	C	0.981615	-0.374505	0.812914
	C5200	C	0.900402	-0.374326	0.778573
	C5201	C	0.889758	-0.374611	0.795216
	C5202	C	0.884658	-0.285813	0.803076
	C5203	C	0.874744	-0.285531	0.818366
	C5204	C	0.869662	-0.374303	0.826240
	C5205	C	0.874730	-0.463153	0.818351
	C5206	C	0.884643	-0.463349	0.803050
	C5207	C	0.858974	-0.374390	0.842806
	C5208	C	0.898260	-0.125111	0.729618
	C5209	C	0.886253	-0.125222	0.718628
	C5210	C	0.880563	-0.035821	0.713471
	C5211	C	0.869377	-0.035681	0.703336
	C5212	C	0.863646	-0.124987	0.698167
	C5213	C	0.869336	-0.214437	0.703372
	C5214	C	0.880538	-0.214481	0.713521
	C5215	C	0.851652	-0.124901	0.687046
	C5216	C	0.932875	-0.124613	0.721416
	C5217	C	0.943549	-0.124848	0.704747
	C5218	C	0.948644	-0.213933	0.696915
	C5219	C	0.958530	-0.214225	0.681580
	C5220	C	0.963620	-0.125337	0.673733
	C5221	C	0.958538	-0.036222	0.681572
	C5222	C	0.948646	-0.036035	0.696921
	C5223	C	0.974309	-0.125320	0.657196
	H5224	H	0.962400	-0.283266	0.675598
	H5225	H	0.944845	-0.282878	0.702895
	H5226	H	0.968231	-0.216343	0.800573
	H5227	H	0.948406	-0.216307	0.782336
	H5228	H	0.915555	-0.375121	0.722498
	H5229	H	0.917723	-0.124993	0.777398
	H5230	H	0.841664	-0.125023	0.843713
	H5231	H	0.991530	-0.376004	0.656509
	H5232	H	0.884872	-0.283733	0.717663
	H5233	H	0.864951	-0.283392	0.699403
	H5234	H	0.870902	-0.216540	0.824345
	H5235	H	0.888472	-0.217059	0.797081
	H5236	H	0.865105	0.033263	0.699337
	H5237	H	0.884897	0.033301	0.717484
	H5238	H	0.888452	-0.532030	0.796930
	H5239	H	0.870878	-0.532113	0.824282
	H5240	H	0.948323	-0.533090	0.782747
	H5241	H	0.968171	-0.532638	0.800842
	H5242	H	0.944806	0.032878	0.702924
	H5243	H	0.962385	0.032731	0.675605
	Al5244	Al	0.916590	0.000277	0.749995
	Al5245	Al	0.916645	0.250283	0.750132
	Al5246	Al	0.833338	0.250039	0.666561
	Al5247	Al	0.833294	0.000092	0.666636
	O5248	O	0.930194	0.041188	0.766252
	O5249	O	0.916025	0.125418	0.737022
	O5250	O	0.917273	0.375399	0.763063
	O5251	O	0.986382	0.040834	0.817041
	O5252	O	0.904625	0.040689	0.772296
	O5253	O	0.854702	0.040844	0.849183
	O5254	O	0.904668	0.208857	0.772330
	O5255	O	0.903002	0.290916	0.733919
	O5256	O	0.846945	0.290926	0.682886
	O5257	O	0.930258	0.209566	0.766280
	O5258	O	0.928601	0.290853	0.727884
	O5259	O	0.978567	0.291113	0.650840
	O5260	O	0.854683	0.209095	0.849217
	O5261	O	0.902978	0.459244	0.733847
	O5262	O	0.846985	0.459074	0.682676
	O5263	O	0.978489	0.459240	0.650878
	O5264	O	0.928615	0.458931	0.727795
	O5265	O	0.986364	0.209055	0.816998
	O5266	O	0.842125	0.375484	0.857933
	O5267	O	0.991177	0.124920	0.642098
	C5268	C	0.963906	0.213949	0.796596
	C5269	C	0.969614	0.124821	0.801768
	C5270	C	0.963903	0.035834	0.796676
	C5271	C	0.952678	0.035581	0.786590
	C5272	C	0.946952	0.124686	0.781508
	C5273	C	0.952682	0.213895	0.786506
	C5274	C	0.934957	0.125174	0.770388
	C5275	C	0.981628	0.124903	0.812880
	C5276	C	0.900423	0.124907	0.778694
	C5277	C	0.889786	0.125292	0.795388
	C5278	C	0.884665	0.214323	0.803180
	C5279	C	0.874746	0.214146	0.818474
	C5280	C	0.869642	0.125017	0.826312
	C5281	C	0.874719	0.036079	0.818425
	C5282	C	0.884633	0.036236	0.803141
	C5283	C	0.858931	0.125010	0.842879
	C5284	C	0.898249	0.374963	0.729720
	C5285	C	0.886247	0.375196	0.718654
	C5286	C	0.880546	0.464384	0.713478
	C5287	C	0.869362	0.464100	0.703266
	C5288	C	0.863681	0.374983	0.698080
	C5289	C	0.869383	0.285941	0.703302
	C5290	C	0.880534	0.286135	0.713514
	C5291	C	0.851670	0.375084	0.686973
	C5292	C	0.932817	0.374916	0.721495
	C5293	C	0.943468	0.374741	0.704810
	C5294	C	0.948547	0.285622	0.696964
	C5295	C	0.958471	0.285841	0.681576
	C5296	C	0.963570	0.374911	0.673790
	C5297	C	0.958483	0.463908	0.681702
	C5298	C	0.948565	0.463964	0.697083
	C5299	C	0.974275	0.374996	0.657226
	H5300	H	0.962322	0.216492	0.675649
	H5301	H	0.944716	0.216514	0.702971
	H5302	H	0.968251	0.282870	0.800527
	H5303	H	0.948357	0.282535	0.782389
	H5304	H	0.915437	0.125528	0.722664
	H5305	H	0.918082	0.375681	0.777351
	H5306	H	0.841844	0.375147	0.843536
	H5307	H	0.991882	0.124834	0.656509
	H5308	H	0.884880	0.217182	0.717540
	H5309	H	0.865069	0.216960	0.699318
	H5310	H	0.870884	0.283095	0.824439
	H5311	H	0.888471	0.283565	0.797156
	H5312	H	0.864996	0.532690	0.699197
	H5313	H	0.884862	0.533374	0.717512
	H5314	H	0.888399	-0.032947	0.797018
	H5315	H	0.870810	-0.032850	0.824316
	H5316	H	0.948372	-0.033489	0.782536
	H5317	H	0.968232	-0.032801	0.800748
	H5318	H	0.944792	0.533084	0.703137
	H5319	H	0.962362	0.533134	0.675860
	Al5320	Al	0.925956	-0.499653	0.954222
	Al5321	Al	0.925941	-0.249595	0.954239
	Al5322	Al	0.842546	-0.249481	0.871155
	Al5323	Al	0.842560	-0.499446	0.870999
	O5324	O	0.939430	-0.458378	0.970769
	O5325	O	0.925517	-0.374562	0.941129
	O5326	O	0.926310	-0.124730	0.967351
	O5327	O	0.995716	-0.458557	1.021221
	O5328	O	0.913488	-0.458385	0.975732
	O5329	O	0.859102	-0.458084	1.043288
	O5330	O	0.913458	-0.290209	0.975750
	O5331	O	0.912441	-0.208868	0.937632
	O5332	O	0.856004	-0.208950	0.887726
	O5333	O	0.939435	-0.290233	0.970712
	O5334	O	0.938073	-0.208510	0.932379
	O5335	O	0.988006	-0.209018	0.855586
	O5336	O	0.859172	-0.290082	1.043271
	O5337	O	0.912422	-0.040522	0.937665
	O5338	O	0.855986	-0.040588	0.887710
	O5339	O	0.987929	-0.040704	0.855490
	O5340	O	0.938078	-0.040550	0.932353
	O5341	O	0.995706	-0.290543	1.021127
	O5342	O	0.845939	-0.124209	1.048900
	O5343	O	1.000631	-0.374977	0.846303
	C5344	C	0.973133	-0.285096	1.001141
	C5345	C	0.978882	-0.374377	1.006141
	C5346	C	0.973158	-0.463389	1.001062
	C5347	C	0.961925	-0.463581	0.991042
	C5348	C	0.956214	-0.374464	0.985919
	C5349	C	0.961905	-0.285296	0.991064
	C5350	C	0.944161	-0.374292	0.974877
	C5351	C	0.990949	-0.374605	1.017099
	C5352	C	0.908923	-0.374488	0.981444
	C5353	C	0.897420	-0.374796	0.996299
	C5354	C	0.891934	-0.285844	1.003280
	C5355	C	0.881136	-0.285633	1.016734
	C5356	C	0.875515	-0.374502	1.023450
	C5357	C	0.881082	-0.463592	1.016665
	C5358	C	0.891893	-0.463702	1.003230
	C5359	C	0.863782	-0.374275	1.037787
	C5360	C	0.907663	-0.124809	0.933597
	C5361	C	0.895571	-0.124720	0.922786
	C5362	C	0.889820	-0.035260	0.917677
	C5363	C	0.878577	-0.034900	0.907701
	C5364	C	0.872794	-0.124366	0.902758
	C5365	C	0.878565	-0.213732	0.907809
	C5366	C	0.889803	-0.214078	0.917793
	C5367	C	0.860747	-0.124722	0.891796
	C5368	C	0.942342	-0.124603	0.926104
	C5369	C	0.952985	-0.124777	0.909458
	C5370	C	0.958137	-0.213816	0.901729
	C5371	C	0.968060	-0.213799	0.886437
	C5372	C	0.973143	-0.124791	0.878585
	C5373	C	0.967975	-0.035627	0.886271
	C5374	C	0.958059	-0.035698	0.901581
	C5375	C	0.983736	-0.124843	0.861896
	H5376	H	0.971909	-0.282732	0.880473
	H5377	H	0.954365	-0.282722	0.907788
	H5378	H	0.977446	-0.216513	1.005280
	H5379	H	0.957515	-0.216583	0.987155
	H5380	H	0.924984	-0.374573	0.926742
	H5381	H	0.926507	-0.124252	0.981815
	H5382	H	0.846455	-0.124050	1.034306
	H5383	H	1.001395	-0.375292	0.860594
	H5384	H	0.894163	-0.283292	0.921641
	H5385	H	0.874198	-0.282739	0.903747
	H5386	H	0.876961	-0.216725	1.022060
	H5387	H	0.896134	-0.217031	0.998082
	H5388	H	0.874253	0.034203	0.903595
	H5389	H	0.894266	0.033594	0.921532
	H5390	H	0.896032	-0.532769	0.997916
	H5391	H	0.876868	-0.532070	1.021908
	H5392	H	0.957620	-0.532376	0.987029
	H5393	H	0.977465	-0.532383	1.005076
	H5394	H	0.954213	0.033341	0.907554
	H5395	H	0.971756	0.033228	0.880210
	Al5396	Al	0.925927	0.000103	0.954223
	Al5397	Al	0.925891	0.250463	0.954378
	Al5398	Al	0.842533	0.250553	0.871139
	Al5399	Al	0.842471	0.000418	0.871145
	O5400	O	0.939393	0.041181	0.970923
	O5401	O	0.925464	0.125362	0.941234
	O5402	O	0.926336	0.375356	0.967427
	O5403	O	0.995736	0.041391	1.021130
	O5404	O	0.913369	0.041023	0.975631
	O5405	O	0.859090	0.041357	1.043293
	O5406	O	0.913406	0.209147	0.975731
	O5407	O	0.912383	0.291159	0.937836
	O5408	O	0.856029	0.290769	0.887664
	O5409	O	0.939310	0.209562	0.971088
	O5410	O	0.938119	0.291267	0.932506
	O5411	O	0.987985	0.291144	0.855510
	O5412	O	0.859067	0.209328	1.043332
	O5413	O	0.912437	0.459579	0.937677
	O5414	O	0.856027	0.459175	0.887624
	O5415	O	0.988012	0.459265	0.855573
	O5416	O	0.938113	0.459223	0.932432
	O5417	O	0.995803	0.209607	1.021046
	O5418	O	0.845814	0.375569	1.048809
	O5419	O	1.000592	0.124935	0.846307
	C5420	C	0.973206	0.214750	1.001011
	C5421	C	0.978931	0.125544	1.006084
	C5422	C	0.973155	0.036449	1.001113
	C5423	C	0.961889	0.036612	0.991150
	C5424	C	0.956151	0.125813	0.986087
	C5425	C	0.961947	0.214966	0.991039
	C5426	C	0.944083	0.125305	0.975129
	C5427	C	0.991007	0.125756	1.017003
	C5428	C	0.908873	0.125077	0.981426
	C5429	C	0.897364	0.125283	0.996331
	C5430	C	0.891879	0.214195	1.003234
	C5431	C	0.881056	0.214449	1.016738
	C5432	C	0.875496	0.125468	1.023572
	C5433	C	0.881021	0.036601	1.016727
	C5434	C	0.891823	0.036381	1.003230
	C5435	C	0.863732	0.125418	1.037876
	C5436	C	0.907659	0.375156	0.933678
	C5437	C	0.895590	0.375362	0.922778
	C5438	C	0.889824	0.464691	0.917767
	C5439	C	0.878566	0.464581	0.907763
	C5440	C	0.872801	0.375123	0.902807
	C5441	C	0.878539	0.285854	0.907888
	C5442	C	0.889800	0.285981	0.917908
	C5443	C	0.860780	0.375108	0.891740
	C5444	C	0.942362	0.375176	0.926123
	C5445	C	0.952985	0.375323	0.909446
	C5446	C	0.958126	0.286453	0.901714
	C5447	C	0.968022	0.286283	0.886362
	C5448	C	0.973087	0.375216	0.878488
	C5449	C	0.967998	0.464184	0.886292
	C5450	C	0.958097	0.464188	0.901650
	C5451	C	0.983702	0.375442	0.861822
	H5452	H	0.971821	0.217554	0.880338
	H5453	H	0.954313	0.217645	0.907755
	H5454	H	0.977581	0.283901	1.004922
	H5455	H	0.957577	0.283792	0.987133
	H5456	H	0.924865	0.125377	0.926861
	H5457	H	0.926675	0.375825	0.981790
	H5458	H	0.845943	0.375638	1.034341
	H5459	H	1.000965	0.124683	0.860691
	H5460	H	0.894172	0.216973	0.921921
	H5461	H	0.874198	0.216606	0.903984
	H5462	H	0.876899	0.283508	1.021929
	H5463	H	0.896030	0.283049	0.997943
	H5464	H	0.874205	0.533610	0.903733
	H5465	H	0.894185	0.533860	0.921628
	H5466	H	0.895948	-0.032902	0.997961
	H5467	H	0.876847	-0.032541	1.021955
	H5468	H	0.957486	-0.032217	0.987289
	H5469	H	0.977516	-0.032546	1.005058
	H5470	H	0.954296	0.533059	0.907691
	H5471	H	0.971766	0.533132	0.880284
